0:0:0
     RDKit          3D

101109  0  0  1  0  0  0  0  0999 V2000
  -31.9470  -18.9690   18.1830 C   0  0  0  0  0  2  0  0  0  0  0  0
  -33.4360  -18.5610   18.2680 C   0  0  0  0  0  2  0  0  0  0  0  0
  -34.0700  -19.4290   20.5700 C   0  0  0  0  0  2  0  0  0  0  0  0
  -32.9020  -20.3140   21.0710 C   0  0  0  0  0  2  0  0  0  0  0  0
  -31.1450  -19.2020   19.5000 C   0  0  0  0  0  3  0  0  0  0  0  0
  -34.3700  -19.5120   19.0590 C   0  0  0  0  0  3  0  0  0  0  0  0
  -31.7060  -20.4210   20.1780 N   0  0  1  0  0  4  0  0  0  0  0  0
  -32.0610  -20.9060   19.3700 H   0  0  0  0  0  0  0  0  0  0  0  0
  -35.7840  -19.1810   18.8000 N   0  0  0  0  0  4  0  0  0  0  0  0
  -36.0060  -18.2440   19.0850 H   0  0  0  0  0  0  0  0  0  0  0  0
  -36.3880  -19.8100   19.2980 H   0  0  0  0  0  0  0  0  0  0  0  0
  -36.0000  -19.2720   17.8220 H   0  0  0  0  0  0  0  0  0  0  0  0
  -30.9520  -17.9310   20.4180 C   0  0  0  0  0  0  0  0  0  0  0  0
  -31.7240  -17.6560   21.3390 O   0  0  0  0  0  0  0  0  0  0  0  0
  -29.7030  -17.0190   20.1860 C   0  0  0  0  0  3  0  0  0  0  0  0
  -30.5990  -14.6800   20.4900 C   0  0  0  0  0  0  0  0  0  0  0  0
  -30.3050  -12.5950   19.2320 C   0  0  0  0  0  2  0  0  0  0  0  0
  -29.3480  -12.9240   18.0620 C   0  0  0  0  0  2  0  0  0  0  0  0
  -27.8730  -12.7780   18.5010 C   0  0  0  0  0  2  0  0  0  0  0  0
  -27.5640  -13.4690   19.8570 C   0  0  0  0  0  3  0  0  0  0  0  0
  -28.6480  -13.1410   20.9150 C   0  0  0  0  0  2  0  0  0  0  0  0
  -29.9640  -13.4870   20.3500 N   0  0  0  0  0  0  0  0  0  0  0  0
  -31.7270  -14.9030   20.0420 O   0  0  0  0  0  0  0  0  0  0  0  0
  -29.7920  -15.6940   20.8550 N   0  0  0  0  0  0  0  0  0  0  0  0
  -28.9460  -15.4020   21.3200 H   0  0  0  0  0  0  0  0  0  0  0  0
  -25.1420  -13.9880   20.5590 C   0  0  0  0  0  0  0  0  0  0  0  0
  -24.1040  -13.1740   20.9260 C   0  0  0  0  0  0  0  0  0  0  0  0
  -24.6130  -11.8400   20.8880 C   0  0  0  0  0  0  0  0  0  0  0  0
  -26.2210  -13.1450   20.3290 N   0  0  0  0  0  0  0  0  0  0  0  0
  -25.9050  -11.8490   20.5820 N   0  0  0  0  0  0  0  0  0  0  0  0
  -23.9330  -10.5510   21.0670 C   0  0  0  0  0  0  0  0  0  0  0  0
  -24.3860   -9.6010   22.0080 C   0  0  0  0  0  3  0  0  0  0  0  0
  -23.7000   -8.3790   22.1780 C   0  0  0  0  0  3  0  0  0  0  0  0
  -22.5490   -8.0970   21.4070 C   0  0  0  0  0  0  0  0  0  0  0  0
  -22.1160   -9.0360   20.4540 C   0  0  0  0  0  3  0  0  0  0  0  0
  -22.8020  -10.2490   20.2810 C   0  0  0  0  0  3  0  0  0  0  0  0
  -21.8360   -6.9240   21.4840 O   0  0  0  0  0  0  0  0  0  0  0  0
  -21.7840   -6.1900   22.6430 C   0  0  0  0  0  0  0  0  0  0  0  0
  -21.2980   -6.7370   23.8510 C   0  0  0  0  0  3  0  0  0  0  0  0
  -21.1950   -5.9270   25.0010 C   0  0  0  0  0  3  0  0  0  0  0  0
  -21.5710   -4.5710   24.9420 C   0  0  0  0  0  0  0  0  0  0  0  0
  -22.0510   -4.0250   23.7400 C   0  0  0  0  0  3  0  0  0  0  0  0
  -22.1550   -4.8310   22.5930 C   0  0  0  0  0  0  0  0  0  0  0  0
  -22.5980   -4.2930   21.4310 F   0  0  0  0  0  0  0  0  0  0  0  0
  -21.4640   -3.7910   26.0430 F   0  0  0  0  0  0  0  0  0  0  0  0
  -22.6880  -13.5990   21.1980 C   0  0  0  0  0  0  0  0  0  0  0  0
  -21.9860  -12.8760   22.0610 N   0  0  0  0  0  0  0  0  0  0  0  0
  -22.2130  -14.6080   20.6770 O   0  0  0  0  0  0  0  0  0  0  0  0
  -22.3800  -12.0640   22.5140 H   0  0  0  0  0  0  0  0  0  0  0  0
  -21.0340  -13.1380   22.2740 H   0  0  0  0  0  0  0  0  0  0  0  0
  -25.2550  -15.3630   20.3790 N   0  0  0  0  0  0  0  0  0  0  0  0
  -24.4580  -15.9850   20.4720 H   0  0  0  0  0  0  0  0  0  0  0  0
  -26.0770  -15.8280   20.0160 H   0  0  0  0  0  0  0  0  0  0  0  0
  -28.2960  -17.9550   18.1620 C   0  0  0  0  0  1  0  0  0  0  0  0
  -29.2040  -16.8450   18.7190 C   0  0  0  0  0  2  0  0  0  0  0  0
  -30.7170  -21.4440   20.6310 C   0  0  0  0  0  2  0  0  0  0  0  0
  -31.0220  -22.8100   19.9640 C   0  0  0  0  0  2  0  0  0  0  0  0
  -29.9790  -23.9230   20.2070 C   0  0  0  0  0  2  0  0  0  0  0  0
  -30.3180  -25.2310   19.4480 C   0  0  0  0  0  2  0  0  0  0  0  0
  -29.0960  -26.1100   19.1090 C   0  0  0  0  0  2  0  0  0  0  0  0
  -28.6960  -26.8840   20.2390 O   0  0  0  0  0  0  0  0  0  0  0  0
  -24.6230  -31.8900   23.2080 C   0  0  0  0  0  0  0  0  0  0  0  0
  -27.4880  -27.5490   20.1780 C   0  0  0  0  0  0  0  0  0  0  0  0
  -23.5020  -30.4570   21.5330 C   0  0  0  0  0  3  0  0  0  0  0  0
  -25.0380  -28.9680   20.1420 C   0  0  0  0  0  0  0  0  0  0  0  0
  -26.0190  -30.8910   21.4020 C   0  0  0  0  0  2  0  0  0  0  0  0
  -26.1610  -29.5250   20.7650 C   0  0  0  0  0  0  0  0  0  0  0  0
  -27.3830  -28.8170   20.7900 C   0  0  0  0  0  3  0  0  0  0  0  0
  -26.3400  -26.9960   19.5620 C   0  0  0  0  0  3  0  0  0  0  0  0
  -25.1200  -27.6990   19.5460 C   0  0  0  0  0  3  0  0  0  0  0  0
  -23.7660  -29.7850   20.1590 C   0  0  0  0  0  2  0  0  0  0  0  0
  -24.7310  -31.0940   22.1070 N   0  0  0  0  0  0  0  0  0  0  0  0
  -23.5200  -32.1300   23.7200 O   0  0  0  0  0  0  0  0  0  0  0  0
  -22.8560  -29.4150   22.4740 C   0  0  0  0  0  0  0  0  0  0  0  0
  -21.5410  -29.1990   22.3120 N   0  0  0  0  0  0  0  0  0  0  0  0
  -23.5360  -28.8050   23.3030 O   0  0  0  0  0  0  0  0  0  0  0  0
  -21.0550  -29.7430   21.6140 H   0  0  0  0  0  0  0  0  0  0  0  0
  -18.1850  -27.9270   22.7270 C   0  0  0  0  0  0  0  0  0  0  0  0
  -20.7290  -28.2390   23.0580 C   0  0  0  0  0  3  0  0  0  0  0  0
  -20.8770  -26.8140   22.4750 C   0  0  0  0  0  2  0  0  0  0  0  0
  -19.8060  -26.4750   21.4330 C   0  0  0  0  0  2  0  0  0  0  0  0
  -18.4060  -26.5860   22.0470 C   0  0  0  0  0  2  0  0  0  0  0  0
  -19.2770  -28.7100   23.1870 C   0  0  0  0  0  0  0  0  0  0  0  0
  -19.0180  -29.9660   23.7790 C   0  0  0  0  0  3  0  0  0  0  0  0
  -17.7000  -30.4380   23.9180 C   0  0  0  0  0  3  0  0  0  0  0  0
  -16.6220  -29.6520   23.4760 C   0  0  0  0  0  3  0  0  0  0  0  0
  -16.8650  -28.3990   22.8850 C   0  0  0  0  0  3  0  0  0  0  0  0
  -25.8730  -32.5560   23.8620 C   0  0  0  0  0  3  0  0  0  0  0  0
  -26.3780  -31.7990   25.1510 C   0  0  1  0  0  0  0  0  0  0  0  0
  -25.2670  -31.5260   26.1910 C   0  0  0  0  0  1  0  0  0  0  0  0
  -27.0100  -30.4400   24.7700 C   0  0  0  0  0  1  0  0  0  0  0  0
  -27.4870  -32.6250   25.8430 C   0  0  0  0  0  1  0  0  0  0  0  0
  -25.5180  -33.9450   24.1810 N   0  0  0  0  0  0  0  0  0  0  0  0
  -25.8400  -35.0040   23.4270 C   0  0  0  0  0  0  0  0  0  0  0  0
  -26.5400  -34.9170   22.4130 O   0  0  0  0  0  0  0  0  0  0  0  0
  -24.9000  -34.0840   24.9670 H   0  0  0  0  0  0  0  0  0  0  0  0
  -24.0730  -36.7460   23.0200 C   0  0  0  0  0  1  0  0  0  0  0  0
  -25.3020  -36.3790   23.8670 C   0  0  0  0  0  3  0  0  0  0  0  0
  -27.3870  -37.3250   24.7540 C   0  0  0  0  0  1  0  0  0  0  0  0
  -26.3090  -37.4600   23.7780 N   0  0  0  0  0  0  0  0  0  0  0  0
  -25.8730  -38.3700   23.9100 H   0  0  0  0  0  0  0  0  0  0  0  0
  1  2  1  0
  1  5  1  0
  2  6  1  0
  3  4  1  0
  5  7  1  0
  5 13  1  0
  6  9  1  0
  6  3  1  0
  7 56  1  0
  7  4  1  0
  7  8  1  6
  9 10  1  0
  9 11  1  0
 12  9  1  0
 13 14  2  0
 15 55  1  0
 15 13  1  0
 15 24  1  0
 16 24  1  0
 17 22  1  0
 18 19  1  0
 18 17  1  0
 20 19  1  0
 20 29  1  0
 20 21  1  0
 22 16  1  0
 22 21  1  0
 23 16  2  0
 24 25  1  0
 26 27  2  0
 27 46  1  0
 28 27  1  0
 28 31  1  0
 29 26  1  0
 29 30  1  0
 30 28  2  0
 31 32  1  0
 32 33  2  0
 34 37  1  0
 34 33  1  0
 35 34  2  0
 36 35  1  0
 36 31  2  0
 37 38  1  0
 38 39  1  0
 39 40  2  0
 41 40  1  0
 41 45  1  0
 42 41  2  0
 43 38  2  0
 43 42  1  0
 44 43  1  0
 46 47  1  0
 47 50  1  0
 47 49  1  0
 48 46  2  0
 51 52  1  0
 51 26  1  0
 53 51  1  0
 54 55  1  0
 57 58  1  0
 57 56  1  0
 59 58  1  0
 60 59  1  0
 60 61  1  0
 62 73  2  0
 63 61  1  0
 63 68  1  0
 64 72  1  0
 64 74  1  0
 65 71  1  0
 65 67  1  0
 66 72  1  0
 67 68  2  0
 67 66  1  0
 69 63  2  0
 70 69  1  0
 70 65  2  0
 71 64  1  0
 72 62  1  0
 74 76  2  0
 75 74  1  0
 77 75  1  0
 78 87  2  0
 78 83  1  0
 79 75  1  0
 79 83  1  0
 80 79  1  0
 81 82  1  0
 81 80  1  0
 82 78  1  0
 83 84  2  0
 84 85  1  0
 86 85  2  0
 87 86  1  0
 88 62  1  0
 88 93  1  0
 88 89  1  0
 89 92  1  1
 89 90  1  0
 91 89  1  0
 93 96  1  0
 94 98  1  0
 94 93  1  0
 95 94  2  0
 98 97  1  0
100 98  1  0
100101  1  0
100 99  1  0
M  ISO  4  16 100  24 100  60 101  61 101
M  END
>  <TORSDO>  (1) 
F 25

>  <SCORE>  (1) 
-12.551

>  <name>  (1) 
0

>  <ligand_id>  (1) 
0

>  <original_smiles>  (1) 
[H]c1c([H])c([H])c2c(c1[H])C([H])([H])C([H])([H])C([H])([H])C2([H])N([H])C(=O)C1([H])N(C(=O)C([H])(N([H])C(=O)C([H])(N([H])C([H])([H])[H])C([H])([H])[H])C(C([H])([H])[H])(C([H])([H])[H])C([H])([H])[H])C([H])([H])c2c([H])c(OC([H])([H])C([H])([H])C([H])([H])C([H])([H])C([H])([H])[N+]3([H])C([H])([H])C([H])([H])C([H])([N+]([H])([H])[H])C([H])([H])C([H])([H])C3([H])C(=O)C([H])(N([H])C(=O)N3C([H])([H])C([H])([H])C([H])([H])C([H])(n4nc(-c5c([H])c([H])c(Oc6c([H])c([H])c(F)c([H])c6F)c([H])c5[H])c(C(=O)N([H])[H])c4N([H])[H])C3([H])[H])C([H])([H])C([H])([H])[H])c([H])c([H])c2C1([H])[H]

>  <smiles>  (1) 
[H]c1c([H])c([H])c2c(c1[H])C([H])([H])C([H])([H])C([H])([H])C2([H])N([H])C(=O)C1([H])N(C(=O)C([H])(N([H])C(=O)C([H])(N([H])C([H])([H])[H])C([H])([H])[H])C(C([H])([H])[H])(C([H])([H])[H])C([H])([H])[H])C([H])([H])c2c([H])c(OC([H])([H])C([H])([H])C([H])([H])C([H])([H])C([H])([H])[N+]3([H])C([H])([H])C([H])([H])C([H])([N+]([H])([H])[H])C([H])([H])C([H])([H])C3([H])C(=O)C([H])(N([H])C(=O)N3C([H])([H])C([H])([H])C([H])([H])C([H])(n4nc(-c5c([H])c([H])c(Oc6c([H])c([H])c(F)c([H])c6F)c([H])c5[H])c(C(=O)N([H])[H])c4N([H])[H])C3([H])[H])C([H])([H])C([H])([H])[H])c([H])c([H])c2C1([H])[H]

$$$$
1:0:0
     RDKit          3D

 93101  0  0  1  0  0  0  0  0999 V2000
  -29.7620  -20.0120   20.8800 C   0  0  0  0  0  3  0  0  0  0  0  0
  -33.8240  -21.0210   22.1090 C   0  0  0  0  0  3  0  0  0  0  0  0
  -32.9290  -20.4330   23.0230 C   0  0  0  0  0  3  0  0  0  0  0  0
  -33.4150  -21.2580   20.7830 C   0  0  0  0  0  3  0  0  0  0  0  0
  -31.6230  -20.0960   22.6120 C   0  0  0  0  0  3  0  0  0  0  0  0
  -32.1070  -20.9220   20.3700 C   0  0  0  0  0  3  0  0  0  0  0  0
  -31.1960  -20.3550   21.2890 C   0  0  0  0  0  0  0  0  0  0  0  0
  -29.5690  -18.4810   20.4140 C   0  0  0  0  0  3  0  0  0  0  0  0
  -30.5830  -17.3050   20.8070 C   0  0  0  0  0  3  0  0  0  0  0  0
  -30.9070  -14.7750   20.2610 C   0  0  0  0  0  0  0  0  0  0  0  0
  -30.6750  -12.4960   19.2850 C   0  0  0  0  0  2  0  0  0  0  0  0
  -29.7340  -12.5210   18.0590 C   0  0  0  0  0  2  0  0  0  0  0  0
  -28.2680  -12.3670   18.5000 C   0  0  0  0  0  2  0  0  0  0  0  0
  -27.8910  -13.3270   19.6590 C   0  0  0  0  0  3  0  0  0  0  0  0
  -28.9390  -13.2770   20.7910 C   0  0  0  0  0  2  0  0  0  0  0  0
  -30.2510  -13.5730   20.1990 N   0  0  0  0  0  0  0  0  0  0  0  0
  -32.0830  -14.8820   19.9070 O   0  0  0  0  0  0  0  0  0  0  0  0
  -30.1550  -15.8810   20.5630 N   0  0  0  0  0  0  0  0  0  0  0  0
  -29.1790  -15.6860   20.7350 H   0  0  0  0  0  0  0  0  0  0  0  0
  -25.5150  -13.9650   20.3990 C   0  0  0  0  0  0  0  0  0  0  0  0
  -24.4380  -13.2080   20.7700 C   0  0  0  0  0  0  0  0  0  0  0  0
  -24.8810  -11.8500   20.7410 C   0  0  0  0  0  0  0  0  0  0  0  0
  -26.5440  -13.0690   20.1560 N   0  0  0  0  0  0  0  0  0  0  0  0
  -26.1690  -11.7930   20.4290 N   0  0  0  0  0  0  0  0  0  0  0  0
  -24.1400  -10.5980   20.9350 C   0  0  0  0  0  0  0  0  0  0  0  0
  -24.5310   -9.6490   21.9040 C   0  0  0  0  0  3  0  0  0  0  0  0
  -23.7880   -8.4600   22.0800 C   0  0  0  0  0  3  0  0  0  0  0  0
  -22.6430   -8.2150   21.2880 C   0  0  0  0  0  0  0  0  0  0  0  0
  -22.2710   -9.1550   20.3090 C   0  0  0  0  0  3  0  0  0  0  0  0
  -23.0130  -10.3330   20.1300 C   0  0  0  0  0  3  0  0  0  0  0  0
  -21.8730   -7.0790   21.3740 O   0  0  0  0  0  0  0  0  0  0  0  0
  -21.7460   -6.3860   22.5500 C   0  0  0  0  0  0  0  0  0  0  0  0
  -21.2360   -6.9910   23.7170 C   0  0  0  0  0  3  0  0  0  0  0  0
  -21.0520   -6.2250   24.8860 C   0  0  0  0  0  3  0  0  0  0  0  0
  -21.3720   -4.8530   24.8860 C   0  0  0  0  0  0  0  0  0  0  0  0
  -21.8740   -4.2480   23.7200 C   0  0  0  0  0  3  0  0  0  0  0  0
  -22.0570   -5.0120   22.5560 C   0  0  0  0  0  0  0  0  0  0  0  0
  -22.5220   -4.4190   21.4290 F   0  0  0  0  0  0  0  0  0  0  0  0
  -21.1900   -4.1130   26.0060 F   0  0  0  0  0  0  0  0  0  0  0  0
  -23.0490  -13.7060   21.0470 C   0  0  0  0  0  0  0  0  0  0  0  0
  -22.3200  -13.0230   21.9220 N   0  0  0  0  0  0  0  0  0  0  0  0
  -22.6180  -14.7290   20.5180 O   0  0  0  0  0  0  0  0  0  0  0  0
  -22.6810  -12.1950   22.3700 H   0  0  0  0  0  0  0  0  0  0  0  0
  -21.3850  -13.3340   22.1500 H   0  0  0  0  0  0  0  0  0  0  0  0
  -25.6960  -15.3340   20.2210 N   0  0  0  0  0  0  0  0  0  0  0  0
  -24.9370  -15.9950   20.3450 H   0  0  0  0  0  0  0  0  0  0  0  0
  -26.5470  -15.7710   19.8930 H   0  0  0  0  0  0  0  0  0  0  0  0
  -29.0210  -21.1830   20.0570 C   0  0  0  0  0  2  0  0  0  0  0  0
  -27.5610  -22.4540   21.7440 C   0  0  0  0  0  1  0  0  0  0  0  0
  -28.7230  -22.6070   20.7410 C   0  0  0  0  0  3  0  0  0  0  0  0
  -28.4150  -23.8490   19.7630 C   0  0  0  0  0  3  0  0  0  0  0  0
  -28.1290  -25.2810   20.4180 C   0  0  0  0  0  3  0  0  0  0  0  0
  -28.1760  -26.5270   19.6170 O   0  0  0  0  0  0  0  0  0  0  0  0
  -24.6140  -31.7430   23.1010 C   0  0  0  0  0  0  0  0  0  0  0  0
  -27.0590  -27.3680   19.6930 C   0  0  0  0  0  0  0  0  0  0  0  0
  -23.3110  -30.4110   21.4750 C   0  0  0  0  0  3  0  0  0  0  0  0
  -24.6840  -28.9410   19.8880 C   0  0  0  0  0  0  0  0  0  0  0  0
  -25.8300  -30.7640   21.1490 C   0  0  0  0  0  2  0  0  0  0  0  0
  -25.8810  -29.4190   20.4380 C   0  0  0  0  0  0  0  0  0  0  0  0
  -27.0720  -28.6460   20.3280 C   0  0  0  0  0  3  0  0  0  0  0  0
  -25.8410  -26.9360   19.1220 C   0  0  0  0  0  3  0  0  0  0  0  0
  -24.6640  -27.7050   19.2220 C   0  0  0  0  0  3  0  0  0  0  0  0
  -23.4420  -29.7970   20.0540 C   0  0  0  0  0  2  0  0  0  0  0  0
  -24.6060  -30.9890   21.9630 N   0  0  0  0  0  0  0  0  0  0  0  0
  -23.5690  -31.9800   23.7230 O   0  0  0  0  0  0  0  0  0  0  0  0
  -22.7230  -29.3440   22.4310 C   0  0  0  0  0  0  0  0  0  0  0  0
  -21.4100  -29.0840   22.3130 N   0  0  0  0  0  0  0  0  0  0  0  0
  -23.4470  -28.7570   23.2400 O   0  0  0  0  0  0  0  0  0  0  0  0
  -20.8810  -29.6160   21.6350 H   0  0  0  0  0  0  0  0  0  0  0  0
  -18.1550  -27.5620   22.7290 C   0  0  0  0  0  0  0  0  0  0  0  0
  -20.6610  -28.0860   23.0790 C   0  0  0  0  0  3  0  0  0  0  0  0
  -20.9280  -26.6570   22.5470 C   0  0  0  0  0  2  0  0  0  0  0  0
  -19.9040  -26.2000   21.5050 C   0  0  0  0  0  2  0  0  0  0  0  0
  -18.4910  -26.2200   22.0950 C   0  0  0  0  0  2  0  0  0  0  0  0
  -19.1750  -28.4440   23.1750 C   0  0  0  0  0  0  0  0  0  0  0  0
  -18.8130  -29.6910   23.7260 C   0  0  0  0  0  3  0  0  0  0  0  0
  -17.4610  -30.0640   23.8380 C   0  0  0  0  0  3  0  0  0  0  0  0
  -16.4540  -29.1830   23.4100 C   0  0  0  0  0  3  0  0  0  0  0  0
  -16.7990  -27.9340   22.8590 C   0  0  0  0  0  3  0  0  0  0  0  0
  -25.9340  -32.3580   23.6650 C   0  0  0  0  0  3  0  0  0  0  0  0
  -25.6400  -33.7390   24.0690 N   0  0  0  0  0  0  0  0  0  0  0  0
  -25.9360  -34.8270   23.3430 C   0  0  0  0  0  0  0  0  0  0  0  0
  -26.5530  -34.7730   22.2770 O   0  0  0  0  0  0  0  0  0  0  0  0
  -25.0990  -33.8560   24.9120 H   0  0  0  0  0  0  0  0  0  0  0  0
  -24.1870  -36.6310   23.1650 C   0  0  0  0  0  1  0  0  0  0  0  0
  -25.4680  -36.1890   23.8880 C   0  0  0  0  0  3  0  0  0  0  0  0
  -27.6320  -37.0540   24.6520 C   0  0  0  0  0  1  0  0  0  0  0  0
  -26.4840  -37.2540   23.7730 N   0  0  0  0  0  0  0  0  0  0  0  0
  -26.0780  -38.1590   23.9870 H   0  0  0  0  0  0  0  0  0  0  0  0
  -26.5410  -31.5430   24.8750 C   0  0  1  0  0  0  0  0  0  0  0  0
  -25.5270  -31.2500   26.0080 C   0  0  0  0  0  1  0  0  0  0  0  0
  -27.1090  -30.1860   24.3990 C   0  0  0  0  0  1  0  0  0  0  0  0
  -27.7280  -32.3240   25.4860 C   0  0  0  0  0  1  0  0  0  0  0  0
  1 48  1  0
  1  7  1  0
  2  3  1  0
  4  2  2  0
  5  3  2  0
  6  4  1  0
  6  7  2  0
  7  5  1  0
  8  9  2  0
  8  1  1  0
 10 18  1  0
 11 16  1  0
 12 13  1  0
 12 11  1  0
 14 13  1  0
 14 23  1  0
 14 15  1  0
 16 10  1  0
 16 15  1  0
 17 10  2  0
 18 19  1  0
 18  9  1  0
 20 21  2  0
 21 40  1  0
 22 21  1  0
 22 25  1  0
 23 20  1  0
 23 24  1  0
 24 22  2  0
 25 26  1  0
 26 27  2  0
 28 31  1  0
 28 27  1  0
 29 28  2  0
 30 29  1  0
 30 25  2  0
 31 32  1  0
 32 37  2  0
 32 33  1  0
 33 34  2  0
 35 34  1  0
 35 39  1  0
 36 35  2  0
 37 36  1  0
 38 37  1  0
 40 41  1  0
 41 44  1  0
 41 43  1  0
 42 40  2  0
 45 46  1  0
 45 20  1  0
 47 45  1  0
 48 50  1  0
 50 49  1  0
 51 52  2  0
 51 50  1  0
 53 55  1  0
 53 52  1  0
 54 65  2  0
 55 60  1  0
 56 64  1  0
 56 66  1  0
 57 63  1  0
 57 59  1  0
 58 64  1  0
 59 58  1  0
 60 59  2  0
 61 62  1  0
 61 55  2  0
 62 57  2  0
 63 56  1  0
 64 54  1  0
 66 68  2  0
 67 66  1  0
 69 67  1  0
 70 79  2  0
 70 75  1  0
 71 67  1  0
 71 75  1  0
 72 71  1  0
 73 74  1  0
 73 72  1  0
 74 70  1  0
 75 76  2  0
 76 77  1  0
 78 77  2  0
 79 78  1  0
 80 54  1  0
 80 81  1  0
 80 90  1  0
 81 84  1  0
 82 86  1  0
 82 81  1  0
 83 82  2  0
 86 85  1  0
 88 86  1  0
 88 89  1  0
 88 87  1  0
 90 93  1  1
 90 91  1  0
 92 90  1  0
M  ISO  4  10 100  18 100  52 101  53 101
M  END
>  <TORSDO>  (2) 
F 23

>  <SCORE>  (2) 
-12.571

>  <name>  (2) 
1

>  <ligand_id>  (2) 
1

>  <original_smiles>  (2) 
[H]c1c([H])c([H])c(C([H])(C([H])([H])C([H])([H])N([H])C(=O)N2C([H])([H])C([H])([H])C([H])([H])C([H])(n3nc(-c4c([H])c([H])c(Oc5c([H])c([H])c(F)c([H])c5F)c([H])c4[H])c(C(=O)N([H])[H])c3N([H])[H])C2([H])[H])C([H])([H])C([H])(C([H])([H])[H])C([H])([H])C([H])([H])Oc2c([H])c([H])c3c(c2[H])C([H])([H])N(C(=O)C([H])(N([H])C(=O)C([H])(N([H])C([H])([H])[H])C([H])([H])[H])C(C([H])([H])[H])(C([H])([H])[H])C([H])([H])[H])C([H])(C(=O)N([H])C2([H])c4c([H])c([H])c([H])c([H])c4C([H])([H])C([H])([H])C2([H])[H])C3([H])[H])c([H])c1[H]

>  <smiles>  (2) 
[H]c1c([H])c([H])c(C([H])(C([H])([H])C([H])([H])N([H])C(=O)N2C([H])([H])C([H])([H])C([H])([H])C([H])(n3nc(-c4c([H])c([H])c(Oc5c([H])c([H])c(F)c([H])c5F)c([H])c4[H])c(C(=O)N([H])[H])c3N([H])[H])C2([H])[H])C([H])([H])C([H])(C([H])([H])[H])C([H])([H])C([H])([H])Oc2c([H])c([H])c3c(c2[H])C([H])([H])N(C(=O)C([H])(N([H])C(=O)C([H])(N([H])C([H])([H])[H])C([H])([H])[H])C(C([H])([H])[H])(C([H])([H])[H])C([H])([H])[H])C([H])(C(=O)N([H])C2([H])c4c([H])c([H])c([H])c([H])c4C([H])([H])C([H])([H])C2([H])[H])C3([H])[H])c([H])c1[H]

$$$$
2:0:0
     RDKit          3D

 94101  0  0  1  0  0  0  0  0999 V2000
  -31.0050  -21.3670   22.0580 C   0  0  0  0  0  2  0  0  0  0  0  0
  -31.2340  -18.9360   21.3420 C   0  0  0  0  0  3  0  0  0  0  0  0
  -30.7840  -19.8710   22.1980 C   0  0  0  0  0  3  0  0  0  0  0  0
  -31.0030  -17.4950   21.5750 C   0  0  0  0  0  0  0  0  0  0  0  0
  -30.4830  -17.0690   22.6120 O   0  0  0  0  0  0  0  0  0  0  0  0
  -31.3970  -16.4980   20.4610 C   0  0  0  0  0  3  0  0  0  0  0  0
  -32.2760  -14.3100   21.6440 C   0  0  0  0  0  1  0  0  0  0  0  0
  -32.6060  -15.6170   20.8960 C   0  0  0  0  0  2  0  0  0  0  0  0
  -30.1660  -15.6990   19.9020 C   0  0  0  0  0  3  0  0  0  0  0  0
  -30.5830  -14.4240   19.1140 C   0  0  0  0  0  0  0  0  0  0  0  0
  -30.1020  -12.1710   18.2150 C   0  0  0  0  0  2  0  0  0  0  0  0
  -28.9750  -12.2420   17.1650 C   0  0  0  0  0  2  0  0  0  0  0  0
  -27.6000  -12.1030   17.8440 C   0  0  0  0  0  2  0  0  0  0  0  0
  -27.4390  -13.0690   19.0440 C   0  0  0  0  0  3  0  0  0  0  0  0
  -28.6680  -13.0020   19.9820 C   0  0  0  0  0  2  0  0  0  0  0  0
  -29.8840  -13.2540   19.1910 N   0  0  0  0  0  0  0  0  0  0  0  0
  -31.5510  -14.5380   18.3570 O   0  0  0  0  0  0  0  0  0  0  0  0
  -25.2460  -13.7540   20.2040 C   0  0  0  0  0  0  0  0  0  0  0  0
  -24.2320  -13.0130   20.7490 C   0  0  0  0  0  0  0  0  0  0  0  0
  -24.6210  -11.6450   20.6060 C   0  0  0  0  0  0  0  0  0  0  0  0
  -26.1900  -12.8380   19.7640 N   0  0  0  0  0  0  0  0  0  0  0  0
  -25.8280  -11.5650   20.0630 N   0  0  0  0  0  0  0  0  0  0  0  0
  -23.8900  -10.4060   20.9010 C   0  0  0  0  0  0  0  0  0  0  0  0
  -24.3960   -9.4510   21.8100 C   0  0  0  0  0  3  0  0  0  0  0  0
  -23.6670   -8.2760   22.0920 C   0  0  0  0  0  3  0  0  0  0  0  0
  -22.4190   -8.0490   21.4660 C   0  0  0  0  0  0  0  0  0  0  0  0
  -21.9310   -8.9930   20.5450 C   0  0  0  0  0  3  0  0  0  0  0  0
  -22.6600  -10.1590   20.2610 C   0  0  0  0  0  3  0  0  0  0  0  0
  -21.6550   -6.9230   21.6580 O   0  0  0  0  0  0  0  0  0  0  0  0
  -21.6570   -6.2470   22.8510 C   0  0  0  0  0  0  0  0  0  0  0  0
  -21.3180   -6.8800   24.0660 C   0  0  0  0  0  3  0  0  0  0  0  0
  -21.2680   -6.1320   25.2590 C   0  0  0  0  0  3  0  0  0  0  0  0
  -21.5430   -4.7510   25.2380 C   0  0  0  0  0  0  0  0  0  0  0  0
  -21.8770   -4.1180   24.0270 C   0  0  0  0  0  3  0  0  0  0  0  0
  -21.9300   -4.8640   22.8360 C   0  0  0  0  0  0  0  0  0  0  0  0
  -22.2310   -4.2450   21.6690 F   0  0  0  0  0  0  0  0  0  0  0  0
  -21.4870   -4.0300   26.3820 F   0  0  0  0  0  0  0  0  0  0  0  0
  -22.9310  -13.5340   21.2890 C   0  0  0  0  0  0  0  0  0  0  0  0
  -22.3600  -12.8540   22.2780 N   0  0  0  0  0  0  0  0  0  0  0  0
  -22.4360  -14.5780   20.8660 O   0  0  0  0  0  0  0  0  0  0  0  0
  -22.7750  -12.0080   22.6370 H   0  0  0  0  0  0  0  0  0  0  0  0
  -21.4960  -13.1870   22.6830 H   0  0  0  0  0  0  0  0  0  0  0  0
  -25.4340  -15.1210   20.0280 N   0  0  0  0  0  0  0  0  0  0  0  0
  -24.7350  -15.8040   20.3000 H   0  0  0  0  0  0  0  0  0  0  0  0
  -26.2350  -15.5360   19.5680 H   0  0  0  0  0  0  0  0  0  0  0  0
  -29.8370  -17.2200   17.7600 C   0  0  0  0  0  1  0  0  0  0  0  0
  -29.2230  -16.5790   19.0220 C   0  0  0  0  0  2  0  0  0  0  0  0
  -29.7170  -22.1430   21.6720 C   0  0  0  0  0  2  0  0  0  0  0  0
  -30.8770  -24.2240   22.7470 C   0  0  0  0  0  1  0  0  0  0  0  0
  -29.6070  -23.6520   22.0610 C   0  0  0  0  0  3  0  0  0  0  0  0
  -29.1320  -24.5500   20.8700 C   0  0  0  0  0  2  0  0  0  0  0  0
  -28.7110  -26.5940   22.4160 C   0  0  0  0  0  1  0  0  0  0  0  0
  -28.1900  -25.7260   21.2460 C   0  0  0  0  0  3  0  0  0  0  0  0
  -27.9680  -26.5020   20.0570 O   0  0  0  0  0  0  0  0  0  0  0  0
  -24.3320  -31.7080   23.1890 C   0  0  0  0  0  0  0  0  0  0  0  0
  -26.8210  -27.2610   20.0630 C   0  0  0  0  0  0  0  0  0  0  0  0
  -23.0580  -30.3520   21.5560 C   0  0  0  0  0  3  0  0  0  0  0  0
  -24.4500  -28.7910   20.0940 C   0  0  0  0  0  0  0  0  0  0  0  0
  -25.5800  -30.6720   21.3000 C   0  0  0  0  0  2  0  0  0  0  0  0
  -25.6230  -29.3050   20.6560 C   0  0  0  0  0  0  0  0  0  0  0  0
  -26.8130  -28.5510   20.6250 C   0  0  0  0  0  3  0  0  0  0  0  0
  -25.6360  -26.7510   19.4900 C   0  0  0  0  0  3  0  0  0  0  0  0
  -24.4480  -27.5130   19.5030 C   0  0  0  0  0  3  0  0  0  0  0  0
  -23.2240  -29.6720   20.1680 C   0  0  0  0  0  2  0  0  0  0  0  0
  -24.3440  -30.9230   22.0770 N   0  0  0  0  0  0  0  0  0  0  0  0
  -23.2700  -32.0020   23.7560 O   0  0  0  0  0  0  0  0  0  0  0  0
  -22.4020  -29.3410   22.5230 C   0  0  0  0  0  0  0  0  0  0  0  0
  -21.0770  -29.1730   22.4020 N   0  0  0  0  0  0  0  0  0  0  0  0
  -23.0810  -28.7140   23.3390 O   0  0  0  0  0  0  0  0  0  0  0  0
  -20.5900  -29.7300   21.7130 H   0  0  0  0  0  0  0  0  0  0  0  0
  -17.6940  -28.0090   22.8810 C   0  0  0  0  0  0  0  0  0  0  0  0
  -20.2520  -28.2470   23.1760 C   0  0  0  0  0  3  0  0  0  0  0  0
  -20.3490  -26.8120   22.6100 C   0  0  0  0  0  2  0  0  0  0  0  0
  -19.2520  -26.4900   21.5930 C   0  0  0  0  0  2  0  0  0  0  0  0
  -17.8660  -26.6520   22.2220 C   0  0  0  0  0  2  0  0  0  0  0  0
  -18.8160  -28.7640   23.3140 C   0  0  0  0  0  0  0  0  0  0  0  0
  -18.6020  -30.0370   23.8900 C   0  0  0  0  0  3  0  0  0  0  0  0
  -17.3000  -30.5500   24.0420 C   0  0  0  0  0  3  0  0  0  0  0  0
  -16.1930  -29.7900   23.6260 C   0  0  0  0  0  3  0  0  0  0  0  0
  -16.3920  -28.5220   23.0500 C   0  0  0  0  0  3  0  0  0  0  0  0
  -25.6470  -32.2980   23.7890 C   0  0  0  0  0  3  0  0  0  0  0  0
  -26.1730  -31.4960   25.0430 C   0  0  1  0  0  0  0  0  0  0  0  0
  -25.0960  -31.2710   26.1310 C   0  0  0  0  0  1  0  0  0  0  0  0
  -26.7170  -30.1160   24.6090 C   0  0  0  0  0  1  0  0  0  0  0  0
  -27.3550  -32.2550   25.6930 C   0  0  0  0  0  1  0  0  0  0  0  0
  -25.3880  -33.6990   24.1400 N   0  0  0  0  0  0  0  0  0  0  0  0
  -25.7520  -34.7500   23.3930 C   0  0  0  0  0  0  0  0  0  0  0  0
  -26.4150  -34.6370   22.3600 O   0  0  0  0  0  0  0  0  0  0  0  0
  -24.8040  -33.8650   24.9480 H   0  0  0  0  0  0  0  0  0  0  0  0
  -24.0840  -36.5960   23.0630 C   0  0  0  0  0  1  0  0  0  0  0  0
  -25.3120  -36.1480   23.8690 C   0  0  0  0  0  3  0  0  0  0  0  0
  -27.4790  -36.9480   24.7020 C   0  0  0  0  0  1  0  0  0  0  0  0
  -26.3780  -37.1690   23.7650 N   0  0  0  0  0  0  0  0  0  0  0  0
  -26.0040  -38.0990   23.9320 H   0  0  0  0  0  0  0  0  0  0  0  0
  1  3  1  0
  2  4  1  0
  2  3  2  0
  4  5  2  0
  6  8  1  0
  6  4  1  0
  8  7  1  0
  9 47  1  0
  9  6  1  0
 10 16  1  0
 10  9  1  0
 11 16  1  0
 12 13  1  0
 12 11  1  0
 14 13  1  0
 14 21  1  0
 14 15  1  0
 16 15  1  0
 17 10  2  0
 18 19  2  0
 19 38  1  0
 20 19  1  0
 20 23  1  0
 21 22  1  0
 21 18  1  0
 22 20  2  0
 23 24  1  0
 24 25  2  0
 26 29  1  0
 26 25  1  0
 27 26  2  0
 28 27  1  0
 28 23  2  0
 29 30  1  0
 30 31  1  0
 31 32  2  0
 33 32  1  0
 33 37  1  0
 34 33  2  0
 35 30  2  0
 35 34  1  0
 36 35  1  0
 38 39  1  0
 39 41  1  0
 39 42  1  0
 40 38  2  0
 43 18  1  0
 43 44  1  0
 45 43  1  0
 46 47  1  0
 48  1  1  0
 48 50  1  0
 50 49  1  0
 51 53  1  0
 51 50  1  0
 53 52  1  0
 54 56  1  0
 54 53  1  0
 55 66  2  0
 56 61  1  0
 57 65  1  0
 57 67  1  0
 58 64  1  0
 58 60  1  0
 59 65  1  0
 60 59  1  0
 61 60  2  0
 62 63  1  0
 62 56  2  0
 63 58  2  0
 64 57  1  0
 65 55  1  0
 67 69  2  0
 68 67  1  0
 70 68  1  0
 71 80  2  0
 71 76  1  0
 72 68  1  0
 72 76  1  0
 73 72  1  0
 74 75  1  0
 74 73  1  0
 75 71  1  0
 76 77  2  0
 77 78  1  0
 79 78  2  0
 80 79  1  0
 81 55  1  0
 81 86  1  0
 81 82  1  0
 82 85  1  1
 82 83  1  0
 84 82  1  0
 86 89  1  0
 87 91  1  0
 87 86  1  0
 88 87  2  0
 91 90  1  0
 93 91  1  0
 93 94  1  0
 93 92  1  0
M  ISO  4   9 100  10 100  53 101  54 101
M  END
>  <TORSDO>  (3) 
F 26

>  <SCORE>  (3) 
-8.317

>  <name>  (3) 
2

>  <ligand_id>  (3) 
2

>  <original_smiles>  (3) 
[H]C(C(=O)C([H])(C([H])([H])C([H])([H])[H])C([H])(C(=O)N1C([H])([H])C([H])([H])C([H])([H])C([H])(n2nc(-c3c([H])c([H])c(Oc4c([H])c([H])c(F)c([H])c4F)c([H])c3[H])c(C(=O)N([H])[H])c2N([H])[H])C1([H])[H])C([H])([H])C([H])([H])[H])=C([H])C([H])([H])C([H])([H])C([H])(C([H])([H])[H])C([H])([H])C([H])(Oc1c([H])c([H])c2c(c1[H])C([H])([H])N(C(=O)C([H])(N([H])C(=O)C([H])(N([H])C([H])([H])[H])C([H])([H])[H])C(C([H])([H])[H])(C([H])([H])[H])C([H])([H])[H])C([H])(C(=O)N([H])C1([H])c3c([H])c([H])c([H])c([H])c3C([H])([H])C([H])([H])C1([H])[H])C2([H])[H])C([H])([H])[H]

>  <smiles>  (3) 
[H]C(C(=O)C([H])(C([H])([H])C([H])([H])[H])C([H])(C(=O)N1C([H])([H])C([H])([H])C([H])([H])C([H])(n2nc(-c3c([H])c([H])c(Oc4c([H])c([H])c(F)c([H])c4F)c([H])c3[H])c(C(=O)N([H])[H])c2N([H])[H])C1([H])[H])C([H])([H])C([H])([H])[H])=C([H])C([H])([H])C([H])([H])C([H])(C([H])([H])[H])C([H])([H])C([H])(Oc1c([H])c([H])c2c(c1[H])C([H])([H])N(C(=O)C([H])(N([H])C(=O)C([H])(N([H])C([H])([H])[H])C([H])([H])[H])C(C([H])([H])[H])(C([H])([H])[H])C([H])([H])[H])C([H])(C(=O)N([H])C1([H])c3c([H])c([H])c([H])c([H])c3C([H])([H])C([H])([H])C1([H])[H])C2([H])[H])C([H])([H])[H]

$$$$
3:0:0
     RDKit          3D

 93101  0  0  1  0  0  0  0  0999 V2000
  -29.3990  -20.0500   20.9180 C   0  0  0  0  0  0  0  0  0  0  0  0
  -30.1380  -19.6190   21.8040 O   0  0  0  0  0  0  0  0  0  0  0  0
  -27.8490  -19.5750   18.9220 C   0  0  0  0  0  2  0  0  0  0  0  0
  -29.4190  -17.7740   18.6770 C   0  0  0  0  0  2  0  0  0  0  0  0
  -28.2810  -19.1210   20.3340 C   0  0  0  0  0  3  0  0  0  0  0  0
  -28.6390  -17.6190   19.9920 C   0  0  0  0  0  3  0  0  0  0  0  0
  -28.7620  -18.8970   17.9720 N   0  0  0  0  0  4  0  0  0  0  0  0
  -29.4610  -19.5320   17.6190 H   0  0  0  0  0  0  0  0  0  0  0  0
  -28.2280  -18.5650   17.1840 H   0  0  0  0  0  0  0  0  0  0  0  0
  -29.1290  -16.5520   21.0510 C   0  0  0  0  0  2  0  0  0  0  0  0
  -30.7940  -14.5800   20.3170 C   0  0  0  0  0  0  0  0  0  0  0  0
  -30.3680  -12.4140   19.2190 C   0  0  0  0  0  2  0  0  0  0  0  0
  -29.4280  -12.5860   18.0120 C   0  0  0  0  0  2  0  0  0  0  0  0
  -27.9660  -12.4450   18.4690 C   0  0  0  0  0  2  0  0  0  0  0  0
  -27.6380  -13.3060   19.7200 C   0  0  0  0  0  3  0  0  0  0  0  0
  -28.7190  -13.1530   20.8190 C   0  0  0  0  0  2  0  0  0  0  0  0
  -30.0100  -13.4630   20.2010 N   0  0  0  0  0  0  0  0  0  0  0  0
  -31.9500  -14.5820   19.9110 O   0  0  0  0  0  0  0  0  0  0  0  0
  -30.3570  -15.8120   20.6870 N   0  0  0  0  0  0  0  0  0  0  0  0
  -31.1560  -16.4310   20.6550 H   0  0  0  0  0  0  0  0  0  0  0  0
  -25.2460  -13.8960   20.4450 C   0  0  0  0  0  0  0  0  0  0  0  0
  -24.1820  -13.1210   20.8200 C   0  0  0  0  0  0  0  0  0  0  0  0
  -24.6500  -11.7720   20.7960 C   0  0  0  0  0  0  0  0  0  0  0  0
  -26.2950  -13.0210   20.2200 N   0  0  0  0  0  0  0  0  0  0  0  0
  -25.9410  -11.7380   20.4880 N   0  0  0  0  0  0  0  0  0  0  0  0
  -23.9290  -10.5080   20.9950 C   0  0  0  0  0  0  0  0  0  0  0  0
  -24.3670   -9.5470   21.9330 C   0  0  0  0  0  3  0  0  0  0  0  0
  -23.6450   -8.3490   22.1220 C   0  0  0  0  0  3  0  0  0  0  0  0
  -22.4710   -8.1030   21.3720 C   0  0  0  0  0  0  0  0  0  0  0  0
  -22.0520   -9.0500   20.4240 C   0  0  0  0  0  3  0  0  0  0  0  0
  -22.7730  -10.2410   20.2340 C   0  0  0  0  0  3  0  0  0  0  0  0
  -21.7200   -6.9560   21.4690 O   0  0  0  0  0  0  0  0  0  0  0  0
  -21.6790   -6.2190   22.6260 C   0  0  0  0  0  0  0  0  0  0  0  0
  -21.2540   -6.7790   23.8510 C   0  0  0  0  0  3  0  0  0  0  0  0
  -21.1620   -5.9690   25.0000 C   0  0  0  0  0  3  0  0  0  0  0  0
  -21.4810   -4.6000   24.9250 C   0  0  0  0  0  0  0  0  0  0  0  0
  -21.8970   -4.0400   23.7050 C   0  0  0  0  0  3  0  0  0  0  0  0
  -21.9930   -4.8470   22.5580 C   0  0  0  0  0  0  0  0  0  0  0  0
  -22.3750   -4.2990   21.3790 F   0  0  0  0  0  0  0  0  0  0  0  0
  -21.3850   -3.8190   26.0260 F   0  0  0  0  0  0  0  0  0  0  0  0
  -22.7840  -13.5950   21.0910 C   0  0  0  0  0  0  0  0  0  0  0  0
  -22.0670  -12.9100   21.9770 N   0  0  0  0  0  0  0  0  0  0  0  0
  -22.3360  -14.6090   20.5590 O   0  0  0  0  0  0  0  0  0  0  0  0
  -22.4410  -12.0890   22.4300 H   0  0  0  0  0  0  0  0  0  0  0  0
  -21.1320  -13.2120   22.2060 H   0  0  0  0  0  0  0  0  0  0  0  0
  -25.4020  -15.2660   20.2560 N   0  0  0  0  0  0  0  0  0  0  0  0
  -24.6330  -15.9170   20.3700 H   0  0  0  0  0  0  0  0  0  0  0  0
  -26.2440  -15.6970   19.9050 H   0  0  0  0  0  0  0  0  0  0  0  0
  -29.6460  -21.5020   20.3770 C   0  0  0  0  0  3  0  0  0  0  0  0
  -28.7140  -22.6710   20.8580 C   0  0  0  0  0  3  0  0  0  0  0  0
  -29.0450  -24.1000   20.2750 C   0  0  0  0  0  3  0  0  0  0  0  0
  -28.1780  -25.2780   20.8350 C   0  0  0  0  0  3  0  0  0  0  0  0
  -28.3970  -26.6020   20.2550 O   0  0  0  0  0  0  0  0  0  0  0  0
  -24.6030  -31.9050   23.2370 C   0  0  0  0  0  0  0  0  0  0  0  0
  -27.2730  -27.4160   20.2030 C   0  0  0  0  0  0  0  0  0  0  0  0
  -23.4190  -30.5030   21.5860 C   0  0  0  0  0  3  0  0  0  0  0  0
  -24.8920  -28.9660   20.1720 C   0  0  0  0  0  0  0  0  0  0  0  0
  -25.9520  -30.8530   21.4160 C   0  0  0  0  0  2  0  0  0  0  0  0
  -26.0480  -29.4780   20.7750 C   0  0  0  0  0  0  0  0  0  0  0  0
  -27.2440  -28.7120   20.7850 C   0  0  0  0  0  3  0  0  0  0  0  0
  -26.1050  -26.9480   19.5620 C   0  0  0  0  0  3  0  0  0  0  0  0
  -24.9200  -27.7060   19.5550 C   0  0  0  0  0  3  0  0  0  0  0  0
  -23.6460  -29.8240   20.2100 C   0  0  0  0  0  2  0  0  0  0  0  0
  -24.6760  -31.1020   22.1380 N   0  0  0  0  0  0  0  0  0  0  0  0
  -23.5150  -32.1750   23.7650 O   0  0  0  0  0  0  0  0  0  0  0  0
  -22.7600  -29.4790   22.5400 C   0  0  0  0  0  0  0  0  0  0  0  0
  -21.4390  -29.2870   22.3950 N   0  0  0  0  0  0  0  0  0  0  0  0
  -23.4360  -28.8610   23.3670 O   0  0  0  0  0  0  0  0  0  0  0  0
  -20.9540  -29.8430   21.7060 H   0  0  0  0  0  0  0  0  0  0  0  0
  -18.0700  -28.0470   22.8390 C   0  0  0  0  0  0  0  0  0  0  0  0
  -20.6190  -28.3430   23.1580 C   0  0  0  0  0  3  0  0  0  0  0  0
  -20.7510  -26.9090   22.5940 C   0  0  0  0  0  2  0  0  0  0  0  0
  -19.6730  -26.5600   21.5650 C   0  0  0  0  0  2  0  0  0  0  0  0
  -18.2760  -26.6950   22.1780 C   0  0  0  0  0  2  0  0  0  0  0  0
  -19.1710  -28.8280   23.2820 C   0  0  0  0  0  0  0  0  0  0  0  0
  -18.9240  -30.0930   23.8590 C   0  0  0  0  0  3  0  0  0  0  0  0
  -17.6100  -30.5790   23.9920 C   0  0  0  0  0  3  0  0  0  0  0  0
  -16.5230  -29.7960   23.5620 C   0  0  0  0  0  3  0  0  0  0  0  0
  -16.7550  -28.5310   22.9950 C   0  0  0  0  0  3  0  0  0  0  0  0
  -25.8790  -32.5430   23.8700 C   0  0  0  0  0  3  0  0  0  0  0  0
  -25.5670  -33.9420   24.1860 N   0  0  0  0  0  0  0  0  0  0  0  0
  -25.9110  -34.9880   23.4230 C   0  0  0  0  0  0  0  0  0  0  0  0
  -26.5960  -34.8750   22.4020 O   0  0  0  0  0  0  0  0  0  0  0  0
  -24.9580  -34.1040   24.9750 H   0  0  0  0  0  0  0  0  0  0  0  0
  -24.1920  -36.7810   23.0250 C   0  0  0  0  0  1  0  0  0  0  0  0
  -25.4170  -36.3800   23.8620 C   0  0  0  0  0  3  0  0  0  0  0  0
  -27.5380  -37.2670   24.7250 C   0  0  0  0  0  1  0  0  0  0  0  0
  -26.4540  -37.4310   23.7610 N   0  0  0  0  0  0  0  0  0  0  0  0
  -26.0460  -38.3520   23.8940 H   0  0  0  0  0  0  0  0  0  0  0  0
  -26.3830  -31.7790   25.1560 C   0  0  1  0  0  0  0  0  0  0  0  0
  -25.2790  -31.5470   26.2140 C   0  0  0  0  0  1  0  0  0  0  0  0
  -26.9700  -30.4000   24.7760 C   0  0  0  0  0  1  0  0  0  0  0  0
  -27.5260  -32.5780   25.8250 C   0  0  0  0  0  1  0  0  0  0  0  0
  1  2  2  0
  3  5  1  0
  4  6  1  0
  5  1  1  0
  6  5  1  0
  6 10  1  0
  7  4  1  0
  7  3  1  0
  8  7  1  0
  9  7  1  0
 11 19  1  0
 12 17  1  0
 13 14  1  0
 13 12  1  0
 15 14  1  0
 15 24  1  0
 15 16  1  0
 17 11  1  0
 17 16  1  0
 18 11  2  0
 19 10  1  0
 20 19  1  0
 21 22  2  0
 22 41  1  0
 23 22  1  0
 23 26  1  0
 24 21  1  0
 24 25  1  0
 25 23  2  0
 26 27  1  0
 27 28  2  0
 29 32  1  0
 29 28  1  0
 30 29  2  0
 31 30  1  0
 31 26  2  0
 32 33  1  0
 33 34  1  0
 34 35  2  0
 36 35  1  0
 36 40  1  0
 37 36  2  0
 38 33  2  0
 38 37  1  0
 39 38  1  0
 41 42  1  0
 42 45  1  0
 42 44  1  0
 43 41  2  0
 46 47  1  0
 46 21  1  0
 48 46  1  0
 49 50  2  0
 49  1  1  0
 51 52  2  0
 51 50  1  0
 53 52  1  0
 54 65  2  0
 55 53  1  0
 55 60  1  0
 56 64  1  0
 56 66  1  0
 57 63  1  0
 57 59  1  0
 58 64  1  0
 59 60  2  0
 59 58  1  0
 61 55  2  0
 62 61  1  0
 62 57  2  0
 63 56  1  0
 64 54  1  0
 66 68  2  0
 67 66  1  0
 69 67  1  0
 70 79  2  0
 70 75  1  0
 71 67  1  0
 71 75  1  0
 72 71  1  0
 73 74  1  0
 73 72  1  0
 74 70  1  0
 75 76  2  0
 76 77  1  0
 78 77  2  0
 79 78  1  0
 80 54  1  0
 80 81  1  0
 80 90  1  0
 81 84  1  0
 82 86  1  0
 82 81  1  0
 83 82  2  0
 86 85  1  0
 88 86  1  0
 88 89  1  0
 88 87  1  0
 90 93  1  1
 90 91  1  0
 92 90  1  0
M  ISO  4  11 100  19 100  52 101  53 101
M  END
>  <TORSDO>  (4) 
F 22

>  <SCORE>  (4) 
-13.224

>  <name>  (4) 
3

>  <ligand_id>  (4) 
3

>  <original_smiles>  (4) 
[H]c1c([H])c([H])c2c(c1[H])C([H])([H])C([H])([H])C([H])([H])C2([H])N([H])C(=O)C1([H])N(C(=O)C([H])(N([H])C(=O)C([H])(N([H])C([H])([H])[H])C([H])([H])[H])C(C([H])([H])[H])(C([H])([H])[H])C([H])([H])[H])C([H])([H])c2c([H])c(OC([H])([H])C([H])([H])C([H])([H])C([H])([H])C(=O)C3([H])C([H])(C([H])([H])N([H])C(=O)N4C([H])([H])C([H])([H])C([H])([H])C([H])(n5nc(-c6c([H])c([H])c(Oc7c([H])c([H])c(F)c([H])c7F)c([H])c6[H])c(C(=O)N([H])[H])c5N([H])[H])C4([H])[H])C([H])([H])[N+]([H])([H])C3([H])[H])c([H])c([H])c2C1([H])[H]

>  <smiles>  (4) 
[H]c1c([H])c([H])c2c(c1[H])C([H])([H])C([H])([H])C([H])([H])C2([H])N([H])C(=O)C1([H])N(C(=O)C([H])(N([H])C(=O)C([H])(N([H])C([H])([H])[H])C([H])([H])[H])C(C([H])([H])[H])(C([H])([H])[H])C([H])([H])[H])C([H])([H])c2c([H])c(OC([H])([H])C([H])([H])C([H])([H])C([H])([H])C(=O)C3([H])C([H])(C([H])([H])N([H])C(=O)N4C([H])([H])C([H])([H])C([H])([H])C([H])(n5nc(-c6c([H])c([H])c(Oc7c([H])c([H])c(F)c([H])c7F)c([H])c6[H])c(C(=O)N([H])[H])c5N([H])[H])C4([H])[H])C([H])([H])[N+]([H])([H])C3([H])[H])c([H])c([H])c2C1([H])[H]

$$$$
4:0:0
     RDKit          3D

 92100  0  0  1  0  0  0  0  0999 V2000
  -31.2350  -21.7140   22.2740 C   0  0  0  0  0  2  0  0  0  0  0  0
  -30.5780  -19.4570   21.4300 C   0  0  0  0  0  0  0  0  0  0  0  0
  -30.2980  -20.6160   22.0420 N   0  0  0  0  0  0  0  0  0  0  0  0
  -31.6440  -19.2650   20.8430 O   0  0  0  0  0  0  0  0  0  0  0  0
  -29.3960  -20.6860   22.4950 H   0  0  0  0  0  0  0  0  0  0  0  0
  -31.0310  -14.5880   20.0840 C   0  0  0  0  0  0  0  0  0  0  0  0
  -30.6270  -12.4740   18.8920 C   0  0  0  0  0  2  0  0  0  0  0  0
  -29.6460  -12.7350   17.7320 C   0  0  0  0  0  2  0  0  0  0  0  0
  -28.1950  -12.5760   18.2210 C   0  0  0  0  0  2  0  0  0  0  0  0
  -27.9090  -13.3780   19.5190 C   0  0  0  0  0  3  0  0  0  0  0  0
  -29.0130  -13.1590   20.5790 C   0  0  0  0  0  2  0  0  0  0  0  0
  -30.3140  -13.4400   19.9550 N   0  0  0  0  0  0  0  0  0  0  0  0
  -32.1410  -14.7480   19.5700 O   0  0  0  0  0  0  0  0  0  0  0  0
  -29.0910  -17.7510   20.1750 C   0  0  0  0  0  2  0  0  0  0  0  0
  -29.9210  -17.2080   22.4950 C   0  0  0  0  0  2  0  0  0  0  0  0
  -30.1030  -16.7280   19.6300 C   0  0  0  0  0  2  0  0  0  0  0  0
  -30.8970  -16.1920   21.8620 C   0  0  0  0  0  2  0  0  0  0  0  0
  -29.5070  -18.3480   21.5350 C   0  0  0  0  0  3  0  0  0  0  0  0
  -30.3760  -15.6500   20.5990 N   0  0  0  0  0  0  0  0  0  0  0  0
  -25.5280  -13.9390   20.3110 C   0  0  0  0  0  0  0  0  0  0  0  0
  -24.4860  -13.1470   20.7130 C   0  0  0  0  0  0  0  0  0  0  0  0
  -24.9670  -11.8040   20.6580 C   0  0  0  0  0  0  0  0  0  0  0  0
  -26.5790  -13.0780   20.0450 N   0  0  0  0  0  0  0  0  0  0  0  0
  -26.2480  -11.7870   20.3080 N   0  0  0  0  0  0  0  0  0  0  0  0
  -24.2670  -10.5280   20.8650 C   0  0  0  0  0  0  0  0  0  0  0  0
  -24.6850   -9.6080   21.8510 C   0  0  0  0  0  3  0  0  0  0  0  0
  -23.9840   -8.3970   22.0430 C   0  0  0  0  0  3  0  0  0  0  0  0
  -22.8520   -8.0990   21.2480 C   0  0  0  0  0  0  0  0  0  0  0  0
  -22.4530   -9.0100   20.2530 C   0  0  0  0  0  3  0  0  0  0  0  0
  -23.1540  -10.2110   20.0600 C   0  0  0  0  0  3  0  0  0  0  0  0
  -22.1270   -6.9360   21.3450 O   0  0  0  0  0  0  0  0  0  0  0  0
  -21.9720   -6.2820   22.5410 C   0  0  0  0  0  0  0  0  0  0  0  0
  -21.3830   -6.9080   23.6610 C   0  0  0  0  0  3  0  0  0  0  0  0
  -21.1810   -6.1790   24.8490 C   0  0  0  0  0  3  0  0  0  0  0  0
  -21.5550   -4.8230   24.9170 C   0  0  0  0  0  0  0  0  0  0  0  0
  -22.1340   -4.1960   23.8000 C   0  0  0  0  0  3  0  0  0  0  0  0
  -22.3400   -4.9230   22.6140 C   0  0  0  0  0  0  0  0  0  0  0  0
  -22.8790   -4.3090   21.5350 F   0  0  0  0  0  0  0  0  0  0  0  0
  -21.3540   -4.1190   26.0570 F   0  0  0  0  0  0  0  0  0  0  0  0
  -23.0920  -13.6020   21.0400 C   0  0  0  0  0  0  0  0  0  0  0  0
  -22.4190  -12.9030   21.9470 N   0  0  0  0  0  0  0  0  0  0  0  0
  -22.6110  -14.6100   20.5250 O   0  0  0  0  0  0  0  0  0  0  0  0
  -22.8210  -12.0840   22.3780 H   0  0  0  0  0  0  0  0  0  0  0  0
  -21.4900  -13.1920   22.2160 H   0  0  0  0  0  0  0  0  0  0  0  0
  -25.6640  -15.3120   20.1250 N   0  0  0  0  0  0  0  0  0  0  0  0
  -24.8840  -15.9530   20.2140 H   0  0  0  0  0  0  0  0  0  0  0  0
  -26.4940  -15.7450   19.7380 H   0  0  0  0  0  0  0  0  0  0  0  0
  -31.2350  -22.7790   21.1610 C   0  0  0  0  0  2  0  0  0  0  0  0
  -29.8510  -23.3960   20.8950 C   0  0  0  0  0  2  0  0  0  0  0  0
  -29.9220  -24.8230   20.3150 C   0  0  0  0  0  2  0  0  0  0  0  0
  -28.5290  -25.4390   20.1430 C   0  0  0  0  0  2  0  0  0  0  0  0
  -28.6360  -26.8570   20.0240 O   0  0  0  0  0  0  0  0  0  0  0  0
  -24.6850  -31.8050   23.2680 C   0  0  0  0  0  0  0  0  0  0  0  0
  -27.4440  -27.5450   20.0420 C   0  0  0  0  0  0  0  0  0  0  0  0
  -23.5240  -30.4530   21.5530 C   0  0  0  0  0  3  0  0  0  0  0  0
  -25.0220  -29.0010   20.0900 C   0  0  0  0  0  0  0  0  0  0  0  0
  -26.0480  -30.8590   21.4090 C   0  0  0  0  0  2  0  0  0  0  0  0
  -26.1630  -29.5190   20.7130 C   0  0  0  0  0  0  0  0  0  0  0  0
  -27.3790  -28.8010   20.6830 C   0  0  0  0  0  3  0  0  0  0  0  0
  -26.2810  -27.0350   19.4180 C   0  0  0  0  0  3  0  0  0  0  0  0
  -25.0750  -27.7550   19.4430 C   0  0  0  0  0  3  0  0  0  0  0  0
  -23.7620  -29.8340   20.1510 C   0  0  0  0  0  2  0  0  0  0  0  0
  -24.7700  -31.0490   22.1370 N   0  0  0  0  0  0  0  0  0  0  0  0
  -23.5930  -32.0390   23.8010 O   0  0  0  0  0  0  0  0  0  0  0  0
  -22.8780  -29.3820   22.4600 C   0  0  0  0  0  0  0  0  0  0  0  0
  -21.5590  -29.1830   22.3010 N   0  0  0  0  0  0  0  0  0  0  0  0
  -23.5600  -28.7330   23.2580 O   0  0  0  0  0  0  0  0  0  0  0  0
  -21.0720  -29.7600   21.6300 H   0  0  0  0  0  0  0  0  0  0  0  0
  -18.1900  -27.9490   22.7140 C   0  0  0  0  0  0  0  0  0  0  0  0
  -20.7440  -28.2040   23.0200 C   0  0  0  0  0  3  0  0  0  0  0  0
  -20.8600  -26.8030   22.3750 C   0  0  0  0  0  2  0  0  0  0  0  0
  -19.7680  -26.5260   21.3380 C   0  0  0  0  0  2  0  0  0  0  0  0
  -18.3790  -26.6350   21.9740 C   0  0  0  0  0  2  0  0  0  0  0  0
  -19.3020  -28.6930   23.1900 C   0  0  0  0  0  0  0  0  0  0  0  0
  -19.0740  -29.9270   23.8370 C   0  0  0  0  0  3  0  0  0  0  0  0
  -17.7650  -30.4150   24.0150 C   0  0  0  0  0  3  0  0  0  0  0  0
  -16.6680  -29.6650   23.5570 C   0  0  0  0  0  3  0  0  0  0  0  0
  -16.8810  -28.4340   22.9110 C   0  0  0  0  0  3  0  0  0  0  0  0
  -25.9530  -32.4280   23.9310 C   0  0  0  0  0  3  0  0  0  0  0  0
  -25.6400  -33.8260   24.2550 N   0  0  0  0  0  0  0  0  0  0  0  0
  -26.0150  -34.8790   23.5170 C   0  0  0  0  0  0  0  0  0  0  0  0
  -26.7330  -34.7760   22.5180 O   0  0  0  0  0  0  0  0  0  0  0  0
  -25.0120  -33.9810   25.0300 H   0  0  0  0  0  0  0  0  0  0  0  0
  -24.3370  -36.6940   23.0650 C   0  0  0  0  0  1  0  0  0  0  0  0
  -25.5150  -36.2670   23.9560 C   0  0  0  0  0  3  0  0  0  0  0  0
  -27.5960  -37.1160   24.9430 C   0  0  0  0  0  1  0  0  0  0  0  0
  -26.5640  -37.3090   23.9270 N   0  0  0  0  0  0  0  0  0  0  0  0
  -26.1610  -38.2330   24.0580 H   0  0  0  0  0  0  0  0  0  0  0  0
  -26.4270  -31.6490   25.2180 C   0  0  1  0  0  0  0  0  0  0  0  0
  -25.2990  -31.4050   26.2470 C   0  0  0  0  0  1  0  0  0  0  0  0
  -27.0220  -30.2740   24.8360 C   0  0  0  0  0  1  0  0  0  0  0  0
  -27.5550  -32.4390   25.9230 C   0  0  0  0  0  1  0  0  0  0  0  0
  2  3  1  0
  3  1  1  0
  3  5  1  0
  4  2  2  0
  6 19  1  0
  7 12  1  0
  8  9  1  0
  8  7  1  0
 10  9  1  0
 10 23  1  0
 10 11  1  0
 12  6  1  0
 12 11  1  0
 13  6  2  0
 14 18  1  0
 16 14  1  0
 16 19  1  0
 17 15  1  0
 18  2  1  0
 18 15  1  0
 19 17  1  0
 20 21  2  0
 21 40  1  0
 22 21  1  0
 22 25  1  0
 23 24  1  0
 23 20  1  0
 24 22  2  0
 25 26  1  0
 26 27  2  0
 28 31  1  0
 28 27  1  0
 29 28  2  0
 30 29  1  0
 30 25  2  0
 31 32  1  0
 32 37  2  0
 32 33  1  0
 33 34  2  0
 34 35  1  0
 35 39  1  0
 36 35  2  0
 37 36  1  0
 38 37  1  0
 40 41  1  0
 41 44  1  0
 41 43  1  0
 42 40  2  0
 45 46  1  0
 45 20  1  0
 47 45  1  0
 48  1  1  0
 49 48  1  0
 50 49  1  0
 51 50  1  0
 52 54  1  0
 52 51  1  0
 53 64  2  0
 54 59  1  0
 55 63  1  0
 55 65  1  0
 56 62  1  0
 56 58  1  0
 57 63  1  0
 58 57  1  0
 59 58  2  0
 60 61  1  0
 60 54  2  0
 61 56  2  0
 62 55  1  0
 63 53  1  0
 65 67  2  0
 66 65  1  0
 68 66  1  0
 69 78  2  0
 69 74  1  0
 70 66  1  0
 70 74  1  0
 71 70  1  0
 72 73  1  0
 72 71  1  0
 73 69  1  0
 74 75  2  0
 75 76  1  0
 77 76  2  0
 78 77  1  0
 79 53  1  0
 79 80  1  0
 79 89  1  0
 80 83  1  0
 81 85  1  0
 81 80  1  0
 82 81  2  0
 85 84  1  0
 87 85  1  0
 87 88  1  0
 87 86  1  0
 89 92  1  1
 89 90  1  0
 91 89  1  0
M  ISO  4   6 100  19 100  51 101  52 101
M  END
>  <TORSDO>  (5) 
F 21

>  <SCORE>  (5) 
-12.257

>  <name>  (5) 
4

>  <ligand_id>  (5) 
4

>  <original_smiles>  (5) 
[H]c1c([H])c([H])c2c(c1[H])C([H])([H])C([H])([H])C([H])([H])C2([H])N([H])C(=O)C1([H])N(C(=O)C([H])(N([H])C(=O)C([H])(N([H])C([H])([H])[H])C([H])([H])[H])C(C([H])([H])[H])(C([H])([H])[H])C([H])([H])[H])C([H])([H])c2c([H])c(OC([H])([H])C([H])([H])C([H])([H])C([H])([H])C([H])([H])N([H])C(=O)C3([H])C([H])([H])C([H])([H])N(C(=O)N4C([H])([H])C([H])([H])C([H])([H])C([H])(n5nc(-c6c([H])c([H])c(Oc7c([H])c([H])c(F)c([H])c7F)c([H])c6[H])c(C(=O)N([H])[H])c5N([H])[H])C4([H])[H])C([H])([H])C3([H])[H])c([H])c([H])c2C1([H])[H]

>  <smiles>  (5) 
[H]c1c([H])c([H])c2c(c1[H])C([H])([H])C([H])([H])C([H])([H])C2([H])N([H])C(=O)C1([H])N(C(=O)C([H])(N([H])C(=O)C([H])(N([H])C([H])([H])[H])C([H])([H])[H])C(C([H])([H])[H])(C([H])([H])[H])C([H])([H])[H])C([H])([H])c2c([H])c(OC([H])([H])C([H])([H])C([H])([H])C([H])([H])C([H])([H])N([H])C(=O)C3([H])C([H])([H])C([H])([H])N(C(=O)N4C([H])([H])C([H])([H])C([H])([H])C([H])(n5nc(-c6c([H])c([H])c(Oc7c([H])c([H])c(F)c([H])c7F)c([H])c6[H])c(C(=O)N([H])[H])c5N([H])[H])C4([H])[H])C([H])([H])C3([H])[H])c([H])c([H])c2C1([H])[H]

$$$$
5:0:0
     RDKit          3D

 88 95  0  0  1  0  0  0  0  0999 V2000
  -29.4750  -22.0820   20.1420 C   0  0  0  0  0  2  0  0  0  0  0  0
  -28.9880  -20.6770   20.5710 C   0  0  0  0  0  0  0  0  0  0  0  0
  -27.8280  -20.4990   20.9490 O   0  0  0  0  0  0  0  0  0  0  0  0
  -29.9980  -19.5070   20.5060 C   0  0  0  0  0  2  0  0  0  0  0  0
  -29.4110  -18.0710   20.6880 C   0  0  0  0  0  2  0  0  0  0  0  0
  -30.5070  -16.9680   20.7310 C   0  0  0  0  0  2  0  0  0  0  0  0
  -30.6810  -14.5060   20.3300 C   0  0  0  0  0  0  0  0  0  0  0  0
  -30.3490  -12.3430   19.1990 C   0  0  0  0  0  2  0  0  0  0  0  0
  -29.4050  -12.5550   17.9970 C   0  0  0  0  0  2  0  0  0  0  0  0
  -27.9350  -12.4240   18.4360 C   0  0  0  0  0  2  0  0  0  0  0  0
  -27.6070  -13.2600   19.7010 C   0  0  0  0  0  3  0  0  0  0  0  0
  -28.6700  -13.0510   20.8050 C   0  0  0  0  0  2  0  0  0  0  0  0
  -29.9890  -13.3390   20.2220 N   0  0  0  0  0  0  0  0  0  0  0  0
  -31.8200  -14.6440   19.8800 O   0  0  0  0  0  0  0  0  0  0  0  0
  -29.9970  -15.5780   20.7840 N   0  0  0  0  0  0  0  0  0  0  0  0
  -29.0600  -15.4220   21.1250 H   0  0  0  0  0  0  0  0  0  0  0  0
  -25.2120  -13.8700   20.4100 C   0  0  0  0  0  0  0  0  0  0  0  0
  -24.1430  -13.1010   20.7870 C   0  0  0  0  0  0  0  0  0  0  0  0
  -24.6040  -11.7490   20.7680 C   0  0  0  0  0  0  0  0  0  0  0  0
  -26.2560  -12.9880   20.1870 N   0  0  0  0  0  0  0  0  0  0  0  0
  -25.8940  -11.7070   20.4580 N   0  0  0  0  0  0  0  0  0  0  0  0
  -23.8770  -10.4900   20.9730 C   0  0  0  0  0  0  0  0  0  0  0  0
  -24.3070   -9.5330   21.9190 C   0  0  0  0  0  3  0  0  0  0  0  0
  -23.5820   -8.3370   22.1070 C   0  0  0  0  0  3  0  0  0  0  0  0
  -22.4110   -8.0900   21.3510 C   0  0  0  0  0  0  0  0  0  0  0  0
  -22.0010   -9.0350   20.3950 C   0  0  0  0  0  3  0  0  0  0  0  0
  -22.7270  -10.2230   20.2050 C   0  0  0  0  0  3  0  0  0  0  0  0
  -21.6580   -6.9460   21.4490 O   0  0  0  0  0  0  0  0  0  0  0  0
  -21.6030   -6.2160   22.6100 C   0  0  0  0  0  0  0  0  0  0  0  0
  -21.1610   -6.7830   23.8250 C   0  0  0  0  0  3  0  0  0  0  0  0
  -21.0560   -5.9780   24.9780 C   0  0  0  0  0  3  0  0  0  0  0  0
  -21.3810   -4.6110   24.9160 C   0  0  0  0  0  0  0  0  0  0  0  0
  -21.8160   -4.0440   23.7050 C   0  0  0  0  0  3  0  0  0  0  0  0
  -21.9230   -4.8450   22.5540 C   0  0  0  0  0  0  0  0  0  0  0  0
  -22.3230   -4.2900   21.3850 F   0  0  0  0  0  0  0  0  0  0  0  0
  -21.2730   -3.8370   26.0210 F   0  0  0  0  0  0  0  0  0  0  0  0
  -22.7480  -13.5820   21.0590 C   0  0  0  0  0  0  0  0  0  0  0  0
  -22.0200  -12.8930   21.9310 N   0  0  0  0  0  0  0  0  0  0  0  0
  -22.3100  -14.6050   20.5330 O   0  0  0  0  0  0  0  0  0  0  0  0
  -22.3870  -12.0650   22.3790 H   0  0  0  0  0  0  0  0  0  0  0  0
  -21.0840  -13.1980   22.1550 H   0  0  0  0  0  0  0  0  0  0  0  0
  -25.3760  -15.2390   20.2190 N   0  0  0  0  0  0  0  0  0  0  0  0
  -24.6060  -15.8910   20.3210 H   0  0  0  0  0  0  0  0  0  0  0  0
  -26.2220  -15.6760   19.8770 H   0  0  0  0  0  0  0  0  0  0  0  0
  -28.9600  -23.2850   20.9960 C   0  0  0  0  0  2  0  0  0  0  0  0
  -27.9420  -24.2440   20.3140 C   0  0  0  0  0  2  0  0  0  0  0  0
  -28.5410  -25.4440   19.5240 C   0  0  0  0  0  2  0  0  0  0  0  0
  -28.4450  -26.7220   20.1900 O   0  0  0  0  0  0  0  0  0  0  0  0
  -24.6100  -31.8890   23.2750 C   0  0  0  0  0  0  0  0  0  0  0  0
  -27.2560  -27.4370   20.1730 C   0  0  0  0  0  0  0  0  0  0  0  0
  -23.4070  -30.4940   21.6260 C   0  0  0  0  0  3  0  0  0  0  0  0
  -24.8600  -28.9620   20.1950 C   0  0  0  0  0  0  0  0  0  0  0  0
  -25.9360  -30.8450   21.4370 C   0  0  0  0  0  2  0  0  0  0  0  0
  -26.0200  -29.4760   20.7890 C   0  0  0  0  0  0  0  0  0  0  0  0
  -27.2170  -28.7200   20.7750 C   0  0  0  0  0  3  0  0  0  0  0  0
  -26.0690  -26.9390   19.5860 C   0  0  0  0  0  3  0  0  0  0  0  0
  -24.8810  -27.6940   19.5940 C   0  0  0  0  0  3  0  0  0  0  0  0
  -23.6180  -29.8230   20.2430 C   0  0  0  0  0  2  0  0  0  0  0  0
  -24.6700  -31.0910   22.1710 N   0  0  0  0  0  0  0  0  0  0  0  0
  -23.5280  -32.1590   23.8150 O   0  0  0  0  0  0  0  0  0  0  0  0
  -22.7550  -29.4670   22.5810 C   0  0  0  0  0  0  0  0  0  0  0  0
  -21.4320  -29.2810   22.4500 N   0  0  0  0  0  0  0  0  0  0  0  0
  -23.4380  -28.8410   23.3970 O   0  0  0  0  0  0  0  0  0  0  0  0
  -20.9420  -29.8380   21.7630 H   0  0  0  0  0  0  0  0  0  0  0  0
  -18.0590  -28.0790   22.9360 C   0  0  0  0  0  0  0  0  0  0  0  0
  -20.6150  -28.3390   23.2150 C   0  0  0  0  0  3  0  0  0  0  0  0
  -20.7210  -26.9110   22.6320 C   0  0  0  0  0  2  0  0  0  0  0  0
  -19.6220  -26.5910   21.6140 C   0  0  0  0  0  2  0  0  0  0  0  0
  -18.2390  -26.7330   22.2560 C   0  0  0  0  0  2  0  0  0  0  0  0
  -19.1750  -28.8400   23.3720 C   0  0  0  0  0  0  0  0  0  0  0  0
  -18.9540  -30.1020   23.9670 C   0  0  0  0  0  3  0  0  0  0  0  0
  -17.6490  -30.6020   24.1310 C   0  0  0  0  0  3  0  0  0  0  0  0
  -16.5460  -29.8370   23.7120 C   0  0  0  0  0  3  0  0  0  0  0  0
  -16.7520  -28.5780   23.1200 C   0  0  0  0  0  3  0  0  0  0  0  0
  -25.8950  -32.5180   23.8980 C   0  0  0  0  0  3  0  0  0  0  0  0
  -25.5920  -33.9200   24.2130 N   0  0  0  0  0  0  0  0  0  0  0  0
  -25.9360  -34.9640   23.4460 C   0  0  0  0  0  0  0  0  0  0  0  0
  -26.6140  -34.8460   22.4210 O   0  0  0  0  0  0  0  0  0  0  0  0
  -24.9920  -34.0850   25.0070 H   0  0  0  0  0  0  0  0  0  0  0  0
  -24.2230  -36.7640   23.0560 C   0  0  0  0  0  1  0  0  0  0  0  0
  -25.4520  -36.3590   23.8850 C   0  0  0  0  0  3  0  0  0  0  0  0
  -27.5820  -37.2390   24.7350 C   0  0  0  0  0  1  0  0  0  0  0  0
  -26.4930  -37.4040   23.7750 N   0  0  0  0  0  0  0  0  0  0  0  0
  -26.0910  -38.3280   23.9080 H   0  0  0  0  0  0  0  0  0  0  0  0
  -26.4000  -31.7550   25.1850 C   0  0  1  0  0  0  0  0  0  0  0  0
  -25.2980  -31.5330   26.2470 C   0  0  0  0  0  1  0  0  0  0  0  0
  -26.9790  -30.3710   24.8080 C   0  0  0  0  0  1  0  0  0  0  0  0
  -27.5500  -32.5510   25.8480 C   0  0  0  0  0  1  0  0  0  0  0  0
  1  2  1  0
  1 45  1  0
  2  3  2  0
  4  2  1  0
  4  5  1  0
  5  6  1  0
  6 15  1  0
  7 15  1  0
  8 13  1  0
  9 10  1  0
  9  8  1  0
 11 10  1  0
 11 20  1  0
 11 12  1  0
 13  7  1  0
 13 12  1  0
 14  7  2  0
 15 16  1  0
 17 18  2  0
 18 37  1  0
 19 18  1  0
 19 22  1  0
 20 17  1  0
 20 21  1  0
 21 19  2  0
 22 23  1  0
 23 24  2  0
 25 28  1  0
 25 24  1  0
 26 25  2  0
 27 26  1  0
 27 22  2  0
 28 29  1  0
 29 30  1  0
 30 31  2  0
 32 31  1  0
 32 36  1  0
 33 32  2  0
 34 29  2  0
 34 33  1  0
 35 34  1  0
 37 38  1  0
 38 41  1  0
 38 40  1  0
 39 37  2  0
 42 43  1  0
 42 17  1  0
 44 42  1  0
 46 45  1  0
 47 48  1  0
 47 46  1  0
 49 60  2  0
 50 48  1  0
 50 55  1  0
 51 59  1  0
 51 61  1  0
 52 58  1  0
 52 54  1  0
 53 59  1  0
 54 53  1  0
 55 54  2  0
 56 57  1  0
 56 50  2  0
 57 52  2  0
 58 51  1  0
 59 49  1  0
 61 63  2  0
 62 61  1  0
 64 62  1  0
 65 74  2  0
 65 70  1  0
 66 62  1  0
 66 70  1  0
 67 66  1  0
 68 69  1  0
 68 67  1  0
 69 65  1  0
 70 71  2  0
 71 72  1  0
 73 72  2  0
 74 73  1  0
 75 49  1  0
 75 76  1  0
 75 85  1  0
 76 79  1  0
 77 81  1  0
 77 76  1  0
 78 77  2  0
 81 80  1  0
 83 81  1  0
 83 84  1  0
 83 82  1  0
 85 88  1  1
 85 86  1  0
 87 85  1  0
M  ISO  4   7 100  15 100  47 101  48 101
M  END
>  <TORSDO>  (6) 
F 23

>  <SCORE>  (6) 
-12.507

>  <name>  (6) 
5

>  <ligand_id>  (6) 
5

>  <original_smiles>  (6) 
[H]c1c([H])c([H])c2c(c1[H])C([H])([H])C([H])([H])C([H])([H])C2([H])N([H])C(=O)C1([H])N(C(=O)C([H])(N([H])C(=O)C([H])(N([H])C([H])([H])[H])C([H])([H])[H])C(C([H])([H])[H])(C([H])([H])[H])C([H])([H])[H])C([H])([H])c2c([H])c(OC([H])([H])C([H])([H])C([H])([H])C([H])([H])C(=O)C([H])([H])C([H])([H])C([H])([H])N([H])C(=O)N3C([H])([H])C([H])([H])C([H])([H])C([H])(n4nc(-c5c([H])c([H])c(Oc6c([H])c([H])c(F)c([H])c6F)c([H])c5[H])c(C(=O)N([H])[H])c4N([H])[H])C3([H])[H])c([H])c([H])c2C1([H])[H]

>  <smiles>  (6) 
[H]c1c([H])c([H])c2c(c1[H])C([H])([H])C([H])([H])C([H])([H])C2([H])N([H])C(=O)C1([H])N(C(=O)C([H])(N([H])C(=O)C([H])(N([H])C([H])([H])[H])C([H])([H])[H])C(C([H])([H])[H])(C([H])([H])[H])C([H])([H])[H])C([H])([H])c2c([H])c(OC([H])([H])C([H])([H])C([H])([H])C([H])([H])C(=O)C([H])([H])C([H])([H])C([H])([H])N([H])C(=O)N3C([H])([H])C([H])([H])C([H])([H])C([H])(n4nc(-c5c([H])c([H])c(Oc6c([H])c([H])c(F)c([H])c6F)c([H])c5[H])c(C(=O)N([H])[H])c4N([H])[H])C3([H])[H])c([H])c([H])c2C1([H])[H]

$$$$
6:0:0
     RDKit          3D

 92 99  0  0  1  0  0  0  0  0999 V2000
  -29.0090  -21.9460   20.3950 C   0  0  0  0  0  3  0  0  0  0  0  0
  -27.5780  -21.8830   20.9600 C   0  0  0  0  0  0  0  0  0  0  0  0
  -26.5730  -21.8540   20.0920 N   0  0  0  0  0  0  0  0  0  0  0  0
  -27.3780  -21.8510   22.1720 O   0  0  0  0  0  0  0  0  0  0  0  0
  -26.7600  -21.8580   19.0990 H   0  0  0  0  0  0  0  0  0  0  0  0
  -25.6160  -21.8020   20.4120 H   0  0  0  0  0  0  0  0  0  0  0  0
  -29.3720  -20.5800   19.7330 C   0  0  0  0  0  2  0  0  0  0  0  0
  -29.9180  -19.5100   20.7170 C   0  0  0  0  0  2  0  0  0  0  0  0
  -29.7780  -18.0480   20.2290 C   0  0  0  0  0  2  0  0  0  0  0  0
  -30.5950  -17.0410   21.0740 C   0  0  0  0  0  2  0  0  0  0  0  0
  -30.8100  -14.7020   20.1550 C   0  0  0  0  0  0  0  0  0  0  0  0
  -30.4340  -12.5980   18.9230 C   0  0  0  0  0  2  0  0  0  0  0  0
  -29.4310  -12.8490   17.7800 C   0  0  0  0  0  2  0  0  0  0  0  0
  -27.9780  -12.7170   18.2770 C   0  0  0  0  0  2  0  0  0  0  0  0
  -27.7170  -13.5070   19.5870 C   0  0  0  0  0  3  0  0  0  0  0  0
  -28.8220  -13.2240   20.6290 C   0  0  0  0  0  2  0  0  0  0  0  0
  -30.1220  -13.5400   20.0080 N   0  0  0  0  0  0  0  0  0  0  0  0
  -31.8920  -14.9240   19.6060 O   0  0  0  0  0  0  0  0  0  0  0  0
  -30.1720  -15.6540   20.8560 N   0  0  0  0  0  0  0  0  0  0  0  0
  -29.2870  -15.3810   21.2550 H   0  0  0  0  0  0  0  0  0  0  0  0
  -25.3580  -14.1120   20.4220 C   0  0  0  0  0  0  0  0  0  0  0  0
  -24.3000  -13.3370   20.8160 C   0  0  0  0  0  0  0  0  0  0  0  0
  -24.7470  -11.9830   20.7230 C   0  0  0  0  0  0  0  0  0  0  0  0
  -26.3850  -13.2310   20.1190 N   0  0  0  0  0  0  0  0  0  0  0  0
  -26.0220  -11.9440   20.3570 N   0  0  0  0  0  0  0  0  0  0  0  0
  -24.0220  -10.7210   20.9120 C   0  0  0  0  0  0  0  0  0  0  0  0
  -24.4750   -9.7380   21.8190 C   0  0  0  0  0  3  0  0  0  0  0  0
  -23.7500   -8.5400   21.9950 C   0  0  0  0  0  3  0  0  0  0  0  0
  -22.5590   -8.3170   21.2650 C   0  0  0  0  0  0  0  0  0  0  0  0
  -22.1260   -9.2890   20.3450 C   0  0  0  0  0  3  0  0  0  0  0  0
  -22.8510  -10.4790   20.1680 C   0  0  0  0  0  3  0  0  0  0  0  0
  -21.8060   -7.1720   21.3500 O   0  0  0  0  0  0  0  0  0  0  0  0
  -21.7650   -6.4210   22.4970 C   0  0  0  0  0  0  0  0  0  0  0  0
  -21.3320   -6.9630   23.7280 C   0  0  0  0  0  3  0  0  0  0  0  0
  -21.2400   -6.1370   24.8670 C   0  0  0  0  0  3  0  0  0  0  0  0
  -21.5700   -4.7710   24.7750 C   0  0  0  0  0  0  0  0  0  0  0  0
  -21.9950   -4.2300   23.5500 C   0  0  0  0  0  3  0  0  0  0  0  0
  -22.0890   -5.0520   22.4130 C   0  0  0  0  0  0  0  0  0  0  0  0
  -22.4790   -4.5190   21.2300 F   0  0  0  0  0  0  0  0  0  0  0  0
  -21.4740   -3.9770   25.8670 F   0  0  0  0  0  0  0  0  0  0  0  0
  -22.9210  -13.8150   21.1650 C   0  0  0  0  0  0  0  0  0  0  0  0
  -22.2310  -13.1040   22.0490 N   0  0  0  0  0  0  0  0  0  0  0  0
  -22.4640  -14.8540   20.6880 O   0  0  0  0  0  0  0  0  0  0  0  0
  -22.6130  -12.2620   22.4530 H   0  0  0  0  0  0  0  0  0  0  0  0
  -21.3080  -13.4060   22.3250 H   0  0  0  0  0  0  0  0  0  0  0  0
  -25.5280  -15.4870   20.2830 N   0  0  0  0  0  0  0  0  0  0  0  0
  -24.7820  -16.1470   20.4760 H   0  0  0  0  0  0  0  0  0  0  0  0
  -26.3780  -15.9320   19.9600 H   0  0  0  0  0  0  0  0  0  0  0  0
  -29.2230  -23.1940   19.4780 C   0  0  0  0  0  2  0  0  0  0  0  0
  -28.9130  -24.5710   20.1430 C   0  0  0  0  0  2  0  0  0  0  0  0
  -29.1060  -25.7990   19.2180 C   0  0  0  0  0  2  0  0  0  0  0  0
  -28.8670  -27.0500   19.8880 O   0  0  0  0  0  0  0  0  0  0  0  0
  -24.6650  -31.8060   23.1200 C   0  0  0  0  0  0  0  0  0  0  0  0
  -27.6150  -27.6440   19.9000 C   0  0  0  0  0  0  0  0  0  0  0  0
  -23.5590  -30.3810   21.4300 C   0  0  0  0  0  3  0  0  0  0  0  0
  -25.1140  -28.9800   19.9700 C   0  0  0  0  0  0  0  0  0  0  0  0
  -26.0560  -30.9110   21.2500 C   0  0  0  0  0  2  0  0  0  0  0  0
  -26.2340  -29.5670   20.5710 C   0  0  0  0  0  0  0  0  0  0  0  0
  -27.4820  -28.9030   20.5360 C   0  0  0  0  0  3  0  0  0  0  0  0
  -26.4660  -27.0630   19.3130 C   0  0  0  0  0  3  0  0  0  0  0  0
  -25.2240  -27.7260   19.3440 C   0  0  0  0  0  3  0  0  0  0  0  0
  -23.8160  -29.7520   20.0350 C   0  0  0  0  0  2  0  0  0  0  0  0
  -24.7780  -31.0480   21.9940 N   0  0  0  0  0  0  0  0  0  0  0  0
  -23.5660  -31.9870   23.6640 O   0  0  0  0  0  0  0  0  0  0  0  0
  -22.9720  -29.2910   22.3570 C   0  0  0  0  0  0  0  0  0  0  0  0
  -21.6620  -29.0270   22.2210 N   0  0  0  0  0  0  0  0  0  0  0  0
  -23.6940  -28.6860   23.1560 O   0  0  0  0  0  0  0  0  0  0  0  0
  -21.1370  -29.5660   21.5460 H   0  0  0  0  0  0  0  0  0  0  0  0
  -18.3680  -27.6140   22.6740 C   0  0  0  0  0  0  0  0  0  0  0  0
  -20.9060  -28.0150   22.9580 C   0  0  0  0  0  3  0  0  0  0  0  0
  -21.0950  -26.6160   22.3280 C   0  0  0  0  0  2  0  0  0  0  0  0
  -20.0120  -26.2650   21.3030 C   0  0  0  0  0  2  0  0  0  0  0  0
  -18.6250  -26.3030   21.9490 C   0  0  0  0  0  2  0  0  0  0  0  0
  -19.4400  -28.4250   23.1340 C   0  0  0  0  0  0  0  0  0  0  0  0
  -19.1470  -29.6510   23.7690 C   0  0  0  0  0  3  0  0  0  0  0  0
  -17.8150  -30.0690   23.9510 C   0  0  0  0  0  3  0  0  0  0  0  0
  -16.7570  -29.2530   23.5120 C   0  0  0  0  0  3  0  0  0  0  0  0
  -17.0340  -28.0270   22.8800 C   0  0  0  0  0  3  0  0  0  0  0  0
  -25.9050  -32.5020   23.7640 C   0  0  0  0  0  3  0  0  0  0  0  0
  -25.5100  -33.8720   24.1130 N   0  0  0  0  0  0  0  0  0  0  0  0
  -25.7900  -34.9550   23.3750 C   0  0  0  0  0  0  0  0  0  0  0  0
  -26.4800  -34.9080   22.3520 O   0  0  0  0  0  0  0  0  0  0  0  0
  -24.8870  -33.9750   24.9030 H   0  0  0  0  0  0  0  0  0  0  0  0
  -23.9650  -36.6480   23.0250 C   0  0  0  0  0  1  0  0  0  0  0  0
  -25.2180  -36.3050   23.8470 C   0  0  0  0  0  3  0  0  0  0  0  0
  -27.2880  -37.3010   24.7170 C   0  0  0  0  0  1  0  0  0  0  0  0
  -26.1890  -37.4190   23.7610 N   0  0  0  0  0  0  0  0  0  0  0  0
  -25.7270  -38.3120   23.9180 H   0  0  0  0  0  0  0  0  0  0  0  0
  -26.4550  -31.7390   25.0310 C   0  0  1  0  0  0  0  0  0  0  0  0
  -25.3670  -31.4110   26.0820 C   0  0  0  0  0  1  0  0  0  0  0  0
  -27.1250  -30.4070   24.6210 C   0  0  0  0  0  1  0  0  0  0  0  0
  -27.5500  -32.5870   25.7180 C   0  0  0  0  0  1  0  0  0  0  0  0
  1 49  1  0
  1  2  1  0
  2  4  2  0
  3  6  1  0
  3  2  1  0
  5  3  1  0
  7  1  1  0
  7  8  1  0
  9  8  1  0
  9 10  1  0
 11 19  1  0
 12 17  1  0
 13 14  1  0
 13 12  1  0
 15 14  1  0
 15 24  1  0
 15 16  1  0
 17 11  1  0
 17 16  1  0
 18 11  2  0
 19 10  1  0
 19 20  1  0
 21 22  2  0
 22 41  1  0
 23 22  1  0
 23 26  1  0
 24 25  1  0
 24 21  1  0
 25 23  2  0
 26 27  1  0
 27 28  2  0
 29 32  1  0
 29 28  1  0
 30 29  2  0
 31 30  1  0
 31 26  2  0
 32 33  1  0
 33 34  1  0
 34 35  2  0
 36 35  1  0
 36 40  1  0
 37 36  2  0
 38 33  2  0
 38 37  1  0
 39 38  1  0
 41 42  1  0
 42 45  1  0
 42 44  1  0
 43 41  2  0
 46 21  1  0
 46 47  1  0
 48 46  1  0
 49 50  1  0
 51 52  1  0
 51 50  1  0
 52 54  1  0
 53 64  2  0
 54 59  1  0
 55 63  1  0
 55 65  1  0
 56 62  1  0
 56 58  1  0
 57 63  1  0
 58 57  1  0
 59 58  2  0
 60 61  1  0
 60 54  2  0
 61 56  2  0
 62 55  1  0
 63 53  1  0
 65 67  2  0
 66 65  1  0
 68 66  1  0
 69 78  2  0
 69 74  1  0
 70 66  1  0
 70 74  1  0
 71 70  1  0
 72 73  1  0
 72 71  1  0
 73 69  1  0
 74 75  2  0
 75 76  1  0
 77 76  2  0
 78 77  1  0
 79 53  1  0
 79 80  1  0
 79 89  1  0
 80 83  1  0
 81 85  1  0
 81 80  1  0
 82 81  2  0
 85 84  1  0
 87 85  1  0
 87 88  1  0
 87 86  1  0
 89 92  1  1
 89 90  1  0
 91 89  1  0
M  ISO  4  11 100  19 100  51 101  52 101
M  END
>  <TORSDO>  (7) 
F 24

>  <SCORE>  (7) 
-11.271

>  <name>  (7) 
6

>  <ligand_id>  (7) 
6

>  <original_smiles>  (7) 
[H]c1c([H])c([H])c2c(c1[H])C([H])([H])C([H])([H])C([H])([H])C2([H])N([H])C(=O)C1([H])N(C(=O)C([H])(N([H])C(=O)C([H])(N([H])C([H])([H])[H])C([H])([H])[H])C(C([H])([H])[H])(C([H])([H])[H])C([H])([H])[H])C([H])([H])c2c([H])c(OC([H])([H])C([H])([H])C([H])([H])C([H])(C(=O)N([H])[H])C([H])([H])C([H])([H])C([H])([H])C([H])([H])N([H])C(=O)N3C([H])([H])C([H])([H])C([H])([H])C([H])(n4nc(-c5c([H])c([H])c(Oc6c([H])c([H])c(F)c([H])c6F)c([H])c5[H])c(C(=O)N([H])[H])c4N([H])[H])C3([H])[H])c([H])c([H])c2C1([H])[H]

>  <smiles>  (7) 
[H]c1c([H])c([H])c2c(c1[H])C([H])([H])C([H])([H])C([H])([H])C2([H])N([H])C(=O)C1([H])N(C(=O)C([H])(N([H])C(=O)C([H])(N([H])C([H])([H])[H])C([H])([H])[H])C(C([H])([H])[H])(C([H])([H])[H])C([H])([H])[H])C([H])([H])c2c([H])c(OC([H])([H])C([H])([H])C([H])([H])C([H])(C(=O)N([H])[H])C([H])([H])C([H])([H])C([H])([H])C([H])([H])N([H])C(=O)N3C([H])([H])C([H])([H])C([H])([H])C([H])(n4nc(-c5c([H])c([H])c(Oc6c([H])c([H])c(F)c([H])c6F)c([H])c5[H])c(C(=O)N([H])[H])c4N([H])[H])C3([H])[H])c([H])c([H])c2C1([H])[H]

$$$$
7:0:0
     RDKit          3D

 96 95  0  0  1  0  0  0  0  0999 V2000
  -22.9890  -28.1940   24.1560 C   0  0  0  0  0  1  0  0  0  0  0  0
  -23.2870  -28.8490   26.4390 C   0  0  0  0  0  3  0  0  0  0  0  0
  -22.8990  -27.9630   25.6060 N   0  0  0  0  0  0  0  0  0  0  0  0
  -23.2110  -28.6590   27.9380 C   0  0  0  0  0  2  0  0  0  0  0  0
  -24.3430  -29.0990   30.1860 C   0  0  0  0  0  1  0  0  0  0  0  0
  -24.4360  -29.2470   28.6620 C   0  0  0  0  0  2  0  0  0  0  0  0
  -19.9630  -29.3530   22.8960 C   0  0  0  0  0  1  0  0  0  0  0  0
  -21.0740  -28.2530   22.6580 C   0  0  0  0  0  1  0  0  0  0  0  0
  -21.3430  -27.4290   20.5800 C   0  0  0  0  0 15  0  0  0  0  0  0
  -22.9970  -26.9680   19.6630 O   0  0  0  0  0  1  0  0  0  0  0  0
  -24.4980  -31.0990   22.8840 C   0  0  0  0  0  0  0  0  0  0  0  0
  -24.0580  -27.4540   18.7300 C   0  0  0  0  0  3  0  0  0  0  0  0
  -23.1820  -29.3700   21.7200 C   0  0  0  0  0  3  0  0  0  0  0  0
  -22.8350  -29.5560   19.2590 C   0  0  0  0  0  3  0  0  0  0  0  0
  -24.7500  -30.6690   20.4220 C   0  0  0  0  0  2  0  0  0  0  0  0
  -24.2160  -29.6890   19.3930 C   0  0  0  0  0  3  0  0  0  0  0  0
  -24.9250  -28.5640   18.9910 C   0  0  0  0  0  2  0  0  0  0  0  0
  -23.2230  -27.7280   17.6920 C   0  0  0  0  0  2  0  0  0  0  0  0
  -22.3240  -28.6760   18.2430 C   0  0  0  0  0  2  0  0  0  0  0  0
  -22.1970  -29.9400   20.5600 C   0  0  0  0  0  2  0  0  0  0  0  0
  -24.2150  -30.3740   21.7630 N   0  0  0  0  0  0  0  0  0  0  0  0
  -23.8700  -31.0230   23.9590 O   0  0  0  0  0  0  0  0  0  0  0  0
  -23.7530  -27.7080   21.8980 C   0  0  0  0  0  3  0  0  0  0  0  0
  -23.0400  -26.2830   21.4780 N   0  0  0  0  0  0  0  0  0  0  0  0
  -24.6270  -27.6660   22.7070 O   0  0  0  0  0  0  0  0  0  0  0  0
  -23.7710  -25.5900   21.5380 H   0  0  0  0  0  0  0  0  0  0  0  0
  -18.7550  -24.5810   21.3810 C   0  0  0  0  0  0  0  0  0  0  0  0
  -21.4410  -25.3740   21.7900 C   0  0  0  0  0  3  0  0  0  0  0  0
  -21.7380  -24.0770   21.2140 C   0  0  0  0  0  2  0  0  0  0  0  0
  -20.7180  -23.6340   20.2120 C   0  0  0  0  0  2  0  0  0  0  0  0
  -19.4010  -23.3250   20.9050 C   0  0  0  0  0  2  0  0  0  0  0  0
  -19.6260  -25.6680   21.7390 C   0  0  0  0  0  0  0  0  0  0  0  0
  -18.7330  -26.8380   21.9350 C   0  0  0  0  0  3  0  0  0  0  0  0
  -17.2960  -26.8780   21.9070 C   0  0  0  0  0  3  0  0  0  0  0  0
  -16.5660  -25.7220   21.6290 C   0  0  0  0  0  3  0  0  0  0  0  0
  -17.3220  -24.5800   21.3510 C   0  0  0  0  0  3  0  0  0  0  0  0
  -25.7410  -31.9820   22.8420 C   0  0  0  0  0  3  0  0  0  0  0  0
  -26.9670  -31.2020   23.4350 C   0  0  1  0  0  0  0  0  0  0  0  0
  -26.6910  -30.5450   24.8110 C   0  0  0  0  0  1  0  0  0  0  0  0
  -27.4710  -30.0900   22.4850 C   0  0  0  0  0  1  0  0  0  0  0  0
  -28.1440  -32.1870   23.5720 C   0  0  0  0  0  1  0  0  0  0  0  0
  -25.4480  -33.2010   23.5960 N   0  0  0  0  0  0  0  0  0  0  0  0
  -25.2790  -34.4040   23.0380 C   0  0  0  0  0  0  0  0  0  0  0  0
  -25.4110  -34.6030   21.8260 O   0  0  0  0  0  0  0  0  0  0  0  0
  -25.2720  -33.0970   24.5860 H   0  0  0  0  0  0  0  0  0  0  0  0
  -23.4730  -35.9960   23.7740 C   0  0  0  0  0  1  0  0  0  0  0  0
  -24.9380  -35.5760   23.9760 C   0  0  0  0  0  3  0  0  0  0  0  0
  -27.2010  -36.4930   24.2220 C   0  0  0  0  0  1  0  0  0  0  0  0
  -25.8270  -36.7440   23.7930 N   0  0  0  0  0  0  0  0  0  0  0  0
  -25.4780  -37.5450   24.3120 H   0  0  0  0  0  0  0  0  0  0  0  0
  -24.8660  -27.1070   23.5980 C   0  0  0  0  0  1  0  0  0  0  0  0
  -26.2340  -27.0230   21.9860 C   0  0  0  0  0 15  0  0  0  0  0  0
  -27.7610  -26.0360   21.0420 C   0  0  0  0  0  2  0  0  0  0  0  0
  -27.6000  -24.7980   21.2280 N   0  0  0  0  0  0  0  0  0  0  0  0
  -28.3310  -24.2570   20.7760 H   0  0  0  0  0  0  0  0  0  0  0  0
  -29.4540  -26.2960   19.9060 C   0  0  0  0  0 15  0  0  0  0  0  0
  -30.7320  -25.4500   18.4900 C   0  0  0  0  0 15  0  0  0  0  0  0
  -32.6530  -25.4110   17.6780 C   0  0  0  0  0  1  0  0  0  0  0  0
  -35.1860  -24.6440   15.5140 C   0  0  0  0  0  0  0  0  0  0  0  0
  -36.9850  -24.6640   13.3960 C   0  0  0  0  0  2  0  0  0  0  0  0
  -37.1650  -25.9650   12.5260 C   0  0  0  0  0  2  0  0  0  0  0  0
  -35.9800  -26.1710   11.5730 C   0  0  0  0  0  2  0  0  0  0  0  0
  -34.6790  -25.7840   12.3000 C   0  0  0  0  0  3  0  0  0  0  0  0
  -34.7120  -24.3960   12.9540 C   0  0  0  0  0  2  0  0  0  0  0  0
  -35.5880  -24.5520   14.0940 N   0  0  0  0  0  0  0  0  0  0  0  0
  -36.2880  -24.4720   16.1120 O   0  0  0  0  0  0  0  0  0  0  0  0
  -33.7270  -24.9850   16.1800 N   0  0  0  0  0  0  0  0  0  0  0  0
  -33.1050  -25.0170   15.3840 H   0  0  0  0  0  0  0  0  0  0  0  0
  -32.3130  -26.4940   11.8740 C   0  0  0  0  0  0  0  0  0  0  0  0
  -31.4930  -26.3600   10.7950 C   0  0  0  0  0  0  0  0  0  0  0  0
  -32.2430  -25.6410    9.8120 C   0  0  0  0  0  0  0  0  0  0  0  0
  -33.4960  -25.8920   11.5020 N   0  0  0  0  0  0  0  0  0  0  0  0
  -33.4340  -25.3070   10.2850 N   0  0  0  0  0  0  0  0  0  0  0  0
  -31.9200  -25.3120    8.4230 C   0  0  0  0  0  0  0  0  0  0  0  0
  -32.0550  -24.0010    7.9210 C   0  0  0  0  0  3  0  0  0  0  0  0
  -31.7150  -23.7110    6.5830 C   0  0  0  0  0  3  0  0  0  0  0  0
  -31.2320  -24.7370    5.7370 C   0  0  0  0  0  0  0  0  0  0  0  0
  -31.1250  -26.0470    6.2360 C   0  0  0  0  0  3  0  0  0  0  0  0
  -31.4670  -26.3350    7.5670 C   0  0  0  0  0  3  0  0  0  0  0  0
  -30.9020  -24.5550    4.4160 O   0  0  0  0  0  0  0  0  0  0  0  0
  -30.5580  -23.3230    3.9260 C   0  0  0  0  0  0  0  0  0  0  0  0
  -29.5030  -22.5670    4.4820 C   0  0  0  0  0  3  0  0  0  0  0  0
  -29.1360  -21.3360    3.9010 C   0  0  0  0  0  3  0  0  0  0  0  0
  -29.8180  -20.8640    2.7640 C   0  0  0  0  0  0  0  0  0  0  0  0
  -30.8660  -21.6190    2.2060 C   0  0  0  0  0  3  0  0  0  0  0  0
  -31.2330  -22.8450    2.7850 C   0  0  0  0  0  0  0  0  0  0  0  0
  -32.2290  -23.5790    2.2330 F   0  0  0  0  0  0  0  0  0  0  0  0
  -29.4620  -19.6860    2.2000 F   0  0  0  0  0  0  0  0  0  0  0  0
  -30.1290  -26.9590   10.6520 C   0  0  0  0  0  0  0  0  0  0  0  0
  -29.2590  -26.3200    9.8800 N   0  0  0  0  0  0  0  0  0  0  0  0
  -29.8160  -27.9760   11.2680 O   0  0  0  0  0  0  0  0  0  0  0  0
  -29.5150  -25.4720    9.3960 H   0  0  0  0  0  0  0  0  0  0  0  0
  -28.3230  -26.6830    9.7750 H   0  0  0  0  0  0  0  0  0  0  0  0
  -32.1690  -27.0900   13.1250 N   0  0  0  0  0  0  0  0  0  0  0  0
  -31.3350  -27.6160   13.3650 H   0  0  0  0  0  0  0  0  0  0  0  0
  -32.9330  -27.2510   13.7690 H   0  0  0  0  0  0  0  0  0  0  0  0
  1  3  1  0
  2  4  1  0
  3  2  2  0
  4  6  1  0
  6  5  1  0
  8  7  1  0
 11 22  2  0
 12 17  1  0
 12 10  1  0
 13 21  1  0
 13 23  1  0
 14 19  1  0
 14 16  1  0
 14 20  1  0
 15 21  1  0
 16 17  1  0
 16 15  1  0
 18 19  1  0
 18 12  1  0
 20 13  1  0
 21 11  1  0
 23 25  1  0
 24 26  1  0
 24 23  1  0
 25 51  1  0
 27 32  1  0
 28 24  1  0
 29 28  1  0
 30 31  1  0
 30 29  1  0
 31 27  1  0
 32 28  1  0
 32 33  2  0
 34 33  1  0
 35 34  2  0
 36 27  2  0
 36 35  1  0
 37 11  1  0
 37 38  1  0
 37 42  1  0
 38 41  1  1
 38 39  1  0
 40 38  1  0
 42 45  1  0
 43 42  1  0
 43 47  1  0
 44 43  2  0
 47 46  1  0
 49 47  1  0
 49 48  1  0
 49 50  1  0
 53 54  2  0
 55 54  1  0
 59 66  2  0
 59 67  1  0
 60 65  1  0
 61 60  1  0
 62 63  1  0
 62 61  1  0
 63 72  1  0
 63 64  1  0
 64 65  1  0
 65 59  1  0
 67 58  1  0
 68 67  1  0
 69 94  1  0
 70 69  2  0
 71 73  2  0
 71 70  1  0
 72 69  1  0
 73 72  1  0
 74 71  1  0
 75 74  1  0
 76 75  2  0
 77 78  2  0
 77 76  1  0
 78 79  1  0
 79 74  2  0
 80 77  1  0
 81 80  1  0
 81 82  1  0
 83 82  2  0
 84 83  1  0
 85 84  2  0
 85 86  1  0
 86 81  2  0
 87 86  1  0
 88 84  1  0
 89 70  1  0
 89 91  2  0
 90 89  1  0
 92 90  1  0
 93 90  1  0
 94 95  1  0
 94 96  1  0
M  ISO  4   9 101  10 101  59 100  67 100
M  END
>  <TORSDO>  (8) 
F 27

>  <SCORE>  (8) 
-2.027

>  <name>  (8) 
7

>  <ligand_id>  (8) 
7

>  <original_smiles>  (8) 
[H]N=C(C([H])([H])C([H])([H])C([H])([H])N([H])C(=O)N1C([H])([H])C([H])([H])C([H])([H])C([H])(n2nc(-c3c([H])c([H])c(Oc4c([H])c([H])c(F)c([H])c4F)c([H])c3[H])c(C(=O)N([H])[H])c2N([H])[H])C1([H])[H])C([H])([H])C([H])([H])C([H])(N=C([H])C([H])([H])C([H])([H])C([H])([H])[H])C([H])(C([H])([H])[H])C([H])([H])Oc1c([H])c([H])c2c(c1[H])C([H])([H])N(C(=O)C([H])(N([H])C(=O)C([H])(N([H])C([H])([H])[H])C([H])([H])[H])C(C([H])([H])[H])(C([H])([H])[H])C([H])([H])[H])C([H])(C(=O)N([H])C1([H])c3c([H])c([H])c([H])c([H])c3C([H])([H])C([H])([H])C1([H])[H])C2([H])[H]

>  <smiles>  (8) 
[H]N=C(C([H])([H])C([H])([H])C([H])([H])N([H])C(=O)N1C([H])([H])C([H])([H])C([H])([H])C([H])(n2nc(-c3c([H])c([H])c(Oc4c([H])c([H])c(F)c([H])c4F)c([H])c3[H])c(C(=O)N([H])[H])c2N([H])[H])C1([H])[H])C([H])([H])C([H])([H])C([H])(N=C([H])C([H])([H])C([H])([H])C([H])([H])[H])C([H])(C([H])([H])[H])C([H])([H])Oc1c([H])c([H])c2c(c1[H])C([H])([H])N(C(=O)C([H])(N([H])C(=O)C([H])(N([H])C([H])([H])[H])C([H])([H])[H])C(C([H])([H])[H])(C([H])([H])[H])C([H])([H])[H])C([H])(C(=O)N([H])C1([H])c3c([H])c([H])c([H])c([H])c3C([H])([H])C([H])([H])C1([H])[H])C2([H])[H]

$$$$
8:0:0
     RDKit          3D

 93101  0  0  1  0  0  0  0  0999 V2000
  -29.4070  -21.3110   20.8610 C   0  0  0  0  0  0  0  0  0  0  0  0
  -28.9880  -22.4640   20.2330 N   0  0  0  0  0  0  0  0  0  0  0  0
  -29.7780  -21.3440   22.0360 O   0  0  0  0  0  0  0  0  0  0  0  0
  -28.6410  -22.3460   19.2900 H   0  0  0  0  0  0  0  0  0  0  0  0
  -30.6340  -19.9370   19.0920 C   0  0  0  0  0  2  0  0  0  0  0  0
  -29.4550  -19.9250   20.0690 C   0  0  0  0  0  3  0  0  0  0  0  0
  -31.4050  -18.9450   19.9900 C   0  0  0  0  0  3  0  0  0  0  0  0
  -30.0600  -18.5270   20.6320 C   0  0  0  0  0  3  0  0  0  0  0  0
  -32.5300  -19.4360   20.9100 C   0  0  0  0  0  2  0  0  0  0  0  0
  -34.9670  -20.1420   21.1940 C   0  0  0  0  0  1  0  0  0  0  0  0
  -33.8630  -19.7310   20.1990 C   0  0  0  0  0  2  0  0  0  0  0  0
  -29.5080  -17.1000   20.1430 C   0  0  0  0  0  2  0  0  0  0  0  0
  -30.5920  -14.7180   20.4130 C   0  0  0  0  0  0  0  0  0  0  0  0
  -30.4050  -12.4550   19.3800 C   0  0  0  0  0  2  0  0  0  0  0  0
  -29.4830  -12.5960   18.1470 C   0  0  0  0  0  2  0  0  0  0  0  0
  -28.0060  -12.4290   18.5470 C   0  0  0  0  0  2  0  0  0  0  0  0
  -27.6310  -13.2750   19.7940 C   0  0  0  0  0  3  0  0  0  0  0  0
  -28.6760  -13.1270   20.9230 C   0  0  0  0  0  2  0  0  0  0  0  0
  -29.9960  -13.4790   20.3690 N   0  0  0  0  0  0  0  0  0  0  0  0
  -31.7180  -14.8950   19.9400 O   0  0  0  0  0  0  0  0  0  0  0  0
  -29.8130  -15.7750   20.8280 N   0  0  0  0  0  0  0  0  0  0  0  0
  -29.0340  -15.4490   21.3790 H   0  0  0  0  0  0  0  0  0  0  0  0
  -25.2270  -13.8610   20.4790 C   0  0  0  0  0  0  0  0  0  0  0  0
  -24.1630  -13.0850   20.8500 C   0  0  0  0  0  0  0  0  0  0  0  0
  -24.6320  -11.7360   20.8320 C   0  0  0  0  0  0  0  0  0  0  0  0
  -26.2780  -12.9840   20.2620 N   0  0  0  0  0  0  0  0  0  0  0  0
  -25.9260  -11.7000   20.5320 N   0  0  0  0  0  0  0  0  0  0  0  0
  -23.9080  -10.4730   21.0260 C   0  0  0  0  0  0  0  0  0  0  0  0
  -24.3470   -9.5100   21.9610 C   0  0  0  0  0  3  0  0  0  0  0  0
  -23.6270   -8.3110   22.1460 C   0  0  0  0  0  3  0  0  0  0  0  0
  -22.4520   -8.0670   21.3960 C   0  0  0  0  0  0  0  0  0  0  0  0
  -22.0320   -9.0170   20.4510 C   0  0  0  0  0  3  0  0  0  0  0  0
  -22.7530  -10.2100   20.2630 C   0  0  0  0  0  3  0  0  0  0  0  0
  -21.7010   -6.9190   21.4890 O   0  0  0  0  0  0  0  0  0  0  0  0
  -21.6640   -6.1720   22.6400 C   0  0  0  0  0  0  0  0  0  0  0  0
  -21.2570   -6.7240   23.8740 C   0  0  0  0  0  3  0  0  0  0  0  0
  -21.1660   -5.9050   25.0160 C   0  0  0  0  0  3  0  0  0  0  0  0
  -21.4740   -4.5340   24.9250 C   0  0  0  0  0  0  0  0  0  0  0  0
  -21.8760   -3.9810   23.6960 C   0  0  0  0  0  3  0  0  0  0  0  0
  -21.9670   -4.7980   22.5560 C   0  0  0  0  0  0  0  0  0  0  0  0
  -22.3320   -4.2570   21.3690 F   0  0  0  0  0  0  0  0  0  0  0  0
  -21.3830   -3.7430   26.0210 F   0  0  0  0  0  0  0  0  0  0  0  0
  -22.7600  -13.5560   21.1100 C   0  0  0  0  0  0  0  0  0  0  0  0
  -22.0310  -12.8630   21.9770 N   0  0  0  0  0  0  0  0  0  0  0  0
  -22.3180  -14.5730   20.5780 O   0  0  0  0  0  0  0  0  0  0  0  0
  -22.4000  -12.0410   22.4320 H   0  0  0  0  0  0  0  0  0  0  0  0
  -21.0880  -13.1590   22.1870 H   0  0  0  0  0  0  0  0  0  0  0  0
  -25.3890  -15.2310   20.2920 N   0  0  0  0  0  0  0  0  0  0  0  0
  -24.6230  -15.8860   20.3930 H   0  0  0  0  0  0  0  0  0  0  0  0
  -26.2350  -15.6680   19.9460 H   0  0  0  0  0  0  0  0  0  0  0  0
  -29.0800  -23.9050   20.7080 C   0  0  0  0  0  3  0  0  0  0  0  0
  -28.1710  -25.0020   19.9720 C   0  0  0  0  0  3  0  0  0  0  0  0
  -28.3190  -26.4540   20.2840 O   0  0  0  0  0  0  0  0  0  0  0  0
  -24.6000  -31.8880   23.2480 C   0  0  0  0  0  0  0  0  0  0  0  0
  -27.2050  -27.3140   20.1950 C   0  0  0  0  0  0  0  0  0  0  0  0
  -23.3930  -30.4920   21.6060 C   0  0  0  0  0  3  0  0  0  0  0  0
  -24.8430  -28.9420   20.1730 C   0  0  0  0  0  0  0  0  0  0  0  0
  -25.9360  -30.8000   21.4290 C   0  0  0  0  0  2  0  0  0  0  0  0
  -26.0110  -29.4220   20.7800 C   0  0  0  0  0  0  0  0  0  0  0  0
  -27.1870  -28.6160   20.7910 C   0  0  0  0  0  3  0  0  0  0  0  0
  -26.0220  -26.9060   19.5330 C   0  0  0  0  0  3  0  0  0  0  0  0
  -24.8530  -27.6910   19.5380 C   0  0  0  0  0  3  0  0  0  0  0  0
  -23.6070  -29.8180   20.2240 C   0  0  0  0  0  2  0  0  0  0  0  0
  -24.6610  -31.0790   22.1490 N   0  0  0  0  0  0  0  0  0  0  0  0
  -23.5170  -32.1680   23.7800 O   0  0  0  0  0  0  0  0  0  0  0  0
  -22.7310  -29.4760   22.5660 C   0  0  0  0  0  0  0  0  0  0  0  0
  -21.4070  -29.2940   22.4340 N   0  0  0  0  0  0  0  0  0  0  0  0
  -23.4070  -28.8540   23.3900 O   0  0  0  0  0  0  0  0  0  0  0  0
  -20.9210  -29.8450   21.7380 H   0  0  0  0  0  0  0  0  0  0  0  0
  -18.0300  -28.0770   22.9090 C   0  0  0  0  0  0  0  0  0  0  0  0
  -20.5840  -28.3580   23.2030 C   0  0  0  0  0  3  0  0  0  0  0  0
  -20.7030  -26.9230   22.6390 C   0  0  0  0  0  2  0  0  0  0  0  0
  -19.6130  -26.5840   21.6180 C   0  0  0  0  0  2  0  0  0  0  0  0
  -18.2240  -26.7240   22.2440 C   0  0  0  0  0  2  0  0  0  0  0  0
  -19.1400  -28.8510   23.3440 C   0  0  0  0  0  0  0  0  0  0  0  0
  -18.9050  -30.1170   23.9230 C   0  0  0  0  0  3  0  0  0  0  0  0
  -17.5960  -30.6100   24.0720 C   0  0  0  0  0  3  0  0  0  0  0  0
  -16.5010  -29.8350   23.6510 C   0  0  0  0  0  3  0  0  0  0  0  0
  -16.7200  -28.5700   23.0760 C   0  0  0  0  0  3  0  0  0  0  0  0
  -25.8840  -32.5160   23.8710 C   0  0  0  0  0  3  0  0  0  0  0  0
  -25.5810  -33.9160   24.2000 N   0  0  0  0  0  0  0  0  0  0  0  0
  -25.9100  -34.9670   23.4380 C   0  0  0  0  0  0  0  0  0  0  0  0
  -26.5750  -34.8600   22.4040 O   0  0  0  0  0  0  0  0  0  0  0  0
  -24.9950  -34.0740   25.0070 H   0  0  0  0  0  0  0  0  0  0  0  0
  -24.1830  -36.7640   23.0890 C   0  0  0  0  0  1  0  0  0  0  0  0
  -25.4280  -36.3590   23.8950 C   0  0  0  0  0  3  0  0  0  0  0  0
  -27.5700  -37.2420   24.7100 C   0  0  0  0  0  1  0  0  0  0  0  0
  -26.4620  -37.4100   23.7720 N   0  0  0  0  0  0  0  0  0  0  0  0
  -26.0590  -38.3310   23.9160 H   0  0  0  0  0  0  0  0  0  0  0  0
  -26.3960  -31.7430   25.1490 C   0  0  1  0  0  0  0  0  0  0  0  0
  -25.3000  -31.5140   26.2170 C   0  0  0  0  0  1  0  0  0  0  0  0
  -26.9740  -30.3640   24.7610 C   0  0  0  0  0  1  0  0  0  0  0  0
  -27.5510  -32.5310   25.8080 C   0  0  0  0  0  1  0  0  0  0  0  0
  1  3  2  0
  2 51  1  0
  2  1  1  0
  4  2  1  0
  5  7  1  0
  5  6  1  0
  6  8  1  0
  6  1  1  0
  7  8  1  0
  7  9  1  0
  8 12  1  0
 11  9  1  0
 11 10  1  0
 12 21  1  0
 13 21  1  0
 14 19  1  0
 15 16  1  0
 15 14  1  0
 17 16  1  0
 17 26  1  0
 17 18  1  0
 19 13  1  0
 19 18  1  0
 20 13  2  0
 21 22  1  0
 23 24  2  0
 24 43  1  0
 25 24  1  0
 25 28  1  0
 26 23  1  0
 26 27  1  0
 27 25  2  0
 28 29  1  0
 29 30  2  0
 31 34  1  0
 31 30  1  0
 32 31  2  0
 33 32  1  0
 33 28  2  0
 34 35  1  0
 35 36  1  0
 36 37  2  0
 38 37  1  0
 38 42  1  0
 39 38  2  0
 40 35  2  0
 40 39  1  0
 41 40  1  0
 43 44  1  0
 44 47  1  0
 44 46  1  0
 45 43  2  0
 48 49  1  0
 48 23  1  0
 50 48  1  0
 52 53  1  0
 52 51  2  0
 54 65  2  0
 55 53  1  0
 55 60  1  0
 56 64  1  0
 56 66  1  0
 57 63  1  0
 57 59  1  0
 58 64  1  0
 59 60  2  0
 59 58  1  0
 61 62  1  0
 61 55  2  0
 62 57  2  0
 63 56  1  0
 64 54  1  0
 66 68  2  0
 67 66  1  0
 69 67  1  0
 70 79  2  0
 70 75  1  0
 71 67  1  0
 71 75  1  0
 72 71  1  0
 73 74  1  0
 73 72  1  0
 74 70  1  0
 75 76  2  0
 76 77  1  0
 78 77  2  0
 79 78  1  0
 80 54  1  0
 80 81  1  0
 80 90  1  0
 81 84  1  0
 82 86  1  0
 82 81  1  0
 83 82  2  0
 86 85  1  0
 88 86  1  0
 88 89  1  0
 88 87  1  0
 90 93  1  1
 90 91  1  0
 92 90  1  0
M  ISO  4  13 100  21 100  52 101  53 101
M  END
>  <TORSDO>  (9) 
F 22

>  <SCORE>  (9) 
-13.410

>  <name>  (9) 
8

>  <ligand_id>  (9) 
8

>  <original_smiles>  (9) 
[H]c1c([H])c([H])c2c(c1[H])C([H])([H])C([H])([H])C([H])([H])C2([H])N([H])C(=O)C1([H])N(C(=O)C([H])(N([H])C(=O)C([H])(N([H])C([H])([H])[H])C([H])([H])[H])C(C([H])([H])[H])(C([H])([H])[H])C([H])([H])[H])C([H])([H])c2c([H])c(OC([H])([H])C([H])([H])N([H])C(=O)C3([H])C([H])([H])C([H])(C([H])([H])C([H])([H])C([H])([H])[H])C3([H])C([H])([H])N([H])C(=O)N3C([H])([H])C([H])([H])C([H])([H])C([H])(n4nc(-c5c([H])c([H])c(Oc6c([H])c([H])c(F)c([H])c6F)c([H])c5[H])c(C(=O)N([H])[H])c4N([H])[H])C3([H])[H])c([H])c([H])c2C1([H])[H]

>  <smiles>  (9) 
[H]c1c([H])c([H])c2c(c1[H])C([H])([H])C([H])([H])C([H])([H])C2([H])N([H])C(=O)C1([H])N(C(=O)C([H])(N([H])C(=O)C([H])(N([H])C([H])([H])[H])C([H])([H])[H])C(C([H])([H])[H])(C([H])([H])[H])C([H])([H])[H])C([H])([H])c2c([H])c(OC([H])([H])C([H])([H])N([H])C(=O)C3([H])C([H])([H])C([H])(C([H])([H])C([H])([H])C([H])([H])[H])C3([H])C([H])([H])N([H])C(=O)N3C([H])([H])C([H])([H])C([H])([H])C([H])(n4nc(-c5c([H])c([H])c(Oc6c([H])c([H])c(F)c([H])c6F)c([H])c5[H])c(C(=O)N([H])[H])c4N([H])[H])C3([H])[H])c([H])c([H])c2C1([H])[H]

$$$$
9:0:0
     RDKit          3D

 88 95  0  0  1  0  0  0  0  0999 V2000
  -28.9110  -21.2120   20.0080 C   0  0  0  0  0  0  0  0  0  0  0  0
  -28.9910  -22.4940   20.5120 N   0  0  0  0  0  0  0  0  0  0  0  0
  -28.3240  -21.0030   18.9460 O   0  0  0  0  0  0  0  0  0  0  0  0
  -29.4620  -22.5830   21.4030 H   0  0  0  0  0  0  0  0  0  0  0  0
  -29.6120  -19.9780   20.7310 C   0  0  0  0  0  2  0  0  0  0  0  0
  -29.2490  -18.4560   20.3270 C   0  0  0  0  0  3  0  0  0  0  0  0
  -30.2460  -17.2720   20.7760 C   0  0  0  0  0  3  0  0  0  0  0  0
  -30.5860  -14.7030   20.3810 C   0  0  0  0  0  0  0  0  0  0  0  0
  -30.3730  -12.4530   19.3310 C   0  0  0  0  0  2  0  0  0  0  0  0
  -29.4250  -12.5500   18.1160 C   0  0  0  0  0  2  0  0  0  0  0  0
  -27.9570  -12.3790   18.5550 C   0  0  0  0  0  2  0  0  0  0  0  0
  -27.5940  -13.2540   19.7850 C   0  0  0  0  0  3  0  0  0  0  0  0
  -28.6580  -13.1390   20.8970 C   0  0  0  0  0  2  0  0  0  0  0  0
  -29.9530  -13.4870   20.3000 N   0  0  0  0  0  0  0  0  0  0  0  0
  -31.7690  -14.8170   20.0500 O   0  0  0  0  0  0  0  0  0  0  0  0
  -29.8170  -15.8180   20.6470 N   0  0  0  0  0  0  0  0  0  0  0  0
  -28.8460  -15.6250   20.8430 H   0  0  0  0  0  0  0  0  0  0  0  0
  -25.2050  -13.8410   20.5180 C   0  0  0  0  0  0  0  0  0  0  0  0
  -24.1440  -13.0630   20.8930 C   0  0  0  0  0  0  0  0  0  0  0  0
  -24.6120  -11.7130   20.8640 C   0  0  0  0  0  0  0  0  0  0  0  0
  -26.2510  -12.9640   20.2800 N   0  0  0  0  0  0  0  0  0  0  0  0
  -25.9010  -11.6800   20.5510 N   0  0  0  0  0  0  0  0  0  0  0  0
  -23.8910  -10.4480   21.0570 C   0  0  0  0  0  0  0  0  0  0  0  0
  -24.3380   -9.4770   21.9800 C   0  0  0  0  0  3  0  0  0  0  0  0
  -23.6170   -8.2770   22.1610 C   0  0  0  0  0  3  0  0  0  0  0  0
  -22.4340   -8.0410   21.4210 C   0  0  0  0  0  0  0  0  0  0  0  0
  -22.0070   -9.0010   20.4870 C   0  0  0  0  0  3  0  0  0  0  0  0
  -22.7290  -10.1920   20.3030 C   0  0  0  0  0  3  0  0  0  0  0  0
  -21.6840   -6.8940   21.5130 O   0  0  0  0  0  0  0  0  0  0  0  0
  -21.6620   -6.1370   22.6570 C   0  0  0  0  0  0  0  0  0  0  0  0
  -21.2710   -6.6800   23.9010 C   0  0  0  0  0  3  0  0  0  0  0  0
  -21.1970   -5.8500   25.0390 C   0  0  0  0  0  3  0  0  0  0  0  0
  -21.5010   -4.4800   24.9330 C   0  0  0  0  0  0  0  0  0  0  0  0
  -21.8850   -3.9370   23.6940 C   0  0  0  0  0  3  0  0  0  0  0  0
  -21.9620   -4.7640   22.5580 C   0  0  0  0  0  0  0  0  0  0  0  0
  -22.3110   -4.2320   21.3620 F   0  0  0  0  0  0  0  0  0  0  0  0
  -21.4220   -3.6820   26.0220 F   0  0  0  0  0  0  0  0  0  0  0  0
  -22.7450  -13.5350   21.1670 C   0  0  0  0  0  0  0  0  0  0  0  0
  -22.0210  -12.8380   22.0360 N   0  0  0  0  0  0  0  0  0  0  0  0
  -22.3030  -14.5570   20.6440 O   0  0  0  0  0  0  0  0  0  0  0  0
  -22.3920  -12.0110   22.4800 H   0  0  0  0  0  0  0  0  0  0  0  0
  -21.0830  -13.1360   22.2610 H   0  0  0  0  0  0  0  0  0  0  0  0
  -25.3610  -15.2110   20.3360 N   0  0  0  0  0  0  0  0  0  0  0  0
  -24.5870  -15.8580   20.4410 H   0  0  0  0  0  0  0  0  0  0  0  0
  -26.1950  -15.6520   19.9690 H   0  0  0  0  0  0  0  0  0  0  0  0
  -28.6520  -23.8120   19.8260 C   0  0  0  0  0  2  0  0  0  0  0  0
  -28.2250  -25.0760   20.7210 C   0  0  0  0  0  2  0  0  0  0  0  0
  -28.3520  -26.4670   20.2010 O   0  0  0  0  0  0  0  0  0  0  0  0
  -24.6120  -31.8750   23.2380 C   0  0  0  0  0  0  0  0  0  0  0  0
  -27.2280  -27.3070   20.2010 C   0  0  0  0  0  0  0  0  0  0  0  0
  -23.4080  -30.4700   21.6010 C   0  0  0  0  0  3  0  0  0  0  0  0
  -24.8600  -28.9120   20.1820 C   0  0  0  0  0  0  0  0  0  0  0  0
  -25.9460  -30.7940   21.4120 C   0  0  0  0  0  2  0  0  0  0  0  0
  -26.0290  -29.4120   20.7710 C   0  0  0  0  0  0  0  0  0  0  0  0
  -27.2190  -28.6220   20.7640 C   0  0  0  0  0  3  0  0  0  0  0  0
  -26.0390  -26.8570   19.5930 C   0  0  0  0  0  3  0  0  0  0  0  0
  -24.8670  -27.6410   19.5820 C   0  0  0  0  0  3  0  0  0  0  0  0
  -23.6220  -29.7860   20.2250 C   0  0  0  0  0  2  0  0  0  0  0  0
  -24.6740  -31.0650   22.1400 N   0  0  0  0  0  0  0  0  0  0  0  0
  -23.5290  -32.1520   23.7730 O   0  0  0  0  0  0  0  0  0  0  0  0
  -22.7480  -29.4570   22.5660 C   0  0  0  0  0  0  0  0  0  0  0  0
  -21.4210  -29.2800   22.4420 N   0  0  0  0  0  0  0  0  0  0  0  0
  -23.4280  -28.8330   23.3840 O   0  0  0  0  0  0  0  0  0  0  0  0
  -20.9310  -29.8350   21.7560 H   0  0  0  0  0  0  0  0  0  0  0  0
  -18.0460  -28.0820   22.9480 C   0  0  0  0  0  0  0  0  0  0  0  0
  -20.6040  -28.3440   23.2160 C   0  0  0  0  0  3  0  0  0  0  0  0
  -20.7080  -26.9110   22.6450 C   0  0  0  0  0  2  0  0  0  0  0  0
  -19.6050  -26.5840   21.6320 C   0  0  0  0  0  2  0  0  0  0  0  0
  -18.2240  -26.7300   22.2760 C   0  0  0  0  0  2  0  0  0  0  0  0
  -19.1640  -28.8460   23.3750 C   0  0  0  0  0  0  0  0  0  0  0  0
  -18.9430  -30.1100   23.9640 C   0  0  0  0  0  3  0  0  0  0  0  0
  -17.6380  -30.6100   24.1280 C   0  0  0  0  0  3  0  0  0  0  0  0
  -16.5340  -29.8430   23.7170 C   0  0  0  0  0  3  0  0  0  0  0  0
  -16.7390  -28.5800   23.1320 C   0  0  0  0  0  3  0  0  0  0  0  0
  -25.8940  -32.5120   23.8580 C   0  0  0  0  0  3  0  0  0  0  0  0
  -25.5820  -33.9100   24.1870 N   0  0  0  0  0  0  0  0  0  0  0  0
  -25.9130  -34.9640   23.4290 C   0  0  0  0  0  0  0  0  0  0  0  0
  -26.5820  -34.8600   22.3970 O   0  0  0  0  0  0  0  0  0  0  0  0
  -24.9880  -34.0630   24.9890 H   0  0  0  0  0  0  0  0  0  0  0  0
  -24.1820  -36.7550   23.0770 C   0  0  0  0  0  1  0  0  0  0  0  0
  -25.4260  -36.3520   23.8870 C   0  0  0  0  0  3  0  0  0  0  0  0
  -27.5610  -37.2380   24.7130 C   0  0  0  0  0  1  0  0  0  0  0  0
  -26.4560  -37.4050   23.7710 N   0  0  0  0  0  0  0  0  0  0  0  0
  -26.0500  -38.3260   23.9190 H   0  0  0  0  0  0  0  0  0  0  0  0
  -26.4130  -31.7430   25.1360 C   0  0  1  0  0  0  0  0  0  0  0  0
  -25.3210  -31.5090   26.2060 C   0  0  0  0  0  1  0  0  0  0  0  0
  -26.9940  -30.3640   24.7470 C   0  0  0  0  0  1  0  0  0  0  0  0
  -27.5640  -32.5390   25.7940 C   0  0  0  0  0  1  0  0  0  0  0  0
  1  2  1  0
  1  5  1  0
  2  4  1  0
  3  1  2  0
  6  5  1  0
  6  7  2  0
  8 16  1  0
  9 14  1  0
 10 11  1  0
 10  9  1  0
 12 11  1  0
 12 21  1  0
 12 13  1  0
 14  8  1  0
 14 13  1  0
 15  8  2  0
 16  7  1  0
 16 17  1  0
 18 19  2  0
 19 38  1  0
 20 19  1  0
 20 23  1  0
 21 18  1  0
 21 22  1  0
 22 20  2  0
 23 24  1  0
 24 25  2  0
 26 29  1  0
 26 25  1  0
 27 26  2  0
 28 27  1  0
 28 23  2  0
 29 30  1  0
 30 31  1  0
 31 32  2  0
 33 32  1  0
 33 37  1  0
 34 33  2  0
 35 30  2  0
 35 34  1  0
 36 35  1  0
 38 39  1  0
 39 42  1  0
 39 41  1  0
 40 38  2  0
 43 44  1  0
 43 18  1  0
 45 43  1  0
 46  2  1  0
 46 47  1  0
 48 47  1  0
 49 60  2  0
 50 48  1  0
 50 55  1  0
 51 59  1  0
 51 61  1  0
 52 58  1  0
 52 54  1  0
 53 59  1  0
 54 53  1  0
 55 54  2  0
 56 50  2  0
 57 56  1  0
 57 52  2  0
 58 51  1  0
 59 49  1  0
 61 63  2  0
 62 61  1  0
 64 62  1  0
 65 74  2  0
 65 70  1  0
 66 62  1  0
 66 70  1  0
 67 66  1  0
 68 69  1  0
 68 67  1  0
 69 65  1  0
 70 71  2  0
 71 72  1  0
 73 72  2  0
 74 73  1  0
 75 49  1  0
 75 76  1  0
 75 85  1  0
 76 79  1  0
 77 81  1  0
 77 76  1  0
 78 77  2  0
 81 80  1  0
 83 81  1  0
 83 84  1  0
 83 82  1  0
 85 88  1  1
 85 86  1  0
 87 85  1  0
M  ISO  4   8 100  16 100  47 101  48 101
M  END
>  <TORSDO>  (10) 
F 21

>  <SCORE>  (10) 
-13.303

>  <name>  (10) 
9

>  <ligand_id>  (10) 
9

>  <original_smiles>  (10) 
[H]c1c([H])c([H])c2c(c1[H])C([H])([H])C([H])([H])C([H])([H])C2([H])N([H])C(=O)C1([H])N(C(=O)C([H])(N([H])C(=O)C([H])(N([H])C([H])([H])[H])C([H])([H])[H])C(C([H])([H])[H])(C([H])([H])[H])C([H])([H])[H])C([H])([H])c2c([H])c(OC([H])([H])C([H])([H])N([H])C(=O)C([H])([H])C([H])([H])C([H])([H])N([H])C(=O)N3C([H])([H])C([H])([H])C([H])([H])C([H])(n4nc(-c5c([H])c([H])c(Oc6c([H])c([H])c(F)c([H])c6F)c([H])c5[H])c(C(=O)N([H])[H])c4N([H])[H])C3([H])[H])c([H])c([H])c2C1([H])[H]

>  <smiles>  (10) 
[H]c1c([H])c([H])c2c(c1[H])C([H])([H])C([H])([H])C([H])([H])C2([H])N([H])C(=O)C1([H])N(C(=O)C([H])(N([H])C(=O)C([H])(N([H])C([H])([H])[H])C([H])([H])[H])C(C([H])([H])[H])(C([H])([H])[H])C([H])([H])[H])C([H])([H])c2c([H])c(OC([H])([H])C([H])([H])N([H])C(=O)C([H])([H])C([H])([H])C([H])([H])N([H])C(=O)N3C([H])([H])C([H])([H])C([H])([H])C([H])(n4nc(-c5c([H])c([H])c(Oc6c([H])c([H])c(F)c([H])c6F)c([H])c5[H])c(C(=O)N([H])[H])c4N([H])[H])C3([H])[H])c([H])c([H])c2C1([H])[H]

$$$$
10:0:0
     RDKit          3D

 96104  0  0  1  0  0  0  0  0999 V2000
  -28.5440  -21.5240   23.2520 C   0  0  0  0  0  1  0  0  0  0  0  0
  -29.3310  -22.2590   22.1260 C   0  0  0  0  0  3  0  0  0  0  0  0
  -29.5100  -21.2890   20.9020 C   0  0  0  0  0  2  0  0  0  0  0  0
  -30.3730  -20.0100   21.1940 C   0  0  0  0  0  0  0  0  0  0  0  0
  -31.3630  -20.1220   21.9230 O   0  0  0  0  0  0  0  0  0  0  0  0
  -29.1000  -18.6100   19.5130 C   0  0  0  0  0  3  0  0  0  0  0  0
  -28.9210  -17.4090   18.8110 C   0  0  0  0  0  3  0  0  0  0  0  0
  -30.6610  -17.4550   21.0000 C   0  0  0  0  0  3  0  0  0  0  0  0
  -30.0230  -18.6740   20.5770 C   0  0  0  0  0  0  0  0  0  0  0  0
  -30.4390  -16.2080   20.3380 C   0  0  0  0  0  0  0  0  0  0  0  0
  -29.6280  -16.2550   19.1730 C   0  0  0  0  0  0  0  0  0  0  0  0
  -29.5290  -15.2020   18.3410 F   0  0  0  0  0  0  0  0  0  0  0  0
  -31.2130  -14.9230   20.6810 C   0  0  0  0  0  0  0  0  0  0  0  0
  -31.0350  -12.5740   19.9480 C   0  0  0  0  0  2  0  0  0  0  0  0
  -30.1900  -12.4840   18.6580 C   0  0  0  0  0  2  0  0  0  0  0  0
  -28.6720  -12.4990   18.9530 C   0  0  0  0  0  2  0  0  0  0  0  0
  -28.2280  -13.4800   20.0740 C   0  0  0  0  0  3  0  0  0  0  0  0
  -29.2100  -13.4990   21.2600 C   0  0  0  0  0  2  0  0  0  0  0  0
  -30.5600  -13.7260   20.7340 N   0  0  0  0  0  0  0  0  0  0  0  0
  -32.4420  -14.9850   20.6020 O   0  0  0  0  0  0  0  0  0  0  0  0
  -25.8360  -14.1900   20.6720 C   0  0  0  0  0  0  0  0  0  0  0  0
  -24.7180  -13.4620   20.9730 C   0  0  0  0  0  0  0  0  0  0  0  0
  -25.1260  -12.0940   20.9620 C   0  0  0  0  0  0  0  0  0  0  0  0
  -26.8520  -13.2620   20.4940 N   0  0  0  0  0  0  0  0  0  0  0  0
  -26.4280  -11.9990   20.7350 N   0  0  0  0  0  0  0  0  0  0  0  0
  -24.3440  -10.8620   21.0970 C   0  0  0  0  0  0  0  0  0  0  0  0
  -24.6920   -9.8720   22.0410 C   0  0  0  0  0  3  0  0  0  0  0  0
  -23.9190   -8.6970   22.1650 C   0  0  0  0  0  3  0  0  0  0  0  0
  -22.7850   -8.5070   21.3400 C   0  0  0  0  0  0  0  0  0  0  0  0
  -22.4570   -9.4850   20.3850 C   0  0  0  0  0  3  0  0  0  0  0  0
  -23.2300  -10.6510   20.2590 C   0  0  0  0  0  3  0  0  0  0  0  0
  -21.9860   -7.3910   21.3790 O   0  0  0  0  0  0  0  0  0  0  0  0
  -21.8420   -6.6450   22.5210 C   0  0  0  0  0  0  0  0  0  0  0  0
  -21.3160   -7.1950   23.7100 C   0  0  0  0  0  3  0  0  0  0  0  0
  -21.1240   -6.3730   24.8390 C   0  0  0  0  0  3  0  0  0  0  0  0
  -21.4430   -5.0040   24.7770 C   0  0  0  0  0  0  0  0  0  0  0  0
  -21.9610   -4.4540   23.5920 C   0  0  0  0  0  3  0  0  0  0  0  0
  -22.1570   -5.2730   22.4650 C   0  0  0  0  0  0  0  0  0  0  0  0
  -22.6340   -4.7310   21.3180 F   0  0  0  0  0  0  0  0  0  0  0  0
  -21.2500   -4.2150   25.8590 F   0  0  0  0  0  0  0  0  0  0  0  0
  -23.3280  -13.9930   21.1640 C   0  0  0  0  0  0  0  0  0  0  0  0
  -22.5220  -13.3240   21.9830 N   0  0  0  0  0  0  0  0  0  0  0  0
  -22.9600  -15.0370   20.6250 O   0  0  0  0  0  0  0  0  0  0  0  0
  -22.8290  -12.4800   22.4430 H   0  0  0  0  0  0  0  0  0  0  0  0
  -21.5820  -13.6590   22.1490 H   0  0  0  0  0  0  0  0  0  0  0  0
  -26.0690  -15.5540   20.5160 N   0  0  0  0  0  0  0  0  0  0  0  0
  -25.3370  -16.2490   20.6030 H   0  0  0  0  0  0  0  0  0  0  0  0
  -26.9690  -15.9520   20.2820 H   0  0  0  0  0  0  0  0  0  0  0  0
  -28.6720  -23.6830   21.9010 C   0  0  0  0  0  3  0  0  0  0  0  0
  -28.8560  -24.4500   23.1570 N   0  0  0  0  0  4  0  0  0  0  0  0
  -29.8120  -24.7410   23.2800 H   0  0  0  0  0  0  0  0  0  0  0  0
  -28.6210  -23.8540   23.9300 H   0  0  0  0  0  0  0  0  0  0  0  0
  -28.2520  -25.2530   23.2110 H   0  0  0  0  0  0  0  0  0  0  0  0
  -29.1000  -24.5470   20.6490 C   0  0  0  0  0  2  0  0  0  0  0  0
  -28.9420  -26.1050   20.8180 C   0  0  0  0  0  2  0  0  0  0  0  0
  -28.7310  -26.8930   19.6270 O   0  0  0  0  0  0  0  0  0  0  0  0
  -24.6860  -31.6930   23.0370 C   0  0  0  0  0  0  0  0  0  0  0  0
  -27.5570  -27.6210   19.6550 C   0  0  0  0  0  0  0  0  0  0  0  0
  -23.5480  -30.3250   21.3190 C   0  0  0  0  0  3  0  0  0  0  0  0
  -25.0780  -28.9750   19.7840 C   0  0  0  0  0  0  0  0  0  0  0  0
  -26.0460  -30.8570   21.1160 C   0  0  0  0  0  2  0  0  0  0  0  0
  -26.2090  -29.5360   20.3890 C   0  0  0  0  0  0  0  0  0  0  0  0
  -27.4570  -28.8640   20.3270 C   0  0  0  0  0  3  0  0  0  0  0  0
  -26.4090  -27.0770   19.0420 C   0  0  0  0  0  3  0  0  0  0  0  0
  -25.1710  -27.7460   19.1070 C   0  0  0  0  0  3  0  0  0  0  0  0
  -23.7790  -29.7470   19.8980 C   0  0  0  0  0  2  0  0  0  0  0  0
  -24.7780  -30.9710   21.8820 N   0  0  0  0  0  0  0  0  0  0  0  0
  -23.5980  -31.8540   23.6080 O   0  0  0  0  0  0  0  0  0  0  0  0
  -22.9770  -29.2060   22.2200 C   0  0  0  0  0  0  0  0  0  0  0  0
  -21.6600  -28.9600   22.1130 N   0  0  0  0  0  0  0  0  0  0  0  0
  -23.7130  -28.5600   22.9710 O   0  0  0  0  0  0  0  0  0  0  0  0
  -21.1220  -29.5310   21.4750 H   0  0  0  0  0  0  0  0  0  0  0  0
  -18.3640  -27.5730   22.6210 C   0  0  0  0  0  0  0  0  0  0  0  0
  -20.9150  -27.9290   22.8330 C   0  0  0  0  0  3  0  0  0  0  0  0
  -21.0650  -26.5520   22.1450 C   0  0  0  0  0  2  0  0  0  0  0  0
  -19.9450  -26.2560   21.1420 C   0  0  0  0  0  2  0  0  0  0  0  0
  -18.5790  -26.2910   21.8360 C   0  0  0  0  0  2  0  0  0  0  0  0
  -19.4610  -28.3520   23.0750 C   0  0  0  0  0  0  0  0  0  0  0  0
  -19.2050  -29.5560   23.7660 C   0  0  0  0  0  3  0  0  0  0  0  0
  -17.8840  -29.9810   24.0100 C   0  0  0  0  0  3  0  0  0  0  0  0
  -16.8030  -29.1960   23.5710 C   0  0  0  0  0  3  0  0  0  0  0  0
  -17.0420  -27.9950   22.8810 C   0  0  0  0  0  3  0  0  0  0  0  0
  -25.9380  -32.3650   23.6840 C   0  0  0  0  0  3  0  0  0  0  0  0
  -26.5220  -31.5550   24.9070 C   0  0  1  0  0  0  0  0  0  0  0  0
  -25.4610  -31.1960   25.9730 C   0  0  0  0  0  1  0  0  0  0  0  0
  -27.1760  -30.2400   24.4250 C   0  0  0  0  0  1  0  0  0  0  0  0
  -27.6360  -32.3750   25.6000 C   0  0  0  0  0  1  0  0  0  0  0  0
  -25.5470  -33.7180   24.0990 N   0  0  0  0  0  0  0  0  0  0  0  0
  -25.8110  -34.8340   23.4030 C   0  0  0  0  0  0  0  0  0  0  0  0
  -26.4810  -34.8340   22.3640 O   0  0  0  0  0  0  0  0  0  0  0  0
  -24.9530  -33.7900   24.9120 H   0  0  0  0  0  0  0  0  0  0  0  0
  -23.9740  -36.5350   23.1620 C   0  0  0  0  0  1  0  0  0  0  0  0
  -25.2430  -36.1580   23.9450 C   0  0  0  0  0  3  0  0  0  0  0  0
  -27.3190  -37.1250   24.8310 C   0  0  0  0  0  1  0  0  0  0  0  0
  -26.2090  -37.2770   23.8950 N   0  0  0  0  0  0  0  0  0  0  0  0
  -25.7440  -38.1580   24.0960 H   0  0  0  0  0  0  0  0  0  0  0  0
  2  1  1  0
  3  4  1  0
  3  2  1  0
  4  5  2  0
  6  9  1  0
  7 11  1  0
  7  6  2  0
  9  8  2  0
  9  4  1  0
 10 13  1  0
 10  8  1  0
 11 10  2  0
 12 11  1  0
 13 19  1  0
 14 19  1  0
 15 16  1  0
 15 14  1  0
 17 16  1  0
 17 24  1  0
 17 18  1  0
 19 18  1  0
 20 13  2  0
 21 22  2  0
 22 41  1  0
 23 22  1  0
 23 26  1  0
 24 21  1  0
 24 25  1  0
 25 23  2  0
 26 27  1  0
 27 28  2  0
 29 32  1  0
 29 28  1  0
 30 29  2  0
 31 30  1  0
 31 26  2  0
 32 33  1  0
 33 34  1  0
 34 35  2  0
 36 35  1  0
 36 40  1  0
 37 36  2  0
 38 33  2  0
 38 37  1  0
 39 38  1  0
 41 42  1  0
 42 45  1  0
 42 44  1  0
 43 41  2  0
 46 47  1  0
 46 21  1  0
 48 46  1  0
 49 54  1  0
 49  2  1  0
 49 50  1  0
 50 53  1  0
 50 51  1  0
 50 52  1  0
 54 55  1  0
 56 58  1  0
 56 55  1  0
 57 68  2  0
 58 63  1  0
 59 67  1  0
 59 69  1  0
 60 66  1  0
 60 62  1  0
 61 67  1  0
 62 61  1  0
 63 62  2  0
 64 65  1  0
 64 58  2  0
 65 60  2  0
 66 59  1  0
 67 57  1  0
 69 71  2  0
 70 69  1  0
 72 70  1  0
 73 82  2  0
 73 78  1  0
 74 70  1  0
 74 78  1  0
 75 74  1  0
 76 77  1  0
 76 75  1  0
 77 73  1  0
 78 79  2  0
 79 80  1  0
 81 80  2  0
 82 81  1  0
 83 57  1  0
 83 88  1  0
 83 84  1  0
 84 87  1  1
 84 85  1  0
 86 84  1  0
 88 91  1  0
 89 93  1  0
 89 88  1  0
 90 89  2  0
 93 92  1  0
 95 93  1  0
 95 96  1  0
 95 94  1  0
M  ISO  4  10 100  13 100  55 101  56 101
M  END
>  <TORSDO>  (11) 
F 23

>  <SCORE>  (11) 
-10.198

>  <name>  (11) 
10

>  <ligand_id>  (11) 
10

>  <original_smiles>  (11) 
[H]c1c([H])c([H])c2c(c1[H])C([H])([H])C([H])([H])C([H])([H])C2([H])N([H])C(=O)C1([H])N(C(=O)C([H])(N([H])C(=O)C([H])(N([H])C([H])([H])[H])C([H])([H])[H])C(C([H])([H])[H])(C([H])([H])[H])C([H])([H])[H])C([H])([H])c2c([H])c(OC([H])([H])C([H])([H])C([H])(C([H])(C([H])([H])[H])C([H])([H])C(=O)c3c([H])c([H])c(F)c(C(=O)N4C([H])([H])C([H])([H])C([H])([H])C([H])(n5nc(-c6c([H])c([H])c(Oc7c([H])c([H])c(F)c([H])c7F)c([H])c6[H])c(C(=O)N([H])[H])c5N([H])[H])C4([H])[H])c3[H])[N+]([H])([H])[H])c([H])c([H])c2C1([H])[H]

>  <smiles>  (11) 
[H]c1c([H])c([H])c2c(c1[H])C([H])([H])C([H])([H])C([H])([H])C2([H])N([H])C(=O)C1([H])N(C(=O)C([H])(N([H])C(=O)C([H])(N([H])C([H])([H])[H])C([H])([H])[H])C(C([H])([H])[H])(C([H])([H])[H])C([H])([H])[H])C([H])([H])c2c([H])c(OC([H])([H])C([H])([H])C([H])(C([H])(C([H])([H])[H])C([H])([H])C(=O)c3c([H])c([H])c(F)c(C(=O)N4C([H])([H])C([H])([H])C([H])([H])C([H])(n5nc(-c6c([H])c([H])c(Oc7c([H])c([H])c(F)c([H])c7F)c([H])c6[H])c(C(=O)N([H])[H])c5N([H])[H])C4([H])[H])c3[H])[N+]([H])([H])[H])c([H])c([H])c2C1([H])[H]

$$$$
11:0:0
     RDKit          3D

 99107  0  0  1  0  0  0  0  0999 V2000
  -26.3630  -24.7940   21.6030 C   0  0  0  0  0  2  0  0  0  0  0  0
  -28.2390  -23.4080   20.5650 C   0  0  0  0  0  2  0  0  0  0  0  0
  -25.7210  -23.3940   21.5950 C   0  0  0  0  0  2  0  0  0  0  0  0
  -27.1720  -22.6530   19.7020 C   0  0  0  0  0  3  0  0  0  0  0  0
  -27.7170  -24.8360   20.8410 C   0  0  0  0  0  3  0  0  0  0  0  0
  -25.7840  -22.7970   20.2390 N   0  0  2  0  0  4  0  0  0  0  0  0
  -25.5630  -21.8080   20.3360 H   0  0  0  0  0  0  0  0  0  0  0  0
  -27.4090  -21.1400   19.5410 C   0  0  0  0  0  0  0  0  0  0  0  0
  -28.5970  -20.7140   19.0870 N   0  0  0  0  0  0  0  0  0  0  0  0
  -26.4670  -20.3760   19.7700 O   0  0  0  0  0  0  0  0  0  0  0  0
  -29.3000  -21.4290   18.9360 H   0  0  0  0  0  0  0  0  0  0  0  0
  -28.9180  -19.3880   18.5400 C   0  0  0  0  0  2  0  0  0  0  0  0
  -28.6460  -18.1610   19.4480 C   0  0  0  0  0  2  0  0  0  0  0  0
  -29.4610  -18.1040   20.7540 C   0  0  0  0  0  2  0  0  0  0  0  0
  -30.7000  -17.1910   20.6750 C   0  0  0  0  0  2  0  0  0  0  0  0
  -30.9830  -14.7570   20.2040 C   0  0  0  0  0  0  0  0  0  0  0  0
  -30.6680  -12.5190   19.2300 C   0  0  0  0  0  2  0  0  0  0  0  0
  -29.7140  -12.6240   18.0230 C   0  0  0  0  0  2  0  0  0  0  0  0
  -28.2460  -12.5130   18.4800 C   0  0  0  0  0  2  0  0  0  0  0  0
  -27.9140  -13.4560   19.6660 C   0  0  0  0  0  3  0  0  0  0  0  0
  -28.9810  -13.3320   20.7760 C   0  0  0  0  0  2  0  0  0  0  0  0
  -30.3060  -13.5800   20.1790 N   0  0  0  0  0  0  0  0  0  0  0  0
  -32.0720  -14.9290   19.6480 O   0  0  0  0  0  0  0  0  0  0  0  0
  -30.3230  -15.7790   20.7650 N   0  0  0  0  0  0  0  0  0  0  0  0
  -29.4370  -15.5560   21.1940 H   0  0  0  0  0  0  0  0  0  0  0  0
  -25.5660  -14.1300   20.4770 C   0  0  0  0  0  0  0  0  0  0  0  0
  -24.4820  -13.3870   20.8590 C   0  0  0  0  0  0  0  0  0  0  0  0
  -24.8900  -12.0190   20.7670 C   0  0  0  0  0  0  0  0  0  0  0  0
  -26.5680  -13.2200   20.1800 N   0  0  0  0  0  0  0  0  0  0  0  0
  -26.1660  -11.9440   20.4110 N   0  0  0  0  0  0  0  0  0  0  0  0
  -24.1250  -10.7790   20.9440 C   0  0  0  0  0  0  0  0  0  0  0  0
  -24.5280   -9.7870   21.8630 C   0  0  0  0  0  3  0  0  0  0  0  0
  -23.7650   -8.6100   22.0260 C   0  0  0  0  0  3  0  0  0  0  0  0
  -22.5840   -8.4200   21.2700 C   0  0  0  0  0  0  0  0  0  0  0  0
  -22.1980   -9.4020   20.3400 C   0  0  0  0  0  3  0  0  0  0  0  0
  -22.9610  -10.5690   20.1750 C   0  0  0  0  0  3  0  0  0  0  0  0
  -21.7940   -7.2990   21.3440 O   0  0  0  0  0  0  0  0  0  0  0  0
  -21.6940   -6.5630   22.4980 C   0  0  0  0  0  0  0  0  0  0  0  0
  -21.2620   -7.1380   23.7140 C   0  0  0  0  0  3  0  0  0  0  0  0
  -21.1070   -6.3310   24.8580 C   0  0  0  0  0  3  0  0  0  0  0  0
  -21.3720   -4.9500   24.7880 C   0  0  0  0  0  0  0  0  0  0  0  0
  -21.7970   -4.3750   23.5780 C   0  0  0  0  0  3  0  0  0  0  0  0
  -21.9540   -5.1790   22.4360 C   0  0  0  0  0  0  0  0  0  0  0  0
  -22.3430   -4.6150   21.2660 F   0  0  0  0  0  0  0  0  0  0  0  0
  -21.2140   -4.1750   25.8840 F   0  0  0  0  0  0  0  0  0  0  0  0
  -23.1140  -13.9030   21.1990 C   0  0  0  0  0  0  0  0  0  0  0  0
  -22.3970  -13.2150   22.0790 N   0  0  0  0  0  0  0  0  0  0  0  0
  -22.6890  -14.9540   20.7150 O   0  0  0  0  0  0  0  0  0  0  0  0
  -22.7520  -12.3640   22.4890 H   0  0  0  0  0  0  0  0  0  0  0  0
  -21.4790  -13.5420   22.3480 H   0  0  0  0  0  0  0  0  0  0  0  0
  -25.7780  -15.5000   20.3410 N   0  0  0  0  0  0  0  0  0  0  0  0
  -25.0450  -16.1810   20.5100 H   0  0  0  0  0  0  0  0  0  0  0  0
  -26.6410  -15.9140   20.0180 H   0  0  0  0  0  0  0  0  0  0  0  0
  -28.7270  -25.8710   21.4260 C   0  0  0  0  0  2  0  0  0  0  0  0
  -28.7940  -27.1110   20.6990 O   0  0  0  0  0  0  0  0  0  0  0  0
  -24.6990  -32.1460   23.6450 C   0  0  0  0  0  0  0  0  0  0  0  0
  -27.6290  -27.8410   20.6510 C   0  0  0  0  0  0  0  0  0  0  0  0
  -23.6380  -30.7560   21.8970 C   0  0  0  0  0  3  0  0  0  0  0  0
  -25.2150  -29.2940   20.5390 C   0  0  0  0  0  0  0  0  0  0  0  0
  -26.1630  -31.1720   21.8830 C   0  0  0  0  0  2  0  0  0  0  0  0
  -26.3170  -29.8190   21.2260 C   0  0  0  0  0  0  0  0  0  0  0  0
  -27.5250  -29.0910   21.2980 C   0  0  0  0  0  3  0  0  0  0  0  0
  -26.5320  -27.3680   19.8990 C   0  0  0  0  0  3  0  0  0  0  0  0
  -25.3130  -28.0620   19.8810 C   0  0  0  0  0  3  0  0  0  0  0  0
  -23.9530  -30.1240   20.5180 C   0  0  0  0  0  2  0  0  0  0  0  0
  -24.8470  -31.3700   22.5350 N   0  0  0  0  0  0  0  0  0  0  0  0
  -23.5770  -32.3810   24.1170 O   0  0  0  0  0  0  0  0  0  0  0  0
  -22.9510  -29.6940   22.7850 C   0  0  0  0  0  0  0  0  0  0  0  0
  -21.6420  -29.4830   22.5680 N   0  0  0  0  0  0  0  0  0  0  0  0
  -23.5940  -29.0590   23.6250 O   0  0  0  0  0  0  0  0  0  0  0  0
  -21.1770  -30.0510   21.8720 H   0  0  0  0  0  0  0  0  0  0  0  0
  -18.2640  -28.2430   22.8580 C   0  0  0  0  0  0  0  0  0  0  0  0
  -20.8010  -28.5110   23.2650 C   0  0  0  0  0  3  0  0  0  0  0  0
  -20.9440  -27.1010   22.6420 C   0  0  0  0  0  2  0  0  0  0  0  0
  -19.9010  -26.8140   21.5600 C   0  0  0  0  0  2  0  0  0  0  0  0
  -18.4880  -26.9240   22.1380 C   0  0  0  0  0  2  0  0  0  0  0  0
  -19.3510  -28.9960   23.3720 C   0  0  0  0  0  0  0  0  0  0  0  0
  -19.0940  -30.2360   23.9980 C   0  0  0  0  0  3  0  0  0  0  0  0
  -17.7790  -30.7220   24.1160 C   0  0  0  0  0  3  0  0  0  0  0  0
  -16.7030  -29.9640   23.6200 C   0  0  0  0  0  3  0  0  0  0  0  0
  -16.9450  -28.7280   22.9970 C   0  0  0  0  0  3  0  0  0  0  0  0
  -25.9260  -32.7890   24.3600 C   0  0  0  0  0  3  0  0  0  0  0  0
  -26.3270  -32.0520   25.6960 C   0  0  1  0  0  0  0  0  0  0  0  0
  -25.1390  -31.8190   26.6540 C   0  0  0  0  0  1  0  0  0  0  0  0
  -26.9650  -30.6760   25.3930 C   0  0  0  0  0  1  0  0  0  0  0  0
  -27.3970  -32.8760   26.4510 C   0  0  0  0  0  1  0  0  0  0  0  0
  -25.6000  -34.1960   24.6200 N   0  0  0  0  0  0  0  0  0  0  0  0
  -25.9890  -35.2210   23.8510 C   0  0  0  0  0  0  0  0  0  0  0  0
  -26.7340  -35.0830   22.8760 O   0  0  0  0  0  0  0  0  0  0  0  0
  -24.9470  -34.3800   25.3670 H   0  0  0  0  0  0  0  0  0  0  0  0
  -24.2920  -36.9950   23.3080 C   0  0  0  0  0  1  0  0  0  0  0  0
  -25.4720  -36.6230   24.2220 C   0  0  0  0  0  3  0  0  0  0  0  0
  -27.5440  -37.5370   25.1660 C   0  0  0  0  0  1  0  0  0  0  0  0
  -26.5100  -37.6740   24.1450 N   0  0  0  0  0  0  0  0  0  0  0  0
  -26.0960  -38.5980   24.2360 H   0  0  0  0  0  0  0  0  0  0  0  0
  -24.7730  -23.3250   19.2800 C   0  0  0  0  0  2  0  0  0  0  0  0
  -23.3750  -23.3950   19.9340 C   0  0  0  0  0  2  0  0  0  0  0  0
  -20.8890  -23.8090   19.7510 C   0  0  0  0  0  1  0  0  0  0  0  0
  -22.2370  -23.8670   19.0180 C   0  0  0  0  0  2  0  0  0  0  0  0
  2  5  1  0
  3  1  1  0
  4  8  1  0
  4  6  1  0
  4  2  1  0
  5 54  1  0
  5  1  1  0
  6  7  1  1
  6  3  1  0
  8 10  2  0
  9  8  1  0
 11  9  1  0
 12  9  1  0
 12 13  1  0
 13 14  1  0
 15 14  1  0
 15 24  1  0
 16 24  1  0
 17 22  1  0
 18 19  1  0
 18 17  1  0
 20 19  1  0
 20 29  1  0
 20 21  1  0
 22 16  1  0
 22 21  1  0
 23 16  2  0
 24 25  1  0
 26 27  2  0
 27 46  1  0
 28 27  1  0
 28 31  1  0
 29 30  1  0
 29 26  1  0
 30 28  2  0
 31 32  1  0
 32 33  2  0
 34 37  1  0
 34 33  1  0
 35 34  2  0
 36 35  1  0
 36 31  2  0
 37 38  1  0
 38 39  1  0
 39 40  2  0
 41 40  1  0
 41 45  1  0
 42 41  2  0
 43 38  2  0
 43 42  1  0
 44 43  1  0
 46 47  1  0
 47 50  1  0
 47 49  1  0
 48 46  2  0
 51 26  1  0
 51 52  1  0
 53 51  1  0
 55 54  1  0
 56 67  2  0
 57 55  1  0
 57 62  1  0
 58 66  1  0
 58 68  1  0
 59 61  1  0
 60 66  1  0
 61 62  2  0
 61 60  1  0
 63 57  2  0
 64 63  1  0
 64 59  2  0
 65 59  1  0
 65 58  1  0
 66 56  1  0
 68 70  2  0
 69 68  1  0
 71 69  1  0
 72 81  2  0
 72 77  1  0
 73 69  1  0
 73 77  1  0
 74 73  1  0
 75 76  1  0
 75 74  1  0
 76 72  1  0
 77 78  2  0
 78 79  1  0
 80 79  2  0
 81 80  1  0
 82 56  1  0
 82 87  1  0
 82 83  1  0
 83 86  1  1
 83 84  1  0
 85 83  1  0
 87 90  1  0
 88 92  1  0
 88 87  1  0
 89 88  2  0
 92 91  1  0
 94 92  1  0
 94 95  1  0
 94 93  1  0
 96 97  1  0
 96  6  1  0
 99 98  1  0
 99 97  1  0
M  ISO  4  16 100  24 100  54 101  55 101
M  END
>  <TORSDO>  (12) 
F 25

>  <SCORE>  (12) 
-11.403

>  <name>  (12) 
11

>  <ligand_id>  (12) 
11

>  <original_smiles>  (12) 
[H]c1c([H])c([H])c2c(c1[H])C([H])([H])C([H])([H])C([H])([H])C2([H])N([H])C(=O)C1([H])N(C(=O)C([H])(N([H])C(=O)C([H])(N([H])C([H])([H])[H])C([H])([H])[H])C(C([H])([H])[H])(C([H])([H])[H])C([H])([H])[H])C([H])([H])c2c([H])c(OC([H])([H])C3([H])C([H])([H])C([H])([H])[N+]([H])(C([H])([H])C([H])([H])C([H])([H])C([H])([H])[H])C([H])(C(=O)N([H])C([H])([H])C([H])([H])C([H])([H])C([H])([H])N([H])C(=O)N4C([H])([H])C([H])([H])C([H])([H])C([H])(n5nc(-c6c([H])c([H])c(Oc7c([H])c([H])c(F)c([H])c7F)c([H])c6[H])c(C(=O)N([H])[H])c5N([H])[H])C4([H])[H])C3([H])[H])c([H])c([H])c2C1([H])[H]

>  <smiles>  (12) 
[H]c1c([H])c([H])c2c(c1[H])C([H])([H])C([H])([H])C([H])([H])C2([H])N([H])C(=O)C1([H])N(C(=O)C([H])(N([H])C(=O)C([H])(N([H])C([H])([H])[H])C([H])([H])[H])C(C([H])([H])[H])(C([H])([H])[H])C([H])([H])[H])C([H])([H])c2c([H])c(OC([H])([H])C3([H])C([H])([H])C([H])([H])[N+]([H])(C([H])([H])C([H])([H])C([H])([H])C([H])([H])[H])C([H])(C(=O)N([H])C([H])([H])C([H])([H])C([H])([H])C([H])([H])N([H])C(=O)N4C([H])([H])C([H])([H])C([H])([H])C([H])(n5nc(-c6c([H])c([H])c(Oc7c([H])c([H])c(F)c([H])c7F)c([H])c6[H])c(C(=O)N([H])[H])c5N([H])[H])C4([H])[H])C3([H])[H])c([H])c([H])c2C1([H])[H]

$$$$
12:0:0
     RDKit          3D

 94 98  0  0  1  0  0  0  0  0999 V2000
  -25.9090  -18.0240   20.4780 C   0  0  0  0  0  3  0  0  0  0  0  0
  -28.2480  -18.5140   20.2920 C   0  0  0  0  0  2  0  0  0  0  0  0
  -26.6650  -16.5930   20.9020 C   0  0  0  0  0  0  0  0  0  0  0  0
  -26.9220  -19.2300   19.8700 C   0  0  0  0  0  3  0  0  0  0  0  0
  -28.0760  -16.9180   20.3210 C   0  0  0  0  0  3  0  0  0  0  0  0
  -29.2150  -16.2180   21.0870 C   0  0  0  0  0  1  0  0  0  0  0  0
  -26.2250  -15.1210   21.7380 C   0  0  0  0  0  0  0  0  0  0  0  0
  -26.3720  -13.6590   21.5970 N   0  0  0  0  0  2  0  0  0  0  0  0
  -25.6390  -15.3590   22.7960 O   0  0  0  0  0  0  0  0  0  0  0  0
  -26.0520  -13.2160   22.4470 H   0  0  0  0  0  0  0  0  0  0  0  0
  -27.0540  -11.3120   19.2790 C   0  0  0  0  0  1  0  0  0  0  0  0
  -28.6560  -10.5370   19.4480 C   0  0  0  0  0  2  0  0  0  0  0  0
  -31.1690  -12.3310   20.1790 C   0  0  2  0  0  0  0  0  0  0  0  0
  -31.9900  -11.2120   19.3050 C   0  0  0  0  0  1  0  0  0  0  0  0
  -30.9340  -11.7150   17.9050 C   0  0  0  0  0  1  0  0  0  0  0  0
  -29.5570  -12.7490   18.2410 C   0  0  0  0  0  2  0  0  0  0  0  0
  -29.1320  -13.4060   19.8670 C   0  0  0  0  0  2  0  0  0  0  0  0
  -30.1450  -12.9610   21.3000 C   0  0  0  0  0  1  0  0  0  0  0  0
  -31.3740  -11.7120   20.9370 N   0  0  0  0  0  2  0  0  0  0  0  0
  -32.2400  -13.1500   20.4290 O   0  0  0  0  0  1  0  0  0  0  0  0
  -30.0000  -11.0410   20.2440 N   0  0  0  0  0  0  0  0  0  0  0  0
  -30.2390  -10.4230   21.0030 H   0  0  0  0  0  0  0  0  0  0  0  0
  -26.4570  -13.3860   19.3670 C   0  0  0  0  0  0  0  0  0  0  0  0
  -25.2210  -12.4630   19.8960 C   0  0  0  0  0  3  0  0  0  0  0  0
  -25.6900  -11.4080   21.1270 C   0  0  0  0  0  3  0  0  0  0  0  0
  -27.8900  -13.0270   20.2910 N   0  0  0  0  0  2  0  0  0  0  0  0
  -27.3440  -11.6930   21.5300 N   0  0  0  0  0  1  0  0  0  0  0  0
  -24.9550  -10.0680   21.1560 C   0  0  0  0  0  0  0  0  0  0  0  0
  -25.2260   -9.0990   22.1340 C   0  0  0  0  0  3  0  0  0  0  0  0
  -24.4630   -7.9120   22.2260 C   0  0  0  0  0  3  0  0  0  0  0  0
  -23.4050   -7.6440   21.3250 C   0  0  0  0  0  0  0  0  0  0  0  0
  -23.2040   -8.5300   20.2550 C   0  0  0  0  0  3  0  0  0  0  0  0
  -23.9840   -9.7040   20.1580 C   0  0  0  0  0  3  0  0  0  0  0  0
  -22.5860   -6.5380   21.4150 O   0  0  0  0  0  0  0  0  0  0  0  0
  -22.3260   -5.9420   22.6270 C   0  0  0  0  0  0  0  0  0  0  0  0
  -21.7630   -6.6590   23.7080 C   0  0  0  0  0  3  0  0  0  0  0  0
  -21.4720   -5.9990   24.9190 C   0  0  0  0  0  3  0  0  0  0  0  0
  -21.7350   -4.6230   25.0530 C   0  0  0  0  0  0  0  0  0  0  0  0
  -22.2890   -3.9060   23.9780 C   0  0  0  0  0  3  0  0  0  0  0  0
  -22.5810   -4.5630   22.7690 C   0  0  0  0  0  0  0  0  0  0  0  0
  -23.0970   -3.8600   21.7320 F   0  0  0  0  0  0  0  0  0  0  0  0
  -21.4540   -3.9880   26.2150 F   0  0  0  0  0  0  0  0  0  0  0  0
  -23.8270  -13.0250   20.0530 C   0  0  0  0  0  0  0  0  0  0  0  0
  -23.0340  -12.4850   20.9830 N   0  0  0  0  0  0  0  0  0  0  0  0
  -23.4810  -14.0250   19.4410 O   0  0  0  0  0  0  0  0  0  0  0  0
  -23.3070  -11.6510   21.4820 H   0  0  0  0  0  0  0  0  0  0  0  0
  -22.1180  -12.8730   21.1420 H   0  0  0  0  0  0  0  0  0  0  0  0
  -26.5260  -14.6000   18.7330 N   0  0  0  0  0  4  0  0  0  0  0  0
  -25.7310  -15.0330   18.2800 H   0  0  0  0  0  0  0  0  0  0  0  0
  -27.3590  -15.1690   18.6610 H   0  0  0  0  0  0  0  0  0  0  0  0
  -26.7680  -20.9670   20.0150 C   0  0  0  0  0  2  0  0  0  0  0  0
  -27.6460  -22.3020   19.3060 C   0  0  0  0  0  3  0  0  0  0  0  0
  -27.3180  -24.0140   19.4270 C   0  0  0  0  0  3  0  0  0  0  0  0
  -28.1040  -25.4000   19.1120 O   0  0  0  0  0  0  0  0  0  0  0  0
  -25.3840  -31.0870   22.9920 C   0  0  0  0  0  0  0  0  0  0  0  0
  -27.3730  -26.6590   19.1620 C   0  0  0  0  0  0  0  0  0  0  0  0
  -24.0580  -30.0550   21.2050 C   0  0  0  0  0  3  0  0  0  0  0  0
  -25.3340  -28.6870   19.4560 C   0  0  0  0  0  0  0  0  0  0  0  0
  -26.6250  -30.1450   20.9920 C   0  0  0  0  0  2  0  0  0  0  0  0
  -26.5590  -28.8770   20.1120 C   0  0  0  0  0  0  0  0  0  0  0  0
  -27.5980  -27.8690   19.9540 C   0  0  0  0  0  3  0  0  0  0  0  0
  -26.2070  -26.6830   18.3860 C   0  0  0  0  0  3  0  0  0  0  0  0
  -25.1880  -27.6270   18.5600 C   0  0  0  0  0  3  0  0  0  0  0  0
  -24.1880  -29.6460   19.7190 C   0  0  0  0  0  2  0  0  0  0  0  0
  -25.3810  -30.4490   21.7840 N   0  0  0  0  0  0  0  0  0  0  0  0
  -24.3310  -31.3380   23.5990 O   0  0  0  0  0  0  0  0  0  0  0  0
  -23.3520  -28.9280   22.0050 C   0  0  0  0  0  0  0  0  0  0  0  0
  -22.0150  -28.8410   21.9040 N   0  0  0  0  0  0  0  0  0  0  0  0
  -24.0120  -28.1420   22.6920 O   0  0  0  0  0  0  0  0  0  0  0  0
  -21.5390  -29.5260   21.3340 H   0  0  0  0  0  0  0  0  0  0  0  0
  -18.5950  -27.6980   22.2960 C   0  0  0  0  0  0  0  0  0  0  0  0
  -21.1670  -27.8310   22.5470 C   0  0  0  0  0  3  0  0  0  0  0  0
  -21.2050  -26.4950   21.7690 C   0  0  0  0  0  2  0  0  0  0  0  0
  -20.0750  -26.3620   20.7430 C   0  0  0  0  0  2  0  0  0  0  0  0
  -18.7100  -26.4590   21.4280 C   0  0  0  0  0  2  0  0  0  0  0  0
  -19.7470  -28.3520   22.8100 C   0  0  0  0  0  0  0  0  0  0  0  0
  -19.5780  -29.5190   23.5870 C   0  0  0  0  0  3  0  0  0  0  0  0
  -18.2910  -30.0270   23.8530 C   0  0  0  0  0  3  0  0  0  0  0  0
  -17.1560  -29.3690   23.3500 C   0  0  0  0  0  3  0  0  0  0  0  0
  -17.3100  -28.2060   22.5760 C   0  0  0  0  0  3  0  0  0  0  0  0
  -26.7090  -31.5510   23.6660 C   0  0  0  0  0  3  0  0  0  0  0  0
  -26.4700  -32.8730   24.2670 N   0  0  0  0  0  0  0  0  0  0  0  0
  -26.8490  -34.0410   23.7280 C   0  0  0  0  0  0  0  0  0  0  0  0
  -27.5020  -34.1110   22.6840 O   0  0  0  0  0  0  0  0  0  0  0  0
  -25.8890  -32.8960   25.0930 H   0  0  0  0  0  0  0  0  0  0  0  0
  -25.2290  -35.9680   23.7650 C   0  0  0  0  0  1  0  0  0  0  0  0
  -26.4420  -35.3330   24.4650 C   0  0  0  0  0  3  0  0  0  0  0  0
  -28.6230  -35.9070   25.4420 C   0  0  0  0  0  1  0  0  0  0  0  0
  -27.5350  -36.3270   24.5610 N   0  0  0  0  0  0  0  0  0  0  0  0
  -27.1830  -37.2200   24.8950 H   0  0  0  0  0  0  0  0  0  0  0  0
  -27.2360  -30.5390   24.7560 C   0  0  1  0  0  0  0  0  0  0  0  0
  -26.1770  -30.1490   25.8160 C   0  0  0  0  0  1  0  0  0  0  0  0
  -27.7310  -29.2320   24.1010 C   0  0  0  0  0  1  0  0  0  0  0  0
  -28.4560  -31.1540   25.4840 C   0  0  0  0  0  1  0  0  0  0  0  0
  1  3  2  0
  2  5  1  0
  3  7  1  0
  4 51  1  0
  4  2  1  0
  4  1  1  0
  5  3  1  0
  5  6  1  0
  7  9  2  0
  8  7  1  0
  8 10  1  0
 11 12  1  0
 12 21  1  0
 13 20  1  0
 13 19  1  0
 13 18  1  6
 14 13  1  0
 15 16  1  0
 16 17  1  0
 17 26  1  0
 21 19  1  0
 21 22  1  0
 23 26  1  0
 24 23  1  0
 24 43  1  0
 24 25  1  0
 25 28  1  0
 25 27  1  0
 28 29  1  0
 29 30  2  0
 31 34  1  0
 31 30  1  0
 32 31  2  0
 33 32  1  0
 33 28  2  0
 34 35  1  0
 35 40  2  0
 35 36  1  0
 36 37  2  0
 37 38  1  0
 38 42  1  0
 39 38  2  0
 40 39  1  0
 41 40  1  0
 43 44  1  0
 44 47  1  0
 44 46  1  0
 45 43  2  0
 48 23  2  0
 49 48  1  0
 50 48  1  0
 52 53  2  0
 52 51  1  0
 54 56  1  0
 54 53  1  0
 55 66  2  0
 56 61  1  0
 57 65  1  0
 57 67  1  0
 58 64  1  0
 58 60  1  0
 59 65  1  0
 60 59  1  0
 61 60  2  0
 62 63  1  0
 62 56  2  0
 63 58  2  0
 64 57  1  0
 65 55  1  0
 67 69  2  0
 68 67  1  0
 70 68  1  0
 71 80  2  0
 71 76  1  0
 72 68  1  0
 72 76  1  0
 73 72  1  0
 74 75  1  0
 74 73  1  0
 75 71  1  0
 76 77  2  0
 77 78  1  0
 79 78  2  0
 80 79  1  0
 81 55  1  0
 81 82  1  0
 81 91  1  0
 82 85  1  0
 83 82  1  0
 83 87  1  0
 84 83  2  0
 87 86  1  0
 87 89  1  0
 89 90  1  0
 89 88  1  0
 91 94  1  1
 91 92  1  0
 93 91  1  0
M  ISO  4  13 100  21 100  53 101  54 101
M  END
>  <TORSDO>  (13) 
F 22

>  <SCORE>  (13) 
-3.815

>  <name>  (13) 
12

>  <ligand_id>  (13) 
12

>  <original_smiles>  (13) 
[H]c1c([H])c([H])c2c(c1[H])C([H])([H])C([H])([H])C([H])([H])C2([H])N([H])C(=O)C1([H])N(C(=O)C([H])(N([H])C(=O)C([H])(N([H])C([H])([H])[H])C([H])([H])[H])C(C([H])([H])[H])(C([H])([H])[H])C([H])([H])[H])C([H])([H])c2c([H])c(OC([H])([H])C([H])([H])C([H])([H])C3([H])C([H])([H])C([H])(C(=O)N([H])C([H])([H])C([H])([H])N([H])C(=O)N4C([H])([H])C([H])([H])C([H])([H])C([H])(n5nc(-c6c([H])c([H])c(Oc7c([H])c([H])c(F)c([H])c7F)c([H])c6[H])c(C(=O)N([H])[H])c5N([H])[H])C4([H])[H])C([H])(C([H])([H])[H])C3([H])[H])c([H])c([H])c2C1([H])[H]

>  <smiles>  (13) 
[H]c1c([H])c([H])c2c(c1[H])C([H])([H])C([H])([H])C([H])([H])C2([H])N([H])C(=O)C1([H])N(C(=O)C([H])(N([H])C(=O)C([H])(N([H])C([H])([H])[H])C([H])([H])[H])C(C([H])([H])[H])(C([H])([H])[H])C([H])([H])[H])C([H])([H])c2c([H])c(OC([H])([H])C([H])([H])C([H])([H])C3([H])C([H])([H])C([H])(C(=O)N([H])C([H])([H])C([H])([H])N([H])C(=O)N4C([H])([H])C([H])([H])C([H])([H])C([H])(n5nc(-c6c([H])c([H])c(Oc7c([H])c([H])c(F)c([H])c7F)c([H])c6[H])c(C(=O)N([H])[H])c5N([H])[H])C4([H])[H])C([H])(C([H])([H])[H])C3([H])[H])c([H])c([H])c2C1([H])[H]

$$$$
13:0:0
     RDKit          3D

101108  0  0  1  0  0  0  0  0999 V2000
  -29.4210  -17.6580   21.4150 C   0  0  0  0  0  2  0  0  0  0  0  0
  -29.6080  -19.0020   22.1650 C   0  0  0  0  0  2  0  0  0  0  0  0
  -29.1780  -20.2180   21.3120 C   0  0  0  0  0  2  0  0  0  0  0  0
  -29.4270  -21.5230   21.9650 N   0  0  0  0  0  4  0  0  0  0  0  0
  -28.8890  -21.5840   22.8170 H   0  0  0  0  0  0  0  0  0  0  0  0
  -30.4010  -21.5780   22.2130 H   0  0  0  0  0  0  0  0  0  0  0  0
  -29.0800  -22.6730   21.0940 C   0  0  0  0  0  2  0  0  0  0  0  0
  -29.8090  -23.9690   21.4960 C   0  0  0  0  0  2  0  0  0  0  0  0
  -29.6000  -25.1350   20.5080 C   0  0  0  0  0  2  0  0  0  0  0  0
  -28.1340  -25.5770   20.3240 C   0  0  0  0  0  2  0  0  0  0  0  0
  -28.1440  -26.8440   19.6720 O   0  0  0  0  0  0  0  0  0  0  0  0
  -24.5810  -31.9000   23.1700 C   0  0  0  0  0  0  0  0  0  0  0  0
  -26.9770  -27.5570   19.7830 C   0  0  0  0  0  0  0  0  0  0  0  0
  -23.2580  -30.5710   21.5530 C   0  0  0  0  0  3  0  0  0  0  0  0
  -24.6020  -29.0650   19.9950 C   0  0  0  0  0  0  0  0  0  0  0  0
  -25.7690  -30.9130   21.2130 C   0  0  0  0  0  2  0  0  0  0  0  0
  -25.7990  -29.5620   20.5290 C   0  0  0  0  0  0  0  0  0  0  0  0
  -26.9900  -28.8160   20.4200 C   0  0  0  0  0  3  0  0  0  0  0  0
  -25.7680  -27.0600   19.2570 C   0  0  0  0  0  3  0  0  0  0  0  0
  -24.5800  -27.8110   19.3580 C   0  0  0  0  0  3  0  0  0  0  0  0
  -23.3790  -29.9430   20.1400 C   0  0  0  0  0  2  0  0  0  0  0  0
  -24.5590  -31.1390   22.0380 N   0  0  0  0  0  0  0  0  0  0  0  0
  -23.5370  -32.1650   23.7820 O   0  0  0  0  0  0  0  0  0  0  0  0
  -22.6530  -29.5230   22.5120 C   0  0  0  0  0  0  0  0  0  0  0  0
  -21.3300  -29.3180   22.4190 N   0  0  0  0  0  0  0  0  0  0  0  0
  -23.3710  -28.8940   23.2960 O   0  0  0  0  0  0  0  0  0  0  0  0
  -20.8080  -29.8860   21.7640 H   0  0  0  0  0  0  0  0  0  0  0  0
  -18.0020  -28.0160   22.9330 C   0  0  0  0  0  0  0  0  0  0  0  0
  -20.5510  -28.3530   23.1920 C   0  0  0  0  0  3  0  0  0  0  0  0
  -20.6940  -26.9280   22.6110 C   0  0  0  0  0  2  0  0  0  0  0  0
  -19.5970  -26.5720   21.6040 C   0  0  0  0  0  2  0  0  0  0  0  0
  -18.2160  -26.6730   22.2560 C   0  0  0  0  0  2  0  0  0  0  0  0
  -19.0980  -28.8120   23.3600 C   0  0  0  0  0  0  0  0  0  0  0  0
  -18.8410  -30.0690   23.9480 C   0  0  0  0  0  3  0  0  0  0  0  0
  -17.5210  -30.5290   24.1180 C   0  0  0  0  0  3  0  0  0  0  0  0
  -16.4410  -29.7290   23.7090 C   0  0  0  0  0  3  0  0  0  0  0  0
  -16.6820  -28.4750   23.1220 C   0  0  0  0  0  3  0  0  0  0  0  0
  -25.9120  -32.4900   23.7350 C   0  0  0  0  0  3  0  0  0  0  0  0
  -25.6480  -33.8820   24.1190 N   0  0  0  0  0  0  0  0  0  0  0  0
  -25.9600  -34.9470   23.3700 C   0  0  0  0  0  0  0  0  0  0  0  0
  -26.5720  -34.8620   22.3010 O   0  0  0  0  0  0  0  0  0  0  0  0
  -25.1030  -34.0260   24.9550 H   0  0  0  0  0  0  0  0  0  0  0  0
  -24.2420  -36.7720   23.1600 C   0  0  0  0  0  1  0  0  0  0  0  0
  -25.5220  -36.3310   23.8880 C   0  0  0  0  0  3  0  0  0  0  0  0
  -27.7180  -37.1600   24.6080 C   0  0  0  0  0  1  0  0  0  0  0  0
  -26.5640  -37.3720   23.7390 N   0  0  0  0  0  0  0  0  0  0  0  0
  -26.1820  -38.2940   23.9350 H   0  0  0  0  0  0  0  0  0  0  0  0
  -26.4870  -31.6710   24.9540 C   0  0  1  0  0  0  0  0  0  0  0  0
  -25.4510  -31.4080   26.0720 C   0  0  0  0  0  1  0  0  0  0  0  0
  -27.0280  -30.3020   24.4780 C   0  0  0  0  0  1  0  0  0  0  0  0
  -27.6810  -32.4290   25.5790 C   0  0  0  0  0  1  0  0  0  0  0  0
  -30.7230  -16.9510   20.9510 C   0  0  0  0  0  3  0  0  0  0  0  0
  -30.9500  -14.6320   19.8010 C   0  0  0  0  0  0  0  0  0  0  0  0
  -30.6500  -12.3660   18.8540 C   0  0  0  0  0  2  0  0  0  0  0  0
  -29.6570  -12.3750   17.6760 C   0  0  0  0  0  2  0  0  0  0  0  0
  -28.2040  -12.2470   18.1780 C   0  0  0  0  0  2  0  0  0  0  0  0
  -27.8830  -13.2450   19.3200 C   0  0  0  0  0  3  0  0  0  0  0  0
  -28.9740  -13.1830   20.4120 C   0  0  0  0  0  2  0  0  0  0  0  0
  -30.2820  -13.4470   19.7790 N   0  0  0  0  0  0  0  0  0  0  0  0
  -31.9770  -14.8320   19.1450 O   0  0  0  0  0  0  0  0  0  0  0  0
  -30.3730  -15.5650   20.5760 N   0  0  0  0  0  0  0  0  0  0  0  0
  -29.5510  -15.2160   21.0460 H   0  0  0  0  0  0  0  0  0  0  0  0
  -25.5420  -13.9230   20.1620 C   0  0  0  0  0  0  0  0  0  0  0  0
  -24.4770  -13.1810   20.5950 C   0  0  0  0  0  0  0  0  0  0  0  0
  -24.8990  -11.8170   20.5440 C   0  0  0  0  0  0  0  0  0  0  0  0
  -26.5490  -13.0130   19.8740 N   0  0  0  0  0  0  0  0  0  0  0  0
  -26.1660  -11.7420   20.1600 N   0  0  0  0  0  0  0  0  0  0  0  0
  -24.1530  -10.5750   20.7830 C   0  0  0  0  0  0  0  0  0  0  0  0
  -24.5750   -9.6360   21.7510 C   0  0  0  0  0  3  0  0  0  0  0  0
  -23.8320   -8.4580   21.9750 C   0  0  0  0  0  3  0  0  0  0  0  0
  -22.6540   -8.2080   21.2320 C   0  0  0  0  0  0  0  0  0  0  0  0
  -22.2510   -9.1360   20.2540 C   0  0  0  0  0  3  0  0  0  0  0  0
  -22.9950  -10.3060   20.0290 C   0  0  0  0  0  3  0  0  0  0  0  0
  -21.8830   -7.0790   21.3640 O   0  0  0  0  0  0  0  0  0  0  0  0
  -21.7670   -6.4220   22.5640 C   0  0  0  0  0  0  0  0  0  0  0  0
  -21.2840   -7.0670   23.7220 C   0  0  0  0  0  3  0  0  0  0  0  0
  -21.1160   -6.3360   24.9150 C   0  0  0  0  0  3  0  0  0  0  0  0
  -21.4210   -4.9630   24.9490 C   0  0  0  0  0  0  0  0  0  0  0  0
  -21.8960   -4.3170   23.7940 C   0  0  0  0  0  3  0  0  0  0  0  0
  -22.0660   -5.0450   22.6040 C   0  0  0  0  0  0  0  0  0  0  0  0
  -22.5040   -4.4150   21.4880 F   0  0  0  0  0  0  0  0  0  0  0  0
  -21.2510   -4.2590   26.0930 F   0  0  0  0  0  0  0  0  0  0  0  0
  -23.1120  -13.6950   20.9480 C   0  0  0  0  0  0  0  0  0  0  0  0
  -22.4270  -13.0320   21.8740 N   0  0  0  0  0  0  0  0  0  0  0  0
  -22.6620  -14.7200   20.4380 O   0  0  0  0  0  0  0  0  0  0  0  0
  -22.8030  -12.2020   22.3090 H   0  0  0  0  0  0  0  0  0  0  0  0
  -21.5120  -13.3600   22.1530 H   0  0  0  0  0  0  0  0  0  0  0  0
  -25.7340  -15.2880   19.9720 N   0  0  0  0  0  0  0  0  0  0  0  0
  -24.9980  -15.9660   20.1320 H   0  0  0  0  0  0  0  0  0  0  0  0
  -26.5790  -15.7030   19.5980 H   0  0  0  0  0  0  0  0  0  0  0  0
  -31.4840  -17.7690   19.8810 C   0  0  0  0  0  0  0  0  0  0  0  0
  -30.9050  -18.3500   18.9610 O   0  0  0  0  0  0  0  0  0  0  0  0
  -33.0060  -17.8420   20.0240 C   0  0  0  0  0  2  0  0  0  0  0  0
  -33.6130  -19.1440   19.4750 C   0  0  0  0  0  2  0  0  0  0  0  0
  -33.1630  -19.4000   18.0640 C   0  0  0  0  0  0  0  0  0  0  0  0
  -32.5920  -20.5710   17.7510 N   0  0  0  0  0  0  0  0  0  0  0  0
  -33.3680  -18.4700   17.1170 N   0  0  0  0  0  4  0  0  0  0  0  0
  -32.4360  -21.2690   18.4640 H   0  0  0  0  0  0  0  0  0  0  0  0
  -32.2530  -20.7990   16.8280 H   0  0  0  0  0  0  0  0  0  0  0  0
  -33.8340  -17.6010   17.3390 H   0  0  0  0  0  0  0  0  0  0  0  0
  -33.0650  -18.5820   16.1610 H   0  0  0  0  0  0  0  0  0  0  0  0
  1  2  1  0
  3  4  1  0
  3  2  1  0
  4  6  1  0
  4  5  1  0
  7  8  1  0
  7  4  1  0
  9  8  1  0
 10  9  1  0
 11 13  1  0
 11 10  1  0
 12 23  2  0
 13 18  1  0
 14 22  1  0
 14 24  1  0
 15 21  1  0
 15 17  1  0
 16 22  1  0
 17 16  1  0
 18 17  2  0
 19 20  1  0
 19 13  2  0
 20 15  2  0
 21 14  1  0
 22 12  1  0
 24 26  2  0
 25 24  1  0
 27 25  1  0
 28 37  2  0
 28 33  1  0
 29 25  1  0
 29 33  1  0
 30 29  1  0
 31 32  1  0
 31 30  1  0
 32 28  1  0
 33 34  2  0
 34 35  1  0
 36 35  2  0
 37 36  1  0
 38 12  1  0
 38 39  1  0
 38 48  1  0
 39 42  1  0
 40 44  1  0
 40 39  1  0
 41 40  2  0
 44 43  1  0
 46 44  1  0
 46 47  1  0
 46 45  1  0
 48 51  1  1
 48 49  1  0
 50 48  1  0
 52  1  1  0
 53 61  1  0
 54 59  1  0
 55 56  1  0
 55 54  1  0
 57 56  1  0
 57 66  1  0
 57 58  1  0
 59 53  1  0
 59 58  1  0
 60 53  2  0
 61 52  1  0
 61 62  1  0
 63 64  2  0
 64 83  1  0
 65 64  1  0
 65 68  1  0
 66 67  1  0
 66 63  1  0
 67 65  2  0
 68 69  1  0
 69 70  2  0
 71 74  1  0
 71 70  1  0
 72 71  2  0
 73 72  1  0
 73 68  2  0
 74 75  1  0
 75 80  2  0
 75 76  1  0
 76 77  2  0
 77 78  1  0
 78 82  1  0
 79 78  2  0
 80 79  1  0
 81 80  1  0
 83 84  1  0
 84 87  1  0
 84 86  1  0
 85 83  2  0
 88 89  1  0
 88 63  1  0
 90 88  1  0
 91 93  1  0
 91 52  1  0
 92 91  2  0
 94 93  1  0
 95 94  1  0
 96 95  1  0
 96 98  1  0
 97100  1  0
 97 95  2  0
 99 96  1  0
101 97  1  0
M  ISO  4  10 101  11 101  53 100  61 100
M  END
>  <TORSDO>  (14) 
F 28

>  <SCORE>  (14) 
-9.899

>  <name>  (14) 
13

>  <ligand_id>  (14) 
13

>  <original_smiles>  (14) 
[H]c1c([H])c([H])c2c(c1[H])C([H])([H])C([H])([H])C([H])([H])C2([H])N([H])C(=O)C1([H])N(C(=O)C([H])(N([H])C(=O)C([H])(N([H])C([H])([H])[H])C([H])([H])[H])C(C([H])([H])[H])(C([H])([H])[H])C([H])([H])[H])C([H])([H])c2c([H])c(OC([H])([H])C([H])([H])C([H])([H])C([H])([H])[N+]([H])([H])C([H])([H])C([H])([H])C([H])([H])C([H])(C(=O)C([H])([H])C([H])([H])C(N([H])[H])=[N+]([H])[H])N([H])C(=O)N3C([H])([H])C([H])([H])C([H])([H])C([H])(n4nc(-c5c([H])c([H])c(Oc6c([H])c([H])c(F)c([H])c6F)c([H])c5[H])c(C(=O)N([H])[H])c4N([H])[H])C3([H])[H])c([H])c([H])c2C1([H])[H]

>  <smiles>  (14) 
[H]c1c([H])c([H])c2c(c1[H])C([H])([H])C([H])([H])C([H])([H])C2([H])N([H])C(=O)C1([H])N(C(=O)C([H])(N([H])C(=O)C([H])(N([H])C([H])([H])[H])C([H])([H])[H])C(C([H])([H])[H])(C([H])([H])[H])C([H])([H])[H])C([H])([H])c2c([H])c(OC([H])([H])C([H])([H])C([H])([H])C([H])([H])[N+]([H])([H])C([H])([H])C([H])([H])C([H])([H])C([H])(C(=O)C([H])([H])C([H])([H])C(N([H])[H])=[N+]([H])[H])N([H])C(=O)N3C([H])([H])C([H])([H])C([H])([H])C([H])(n4nc(-c5c([H])c([H])c(Oc6c([H])c([H])c(F)c([H])c6F)c([H])c5[H])c(C(=O)N([H])[H])c4N([H])[H])C3([H])[H])c([H])c([H])c2C1([H])[H]

$$$$
14:0:0
     RDKit          3D

 93101  0  0  1  0  0  0  0  0999 V2000
  -28.1100  -22.4110   20.4010 C   0  0  0  0  0  3  0  0  0  0  0  0
  -29.5410  -21.3500   22.2330 C   0  0  0  0  0  1  0  0  0  0  0  0
  -28.6800  -20.9990   21.0090 C   0  0  0  0  0  3  0  0  0  0  0  0
  -29.3420  -19.7530   20.1880 C   0  0  0  0  0  2  0  0  0  0  0  0
  -30.8600  -14.6970   20.1590 C   0  0  0  0  0  0  0  0  0  0  0  0
  -30.4520  -12.4440   19.1860 C   0  0  0  0  0  2  0  0  0  0  0  0
  -29.5140  -12.5500   17.9700 C   0  0  0  0  0  2  0  0  0  0  0  0
  -28.0530  -12.4190   18.4270 C   0  0  0  0  0  2  0  0  0  0  0  0
  -27.7260  -13.3200   19.6500 C   0  0  0  0  0  3  0  0  0  0  0  0
  -28.8100  -13.2650   20.7510 C   0  0  0  0  0  2  0  0  0  0  0  0
  -30.0970  -13.5510   20.1140 N   0  0  0  0  0  0  0  0  0  0  0  0
  -32.0230  -14.6030   19.7640 O   0  0  0  0  0  0  0  0  0  0  0  0
  -30.6060  -18.0430   21.8160 C   0  0  0  0  0  2  0  0  0  0  0  0
  -29.4090  -16.9120   20.0530 C   0  0  0  0  0  2  0  0  0  0  0  0
  -29.4060  -18.2840   20.8900 C   0  0  0  0  0  3  0  0  0  0  0  0
  -31.4020  -16.8760   21.2110 C   0  0  0  0  0  3  0  0  0  0  0  0
  -32.4100  -17.4540   20.1710 C   0  0  0  0  0  1  0  0  0  0  0  0
  -30.4120  -15.9380   20.6290 N   0  0  0  0  0  0  0  0  0  0  0  0
  -25.3720  -13.9310   20.4470 C   0  0  0  0  0  0  0  0  0  0  0  0
  -24.3040  -13.1670   20.8350 C   0  0  0  0  0  0  0  0  0  0  0  0
  -24.7470  -11.8090   20.7770 C   0  0  0  0  0  0  0  0  0  0  0  0
  -26.3960  -13.0410   20.1790 N   0  0  0  0  0  0  0  0  0  0  0  0
  -26.0290  -11.7570   20.4390 N   0  0  0  0  0  0  0  0  0  0  0  0
  -24.0040  -10.5540   20.9670 C   0  0  0  0  0  0  0  0  0  0  0  0
  -24.4210   -9.5850   21.9060 C   0  0  0  0  0  3  0  0  0  0  0  0
  -23.6800   -8.3960   22.0840 C   0  0  0  0  0  3  0  0  0  0  0  0
  -22.5070   -8.1700   21.3240 C   0  0  0  0  0  0  0  0  0  0  0  0
  -22.1090   -9.1280   20.3760 C   0  0  0  0  0  3  0  0  0  0  0  0
  -22.8490  -10.3080   20.1970 C   0  0  0  0  0  3  0  0  0  0  0  0
  -21.7350   -7.0370   21.4140 O   0  0  0  0  0  0  0  0  0  0  0  0
  -21.6420   -6.3200   22.5810 C   0  0  0  0  0  0  0  0  0  0  0  0
  -21.1900   -6.9080   23.7820 C   0  0  0  0  0  3  0  0  0  0  0  0
  -21.0440   -6.1180   24.9400 C   0  0  0  0  0  3  0  0  0  0  0  0
  -21.3370   -4.7420   24.8970 C   0  0  0  0  0  0  0  0  0  0  0  0
  -21.7820   -4.1530   23.6990 C   0  0  0  0  0  3  0  0  0  0  0  0
  -21.9310   -4.9410   22.5440 C   0  0  0  0  0  0  0  0  0  0  0  0
  -22.3390   -4.3660   21.3870 F   0  0  0  0  0  0  0  0  0  0  0  0
  -21.1890   -3.9810   26.0050 F   0  0  0  0  0  0  0  0  0  0  0  0
  -22.9220  -13.6620   21.1410 C   0  0  0  0  0  0  0  0  0  0  0  0
  -22.2030  -12.9800   22.0250 N   0  0  0  0  0  0  0  0  0  0  0  0
  -22.4890  -14.6940   20.6300 O   0  0  0  0  0  0  0  0  0  0  0  0
  -22.5600  -12.1440   22.4620 H   0  0  0  0  0  0  0  0  0  0  0  0
  -21.2750  -13.2990   22.2640 H   0  0  0  0  0  0  0  0  0  0  0  0
  -25.5520  -15.3010   20.2690 N   0  0  0  0  0  0  0  0  0  0  0  0
  -24.7960  -15.9670   20.3810 H   0  0  0  0  0  0  0  0  0  0  0  0
  -26.3930  -15.7230   19.8990 H   0  0  0  0  0  0  0  0  0  0  0  0
  -25.7670  -22.7110   19.3620 C   0  0  0  0  0  1  0  0  0  0  0  0
  -27.2510  -22.3550   19.0850 C   0  0  0  0  0  3  0  0  0  0  0  0
  -26.5430  -19.8200   18.7700 C   0  0  0  0  0  1  0  0  0  0  0  0
  -27.2650  -21.0670   18.2150 C   0  0  0  0  0  2  0  0  0  0  0  0
  -29.0040  -23.7600   20.5540 C   0  0  0  0  0  2  0  0  0  0  0  0
  -28.6790  -25.1940   19.8630 C   0  0  0  0  0  2  0  0  0  0  0  0
  -28.5310  -26.4990   20.5930 O   0  0  0  0  0  0  0  0  0  0  0  0
  -24.6630  -31.9850   23.3130 C   0  0  0  0  0  0  0  0  0  0  0  0
  -27.4170  -27.3600   20.4360 C   0  0  0  0  0  0  0  0  0  0  0  0
  -23.5340  -30.5410   21.6620 C   0  0  0  0  0  3  0  0  0  0  0  0
  -25.0520  -28.9900   20.3040 C   0  0  0  0  0  0  0  0  0  0  0  0
  -26.0770  -30.8720   21.5690 C   0  0  0  0  0  2  0  0  0  0  0  0
  -26.1930  -29.4800   20.9510 C   0  0  0  0  0  0  0  0  0  0  0  0
  -27.3730  -28.6710   21.0180 C   0  0  0  0  0  3  0  0  0  0  0  0
  -26.2590  -26.9540   19.7360 C   0  0  0  0  0  3  0  0  0  0  0  0
  -25.0930  -27.7360   19.6820 C   0  0  0  0  0  3  0  0  0  0  0  0
  -23.8070  -29.8530   20.2990 C   0  0  0  0  0  2  0  0  0  0  0  0
  -24.7750  -31.1530   22.2380 N   0  0  0  0  0  0  0  0  0  0  0  0
  -23.5570  -32.2580   23.8050 O   0  0  0  0  0  0  0  0  0  0  0  0
  -22.8570  -29.5290   22.6190 C   0  0  0  0  0  0  0  0  0  0  0  0
  -21.5330  -29.3480   22.4740 N   0  0  0  0  0  0  0  0  0  0  0  0
  -23.5200  -28.9140   23.4570 O   0  0  0  0  0  0  0  0  0  0  0  0
  -21.0530  -29.9030   21.7810 H   0  0  0  0  0  0  0  0  0  0  0  0
  -18.1440  -28.1800   22.9650 C   0  0  0  0  0  0  0  0  0  0  0  0
  -20.7030  -28.4180   23.2430 C   0  0  0  0  0  3  0  0  0  0  0  0
  -20.7920  -26.9830   22.6690 C   0  0  0  0  0  2  0  0  0  0  0  0
  -19.6930  -26.6700   21.6500 C   0  0  0  0  0  2  0  0  0  0  0  0
  -18.3120  -26.8300   22.2910 C   0  0  0  0  0  2  0  0  0  0  0  0
  -19.2680  -28.9330   23.3980 C   0  0  0  0  0  0  0  0  0  0  0  0
  -19.0570  -30.1990   23.9880 C   0  0  0  0  0  3  0  0  0  0  0  0
  -17.7560  -30.7120   24.1490 C   0  0  0  0  0  3  0  0  0  0  0  0
  -16.6470  -29.9570   23.7300 C   0  0  0  0  0  3  0  0  0  0  0  0
  -16.8410  -28.6920   23.1440 C   0  0  0  0  0  3  0  0  0  0  0  0
  -25.9120  -32.6540   23.9600 C   0  0  0  0  0  3  0  0  0  0  0  0
  -26.4000  -31.9200   25.2700 C   0  0  1  0  0  0  0  0  0  0  0  0
  -25.2730  -31.6630   26.2970 C   0  0  0  0  0  1  0  0  0  0  0  0
  -27.0370  -30.5530   24.9290 C   0  0  0  0  0  1  0  0  0  0  0  0
  -27.5000  -32.7590   25.9620 C   0  0  0  0  0  1  0  0  0  0  0  0
  -25.5690  -34.0540   24.2480 N   0  0  0  0  0  0  0  0  0  0  0  0
  -25.9060  -35.0970   23.4760 C   0  0  0  0  0  0  0  0  0  0  0  0
  -26.6100  -34.9810   22.4680 O   0  0  0  0  0  0  0  0  0  0  0  0
  -24.9490  -34.2160   25.0280 H   0  0  0  0  0  0  0  0  0  0  0  0
  -24.1590  -36.8530   23.0320 C   0  0  0  0  0  1  0  0  0  0  0  0
  -25.3850  -36.4880   23.8870 C   0  0  0  0  0  3  0  0  0  0  0  0
  -27.4830  -37.4290   24.7480 C   0  0  0  0  0  1  0  0  0  0  0  0
  -26.4020  -37.5550   23.7750 N   0  0  0  0  0  0  0  0  0  0  0  0
  -25.9770  -38.4710   23.8930 H   0  0  0  0  0  0  0  0  0  0  0  0
  1 51  1  0
  1  3  1  0
  3  2  1  0
  4  3  1  0
  5 18  1  0
  6 11  1  0
  7  8  1  0
  7  6  1  0
  9  8  1  0
  9 22  1  0
  9 10  1  0
 11  5  1  0
 11 10  1  0
 12  5  2  0
 14 18  1  0
 14 15  1  0
 15  4  1  0
 15 13  1  0
 16 17  1  0
 16 13  1  0
 18 16  1  0
 19 20  2  0
 20 39  1  0
 21 20  1  0
 21 24  1  0
 22 23  1  0
 22 19  1  0
 23 21  2  0
 24 25  1  0
 25 26  2  0
 27 30  1  0
 27 26  1  0
 28 27  2  0
 29 28  1  0
 29 24  2  0
 30 31  1  0
 31 32  1  0
 32 33  2  0
 34 33  1  0
 34 38  1  0
 35 34  2  0
 36 31  2  0
 36 35  1  0
 37 36  1  0
 39 40  1  0
 40 43  1  0
 40 42  1  0
 41 39  2  0
 44 45  1  0
 44 19  1  0
 46 44  1  0
 48 47  1  0
 48  1  1  0
 50 49  1  0
 50 48  1  0
 52 51  1  0
 52 53  1  0
 54 65  2  0
 55 53  1  0
 55 60  1  0
 56 64  1  0
 56 66  1  0
 57 59  1  0
 58 64  1  0
 59 60  2  0
 59 58  1  0
 61 55  2  0
 62 61  1  0
 62 57  2  0
 63 57  1  0
 63 56  1  0
 64 54  1  0
 66 68  2  0
 67 66  1  0
 69 67  1  0
 70 79  2  0
 70 75  1  0
 71 67  1  0
 71 75  1  0
 72 71  1  0
 73 74  1  0
 73 72  1  0
 74 70  1  0
 75 76  2  0
 76 77  1  0
 78 77  2  0
 79 78  1  0
 80 54  1  0
 80 85  1  0
 80 81  1  0
 81 84  1  1
 81 82  1  0
 83 81  1  0
 85 88  1  0
 86 90  1  0
 86 85  1  0
 87 86  2  0
 90 89  1  0
 92 90  1  0
 92 93  1  0
 92 91  1  0
M  ISO  4   5 100  18 100  52 101  53 101
M  END
>  <TORSDO>  (15) 
F 22

>  <SCORE>  (15) 
-13.336

>  <name>  (15) 
14

>  <ligand_id>  (15) 
14

>  <original_smiles>  (15) 
[H]c1c([H])c([H])c2c(c1[H])C([H])([H])C([H])([H])C([H])([H])C2([H])N([H])C(=O)C1([H])N(C(=O)C([H])(N([H])C(=O)C([H])(N([H])C([H])([H])[H])C([H])([H])[H])C(C([H])([H])[H])(C([H])([H])[H])C([H])([H])[H])C([H])([H])c2c([H])c(OC([H])([H])C([H])([H])C([H])(C([H])(C([H])([H])[H])C([H])([H])C([H])([H])[H])C([H])(C([H])([H])[H])C([H])([H])C3([H])C([H])([H])N(C(=O)N4C([H])([H])C([H])([H])C([H])([H])C([H])(n5nc(-c6c([H])c([H])c(Oc7c([H])c([H])c(F)c([H])c7F)c([H])c6[H])c(C(=O)N([H])[H])c5N([H])[H])C4([H])[H])C([H])(C([H])([H])[H])C3([H])[H])c([H])c([H])c2C1([H])[H]

>  <smiles>  (15) 
[H]c1c([H])c([H])c2c(c1[H])C([H])([H])C([H])([H])C([H])([H])C2([H])N([H])C(=O)C1([H])N(C(=O)C([H])(N([H])C(=O)C([H])(N([H])C([H])([H])[H])C([H])([H])[H])C(C([H])([H])[H])(C([H])([H])[H])C([H])([H])[H])C([H])([H])c2c([H])c(OC([H])([H])C([H])([H])C([H])(C([H])(C([H])([H])[H])C([H])([H])C([H])([H])[H])C([H])(C([H])([H])[H])C([H])([H])C3([H])C([H])([H])N(C(=O)N4C([H])([H])C([H])([H])C([H])([H])C([H])(n5nc(-c6c([H])c([H])c(Oc7c([H])c([H])c(F)c([H])c7F)c([H])c6[H])c(C(=O)N([H])[H])c5N([H])[H])C4([H])[H])C([H])(C([H])([H])[H])C3([H])[H])c([H])c([H])c2C1([H])[H]

$$$$
15:0:0
     RDKit          3D

 86 93  0  0  1  0  0  0  0  0999 V2000
  -28.9370  -23.4740   20.3580 C   0  0  0  0  0  0  0  0  0  0  0  0
  -30.1030  -23.7510   20.6520 O   0  0  0  0  0  0  0  0  0  0  0  0
  -28.5230  -21.8760   20.2740 C   0  0  0  0  0  3  0  0  0  0  0  0
  -29.5660  -20.5640   20.4050 C   0  0  0  0  0  3  0  0  0  0  0  0
  -29.1230  -18.9400   20.3810 C   0  0  0  0  0  3  0  0  0  0  0  0
  -30.1870  -17.6430   20.4530 C   0  0  0  0  0  3  0  0  0  0  0  0
  -30.5360  -14.9420   20.3350 C   0  0  0  0  0  0  0  0  0  0  0  0
  -30.3890  -12.6100   19.3740 C   0  0  0  0  0  2  0  0  0  0  0  0
  -29.4480  -12.5910   18.1480 C   0  0  0  0  0  2  0  0  0  0  0  0
  -27.9870  -12.3820   18.5900 C   0  0  0  0  0  2  0  0  0  0  0  0
  -27.5910  -13.2970   19.7790 C   0  0  0  0  0  3  0  0  0  0  0  0
  -28.6540  -13.2950   20.8980 C   0  0  0  0  0  2  0  0  0  0  0  0
  -29.9250  -13.6950   20.2830 N   0  0  0  0  0  0  0  0  0  0  0  0
  -31.7350  -15.0070   20.0430 O   0  0  0  0  0  0  0  0  0  0  0  0
  -29.7760  -16.1250   20.5060 N   0  0  0  0  0  0  0  0  0  0  0  0
  -28.7990  -15.9560   20.6910 H   0  0  0  0  0  0  0  0  0  0  0  0
  -25.2110  -13.8630   20.5320 C   0  0  0  0  0  0  0  0  0  0  0  0
  -24.1520  -13.0820   20.9050 C   0  0  0  0  0  0  0  0  0  0  0  0
  -24.6220  -11.7340   20.8680 C   0  0  0  0  0  0  0  0  0  0  0  0
  -26.2560  -12.9910   20.2840 N   0  0  0  0  0  0  0  0  0  0  0  0
  -25.9130  -11.7040   20.5520 N   0  0  0  0  0  0  0  0  0  0  0  0
  -23.9020  -10.4680   21.0570 C   0  0  0  0  0  0  0  0  0  0  0  0
  -24.3440   -9.4960   21.9820 C   0  0  0  0  0  3  0  0  0  0  0  0
  -23.6230   -8.2960   22.1590 C   0  0  0  0  0  3  0  0  0  0  0  0
  -22.4450   -8.0590   21.4120 C   0  0  0  0  0  0  0  0  0  0  0  0
  -22.0220   -9.0190   20.4770 C   0  0  0  0  0  3  0  0  0  0  0  0
  -22.7440  -10.2110   20.2970 C   0  0  0  0  0  3  0  0  0  0  0  0
  -21.6930   -6.9110   21.5000 O   0  0  0  0  0  0  0  0  0  0  0  0
  -21.6590   -6.1600   22.6470 C   0  0  0  0  0  0  0  0  0  0  0  0
  -21.2440   -6.7040   23.8820 C   0  0  0  0  0  3  0  0  0  0  0  0
  -21.1580   -5.8790   25.0210 C   0  0  0  0  0  3  0  0  0  0  0  0
  -21.4740   -4.5110   24.9260 C   0  0  0  0  0  0  0  0  0  0  0  0
  -21.8820   -3.9660   23.6970 C   0  0  0  0  0  3  0  0  0  0  0  0
  -21.9710   -4.7880   22.5590 C   0  0  0  0  0  0  0  0  0  0  0  0
  -22.3440   -4.2540   21.3720 F   0  0  0  0  0  0  0  0  0  0  0  0
  -21.3840   -3.7160   26.0190 F   0  0  0  0  0  0  0  0  0  0  0  0
  -22.7530  -13.5520   21.1810 C   0  0  0  0  0  0  0  0  0  0  0  0
  -22.0340  -12.8560   22.0540 N   0  0  0  0  0  0  0  0  0  0  0  0
  -22.3080  -14.5720   20.6580 O   0  0  0  0  0  0  0  0  0  0  0  0
  -22.4080  -12.0320   22.5000 H   0  0  0  0  0  0  0  0  0  0  0  0
  -21.0950  -13.1540   22.2830 H   0  0  0  0  0  0  0  0  0  0  0  0
  -25.3660  -15.2350   20.3560 N   0  0  0  0  0  0  0  0  0  0  0  0
  -24.5910  -15.8810   20.4680 H   0  0  0  0  0  0  0  0  0  0  0  0
  -26.1990  -15.6790   19.9950 H   0  0  0  0  0  0  0  0  0  0  0  0
  -27.8850  -24.7100   20.0710 C   0  0  0  0  0  2  0  0  0  0  0  0
  -28.2340  -26.2110   20.2590 O   0  0  0  0  0  0  0  0  0  0  0  0
  -24.6410  -31.9010   23.2400 C   0  0  0  0  0  0  0  0  0  0  0  0
  -27.1880  -27.1980   20.1900 C   0  0  0  0  0  0  0  0  0  0  0  0
  -23.4280  -30.5140   21.6020 C   0  0  0  0  0  3  0  0  0  0  0  0
  -24.8650  -28.9420   20.1690 C   0  0  0  0  0  0  0  0  0  0  0  0
  -25.9830  -30.7750   21.4270 C   0  0  0  0  0  2  0  0  0  0  0  0
  -26.0490  -29.3850   20.7730 C   0  0  0  0  0  0  0  0  0  0  0  0
  -27.2120  -28.5290   20.7670 C   0  0  0  0  0  3  0  0  0  0  0  0
  -25.9780  -26.8550   19.5450 C   0  0  0  0  0  3  0  0  0  0  0  0
  -24.8420  -27.6900   19.5390 C   0  0  0  0  0  3  0  0  0  0  0  0
  -23.6410  -29.8410   20.2210 C   0  0  0  0  0  2  0  0  0  0  0  0
  -24.7040  -31.0840   22.1440 N   0  0  0  0  0  0  0  0  0  0  0  0
  -23.5580  -32.1900   23.7720 O   0  0  0  0  0  0  0  0  0  0  0  0
  -22.7500  -29.5070   22.5640 C   0  0  0  0  0  0  0  0  0  0  0  0
  -21.4210  -29.3440   22.4410 N   0  0  0  0  0  0  0  0  0  0  0  0
  -23.4210  -28.8750   23.3830 O   0  0  0  0  0  0  0  0  0  0  0  0
  -20.9350  -29.9050   21.7550 H   0  0  0  0  0  0  0  0  0  0  0  0
  -18.0340  -28.1640   22.9530 C   0  0  0  0  0  0  0  0  0  0  0  0
  -20.5950  -28.4110   23.2140 C   0  0  0  0  0  3  0  0  0  0  0  0
  -20.6870  -26.9780   22.6400 C   0  0  0  0  0  2  0  0  0  0  0  0
  -19.5810  -26.6610   21.6280 C   0  0  0  0  0  2  0  0  0  0  0  0
  -18.2010  -26.8130   22.2760 C   0  0  0  0  0  2  0  0  0  0  0  0
  -19.1580  -28.9200   23.3790 C   0  0  0  0  0  0  0  0  0  0  0  0
  -18.9460  -30.1830   23.9740 C   0  0  0  0  0  3  0  0  0  0  0  0
  -17.6430  -30.6890   24.1460 C   0  0  0  0  0  3  0  0  0  0  0  0
  -16.5340  -29.9300   23.7330 C   0  0  0  0  0  3  0  0  0  0  0  0
  -16.7310  -28.6680   23.1430 C   0  0  0  0  0  3  0  0  0  0  0  0
  -25.9250  -32.5290   23.8630 C   0  0  0  0  0  3  0  0  0  0  0  0
  -25.6200  -33.9270   24.2040 N   0  0  0  0  0  0  0  0  0  0  0  0
  -25.9290  -34.9840   23.4420 C   0  0  0  0  0  0  0  0  0  0  0  0
  -26.5700  -34.8850   22.3910 O   0  0  0  0  0  0  0  0  0  0  0  0
  -25.0470  -34.0770   25.0200 H   0  0  0  0  0  0  0  0  0  0  0  0
  -24.1770  -36.7700   23.1620 C   0  0  0  0  0  1  0  0  0  0  0  0
  -25.4550  -36.3720   23.9190 C   0  0  0  0  0  3  0  0  0  0  0  0
  -27.6180  -37.2710   24.6550 C   0  0  0  0  0  1  0  0  0  0  0  0
  -26.4760  -37.4300   23.7600 N   0  0  0  0  0  0  0  0  0  0  0  0
  -26.0710  -38.3480   23.9220 H   0  0  0  0  0  0  0  0  0  0  0  0
  -26.4390  -31.7520   25.1370 C   0  0  1  0  0  0  0  0  0  0  0  0
  -25.3460  -31.5180   26.2070 C   0  0  0  0  0  1  0  0  0  0  0  0
  -27.0130  -30.3700   24.7450 C   0  0  0  0  0  1  0  0  0  0  0  0
  -27.5950  -32.5380   25.7980 C   0  0  0  0  0  1  0  0  0  0  0  0
  1  2  2  0
  3  1  1  0
  3  4  2  0
  5  4  1  0
  5  6  2  0
  6 15  1  0
  7 15  1  0
  8 13  1  0
  9 10  1  0
  9  8  1  0
 11 10  1  0
 11 20  1  0
 11 12  1  0
 13  7  1  0
 13 12  1  0
 14  7  2  0
 15 16  1  0
 17 18  2  0
 18 37  1  0
 19 18  1  0
 19 22  1  0
 20 17  1  0
 20 21  1  0
 21 19  2  0
 22 23  1  0
 23 24  2  0
 25 28  1  0
 25 24  1  0
 26 25  2  0
 27 26  1  0
 27 22  2  0
 28 29  1  0
 29 30  1  0
 30 31  2  0
 32 31  1  0
 32 36  1  0
 33 32  2  0
 34 29  2  0
 34 33  1  0
 35 34  1  0
 37 38  1  0
 38 41  1  0
 38 40  1  0
 39 37  2  0
 42 43  1  0
 42 17  1  0
 44 42  1  0
 45 46  1  0
 45  1  1  0
 47 58  2  0
 48 46  1  0
 48 53  1  0
 49 57  1  0
 49 59  1  0
 50 56  1  0
 50 52  1  0
 51 57  1  0
 52 51  1  0
 53 52  2  0
 54 48  2  0
 55 54  1  0
 55 50  2  0
 56 49  1  0
 57 47  1  0
 59 61  2  0
 60 59  1  0
 62 60  1  0
 63 72  2  0
 63 68  1  0
 64 60  1  0
 64 68  1  0
 65 64  1  0
 66 67  1  0
 66 65  1  0
 67 63  1  0
 68 69  2  0
 69 70  1  0
 71 70  2  0
 72 71  1  0
 73 47  1  0
 73 74  1  0
 73 83  1  0
 74 77  1  0
 75 79  1  0
 75 74  1  0
 76 75  2  0
 79 78  1  0
 81 79  1  0
 81 82  1  0
 81 80  1  0
 83 86  1  1
 83 84  1  0
 85 83  1  0
M  ISO  4   7 100  15 100  45 101  46 101
M  END
>  <TORSDO>  (16) 
F 21

>  <SCORE>  (16) 
-13.224

>  <name>  (16) 
15

>  <ligand_id>  (16) 
15

>  <original_smiles>  (16) 
[H]c1c([H])c([H])c2c(c1[H])C([H])([H])C([H])([H])C([H])([H])C2([H])N([H])C(=O)C1([H])N(C(=O)C([H])(N([H])C(=O)C([H])(N([H])C([H])([H])[H])C([H])([H])[H])C(C([H])([H])[H])(C([H])([H])[H])C([H])([H])[H])C([H])([H])c2c([H])c(OC([H])([H])C(=O)C([H])([H])C([H])([H])C([H])([H])C([H])([H])N([H])C(=O)N3C([H])([H])C([H])([H])C([H])([H])C([H])(n4nc(-c5c([H])c([H])c(Oc6c([H])c([H])c(F)c([H])c6F)c([H])c5[H])c(C(=O)N([H])[H])c4N([H])[H])C3([H])[H])c([H])c([H])c2C1([H])[H]

>  <smiles>  (16) 
[H]c1c([H])c([H])c2c(c1[H])C([H])([H])C([H])([H])C([H])([H])C2([H])N([H])C(=O)C1([H])N(C(=O)C([H])(N([H])C(=O)C([H])(N([H])C([H])([H])[H])C([H])([H])[H])C(C([H])([H])[H])(C([H])([H])[H])C([H])([H])[H])C([H])([H])c2c([H])c(OC([H])([H])C(=O)C([H])([H])C([H])([H])C([H])([H])C([H])([H])N([H])C(=O)N3C([H])([H])C([H])([H])C([H])([H])C([H])(n4nc(-c5c([H])c([H])c(Oc6c([H])c([H])c(F)c([H])c6F)c([H])c5[H])c(C(=O)N([H])[H])c4N([H])[H])C3([H])[H])c([H])c([H])c2C1([H])[H]

$$$$
16:0:0
     RDKit          3D

 96103  0  0  1  0  0  0  0  0999 V2000
  -29.3750  -22.8810   19.4090 C   0  0  0  0  0  3  0  0  0  0  0  0
  -28.7130  -24.0900   20.1610 C   0  0  0  0  0  0  0  0  0  0  0  0
  -28.4590  -24.0210   21.3680 O   0  0  0  0  0  0  0  0  0  0  0  0
  -28.4330  -25.4000   19.3620 C   0  0  0  0  0  2  0  0  0  0  0  0
  -28.2430  -26.5730   20.2070 O   0  0  0  0  0  0  0  0  0  0  0  0
  -24.5340  -31.8960   23.2220 C   0  0  0  0  0  0  0  0  0  0  0  0
  -27.0600  -27.3060   20.1930 C   0  0  0  0  0  0  0  0  0  0  0  0
  -23.2730  -30.4600   21.6520 C   0  0  0  0  0  3  0  0  0  0  0  0
  -24.6740  -28.8650   20.2290 C   0  0  0  0  0  0  0  0  0  0  0  0
  -25.7990  -30.7800   21.3770 C   0  0  0  0  0  2  0  0  0  0  0  0
  -25.8540  -29.3860   20.7720 C   0  0  0  0  0  0  0  0  0  0  0  0
  -27.0440  -28.6130   20.7500 C   0  0  0  0  0  3  0  0  0  0  0  0
  -25.8480  -26.8040   19.6610 C   0  0  0  0  0  3  0  0  0  0  0  0
  -24.6680  -27.5750   19.6730 C   0  0  0  0  0  3  0  0  0  0  0  0
  -23.4430  -29.7430   20.2860 C   0  0  0  0  0  2  0  0  0  0  0  0
  -24.5560  -31.0630   22.1410 N   0  0  0  0  0  0  0  0  0  0  0  0
  -23.4700  -32.1900   23.7820 O   0  0  0  0  0  0  0  0  0  0  0  0
  -22.6370  -29.4720   22.6560 C   0  0  0  0  0  0  0  0  0  0  0  0
  -21.3190  -29.2480   22.5270 N   0  0  0  0  0  0  0  0  0  0  0  0
  -23.3280  -28.9060   23.5070 O   0  0  0  0  0  0  0  0  0  0  0  0
  -20.8190  -29.7540   21.8110 H   0  0  0  0  0  0  0  0  0  0  0  0
  -17.9880  -27.9280   23.0040 C   0  0  0  0  0  0  0  0  0  0  0  0
  -20.5200  -28.3280   23.3390 C   0  0  0  0  0  3  0  0  0  0  0  0
  -20.7090  -26.8650   22.8740 C   0  0  0  0  0  2  0  0  0  0  0  0
  -19.6610  -26.4190   21.8500 C   0  0  0  0  0  2  0  0  0  0  0  0
  -18.2510  -26.5450   22.4340 C   0  0  0  0  0  2  0  0  0  0  0  0
  -19.0540  -28.7710   23.4130 C   0  0  0  0  0  0  0  0  0  0  0  0
  -18.7560  -30.0630   23.9010 C   0  0  0  0  0  3  0  0  0  0  0  0
  -17.4230  -30.5100   23.9900 C   0  0  0  0  0  3  0  0  0  0  0  0
  -16.3720  -29.6660   23.5950 C   0  0  0  0  0  3  0  0  0  0  0  0
  -16.6550  -28.3770   23.1070 C   0  0  0  0  0  3  0  0  0  0  0  0
  -25.8420  -32.5330   23.7880 C   0  0  0  0  0  3  0  0  0  0  0  0
  -26.4040  -31.7760   25.0510 C   0  0  1  0  0  0  0  0  0  0  0  0
  -25.3500  -31.5400   26.1570 C   0  0  0  0  0  1  0  0  0  0  0  0
  -26.9790  -30.3990   24.6470 C   0  0  0  0  0  1  0  0  0  0  0  0
  -27.5730  -32.5800   25.6690 C   0  0  0  0  0  1  0  0  0  0  0  0
  -25.5470  -33.9360   24.1100 N   0  0  0  0  0  0  0  0  0  0  0  0
  -25.8370  -34.9750   23.3170 C   0  0  0  0  0  0  0  0  0  0  0  0
  -26.4510  -34.8560   22.2530 O   0  0  0  0  0  0  0  0  0  0  0  0
  -25.0060  -34.1080   24.9440 H   0  0  0  0  0  0  0  0  0  0  0  0
  -24.0750  -36.7480   23.0380 C   0  0  0  0  0  1  0  0  0  0  0  0
  -25.3690  -36.3690   23.7760 C   0  0  0  0  0  3  0  0  0  0  0  0
  -27.5450  -37.2840   24.4490 C   0  0  0  0  0  1  0  0  0  0  0  0
  -26.3820  -37.4290   23.5770 N   0  0  0  0  0  0  0  0  0  0  0  0
  -25.9780  -38.3470   23.7370 H   0  0  0  0  0  0  0  0  0  0  0  0
  -29.8190  -21.6670   20.3200 C   0  0  0  0  0  2  0  0  0  0  0  0
  -30.4070  -20.3760   19.6270 C   0  0  0  0  0  2  0  0  0  0  0  0
  -31.4360  -19.5720   20.4950 C   0  0  0  0  0  2  0  0  0  0  0  0
  -32.8980  -15.1660   19.3710 C   0  0  0  0  0  0  0  0  0  0  0  0
  -33.2150  -13.1230   17.9750 C   0  0  0  0  0  2  0  0  0  0  0  0
  -31.9890  -12.9450   17.0530 C   0  0  0  0  0  2  0  0  0  0  0  0
  -30.8370  -12.2120   17.7690 C   0  0  0  0  0  2  0  0  0  0  0  0
  -30.5470  -12.7980   19.1720 C   0  0  0  0  0  3  0  0  0  0  0  0
  -31.8580  -12.9530   19.9760 C   0  0  0  0  0  2  0  0  0  0  0  0
  -32.7690  -13.8140   19.2000 N   0  0  0  0  0  0  0  0  0  0  0  0
  -33.6280  -15.8800   18.6670 O   0  0  0  0  0  0  0  0  0  0  0  0
  -31.5630  -17.0120   20.6700 C   0  0  0  0  0  3  0  0  0  0  0  0
  -32.0010  -15.7410   20.3700 N   0  0  0  0  0  0  0  0  0  0  0  0
  -31.8260  -18.1900   20.0210 N   0  0  0  0  0  0  0  0  0  0  0  0
  -31.5390  -15.0800   20.9690 H   0  0  0  0  0  0  0  0  0  0  0  0
  -32.3960  -18.1660   19.1830 H   0  0  0  0  0  0  0  0  0  0  0  0
  -28.2700  -12.3530   20.2900 C   0  0  0  0  0  0  0  0  0  0  0  0
  -27.7450  -11.2360   20.8780 C   0  0  0  0  0  0  0  0  0  0  0  0
  -28.7630  -10.2380   20.8100 C   0  0  0  0  0  0  0  0  0  0  0  0
  -29.5550  -12.0100   19.8980 N   0  0  0  0  0  0  0  0  0  0  0  0
  -29.8630  -10.7400   20.2650 N   0  0  0  0  0  0  0  0  0  0  0  0
  -28.7320   -8.8150   21.1740 C   0  0  0  0  0  0  0  0  0  0  0  0
  -29.8130   -8.2020   21.8470 C   0  0  0  0  0  3  0  0  0  0  0  0
  -29.7550   -6.8370   22.1990 C   0  0  0  0  0  3  0  0  0  0  0  0
  -28.6080   -6.0700   21.8840 C   0  0  0  0  0  0  0  0  0  0  0  0
  -27.5450   -6.6800   21.1940 C   0  0  0  0  0  3  0  0  0  0  0  0
  -27.6060   -8.0370   20.8400 C   0  0  0  0  0  3  0  0  0  0  0  0
  -28.4710   -4.7330   22.1700 O   0  0  0  0  0  0  0  0  0  0  0  0
  -29.2480   -4.1140   23.1150 C   0  0  0  0  0  0  0  0  0  0  0  0
  -29.4150   -4.6510   24.4120 C   0  0  0  0  0  3  0  0  0  0  0  0
  -30.1670   -3.9480   25.3720 C   0  0  0  0  0  3  0  0  0  0  0  0
  -30.7440   -2.7060   25.0450 C   0  0  0  0  0  0  0  0  0  0  0  0
  -30.5740   -2.1670   23.7580 C   0  0  0  0  0  3  0  0  0  0  0  0
  -29.8270   -2.8680   22.7950 C   0  0  0  0  0  0  0  0  0  0  0  0
  -29.6480   -2.3380   21.5630 F   0  0  0  0  0  0  0  0  0  0  0  0
  -31.4590   -2.0240   25.9700 F   0  0  0  0  0  0  0  0  0  0  0  0
  -26.3420  -11.0690   21.3890 C   0  0  0  0  0  0  0  0  0  0  0  0
  -26.1490  -10.2170   22.3890 N   0  0  0  0  0  0  0  0  0  0  0  0
  -25.4120  -11.7310   20.9300 O   0  0  0  0  0  0  0  0  0  0  0  0
  -26.9140   -9.6860   22.7810 H   0  0  0  0  0  0  0  0  0  0  0  0
  -25.2210  -10.0970   22.7720 H   0  0  0  0  0  0  0  0  0  0  0  0
  -27.7600  -13.6260   20.0400 N   0  0  0  0  0  0  0  0  0  0  0  0
  -26.7920  -13.8550   20.2400 H   0  0  0  0  0  0  0  0  0  0  0  0
  -28.2110  -14.3190   19.4560 H   0  0  0  0  0  0  0  0  0  0  0  0
  -30.6820  -17.0790   21.8970 C   0  0  0  0  0  2  0  0  0  0  0  0
  -30.6250  -18.2540   24.1890 C   0  0  0  0  0  1  0  0  0  0  0  0
  -31.4900  -17.6130   23.0940 C   0  0  0  0  0  2  0  0  0  0  0  0
  -28.5810  -22.4440   18.1500 C   0  0  0  0  0  2  0  0  0  0  0  0
  -27.2570  -21.6840   18.3710 C   0  0  0  0  0  2  0  0  0  0  0  0
  -25.6320  -20.0110   17.2630 C   0  0  0  0  0  1  0  0  0  0  0  0
  -26.9280  -20.8190   17.1410 C   0  0  0  0  0  2  0  0  0  0  0  0
  1 93  1  0
  1  2  1  0
  1 46  1  0
  2  3  2  0
  4  2  1  0
  4  5  1  0
  6 17  2  0
  7  5  1  0
  7 12  1  0
  8 16  1  0
  8 18  1  0
  9 15  1  0
  9 11  1  0
 10 16  1  0
 11 10  1  0
 12 11  2  0
 13 14  1  0
 13  7  2  0
 14  9  2  0
 15  8  1  0
 16  6  1  0
 18 20  2  0
 19 18  1  0
 21 19  1  0
 22 31  2  0
 22 27  1  0
 23 19  1  0
 23 27  1  0
 24 23  1  0
 25 26  1  0
 25 24  1  0
 26 22  1  0
 27 28  2  0
 28 29  1  0
 30 29  2  0
 31 30  1  0
 32  6  1  0
 32 37  1  0
 32 33  1  0
 33 36  1  1
 33 34  1  0
 35 33  1  0
 37 40  1  0
 38 42  1  0
 38 37  1  0
 39 38  2  0
 42 41  1  0
 44 45  1  0
 44 42  1  0
 44 43  1  0
 47 46  1  0
 47 48  1  0
 49 58  1  0
 50 55  1  0
 51 52  1  0
 51 50  1  0
 53 52  1  0
 53 65  1  0
 53 54  1  0
 55 49  1  0
 55 54  1  0
 56 49  2  0
 57 90  1  0
 58 57  1  0
 58 60  1  0
 59 48  1  0
 59 57  1  0
 61 59  1  0
 62 63  2  0
 63 82  1  0
 64 63  1  0
 64 67  1  0
 65 66  1  0
 65 62  1  0
 66 64  2  0
 67 68  1  0
 68 69  2  0
 70 73  1  0
 70 69  1  0
 71 70  2  0
 72 67  2  0
 72 71  1  0
 73 74  1  0
 74 75  1  0
 75 76  2  0
 77 76  1  0
 77 81  1  0
 78 77  2  0
 79 74  2  0
 79 78  1  0
 80 79  1  0
 82 83  1  0
 83 86  1  0
 83 85  1  0
 84 82  2  0
 87 88  1  0
 87 62  1  0
 89 87  1  0
 90 92  1  0
 92 91  1  0
 93 94  1  0
 96 95  1  0
 96 94  1  0
M  ISO  4   4 101   5 101  49 100  58 100
M  END
>  <TORSDO>  (17) 
F 26

>  <SCORE>  (17) 
-3.223

>  <name>  (17) 
16

>  <ligand_id>  (17) 
16

>  <original_smiles>  (17) 
[H]c1c([H])c([H])c2c(c1[H])C([H])([H])C([H])([H])C([H])([H])C2([H])N([H])C(=O)C1([H])N(C(=O)C([H])(N([H])C(=O)C([H])(N([H])C([H])([H])[H])C([H])([H])[H])C(C([H])([H])[H])(C([H])([H])[H])C([H])([H])[H])C([H])([H])c2c([H])c(OC([H])([H])C(=O)C([H])(C([H])([H])C([H])([H])C([H])([H])[N+]([H])=C(N([H])C(=O)N3C([H])([H])C([H])([H])C([H])([H])C([H])(n4nc(-c5c([H])c([H])c(Oc6c([H])c([H])c(F)c([H])c6F)c([H])c5[H])c(C(=O)N([H])[H])c4N([H])[H])C3([H])[H])C([H])([H])C([H])([H])C([H])([H])[H])C([H])([H])C([H])([H])C([H])([H])C([H])([H])[H])c([H])c([H])c2C1([H])[H]

>  <smiles>  (17) 
[H]c1c([H])c([H])c2c(c1[H])C([H])([H])C([H])([H])C([H])([H])C2([H])N([H])C(=O)C1([H])N(C(=O)C([H])(N([H])C(=O)C([H])(N([H])C([H])([H])[H])C([H])([H])[H])C(C([H])([H])[H])(C([H])([H])[H])C([H])([H])[H])C([H])([H])c2c([H])c(OC([H])([H])C(=O)C([H])(C([H])([H])C([H])([H])C([H])([H])[N+]([H])=C(N([H])C(=O)N3C([H])([H])C([H])([H])C([H])([H])C([H])(n4nc(-c5c([H])c([H])c(Oc6c([H])c([H])c(F)c([H])c6F)c([H])c5[H])c(C(=O)N([H])[H])c4N([H])[H])C3([H])[H])C([H])([H])C([H])([H])C([H])([H])[H])C([H])([H])C([H])([H])C([H])([H])C([H])([H])[H])c([H])c([H])c2C1([H])[H]

$$$$
17:0:0
     RDKit          3D

 89 96  0  0  1  0  0  0  0  0999 V2000
  -28.7670  -21.7810   19.5000 C   0  0  0  0  0  2  0  0  0  0  0  0
  -29.3510  -20.7000   20.4580 C   0  0  0  0  0  2  0  0  0  0  0  0
  -29.7880  -19.3810   19.7790 C   0  0  0  0  0  0  0  0  0  0  0  0
  -29.8090  -19.3180   18.5490 O   0  0  0  0  0  0  0  0  0  0  0  0
  -29.2430  -17.8420   21.7920 C   0  0  0  0  0  1  0  0  0  0  0  0
  -30.2270  -18.1590   20.6480 C   0  0  0  0  0  3  0  0  0  0  0  0
  -30.5330  -16.8960   19.7730 C   0  0  0  0  0  2  0  0  0  0  0  0
  -31.0040  -14.4790   20.0930 C   0  0  0  0  0  0  0  0  0  0  0  0
  -30.5900  -12.3410   18.9570 C   0  0  0  0  0  2  0  0  0  0  0  0
  -29.6270  -12.6050   17.7820 C   0  0  0  0  0  2  0  0  0  0  0  0
  -28.1640  -12.4960   18.2490 C   0  0  0  0  0  2  0  0  0  0  0  0
  -27.8820  -13.3140   19.5390 C   0  0  0  0  0  3  0  0  0  0  0  0
  -28.9690  -13.0780   20.6160 C   0  0  0  0  0  2  0  0  0  0  0  0
  -30.2830  -13.3290   20.0030 N   0  0  0  0  0  0  0  0  0  0  0  0
  -32.1460  -14.5920   19.6520 O   0  0  0  0  0  0  0  0  0  0  0  0
  -30.2860  -15.5720   20.3920 N   0  0  0  0  0  0  0  0  0  0  0  0
  -29.3480  -15.3950   20.7090 H   0  0  0  0  0  0  0  0  0  0  0  0
  -25.5100  -13.9420   20.3140 C   0  0  0  0  0  0  0  0  0  0  0  0
  -24.4470  -13.1770   20.7140 C   0  0  0  0  0  0  0  0  0  0  0  0
  -24.8970  -11.8240   20.6840 C   0  0  0  0  0  0  0  0  0  0  0  0
  -26.5440  -13.0520   20.0600 N   0  0  0  0  0  0  0  0  0  0  0  0
  -26.1780  -11.7720   20.3400 N   0  0  0  0  0  0  0  0  0  0  0  0
  -24.1660  -10.5680   20.9000 C   0  0  0  0  0  0  0  0  0  0  0  0
  -24.5810   -9.6330   21.8750 C   0  0  0  0  0  3  0  0  0  0  0  0
  -23.8540   -8.4410   22.0770 C   0  0  0  0  0  3  0  0  0  0  0  0
  -22.6960   -8.1740   21.3060 C   0  0  0  0  0  0  0  0  0  0  0  0
  -22.3020   -9.0950   20.3200 C   0  0  0  0  0  3  0  0  0  0  0  0
  -23.0310  -10.2810   20.1160 C   0  0  0  0  0  3  0  0  0  0  0  0
  -21.9420   -7.0300   21.4140 O   0  0  0  0  0  0  0  0  0  0  0  0
  -21.8200   -6.3610   22.6060 C   0  0  0  0  0  0  0  0  0  0  0  0
  -21.3160   -6.9890   23.7670 C   0  0  0  0  0  3  0  0  0  0  0  0
  -21.1400   -6.2480   24.9500 C   0  0  0  0  0  3  0  0  0  0  0  0
  -21.4560   -4.8760   24.9770 C   0  0  0  0  0  0  0  0  0  0  0  0
  -21.9530   -4.2460   23.8220 C   0  0  0  0  0  3  0  0  0  0  0  0
  -22.1330   -4.9880   22.6390 C   0  0  0  0  0  0  0  0  0  0  0  0
  -22.5900   -4.3710   21.5250 F   0  0  0  0  0  0  0  0  0  0  0  0
  -21.2800   -4.1600   26.1120 F   0  0  0  0  0  0  0  0  0  0  0  0
  -23.0600  -13.6660   21.0200 C   0  0  0  0  0  0  0  0  0  0  0  0
  -22.3530  -12.9870   21.9150 N   0  0  0  0  0  0  0  0  0  0  0  0
  -22.6120  -14.6910   20.5030 O   0  0  0  0  0  0  0  0  0  0  0  0
  -22.7230  -12.1570   22.3590 H   0  0  0  0  0  0  0  0  0  0  0  0
  -21.4260  -13.2990   22.1640 H   0  0  0  0  0  0  0  0  0  0  0  0
  -25.6810  -15.3090   20.1250 N   0  0  0  0  0  0  0  0  0  0  0  0
  -24.9240  -15.9740   20.2440 H   0  0  0  0  0  0  0  0  0  0  0  0
  -26.5270  -15.7340   19.7690 H   0  0  0  0  0  0  0  0  0  0  0  0
  -27.9080  -22.8630   20.2230 C   0  0  0  0  0  2  0  0  0  0  0  0
  -28.5790  -24.2070   20.6230 C   0  0  0  0  0  2  0  0  0  0  0  0
  -28.5290  -25.3350   19.5560 C   0  0  0  0  0  2  0  0  0  0  0  0
  -28.4210  -26.6520   20.1340 O   0  0  0  0  0  0  0  0  0  0  0  0
  -24.5930  -31.8490   23.2030 C   0  0  0  0  0  0  0  0  0  0  0  0
  -27.2180  -27.3470   20.1380 C   0  0  0  0  0  0  0  0  0  0  0  0
  -23.3810  -30.4360   21.5790 C   0  0  0  0  0  3  0  0  0  0  0  0
  -24.8240  -28.8790   20.1640 C   0  0  0  0  0  0  0  0  0  0  0  0
  -25.9140  -30.7720   21.3790 C   0  0  0  0  0  2  0  0  0  0  0  0
  -25.9880  -29.3950   20.7430 C   0  0  0  0  0  0  0  0  0  0  0  0
  -27.1830  -28.6360   20.7320 C   0  0  0  0  0  3  0  0  0  0  0  0
  -26.0200  -26.8420   19.5840 C   0  0  0  0  0  3  0  0  0  0  0  0
  -24.8350  -27.6000   19.5850 C   0  0  0  0  0  3  0  0  0  0  0  0
  -23.5850  -29.7470   20.2040 C   0  0  0  0  0  2  0  0  0  0  0  0
  -24.6490  -31.0350   22.1110 N   0  0  0  0  0  0  0  0  0  0  0  0
  -23.5130  -32.1340   23.7390 O   0  0  0  0  0  0  0  0  0  0  0  0
  -22.7290  -29.4220   22.5460 C   0  0  0  0  0  0  0  0  0  0  0  0
  -21.4040  -29.2450   22.4220 N   0  0  0  0  0  0  0  0  0  0  0  0
  -23.4140  -28.7970   23.3600 O   0  0  0  0  0  0  0  0  0  0  0  0
  -20.9170  -29.7930   21.7280 H   0  0  0  0  0  0  0  0  0  0  0  0
  -18.0240  -28.0890   22.9440 C   0  0  0  0  0  0  0  0  0  0  0  0
  -20.5840  -28.3180   23.1990 C   0  0  0  0  0  3  0  0  0  0  0  0
  -20.6710  -26.8890   22.6220 C   0  0  0  0  0  2  0  0  0  0  0  0
  -19.5580  -26.5750   21.6190 C   0  0  0  0  0  2  0  0  0  0  0  0
  -18.1810  -26.7370   22.2700 C   0  0  0  0  0  2  0  0  0  0  0  0
  -19.1530  -28.8400   23.3640 C   0  0  0  0  0  0  0  0  0  0  0  0
  -18.9500  -30.1090   23.9490 C   0  0  0  0  0  3  0  0  0  0  0  0
  -17.6530  -30.6260   24.1220 C   0  0  0  0  0  3  0  0  0  0  0  0
  -16.5370  -29.8730   23.7200 C   0  0  0  0  0  3  0  0  0  0  0  0
  -16.7240  -28.6050   23.1360 C   0  0  0  0  0  3  0  0  0  0  0  0
  -25.8810  -32.4800   23.8120 C   0  0  0  0  0  3  0  0  0  0  0  0
  -25.5780  -33.8780   24.1380 N   0  0  0  0  0  0  0  0  0  0  0  0
  -25.9150  -34.9270   23.3770 C   0  0  0  0  0  0  0  0  0  0  0  0
  -26.5840  -34.8160   22.3460 O   0  0  0  0  0  0  0  0  0  0  0  0
  -24.9750  -34.0360   24.9310 H   0  0  0  0  0  0  0  0  0  0  0  0
  -24.1890  -36.7200   23.0050 C   0  0  0  0  0  1  0  0  0  0  0  0
  -25.4240  -36.3160   23.8250 C   0  0  0  0  0  3  0  0  0  0  0  0
  -27.5510  -37.1980   24.6750 C   0  0  0  0  0  1  0  0  0  0  0  0
  -26.4590  -37.3670   23.7190 N   0  0  0  0  0  0  0  0  0  0  0  0
  -26.0570  -38.2900   23.8590 H   0  0  0  0  0  0  0  0  0  0  0  0
  -26.4030  -31.7110   25.0860 C   0  0  1  0  0  0  0  0  0  0  0  0
  -25.3150  -31.4710   26.1590 C   0  0  0  0  0  1  0  0  0  0  0  0
  -26.9860  -30.3320   24.6960 C   0  0  0  0  0  1  0  0  0  0  0  0
  -27.5540  -32.5080   25.7440 C   0  0  0  0  0  1  0  0  0  0  0  0
  1 46  1  0
  1  2  1  0
  3  2  1  0
  3  6  1  0
  4  3  2  0
  6  5  1  0
  7 16  1  0
  7  6  1  0
  8 16  1  0
  9 14  1  0
 10 11  1  0
 10  9  1  0
 12 11  1  0
 12 21  1  0
 12 13  1  0
 14  8  1  0
 14 13  1  0
 15  8  2  0
 16 17  1  0
 18 19  2  0
 19 38  1  0
 20 19  1  0
 20 23  1  0
 21 18  1  0
 21 22  1  0
 22 20  2  0
 23 24  1  0
 24 25  2  0
 26 29  1  0
 26 25  1  0
 27 26  2  0
 28 27  1  0
 28 23  2  0
 29 30  1  0
 30 35  2  0
 30 31  1  0
 31 32  2  0
 32 33  1  0
 33 37  1  0
 34 33  2  0
 35 34  1  0
 36 35  1  0
 38 39  1  0
 39 42  1  0
 39 41  1  0
 40 38  2  0
 43 44  1  0
 43 18  1  0
 45 43  1  0
 46 47  1  0
 48 49  1  0
 48 47  1  0
 49 51  1  0
 50 61  2  0
 51 56  1  0
 52 60  1  0
 52 62  1  0
 53 59  1  0
 53 55  1  0
 54 60  1  0
 55 54  1  0
 56 55  2  0
 57 58  1  0
 57 51  2  0
 58 53  2  0
 59 52  1  0
 60 50  1  0
 62 64  2  0
 63 62  1  0
 65 63  1  0
 66 75  2  0
 66 71  1  0
 67 63  1  0
 67 71  1  0
 68 67  1  0
 69 70  1  0
 69 68  1  0
 70 66  1  0
 71 72  2  0
 72 73  1  0
 74 73  2  0
 75 74  1  0
 76 50  1  0
 76 77  1  0
 76 86  1  0
 77 80  1  0
 78 82  1  0
 78 77  1  0
 79 78  2  0
 82 81  1  0
 84 82  1  0
 84 85  1  0
 84 83  1  0
 86 89  1  1
 86 87  1  0
 88 86  1  0
M  ISO  4   8 100  16 100  48 101  49 101
M  END
>  <TORSDO>  (18) 
F 23

>  <SCORE>  (18) 
-11.778

>  <name>  (18) 
17

>  <ligand_id>  (18) 
17

>  <original_smiles>  (18) 
[H]c1c([H])c([H])c2c(c1[H])C([H])([H])C([H])([H])C([H])([H])C2([H])N([H])C(=O)C1([H])N(C(=O)C([H])(N([H])C(=O)C([H])(N([H])C([H])([H])[H])C([H])([H])[H])C(C([H])([H])[H])(C([H])([H])[H])C([H])([H])[H])C([H])([H])c2c([H])c(OC([H])([H])C([H])([H])C([H])([H])C([H])([H])C([H])([H])C(=O)C([H])(C([H])([H])[H])C([H])([H])N([H])C(=O)N3C([H])([H])C([H])([H])C([H])([H])C([H])(n4nc(-c5c([H])c([H])c(Oc6c([H])c([H])c(F)c([H])c6F)c([H])c5[H])c(C(=O)N([H])[H])c4N([H])[H])C3([H])[H])c([H])c([H])c2C1([H])[H]

>  <smiles>  (18) 
[H]c1c([H])c([H])c2c(c1[H])C([H])([H])C([H])([H])C([H])([H])C2([H])N([H])C(=O)C1([H])N(C(=O)C([H])(N([H])C(=O)C([H])(N([H])C([H])([H])[H])C([H])([H])[H])C(C([H])([H])[H])(C([H])([H])[H])C([H])([H])[H])C([H])([H])c2c([H])c(OC([H])([H])C([H])([H])C([H])([H])C([H])([H])C([H])([H])C(=O)C([H])(C([H])([H])[H])C([H])([H])N([H])C(=O)N3C([H])([H])C([H])([H])C([H])([H])C([H])(n4nc(-c5c([H])c([H])c(Oc6c([H])c([H])c(F)c([H])c6F)c([H])c5[H])c(C(=O)N([H])[H])c4N([H])[H])C3([H])[H])c([H])c([H])c2C1([H])[H]

$$$$
18:0:0
     RDKit          3D

 95102  0  0  1  0  0  0  0  0999 V2000
  -30.3390  -21.0620   20.8420 C   0  0  0  0  0  3  0  0  0  0  0  0
  -31.7120  -21.5900   20.8000 N   0  0  0  0  0  4  0  0  0  0  0  0
  -32.3620  -20.8500   20.6110 H   0  0  0  0  0  0  0  0  0  0  0  0
  -31.9470  -21.9790   21.6970 H   0  0  0  0  0  0  0  0  0  0  0  0
  -31.8150  -22.2930   20.0930 H   0  0  0  0  0  0  0  0  0  0  0  0
  -30.2670  -19.9370   21.8980 C   0  0  0  0  0  0  0  0  0  0  0  0
  -30.6370  -18.6810   21.6000 N   0  0  0  0  0  0  0  0  0  0  0  0
  -29.9100  -20.1960   23.0480 O   0  0  0  0  0  0  0  0  0  0  0  0
  -30.5530  -18.0250   22.3650 H   0  0  0  0  0  0  0  0  0  0  0  0
  -31.1220  -18.1130   20.3430 C   0  0  0  0  0  2  0  0  0  0  0  0
  -32.1940  -17.0360   20.6190 C   0  0  0  0  0  2  0  0  0  0  0  0
  -32.0580  -14.7440   19.6300 C   0  0  0  0  0  0  0  0  0  0  0  0
  -31.5710  -12.5270   18.6640 C   0  0  0  0  0  2  0  0  0  0  0  0
  -30.5520  -12.6520   17.5140 C   0  0  0  0  0  2  0  0  0  0  0  0
  -29.1120  -12.6120   18.0560 C   0  0  0  0  0  2  0  0  0  0  0  0
  -28.8920  -13.5960   19.2360 C   0  0  0  0  0  3  0  0  0  0  0  0
  -30.0080  -13.4320   20.2920 C   0  0  0  0  0  2  0  0  0  0  0  0
  -31.3120  -13.6090   19.6240 N   0  0  0  0  0  0  0  0  0  0  0  0
  -33.0440  -14.9130   18.9060 O   0  0  0  0  0  0  0  0  0  0  0  0
  -31.6440  -15.6880   20.4830 N   0  0  0  0  0  0  0  0  0  0  0  0
  -30.8520  -15.4510   21.0610 H   0  0  0  0  0  0  0  0  0  0  0  0
  -26.6430  -14.3990   20.2020 C   0  0  0  0  0  0  0  0  0  0  0  0
  -25.5390  -13.7160   20.6370 C   0  0  0  0  0  0  0  0  0  0  0  0
  -25.8520  -12.3310   20.4920 C   0  0  0  0  0  0  0  0  0  0  0  0
  -27.5640  -13.4340   19.8260 N   0  0  0  0  0  0  0  0  0  0  0  0
  -27.0940  -12.1810   20.0540 N   0  0  0  0  0  0  0  0  0  0  0  0
  -25.0190  -11.1370   20.6920 C   0  0  0  0  0  0  0  0  0  0  0  0
  -25.3340  -10.1730   21.6750 C   0  0  0  0  0  3  0  0  0  0  0  0
  -24.5090   -9.0420   21.8600 C   0  0  0  0  0  3  0  0  0  0  0  0
  -23.3540   -8.8680   21.0590 C   0  0  0  0  0  0  0  0  0  0  0  0
  -23.0580   -9.8190   20.0660 C   0  0  0  0  0  3  0  0  0  0  0  0
  -23.8830  -10.9420   19.8810 C   0  0  0  0  0  3  0  0  0  0  0  0
  -22.5090   -7.7890   21.1500 O   0  0  0  0  0  0  0  0  0  0  0  0
  -22.2020   -7.2150   22.3580 C   0  0  0  0  0  0  0  0  0  0  0  0
  -21.5560   -7.9380   23.3840 C   0  0  0  0  0  3  0  0  0  0  0  0
  -21.1960   -7.2920   24.5820 C   0  0  0  0  0  3  0  0  0  0  0  0
  -21.4700   -5.9210   24.7530 C   0  0  0  0  0  0  0  0  0  0  0  0
  -22.1060   -5.1970   23.7300 C   0  0  0  0  0  3  0  0  0  0  0  0
  -22.4680   -5.8420   22.5350 C   0  0  0  0  0  0  0  0  0  0  0  0
  -23.0630   -5.1340   21.5440 F   0  0  0  0  0  0  0  0  0  0  0  0
  -21.1160   -5.2970   25.9020 F   0  0  0  0  0  0  0  0  0  0  0  0
  -24.2310  -14.3120   21.0710 C   0  0  0  0  0  0  0  0  0  0  0  0
  -23.5230  -13.6460   21.9780 N   0  0  0  0  0  0  0  0  0  0  0  0
  -23.8490  -15.4000   20.6430 O   0  0  0  0  0  0  0  0  0  0  0  0
  -23.8450  -12.7640   22.3470 H   0  0  0  0  0  0  0  0  0  0  0  0
  -22.6480  -14.0260   22.3100 H   0  0  0  0  0  0  0  0  0  0  0  0
  -26.9320  -15.7540   20.0730 N   0  0  0  0  0  0  0  0  0  0  0  0
  -26.2520  -16.4770   20.2800 H   0  0  0  0  0  0  0  0  0  0  0  0
  -27.7870  -16.1180   19.6700 H   0  0  0  0  0  0  0  0  0  0  0  0
  -29.3210  -22.2010   21.1360 C   0  0  0  0  0  2  0  0  0  0  0  0
  -29.1360  -23.2280   19.9930 C   0  0  0  0  0  2  0  0  0  0  0  0
  -27.0360  -24.2660   21.0200 C   0  0  0  0  0  1  0  0  0  0  0  0
  -28.4240  -24.5400   20.4090 C   0  0  0  0  0  3  0  0  0  0  0  0
  -28.3660  -25.5310   19.2130 C   0  0  0  0  0  2  0  0  0  0  0  0
  -28.2800  -26.9050   19.6030 O   0  0  0  0  0  0  0  0  0  0  0  0
  -24.4740  -31.7400   23.1260 C   0  0  0  0  0  0  0  0  0  0  0  0
  -27.0670  -27.5600   19.6610 C   0  0  0  0  0  0  0  0  0  0  0  0
  -23.2230  -30.4190   21.4500 C   0  0  0  0  0  3  0  0  0  0  0  0
  -24.6400  -29.0030   19.8720 C   0  0  0  0  0  0  0  0  0  0  0  0
  -25.7300  -30.8390   21.1730 C   0  0  0  0  0  2  0  0  0  0  0  0
  -25.8100  -29.5130   20.4470 C   0  0  0  0  0  0  0  0  0  0  0  0
  -27.0210  -28.7960   20.3410 C   0  0  0  0  0  3  0  0  0  0  0  0
  -25.8780  -27.0690   19.0720 C   0  0  0  0  0  3  0  0  0  0  0  0
  -24.6690  -27.7780   19.1860 C   0  0  0  0  0  3  0  0  0  0  0  0
  -23.3840  -29.8280   20.0240 C   0  0  0  0  0  2  0  0  0  0  0  0
  -24.4960  -31.0120   21.9740 N   0  0  0  0  0  0  0  0  0  0  0  0
  -23.4120  -31.9570   23.7260 O   0  0  0  0  0  0  0  0  0  0  0  0
  -22.6330  -29.3260   22.3710 C   0  0  0  0  0  0  0  0  0  0  0  0
  -21.3220  -29.0710   22.2300 N   0  0  0  0  0  0  0  0  0  0  0  0
  -23.3500  -28.7140   23.1650 O   0  0  0  0  0  0  0  0  0  0  0  0
  -20.8030  -29.6240   21.5620 H   0  0  0  0  0  0  0  0  0  0  0  0
  -18.0340  -27.6300   22.6180 C   0  0  0  0  0  0  0  0  0  0  0  0
  -20.5580  -28.0610   22.9610 C   0  0  0  0  0  3  0  0  0  0  0  0
  -20.7770  -26.6540   22.3580 C   0  0  0  0  0  2  0  0  0  0  0  0
  -19.7260  -26.2760   21.3110 C   0  0  0  0  0  2  0  0  0  0  0  0
  -18.3220  -26.3090   21.9220 C   0  0  0  0  0  2  0  0  0  0  0  0
  -19.0840  -28.4600   23.0920 C   0  0  0  0  0  0  0  0  0  0  0  0
  -18.7630  -29.6930   23.6990 C   0  0  0  0  0  3  0  0  0  0  0  0
  -17.4220  -30.0980   23.8400 C   0  0  0  0  0  3  0  0  0  0  0  0
  -16.3860  -29.2650   23.3840 C   0  0  0  0  0  3  0  0  0  0  0  0
  -16.6920  -28.0330   22.7800 C   0  0  0  0  0  3  0  0  0  0  0  0
  -25.7770  -32.3540   23.7300 C   0  0  0  0  0  3  0  0  0  0  0  0
  -26.3110  -31.5670   24.9890 C   0  0  1  0  0  0  0  0  0  0  0  0
  -25.2300  -31.3040   26.0630 C   0  0  0  0  0  1  0  0  0  0  0  0
  -26.8990  -30.2000   24.5690 C   0  0  0  0  0  1  0  0  0  0  0  0
  -27.4630  -32.3590   25.6520 C   0  0  0  0  0  1  0  0  0  0  0  0
  -25.4870  -33.7530   24.0730 N   0  0  0  0  0  0  0  0  0  0  0  0
  -25.8120  -34.8050   23.3090 C   0  0  0  0  0  0  0  0  0  0  0  0
  -26.4590  -34.6990   22.2640 O   0  0  0  0  0  0  0  0  0  0  0  0
  -24.9130  -33.9100   24.8880 H   0  0  0  0  0  0  0  0  0  0  0  0
  -24.0830  -36.6030   23.0010 C   0  0  0  0  0  1  0  0  0  0  0  0
  -25.3420  -36.1940   23.7820 C   0  0  0  0  0  3  0  0  0  0  0  0
  -27.4940  -37.0730   24.5700 C   0  0  0  0  0  1  0  0  0  0  0  0
  -26.3770  -37.2420   23.6440 N   0  0  0  0  0  0  0  0  0  0  0  0
  -25.9770  -38.1640   23.7930 H   0  0  0  0  0  0  0  0  0  0  0  0
  1 50  1  0
  1  6  1  0
  2  1  1  0
  2  4  1  0
  3  2  1  0
  5  2  1  0
  6  8  2  0
  7  6  1  0
  7  9  1  0
 10 11  1  0
 10  7  1  0
 12 20  1  0
 13 18  1  0
 14 15  1  0
 14 13  1  0
 16 15  1  0
 16 25  1  0
 16 17  1  0
 18 12  1  0
 18 17  1  0
 19 12  2  0
 20 11  1  0
 20 21  1  0
 22 23  2  0
 23 42  1  0
 24 23  1  0
 24 27  1  0
 25 26  1  0
 25 22  1  0
 26 24  2  0
 27 28  1  0
 28 29  2  0
 30 33  1  0
 30 29  1  0
 31 30  2  0
 32 31  1  0
 32 27  2  0
 33 34  1  0
 34 39  2  0
 34 35  1  0
 35 36  2  0
 36 37  1  0
 37 41  1  0
 38 37  2  0
 39 38  1  0
 40 39  1  0
 42 43  1  0
 43 46  1  0
 43 45  1  0
 44 42  2  0
 47 22  1  0
 47 48  1  0
 49 47  1  0
 51 53  1  0
 51 50  1  0
 53 52  1  0
 54 55  1  0
 54 53  1  0
 55 57  1  0
 56 67  2  0
 57 62  1  0
 58 66  1  0
 58 68  1  0
 59 65  1  0
 59 61  1  0
 60 66  1  0
 61 60  1  0
 62 61  2  0
 63 64  1  0
 63 57  2  0
 64 59  2  0
 65 58  1  0
 66 56  1  0
 68 70  2  0
 69 68  1  0
 71 69  1  0
 72 81  2  0
 72 77  1  0
 73 69  1  0
 73 77  1  0
 74 73  1  0
 75 76  1  0
 75 74  1  0
 76 72  1  0
 77 78  2  0
 78 79  1  0
 80 79  2  0
 81 80  1  0
 82 56  1  0
 82 87  1  0
 82 83  1  0
 83 86  1  1
 83 84  1  0
 85 83  1  0
 87 90  1  0
 88 92  1  0
 88 87  1  0
 89 88  2  0
 92 91  1  0
 94 92  1  0
 94 95  1  0
 94 93  1  0
M  ISO  4  12 100  20 100  54 101  55 101
M  END
>  <TORSDO>  (19) 
F 24

>  <SCORE>  (19) 
-10.032

>  <name>  (19) 
18

>  <ligand_id>  (19) 
18

>  <original_smiles>  (19) 
[H]c1c([H])c([H])c2c(c1[H])C([H])([H])C([H])([H])C([H])([H])C2([H])N([H])C(=O)C1([H])N(C(=O)C([H])(N([H])C(=O)C([H])(N([H])C([H])([H])[H])C([H])([H])[H])C(C([H])([H])[H])(C([H])([H])[H])C([H])([H])[H])C([H])([H])c2c([H])c(OC([H])([H])C([H])(C([H])([H])[H])C([H])([H])C([H])([H])C([H])(C(=O)N([H])C([H])([H])C([H])([H])N([H])C(=O)N3C([H])([H])C([H])([H])C([H])([H])C([H])(n4nc(-c5c([H])c([H])c(Oc6c([H])c([H])c(F)c([H])c6F)c([H])c5[H])c(C(=O)N([H])[H])c4N([H])[H])C3([H])[H])[N+]([H])([H])[H])c([H])c([H])c2C1([H])[H]

>  <smiles>  (19) 
[H]c1c([H])c([H])c2c(c1[H])C([H])([H])C([H])([H])C([H])([H])C2([H])N([H])C(=O)C1([H])N(C(=O)C([H])(N([H])C(=O)C([H])(N([H])C([H])([H])[H])C([H])([H])[H])C(C([H])([H])[H])(C([H])([H])[H])C([H])([H])[H])C([H])([H])c2c([H])c(OC([H])([H])C([H])(C([H])([H])[H])C([H])([H])C([H])([H])C([H])(C(=O)N([H])C([H])([H])C([H])([H])N([H])C(=O)N3C([H])([H])C([H])([H])C([H])([H])C([H])(n4nc(-c5c([H])c([H])c(Oc6c([H])c([H])c(F)c([H])c6F)c([H])c5[H])c(C(=O)N([H])[H])c4N([H])[H])C3([H])[H])[N+]([H])([H])[H])c([H])c([H])c2C1([H])[H]

$$$$
19:0:0
     RDKit          3D

 94102  0  0  1  0  0  0  0  0999 V2000
  -29.3390  -21.2730   18.0020 C   0  0  0  0  0  0  0  0  0  0  0  0
  -30.4960  -21.1750   18.4180 O   0  0  0  0  0  0  0  0  0  0  0  0
  -27.6650  -19.5320   19.0060 C   0  0  0  0  0  2  0  0  0  0  0  0
  -28.5900  -18.8480   20.0130 C   0  0  0  0  0  2  0  0  0  0  0  0
  -29.1890  -18.9160   17.1170 C   0  0  0  0  0  2  0  0  0  0  0  0
  -28.4160  -20.0570   17.7690 C   0  0  0  0  0  3  0  0  0  0  0  0
  -29.4620  -17.7200   19.4080 C   0  0  0  0  0  3  0  0  0  0  0  0
  -30.1500  -18.1610   18.0720 C   0  0  0  0  0  3  0  0  0  0  0  0
  -31.7630  -17.5540   16.1650 C   0  0  0  0  0  1  0  0  0  0  0  0
  -30.8410  -17.0220   17.2830 C   0  0  0  0  0  2  0  0  0  0  0  0
  -30.4820  -17.3130   20.5060 C   0  0  0  0  0  2  0  0  0  0  0  0
  -30.9330  -14.9740   21.1040 C   0  0  0  0  0  0  0  0  0  0  0  0
  -30.7400  -12.7670   20.0930 C   0  0  0  0  0  2  0  0  0  0  0  0
  -29.9480  -12.9640   18.7820 C   0  0  0  0  0  2  0  0  0  0  0  0
  -28.4400  -12.8090   19.0510 C   0  0  0  0  0  2  0  0  0  0  0  0
  -27.9590  -13.6840   20.2410 C   0  0  0  0  0  3  0  0  0  0  0  0
  -28.8930  -13.5540   21.4690 C   0  0  0  0  0  2  0  0  0  0  0  0
  -30.2760  -13.7950   21.0300 N   0  0  0  0  0  0  0  0  0  0  0  0
  -32.1320  -15.1080   20.8480 O   0  0  0  0  0  0  0  0  0  0  0  0
  -30.1340  -16.0440   21.1470 N   0  0  0  0  0  0  0  0  0  0  0  0
  -29.1790  -15.8890   21.4210 H   0  0  0  0  0  0  0  0  0  0  0  0
  -25.4970  -14.2600   20.7110 C   0  0  0  0  0  0  0  0  0  0  0  0
  -24.4050  -13.4750   20.9560 C   0  0  0  0  0  0  0  0  0  0  0  0
  -24.8800  -12.1270   20.9590 C   0  0  0  0  0  0  0  0  0  0  0  0
  -26.5700  -13.3930   20.5790 N   0  0  0  0  0  0  0  0  0  0  0  0
  -26.1950  -12.1050   20.7850 N   0  0  0  0  0  0  0  0  0  0  0  0
  -24.1500  -10.8570   21.0580 C   0  0  0  0  0  0  0  0  0  0  0  0
  -24.5070   -9.8730   22.0030 C   0  0  0  0  0  3  0  0  0  0  0  0
  -23.7810   -8.6660   22.0910 C   0  0  0  0  0  3  0  0  0  0  0  0
  -22.6820   -8.4350   21.2300 C   0  0  0  0  0  0  0  0  0  0  0  0
  -22.3420   -9.4100   20.2760 C   0  0  0  0  0  3  0  0  0  0  0  0
  -23.0700  -10.6090   20.1880 C   0  0  0  0  0  3  0  0  0  0  0  0
  -21.9290   -7.2870   21.2290 O   0  0  0  0  0  0  0  0  0  0  0  0
  -21.7650   -6.5310   22.3610 C   0  0  0  0  0  0  0  0  0  0  0  0
  -21.2060   -7.0680   23.5420 C   0  0  0  0  0  3  0  0  0  0  0  0
  -20.9950   -6.2380   24.6610 C   0  0  0  0  0  3  0  0  0  0  0  0
  -21.3310   -4.8710   24.6000 C   0  0  0  0  0  0  0  0  0  0  0  0
  -21.8850   -4.3370   23.4240 C   0  0  0  0  0  3  0  0  0  0  0  0
  -22.1000   -5.1640   22.3090 C   0  0  0  0  0  0  0  0  0  0  0  0
  -22.6140   -4.6370   21.1720 F   0  0  0  0  0  0  0  0  0  0  0  0
  -21.1240   -4.0720   25.6730 F   0  0  0  0  0  0  0  0  0  0  0  0
  -22.9810  -13.9330   21.0950 C   0  0  0  0  0  0  0  0  0  0  0  0
  -22.1850  -13.2240   21.8850 N   0  0  0  0  0  0  0  0  0  0  0  0
  -22.5820  -14.9560   20.5330 O   0  0  0  0  0  0  0  0  0  0  0  0
  -22.5210  -12.3970   22.3570 H   0  0  0  0  0  0  0  0  0  0  0  0
  -21.2240  -13.5080   22.0290 H   0  0  0  0  0  0  0  0  0  0  0  0
  -25.6690  -15.6330   20.5670 N   0  0  0  0  0  0  0  0  0  0  0  0
  -24.8900  -16.2750   20.6430 H   0  0  0  0  0  0  0  0  0  0  0  0
  -26.5510  -16.0930   20.3820 H   0  0  0  0  0  0  0  0  0  0  0  0
  -28.7720  -22.6440   17.6970 C   0  0  0  0  0  2  0  0  0  0  0  0
  -28.3890  -23.3120   19.0150 C   0  0  0  0  0  2  0  0  0  0  0  0
  -28.3650  -24.8340   18.9290 C   0  0  0  0  0  2  0  0  0  0  0  0
  -28.0950  -25.4410   20.3140 C   0  0  0  0  0  2  0  0  0  0  0  0
  -28.1880  -26.8560   20.2870 O   0  0  0  0  0  0  0  0  0  0  0  0
  -24.4790  -32.0620   23.3550 C   0  0  0  0  0  0  0  0  0  0  0  0
  -27.0050  -27.5600   20.2860 C   0  0  0  0  0  0  0  0  0  0  0  0
  -23.2180  -30.6610   21.7460 C   0  0  0  0  0  3  0  0  0  0  0  0
  -24.6240  -29.0800   20.3250 C   0  0  0  0  0  0  0  0  0  0  0  0
  -25.7460  -30.9780   21.5070 C   0  0  0  0  0  2  0  0  0  0  0  0
  -25.7990  -29.5990   20.8870 C   0  0  0  0  0  0  0  0  0  0  0  0
  -26.9930  -28.8480   20.8560 C   0  0  0  0  0  3  0  0  0  0  0  0
  -25.8120  -27.0440   19.7280 C   0  0  0  0  0  3  0  0  0  0  0  0
  -24.6240  -27.7970   19.7480 C   0  0  0  0  0  3  0  0  0  0  0  0
  -23.3960  -29.9570   20.3740 C   0  0  0  0  0  2  0  0  0  0  0  0
  -24.4990  -31.2490   22.2610 N   0  0  0  0  0  0  0  0  0  0  0  0
  -23.4130  -32.3640   23.9070 O   0  0  0  0  0  0  0  0  0  0  0  0
  -22.5690  -29.6610   22.7310 C   0  0  0  0  0  0  0  0  0  0  0  0
  -21.2560  -29.4340   22.5670 N   0  0  0  0  0  0  0  0  0  0  0  0
  -23.2440  -29.0900   23.5920 O   0  0  0  0  0  0  0  0  0  0  0  0
  -20.7770  -29.9480   21.8410 H   0  0  0  0  0  0  0  0  0  0  0  0
  -17.9180  -28.1080   22.9500 C   0  0  0  0  0  0  0  0  0  0  0  0
  -20.4400  -28.5100   23.3520 C   0  0  0  0  0  3  0  0  0  0  0  0
  -20.6410  -27.0510   22.8810 C   0  0  0  0  0  2  0  0  0  0  0  0
  -19.6220  -26.6090   21.8270 C   0  0  0  0  0  2  0  0  0  0  0  0
  -18.1970  -26.7270   22.3780 C   0  0  0  0  0  2  0  0  0  0  0  0
  -18.9710  -28.9500   23.3930 C   0  0  0  0  0  0  0  0  0  0  0  0
  -18.6650  -30.2360   23.8860 C   0  0  0  0  0  3  0  0  0  0  0  0
  -17.3320  -30.6840   23.9390 C   0  0  0  0  0  3  0  0  0  0  0  0
  -16.2910  -29.8430   23.5150 C   0  0  0  0  0  3  0  0  0  0  0  0
  -16.5830  -28.5580   23.0270 C   0  0  0  0  0  3  0  0  0  0  0  0
  -25.7880  -32.6760   23.9430 C   0  0  0  0  0  3  0  0  0  0  0  0
  -25.5160  -34.0900   24.2370 N   0  0  0  0  0  0  0  0  0  0  0  0
  -25.8580  -35.1090   23.4400 C   0  0  0  0  0  0  0  0  0  0  0  0
  -26.5090  -34.9590   22.4010 O   0  0  0  0  0  0  0  0  0  0  0  0
  -24.9400  -34.2790   25.0420 H   0  0  0  0  0  0  0  0  0  0  0  0
  -24.1560  -36.9200   23.0570 C   0  0  0  0  0  1  0  0  0  0  0  0
  -25.4040  -36.5180   23.8600 C   0  0  0  0  0  3  0  0  0  0  0  0
  -27.5670  -37.3900   24.6270 C   0  0  0  0  0  1  0  0  0  0  0  0
  -26.4540  -37.5460   23.6960 N   0  0  0  0  0  0  0  0  0  0  0  0
  -26.0650  -38.4780   23.8210 H   0  0  0  0  0  0  0  0  0  0  0  0
  -26.2980  -31.9290   25.2340 C   0  0  1  0  0  0  0  0  0  0  0  0
  -25.2020  -31.7400   26.3070 C   0  0  0  0  0  1  0  0  0  0  0  0
  -26.8610  -30.5340   24.8720 C   0  0  0  0  0  1  0  0  0  0  0  0
  -27.4610  -32.7230   25.8750 C   0  0  0  0  0  1  0  0  0  0  0  0
  1  2  2  0
  3  4  1  0
  5  6  1  0
  5  8  1  0
  6  1  1  0
  6  3  1  0
  7  4  1  0
  7 11  1  0
  8 10  1  0
  8  7  1  0
  9 10  1  0
 11 20  1  0
 12 20  1  0
 13 18  1  0
 14 15  1  0
 14 13  1  0
 16 15  1  0
 16 25  1  0
 16 17  1  0
 18 12  1  0
 18 17  1  0
 19 12  2  0
 20 21  1  0
 22 23  2  0
 23 24  1  0
 23 42  1  0
 24 27  1  0
 25 22  1  0
 25 26  1  0
 26 24  2  0
 27 28  1  0
 28 29  2  0
 30 29  1  0
 31 30  2  0
 32 31  1  0
 32 27  2  0
 33 30  1  0
 33 34  1  0
 34 35  1  0
 35 36  2  0
 37 36  1  0
 37 41  1  0
 38 37  2  0
 39 34  2  0
 39 38  1  0
 40 39  1  0
 42 43  1  0
 43 46  1  0
 43 45  1  0
 44 42  2  0
 47 48  1  0
 47 22  1  0
 49 47  1  0
 50  1  1  0
 50 51  1  0
 52 51  1  0
 52 53  1  0
 54 53  1  0
 55 66  2  0
 56 54  1  0
 56 61  1  0
 57 65  1  0
 57 67  1  0
 58 64  1  0
 58 60  1  0
 59 65  1  0
 60 59  1  0
 61 60  2  0
 62 63  1  0
 62 56  2  0
 63 58  2  0
 64 57  1  0
 65 55  1  0
 67 69  2  0
 68 67  1  0
 70 68  1  0
 71 80  2  0
 71 76  1  0
 72 68  1  0
 72 76  1  0
 73 72  1  0
 74 75  1  0
 74 73  1  0
 75 71  1  0
 76 77  2  0
 77 78  1  0
 79 78  2  0
 80 79  1  0
 81 55  1  0
 81 82  1  0
 81 91  1  0
 82 85  1  0
 83 87  1  0
 83 82  1  0
 84 83  2  0
 87 86  1  0
 89 90  1  0
 89 87  1  0
 89 88  1  0
 91 94  1  1
 91 92  1  0
 93 91  1  0
M  ISO  4  12 100  20 100  53 101  54 101
M  END
>  <TORSDO>  (20) 
F 23

>  <SCORE>  (20) 
-12.123

>  <name>  (20) 
19

>  <ligand_id>  (20) 
19

>  <original_smiles>  (20) 
[H]c1c([H])c([H])c2c(c1[H])C([H])([H])C([H])([H])C([H])([H])C2([H])N([H])C(=O)C1([H])N(C(=O)C([H])(N([H])C(=O)C([H])(N([H])C([H])([H])[H])C([H])([H])[H])C(C([H])([H])[H])(C([H])([H])[H])C([H])([H])[H])C([H])([H])c2c([H])c(OC([H])([H])C([H])([H])C([H])([H])C([H])([H])C(=O)C3([H])C([H])([H])C([H])([H])C([H])(C([H])([H])N([H])C(=O)N4C([H])([H])C([H])([H])C([H])([H])C([H])(n5nc(-c6c([H])c([H])c(Oc7c([H])c([H])c(F)c([H])c7F)c([H])c6[H])c(C(=O)N([H])[H])c5N([H])[H])C4([H])[H])C([H])(C([H])([H])C([H])([H])[H])C3([H])[H])c([H])c([H])c2C1([H])[H]

>  <smiles>  (20) 
[H]c1c([H])c([H])c2c(c1[H])C([H])([H])C([H])([H])C([H])([H])C2([H])N([H])C(=O)C1([H])N(C(=O)C([H])(N([H])C(=O)C([H])(N([H])C([H])([H])[H])C([H])([H])[H])C(C([H])([H])[H])(C([H])([H])[H])C([H])([H])[H])C([H])([H])c2c([H])c(OC([H])([H])C([H])([H])C([H])([H])C([H])([H])C(=O)C3([H])C([H])([H])C([H])([H])C([H])(C([H])([H])N([H])C(=O)N4C([H])([H])C([H])([H])C([H])([H])C([H])(n5nc(-c6c([H])c([H])c(Oc7c([H])c([H])c(F)c([H])c7F)c([H])c6[H])c(C(=O)N([H])[H])c5N([H])[H])C4([H])[H])C([H])(C([H])([H])C([H])([H])[H])C3([H])[H])c([H])c([H])c2C1([H])[H]

$$$$
20:0:0
     RDKit          3D

 97 98  0  0  1  0  0  0  0  0999 V2000
  -29.0460  -23.1520   18.6790 C   0  0  0  0  0 15  0  0  0  0  0  0
  -27.7690  -22.8220   21.4760 C   0  0  0  0  0 15  0  0  0  0  0  0
  -29.7500  -25.0120   19.6270 C   0  0  0  0  0  1  0  0  0  0  0  0
  -28.3320  -21.5670   19.8700 C   0  0  0  0  0 15  0  0  0  0  0  0
  -28.8350  -24.8060   21.7250 C   0  0  0  0  0  1  0  0  0  0  0  0
  -29.8410  -16.2260   19.7770 C   0  0  0  0  0  0  0  0  0  0  0  0
  -30.1220  -13.5000   19.0170 C   0  0  0  0  0  2  0  0  0  0  0  0
  -29.2500  -12.7330   17.9490 C   0  0  0  0  0  2  0  0  0  0  0  0
  -27.9430  -12.2030   18.5430 C   0  0  0  0  0  2  0  0  0  0  0  0
  -27.3850  -13.2400   19.5310 C   0  0  0  0  0  3  0  0  0  0  0  0
  -28.4290  -13.8730   20.5110 C   0  0  0  0  0  2  0  0  0  0  0  0
  -29.4100  -14.7270   19.7300 N   0  0  0  0  0  0  0  0  0  0  0  0
  -31.0770  -16.0540   19.5760 O   0  0  0  0  0  0  0  0  0  0  0  0
  -28.9600  -19.4920   19.8560 C   0  0  0  0  0  2  0  0  0  0  0  0
  -29.0570  -17.7630   19.8730 N   0  0  0  0  0  0  0  0  0  0  0  0
  -27.7900  -19.2580   20.1640 O   0  0  0  0  0  1  0  0  0  0  0  0
  -28.0880  -17.5200   20.0140 H   0  0  0  0  0  0  0  0  0  0  0  0
  -25.1100  -13.6720   20.5340 C   0  0  0  0  0  0  0  0  0  0  0  0
  -24.0920  -12.8700   20.9580 C   0  0  0  0  0  0  0  0  0  0  0  0
  -24.5630  -11.5250   20.8260 C   0  0  0  0  0  0  0  0  0  0  0  0
  -26.1380  -12.8280   20.1670 N   0  0  0  0  0  0  0  0  0  0  0  0
  -25.8270  -11.5200   20.3980 N   0  0  0  0  0  0  0  0  0  0  0  0
  -23.8490  -10.2530   21.0290 C   0  0  0  0  0  0  0  0  0  0  0  0
  -24.3310   -9.2620   21.9130 C   0  0  0  0  0  3  0  0  0  0  0  0
  -23.6080   -8.0650   22.1130 C   0  0  0  0  0  3  0  0  0  0  0  0
  -22.3890   -7.8480   21.4280 C   0  0  0  0  0  0  0  0  0  0  0  0
  -21.9240   -8.8270   20.5330 C   0  0  0  0  0  3  0  0  0  0  0  0
  -22.6460  -10.0150   20.3320 C   0  0  0  0  0  3  0  0  0  0  0  0
  -21.6340   -6.7040   21.5390 O   0  0  0  0  0  0  0  0  0  0  0  0
  -21.6360   -5.9470   22.6830 C   0  0  0  0  0  0  0  0  0  0  0  0
  -21.2210   -6.4730   23.9260 C   0  0  0  0  0  3  0  0  0  0  0  0
  -21.1710   -5.6420   25.0620 C   0  0  0  0  0  3  0  0  0  0  0  0
  -21.5280   -4.2840   24.9580 C   0  0  0  0  0  0  0  0  0  0  0  0
  -21.9370   -3.7560   23.7200 C   0  0  0  0  0  3  0  0  0  0  0  0
  -21.9860   -4.5840   22.5860 C   0  0  0  0  0  0  0  0  0  0  0  0
  -22.3600   -4.0650   21.3920 F   0  0  0  0  0  0  0  0  0  0  0  0
  -21.4740   -3.4830   26.0480 F   0  0  0  0  0  0  0  0  0  0  0  0
  -22.7220  -13.3300   21.3580 C   0  0  0  0  0  0  0  0  0  0  0  0
  -22.0750  -12.6110   22.2680 N   0  0  0  0  0  0  0  0  0  0  0  0
  -22.2410  -14.3670   20.9020 O   0  0  0  0  0  0  0  0  0  0  0  0
  -22.4830  -11.7720   22.6550 H   0  0  0  0  0  0  0  0  0  0  0  0
  -21.1610  -12.9010   22.5810 H   0  0  0  0  0  0  0  0  0  0  0  0
  -25.2430  -15.0510   20.3940 N   0  0  0  0  0  0  0  0  0  0  0  0
  -24.4790  -15.6890   20.5900 H   0  0  0  0  0  0  0  0  0  0  0  0
  -26.0550  -15.5080   20.0000 H   0  0  0  0  0  0  0  0  0  0  0  0
  -29.6210  -26.2930   18.7770 C   0  0  0  0  0  0  0  0  0  0  0  0
  -29.2700  -26.1500   17.5040 N   0  0  0  0  0  0  0  0  0  0  0  0
  -29.8730  -27.3980   19.2520 O   0  0  0  0  0  0  0  0  0  0  0  0
  -29.0720  -25.2300   17.1340 H   0  0  0  0  0  0  0  0  0  0  0  0
  -29.1800  -26.9540   16.9010 H   0  0  0  0  0  0  0  0  0  0  0  0
  -29.7980  -24.8590   22.8510 N   0  0  0  0  0  4  0  0  0  0  0  0
  -29.4000  -25.4110   23.5940 H   0  0  0  0  0  0  0  0  0  0  0  0
  -30.6480  -25.3210   22.5670 H   0  0  0  0  0  0  0  0  0  0  0  0
  -30.0750  -23.5200   23.3830 C   0  0  0  0  0  2  0  0  0  0  0  0
  -30.2150  -22.5060   22.2380 C   0  0  0  0  0  2  0  0  0  0  0  0
  -29.6880  -23.0470   20.8300 C   0  0  0  0  0  1  0  0  0  0  0  0
  -27.4530  -24.4610   20.2280 O   0  0  0  0  0  1  0  0  0  0  0  0
  -24.4880  -31.7200   23.0790 C   0  0  0  0  0  0  0  0  0  0  0  0
  -26.7540  -26.0560   20.2600 C   0  0  0  0  0  0  0  0  0  0  0  0
  -23.2360  -30.2940   21.5270 C   0  0  0  0  0  3  0  0  0  0  0  0
  -24.6040  -28.4680   20.1740 C   0  0  0  0  0  0  0  0  0  0  0  0
  -25.8320  -30.2130   21.4020 C   0  0  0  0  0  2  0  0  0  0  0  0
  -25.8340  -28.7070   20.7980 C   0  0  0  0  0  0  0  0  0  0  0  0
  -26.8710  -27.5500   20.8000 C   0  0  0  0  0  3  0  0  0  0  0  0
  -25.5000  -26.1740   19.5600 C   0  0  0  0  0  3  0  0  0  0  0  0
  -24.5060  -27.2260   19.5220 C   0  0  0  0  0  3  0  0  0  0  0  0
  -23.4470  -29.5090   20.1940 C   0  0  0  0  0  2  0  0  0  0  0  0
  -24.5510  -30.7880   22.0520 N   0  0  0  0  0  0  0  0  0  0  0  0
  -23.4070  -32.0900   23.5780 O   0  0  0  0  0  0  0  0  0  0  0  0
  -22.4690  -29.4170   22.5590 C   0  0  0  0  0  0  0  0  0  0  0  0
  -21.1340  -29.2680   22.4290 N   0  0  0  0  0  0  0  0  0  0  0  0
  -23.0980  -28.8590   23.4600 O   0  0  0  0  0  0  0  0  0  0  0  0
  -20.6670  -29.7670   21.6850 H   0  0  0  0  0  0  0  0  0  0  0  0
  -17.7550  -27.9940   22.9420 C   0  0  0  0  0  0  0  0  0  0  0  0
  -20.2970  -28.3820   23.2550 C   0  0  0  0  0  3  0  0  0  0  0  0
  -20.4600  -26.9050   22.8220 C   0  0  0  0  0  2  0  0  0  0  0  0
  -19.4090  -26.4550   21.8030 C   0  0  0  0  0  2  0  0  0  0  0  0
  -18.0010  -26.6010   22.3860 C   0  0  0  0  0  2  0  0  0  0  0  0
  -18.8320  -28.8360   23.3330 C   0  0  0  0  0  0  0  0  0  0  0  0
  -18.5440  -30.1290   23.8220 C   0  0  0  0  0  3  0  0  0  0  0  0
  -17.2150  -30.5850   23.9130 C   0  0  0  0  0  3  0  0  0  0  0  0
  -16.1540  -29.7460   23.5320 C   0  0  0  0  0  3  0  0  0  0  0  0
  -16.4250  -28.4520   23.0540 C   0  0  0  0  0  3  0  0  0  0  0  0
  -25.7650  -32.3790   23.6850 C   0  0  0  0  0  3  0  0  0  0  0  0
  -25.4570  -33.7860   24.0360 N   0  0  0  0  0  0  0  0  0  0  0  0
  -25.8180  -34.8650   23.3270 C   0  0  0  0  0  0  0  0  0  0  0  0
  -26.4890  -34.7820   22.2960 O   0  0  0  0  0  0  0  0  0  0  0  0
  -24.8590  -33.9250   24.8360 H   0  0  0  0  0  0  0  0  0  0  0  0
  -24.1430  -36.7330   23.0430 C   0  0  0  0  0  1  0  0  0  0  0  0
  -25.3720  -36.2560   23.8340 C   0  0  0  0  0  3  0  0  0  0  0  0
  -27.5250  -37.0700   24.6970 C   0  0  0  0  0  1  0  0  0  0  0  0
  -26.4310  -37.2870   23.7550 N   0  0  0  0  0  0  0  0  0  0  0  0
  -26.0470  -38.2130   23.9250 H   0  0  0  0  0  0  0  0  0  0  0  0
  -26.2910  -31.6280   24.9730 C   0  0  1  0  0  0  0  0  0  0  0  0
  -25.2090  -31.4120   26.0590 C   0  0  0  0  0  1  0  0  0  0  0  0
  -26.8680  -30.2410   24.6180 C   0  0  0  0  0  1  0  0  0  0  0  0
  -27.4490  -32.4310   25.6110 C   0  0  0  0  0  1  0  0  0  0  0  0
  5 51  1  0
  6 15  1  0
  7 12  1  0
  8  9  1  0
  8  7  1  0
 10  9  1  0
 10 21  1  0
 10 11  1  0
 12  6  1  0
 12 11  1  0
 13  6  2  0
 14 15  1  0
 14 16  1  0
 15 17  1  0
 18 19  2  0
 19 38  1  0
 20 19  1  0
 20 23  1  0
 21 22  1  0
 21 18  1  0
 22 20  2  0
 23 24  1  0
 24 25  2  0
 26 29  1  0
 26 25  1  0
 27 26  2  0
 28 27  1  0
 28 23  2  0
 29 30  1  0
 30 31  1  0
 31 32  2  0
 33 32  1  0
 33 37  1  0
 34 33  2  0
 35 30  2  0
 35 34  1  0
 36 35  1  0
 38 39  1  0
 39 42  1  0
 39 41  1  0
 40 38  2  0
 43 18  1  0
 43 44  1  0
 45 43  1  0
 46 48  2  0
 46  3  1  0
 47 46  1  0
 49 47  1  0
 50 47  1  0
 51 54  1  0
 51 52  1  0
 53 51  1  0
 55 54  1  0
 56 55  1  0
 57 59  1  0
 58 69  2  0
 59 64  1  0
 60 68  1  0
 60 70  1  0
 61 67  1  0
 61 63  1  0
 62 68  1  0
 63 64  2  0
 63 62  1  0
 65 59  2  0
 66 65  1  0
 66 61  2  0
 67 60  1  0
 68 58  1  0
 70 72  2  0
 71 70  1  0
 73 71  1  0
 74 83  2  0
 74 79  1  0
 75 71  1  0
 75 79  1  0
 76 75  1  0
 77 78  1  0
 77 76  1  0
 78 74  1  0
 79 80  2  0
 80 81  1  0
 82 81  2  0
 83 82  1  0
 84 58  1  0
 84 85  1  0
 84 94  1  0
 85 88  1  0
 86 90  1  0
 86 85  1  0
 87 86  2  0
 90 89  1  0
 92 90  1  0
 92 93  1  0
 92 91  1  0
 94 97  1  1
 94 95  1  0
 96 94  1  0
M  ISO  4   6 100  15 100  56 101  57 101
M  END
>  <TORSDO>  (21) 
F 21

>  <SCORE>  (21) 
-14.976

>  <name>  (21) 
20

>  <ligand_id>  (21) 
20

>  <original_smiles>  (21) 
[H]c1c([H])c([H])c2c(c1[H])C([H])([H])C([H])([H])C([H])([H])C2([H])N([H])C(=O)C1([H])N(C(=O)C([H])(N([H])C(=O)C([H])(N([H])C([H])([H])[H])C([H])([H])[H])C(C([H])([H])[H])(C([H])([H])[H])C([H])([H])[H])C([H])([H])c2c([H])c(OC([H])([H])C([H])([H])C([H])([H])[N+]([H])([H])C3([H])C([H])([H])C([H])(C(=O)N([H])C(=O)N4C([H])([H])C([H])([H])C([H])([H])C([H])(n5nc(-c6c([H])c([H])c(Oc7c([H])c([H])c(F)c([H])c7F)c([H])c6[H])c(C(=O)N([H])[H])c5N([H])[H])C4([H])[H])C([H])([H])C3([H])C(=O)N([H])[H])c([H])c([H])c2C1([H])[H]

>  <smiles>  (21) 
[H]c1c([H])c([H])c2c(c1[H])C([H])([H])C([H])([H])C([H])([H])C2([H])N([H])C(=O)C1([H])N(C(=O)C([H])(N([H])C(=O)C([H])(N([H])C([H])([H])[H])C([H])([H])[H])C(C([H])([H])[H])(C([H])([H])[H])C([H])([H])[H])C([H])([H])c2c([H])c(OC([H])([H])C([H])([H])C([H])([H])[N+]([H])([H])C3([H])C([H])([H])C([H])(C(=O)N([H])C(=O)N4C([H])([H])C([H])([H])C([H])([H])C([H])(n5nc(-c6c([H])c([H])c(Oc7c([H])c([H])c(F)c([H])c7F)c([H])c6[H])c(C(=O)N([H])[H])c5N([H])[H])C4([H])[H])C([H])([H])C3([H])C(=O)N([H])[H])c([H])c([H])c2C1([H])[H]

$$$$
21:0:0
     RDKit          3D

 91 98  0  0  1  0  0  0  0  0999 V2000
  -29.9720  -21.8340   20.3730 C   0  0  0  0  0  3  0  0  0  0  0  0
  -27.9010  -20.2900   20.4580 C   0  0  0  0  0  1  0  0  0  0  0  0
  -29.4000  -20.3830   20.0970 C   0  0  0  0  0  3  0  0  0  0  0  0
  -30.1500  -19.1520   20.7540 C   0  0  0  0  0  3  0  0  0  0  0  0
  -31.2230  -18.4120   22.9890 C   0  0  0  0  0  1  0  0  0  0  0  0
  -30.9550  -19.5660   22.0080 C   0  0  0  0  0  2  0  0  0  0  0  0
  -31.0000  -18.2660   19.7880 C   0  0  0  0  0  2  0  0  0  0  0  0
  -30.3370  -16.9600   19.2510 C   0  0  0  0  0  2  0  0  0  0  0  0
  -31.1320  -14.6680   19.9280 C   0  0  0  0  0  0  0  0  0  0  0  0
  -30.8830  -12.3450   19.1440 C   0  0  0  0  0  2  0  0  0  0  0  0
  -29.9410  -12.3650   17.9200 C   0  0  0  0  0  2  0  0  0  0  0  0
  -28.4670  -12.2720   18.3630 C   0  0  0  0  0  2  0  0  0  0  0  0
  -28.1200  -13.2700   19.5000 C   0  0  0  0  0  3  0  0  0  0  0  0
  -29.1790  -13.2270   20.6280 C   0  0  0  0  0  2  0  0  0  0  0  0
  -30.4990  -13.4640   20.0220 N   0  0  0  0  0  0  0  0  0  0  0  0
  -32.2660  -14.7880   19.4570 O   0  0  0  0  0  0  0  0  0  0  0  0
  -30.3450  -15.7540   20.1220 N   0  0  0  0  0  0  0  0  0  0  0  0
  -29.4740  -15.5580   20.5900 H   0  0  0  0  0  0  0  0  0  0  0  0
  -25.7660  -13.9730   20.2650 C   0  0  0  0  0  0  0  0  0  0  0  0
  -24.6760  -13.2460   20.6630 C   0  0  0  0  0  0  0  0  0  0  0  0
  -25.0810  -11.8770   20.6240 C   0  0  0  0  0  0  0  0  0  0  0  0
  -26.7690  -13.0510   20.0120 N   0  0  0  0  0  0  0  0  0  0  0  0
  -26.3610  -11.7830   20.2850 N   0  0  0  0  0  0  0  0  0  0  0  0
  -24.3090  -10.6450   20.8340 C   0  0  0  0  0  0  0  0  0  0  0  0
  -24.6630   -9.7140   21.8360 C   0  0  0  0  0  3  0  0  0  0  0  0
  -23.8930   -8.5460   22.0310 C   0  0  0  0  0  3  0  0  0  0  0  0
  -22.7560   -8.3020   21.2250 C   0  0  0  0  0  0  0  0  0  0  0  0
  -22.4230   -9.2200   20.2140 C   0  0  0  0  0  3  0  0  0  0  0  0
  -23.1930  -10.3790   20.0160 C   0  0  0  0  0  3  0  0  0  0  0  0
  -21.9660   -7.1830   21.3250 O   0  0  0  0  0  0  0  0  0  0  0  0
  -21.7630   -6.5510   22.5260 C   0  0  0  0  0  0  0  0  0  0  0  0
  -21.1630   -7.2080   23.6220 C   0  0  0  0  0  3  0  0  0  0  0  0
  -20.9100   -6.5000   24.8140 C   0  0  0  0  0  3  0  0  0  0  0  0
  -21.2470   -5.1360   24.9090 C   0  0  0  0  0  0  0  0  0  0  0  0
  -21.8400   -4.4800   23.8160 C   0  0  0  0  0  3  0  0  0  0  0  0
  -22.0940   -5.1840   22.6270 C   0  0  0  0  0  0  0  0  0  0  0  0
  -22.6460   -4.5410   21.5710 F   0  0  0  0  0  0  0  0  0  0  0  0
  -20.9970   -4.4540   26.0520 F   0  0  0  0  0  0  0  0  0  0  0  0
  -23.3070  -13.7800   20.9690 C   0  0  0  0  0  0  0  0  0  0  0  0
  -22.5750  -13.1180   21.8590 N   0  0  0  0  0  0  0  0  0  0  0  0
  -22.8960  -14.8190   20.4540 O   0  0  0  0  0  0  0  0  0  0  0  0
  -22.9220  -12.2770   22.2960 H   0  0  0  0  0  0  0  0  0  0  0  0
  -21.6580  -13.4590   22.1070 H   0  0  0  0  0  0  0  0  0  0  0  0
  -25.9800  -15.3360   20.0790 N   0  0  0  0  0  0  0  0  0  0  0  0
  -25.2410  -16.0200   20.2010 H   0  0  0  0  0  0  0  0  0  0  0  0
  -26.8360  -15.7400   19.7180 H   0  0  0  0  0  0  0  0  0  0  0  0
  -28.9590  -23.0230   20.1960 C   0  0  0  0  0  3  0  0  0  0  0  0
  -29.4950  -24.5000   20.2230 C   0  0  0  0  0  2  0  0  0  0  0  0
  -28.2520  -25.6260   22.1570 C   0  0  0  0  0  1  0  0  0  0  0  0
  -28.4050  -25.5550   20.6260 C   0  0  0  0  0  3  0  0  0  0  0  0
  -28.6210  -26.9220   20.1610 O   0  0  0  0  0  0  0  0  0  0  0  0
  -24.6780  -31.9570   23.3680 C   0  0  0  0  0  0  0  0  0  0  0  0
  -27.4750  -27.7070   20.1280 C   0  0  0  0  0  0  0  0  0  0  0  0
  -23.5330  -30.6000   21.6480 C   0  0  0  0  0  3  0  0  0  0  0  0
  -25.0490  -29.1770   20.1640 C   0  0  0  0  0  0  0  0  0  0  0  0
  -26.0540  -31.0310   21.5010 C   0  0  0  0  0  2  0  0  0  0  0  0
  -26.1880  -29.6950   20.7940 C   0  0  0  0  0  0  0  0  0  0  0  0
  -27.4070  -28.9700   20.7700 C   0  0  0  0  0  3  0  0  0  0  0  0
  -26.3230  -27.2270   19.4680 C   0  0  0  0  0  3  0  0  0  0  0  0
  -25.1140  -27.9450   19.4930 C   0  0  0  0  0  3  0  0  0  0  0  0
  -23.7780  -29.9970   20.2400 C   0  0  0  0  0  2  0  0  0  0  0  0
  -24.7720  -31.2090   22.2300 N   0  0  0  0  0  0  0  0  0  0  0  0
  -23.5830  -32.1730   23.9050 O   0  0  0  0  0  0  0  0  0  0  0  0
  -22.9010  -29.5160   22.5520 C   0  0  0  0  0  0  0  0  0  0  0  0
  -21.5840  -29.2960   22.3940 N   0  0  0  0  0  0  0  0  0  0  0  0
  -23.5920  -28.8780   23.3510 O   0  0  0  0  0  0  0  0  0  0  0  0
  -21.0870  -29.8660   21.7250 H   0  0  0  0  0  0  0  0  0  0  0  0
  -18.2400  -27.9870   22.8040 C   0  0  0  0  0  0  0  0  0  0  0  0
  -20.7880  -28.2990   23.1100 C   0  0  0  0  0  3  0  0  0  0  0  0
  -20.9340  -26.9030   22.4620 C   0  0  0  0  0  2  0  0  0  0  0  0
  -19.8480  -26.6030   21.4240 C   0  0  0  0  0  2  0  0  0  0  0  0
  -18.4590  -26.6790   22.0620 C   0  0  0  0  0  2  0  0  0  0  0  0
  -19.3340  -28.7550   23.2810 C   0  0  0  0  0  0  0  0  0  0  0  0
  -19.0780  -29.9810   23.9330 C   0  0  0  0  0  3  0  0  0  0  0  0
  -17.7590  -30.4390   24.1120 C   0  0  0  0  0  3  0  0  0  0  0  0
  -16.6780  -29.6660   23.6510 C   0  0  0  0  0  3  0  0  0  0  0  0
  -16.9200  -28.4430   23.0020 C   0  0  0  0  0  3  0  0  0  0  0  0
  -25.9380  -32.5970   24.0310 C   0  0  0  0  0  3  0  0  0  0  0  0
  -25.6200  -34.0030   24.3180 N   0  0  0  0  0  0  0  0  0  0  0  0
  -25.9960  -35.0380   23.5550 C   0  0  0  0  0  0  0  0  0  0  0  0
  -26.7160  -34.9100   22.5600 O   0  0  0  0  0  0  0  0  0  0  0  0
  -24.9880  -34.1760   25.0850 H   0  0  0  0  0  0  0  0  0  0  0  0
  -24.2980  -36.8310   23.0780 C   0  0  0  0  0  1  0  0  0  0  0  0
  -25.4940  -36.4370   23.9590 C   0  0  0  0  0  3  0  0  0  0  0  0
  -27.5820  -37.3360   24.8860 C   0  0  0  0  0  1  0  0  0  0  0  0
  -26.5380  -37.4820   23.8770 N   0  0  0  0  0  0  0  0  0  0  0  0
  -26.1290  -38.4070   23.9770 H   0  0  0  0  0  0  0  0  0  0  0  0
  -26.3950  -31.8490   25.3430 C   0  0  1  0  0  0  0  0  0  0  0  0
  -25.2520  -31.6230   26.3610 C   0  0  0  0  0  1  0  0  0  0  0  0
  -27.0040  -30.4690   25.0020 C   0  0  0  0  0  1  0  0  0  0  0  0
  -27.5080  -32.6620   26.0480 C   0  0  0  0  0  1  0  0  0  0  0  0
  3  1  1  0
  3  2  1  0
  3  4  1  0
  4  7  1  0
  4  6  1  0
  6  5  1  0
  8  7  1  0
  8 17  1  0
  9 15  1  0
  9 17  1  0
 10 15  1  0
 11 12  1  0
 11 10  1  0
 13 12  1  0
 13 22  1  0
 13 14  1  0
 15 14  1  0
 16  9  2  0
 17 18  1  0
 19 20  2  0
 20 39  1  0
 21 20  1  0
 21 24  1  0
 22 19  1  0
 22 23  1  0
 23 21  2  0
 24 25  1  0
 25 26  2  0
 27 30  1  0
 27 26  1  0
 28 27  2  0
 29 28  1  0
 29 24  2  0
 30 31  1  0
 31 36  2  0
 31 32  1  0
 32 33  2  0
 33 34  1  0
 34 38  1  0
 35 34  2  0
 36 35  1  0
 37 36  1  0
 39 40  1  0
 40 43  1  0
 40 42  1  0
 41 39  2  0
 44 45  1  0
 44 19  1  0
 46 44  1  0
 47 48  1  0
 47  1  2  0
 48 50  1  0
 50 49  1  0
 51 50  1  0
 52 63  2  0
 53 51  1  0
 53 58  1  0
 54 62  1  0
 54 64  1  0
 55 61  1  0
 55 57  1  0
 56 62  1  0
 57 56  1  0
 58 57  2  0
 59 60  1  0
 59 53  2  0
 60 55  2  0
 61 54  1  0
 62 52  1  0
 64 66  2  0
 65 64  1  0
 67 65  1  0
 68 77  2  0
 68 73  1  0
 69 65  1  0
 69 73  1  0
 70 69  1  0
 71 72  1  0
 71 70  1  0
 72 68  1  0
 73 74  2  0
 74 75  1  0
 76 75  2  0
 77 76  1  0
 78 52  1  0
 78 79  1  0
 78 88  1  0
 79 82  1  0
 80 84  1  0
 80 79  1  0
 81 80  2  0
 84 83  1  0
 86 84  1  0
 86 87  1  0
 86 85  1  0
 88 91  1  1
 88 89  1  0
 90 88  1  0
M  ISO  4   9 100  17 100  50 101  51 101
M  END
>  <TORSDO>  (22) 
F 24

>  <SCORE>  (22) 
-11.648

>  <name>  (22) 
21

>  <ligand_id>  (22) 
21

>  <original_smiles>  (22) 
[H]c1c([H])c([H])c2c(c1[H])C([H])([H])C([H])([H])C([H])([H])C2([H])N([H])C(=O)C1([H])N(C(=O)C([H])(N([H])C(=O)C([H])(N([H])C([H])([H])[H])C([H])([H])[H])C(C([H])([H])[H])(C([H])([H])[H])C([H])([H])[H])C([H])([H])c2c([H])c(OC([H])(C([H])([H])[H])C([H])([H])C([H])([H])C([H])([H])C([H])(C([H])([H])[H])C([H])(C([H])([H])C([H])([H])[H])C([H])([H])C([H])([H])N([H])C(=O)N3C([H])([H])C([H])([H])C([H])([H])C([H])(n4nc(-c5c([H])c([H])c(Oc6c([H])c([H])c(F)c([H])c6F)c([H])c5[H])c(C(=O)N([H])[H])c4N([H])[H])C3([H])[H])c([H])c([H])c2C1([H])[H]

>  <smiles>  (22) 
[H]c1c([H])c([H])c2c(c1[H])C([H])([H])C([H])([H])C([H])([H])C2([H])N([H])C(=O)C1([H])N(C(=O)C([H])(N([H])C(=O)C([H])(N([H])C([H])([H])[H])C([H])([H])[H])C(C([H])([H])[H])(C([H])([H])[H])C([H])([H])[H])C([H])([H])c2c([H])c(OC([H])(C([H])([H])[H])C([H])([H])C([H])([H])C([H])([H])C([H])(C([H])([H])[H])C([H])(C([H])([H])C([H])([H])[H])C([H])([H])C([H])([H])N([H])C(=O)N3C([H])([H])C([H])([H])C([H])([H])C([H])(n4nc(-c5c([H])c([H])c(Oc6c([H])c([H])c(F)c([H])c6F)c([H])c5[H])c(C(=O)N([H])[H])c4N([H])[H])C3([H])[H])c([H])c([H])c2C1([H])[H]

$$$$
22:0:0
     RDKit          3D

 96104  0  0  1  0  0  0  0  0999 V2000
  -31.2350  -21.2850   19.6530 C   0  0  0  0  0  2  0  0  0  0  0  0
  -31.5720  -19.8640   20.1000 C   0  0  0  0  0  2  0  0  0  0  0  0
  -31.6670  -22.0920   22.0140 C   0  0  0  0  0  2  0  0  0  0  0  0
  -31.9550  -22.3370   20.5170 C   0  0  0  0  0  3  0  0  0  0  0  0
  -31.2040  -19.6390   21.5850 C   0  0  0  0  0  3  0  0  0  0  0  0
  -32.0110  -20.6440   22.4570 C   0  0  0  0  0  3  0  0  0  0  0  0
  -30.4240  -20.3600   24.5150 C   0  0  0  0  0  1  0  0  0  0  0  0
  -31.8650  -20.4560   23.9910 C   0  0  0  0  0  3  0  0  0  0  0  0
  -32.4710  -21.4670   24.6160 F   0  0  0  0  0  0  0  0  0  0  0  0
  -32.2200  -24.0510   18.6540 C   0  0  0  0  0  1  0  0  0  0  0  0
  -31.6630  -23.7940   20.0690 C   0  0  0  0  0  3  0  0  0  0  0  0
  -30.1620  -24.1840   20.1780 C   0  0  0  0  0  2  0  0  0  0  0  0
  -30.2450  -26.4460   21.3640 C   0  0  0  0  0  1  0  0  0  0  0  0
  -29.8530  -25.6910   20.0790 C   0  0  0  0  0  3  0  0  0  0  0  0
  -28.3740  -25.9450   19.7230 C   0  0  0  0  0  2  0  0  0  0  0  0
  -28.2810  -27.3130   19.3540 O   0  0  0  0  0  0  0  0  0  0  0  0
  -24.6470  -31.7800   23.4630 C   0  0  0  0  0  0  0  0  0  0  0  0
  -27.0810  -27.9460   19.5550 C   0  0  0  0  0  0  0  0  0  0  0  0
  -23.3300  -30.6570   21.6910 C   0  0  0  0  0  3  0  0  0  0  0  0
  -24.6850  -29.3740   19.9530 C   0  0  0  0  0  0  0  0  0  0  0  0
  -25.8320  -31.0730   21.3910 C   0  0  0  0  0  2  0  0  0  0  0  0
  -25.8730  -29.8230   20.5390 C   0  0  0  0  0  0  0  0  0  0  0  0
  -27.0750  -29.1190   20.3330 C   0  0  0  0  0  3  0  0  0  0  0  0
  -25.8790  -27.4890   18.9740 C   0  0  0  0  0  3  0  0  0  0  0  0
  -24.6790  -28.2040   19.1680 C   0  0  0  0  0  3  0  0  0  0  0  0
  -23.4460  -30.2000   20.2110 C   0  0  0  0  0  2  0  0  0  0  0  0
  -24.6250  -31.1730   22.2410 N   0  0  0  0  0  0  0  0  0  0  0  0
  -23.6040  -31.9550   24.1080 O   0  0  0  0  0  0  0  0  0  0  0  0
  -22.7360  -29.4940   22.5150 C   0  0  0  0  0  0  0  0  0  0  0  0
  -21.4190  -29.2740   22.3730 N   0  0  0  0  0  0  0  0  0  0  0  0
  -23.4570  -28.7950   23.2330 O   0  0  0  0  0  0  0  0  0  0  0  0
  -20.8970  -29.8970   21.7720 H   0  0  0  0  0  0  0  0  0  0  0  0
  -18.1190  -27.8360   22.6560 C   0  0  0  0  0  0  0  0  0  0  0  0
  -20.6510  -28.2090   23.0150 C   0  0  0  0  0  3  0  0  0  0  0  0
  -20.8510  -26.8610   22.2840 C   0  0  0  0  0  2  0  0  0  0  0  0
  -19.7870  -26.5910   21.2160 C   0  0  0  0  0  2  0  0  0  0  0  0
  -18.3880  -26.5830   21.8400 C   0  0  0  0  0  2  0  0  0  0  0  0
  -19.1820  -28.6080   23.1940 C   0  0  0  0  0  0  0  0  0  0  0  0
  -18.8780  -29.7850   23.9130 C   0  0  0  0  0  3  0  0  0  0  0  0
  -17.5440  -30.1890   24.1030 C   0  0  0  0  0  3  0  0  0  0  0  0
  -16.4940  -29.4130   23.5830 C   0  0  0  0  0  3  0  0  0  0  0  0
  -16.7820  -28.2370   22.8640 C   0  0  0  0  0  3  0  0  0  0  0  0
  -25.9740  -32.3040   24.0950 C   0  0  0  0  0  3  0  0  0  0  0  0
  -25.7220  -33.6680   24.5790 N   0  0  0  0  0  0  0  0  0  0  0  0
  -26.1290  -34.7830   23.9570 C   0  0  0  0  0  0  0  0  0  0  0  0
  -26.8230  -34.7660   22.9370 O   0  0  0  0  0  0  0  0  0  0  0  0
  -25.1080  -33.7580   25.3750 H   0  0  0  0  0  0  0  0  0  0  0  0
  -24.5220  -36.7060   23.7480 C   0  0  0  0  0  1  0  0  0  0  0  0
  -25.6940  -36.1310   24.5610 C   0  0  0  0  0  3  0  0  0  0  0  0
  -27.8120  -36.7880   25.6150 C   0  0  0  0  0  1  0  0  0  0  0  0
  -26.7880  -37.1260   24.6300 N   0  0  0  0  0  0  0  0  0  0  0  0
  -26.4210  -38.0460   24.8570 H   0  0  0  0  0  0  0  0  0  0  0  0
  -26.5140  -31.3880   25.2590 C   0  0  1  0  0  0  0  0  0  0  0  0
  -25.4570  -31.0730   26.3420 C   0  0  0  0  0  1  0  0  0  0  0  0
  -27.0340  -30.0440   24.6960 C   0  0  0  0  0  1  0  0  0  0  0  0
  -27.7160  -32.0710   25.9510 C   0  0  0  0  0  1  0  0  0  0  0  0
  -31.3530  -18.1470   21.9750 C   0  0  0  0  0  2  0  0  0  0  0  0
  -30.6440  -17.2260   20.9640 C   0  0  0  0  0  2  0  0  0  0  0  0
  -31.2850  -14.8350   20.9230 C   0  0  0  0  0  0  0  0  0  0  0  0
  -31.1380  -12.5190   20.1040 C   0  0  0  0  0  2  0  0  0  0  0  0
  -30.3190  -12.4940   18.7970 C   0  0  0  0  0  2  0  0  0  0  0  0
  -28.8070  -12.4030   19.0890 C   0  0  0  0  0  2  0  0  0  0  0  0
  -28.3390  -13.4390   20.1440 C   0  0  0  0  0  3  0  0  0  0  0  0
  -29.2670  -13.4010   21.3800 C   0  0  0  0  0  2  0  0  0  0  0  0
  -30.6520  -13.6350   20.9260 N   0  0  0  0  0  0  0  0  0  0  0  0
  -32.3930  -15.0250   20.4120 O   0  0  0  0  0  0  0  0  0  0  0  0
  -30.5470  -15.8420   21.4060 N   0  0  0  0  0  0  0  0  0  0  0  0
  -29.6820  -15.5720   21.8510 H   0  0  0  0  0  0  0  0  0  0  0  0
  -25.9170  -14.1600   20.6550 C   0  0  0  0  0  0  0  0  0  0  0  0
  -24.7910  -13.4350   20.9430 C   0  0  0  0  0  0  0  0  0  0  0  0
  -25.1940  -12.0650   20.9460 C   0  0  0  0  0  0  0  0  0  0  0  0
  -26.9380  -13.2320   20.5090 N   0  0  0  0  0  0  0  0  0  0  0  0
  -26.4990  -11.9680   20.7350 N   0  0  0  0  0  0  0  0  0  0  0  0
  -24.4020  -10.8360   21.0820 C   0  0  0  0  0  0  0  0  0  0  0  0
  -24.7180   -9.8580   22.0500 C   0  0  0  0  0  3  0  0  0  0  0  0
  -23.9300   -8.6910   22.1720 C   0  0  0  0  0  3  0  0  0  0  0  0
  -22.8140   -8.4970   21.3240 C   0  0  0  0  0  0  0  0  0  0  0  0
  -22.5170   -9.4640   20.3480 C   0  0  0  0  0  3  0  0  0  0  0  0
  -23.3040  -10.6210   20.2230 C   0  0  0  0  0  3  0  0  0  0  0  0
  -22.0090   -7.3850   21.3540 O   0  0  0  0  0  0  0  0  0  0  0  0
  -21.8030   -6.6760   22.5100 C   0  0  0  0  0  0  0  0  0  0  0  0
  -21.1820   -7.2540   23.6390 C   0  0  0  0  0  3  0  0  0  0  0  0
  -20.9280   -6.4690   24.7820 C   0  0  0  0  0  3  0  0  0  0  0  0
  -21.2840   -5.1080   24.7950 C   0  0  0  0  0  0  0  0  0  0  0  0
  -21.8970   -4.5290   23.6700 C   0  0  0  0  0  3  0  0  0  0  0  0
  -22.1530   -5.3110   22.5300 C   0  0  0  0  0  0  0  0  0  0  0  0
  -22.7250   -4.7420   21.4410 F   0  0  0  0  0  0  0  0  0  0  0  0
  -21.0320   -4.3510   25.8890 F   0  0  0  0  0  0  0  0  0  0  0  0
  -23.4000  -13.9740   21.1120 C   0  0  0  0  0  0  0  0  0  0  0  0
  -22.5820  -13.3180   21.9280 N   0  0  0  0  0  0  0  0  0  0  0  0
  -23.0420  -15.0120   20.5550 O   0  0  0  0  0  0  0  0  0  0  0  0
  -22.8790  -12.4770   22.4020 H   0  0  0  0  0  0  0  0  0  0  0  0
  -21.6440  -13.6590   22.0810 H   0  0  0  0  0  0  0  0  0  0  0  0
  -26.1550  -15.5200   20.4910 N   0  0  0  0  0  0  0  0  0  0  0  0
  -25.4150  -16.2120   20.5440 H   0  0  0  0  0  0  0  0  0  0  0  0
  -27.0500  -15.9180   20.2300 H   0  0  0  0  0  0  0  0  0  0  0  0
  1  2  1  0
  1  4  1  0
  2  5  1  0
  3  6  1  0
  4 11  1  0
  4  3  1  0
  5 57  1  0
  5  6  1  0
  6  8  1  0
  8  7  1  0
  8  9  1  0
 11 10  1  0
 11 12  1  0
 14 12  1  0
 14 13  1  0
 15 14  1  0
 16 18  1  0
 16 15  1  0
 17 28  2  0
 18 23  1  0
 19 27  1  0
 19 29  1  0
 20 26  1  0
 20 22  1  0
 21 27  1  0
 22 21  1  0
 23 22  2  0
 24 25  1  0
 24 18  2  0
 25 20  2  0
 26 19  1  0
 27 17  1  0
 29 31  2  0
 30 29  1  0
 32 30  1  0
 33 42  2  0
 33 38  1  0
 34 30  1  0
 34 38  1  0
 35 34  1  0
 36 37  1  0
 36 35  1  0
 37 33  1  0
 38 39  2  0
 39 40  1  0
 41 40  2  0
 42 41  1  0
 43 17  1  0
 43 44  1  0
 43 53  1  0
 44 47  1  0
 45 49  1  0
 45 44  1  0
 46 45  2  0
 49 48  1  0
 49 51  1  0
 51 52  1  0
 51 50  1  0
 53 56  1  1
 53 54  1  0
 55 53  1  0
 58 67  1  0
 58 57  1  0
 59 65  1  0
 59 67  1  0
 60 65  1  0
 61 62  1  0
 61 60  1  0
 63 62  1  0
 63 72  1  0
 63 64  1  0
 65 64  1  0
 66 59  2  0
 67 68  1  0
 69 70  2  0
 70 71  1  0
 70 89  1  0
 71 74  1  0
 72 69  1  0
 72 73  1  0
 73 71  2  0
 74 75  1  0
 75 76  2  0
 77 80  1  0
 77 76  1  0
 78 77  2  0
 79 78  1  0
 79 74  2  0
 80 81  1  0
 81 86  2  0
 81 82  1  0
 82 83  2  0
 83 84  1  0
 84 88  1  0
 85 84  2  0
 86 85  1  0
 87 86  1  0
 89 90  1  0
 90 93  1  0
 90 92  1  0
 91 89  2  0
 94 95  1  0
 94 69  1  0
 96 94  1  0
M  ISO  4  15 101  16 101  59 100  67 100
M  END
>  <TORSDO>  (23) 
F 23

>  <SCORE>  (23) 
-11.352

>  <name>  (23) 
22

>  <ligand_id>  (23) 
22

>  <original_smiles>  (23) 
[H]c1c([H])c([H])c2c(c1[H])C([H])([H])C([H])([H])C([H])([H])C2([H])N([H])C(=O)C1([H])N(C(=O)C([H])(N([H])C(=O)C([H])(N([H])C([H])([H])[H])C([H])([H])[H])C(C([H])([H])[H])(C([H])([H])[H])C([H])([H])[H])C([H])([H])c2c([H])c(OC([H])([H])C([H])(C([H])([H])[H])C([H])([H])C([H])(C([H])([H])[H])C3([H])C([H])([H])C([H])([H])C([H])(C([H])([H])C([H])([H])N([H])C(=O)N4C([H])([H])C([H])([H])C([H])([H])C([H])(n5nc(-c6c([H])c([H])c(Oc7c([H])c([H])c(F)c([H])c7F)c([H])c6[H])c(C(=O)N([H])[H])c5N([H])[H])C4([H])[H])C([H])(C([H])(F)C([H])([H])[H])C3([H])[H])c([H])c([H])c2C1([H])[H]

>  <smiles>  (23) 
[H]c1c([H])c([H])c2c(c1[H])C([H])([H])C([H])([H])C([H])([H])C2([H])N([H])C(=O)C1([H])N(C(=O)C([H])(N([H])C(=O)C([H])(N([H])C([H])([H])[H])C([H])([H])[H])C(C([H])([H])[H])(C([H])([H])[H])C([H])([H])[H])C([H])([H])c2c([H])c(OC([H])([H])C([H])(C([H])([H])[H])C([H])([H])C([H])(C([H])([H])[H])C3([H])C([H])([H])C([H])([H])C([H])(C([H])([H])C([H])([H])N([H])C(=O)N4C([H])([H])C([H])([H])C([H])([H])C([H])(n5nc(-c6c([H])c([H])c(Oc7c([H])c([H])c(F)c([H])c7F)c([H])c6[H])c(C(=O)N([H])[H])c5N([H])[H])C4([H])[H])C([H])(C([H])(F)C([H])([H])[H])C3([H])[H])c([H])c([H])c2C1([H])[H]

$$$$
23:0:0
     RDKit          3D

 91 99  0  0  1  0  0  0  0  0999 V2000
  -36.1120  -20.7690   18.9480 C   0  0  0  0  0  3  0  0  0  0  0  0
  -36.1210  -24.0570   20.3880 C   0  0  0  0  0  2  0  0  0  0  0  0
  -35.1100  -23.1570   19.6710 C   0  0  0  0  0  2  0  0  0  0  0  0
  -37.1810  -23.0150   20.0360 C   0  0  0  0  0  2  0  0  0  0  0  0
  -36.0530  -21.9670   19.9260 C   0  0  0  0  0  3  0  0  0  0  0  0
  -34.5050  -18.8730   19.8170 C   0  0  0  0  0  1  0  0  0  0  0  0
  -35.9530  -19.3920   19.7790 C   0  0  0  0  0  3  0  0  0  0  0  0
  -36.8910  -18.1650   19.3650 C   0  0  0  0  0  2  0  0  0  0  0  0
  -38.5800  -17.8400   21.2920 C   0  0  0  0  0  0  0  0  0  0  0  0
  -40.5470  -16.8670   22.4380 C   0  0  0  0  0  2  0  0  0  0  0  0
  -41.1390  -15.7680   21.5300 C   0  0  0  0  0  2  0  0  0  0  0  0
  -40.4370  -14.4170   21.7770 C   0  0  0  0  0  2  0  0  0  0  0  0
  -38.8880  -14.5350   21.7930 C   0  0  0  0  0  3  0  0  0  0  0  0
  -38.4220  -15.7210   22.6620 C   0  0  0  0  0  2  0  0  0  0  0  0
  -39.1000  -16.9240   22.1630 N   0  0  0  0  0  0  0  0  0  0  0  0
  -39.1170  -18.9360   21.1110 O   0  0  0  0  0  0  0  0  0  0  0  0
  -37.5800  -17.4060   20.4660 N   0  0  0  0  0  0  0  0  0  0  0  0
  -37.2560  -16.4650   20.6320 H   0  0  0  0  0  0  0  0  0  0  0  0
  -37.0050  -12.7890   21.8460 C   0  0  0  0  0  0  0  0  0  0  0  0
  -36.9230  -11.5450   22.4120 C   0  0  0  0  0  0  0  0  0  0  0  0
  -38.1640  -11.3370   23.0890 C   0  0  0  0  0  0  0  0  0  0  0  0
  -38.2540  -13.2810   22.1910 N   0  0  0  0  0  0  0  0  0  0  0  0
  -38.9280  -12.4190   22.9950 N   0  0  0  0  0  0  0  0  0  0  0  0
  -38.6890  -10.1490   23.7720 C   0  0  0  0  0  0  0  0  0  0  0  0
  -38.2860   -9.8100   25.0840 C   0  0  0  0  0  3  0  0  0  0  0  0
  -38.7910   -8.6510   25.7120 C   0  0  0  0  0  3  0  0  0  0  0  0
  -39.7060   -7.8150   25.0290 C   0  0  0  0  0  0  0  0  0  0  0  0
  -40.1200   -8.1680   23.7320 C   0  0  0  0  0  3  0  0  0  0  0  0
  -39.6210   -9.3250   23.1100 C   0  0  0  0  0  3  0  0  0  0  0  0
  -40.2670   -6.6840   25.5700 O   0  0  0  0  0  0  0  0  0  0  0  0
  -39.4960   -5.6370   26.0060 C   0  0  0  0  0  0  0  0  0  0  0  0
  -38.7240   -4.8580   25.1160 C   0  0  0  0  0  3  0  0  0  0  0  0
  -38.0040   -3.7470   25.5960 C   0  0  0  0  0  3  0  0  0  0  0  0
  -38.0570   -3.4080   26.9620 C   0  0  0  0  0  0  0  0  0  0  0  0
  -38.8280   -4.1790   27.8490 C   0  0  0  0  0  3  0  0  0  0  0  0
  -39.5480   -5.2870   27.3710 C   0  0  0  0  0  0  0  0  0  0  0  0
  -40.3060   -6.0150   28.2270 F   0  0  0  0  0  0  0  0  0  0  0  0
  -37.3700   -2.3370   27.4220 F   0  0  0  0  0  0  0  0  0  0  0  0
  -35.7970  -10.5630   22.2480 C   0  0  0  0  0  0  0  0  0  0  0  0
  -34.7280  -10.7240   23.0200 N   0  0  0  0  0  0  0  0  0  0  0  0
  -35.8440   -9.6730   21.4000 O   0  0  0  0  0  0  0  0  0  0  0  0
  -34.6770  -11.4710   23.6970 H   0  0  0  0  0  0  0  0  0  0  0  0
  -33.9420  -10.0960   22.9260 H   0  0  0  0  0  0  0  0  0  0  0  0
  -36.1340  -13.5290   21.0510 N   0  0  0  0  0  0  0  0  0  0  0  0
  -35.2370  -13.1580   20.7590 H   0  0  0  0  0  0  0  0  0  0  0  0
  -36.3550  -14.4140   20.6120 H   0  0  0  0  0  0  0  0  0  0  0  0
  -35.1450  -21.0530   17.6850 C   0  0  0  0  0  2  0  0  0  0  0  0
  -35.7530  -21.7120   16.3560 C   0  0  0  0  0  2  0  0  0  0  0  0
  -36.9930  -22.7250   16.3880 C   0  0  0  0  0  2  0  0  0  0  0  0
  -36.6690  -24.2570   16.0670 C   0  0  0  0  0  2  0  0  0  0  0  0
  -36.0220  -24.6650   14.8000 O   0  0  0  0  0  0  0  0  0  0  0  0
  -36.4660  -28.2880    8.5570 C   0  0  0  0  0  0  0  0  0  0  0  0
  -36.7880  -25.3810   13.8760 C   0  0  0  0  0  0  0  0  0  0  0  0
  -38.5950  -27.5750    9.5870 C   0  0  0  0  0  3  0  0  0  0  0  0
  -38.4480  -26.7500   12.0040 C   0  0  0  0  0  0  0  0  0  0  0  0
  -36.5470  -28.0570   11.0500 C   0  0  0  0  0  2  0  0  0  0  0  0
  -37.0770  -27.0340   12.0490 C   0  0  0  0  0  0  0  0  0  0  0  0
  -36.2450  -26.3650   12.9940 C   0  0  0  0  0  3  0  0  0  0  0  0
  -38.1750  -25.1440   13.8180 C   0  0  0  0  0  3  0  0  0  0  0  0
  -39.0010  -25.8150   12.8950 C   0  0  0  0  0  3  0  0  0  0  0  0
  -39.2810  -27.4910   10.9770 C   0  0  0  0  0  2  0  0  0  0  0  0
  -37.1520  -27.9670    9.6920 N   0  0  0  0  0  0  0  0  0  0  0  0
  -37.0200  -28.2910    7.4490 O   0  0  0  0  0  0  0  0  0  0  0  0
  -38.8150  -26.2420    8.8350 C   0  0  0  0  0  0  0  0  0  0  0  0
  -39.2040  -26.3280    7.5530 N   0  0  0  0  0  0  0  0  0  0  0  0
  -38.6570  -25.1630    9.4120 O   0  0  0  0  0  0  0  0  0  0  0  0
  -39.3010  -27.2490    7.1480 H   0  0  0  0  0  0  0  0  0  0  0  0
  -38.7640  -25.0440    4.1990 C   0  0  0  0  0  0  0  0  0  0  0  0
  -39.5090  -25.2010    6.6700 C   0  0  0  0  0  3  0  0  0  0  0  0
  -40.9510  -25.2970    6.1220 C   0  0  0  0  0  2  0  0  0  0  0  0
  -41.0360  -26.0060    4.7650 C   0  0  0  0  0  2  0  0  0  0  0  0
  -40.1890  -25.2720    3.7220 C   0  0  0  0  0  2  0  0  0  0  0  0
  -38.4430  -25.0260    5.5820 C   0  0  0  0  0  0  0  0  0  0  0  0
  -37.0970  -24.8420    5.9700 C   0  0  0  0  0  3  0  0  0  0  0  0
  -36.0850  -24.6810    5.0040 C   0  0  0  0  0  3  0  0  0  0  0  0
  -36.4110  -24.6860    3.6370 C   0  0  0  0  0  3  0  0  0  0  0  0
  -37.7490  -24.8630    3.2370 C   0  0  0  0  0  3  0  0  0  0  0  0
  -34.9570  -28.6860    8.6000 C   0  0  0  0  0  3  0  0  0  0  0  0
  -34.7860  -29.8750    7.7540 N   0  0  0  0  0  0  0  0  0  0  0  0
  -34.8870  -31.1390    8.1880 C   0  0  0  0  0  0  0  0  0  0  0  0
  -35.0690  -31.4240    9.3730 O   0  0  0  0  0  0  0  0  0  0  0  0
  -34.6870  -29.7150    6.7630 H   0  0  0  0  0  0  0  0  0  0  0  0
  -35.9890  -33.1950    7.2470 C   0  0  0  0  0  1  0  0  0  0  0  0
  -34.7720  -32.2620    7.1400 C   0  0  0  0  0  3  0  0  0  0  0  0
  -32.4270  -32.5210    6.4570 C   0  0  0  0  0  1  0  0  0  0  0  0
  -33.5270  -33.0520    7.2590 N   0  0  0  0  0  0  0  0  0  0  0  0
  -33.6840  -34.0170    6.9810 H   0  0  0  0  0  0  0  0  0  0  0  0
  -33.9970  -27.5270    8.1240 C   0  0  1  0  0  0  0  0  0  0  0  0
  -33.8010  -27.4740    6.5910 C   0  0  0  0  0  1  0  0  0  0  0  0
  -34.5370  -26.1520    8.5810 C   0  0  0  0  0  1  0  0  0  0  0  0
  -32.6070  -27.6970    8.7790 C   0  0  0  0  0  1  0  0  0  0  0  0
  1 47  1  0
  1  7  1  0
  1  5  1  0
  3  5  1  0
  3  2  1  0
  4  2  1  0
  5  4  1  0
  7  6  1  0
  8  7  1  0
  8 17  1  0
  9 15  1  0
 11 12  1  0
 11 10  1  0
 13 12  1  0
 13 22  1  0
 13 14  1  0
 15 10  1  0
 15 14  1  0
 16  9  2  0
 17 18  1  0
 17  9  1  0
 19 22  1  0
 19 20  2  0
 20 21  1  0
 21 24  1  0
 22 23  1  0
 23 21  2  0
 24 25  1  0
 25 26  2  0
 27 30  1  0
 27 26  1  0
 28 27  2  0
 29 28  1  0
 29 24  2  0
 30 31  1  0
 31 36  1  0
 32 33  1  0
 32 31  2  0
 33 34  2  0
 34 38  1  0
 34 35  1  0
 36 35  2  0
 36 37  1  0
 39 20  1  0
 39 40  1  0
 40 42  1  0
 41 39  2  0
 43 40  1  0
 44 19  1  0
 45 44  1  0
 46 44  1  0
 48 49  1  0
 48 47  1  0
 50 49  1  0
 51 50  1  0
 52 62  1  0
 53 51  1  0
 54 64  1  0
 54 62  1  0
 54 61  1  0
 55 57  2  0
 55 60  1  0
 56 57  1  0
 57 58  1  0
 58 53  2  0
 59 53  1  0
 60 59  2  0
 61 55  1  0
 62 56  1  0
 63 52  2  0
 64 66  2  0
 65 64  1  0
 67 65  1  0
 68 73  1  0
 69 65  1  0
 70 69  1  0
 71 70  1  0
 72 68  1  0
 72 71  1  0
 73 74  2  0
 73 69  1  0
 75 74  1  0
 76 75  2  0
 77 76  1  0
 77 68  2  0
 78 52  1  0
 79 80  1  0
 79 78  1  0
 80 81  2  0
 82 79  1  0
 84 83  1  0
 84 86  1  0
 84 80  1  0
 85 86  1  0
 87 86  1  0
 88 90  1  1
 88 78  1  0
 88 91  1  0
 89 88  1  0
M  ISO  4   9 100  17 100  50 101  51 101
M  END
>  <TORSDO>  (24) 
F 23

>  <SCORE>  (24) 
-3.168

>  <name>  (24) 
23

>  <ligand_id>  (24) 
23

>  <original_smiles>  (24) 
[H]c1c([H])c([H])c2c(c1[H])C([H])([H])C([H])([H])C([H])([H])C2([H])N([H])C(=O)C1([H])N(C(=O)C([H])(N([H])C(=O)C([H])(N([H])C([H])([H])[H])C([H])([H])[H])C(C([H])([H])[H])(C([H])([H])[H])C([H])([H])[H])C([H])([H])c2c([H])c(OC([H])([H])C([H])([H])C([H])([H])C([H])([H])C([H])(C([H])(C([H])([H])[H])C([H])([H])N([H])C(=O)N3C([H])([H])C([H])([H])C([H])([H])C([H])(n4nc(-c5c([H])c([H])c(Oc6c([H])c([H])c(F)c([H])c6F)c([H])c5[H])c(C(=O)N([H])[H])c4N([H])[H])C3([H])[H])C3([H])C([H])([H])C([H])([H])C3([H])[H])c([H])c([H])c2C1([H])[H]

>  <smiles>  (24) 
[H]c1c([H])c([H])c2c(c1[H])C([H])([H])C([H])([H])C([H])([H])C2([H])N([H])C(=O)C1([H])N(C(=O)C([H])(N([H])C(=O)C([H])(N([H])C([H])([H])[H])C([H])([H])[H])C(C([H])([H])[H])(C([H])([H])[H])C([H])([H])[H])C([H])([H])c2c([H])c(OC([H])([H])C([H])([H])C([H])([H])C([H])([H])C([H])(C([H])(C([H])([H])[H])C([H])([H])N([H])C(=O)N3C([H])([H])C([H])([H])C([H])([H])C([H])(n4nc(-c5c([H])c([H])c(Oc6c([H])c([H])c(F)c([H])c6F)c([H])c5[H])c(C(=O)N([H])[H])c4N([H])[H])C3([H])[H])C3([H])C([H])([H])C([H])([H])C3([H])[H])c([H])c([H])c2C1([H])[H]

$$$$
24:0:0
     RDKit          3D

 98106  0  0  1  0  0  0  0  0999 V2000
  -29.4240  -20.6420   20.1860 C   0  0  0  0  0  3  0  0  0  0  0  0
  -29.0230  -21.8080   18.9250 C   0  0  0  0  0  2  0  0  0  0  0  0
  -29.4710  -23.4890   18.6640 C   0  0  0  0  0  3  0  0  0  0  0  0
  -28.5640  -24.8580   18.0440 C   0  0  0  0  0  3  0  0  0  0  0  0
  -28.7640  -26.4560   18.1350 O   0  0  0  0  0  0  0  0  0  0  0  0
  -25.4160  -30.7070   23.2680 C   0  0  0  0  0  0  0  0  0  0  0  0
  -27.7620  -27.4730   18.4880 C   0  0  0  0  0  0  0  0  0  0  0  0
  -24.1360  -30.0940   21.2560 C   0  0  0  0  0  3  0  0  0  0  0  0
  -25.5000  -29.1900   19.2600 C   0  0  0  0  0  0  0  0  0  0  0  0
  -26.6960  -30.3370   21.1140 C   0  0  0  0  0  2  0  0  0  0  0  0
  -26.7100  -29.3130   19.9530 C   0  0  0  0  0  0  0  0  0  0  0  0
  -27.8360  -28.4770   19.5580 C   0  0  0  0  0  3  0  0  0  0  0  0
  -26.5320  -27.5000   17.7950 C   0  0  0  0  0  3  0  0  0  0  0  0
  -25.4310  -28.3060   18.1710 C   0  0  0  0  0  3  0  0  0  0  0  0
  -24.3030  -30.0160   19.7140 C   0  0  0  0  0  2  0  0  0  0  0  0
  -25.4400  -30.3810   21.9380 N   0  0  0  0  0  0  0  0  0  0  0  0
  -24.3520  -30.7750   23.9040 O   0  0  0  0  0  0  0  0  0  0  0  0
  -23.4520  -28.8000   21.7660 C   0  0  0  0  0  0  0  0  0  0  0  0
  -22.1320  -28.6660   21.5420 N   0  0  0  0  0  0  0  0  0  0  0  0
  -24.1150  -27.9290   22.3340 O   0  0  0  0  0  0  0  0  0  0  0  0
  -21.6490  -29.4260   21.0820 H   0  0  0  0  0  0  0  0  0  0  0  0
  -18.7840  -27.2830   21.4130 C   0  0  0  0  0  0  0  0  0  0  0  0
  -21.3170  -27.5000   21.8920 C   0  0  0  0  0  3  0  0  0  0  0  0
  -21.5010  -26.3610   20.8610 C   0  0  0  0  0  2  0  0  0  0  0  0
  -20.4580  -26.3880   19.7400 C   0  0  0  0  0  2  0  0  0  0  0  0
  -19.0460  -26.2640   20.3180 C   0  0  0  0  0  2  0  0  0  0  0  0
  -19.8500  -27.8750   22.1420 C   0  0  0  0  0  0  0  0  0  0  0  0
  -19.5510  -28.8410   23.1290 C   0  0  0  0  0  3  0  0  0  0  0  0
  -18.2200  -29.2150   23.3910 C   0  0  0  0  0  3  0  0  0  0  0  0
  -17.1680  -28.6150   22.6760 C   0  0  0  0  0  3  0  0  0  0  0  0
  -17.4510  -27.6490   21.6940 C   0  0  0  0  0  3  0  0  0  0  0  0
  -26.7250  -31.0280   24.0540 C   0  0  0  0  0  3  0  0  0  0  0  0
  -27.1680  -29.8620   25.0230 C   0  0  1  0  0  0  0  0  0  0  0  0
  -26.0460  -29.3830   25.9740 C   0  0  0  0  0  1  0  0  0  0  0  0
  -27.6590  -28.6340   24.2230 C   0  0  0  0  0  1  0  0  0  0  0  0
  -28.3620  -30.3270   25.8900 C   0  0  0  0  0  1  0  0  0  0  0  0
  -26.5010  -32.2660   24.8180 N   0  0  0  0  0  0  0  0  0  0  0  0
  -27.0500  -33.4540   24.5310 C   0  0  0  0  0  0  0  0  0  0  0  0
  -27.8620  -33.6080   23.6150 O   0  0  0  0  0  0  0  0  0  0  0  0
  -25.8050  -32.2260   25.5480 H   0  0  0  0  0  0  0  0  0  0  0  0
  -25.6630  -35.5520   24.6150 C   0  0  0  0  0  1  0  0  0  0  0  0
  -26.6390  -34.6600   25.3990 C   0  0  0  0  0  3  0  0  0  0  0  0
  -28.6130  -34.7870   26.8550 C   0  0  0  0  0  1  0  0  0  0  0  0
  -27.7850  -35.4710   25.8650 N   0  0  0  0  0  0  0  0  0  0  0  0
  -27.4650  -36.3470   26.2710 H   0  0  0  0  0  0  0  0  0  0  0  0
  -29.2010  -21.3400   21.5500 C   0  0  0  0  0  2  0  0  0  0  0  0
  -28.9050  -22.8570   21.4810 C   0  0  0  0  0  2  0  0  0  0  0  0
  -29.6140  -25.1830   24.0020 C   0  0  0  0  0  2  0  0  0  0  0  0
  -28.1460  -25.5500   23.8550 C   0  0  0  0  0  2  0  0  0  0  0  0
  -29.6250  -23.6820   23.7180 C   0  0  0  0  0  2  0  0  0  0  0  0
  -27.6570  -24.6360   22.7200 C   0  0  0  0  0  3  0  0  0  0  0  0
  -28.4890  -23.4050   22.8010 N   0  0  1  0  0  4  0  0  0  0  0  0
  -27.9190  -22.7030   23.2500 H   0  0  0  0  0  0  0  0  0  0  0  0
  -26.1490  -24.3120   22.8130 C   0  0  0  0  0  2  0  0  0  0  0  0
  -23.8190  -24.7740   21.8730 C   0  0  0  0  0  1  0  0  0  0  0  0
  -25.2600  -25.2820   22.0160 C   0  0  0  0  0  2  0  0  0  0  0  0
  -28.9010  -18.9710   20.4110 C   0  0  0  0  0  3  0  0  0  0  0  0
  -27.4550  -19.0030   20.6940 N   0  0  0  0  0  4  0  0  0  0  0  0
  -27.2580  -19.3720   21.6070 H   0  0  0  0  0  0  0  0  0  0  0  0
  -27.0610  -18.0810   20.6250 H   0  0  0  0  0  0  0  0  0  0  0  0
  -26.9850  -19.5790   20.0170 H   0  0  0  0  0  0  0  0  0  0  0  0
  -29.6420  -17.7040   21.3890 C   0  0  0  0  0  2  0  0  0  0  0  0
  -30.6060  -16.3330   21.0110 C   0  0  0  0  0  0  0  0  0  0  0  0
  -30.8400  -13.9860   19.9810 C   0  0  0  0  0  2  0  0  0  0  0  0
  -30.0030  -13.8740   18.6810 C   0  0  0  0  0  2  0  0  0  0  0  0
  -28.5480  -13.4820   18.9990 C   0  0  0  0  0  2  0  0  0  0  0  0
  -27.9670  -14.3050   20.1780 C   0  0  0  0  0  3  0  0  0  0  0  0
  -28.9370  -14.3920   21.3740 C   0  0  0  0  0  2  0  0  0  0  0  0
  -30.1870  -14.9910   20.8840 N   0  0  0  0  0  0  0  0  0  0  0  0
  -31.8070  -16.5050   20.7580 O   0  0  0  0  0  0  0  0  0  0  0  0
  -25.5080  -14.6140   20.7950 C   0  0  0  0  0  0  0  0  0  0  0  0
  -24.5010  -13.7240   21.0470 C   0  0  0  0  0  0  0  0  0  0  0  0
  -25.0900  -12.4250   20.9660 C   0  0  0  0  0  0  0  0  0  0  0  0
  -26.6400  -13.8490   20.5710 N   0  0  0  0  0  0  0  0  0  0  0  0
  -26.3960  -12.5240   20.7400 N   0  0  0  0  0  0  0  0  0  0  0  0
  -24.4700  -11.0940   21.0320 C   0  0  0  0  0  0  0  0  0  0  0  0
  -24.8840  -10.1330   21.9800 C   0  0  0  0  0  3  0  0  0  0  0  0
  -24.2600   -8.8670   22.0360 C   0  0  0  0  0  3  0  0  0  0  0  0
  -23.2070   -8.5550   21.1430 C   0  0  0  0  0  0  0  0  0  0  0  0
  -22.8140   -9.5070   20.1850 C   0  0  0  0  0  3  0  0  0  0  0  0
  -23.4400  -10.7630   20.1270 C   0  0  0  0  0  3  0  0  0  0  0  0
  -22.5590   -7.3440   21.1070 O   0  0  0  0  0  0  0  0  0  0  0  0
  -22.3970   -6.5810   22.2360 C   0  0  0  0  0  0  0  0  0  0  0  0
  -21.7390   -7.0760   23.3820 C   0  0  0  0  0  3  0  0  0  0  0  0
  -21.5310   -6.2350   24.4940 C   0  0  0  0  0  3  0  0  0  0  0  0
  -21.9740   -4.9000   24.4600 C   0  0  0  0  0  0  0  0  0  0  0  0
  -22.6250   -4.4030   23.3170 C   0  0  0  0  0  3  0  0  0  0  0  0
  -22.8330   -5.2400   22.2070 C   0  0  0  0  0  0  0  0  0  0  0  0
  -23.4430   -4.7500   21.1010 F   0  0  0  0  0  0  0  0  0  0  0  0
  -21.7680   -4.0890   25.5240 F   0  0  0  0  0  0  0  0  0  0  0  0
  -23.0520  -14.0580   21.2480 C   0  0  0  0  0  0  0  0  0  0  0  0
  -22.3430  -13.2590   22.0360 N   0  0  0  0  0  0  0  0  0  0  0  0
  -22.5510  -15.0620   20.7420 O   0  0  0  0  0  0  0  0  0  0  0  0
  -22.7620  -12.4470   22.4650 H   0  0  0  0  0  0  0  0  0  0  0  0
  -21.3690  -13.4580   22.2100 H   0  0  0  0  0  0  0  0  0  0  0  0
  -25.5530  -16.0020   20.7110 N   0  0  0  0  0  0  0  0  0  0  0  0
  -24.7030  -16.5540   20.7430 H   0  0  0  0  0  0  0  0  0  0  0  0
  -26.3520  -16.5210   20.3770 H   0  0  0  0  0  0  0  0  0  0  0  0
  1  2  1  0
  1 57  1  0
  1 46  1  0
  3  2  1  0
  4  5  1  0
  4  3  2  0
  5  7  1  0
  6 17  2  0
  7 12  1  0
  8 18  1  0
  8 16  1  0
  9 15  1  0
  9 11  1  0
 10 16  1  0
 11 10  1  0
 12 11  2  0
 13 14  1  0
 13  7  2  0
 14  9  2  0
 15  8  1  0
 16  6  1  0
 18 20  2  0
 19 18  1  0
 21 19  1  0
 22 31  2  0
 22 27  1  0
 23 19  1  0
 23 27  1  0
 24 23  1  0
 25 26  1  0
 25 24  1  0
 26 22  1  0
 27 28  2  0
 28 29  1  0
 30 29  2  0
 31 30  1  0
 32  6  1  0
 32 37  1  0
 32 33  1  0
 33 36  1  1
 33 34  1  0
 35 33  1  0
 37 40  1  0
 38 37  1  0
 38 42  1  0
 39 38  2  0
 42 41  1  0
 42 44  1  0
 44 45  1  0
 44 43  1  0
 47 46  1  0
 47 52  1  0
 49 48  1  0
 50 48  1  0
 51 52  1  0
 51 54  1  0
 51 49  1  0
 52 53  1  1
 52 50  1  0
 55 56  1  0
 56 54  1  0
 57 58  1  0
 57 62  1  0
 58 59  1  0
 60 58  1  0
 61 58  1  0
 63 62  1  0
 64 69  1  0
 65 66  1  0
 65 64  1  0
 67 66  1  0
 67 74  1  0
 67 68  1  0
 69 63  1  0
 69 68  1  0
 70 63  2  0
 71 72  2  0
 72 91  1  0
 73 76  1  0
 73 72  1  0
 74 75  1  0
 74 71  1  0
 75 73  2  0
 76 77  1  0
 77 78  2  0
 79 78  1  0
 80 79  2  0
 81 80  1  0
 81 76  2  0
 82 79  1  0
 82 83  1  0
 83 84  1  0
 84 85  2  0
 86 85  1  0
 86 90  1  0
 87 86  2  0
 88 83  2  0
 88 87  1  0
 89 88  1  0
 91 92  1  0
 92 95  1  0
 92 94  1  0
 93 91  2  0
 96 97  1  0
 96 71  1  0
 98 96  1  0
M  ISO  4   4 101   5 101  62 100  63 100
M  END
>  <TORSDO>  (25) 
F 27

>  <SCORE>  (25) 
-7.804

>  <name>  (25) 
24

>  <ligand_id>  (25) 
24

>  <original_smiles>  (25) 
[H]c1c([H])c([H])c2c(c1[H])C([H])([H])C([H])([H])C([H])([H])C2([H])N([H])C(=O)C1([H])N(C(=O)C([H])(N([H])C(=O)C([H])(N([H])C([H])([H])[H])C([H])([H])[H])C(C([H])([H])[H])(C([H])([H])[H])C([H])([H])[H])C([H])([H])c2c([H])c(OC([H])([H])C([H])([H])C([H])([H])C([H])(C([H])([H])C([H])([H])[N+]3([H])C([H])([H])C([H])([H])C([H])([H])C3([H])C([H])([H])C([H])([H])C([H])([H])[H])C([H])(C([H])([H])C(=O)N3C([H])([H])C([H])([H])C([H])([H])C([H])(n4nc(-c5c([H])c([H])c(Oc6c([H])c([H])c(F)c([H])c6F)c([H])c5[H])c(C(=O)N([H])[H])c4N([H])[H])C3([H])[H])[N+]([H])([H])[H])c([H])c([H])c2C1([H])[H]

>  <smiles>  (25) 
[H]c1c([H])c([H])c2c(c1[H])C([H])([H])C([H])([H])C([H])([H])C2([H])N([H])C(=O)C1([H])N(C(=O)C([H])(N([H])C(=O)C([H])(N([H])C([H])([H])[H])C([H])([H])[H])C(C([H])([H])[H])(C([H])([H])[H])C([H])([H])[H])C([H])([H])c2c([H])c(OC([H])([H])C([H])([H])C([H])([H])C([H])(C([H])([H])C([H])([H])[N+]3([H])C([H])([H])C([H])([H])C([H])([H])C3([H])C([H])([H])C([H])([H])C([H])([H])[H])C([H])(C([H])([H])C(=O)N3C([H])([H])C([H])([H])C([H])([H])C([H])(n4nc(-c5c([H])c([H])c(Oc6c([H])c([H])c(F)c([H])c6F)c([H])c5[H])c(C(=O)N([H])[H])c4N([H])[H])C3([H])[H])[N+]([H])([H])[H])c([H])c([H])c2C1([H])[H]

$$$$
25:0:0
     RDKit          3D

 90 97  0  0  1  0  0  0  0  0999 V2000
  -29.3630  -23.1300   20.6890 C   0  0  0  0  0  2  0  0  0  0  0  0
  -28.9690  -22.0040   19.7130 C   0  0  0  0  0  0  0  0  0  0  0  0
  -28.8920  -22.2230   18.5030 O   0  0  0  0  0  0  0  0  0  0  0  0
  -28.6730  -20.5970   20.2780 C   0  0  0  0  0  2  0  0  0  0  0  0
  -29.6970  -19.5000   19.8770 C   0  0  0  0  0  2  0  0  0  0  0  0
  -29.3030  -18.0610   20.3180 C   0  0  0  0  0  2  0  0  0  0  0  0
  -30.4480  -17.0280   20.1470 C   0  0  0  0  0  2  0  0  0  0  0  0
  -30.7960  -14.5600   20.0940 C   0  0  0  0  0  0  0  0  0  0  0  0
  -30.4320  -12.4080   18.9630 C   0  0  0  0  0  2  0  0  0  0  0  0
  -29.4480  -12.6550   17.8010 C   0  0  0  0  0  2  0  0  0  0  0  0
  -27.9870  -12.5460   18.2820 C   0  0  0  0  0  2  0  0  0  0  0  0
  -27.7160  -13.3450   19.5840 C   0  0  0  0  0  3  0  0  0  0  0  0
  -28.8180  -13.0940   20.6400 C   0  0  0  0  0  2  0  0  0  0  0  0
  -30.1180  -13.3840   20.0180 N   0  0  0  0  0  0  0  0  0  0  0  0
  -31.9370  -14.7060   19.6470 O   0  0  0  0  0  0  0  0  0  0  0  0
  -30.0620  -15.6360   20.4480 N   0  0  0  0  0  0  0  0  0  0  0  0
  -29.1290  -15.4640   20.7870 H   0  0  0  0  0  0  0  0  0  0  0  0
  -25.3530  -13.9580   20.3980 C   0  0  0  0  0  0  0  0  0  0  0  0
  -24.2980  -13.1880   20.8070 C   0  0  0  0  0  0  0  0  0  0  0  0
  -24.7490  -11.8330   20.7410 C   0  0  0  0  0  0  0  0  0  0  0  0
  -26.3820  -13.0700   20.1160 N   0  0  0  0  0  0  0  0  0  0  0  0
  -26.0240  -11.7870   20.3780 N   0  0  0  0  0  0  0  0  0  0  0  0
  -24.0200  -10.5750   20.9450 C   0  0  0  0  0  0  0  0  0  0  0  0
  -24.4660   -9.6050   21.8720 C   0  0  0  0  0  3  0  0  0  0  0  0
  -23.7380   -8.4110   22.0650 C   0  0  0  0  0  3  0  0  0  0  0  0
  -22.5510   -8.1770   21.3320 C   0  0  0  0  0  0  0  0  0  0  0  0
  -22.1240   -9.1350   20.3960 C   0  0  0  0  0  3  0  0  0  0  0  0
  -22.8530  -10.3200   20.1990 C   0  0  0  0  0  3  0  0  0  0  0  0
  -21.7930   -7.0340   21.4360 O   0  0  0  0  0  0  0  0  0  0  0  0
  -21.7560   -6.2970   22.5940 C   0  0  0  0  0  0  0  0  0  0  0  0
  -21.3180   -6.8530   23.8140 C   0  0  0  0  0  3  0  0  0  0  0  0
  -21.2270   -6.0430   24.9640 C   0  0  0  0  0  3  0  0  0  0  0  0
  -21.5660   -4.6780   24.8930 C   0  0  0  0  0  0  0  0  0  0  0  0
  -21.9990   -4.1240   23.6760 C   0  0  0  0  0  3  0  0  0  0  0  0
  -22.0910   -4.9300   22.5290 C   0  0  0  0  0  0  0  0  0  0  0  0
  -22.4890   -4.3850   21.3540 F   0  0  0  0  0  0  0  0  0  0  0  0
  -21.4740   -3.8970   25.9950 F   0  0  0  0  0  0  0  0  0  0  0  0
  -22.9150  -13.6690   21.1410 C   0  0  0  0  0  0  0  0  0  0  0  0
  -22.2190  -12.9680   22.0320 N   0  0  0  0  0  0  0  0  0  0  0  0
  -22.4620  -14.7010   20.6500 O   0  0  0  0  0  0  0  0  0  0  0  0
  -22.5940  -12.1270   22.4450 H   0  0  0  0  0  0  0  0  0  0  0  0
  -21.2970  -13.2770   22.3020 H   0  0  0  0  0  0  0  0  0  0  0  0
  -25.5180  -15.3280   20.2190 N   0  0  0  0  0  0  0  0  0  0  0  0
  -24.7700  -15.9930   20.3850 H   0  0  0  0  0  0  0  0  0  0  0  0
  -26.3360  -15.7520   19.7990 H   0  0  0  0  0  0  0  0  0  0  0  0
  -28.4790  -24.4260   20.7150 C   0  0  0  0  0  3  0  0  0  0  0  0
  -26.4910  -23.2660   21.8980 C   0  0  0  0  0  1  0  0  0  0  0  0
  -26.9620  -24.1390   20.7240 C   0  0  0  0  0  2  0  0  0  0  0  0
  -28.8730  -25.4970   19.6520 C   0  0  0  0  0  2  0  0  0  0  0  0
  -28.7010  -26.8530   20.1190 O   0  0  0  0  0  0  0  0  0  0  0  0
  -24.6180  -31.7800   23.2520 C   0  0  0  0  0  0  0  0  0  0  0  0
  -27.4810  -27.5110   20.0900 C   0  0  0  0  0  0  0  0  0  0  0  0
  -23.5020  -30.4140   21.5170 C   0  0  0  0  0  3  0  0  0  0  0  0
  -25.0400  -28.9690   20.0830 C   0  0  0  0  0  0  0  0  0  0  0  0
  -26.0240  -30.8390   21.4180 C   0  0  0  0  0  2  0  0  0  0  0  0
  -26.1640  -29.4940   20.7300 C   0  0  0  0  0  0  0  0  0  0  0  0
  -27.3810  -28.7740   20.7290 C   0  0  0  0  0  3  0  0  0  0  0  0
  -26.3310  -27.0010   19.4410 C   0  0  0  0  0  3  0  0  0  0  0  0
  -25.1210  -27.7230   19.4350 C   0  0  0  0  0  3  0  0  0  0  0  0
  -23.7720  -29.7930   20.1200 C   0  0  0  0  0  2  0  0  0  0  0  0
  -24.7310  -31.0250   22.1220 N   0  0  0  0  0  0  0  0  0  0  0  0
  -23.5140  -32.0030   23.7670 O   0  0  0  0  0  0  0  0  0  0  0  0
  -22.8490  -29.3400   22.4160 C   0  0  0  0  0  0  0  0  0  0  0  0
  -21.5320  -29.1370   22.2440 N   0  0  0  0  0  0  0  0  0  0  0  0
  -23.5230  -28.6950   23.2240 O   0  0  0  0  0  0  0  0  0  0  0  0
  -21.0510  -29.7160   21.5710 H   0  0  0  0  0  0  0  0  0  0  0  0
  -18.1640  -27.8870   22.6280 C   0  0  0  0  0  0  0  0  0  0  0  0
  -20.7150  -28.1490   22.9460 C   0  0  0  0  0  3  0  0  0  0  0  0
  -20.8370  -26.7550   22.2880 C   0  0  0  0  0  2  0  0  0  0  0  0
  -19.7500  -26.4840   21.2440 C   0  0  0  0  0  2  0  0  0  0  0  0
  -18.3590  -26.5800   21.8790 C   0  0  0  0  0  2  0  0  0  0  0  0
  -19.2700  -28.6320   23.1160 C   0  0  0  0  0  0  0  0  0  0  0  0
  -19.0350  -29.8570   23.7760 C   0  0  0  0  0  3  0  0  0  0  0  0
  -17.7250  -30.3370   23.9550 C   0  0  0  0  0  3  0  0  0  0  0  0
  -16.6320  -29.5890   23.4830 C   0  0  0  0  0  3  0  0  0  0  0  0
  -16.8520  -28.3660   22.8260 C   0  0  0  0  0  3  0  0  0  0  0  0
  -25.8660  -32.4180   23.9390 C   0  0  0  0  0  3  0  0  0  0  0  0
  -25.5400  -33.8220   24.2260 N   0  0  0  0  0  0  0  0  0  0  0  0
  -25.9230  -34.8610   23.4710 C   0  0  0  0  0  0  0  0  0  0  0  0
  -26.6550  -34.7360   22.4850 O   0  0  0  0  0  0  0  0  0  0  0  0
  -24.8910  -33.9920   24.9790 H   0  0  0  0  0  0  0  0  0  0  0  0
  -24.2220  -36.6510   22.9850 C   0  0  0  0  0  1  0  0  0  0  0  0
  -25.4150  -36.2590   23.8710 C   0  0  0  0  0  3  0  0  0  0  0  0
  -27.4980  -37.1630   24.8080 C   0  0  0  0  0  1  0  0  0  0  0  0
  -26.4570  -37.3080   23.7950 N   0  0  0  0  0  0  0  0  0  0  0  0
  -26.0460  -38.2340   23.8900 H   0  0  0  0  0  0  0  0  0  0  0  0
  -26.3020  -31.6670   25.2570 C   0  0  1  0  0  0  0  0  0  0  0  0
  -25.1430  -31.4500   26.2570 C   0  0  0  0  0  1  0  0  0  0  0  0
  -26.9090  -30.2840   24.9270 C   0  0  0  0  0  1  0  0  0  0  0  0
  -27.4110  -32.4730   25.9730 C   0  0  0  0  0  1  0  0  0  0  0  0
  1 46  1  0
  2  4  1  0
  2  1  1  0
  3  2  2  0
  5  4  1  0
  5  6  1  0
  7  6  1  0
  7 16  1  0
  8 16  1  0
  9 14  1  0
 10 11  1  0
 10  9  1  0
 12 11  1  0
 12 21  1  0
 12 13  1  0
 14  8  1  0
 14 13  1  0
 15  8  2  0
 16 17  1  0
 18 19  2  0
 19 38  1  0
 20 19  1  0
 20 23  1  0
 21 22  1  0
 21 18  1  0
 22 20  2  0
 23 24  1  0
 24 25  2  0
 26 29  1  0
 26 25  1  0
 27 26  2  0
 28 27  1  0
 28 23  2  0
 29 30  1  0
 30 31  1  0
 31 32  2  0
 33 32  1  0
 33 37  1  0
 34 33  2  0
 35 30  2  0
 35 34  1  0
 36 35  1  0
 38 39  1  0
 39 42  1  0
 39 41  1  0
 40 38  2  0
 43 44  1  0
 43 18  1  0
 45 43  1  0
 46 49  1  0
 46 48  1  0
 48 47  1  0
 49 50  1  0
 51 62  2  0
 52 50  1  0
 52 57  1  0
 53 61  1  0
 53 63  1  0
 54 60  1  0
 54 56  1  0
 55 61  1  0
 56 55  1  0
 57 56  2  0
 58 52  2  0
 59 58  1  0
 59 54  2  0
 60 53  1  0
 61 51  1  0
 63 65  2  0
 64 63  1  0
 66 64  1  0
 67 76  2  0
 67 72  1  0
 68 64  1  0
 68 72  1  0
 69 68  1  0
 70 71  1  0
 70 69  1  0
 71 67  1  0
 72 73  2  0
 73 74  1  0
 75 74  2  0
 76 75  1  0
 77 51  1  0
 77 78  1  0
 77 87  1  0
 78 81  1  0
 79 83  1  0
 79 78  1  0
 80 79  2  0
 83 82  1  0
 85 83  1  0
 85 86  1  0
 85 84  1  0
 87 90  1  1
 87 88  1  0
 89 87  1  0
M  ISO  4   8 100  16 100  49 101  50 101
M  END
>  <TORSDO>  (26) 
F 24

>  <SCORE>  (26) 
-12.195

>  <name>  (26) 
25

>  <ligand_id>  (26) 
25

>  <original_smiles>  (26) 
[H]c1c([H])c([H])c2c(c1[H])C([H])([H])C([H])([H])C([H])([H])C2([H])N([H])C(=O)C1([H])N(C(=O)C([H])(N([H])C(=O)C([H])(N([H])C([H])([H])[H])C([H])([H])[H])C(C([H])([H])[H])(C([H])([H])[H])C([H])([H])[H])C([H])([H])c2c([H])c(OC([H])([H])C([H])(C([H])([H])C(=O)C([H])([H])C([H])([H])C([H])([H])C([H])([H])N([H])C(=O)N3C([H])([H])C([H])([H])C([H])([H])C([H])(n4nc(-c5c([H])c([H])c(Oc6c([H])c([H])c(F)c([H])c6F)c([H])c5[H])c(C(=O)N([H])[H])c4N([H])[H])C3([H])[H])C([H])([H])C([H])([H])[H])c([H])c([H])c2C1([H])[H]

>  <smiles>  (26) 
[H]c1c([H])c([H])c2c(c1[H])C([H])([H])C([H])([H])C([H])([H])C2([H])N([H])C(=O)C1([H])N(C(=O)C([H])(N([H])C(=O)C([H])(N([H])C([H])([H])[H])C([H])([H])[H])C(C([H])([H])[H])(C([H])([H])[H])C([H])([H])[H])C([H])([H])c2c([H])c(OC([H])([H])C([H])(C([H])([H])C(=O)C([H])([H])C([H])([H])C([H])([H])C([H])([H])N([H])C(=O)N3C([H])([H])C([H])([H])C([H])([H])C([H])(n4nc(-c5c([H])c([H])c(Oc6c([H])c([H])c(F)c([H])c6F)c([H])c5[H])c(C(=O)N([H])[H])c4N([H])[H])C3([H])[H])C([H])([H])C([H])([H])[H])c([H])c([H])c2C1([H])[H]

$$$$
26:0:0
     RDKit          3D

 98106  0  0  1  0  0  0  0  0999 V2000
  -30.3650  -18.8490   19.6970 C   0  0  0  0  0  3  0  0  0  0  0  0
  -33.3630  -20.6310   17.0610 C   0  0  0  0  0  3  0  0  0  0  0  0
  -32.3070  -19.8700   16.5230 C   0  0  0  0  0  3  0  0  0  0  0  0
  -33.4100  -20.8770   18.4460 C   0  0  0  0  0  3  0  0  0  0  0  0
  -31.3220  -19.3220   17.3690 C   0  0  0  0  0  3  0  0  0  0  0  0
  -32.4370  -20.3160   19.2950 C   0  0  0  0  0  3  0  0  0  0  0  0
  -31.3900  -19.5190   18.7660 C   0  0  0  0  0  0  0  0  0  0  0  0
  -29.8280  -19.9440   20.7380 C   0  0  0  0  0  2  0  0  0  0  0  0
  -28.9970  -21.2380   20.2820 C   0  0  0  0  0  2  0  0  0  0  0  0
  -29.6590  -22.6890   20.2390 C   0  0  0  0  0  2  0  0  0  0  0  0
  -28.8260  -23.9920   20.6700 C   0  0  0  0  0  2  0  0  0  0  0  0
  -28.8370  -25.2640   19.7110 C   0  0  0  0  0  2  0  0  0  0  0  0
  -28.6570  -26.6170   20.2820 O   0  0  0  0  0  0  0  0  0  0  0  0
  -24.7090  -31.8920   23.1610 C   0  0  0  0  0  0  0  0  0  0  0  0
  -27.4740  -27.3640   20.1960 C   0  0  0  0  0  0  0  0  0  0  0  0
  -23.5570  -30.4410   21.5270 C   0  0  0  0  0  3  0  0  0  0  0  0
  -25.0560  -28.8980   20.1440 C   0  0  0  0  0  0  0  0  0  0  0  0
  -26.0840  -30.8270   21.3550 C   0  0  0  0  0  2  0  0  0  0  0  0
  -26.2040  -29.4370   20.7370 C   0  0  0  0  0  0  0  0  0  0  0  0
  -27.4100  -28.6800   20.7500 C   0  0  0  0  0  3  0  0  0  0  0  0
  -26.2940  -26.8640   19.5970 C   0  0  0  0  0  3  0  0  0  0  0  0
  -25.1010  -27.6190   19.5690 C   0  0  0  0  0  3  0  0  0  0  0  0
  -23.8010  -29.7480   20.1600 C   0  0  0  0  0  2  0  0  0  0  0  0
  -24.8010  -31.0710   22.0740 N   0  0  0  0  0  0  0  0  0  0  0  0
  -23.6140  -32.1500   23.6790 O   0  0  0  0  0  0  0  0  0  0  0  0
  -22.9070  -29.4230   22.4940 C   0  0  0  0  0  0  0  0  0  0  0  0
  -21.5880  -29.2100   22.3490 N   0  0  0  0  0  0  0  0  0  0  0  0
  -23.5860  -28.8310   23.3360 O   0  0  0  0  0  0  0  0  0  0  0  0
  -21.0990  -29.7440   21.6450 H   0  0  0  0  0  0  0  0  0  0  0  0
  -18.2350  -27.9320   22.8060 C   0  0  0  0  0  0  0  0  0  0  0  0
  -20.7800  -28.2640   23.1180 C   0  0  0  0  0  3  0  0  0  0  0  0
  -20.9280  -26.8250   22.5720 C   0  0  0  0  0  2  0  0  0  0  0  0
  -19.8550  -26.4550   21.5440 C   0  0  0  0  0  2  0  0  0  0  0  0
  -18.4580  -26.5760   22.1590 C   0  0  0  0  0  2  0  0  0  0  0  0
  -19.3250  -28.7320   23.2420 C   0  0  0  0  0  0  0  0  0  0  0  0
  -19.0600  -29.9970   23.8080 C   0  0  0  0  0  3  0  0  0  0  0  0
  -17.7390  -30.4680   23.9380 C   0  0  0  0  0  3  0  0  0  0  0  0
  -16.6640  -29.6670   23.5150 C   0  0  0  0  0  3  0  0  0  0  0  0
  -16.9120  -28.4000   22.9560 C   0  0  0  0  0  3  0  0  0  0  0  0
  -25.9690  -32.5620   23.7910 C   0  0  0  0  0  3  0  0  0  0  0  0
  -25.6050  -33.9370   24.1590 N   0  0  0  0  0  0  0  0  0  0  0  0
  -25.8820  -35.0220   23.4220 C   0  0  0  0  0  0  0  0  0  0  0  0
  -26.5420  -34.9710   22.3810 O   0  0  0  0  0  0  0  0  0  0  0  0
  -25.0220  -34.0480   24.9760 H   0  0  0  0  0  0  0  0  0  0  0  0
  -24.0800  -36.7510   23.1230 C   0  0  0  0  0  1  0  0  0  0  0  0
  -25.3420  -36.3780   23.9180 C   0  0  0  0  0  3  0  0  0  0  0  0
  -27.4440  -37.3300   24.7630 C   0  0  0  0  0  1  0  0  0  0  0  0
  -26.3330  -37.4730   23.8260 N   0  0  0  0  0  0  0  0  0  0  0  0
  -25.8900  -38.3730   23.9930 H   0  0  0  0  0  0  0  0  0  0  0  0
  -26.5270  -31.7820   25.0430 C   0  0  1  0  0  0  0  0  0  0  0  0
  -25.4470  -31.4450   26.0990 C   0  0  0  0  0  1  0  0  0  0  0  0
  -27.1870  -30.4550   24.6020 C   0  0  0  0  0  1  0  0  0  0  0  0
  -27.6290  -32.6170   25.7350 C   0  0  0  0  0  1  0  0  0  0  0  0
  -30.9490  -17.4710   20.3340 C   0  0  0  0  0  3  0  0  0  0  0  0
  -32.3870  -17.2950   20.0350 N   0  0  0  0  0  4  0  0  0  0  0  0
  -32.5070  -16.5080   19.4060 H   0  0  0  0  0  0  0  0  0  0  0  0
  -32.9140  -17.1310   20.8770 H   0  0  0  0  0  0  0  0  0  0  0  0
  -32.7350  -18.1310   19.5920 H   0  0  0  0  0  0  0  0  0  0  0  0
  -30.1350  -16.0490   20.3440 C   0  0  0  0  0  3  0  0  0  0  0  0
  -30.7950  -14.6840   19.7860 C   0  0  0  0  0  0  0  0  0  0  0  0
  -30.5170  -12.4080   18.7830 C   0  0  0  0  0  2  0  0  0  0  0  0
  -29.5070  -12.4700   17.6140 C   0  0  0  0  0  2  0  0  0  0  0  0
  -28.0550  -12.3150   18.1130 C   0  0  0  0  0  2  0  0  0  0  0  0
  -27.7560  -13.2050   19.3460 C   0  0  0  0  0  3  0  0  0  0  0  0
  -28.8740  -13.0840   20.3940 C   0  0  0  0  0  2  0  0  0  0  0  0
  -30.1490  -13.4600   19.7570 N   0  0  0  0  0  0  0  0  0  0  0  0
  -31.9050  -14.7760   19.2540 O   0  0  0  0  0  0  0  0  0  0  0  0
  -25.4120  -13.8180   20.2070 C   0  0  0  0  0  0  0  0  0  0  0  0
  -24.3670  -13.0520   20.6490 C   0  0  0  0  0  0  0  0  0  0  0  0
  -24.8250  -11.6990   20.6110 C   0  0  0  0  0  0  0  0  0  0  0  0
  -26.4380  -12.9320   19.9190 N   0  0  0  0  0  0  0  0  0  0  0  0
  -26.0970  -11.6530   20.2270 N   0  0  0  0  0  0  0  0  0  0  0  0
  -24.1120  -10.4400   20.8730 C   0  0  0  0  0  0  0  0  0  0  0  0
  -24.5420   -9.5400   21.8730 C   0  0  0  0  0  3  0  0  0  0  0  0
  -23.8260   -8.3460   22.1150 C   0  0  0  0  0  3  0  0  0  0  0  0
  -22.6670   -8.0470   21.3600 C   0  0  0  0  0  0  0  0  0  0  0  0
  -22.2580   -8.9350   20.3510 C   0  0  0  0  0  3  0  0  0  0  0  0
  -22.9740  -10.1200   20.1070 C   0  0  0  0  0  3  0  0  0  0  0  0
  -21.9280   -6.8990   21.5080 O   0  0  0  0  0  0  0  0  0  0  0  0
  -21.7930   -6.2800   22.7240 C   0  0  0  0  0  0  0  0  0  0  0  0
  -21.2320   -6.9410   23.8390 C   0  0  0  0  0  3  0  0  0  0  0  0
  -21.0470   -6.2450   25.0500 C   0  0  0  0  0  3  0  0  0  0  0  0
  -21.4130   -4.8880   25.1460 C   0  0  0  0  0  0  0  0  0  0  0  0
  -21.9680   -4.2270   24.0360 C   0  0  0  0  0  3  0  0  0  0  0  0
  -22.1520   -4.9210   22.8280 C   0  0  0  0  0  0  0  0  0  0  0  0
  -22.6680   -4.2740   21.7530 F   0  0  0  0  0  0  0  0  0  0  0  0
  -21.2290   -4.2150   26.3070 F   0  0  0  0  0  0  0  0  0  0  0  0
  -22.9910  -13.5380   21.0040 C   0  0  0  0  0  0  0  0  0  0  0  0
  -22.3210  -12.8640   21.9330 N   0  0  0  0  0  0  0  0  0  0  0  0
  -22.5150  -14.5450   20.4840 O   0  0  0  0  0  0  0  0  0  0  0  0
  -22.7190  -12.0460   22.3720 H   0  0  0  0  0  0  0  0  0  0  0  0
  -21.4040  -13.1780   22.2160 H   0  0  0  0  0  0  0  0  0  0  0  0
  -25.5750  -15.1860   20.0180 N   0  0  0  0  0  0  0  0  0  0  0  0
  -24.8490  -15.8490   20.2660 H   0  0  0  0  0  0  0  0  0  0  0  0
  -26.4860  -15.6150   19.8990 H   0  0  0  0  0  0  0  0  0  0  0  0
  -29.5790  -15.8110   21.7830 C   0  0  0  0  0  2  0  0  0  0  0  0
  -28.1680  -15.9600   21.8070 O   0  0  0  0  0  0  0  0  0  0  0  0
  -27.8590  -15.7120   22.6740 H   0  0  0  0  0  0  0  0  0  0  0  0
  1 54  1  0
  1  8  1  0
  2  4  1  0
  3  2  2  0
  3  5  1  0
  4  6  2  0
  5  7  2  0
  7  6  1  0
  7  1  1  0
  9  8  1  0
 10  9  1  0
 10 11  1  0
 12 13  1  0
 12 11  1  0
 14 25  2  0
 15 13  1  0
 15 20  1  0
 16 24  1  0
 16 26  1  0
 17 23  1  0
 17 19  1  0
 18 24  1  0
 19 20  2  0
 19 18  1  0
 21 15  2  0
 22 21  1  0
 22 17  2  0
 23 16  1  0
 24 14  1  0
 26 28  2  0
 27 26  1  0
 29 27  1  0
 30 39  2  0
 30 35  1  0
 31 27  1  0
 31 35  1  0
 32 31  1  0
 33 34  1  0
 33 32  1  0
 34 30  1  0
 35 36  2  0
 36 37  1  0
 38 37  2  0
 39 38  1  0
 40 14  1  0
 40 41  1  0
 40 50  1  0
 41 44  1  0
 42 46  1  0
 42 41  1  0
 43 42  2  0
 46 45  1  0
 48 46  1  0
 48 49  1  0
 48 47  1  0
 50 53  1  1
 50 51  1  0
 52 50  1  0
 54 55  1  0
 54 59  1  0
 55 57  1  0
 56 55  1  0
 58 55  1  0
 59 96  1  0
 60 59  1  0
 61 66  1  0
 62 63  1  0
 62 61  1  0
 64 63  1  0
 64 71  1  0
 64 65  1  0
 66 60  1  0
 66 65  1  0
 67 60  2  0
 68 69  2  0
 69 88  1  0
 70 69  1  0
 70 73  1  0
 71 68  1  0
 71 72  1  0
 72 70  2  0
 73 74  1  0
 74 75  2  0
 76 79  1  0
 76 75  1  0
 77 76  2  0
 78 77  1  0
 78 73  2  0
 79 80  1  0
 80 85  2  0
 80 81  1  0
 81 82  2  0
 82 83  1  0
 83 87  1  0
 84 83  2  0
 85 84  1  0
 86 85  1  0
 88 89  1  0
 89 92  1  0
 89 91  1  0
 90 88  2  0
 93 68  1  0
 93 94  1  0
 95 93  1  0
 96 97  1  0
 97 98  1  0
M  ISO  4  12 101  13 101  59 100  60 100
M  END
>  <TORSDO>  (27) 
F 27

>  <SCORE>  (27) 
-10.502

>  <name>  (27) 
26

>  <ligand_id>  (27) 
26

>  <original_smiles>  (27) 
[H]OC([H])([H])C([H])(C(=O)N1C([H])([H])C([H])([H])C([H])([H])C([H])(n2nc(-c3c([H])c([H])c(Oc4c([H])c([H])c(F)c([H])c4F)c([H])c3[H])c(C(=O)N([H])[H])c2N([H])[H])C1([H])[H])C([H])(C([H])(c1c([H])c([H])c([H])c([H])c1[H])C([H])([H])C([H])([H])C([H])([H])C([H])([H])C([H])([H])Oc1c([H])c([H])c2c(c1[H])C([H])([H])N(C(=O)C([H])(N([H])C(=O)C([H])(N([H])C([H])([H])[H])C([H])([H])[H])C(C([H])([H])[H])(C([H])([H])[H])C([H])([H])[H])C([H])(C(=O)N([H])C1([H])c3c([H])c([H])c([H])c([H])c3C([H])([H])C([H])([H])C1([H])[H])C2([H])[H])[N+]([H])([H])[H]

>  <smiles>  (27) 
[H]OC([H])([H])C([H])(C(=O)N1C([H])([H])C([H])([H])C([H])([H])C([H])(n2nc(-c3c([H])c([H])c(Oc4c([H])c([H])c(F)c([H])c4F)c([H])c3[H])c(C(=O)N([H])[H])c2N([H])[H])C1([H])[H])C([H])(C([H])(c1c([H])c([H])c([H])c([H])c1[H])C([H])([H])C([H])([H])C([H])([H])C([H])([H])C([H])([H])Oc1c([H])c([H])c2c(c1[H])C([H])([H])N(C(=O)C([H])(N([H])C(=O)C([H])(N([H])C([H])([H])[H])C([H])([H])[H])C(C([H])([H])[H])(C([H])([H])[H])C([H])([H])[H])C([H])(C(=O)N([H])C1([H])c3c([H])c([H])c([H])c([H])c3C([H])([H])C([H])([H])C1([H])[H])C2([H])[H])[N+]([H])([H])[H]

$$$$
27:0:0
     RDKit          3D

 90 97  0  0  1  0  0  0  0  0999 V2000
  -29.2890  -21.0380   19.8610 C   0  0  0  0  0  3  0  0  0  0  0  0
  -29.6970  -19.7830   20.6370 N   0  0  0  0  0  4  0  0  0  0  0  0
  -29.1080  -19.7310   21.4510 H   0  0  0  0  0  0  0  0  0  0  0  0
  -30.6390  -19.9360   20.9610 H   0  0  0  0  0  0  0  0  0  0  0  0
  -29.6500  -18.4010   19.9760 C   0  0  0  0  0  2  0  0  0  0  0  0
  -30.4870  -17.1910   20.6590 C   0  0  0  0  0  3  0  0  0  0  0  0
  -30.9150  -14.6690   20.0020 C   0  0  0  0  0  0  0  0  0  0  0  0
  -30.6370  -12.4010   19.0090 C   0  0  0  0  0  2  0  0  0  0  0  0
  -29.6530  -12.4910   17.8220 C   0  0  0  0  0  2  0  0  0  0  0  0
  -28.1920  -12.3730   18.3050 C   0  0  0  0  0  2  0  0  0  0  0  0
  -27.8840  -13.2820   19.5250 C   0  0  0  0  0  3  0  0  0  0  0  0
  -28.9800  -13.1540   20.6060 C   0  0  0  0  0  2  0  0  0  0  0  0
  -30.2630  -13.4640   19.9600 N   0  0  0  0  0  0  0  0  0  0  0  0
  -32.0980  -14.7700   19.6730 O   0  0  0  0  0  0  0  0  0  0  0  0
  -30.1350  -15.7790   20.2300 N   0  0  0  0  0  0  0  0  0  0  0  0
  -29.1570  -15.5530   20.3100 H   0  0  0  0  0  0  0  0  0  0  0  0
  -25.5450  -13.9590   20.3450 C   0  0  0  0  0  0  0  0  0  0  0  0
  -24.4680  -13.2210   20.7510 C   0  0  0  0  0  0  0  0  0  0  0  0
  -24.8800  -11.8550   20.6930 C   0  0  0  0  0  0  0  0  0  0  0  0
  -26.5470  -13.0440   20.0640 N   0  0  0  0  0  0  0  0  0  0  0  0
  -26.1560  -11.7720   20.3370 N   0  0  0  0  0  0  0  0  0  0  0  0
  -24.1140  -10.6180   20.9000 C   0  0  0  0  0  0  0  0  0  0  0  0
  -24.5270   -9.6430   21.8340 C   0  0  0  0  0  3  0  0  0  0  0  0
  -23.7640   -8.4720   22.0310 C   0  0  0  0  0  3  0  0  0  0  0  0
  -22.5740   -8.2700   21.2950 C   0  0  0  0  0  0  0  0  0  0  0  0
  -22.1780   -9.2340   20.3500 C   0  0  0  0  0  3  0  0  0  0  0  0
  -22.9410  -10.3960   20.1510 C   0  0  0  0  0  3  0  0  0  0  0  0
  -21.7810   -7.1530   21.4030 O   0  0  0  0  0  0  0  0  0  0  0  0
  -21.6970   -6.4380   22.5710 C   0  0  0  0  0  0  0  0  0  0  0  0
  -21.2730   -7.0320   23.7800 C   0  0  0  0  0  3  0  0  0  0  0  0
  -21.1350   -6.2440   24.9400 C   0  0  0  0  0  3  0  0  0  0  0  0
  -21.4130   -4.8650   24.8930 C   0  0  0  0  0  0  0  0  0  0  0  0
  -21.8290   -4.2710   23.6890 C   0  0  0  0  0  3  0  0  0  0  0  0
  -21.9680   -5.0560   22.5290 C   0  0  0  0  0  0  0  0  0  0  0  0
  -22.3490   -4.4740   21.3680 F   0  0  0  0  0  0  0  0  0  0  0  0
  -21.2730   -4.1080   26.0050 F   0  0  0  0  0  0  0  0  0  0  0  0
  -23.0980  -13.7460   21.0760 C   0  0  0  0  0  0  0  0  0  0  0  0
  -22.3800  -13.0730   21.9660 N   0  0  0  0  0  0  0  0  0  0  0  0
  -22.6780  -14.7880   20.5750 O   0  0  0  0  0  0  0  0  0  0  0  0
  -22.7360  -12.2310   22.3930 H   0  0  0  0  0  0  0  0  0  0  0  0
  -21.4610  -13.4040   22.2230 H   0  0  0  0  0  0  0  0  0  0  0  0
  -25.7430  -15.3260   20.1700 N   0  0  0  0  0  0  0  0  0  0  0  0
  -24.9850  -15.9830   20.3220 H   0  0  0  0  0  0  0  0  0  0  0  0
  -26.5630  -15.7540   19.7640 H   0  0  0  0  0  0  0  0  0  0  0  0
  -31.3100  -18.1080   22.9730 C   0  0  0  0  0  1  0  0  0  0  0  0
  -30.3610  -17.1740   22.2050 C   0  0  0  0  0  2  0  0  0  0  0  0
  -28.9700  -22.3680   20.7150 C   0  0  0  0  0  3  0  0  0  0  0  0
  -28.9510  -23.8240   20.0250 C   0  0  0  0  0  3  0  0  0  0  0  0
  -28.3090  -25.0370   20.8540 C   0  0  0  0  0  3  0  0  0  0  0  0
  -28.5050  -26.4510   20.4410 O   0  0  0  0  0  0  0  0  0  0  0  0
  -24.6340  -31.8710   23.2800 C   0  0  0  0  0  0  0  0  0  0  0  0
  -27.3800  -27.2870   20.3900 C   0  0  0  0  0  0  0  0  0  0  0  0
  -23.4940  -30.4300   21.6280 C   0  0  0  0  0  3  0  0  0  0  0  0
  -25.0020  -28.8720   20.2740 C   0  0  0  0  0  0  0  0  0  0  0  0
  -26.0320  -30.7760   21.5140 C   0  0  0  0  0  2  0  0  0  0  0  0
  -26.1470  -29.3870   20.8970 C   0  0  0  0  0  0  0  0  0  0  0  0
  -27.3420  -28.6060   20.9420 C   0  0  0  0  0  3  0  0  0  0  0  0
  -26.2160  -26.8230   19.7430 C   0  0  0  0  0  3  0  0  0  0  0  0
  -25.0390  -27.5960   19.6900 C   0  0  0  0  0  3  0  0  0  0  0  0
  -23.7550  -29.7340   20.2680 C   0  0  0  0  0  2  0  0  0  0  0  0
  -24.7370  -31.0440   22.1990 N   0  0  0  0  0  0  0  0  0  0  0  0
  -23.5330  -32.1490   23.7760 O   0  0  0  0  0  0  0  0  0  0  0  0
  -22.8120  -29.4260   22.5860 C   0  0  0  0  0  0  0  0  0  0  0  0
  -21.4900  -29.2410   22.4270 N   0  0  0  0  0  0  0  0  0  0  0  0
  -23.4700  -28.8140   23.4310 O   0  0  0  0  0  0  0  0  0  0  0  0
  -21.0180  -29.7840   21.7180 H   0  0  0  0  0  0  0  0  0  0  0  0
  -18.1080  -28.0330   22.8480 C   0  0  0  0  0  0  0  0  0  0  0  0
  -20.6550  -28.3120   23.1900 C   0  0  0  0  0  3  0  0  0  0  0  0
  -20.7830  -26.8700   22.6430 C   0  0  0  0  0  2  0  0  0  0  0  0
  -19.7130  -26.5250   21.6020 C   0  0  0  0  0  2  0  0  0  0  0  0
  -18.3110  -26.6720   22.2020 C   0  0  0  0  0  2  0  0  0  0  0  0
  -19.2090  -28.8080   23.2970 C   0  0  0  0  0  0  0  0  0  0  0  0
  -18.9660  -30.0810   23.8590 C   0  0  0  0  0  3  0  0  0  0  0  0
  -17.6550  -30.5770   23.9800 C   0  0  0  0  0  3  0  0  0  0  0  0
  -16.5670  -29.7980   23.5460 C   0  0  0  0  0  3  0  0  0  0  0  0
  -16.7940  -28.5300   22.9850 C   0  0  0  0  0  3  0  0  0  0  0  0
  -25.8920  -32.5250   23.9310 C   0  0  0  0  0  3  0  0  0  0  0  0
  -26.3760  -31.7800   25.2350 C   0  0  1  0  0  0  0  0  0  0  0  0
  -25.2510  -31.5470   26.2690 C   0  0  0  0  0  1  0  0  0  0  0  0
  -26.9840  -30.4030   24.8840 C   0  0  0  0  0  1  0  0  0  0  0  0
  -27.4970  -32.5980   25.9180 C   0  0  0  0  0  1  0  0  0  0  0  0
  -25.5600  -33.9280   24.2270 N   0  0  0  0  0  0  0  0  0  0  0  0
  -25.9040  -34.9690   23.4560 C   0  0  0  0  0  0  0  0  0  0  0  0
  -26.6020  -34.8520   22.4440 O   0  0  0  0  0  0  0  0  0  0  0  0
  -24.9370  -34.0900   25.0030 H   0  0  0  0  0  0  0  0  0  0  0  0
  -24.1640  -36.7350   23.0290 C   0  0  0  0  0  1  0  0  0  0  0  0
  -25.3930  -36.3620   23.8740 C   0  0  0  0  0  3  0  0  0  0  0  0
  -27.4990  -37.2850   24.7320 C   0  0  0  0  0  1  0  0  0  0  0  0
  -26.4170  -37.4230   23.7600 N   0  0  0  0  0  0  0  0  0  0  0  0
  -25.9990  -38.3420   23.8820 H   0  0  0  0  0  0  0  0  0  0  0  0
  1  2  1  0
  1 47  2  0
  2  4  1  0
  2  3  1  0
  5  2  1  0
  6  5  1  0
  6 46  1  0
  7 15  1  0
  8 13  1  0
  9 10  1  0
  9  8  1  0
 11 10  1  0
 11 20  1  0
 11 12  1  0
 13  7  1  0
 13 12  1  0
 14  7  2  0
 15 16  1  0
 15  6  1  0
 17 18  2  0
 18 37  1  0
 19 18  1  0
 19 22  1  0
 20 21  1  0
 20 17  1  0
 21 19  2  0
 22 23  1  0
 23 24  2  0
 25 28  1  0
 25 24  1  0
 26 25  2  0
 27 26  1  0
 27 22  2  0
 28 29  1  0
 29 30  1  0
 30 31  2  0
 32 31  1  0
 32 36  1  0
 33 32  2  0
 34 29  2  0
 34 33  1  0
 35 34  1  0
 37 38  1  0
 38 41  1  0
 38 40  1  0
 39 37  2  0
 42 43  1  0
 42 17  1  0
 44 42  1  0
 46 45  1  0
 48 47  1  0
 48 49  2  0
 50 49  1  0
 51 62  2  0
 52 50  1  0
 52 57  1  0
 53 61  1  0
 53 63  1  0
 54 56  1  0
 55 61  1  0
 56 57  2  0
 56 55  1  0
 58 52  2  0
 59 58  1  0
 59 54  2  0
 60 54  1  0
 60 53  1  0
 61 51  1  0
 63 65  2  0
 64 63  1  0
 66 64  1  0
 67 76  2  0
 67 72  1  0
 68 64  1  0
 68 72  1  0
 69 68  1  0
 70 71  1  0
 70 69  1  0
 71 67  1  0
 72 73  2  0
 73 74  1  0
 75 74  2  0
 76 75  1  0
 77 51  1  0
 77 82  1  0
 77 78  1  0
 78 81  1  1
 78 79  1  0
 80 78  1  0
 82 85  1  0
 83 87  1  0
 83 82  1  0
 84 83  2  0
 87 86  1  0
 89 87  1  0
 89 90  1  0
 89 88  1  0
M  ISO  4   7 100  15 100  49 101  50 101
M  END
>  <TORSDO>  (28) 
F 23

>  <SCORE>  (28) 
-12.239

>  <name>  (28) 
27

>  <ligand_id>  (28) 
27

>  <original_smiles>  (28) 
[H]c1c([H])c([H])c2c(c1[H])C([H])([H])C([H])([H])C([H])([H])C2([H])N([H])C(=O)C1([H])N(C(=O)C([H])(N([H])C(=O)C([H])(N([H])C([H])([H])[H])C([H])([H])[H])C(C([H])([H])[H])(C([H])([H])[H])C([H])([H])[H])C([H])([H])c2c([H])c(OC([H])([H])C([H])([H])C([H])([H])C([H])([H])[N+]([H])([H])C([H])([H])C([H])(N([H])C(=O)N3C([H])([H])C([H])([H])C([H])([H])C([H])(n4nc(-c5c([H])c([H])c(Oc6c([H])c([H])c(F)c([H])c6F)c([H])c5[H])c(C(=O)N([H])[H])c4N([H])[H])C3([H])[H])C([H])([H])C([H])([H])[H])c([H])c([H])c2C1([H])[H]

>  <smiles>  (28) 
[H]c1c([H])c([H])c2c(c1[H])C([H])([H])C([H])([H])C([H])([H])C2([H])N([H])C(=O)C1([H])N(C(=O)C([H])(N([H])C(=O)C([H])(N([H])C([H])([H])[H])C([H])([H])[H])C(C([H])([H])[H])(C([H])([H])[H])C([H])([H])[H])C([H])([H])c2c([H])c(OC([H])([H])C([H])([H])C([H])([H])C([H])([H])[N+]([H])([H])C([H])([H])C([H])(N([H])C(=O)N3C([H])([H])C([H])([H])C([H])([H])C([H])(n4nc(-c5c([H])c([H])c(Oc6c([H])c([H])c(F)c([H])c6F)c([H])c5[H])c(C(=O)N([H])[H])c4N([H])[H])C3([H])[H])C([H])([H])C([H])([H])[H])c([H])c([H])c2C1([H])[H]

$$$$
28:0:0
     RDKit          3D

 99107  0  0  1  0  0  0  0  0999 V2000
  -28.5040  -20.2040   20.3600 C   0  0  0  0  0  2  0  0  0  0  0  0
  -29.7400  -19.3890   20.2970 N   0  0  0  0  0  4  0  0  0  0  0  0
  -30.1260  -19.5160   19.3770 H   0  0  0  0  0  0  0  0  0  0  0  0
  -30.4190  -19.7290   20.9610 H   0  0  0  0  0  0  0  0  0  0  0  0
  -30.8890  -14.5460   20.1350 C   0  0  0  0  0  0  0  0  0  0  0  0
  -30.4840  -12.4370   18.9230 C   0  0  0  0  0  2  0  0  0  0  0  0
  -29.4960  -12.7020   17.7730 C   0  0  0  0  0  2  0  0  0  0  0  0
  -28.0360  -12.5710   18.2590 C   0  0  0  0  0  2  0  0  0  0  0  0
  -27.7690  -13.3300   19.5900 C   0  0  0  0  0  3  0  0  0  0  0  0
  -28.8860  -13.0300   20.6170 C   0  0  0  0  0  2  0  0  0  0  0  0
  -30.1640  -13.3940   19.9940 N   0  0  0  0  0  0  0  0  0  0  0  0
  -32.0020  -14.6620   19.6200 O   0  0  0  0  0  0  0  0  0  0  0  0
  -29.4790  -17.4700   21.9440 C   0  0  0  0  0  2  0  0  0  0  0  0
  -29.6410  -15.9450   21.8240 C   0  0  0  0  0  2  0  0  0  0  0  0
  -30.5060  -16.9850   19.8430 C   0  0  0  0  0  3  0  0  0  0  0  0
  -29.4850  -17.9320   20.4960 C   0  0  0  0  0  3  0  0  0  0  0  0
  -30.2480  -15.6820   20.5070 N   0  0  0  0  0  0  0  0  0  0  0  0
  -25.4030  -13.9120   20.4220 C   0  0  0  0  0  0  0  0  0  0  0  0
  -24.3560  -13.1290   20.8280 C   0  0  0  0  0  0  0  0  0  0  0  0
  -24.8190  -11.7790   20.7460 C   0  0  0  0  0  0  0  0  0  0  0  0
  -26.4390  -13.0400   20.1230 N   0  0  0  0  0  0  0  0  0  0  0  0
  -26.0910  -11.7530   20.3720 N   0  0  0  0  0  0  0  0  0  0  0  0
  -24.1040  -10.5110   20.9440 C   0  0  0  0  0  0  0  0  0  0  0  0
  -24.5570   -9.5460   21.8690 C   0  0  0  0  0  3  0  0  0  0  0  0
  -23.8420   -8.3430   22.0590 C   0  0  0  0  0  3  0  0  0  0  0  0
  -22.6610   -8.0970   21.3220 C   0  0  0  0  0  0  0  0  0  0  0  0
  -22.2260   -9.0520   20.3880 C   0  0  0  0  0  3  0  0  0  0  0  0
  -22.9400  -10.2460   20.1950 C   0  0  0  0  0  3  0  0  0  0  0  0
  -21.9160   -6.9470   21.4210 O   0  0  0  0  0  0  0  0  0  0  0  0
  -21.8520   -6.2280   22.5870 C   0  0  0  0  0  0  0  0  0  0  0  0
  -21.4060   -6.8060   23.7950 C   0  0  0  0  0  3  0  0  0  0  0  0
  -21.2880   -6.0140   24.9530 C   0  0  0  0  0  3  0  0  0  0  0  0
  -21.6030   -4.6430   24.9050 C   0  0  0  0  0  0  0  0  0  0  0  0
  -22.0440   -4.0620   23.7030 C   0  0  0  0  0  3  0  0  0  0  0  0
  -22.1620   -4.8530   22.5450 C   0  0  0  0  0  0  0  0  0  0  0  0
  -22.5640   -4.2850   21.3840 F   0  0  0  0  0  0  0  0  0  0  0  0
  -21.4840   -3.8810   26.0170 F   0  0  0  0  0  0  0  0  0  0  0  0
  -22.9720  -13.5980   21.1750 C   0  0  0  0  0  0  0  0  0  0  0  0
  -22.2890  -12.8950   22.0710 N   0  0  0  0  0  0  0  0  0  0  0  0
  -22.5050  -14.6260   20.6860 O   0  0  0  0  0  0  0  0  0  0  0  0
  -22.6780  -12.0650   22.4920 H   0  0  0  0  0  0  0  0  0  0  0  0
  -21.3600  -13.1940   22.3360 H   0  0  0  0  0  0  0  0  0  0  0  0
  -25.5520  -15.2880   20.2670 N   0  0  0  0  0  0  0  0  0  0  0  0
  -24.7930  -15.9350   20.4580 H   0  0  0  0  0  0  0  0  0  0  0  0
  -26.3720  -15.7420   19.8860 H   0  0  0  0  0  0  0  0  0  0  0  0
  -30.3460  -16.9240   18.3060 C   0  0  0  0  0  0  0  0  0  0  0  0
  -31.4470  -16.8090   17.5800 N   0  0  0  0  0  0  0  0  0  0  0  0
  -29.2360  -16.9790   17.7780 O   0  0  0  0  0  0  0  0  0  0  0  0
  -32.3350  -16.6630   18.0480 H   0  0  0  0  0  0  0  0  0  0  0  0
  -31.4120  -16.7410   16.5730 H   0  0  0  0  0  0  0  0  0  0  0  0
  -28.7230  -21.7410   20.3830 C   0  0  0  0  0  2  0  0  0  0  0  0
  -28.9410  -22.3610   21.7950 C   0  0  0  0  0  3  0  0  0  0  0  0
  -31.5130  -21.8540   22.0040 C   0  0  0  0  0  1  0  0  0  0  0  0
  -30.0980  -21.7100   22.6050 C   0  0  0  0  0  2  0  0  0  0  0  0
  -28.3800  -24.4320   23.1860 C   0  0  0  0  0  1  0  0  0  0  0  0
  -29.0510  -23.9160   21.8870 C   0  0  0  0  0  3  0  0  0  0  0  0
  -28.6230  -24.7250   20.6440 C   0  0  0  0  0  2  0  0  0  0  0  0
  -29.1040  -26.1850   20.6930 C   0  0  0  0  0  2  0  0  0  0  0  0
  -28.6430  -26.8700   19.5410 O   0  0  0  0  0  0  0  0  0  0  0  0
  -24.6930  -31.6570   23.0370 C   0  0  0  0  0  0  0  0  0  0  0  0
  -27.4420  -27.5110   19.6920 C   0  0  0  0  0  0  0  0  0  0  0  0
  -23.5020  -30.2940   21.3470 C   0  0  0  0  0  3  0  0  0  0  0  0
  -24.9790  -28.8660   19.8390 C   0  0  0  0  0  0  0  0  0  0  0  0
  -25.9980  -30.7640   21.1130 C   0  0  0  0  0  2  0  0  0  0  0  0
  -26.1230  -29.4220   20.4300 C   0  0  0  0  0  0  0  0  0  0  0  0
  -27.3550  -28.7420   20.3760 C   0  0  0  0  0  3  0  0  0  0  0  0
  -26.2910  -26.9530   19.1050 C   0  0  0  0  0  3  0  0  0  0  0  0
  -25.0540  -27.6190   19.1860 C   0  0  0  0  0  3  0  0  0  0  0  0
  -23.7060  -29.6720   19.9370 C   0  0  0  0  0  2  0  0  0  0  0  0
  -24.7520  -30.9200   21.8940 N   0  0  0  0  0  0  0  0  0  0  0  0
  -23.6140  -31.8610   23.6100 O   0  0  0  0  0  0  0  0  0  0  0  0
  -22.9080  -29.2090   22.2720 C   0  0  0  0  0  0  0  0  0  0  0  0
  -21.5870  -28.9910   22.1640 N   0  0  0  0  0  0  0  0  0  0  0  0
  -23.6300  -28.5650   23.0360 O   0  0  0  0  0  0  0  0  0  0  0  0
  -21.0580  -29.5710   21.5280 H   0  0  0  0  0  0  0  0  0  0  0  0
  -18.2670  -27.6660   22.6680 C   0  0  0  0  0  0  0  0  0  0  0  0
  -20.8210  -27.9850   22.8990 C   0  0  0  0  0  3  0  0  0  0  0  0
  -20.9530  -26.5910   22.2420 C   0  0  0  0  0  2  0  0  0  0  0  0
  -19.8360  -26.2890   21.2380 C   0  0  0  0  0  2  0  0  0  0  0  0
  -18.4660  -26.3610   21.9180 C   0  0  0  0  0  2  0  0  0  0  0  0
  -19.3720  -28.4370   23.1140 C   0  0  0  0  0  0  0  0  0  0  0  0
  -19.1310  -29.6660   23.7680 C   0  0  0  0  0  3  0  0  0  0  0  0
  -17.8150  -30.1160   23.9890 C   0  0  0  0  0  3  0  0  0  0  0  0
  -16.7250  -29.3400   23.5560 C   0  0  0  0  0  3  0  0  0  0  0  0
  -16.9530  -28.1160   22.9010 C   0  0  0  0  0  3  0  0  0  0  0  0
  -25.9680  -32.2990   23.6680 C   0  0  0  0  0  3  0  0  0  0  0  0
  -25.6120  -33.6590   24.0990 N   0  0  0  0  0  0  0  0  0  0  0  0
  -25.8970  -34.7710   23.4080 C   0  0  0  0  0  0  0  0  0  0  0  0
  -26.5560  -34.7650   22.3660 O   0  0  0  0  0  0  0  0  0  0  0  0
  -25.0330  -33.7380   24.9200 H   0  0  0  0  0  0  0  0  0  0  0  0
  -24.0970  -36.5110   23.2000 C   0  0  0  0  0  1  0  0  0  0  0  0
  -25.3640  -36.1030   23.9660 C   0  0  0  0  0  3  0  0  0  0  0  0
  -27.4760  -37.0100   24.8270 C   0  0  0  0  0  1  0  0  0  0  0  0
  -26.3540  -37.2010   23.9130 N   0  0  0  0  0  0  0  0  0  0  0  0
  -25.9130  -38.0910   24.1310 H   0  0  0  0  0  0  0  0  0  0  0  0
  -26.5560  -31.4660   24.8720 C   0  0  1  0  0  0  0  0  0  0  0  0
  -25.5160  -31.1130   25.9600 C   0  0  0  0  0  1  0  0  0  0  0  0
  -27.1750  -30.1460   24.3570 C   0  0  0  0  0  1  0  0  0  0  0  0
  -27.6970  -32.2600   25.5550 C   0  0  0  0  0  1  0  0  0  0  0  0
  1 51  1  0
  2  1  1  0
  2  4  1  0
  3  2  1  0
  5 17  1  0
  6 11  1  0
  7  8  1  0
  7  6  1  0
  9  8  1  0
  9 21  1  0
  9 10  1  0
 11  5  1  0
 11 10  1  0
 12  5  2  0
 14 13  1  0
 15 46  1  0
 15 16  1  0
 15 17  1  0
 16  2  1  0
 16 13  1  0
 17 14  1  0
 18 19  2  0
 19 38  1  0
 20 19  1  0
 20 23  1  0
 21 22  1  0
 21 18  1  0
 22 20  2  0
 23 24  1  0
 24 25  2  0
 26 29  1  0
 26 25  1  0
 27 26  2  0
 28 27  1  0
 28 23  2  0
 29 30  1  0
 30 31  1  0
 31 32  2  0
 33 32  1  0
 33 37  1  0
 34 33  2  0
 35 30  2  0
 35 34  1  0
 36 35  1  0
 38 39  1  0
 39 42  1  0
 39 41  1  0
 40 38  2  0
 43 18  1  0
 43 44  1  0
 45 43  1  0
 47 49  1  0
 47 46  1  0
 48 46  2  0
 50 47  1  0
 52 51  1  0
 52 56  1  0
 52 54  1  0
 53 54  1  0
 56 55  1  0
 57 58  1  0
 57 56  1  0
 59 61  1  0
 59 58  1  0
 60 71  2  0
 61 66  1  0
 62 70  1  0
 62 72  1  0
 63 69  1  0
 63 65  1  0
 64 70  1  0
 65 64  1  0
 66 65  2  0
 67 68  1  0
 67 61  2  0
 68 63  2  0
 69 62  1  0
 70 60  1  0
 72 74  2  0
 73 72  1  0
 75 73  1  0
 76 85  2  0
 76 81  1  0
 77 73  1  0
 77 81  1  0
 78 77  1  0
 79 80  1  0
 79 78  1  0
 80 76  1  0
 81 82  2  0
 82 83  1  0
 84 83  2  0
 85 84  1  0
 86 60  1  0
 86 87  1  0
 86 96  1  0
 87 90  1  0
 88 92  1  0
 88 87  1  0
 89 88  2  0
 92 91  1  0
 94 92  1  0
 94 95  1  0
 94 93  1  0
 96 99  1  1
 96 97  1  0
 98 96  1  0
M  ISO  4   5 100  17 100  58 101  59 101
M  END
>  <TORSDO>  (29) 
F 24

>  <SCORE>  (29) 
-10.499

>  <name>  (29) 
28

>  <ligand_id>  (29) 
28

>  <original_smiles>  (29) 
[H]c1c([H])c([H])c2c(c1[H])C([H])([H])C([H])([H])C([H])([H])C2([H])N([H])C(=O)C1([H])N(C(=O)C([H])(N([H])C(=O)C([H])(N([H])C([H])([H])[H])C([H])([H])[H])C(C([H])([H])[H])(C([H])([H])[H])C([H])([H])[H])C([H])([H])c2c([H])c(OC([H])([H])C([H])([H])C([H])(C([H])([H])[H])C([H])(C([H])([H])C([H])([H])[H])C([H])([H])C([H])([H])[N+]([H])([H])C3([H])C([H])(C(=O)N([H])[H])N(C(=O)N4C([H])([H])C([H])([H])C([H])([H])C([H])(n5nc(-c6c([H])c([H])c(Oc7c([H])c([H])c(F)c([H])c7F)c([H])c6[H])c(C(=O)N([H])[H])c5N([H])[H])C4([H])[H])C([H])([H])C3([H])[H])c([H])c([H])c2C1([H])[H]

>  <smiles>  (29) 
[H]c1c([H])c([H])c2c(c1[H])C([H])([H])C([H])([H])C([H])([H])C2([H])N([H])C(=O)C1([H])N(C(=O)C([H])(N([H])C(=O)C([H])(N([H])C([H])([H])[H])C([H])([H])[H])C(C([H])([H])[H])(C([H])([H])[H])C([H])([H])[H])C([H])([H])c2c([H])c(OC([H])([H])C([H])([H])C([H])(C([H])([H])[H])C([H])(C([H])([H])C([H])([H])[H])C([H])([H])C([H])([H])[N+]([H])([H])C3([H])C([H])(C(=O)N([H])[H])N(C(=O)N4C([H])([H])C([H])([H])C([H])([H])C([H])(n5nc(-c6c([H])c([H])c(Oc7c([H])c([H])c(F)c([H])c7F)c([H])c6[H])c(C(=O)N([H])[H])c5N([H])[H])C4([H])[H])C([H])([H])C3([H])[H])c([H])c([H])c2C1([H])[H]

$$$$
29:0:0
     RDKit          3D

101109  0  0  1  0  0  0  0  0999 V2000
  -30.0360  -18.9670   22.2460 C   0  0  0  0  0  2  0  0  0  0  0  0
  -27.8640  -19.4190   20.5120 C   0  0  0  0  0  2  0  0  0  0  0  0
  -30.3450  -20.4650   21.9530 C   0  0  0  0  0  2  0  0  0  0  0  0
  -28.4650  -20.8160   20.2660 C   0  0  0  0  0  2  0  0  0  0  0  0
  -30.0390  -18.0130   21.0170 C   0  0  0  0  0  3  0  0  0  0  0  0
  -28.7280  -18.1810   20.1570 C   0  0  0  0  0  3  0  0  0  0  0  0
  -29.8880  -21.0470   20.6510 N   0  0  1  0  0  4  0  0  0  0  0  0
  -30.4470  -20.6180   19.9270 H   0  0  0  0  0  0  0  0  0  0  0  0
  -30.3130  -16.5170   21.3990 C   0  0  0  0  0  0  0  0  0  0  0  0
  -29.5390  -15.9380   22.1650 O   0  0  0  0  0  0  0  0  0  0  0  0
  -31.5640  -15.7400   20.8890 C   0  0  0  0  0  3  0  0  0  0  0  0
  -32.7690  -16.5480   21.1780 N   0  0  0  0  0  4  0  0  0  0  0  0
  -32.8350  -17.3680   20.6020 H   0  0  0  0  0  0  0  0  0  0  0  0
  -33.5990  -15.9950   21.0580 H   0  0  0  0  0  0  0  0  0  0  0  0
  -32.7360  -16.8350   22.1410 H   0  0  0  0  0  0  0  0  0  0  0  0
  -31.4680  -15.2270   19.4220 C   0  0  0  0  0  2  0  0  0  0  0  0
  -32.1490  -13.8530   19.1710 C   0  0  0  0  0  0  0  0  0  0  0  0
  -31.8970  -11.3870   19.0660 C   0  0  0  0  0  2  0  0  0  0  0  0
  -30.8520  -10.9870   18.0010 C   0  0  0  0  0  2  0  0  0  0  0  0
  -29.4210  -11.0600   18.5660 C   0  0  0  0  0  2  0  0  0  0  0  0
  -29.1410  -12.3840   19.3220 C   0  0  0  0  0  3  0  0  0  0  0  0
  -30.2710  -12.6610   20.3360 C   0  0  0  0  0  2  0  0  0  0  0  0
  -31.5370  -12.7160   19.5870 N   0  0  0  0  0  0  0  0  0  0  0  0
  -33.1880  -13.8310   18.4990 O   0  0  0  0  0  0  0  0  0  0  0  0
  -27.0710  -13.4180   20.4390 C   0  0  0  0  0  0  0  0  0  0  0  0
  -25.9100  -12.8600   20.9030 C   0  0  0  0  0  0  0  0  0  0  0  0
  -26.0240  -11.4560   20.6610 C   0  0  0  0  0  0  0  0  0  0  0  0
  -27.8360  -12.3600   19.9710 N   0  0  0  0  0  0  0  0  0  0  0  0
  -27.2160  -11.1710   20.1560 N   0  0  0  0  0  0  0  0  0  0  0  0
  -25.0480  -10.3780   20.8340 C   0  0  0  0  0  0  0  0  0  0  0  0
  -25.2710   -9.3240   21.7470 C   0  0  0  0  0  3  0  0  0  0  0  0
  -24.3110   -8.3030   21.9130 C   0  0  0  0  0  3  0  0  0  0  0  0
  -23.1160   -8.3270   21.1550 C   0  0  0  0  0  0  0  0  0  0  0  0
  -22.9110   -9.3650   20.2300 C   0  0  0  0  0  3  0  0  0  0  0  0
  -23.8650  -10.3800   20.0690 C   0  0  0  0  0  3  0  0  0  0  0  0
  -22.1420   -7.3600   21.2270 O   0  0  0  0  0  0  0  0  0  0  0  0
  -21.7300   -6.8390   22.4270 C   0  0  0  0  0  0  0  0  0  0  0  0
  -21.3030   -7.6650   23.4890 C   0  0  0  0  0  3  0  0  0  0  0  0
  -20.8180   -7.0850   24.6790 C   0  0  0  0  0  3  0  0  0  0  0  0
  -20.7540   -5.6850   24.8050 C   0  0  0  0  0  0  0  0  0  0  0  0
  -21.1760   -4.8600   23.7470 C   0  0  0  0  0  3  0  0  0  0  0  0
  -21.6580   -5.4370   22.5600 C   0  0  0  0  0  0  0  0  0  0  0  0
  -22.0440   -4.6390   21.5360 F   0  0  0  0  0  0  0  0  0  0  0  0
  -20.2830   -5.1290   25.9480 F   0  0  0  0  0  0  0  0  0  0  0  0
  -24.7150  -13.5940   21.4480 C   0  0  0  0  0  0  0  0  0  0  0  0
  -23.9610  -12.9530   22.3380 N   0  0  0  0  0  0  0  0  0  0  0  0
  -24.4720  -14.7530   21.1180 O   0  0  0  0  0  0  0  0  0  0  0  0
  -24.1610  -12.0040   22.6100 H   0  0  0  0  0  0  0  0  0  0  0  0
  -23.1510  -13.4130   22.7360 H   0  0  0  0  0  0  0  0  0  0  0  0
  -27.5310  -14.7280   20.3550 N   0  0  0  0  0  0  0  0  0  0  0  0
  -26.9250  -15.5090   20.5820 H   0  0  0  0  0  0  0  0  0  0  0  0
  -28.3500  -15.0010   19.8310 H   0  0  0  0  0  0  0  0  0  0  0  0
  -27.7400  -17.7360   17.7970 C   0  0  0  0  0  1  0  0  0  0  0  0
  -28.9930  -18.0250   18.6410 C   0  0  0  0  0  2  0  0  0  0  0  0
  -30.1620  -22.5160   20.5560 C   0  0  0  0  0  2  0  0  0  0  0  0
  -31.6360  -22.9240   20.3320 C   0  0  0  0  0  2  0  0  0  0  0  0
  -31.8120  -24.4200   19.9850 C   0  0  0  0  0  2  0  0  0  0  0  0
  -31.9890  -25.3760   21.1890 C   0  0  0  0  0  2  0  0  0  0  0  0
  -33.4620  -25.7120   21.5310 C   0  0  0  0  0  2  0  0  0  0  0  0
  -33.6740  -26.9110   22.4970 C   0  0  0  0  0  2  0  0  0  0  0  0
  -33.4940  -28.1970   21.8800 O   0  0  0  0  0  0  0  0  0  0  0  0
  -28.0380  -31.1840   25.3190 C   0  0  0  0  0  0  0  0  0  0  0  0
  -32.1890  -28.6150   21.8280 C   0  0  0  0  0  0  0  0  0  0  0  0
  -27.4850  -29.9990   23.2180 C   0  0  0  0  0  3  0  0  0  0  0  0
  -29.4730  -29.3620   21.7490 C   0  0  0  0  0  0  0  0  0  0  0  0
  -29.7870  -31.0720   23.5460 C   0  0  0  0  0  2  0  0  0  0  0  0
  -30.3480  -29.9960   22.6410 C   0  0  0  0  0  0  0  0  0  0  0  0
  -31.7100  -29.6260   22.6890 C   0  0  0  0  0  3  0  0  0  0  0  0
  -31.3130  -28.0250   20.8980 C   0  0  0  0  0  3  0  0  0  0  0  0
  -29.9530  -28.3770   20.8690 C   0  0  0  0  0  3  0  0  0  0  0  0
  -28.0260  -29.8030   21.7750 C   0  0  0  0  0  2  0  0  0  0  0  0
  -28.4440  -30.7530   24.0890 N   0  0  0  0  0  0  0  0  0  0  0  0
  -26.8760  -30.9970   25.7100 O   0  0  0  0  0  0  0  0  0  0  0  0
  -27.0900  -28.6170   23.7920 C   0  0  0  0  0  0  0  0  0  0  0  0
  -26.0090  -28.0350   23.2510 N   0  0  0  0  0  0  0  0  0  0  0  0
  -27.7640  -28.0830   24.6750 O   0  0  0  0  0  0  0  0  0  0  0  0
  -25.5000  -28.5470   22.5460 H   0  0  0  0  0  0  0  0  0  0  0  0
  -23.4350  -25.6310   22.4490 C   0  0  0  0  0  0  0  0  0  0  0  0
  -25.4720  -26.7200   23.6070 C   0  0  0  0  0  3  0  0  0  0  0  0
  -26.3090  -25.5840   22.9750 C   0  0  0  0  0  2  0  0  0  0  0  0
  -25.7700  -25.1220   21.6180 C   0  0  0  0  0  2  0  0  0  0  0  0
  -24.3310  -24.6170   21.7570 C   0  0  0  0  0  2  0  0  0  0  0  0
  -23.9720  -26.6270   23.3060 C   0  0  0  0  0  0  0  0  0  0  0  0
  -23.0970  -27.5670   23.8950 C   0  0  0  0  0  3  0  0  0  0  0  0
  -21.7130  -27.5210   23.6400 C   0  0  0  0  0  3  0  0  0  0  0  0
  -21.1850  -26.5200   22.8060 C   0  0  0  0  0  3  0  0  0  0  0  0
  -22.0450  -25.5760   22.2170 C   0  0  0  0  0  3  0  0  0  0  0  0
  -29.0040  -31.9440   26.2790 C   0  0  0  0  0  3  0  0  0  0  0  0
  -29.3140  -31.1520   27.6100 C   0  0  1  0  0  0  0  0  0  0  0  0
  -28.0520  -30.6210   28.3250 C   0  0  0  0  0  1  0  0  0  0  0  0
  -30.2380  -29.9460   27.3200 C   0  0  0  0  0  1  0  0  0  0  0  0
  -30.0710  -32.0650   28.6050 C   0  0  0  0  0  1  0  0  0  0  0  0
  -28.3940  -33.2450   26.5790 N   0  0  0  0  0  0  0  0  0  0  0  0
  -28.6720  -34.3810   25.9270 C   0  0  0  0  0  0  0  0  0  0  0  0
  -29.5360  -34.4570   25.0500 O   0  0  0  0  0  0  0  0  0  0  0  0
  -27.6440  -33.2500   27.2530 H   0  0  0  0  0  0  0  0  0  0  0  0
  -26.7320  -35.8490   25.2920 C   0  0  0  0  0  1  0  0  0  0  0  0
  -27.8620  -35.6340   26.3080 C   0  0  0  0  0  3  0  0  0  0  0  0
  -29.6590  -36.8230   27.4910 C   0  0  0  0  0  1  0  0  0  0  0  0
  -28.6850  -36.8570   26.4030 N   0  0  0  0  0  0  0  0  0  0  0  0
  -28.0970  -37.6760   26.5300 H   0  0  0  0  0  0  0  0  0  0  0  0
  3  1  1  0
  4  2  1  0
  4  7  1  0
  5  9  1  0
  5  1  1  0
  6 54  1  0
  6  2  1  0
  6  5  1  0
  7  3  1  0
  7  8  1  6
  9 10  2  0
 11 16  1  0
 11 12  1  0
 11  9  1  0
 12 15  1  0
 13 12  1  0
 14 12  1  0
 17 16  1  0
 17 23  1  0
 18 23  1  0
 19 20  1  0
 19 18  1  0
 21 20  1  0
 21 28  1  0
 21 22  1  0
 23 22  1  0
 24 17  2  0
 25 26  2  0
 26 45  1  0
 27 30  1  0
 27 26  1  0
 28 29  1  0
 28 25  1  0
 29 27  2  0
 30 31  1  0
 31 32  2  0
 33 36  1  0
 33 32  1  0
 34 33  2  0
 35 34  1  0
 35 30  2  0
 36 37  1  0
 37 42  2  0
 37 38  1  0
 38 39  2  0
 39 40  1  0
 40 44  1  0
 41 40  2  0
 42 41  1  0
 43 42  1  0
 45 46  1  0
 46 48  1  0
 46 49  1  0
 47 45  2  0
 50 25  1  0
 50 51  1  0
 52 50  1  0
 53 54  1  0
 55  7  1  0
 56 55  1  0
 57 56  1  0
 57 58  1  0
 58 59  1  0
 59 60  1  0
 61 60  1  0
 62 73  2  0
 63 61  1  0
 63 68  1  0
 64 74  1  0
 64 72  1  0
 65 71  1  0
 65 67  1  0
 66 72  1  0
 67 68  2  0
 67 66  1  0
 69 63  2  0
 70 69  1  0
 70 65  2  0
 71 64  1  0
 72 62  1  0
 74 76  2  0
 75 74  1  0
 77 75  1  0
 78 83  1  0
 79 75  1  0
 80 79  1  0
 81 82  1  0
 81 80  1  0
 82 78  1  0
 83 79  1  0
 83 84  2  0
 85 84  1  0
 86 85  2  0
 87 78  2  0
 87 86  1  0
 88 62  1  0
 88 93  1  0
 88 89  1  0
 89 90  1  1
 89 92  1  0
 91 89  1  0
 93 96  1  0
 94 98  1  0
 94 93  1  0
 95 94  2  0
 98 97  1  0
 98100  1  0
100101  1  0
100 99  1  0
M  ISO  4  16 100  17 100  60 101  61 101
M  END
>  <TORSDO>  (30) 
F 27

>  <SCORE>  (30) 
-3.105

>  <name>  (30) 
29

>  <ligand_id>  (30) 
29

>  <original_smiles>  (30) 
[H]c1c([H])c([H])c2c(c1[H])C([H])([H])C([H])([H])C([H])([H])C2([H])N([H])C(=O)C1([H])N(C(=O)C([H])(N([H])C(=O)C([H])(N([H])C([H])([H])[H])C([H])([H])[H])C(C([H])([H])[H])(C([H])([H])[H])C([H])([H])[H])C([H])([H])c2c([H])c(OC([H])([H])C([H])([H])C([H])([H])C([H])([H])C([H])([H])C([H])([H])[N+]3([H])C([H])([H])C([H])([H])C([H])(C(=O)C([H])(C([H])([H])C(=O)N4C([H])([H])C([H])([H])C([H])([H])C([H])(n5nc(-c6c([H])c([H])c(Oc7c([H])c([H])c(F)c([H])c7F)c([H])c6[H])c(C(=O)N([H])[H])c5N([H])[H])C4([H])[H])[N+]([H])([H])[H])C([H])(C([H])([H])C([H])([H])[H])C([H])([H])C3([H])[H])c([H])c([H])c2C1([H])[H]

>  <smiles>  (30) 
[H]c1c([H])c([H])c2c(c1[H])C([H])([H])C([H])([H])C([H])([H])C2([H])N([H])C(=O)C1([H])N(C(=O)C([H])(N([H])C(=O)C([H])(N([H])C([H])([H])[H])C([H])([H])[H])C(C([H])([H])[H])(C([H])([H])[H])C([H])([H])[H])C([H])([H])c2c([H])c(OC([H])([H])C([H])([H])C([H])([H])C([H])([H])C([H])([H])C([H])([H])[N+]3([H])C([H])([H])C([H])([H])C([H])(C(=O)C([H])(C([H])([H])C(=O)N4C([H])([H])C([H])([H])C([H])([H])C([H])(n5nc(-c6c([H])c([H])c(Oc7c([H])c([H])c(F)c([H])c7F)c([H])c6[H])c(C(=O)N([H])[H])c5N([H])[H])C4([H])[H])[N+]([H])([H])[H])C([H])(C([H])([H])C([H])([H])[H])C([H])([H])C3([H])[H])c([H])c([H])c2C1([H])[H]

$$$$
30:0:0
     RDKit          3D

 95103  0  0  1  0  0  0  0  0999 V2000
  -28.0170  -19.5500   20.6290 C   0  0  0  0  0  2  0  0  0  0  0  0
  -29.4380  -19.5440   21.2110 C   0  0  0  0  0  3  0  0  0  0  0  0
  -28.2320  -18.1370   20.0540 C   0  0  0  0  0  3  0  0  0  0  0  0
  -29.3880  -17.9680   21.0610 C   0  0  0  0  0  3  0  0  0  0  0  0
  -30.4820  -20.3860   20.4780 C   0  0  0  0  0  0  0  0  0  0  0  0
  -31.6020  -19.9720   20.1790 O   0  0  0  0  0  0  0  0  0  0  0  0
  -30.1150  -21.8260   20.0010 C   0  0  0  0  0  2  0  0  0  0  0  0
  -29.4780  -22.8690   20.9750 C   0  0  0  0  0  2  0  0  0  0  0  0
  -29.5930  -24.3500   20.4540 C   0  0  0  0  0  2  0  0  0  0  0  0
  -28.4080  -25.3140   20.7720 C   0  0  0  0  0  2  0  0  0  0  0  0
  -28.5920  -26.6760   20.2880 O   0  0  0  0  0  0  0  0  0  0  0  0
  -24.5940  -31.8460   23.1780 C   0  0  0  0  0  0  0  0  0  0  0  0
  -27.4370  -27.4400   20.2050 C   0  0  0  0  0  0  0  0  0  0  0  0
  -23.4810  -30.4330   21.4810 C   0  0  0  0  0  3  0  0  0  0  0  0
  -25.0220  -28.9310   20.1050 C   0  0  0  0  0  0  0  0  0  0  0  0
  -26.0080  -30.8310   21.3910 C   0  0  0  0  0  2  0  0  0  0  0  0
  -26.1470  -29.4640   20.7490 C   0  0  0  0  0  0  0  0  0  0  0  0
  -27.3600  -28.7300   20.7890 C   0  0  0  0  0  3  0  0  0  0  0  0
  -26.3010  -26.9440   19.5270 C   0  0  0  0  0  3  0  0  0  0  0  0
  -25.0980  -27.6740   19.4830 C   0  0  0  0  0  3  0  0  0  0  0  0
  -23.7610  -29.7680   20.1060 C   0  0  0  0  0  2  0  0  0  0  0  0
  -24.7100  -31.0520   22.0750 N   0  0  0  0  0  0  0  0  0  0  0  0
  -23.4860  -32.0950   23.6740 O   0  0  0  0  0  0  0  0  0  0  0  0
  -22.8090  -29.3930   22.4090 C   0  0  0  0  0  0  0  0  0  0  0  0
  -21.4890  -29.2030   22.2430 N   0  0  0  0  0  0  0  0  0  0  0  0
  -23.4730  -28.7620   23.2340 O   0  0  0  0  0  0  0  0  0  0  0  0
  -21.0140  -29.7590   21.5460 H   0  0  0  0  0  0  0  0  0  0  0  0
  -18.1130  -27.9900   22.6330 C   0  0  0  0  0  0  0  0  0  0  0  0
  -20.6620  -28.2450   22.9740 C   0  0  0  0  0  3  0  0  0  0  0  0
  -20.7800  -26.8280   22.3670 C   0  0  0  0  0  2  0  0  0  0  0  0
  -19.7100  -26.5380   21.3110 C   0  0  0  0  0  2  0  0  0  0  0  0
  -18.3100  -26.6610   21.9210 C   0  0  0  0  0  2  0  0  0  0  0  0
  -19.2180  -28.7410   23.1090 C   0  0  0  0  0  0  0  0  0  0  0  0
  -18.9830  -29.9900   23.7220 C   0  0  0  0  0  3  0  0  0  0  0  0
  -17.6770  -30.4900   23.8650 C   0  0  0  0  0  3  0  0  0  0  0  0
  -16.5840  -29.7350   23.4060 C   0  0  0  0  0  3  0  0  0  0  0  0
  -16.8030  -28.4870   22.7960 C   0  0  0  0  0  3  0  0  0  0  0  0
  -25.8410  -32.4980   23.8500 C   0  0  0  0  0  3  0  0  0  0  0  0
  -26.3130  -31.7370   25.1490 C   0  0  1  0  0  0  0  0  0  0  0  0
  -25.1790  -31.4870   26.1710 C   0  0  0  0  0  1  0  0  0  0  0  0
  -26.9340  -30.3680   24.7880 C   0  0  0  0  0  1  0  0  0  0  0  0
  -27.4170  -32.5510   25.8630 C   0  0  0  0  0  1  0  0  0  0  0  0
  -25.5000  -33.8920   24.1630 N   0  0  0  0  0  0  0  0  0  0  0  0
  -25.8400  -34.9460   23.4080 C   0  0  0  0  0  0  0  0  0  0  0  0
  -26.5490  -34.8450   22.4030 O   0  0  0  0  0  0  0  0  0  0  0  0
  -24.8760  -34.0420   24.9430 H   0  0  0  0  0  0  0  0  0  0  0  0
  -24.1010  -36.7120   22.9770 C   0  0  0  0  0  1  0  0  0  0  0  0
  -25.3150  -36.3290   23.8390 C   0  0  0  0  0  3  0  0  0  0  0  0
  -27.3970  -37.2570   24.7540 C   0  0  0  0  0  1  0  0  0  0  0  0
  -26.3360  -37.3980   23.7600 N   0  0  0  0  0  0  0  0  0  0  0  0
  -25.9070  -38.3110   23.8810 H   0  0  0  0  0  0  0  0  0  0  0  0
  -30.5690  -17.0060   20.7400 C   0  0  0  0  0  2  0  0  0  0  0  0
  -30.8190  -14.5600   20.1240 C   0  0  0  0  0  0  0  0  0  0  0  0
  -30.4830  -12.4030   18.9650 C   0  0  0  0  0  2  0  0  0  0  0  0
  -29.4660  -12.5730   17.8170 C   0  0  0  0  0  2  0  0  0  0  0  0
  -28.0290  -12.4040   18.3440 C   0  0  0  0  0  2  0  0  0  0  0  0
  -27.7510  -13.2580   19.6100 C   0  0  0  0  0  3  0  0  0  0  0  0
  -28.8650  -13.0580   20.6620 C   0  0  0  0  0  2  0  0  0  0  0  0
  -30.1490  -13.3780   20.0210 N   0  0  0  0  0  0  0  0  0  0  0  0
  -31.9080  -14.7470   19.5760 O   0  0  0  0  0  0  0  0  0  0  0  0
  -30.1590  -15.5780   20.7200 N   0  0  0  0  0  0  0  0  0  0  0  0
  -29.2760  -15.3480   21.1500 H   0  0  0  0  0  0  0  0  0  0  0  0
  -25.4010  -13.8640   20.4680 C   0  0  0  0  0  0  0  0  0  0  0  0
  -24.3480  -13.0940   20.8780 C   0  0  0  0  0  0  0  0  0  0  0  0
  -24.7930  -11.7400   20.7870 C   0  0  0  0  0  0  0  0  0  0  0  0
  -26.4250  -12.9840   20.1590 N   0  0  0  0  0  0  0  0  0  0  0  0
  -26.0640  -11.6990   20.4050 N   0  0  0  0  0  0  0  0  0  0  0  0
  -24.0700  -10.4800   20.9840 C   0  0  0  0  0  0  0  0  0  0  0  0
  -24.5200   -9.5060   21.9020 C   0  0  0  0  0  3  0  0  0  0  0  0
  -23.7990   -8.3070   22.0870 C   0  0  0  0  0  3  0  0  0  0  0  0
  -22.6110   -8.0740   21.3540 C   0  0  0  0  0  0  0  0  0  0  0  0
  -22.1780   -9.0360   20.4240 C   0  0  0  0  0  3  0  0  0  0  0  0
  -22.9020  -10.2260   20.2370 C   0  0  0  0  0  3  0  0  0  0  0  0
  -21.8570   -6.9280   21.4520 O   0  0  0  0  0  0  0  0  0  0  0  0
  -21.8000   -6.2030   22.6130 C   0  0  0  0  0  0  0  0  0  0  0  0
  -21.3280   -6.7640   23.8200 C   0  0  0  0  0  3  0  0  0  0  0  0
  -21.2170   -5.9610   24.9740 C   0  0  0  0  0  3  0  0  0  0  0  0
  -21.5710   -4.6000   24.9210 C   0  0  0  0  0  0  0  0  0  0  0  0
  -22.0370   -4.0390   23.7190 C   0  0  0  0  0  3  0  0  0  0  0  0
  -22.1480   -4.8380   22.5680 C   0  0  0  0  0  0  0  0  0  0  0  0
  -22.5770   -4.2870   21.4070 F   0  0  0  0  0  0  0  0  0  0  0  0
  -21.4550   -3.8280   26.0260 F   0  0  0  0  0  0  0  0  0  0  0  0
  -22.9730  -13.5760   21.2370 C   0  0  0  0  0  0  0  0  0  0  0  0
  -22.2850  -12.8620   22.1190 N   0  0  0  0  0  0  0  0  0  0  0  0
  -22.5180  -14.6190   20.7680 O   0  0  0  0  0  0  0  0  0  0  0  0
  -22.6680  -12.0190   22.5220 H   0  0  0  0  0  0  0  0  0  0  0  0
  -21.3640  -13.1650   22.4010 H   0  0  0  0  0  0  0  0  0  0  0  0
  -25.5680  -15.2370   20.3090 N   0  0  0  0  0  0  0  0  0  0  0  0
  -24.8250  -15.8990   20.5030 H   0  0  0  0  0  0  0  0  0  0  0  0
  -26.4230  -15.6680   19.9920 H   0  0  0  0  0  0  0  0  0  0  0  0
  -28.4960  -17.9950   18.5500 C   0  0  0  0  0  2  0  0  0  0  0  0
  -27.3700  -18.5130   17.7550 N   0  0  0  0  0  4  0  0  0  0  0  0
  -27.5710  -18.4250   16.7740 H   0  0  0  0  0  0  0  0  0  0  0  0
  -27.2110  -19.4860   17.9450 H   0  0  0  0  0  0  0  0  0  0  0  0
  -26.5230  -18.0090   17.9480 H   0  0  0  0  0  0  0  0  0  0  0  0
  1  2  1  0
  2  5  1  0
  3 91  1  0
  3  1  1  0
  3  4  1  0
  4 52  1  0
  4  2  1  0
  6  5  2  0
  7  5  1  0
  7  8  1  0
  9 10  1  0
  9  8  1  0
 11 10  1  0
 12 23  2  0
 13 11  1  0
 13 18  1  0
 14 22  1  0
 14 24  1  0
 15 21  1  0
 15 17  1  0
 16 22  1  0
 17 18  2  0
 17 16  1  0
 19 13  2  0
 20 19  1  0
 20 15  2  0
 21 14  1  0
 22 12  1  0
 24 26  2  0
 25 24  1  0
 27 25  1  0
 28 37  2  0
 28 33  1  0
 29 25  1  0
 29 33  1  0
 30 29  1  0
 31 32  1  0
 31 30  1  0
 32 28  1  0
 33 34  2  0
 34 35  1  0
 36 35  2  0
 37 36  1  0
 38 12  1  0
 38 43  1  0
 38 39  1  0
 39 42  1  1
 39 40  1  0
 41 39  1  0
 43 46  1  0
 44 48  1  0
 44 43  1  0
 45 44  2  0
 48 47  1  0
 50 48  1  0
 50 51  1  0
 50 49  1  0
 53 61  1  0
 54 59  1  0
 55 56  1  0
 55 54  1  0
 57 56  1  0
 57 66  1  0
 57 58  1  0
 59 53  1  0
 59 58  1  0
 60 53  2  0
 61 52  1  0
 61 62  1  0
 63 64  2  0
 64 83  1  0
 65 64  1  0
 65 68  1  0
 66 67  1  0
 66 63  1  0
 67 65  2  0
 68 69  1  0
 69 70  2  0
 71 74  1  0
 71 70  1  0
 72 71  2  0
 73 72  1  0
 73 68  2  0
 74 75  1  0
 75 76  1  0
 76 77  2  0
 78 77  1  0
 78 82  1  0
 79 78  2  0
 80 75  2  0
 80 79  1  0
 81 80  1  0
 83 84  1  0
 84 87  1  0
 84 86  1  0
 85 83  2  0
 88 63  1  0
 88 89  1  0
 90 88  1  0
 92 94  1  0
 92 95  1  0
 92 91  1  0
 93 92  1  0
M  ISO  4  10 101  11 101  53 100  61 100
M  END
>  <TORSDO>  (31) 
F 24

>  <SCORE>  (31) 
-12.060

>  <name>  (31) 
30

>  <ligand_id>  (31) 
30

>  <original_smiles>  (31) 
[H]c1c([H])c([H])c2c(c1[H])C([H])([H])C([H])([H])C([H])([H])C2([H])N([H])C(=O)C1([H])N(C(=O)C([H])(N([H])C(=O)C([H])(N([H])C([H])([H])[H])C([H])([H])[H])C(C([H])([H])[H])(C([H])([H])[H])C([H])([H])[H])C([H])([H])c2c([H])c(OC([H])([H])C([H])([H])C([H])([H])C([H])([H])C(=O)C3([H])C([H])([H])C([H])(C([H])([H])[N+]([H])([H])[H])C3([H])C([H])([H])N([H])C(=O)N3C([H])([H])C([H])([H])C([H])([H])C([H])(n4nc(-c5c([H])c([H])c(Oc6c([H])c([H])c(F)c([H])c6F)c([H])c5[H])c(C(=O)N([H])[H])c4N([H])[H])C3([H])[H])c([H])c([H])c2C1([H])[H]

>  <smiles>  (31) 
[H]c1c([H])c([H])c2c(c1[H])C([H])([H])C([H])([H])C([H])([H])C2([H])N([H])C(=O)C1([H])N(C(=O)C([H])(N([H])C(=O)C([H])(N([H])C([H])([H])[H])C([H])([H])[H])C(C([H])([H])[H])(C([H])([H])[H])C([H])([H])[H])C([H])([H])c2c([H])c(OC([H])([H])C([H])([H])C([H])([H])C([H])([H])C(=O)C3([H])C([H])([H])C([H])(C([H])([H])[N+]([H])([H])[H])C3([H])C([H])([H])N([H])C(=O)N3C([H])([H])C([H])([H])C([H])([H])C([H])(n4nc(-c5c([H])c([H])c(Oc6c([H])c([H])c(F)c([H])c6F)c([H])c5[H])c(C(=O)N([H])[H])c4N([H])[H])C3([H])[H])c([H])c([H])c2C1([H])[H]

$$$$
31:0:0
     RDKit          3D

 99107  0  0  1  0  0  0  0  0999 V2000
  -30.3880  -21.0870   22.9160 C   0  0  0  0  0  3  0  0  0  0  0  0
  -30.9970  -21.5400   20.6030 C   0  0  0  0  0  3  0  0  0  0  0  0
  -29.9760  -19.7870   22.5570 C   0  0  0  0  0  3  0  0  0  0  0  0
  -30.5860  -20.2420   20.2450 C   0  0  0  0  0  3  0  0  0  0  0  0
  -30.9040  -21.9680   21.9420 C   0  0  0  0  0  0  0  0  0  0  0  0
  -30.0750  -19.3500   21.2170 C   0  0  0  0  0  0  0  0  0  0  0  0
  -31.3880  -23.3530   22.3410 C   0  0  0  0  0  2  0  0  0  0  0  0
  -30.2630  -24.4070   22.4170 C   0  0  0  0  0  2  0  0  0  0  0  0
  -29.9020  -25.1010   21.0980 C   0  0  0  0  0  0  0  0  0  0  0  0
  -30.6290  -25.0420   20.1010 O   0  0  0  0  0  0  0  0  0  0  0  0
  -28.5930  -25.8980   21.0940 C   0  0  0  0  0  2  0  0  0  0  0  0
  -28.6110  -26.9170   20.0940 O   0  0  0  0  0  0  0  0  0  0  0  0
  -24.6590  -31.9160   23.2220 C   0  0  0  0  0  0  0  0  0  0  0  0
  -27.4390  -27.6240   20.0870 C   0  0  0  0  0  0  0  0  0  0  0  0
  -23.4990  -30.5120   21.5460 C   0  0  0  0  0  3  0  0  0  0  0  0
  -25.0020  -29.0370   20.1050 C   0  0  0  0  0  0  0  0  0  0  0  0
  -26.0110  -30.9490   21.3690 C   0  0  0  0  0  2  0  0  0  0  0  0
  -26.1390  -29.5930   20.7090 C   0  0  0  0  0  0  0  0  0  0  0  0
  -27.3620  -28.8920   20.6980 C   0  0  0  0  0  3  0  0  0  0  0  0
  -26.2920  -27.0720   19.4820 C   0  0  0  0  0  3  0  0  0  0  0  0
  -25.0710  -27.7740   19.4900 C   0  0  0  0  0  3  0  0  0  0  0  0
  -23.7340  -29.8580   20.1560 C   0  0  0  0  0  2  0  0  0  0  0  0
  -24.7400  -31.1380   22.1060 N   0  0  0  0  0  0  0  0  0  0  0  0
  -23.5680  -32.1500   23.7590 O   0  0  0  0  0  0  0  0  0  0  0  0
  -22.8680  -29.4590   22.4830 C   0  0  0  0  0  0  0  0  0  0  0  0
  -21.5460  -29.2570   22.3520 N   0  0  0  0  0  0  0  0  0  0  0  0
  -23.5630  -28.8260   23.2820 O   0  0  0  0  0  0  0  0  0  0  0  0
  -21.0480  -29.8210   21.6790 H   0  0  0  0  0  0  0  0  0  0  0  0
  -18.1890  -28.0210   22.8410 C   0  0  0  0  0  0  0  0  0  0  0  0
  -20.7450  -28.2890   23.1000 C   0  0  0  0  0  3  0  0  0  0  0  0
  -20.8550  -26.8780   22.4770 C   0  0  0  0  0  2  0  0  0  0  0  0
  -19.7470  -26.5790   21.4630 C   0  0  0  0  0  2  0  0  0  0  0  0
  -18.3690  -26.6940   22.1230 C   0  0  0  0  0  2  0  0  0  0  0  0
  -19.3050  -28.7780   23.2860 C   0  0  0  0  0  0  0  0  0  0  0  0
  -19.0830  -30.0210   23.9150 C   0  0  0  0  0  3  0  0  0  0  0  0
  -17.7770  -30.5090   24.1060 C   0  0  0  0  0  3  0  0  0  0  0  0
  -16.6740  -29.7480   23.6790 C   0  0  0  0  0  3  0  0  0  0  0  0
  -16.8810  -28.5060   23.0530 C   0  0  0  0  0  3  0  0  0  0  0  0
  -25.9250  -32.5650   23.8610 C   0  0  0  0  0  3  0  0  0  0  0  0
  -26.4270  -31.8110   25.1540 C   0  0  1  0  0  0  0  0  0  0  0  0
  -25.3150  -31.5670   26.2020 C   0  0  0  0  0  1  0  0  0  0  0  0
  -27.0340  -30.4380   24.7820 C   0  0  0  0  0  1  0  0  0  0  0  0
  -27.5530  -32.6250   25.8340 C   0  0  0  0  0  1  0  0  0  0  0  0
  -25.5980  -33.9630   24.1690 N   0  0  0  0  0  0  0  0  0  0  0  0
  -25.9360  -35.0090   23.4010 C   0  0  0  0  0  0  0  0  0  0  0  0
  -26.6270  -34.8980   22.3850 O   0  0  0  0  0  0  0  0  0  0  0  0
  -24.9870  -34.1230   24.9560 H   0  0  0  0  0  0  0  0  0  0  0  0
  -24.1980  -36.7780   22.9860 C   0  0  0  0  0  1  0  0  0  0  0  0
  -25.4250  -36.3970   23.8300 C   0  0  0  0  0  3  0  0  0  0  0  0
  -27.5250  -37.3200   24.7040 C   0  0  0  0  0  1  0  0  0  0  0  0
  -26.4500  -37.4590   23.7260 N   0  0  0  0  0  0  0  0  0  0  0  0
  -26.0310  -38.3770   23.8440 H   0  0  0  0  0  0  0  0  0  0  0  0
  -29.5870  -17.9440   20.8230 C   0  0  0  0  0  3  0  0  0  0  0  0
  -31.2030  -14.5450   20.6130 C   0  0  0  0  0  0  0  0  0  0  0  0
  -31.0020  -12.2080   19.8670 C   0  0  0  0  0  2  0  0  0  0  0  0
  -30.1630  -12.1810   18.5740 C   0  0  0  0  0  2  0  0  0  0  0  0
  -28.6590  -12.0890   18.9030 C   0  0  0  0  0  2  0  0  0  0  0  0
  -28.2150  -13.1310   19.9650 C   0  0  0  0  0  3  0  0  0  0  0  0
  -29.1780  -13.1420   21.1740 C   0  0  0  0  0  2  0  0  0  0  0  0
  -30.5440  -13.3560   20.6640 N   0  0  0  0  0  0  0  0  0  0  0  0
  -32.3680  -14.6240   20.2110 O   0  0  0  0  0  0  0  0  0  0  0  0
  -30.7530  -16.9270   20.7120 C   0  0  0  0  0  0  0  0  0  0  0  0
  -30.4340  -15.6240   20.8700 N   0  0  0  0  0  0  0  0  0  0  0  0
  -31.8980  -17.3350   20.4840 O   0  0  0  0  0  0  0  0  0  0  0  0
  -29.4820  -15.4230   21.1260 H   0  0  0  0  0  0  0  0  0  0  0  0
  -25.8100  -13.8370   20.5490 C   0  0  0  0  0  0  0  0  0  0  0  0
  -24.6990  -13.1130   20.8830 C   0  0  0  0  0  0  0  0  0  0  0  0
  -25.1070  -11.7440   20.8830 C   0  0  0  0  0  0  0  0  0  0  0  0
  -26.8300  -12.9140   20.3780 N   0  0  0  0  0  0  0  0  0  0  0  0
  -26.4060  -11.6500   20.6330 N   0  0  0  0  0  0  0  0  0  0  0  0
  -24.3240  -10.5150   21.0480 C   0  0  0  0  0  0  0  0  0  0  0  0
  -24.6860   -9.5290   21.9920 C   0  0  0  0  0  3  0  0  0  0  0  0
  -23.9070   -8.3630   22.1450 C   0  0  0  0  0  3  0  0  0  0  0  0
  -22.7490   -8.1740   21.3540 C   0  0  0  0  0  0  0  0  0  0  0  0
  -22.4060   -9.1470   20.3980 C   0  0  0  0  0  3  0  0  0  0  0  0
  -23.1860  -10.3050   20.2430 C   0  0  0  0  0  3  0  0  0  0  0  0
  -21.9470   -7.0610   21.4160 O   0  0  0  0  0  0  0  0  0  0  0  0
  -21.8030   -6.3420   22.5760 C   0  0  0  0  0  0  0  0  0  0  0  0
  -21.2860   -6.9220   23.7550 C   0  0  0  0  0  3  0  0  0  0  0  0
  -21.0900   -6.1300   24.9030 C   0  0  0  0  0  3  0  0  0  0  0  0
  -21.4020   -4.7570   24.8730 C   0  0  0  0  0  0  0  0  0  0  0  0
  -21.9130   -4.1770   23.6990 C   0  0  0  0  0  3  0  0  0  0  0  0
  -22.1110   -4.9670   22.5540 C   0  0  0  0  0  0  0  0  0  0  0  0
  -22.5820   -4.3980   21.4190 F   0  0  0  0  0  0  0  0  0  0  0  0
  -21.2080   -3.9930   25.9730 F   0  0  0  0  0  0  0  0  0  0  0  0
  -23.3110  -13.6490   21.0810 C   0  0  0  0  0  0  0  0  0  0  0  0
  -22.5240  -13.0110   21.9410 N   0  0  0  0  0  0  0  0  0  0  0  0
  -22.9330  -14.6700   20.5060 O   0  0  0  0  0  0  0  0  0  0  0  0
  -22.8400  -12.1860   22.4280 H   0  0  0  0  0  0  0  0  0  0  0  0
  -21.5900  -13.3550   22.1140 H   0  0  0  0  0  0  0  0  0  0  0  0
  -26.0300  -15.1940   20.3440 N   0  0  0  0  0  0  0  0  0  0  0  0
  -25.1890  -15.7480   20.2370 H   0  0  0  0  0  0  0  0  0  0  0  0
  -26.7480  -15.4290   19.6710 H   0  0  0  0  0  0  0  0  0  0  0  0
  -28.7410  -17.9940   19.5230 C   0  0  0  0  0  2  0  0  0  0  0  0
  -27.5780  -19.0140   19.5750 C   0  0  0  0  0  2  0  0  0  0  0  0
  -26.9360  -19.2210   18.2650 N   0  0  0  0  0  4  0  0  0  0  0  0
  -27.5970  -19.5630   17.5900 H   0  0  0  0  0  0  0  0  0  0  0  0
  -26.2050  -19.9060   18.3530 H   0  0  0  0  0  0  0  0  0  0  0  0
  -26.5230  -18.3740   17.9190 H   0  0  0  0  0  0  0  0  0  0  0  0
  2  5  1  0
  3  1  1  0
  4  2  2  0
  4  6  1  0
  5  7  1  0
  5  1  2  0
  6  3  2  0
  7  8  1  0
  9  8  1  0
 10  9  2  0
 11  9  1  0
 12 11  1  0
 13 24  2  0
 14 12  1  0
 14 19  1  0
 15 23  1  0
 15 25  1  0
 16 22  1  0
 16 18  1  0
 17 23  1  0
 18 17  1  0
 19 18  2  0
 20 21  1  0
 20 14  2  0
 21 16  2  0
 22 15  1  0
 23 13  1  0
 25 27  2  0
 26 25  1  0
 28 26  1  0
 29 38  2  0
 29 34  1  0
 30 26  1  0
 30 34  1  0
 31 30  1  0
 32 33  1  0
 32 31  1  0
 33 29  1  0
 34 35  2  0
 35 36  1  0
 37 36  2  0
 38 37  1  0
 39 13  1  0
 39 44  1  0
 39 40  1  0
 40 43  1  1
 40 41  1  0
 42 40  1  0
 44 47  1  0
 45 49  1  0
 45 44  1  0
 46 45  2  0
 49 48  1  0
 51 49  1  0
 51 52  1  0
 51 50  1  0
 53 94  1  0
 53  6  1  0
 54 60  1  0
 54 63  1  0
 55 60  1  0
 56 57  1  0
 56 55  1  0
 58 57  1  0
 58 69  1  0
 58 59  1  0
 60 59  1  0
 61 54  2  0
 62 53  1  0
 62 63  1  0
 63 65  1  0
 64 62  2  0
 66 67  2  0
 67 68  1  0
 67 86  1  0
 68 71  1  0
 69 66  1  0
 69 70  1  0
 70 68  2  0
 71 72  1  0
 72 73  2  0
 74 77  1  0
 74 73  1  0
 75 74  2  0
 76 75  1  0
 76 71  2  0
 77 78  1  0
 78 79  1  0
 79 80  2  0
 81 80  1  0
 81 85  1  0
 82 81  2  0
 83 78  2  0
 83 82  1  0
 84 83  1  0
 86 87  1  0
 87 90  1  0
 87 89  1  0
 88 86  2  0
 91 66  1  0
 92 91  1  0
 93 91  1  0
 94 95  1  0
 96 98  1  0
 96 95  1  0
 97 96  1  0
 99 96  1  0
M  ISO  4  11 101  12 101  54 100  63 100
M  END
>  <TORSDO>  (32) 
F 24

>  <SCORE>  (32) 
-10.557

>  <name>  (32) 
31

>  <ligand_id>  (32) 
31

>  <original_smiles>  (32) 
[H]c1c([H])c([H])c2c(c1[H])C([H])([H])C([H])([H])C([H])([H])C2([H])N([H])C(=O)C1([H])N(C(=O)C([H])(N([H])C(=O)C([H])(N([H])C([H])([H])[H])C([H])([H])[H])C(C([H])([H])[H])(C([H])([H])[H])C([H])([H])[H])C([H])([H])c2c([H])c(OC([H])([H])C(=O)C([H])([H])C([H])([H])c3c([H])c([H])c(C([H])(C(=O)N([H])C(=O)N4C([H])([H])C([H])([H])C([H])([H])C([H])(n5nc(-c6c([H])c([H])c(Oc7c([H])c([H])c(F)c([H])c7F)c([H])c6[H])c(C(=O)N([H])[H])c5N([H])[H])C4([H])[H])C([H])([H])C([H])([H])[N+]([H])([H])[H])c([H])c3[H])c([H])c([H])c2C1([H])[H]

>  <smiles>  (32) 
[H]c1c([H])c([H])c2c(c1[H])C([H])([H])C([H])([H])C([H])([H])C2([H])N([H])C(=O)C1([H])N(C(=O)C([H])(N([H])C(=O)C([H])(N([H])C([H])([H])[H])C([H])([H])[H])C(C([H])([H])[H])(C([H])([H])[H])C([H])([H])[H])C([H])([H])c2c([H])c(OC([H])([H])C(=O)C([H])([H])C([H])([H])c3c([H])c([H])c(C([H])(C(=O)N([H])C(=O)N4C([H])([H])C([H])([H])C([H])([H])C([H])(n5nc(-c6c([H])c([H])c(Oc7c([H])c([H])c(F)c([H])c7F)c([H])c6[H])c(C(=O)N([H])[H])c5N([H])[H])C4([H])[H])C([H])([H])C([H])([H])[N+]([H])([H])[H])c([H])c3[H])c([H])c([H])c2C1([H])[H]

$$$$
32:0:0
     RDKit          3D

 90 97  0  0  1  0  0  0  0  0999 V2000
  -29.2330  -22.0290   20.1330 C   0  0  0  0  0  3  0  0  0  0  0  0
  -28.5790  -23.4520   20.6870 C   0  0  0  0  0  0  0  0  0  0  0  0
  -28.2250  -23.4900   21.8680 O   0  0  0  0  0  0  0  0  0  0  0  0
  -28.3560  -24.8180   19.7700 C   0  0  0  0  0  2  0  0  0  0  0  0
  -28.2970  -26.2650   20.3440 O   0  0  0  0  0  0  0  0  0  0  0  0
  -24.6120  -31.9070   23.2360 C   0  0  0  0  0  0  0  0  0  0  0  0
  -27.2160  -27.2120   20.2110 C   0  0  0  0  0  0  0  0  0  0  0  0
  -23.4150  -30.5060   21.5970 C   0  0  0  0  0  3  0  0  0  0  0  0
  -24.8700  -28.9380   20.1670 C   0  0  0  0  0  0  0  0  0  0  0  0
  -25.9620  -30.7940   21.4160 C   0  0  0  0  0  2  0  0  0  0  0  0
  -26.0430  -29.3970   20.7760 C   0  0  0  0  0  0  0  0  0  0  0  0
  -27.2110  -28.5490   20.7850 C   0  0  0  0  0  3  0  0  0  0  0  0
  -26.0150  -26.8520   19.5610 C   0  0  0  0  0  3  0  0  0  0  0  0
  -24.8670  -27.6790   19.5440 C   0  0  0  0  0  3  0  0  0  0  0  0
  -23.6360  -29.8250   20.2180 C   0  0  0  0  0  2  0  0  0  0  0  0
  -24.6850  -31.0920   22.1390 N   0  0  0  0  0  0  0  0  0  0  0  0
  -23.5260  -32.1850   23.7680 O   0  0  0  0  0  0  0  0  0  0  0  0
  -22.7450  -29.4980   22.5630 C   0  0  0  0  0  0  0  0  0  0  0  0
  -21.4190  -29.3190   22.4370 N   0  0  0  0  0  0  0  0  0  0  0  0
  -23.4210  -28.8800   23.3900 O   0  0  0  0  0  0  0  0  0  0  0  0
  -20.9350  -29.8700   21.7420 H   0  0  0  0  0  0  0  0  0  0  0  0
  -18.0410  -28.1070   22.9370 C   0  0  0  0  0  0  0  0  0  0  0  0
  -20.6010  -28.3770   23.2050 C   0  0  0  0  0  3  0  0  0  0  0  0
  -20.7060  -26.9470   22.6280 C   0  0  0  0  0  2  0  0  0  0  0  0
  -19.6050  -26.6210   21.6150 C   0  0  0  0  0  2  0  0  0  0  0  0
  -18.2220  -26.7590   22.2590 C   0  0  0  0  0  2  0  0  0  0  0  0
  -19.1580  -28.8720   23.3690 C   0  0  0  0  0  0  0  0  0  0  0  0
  -18.9350  -30.1310   23.9670 C   0  0  0  0  0  3  0  0  0  0  0  0
  -17.6280  -30.6270   24.1370 C   0  0  0  0  0  3  0  0  0  0  0  0
  -16.5270  -29.8590   23.7210 C   0  0  0  0  0  3  0  0  0  0  0  0
  -16.7330  -28.6010   23.1280 C   0  0  0  0  0  3  0  0  0  0  0  0
  -25.8880  -32.5480   23.8650 C   0  0  0  0  0  3  0  0  0  0  0  0
  -25.5740  -33.9500   24.1850 N   0  0  0  0  0  0  0  0  0  0  0  0
  -25.9130  -35.0000   23.4260 C   0  0  0  0  0  0  0  0  0  0  0  0
  -26.5880  -34.8910   22.3990 O   0  0  0  0  0  0  0  0  0  0  0  0
  -24.9740  -34.1080   24.9810 H   0  0  0  0  0  0  0  0  0  0  0  0
  -24.1950  -36.8010   23.0510 C   0  0  0  0  0  1  0  0  0  0  0  0
  -25.4270  -36.3930   23.8760 C   0  0  0  0  0  3  0  0  0  0  0  0
  -27.5560  -37.2730   24.7290 C   0  0  0  0  0  1  0  0  0  0  0  0
  -26.4660  -37.4420   23.7710 N   0  0  0  0  0  0  0  0  0  0  0  0
  -26.0640  -38.3650   23.9070 H   0  0  0  0  0  0  0  0  0  0  0  0
  -26.3910  -31.7880   25.1540 C   0  0  1  0  0  0  0  0  0  0  0  0
  -25.2890  -31.5620   26.2150 C   0  0  0  0  0  1  0  0  0  0  0  0
  -26.9740  -30.4080   24.7770 C   0  0  0  0  0  1  0  0  0  0  0  0
  -27.5390  -32.5850   25.8150 C   0  0  0  0  0  1  0  0  0  0  0  0
  -28.9940  -20.4750   20.7570 C   0  0  0  0  0  3  0  0  0  0  0  0
  -29.9340  -19.0750   20.5050 C   0  0  0  0  0  3  0  0  0  0  0  0
  -32.1020  -19.9980   21.5530 C   0  0  0  0  0  1  0  0  0  0  0  0
  -30.9920  -18.9400   21.6180 C   0  0  0  0  0  2  0  0  0  0  0  0
  -29.2860  -17.5450   20.1990 C   0  0  0  0  0  0  0  0  0  0  0  0
  -30.5380  -15.0170   20.3580 C   0  0  0  0  0  0  0  0  0  0  0  0
  -30.4650  -12.6810   19.3880 C   0  0  0  0  0  2  0  0  0  0  0  0
  -29.5330  -12.6900   18.1520 C   0  0  0  0  0  2  0  0  0  0  0  0
  -28.0650  -12.4680   18.5650 C   0  0  0  0  0  2  0  0  0  0  0  0
  -27.6620  -13.3400   19.7830 C   0  0  0  0  0  3  0  0  0  0  0  0
  -28.7160  -13.2970   20.9120 C   0  0  0  0  0  2  0  0  0  0  0  0
  -29.9960  -13.7320   20.3360 N   0  0  0  0  0  0  0  0  0  0  0  0
  -31.6850  -15.1650   19.9230 O   0  0  0  0  0  0  0  0  0  0  0  0
  -29.7220  -16.1150   20.7330 N   0  0  0  0  0  4  0  0  0  0  0  0
  -28.9710  -15.7440   21.2980 H   0  0  0  0  0  0  0  0  0  0  0  0
  -25.2630  -13.8900   20.4870 C   0  0  0  0  0  0  0  0  0  0  0  0
  -24.2040  -13.1010   20.8510 C   0  0  0  0  0  0  0  0  0  0  0  0
  -24.6860  -11.7580   20.8230 C   0  0  0  0  0  0  0  0  0  0  0  0
  -26.3200  -13.0250   20.2610 N   0  0  0  0  0  0  0  0  0  0  0  0
  -25.9800  -11.7360   20.5250 N   0  0  0  0  0  0  0  0  0  0  0  0
  -23.9740  -10.4870   21.0110 C   0  0  0  0  0  0  0  0  0  0  0  0
  -24.4000   -9.5340   21.9630 C   0  0  0  0  0  3  0  0  0  0  0  0
  -23.6870   -8.3290   22.1380 C   0  0  0  0  0  3  0  0  0  0  0  0
  -22.5340   -8.0650   21.3610 C   0  0  0  0  0  0  0  0  0  0  0  0
  -22.1270   -9.0060   20.3980 C   0  0  0  0  0  3  0  0  0  0  0  0
  -22.8410  -10.2040   20.2210 C   0  0  0  0  0  3  0  0  0  0  0  0
  -21.7940   -6.9100   21.4450 O   0  0  0  0  0  0  0  0  0  0  0  0
  -21.7200   -6.1850   22.6070 C   0  0  0  0  0  0  0  0  0  0  0  0
  -21.2150   -6.7420   23.8010 C   0  0  0  0  0  3  0  0  0  0  0  0
  -21.0920   -5.9410   24.9540 C   0  0  0  0  0  3  0  0  0  0  0  0
  -21.4590   -4.5830   24.9120 C   0  0  0  0  0  0  0  0  0  0  0  0
  -21.9560   -4.0240   23.7210 C   0  0  0  0  0  3  0  0  0  0  0  0
  -22.0820   -4.8230   22.5710 C   0  0  0  0  0  0  0  0  0  0  0  0
  -22.5400   -4.2720   21.4190 F   0  0  0  0  0  0  0  0  0  0  0  0
  -21.3350   -3.8110   26.0180 F   0  0  0  0  0  0  0  0  0  0  0  0
  -22.7980  -13.5610   21.1100 C   0  0  0  0  0  0  0  0  0  0  0  0
  -22.0710  -12.8510   21.9670 N   0  0  0  0  0  0  0  0  0  0  0  0
  -22.3530  -14.5820   20.5890 O   0  0  0  0  0  0  0  0  0  0  0  0
  -22.4490  -12.0270   22.4140 H   0  0  0  0  0  0  0  0  0  0  0  0
  -21.1260  -13.1360   22.1780 H   0  0  0  0  0  0  0  0  0  0  0  0
  -25.4140  -15.2610   20.3050 N   0  0  0  0  0  0  0  0  0  0  0  0
  -24.6420  -15.9110   20.4050 H   0  0  0  0  0  0  0  0  0  0  0  0
  -26.2530  -15.6990   19.9530 H   0  0  0  0  0  0  0  0  0  0  0  0
  -27.9540  -18.4420   18.1770 C   0  0  0  0  0  1  0  0  0  0  0  0
  -28.9470  -17.3960   18.7010 C   0  0  0  0  0  2  0  0  0  0  0  0
  1  2  1  0
  1 46  2  0
  2  3  2  0
  4  5  1  0
  4  2  1  0
  6 17  2  0
  7  5  1  0
  7 12  1  0
  8 16  1  0
  8 18  1  0
  9 15  1  0
  9 11  1  0
 10 16  1  0
 11 12  2  0
 11 10  1  0
 13  7  2  0
 14 13  1  0
 14  9  2  0
 15  8  1  0
 16  6  1  0
 18 20  2  0
 19 18  1  0
 21 19  1  0
 22 31  2  0
 22 27  1  0
 23 19  1  0
 23 27  1  0
 24 23  1  0
 25 26  1  0
 25 24  1  0
 26 22  1  0
 27 28  2  0
 28 29  1  0
 30 29  2  0
 31 30  1  0
 32  6  1  0
 32 33  1  0
 32 42  1  0
 33 36  1  0
 34 38  1  0
 34 33  1  0
 35 34  2  0
 38 37  1  0
 40 38  1  0
 40 41  1  0
 40 39  1  0
 42 45  1  1
 42 43  1  0
 44 42  1  0
 47 46  1  0
 47 49  1  0
 48 49  1  0
 50 47  1  0
 50 59  2  3
 51 59  1  0
 52 57  1  0
 53 54  1  0
 53 52  1  0
 55 54  1  0
 55 64  1  0
 55 56  1  0
 57 51  1  0
 57 56  1  0
 58 51  2  0
 59 60  1  0
 61 62  2  0
 62 81  1  0
 63 62  1  0
 63 66  1  0
 64 61  1  0
 64 65  1  0
 65 63  2  0
 66 67  1  0
 67 68  2  0
 69 72  1  0
 69 68  1  0
 70 69  2  0
 71 70  1  0
 71 66  2  0
 72 73  1  0
 73 74  1  0
 74 75  2  0
 76 75  1  0
 76 80  1  0
 77 76  2  0
 78 73  2  0
 78 77  1  0
 79 78  1  0
 81 82  1  0
 82 85  1  0
 82 84  1  0
 83 81  2  0
 86 87  1  0
 86 61  1  0
 88 86  1  0
 89 90  1  0
 90 50  1  0
M  ISO  4   4 101   5 101  51 100  59 100
M  END
>  <TORSDO>  (33) 
F 23

>  <SCORE>  (33) 
-13.541

>  <name>  (33) 
32

>  <ligand_id>  (33) 
32

>  <original_smiles>  (33) 
[H]c1c([H])c([H])c2c(c1[H])C([H])([H])C([H])([H])C([H])([H])C2([H])N([H])C(=O)C1([H])N(C(=O)C([H])(N([H])C(=O)C([H])(N([H])C([H])([H])[H])C([H])([H])[H])C(C([H])([H])[H])(C([H])([H])[H])C([H])([H])[H])C([H])([H])c2c([H])c(OC([H])([H])C(=O)C([H])([H])C([H])([H])C([H])(C([H])([H])C([H])([H])[H])C([H])(N([H])C(=O)N3C([H])([H])C([H])([H])C([H])([H])C([H])(n4nc(-c5c([H])c([H])c(Oc6c([H])c([H])c(F)c([H])c6F)c([H])c5[H])c(C(=O)N([H])[H])c4N([H])[H])C3([H])[H])C([H])([H])C([H])([H])[H])c([H])c([H])c2C1([H])[H]

>  <smiles>  (33) 
[H]c1c([H])c([H])c2c(c1[H])C([H])([H])C([H])([H])C([H])([H])C2([H])N([H])C(=O)C1([H])N(C(=O)C([H])(N([H])C(=O)C([H])(N([H])C([H])([H])[H])C([H])([H])[H])C(C([H])([H])[H])(C([H])([H])[H])C([H])([H])[H])C([H])([H])c2c([H])c(OC([H])([H])C(=O)C([H])([H])C([H])([H])C([H])(C([H])([H])C([H])([H])[H])C([H])(N([H])C(=O)N3C([H])([H])C([H])([H])C([H])([H])C([H])(n4nc(-c5c([H])c([H])c(Oc6c([H])c([H])c(F)c([H])c6F)c([H])c5[H])c(C(=O)N([H])[H])c4N([H])[H])C3([H])[H])C([H])([H])C([H])([H])[H])c([H])c([H])c2C1([H])[H]

$$$$
33:0:0
     RDKit          3D

 95103  0  0  1  0  0  0  0  0999 V2000
  -29.2030  -18.4210   20.2260 C   0  0  0  0  0  2  0  0  0  0  0  0
  -30.9620  -15.0380   20.8150 C   0  0  0  0  0  0  0  0  0  0  0  0
  -30.8310  -12.6410   20.1810 C   0  0  0  0  0  2  0  0  0  0  0  0
  -30.0710  -12.5230   18.8400 C   0  0  0  0  0  2  0  0  0  0  0  0
  -28.5450  -12.5020   19.0540 C   0  0  0  0  0  2  0  0  0  0  0  0
  -28.0230  -13.4860   20.1430 C   0  0  0  0  0  3  0  0  0  0  0  0
  -28.9580  -13.5620   21.3680 C   0  0  0  0  0  2  0  0  0  0  0  0
  -30.3000  -13.8340   20.8500 N   0  0  0  0  0  0  0  0  0  0  0  0
  -32.1460  -15.0990   21.1480 O   0  0  0  0  0  0  0  0  0  0  0  0
  -31.4700  -18.1160   19.1490 C   0  0  0  0  0  2  0  0  0  0  0  0
  -30.9930  -17.3390   17.9370 C   0  0  0  0  0  3  0  0  0  0  0  0
  -30.5590  -17.5470   20.2490 C   0  0  0  0  0  3  0  0  0  0  0  0
  -30.8970  -15.9140   18.5040 C   0  0  0  0  0  3  0  0  0  0  0  0
  -32.2440  -15.1510   18.2260 C   0  0  0  0  0  1  0  0  0  0  0  0
  -30.4810  -16.0330   19.9560 N   0  0  0  0  0  0  0  0  0  0  0  0
  -25.5650  -14.0700   20.5860 C   0  0  0  0  0  0  0  0  0  0  0  0
  -24.4720  -13.2960   20.8510 C   0  0  0  0  0  0  0  0  0  0  0  0
  -24.9460  -11.9490   20.9300 C   0  0  0  0  0  0  0  0  0  0  0  0
  -26.6400  -13.1970   20.5080 N   0  0  0  0  0  0  0  0  0  0  0  0
  -26.2650  -11.9210   20.7890 N   0  0  0  0  0  0  0  0  0  0  0  0
  -24.2150  -10.6850   21.0790 C   0  0  0  0  0  0  0  0  0  0  0  0
  -24.5750   -9.7330   22.0600 C   0  0  0  0  0  3  0  0  0  0  0  0
  -23.8440   -8.5330   22.1970 C   0  0  0  0  0  3  0  0  0  0  0  0
  -22.7400   -8.2740   21.3520 C   0  0  0  0  0  0  0  0  0  0  0  0
  -22.4000   -9.2120   20.3620 C   0  0  0  0  0  3  0  0  0  0  0  0
  -23.1300  -10.4040   20.2230 C   0  0  0  0  0  3  0  0  0  0  0  0
  -21.9890   -7.1230   21.3940 O   0  0  0  0  0  0  0  0  0  0  0  0
  -21.8600   -6.3910   22.5450 C   0  0  0  0  0  0  0  0  0  0  0  0
  -21.3430   -6.9530   23.7330 C   0  0  0  0  0  3  0  0  0  0  0  0
  -21.1620   -6.1450   24.8740 C   0  0  0  0  0  3  0  0  0  0  0  0
  -21.4870   -4.7770   24.8280 C   0  0  0  0  0  0  0  0  0  0  0  0
  -21.9970   -4.2140   23.6450 C   0  0  0  0  0  3  0  0  0  0  0  0
  -22.1800   -5.0180   22.5070 C   0  0  0  0  0  0  0  0  0  0  0  0
  -22.6540   -4.4670   21.3640 F   0  0  0  0  0  0  0  0  0  0  0  0
  -21.3050   -3.9990   25.9210 F   0  0  0  0  0  0  0  0  0  0  0  0
  -23.0470  -13.7570   20.9290 C   0  0  0  0  0  0  0  0  0  0  0  0
  -22.2390  -13.0990   21.7510 N   0  0  0  0  0  0  0  0  0  0  0  0
  -22.6580  -14.7360   20.2950 O   0  0  0  0  0  0  0  0  0  0  0  0
  -22.5770  -12.3090   22.2830 H   0  0  0  0  0  0  0  0  0  0  0  0
  -21.2760  -13.3850   21.8510 H   0  0  0  0  0  0  0  0  0  0  0  0
  -25.7400  -15.4360   20.3730 N   0  0  0  0  0  0  0  0  0  0  0  0
  -24.9640  -16.0870   20.3540 H   0  0  0  0  0  0  0  0  0  0  0  0
  -26.6270  -15.8630   20.1380 H   0  0  0  0  0  0  0  0  0  0  0  0
  -31.7010  -17.5590   16.5710 C   0  0  2  0  0  0  0  0  0  0  0  0
  -33.0030  -17.2620   16.6260 F   0  0  0  0  0  0  0  0  0  0  0  0
  -31.6020  -18.8570   16.2830 F   0  0  0  0  0  0  0  0  0  0  0  0
  -31.4260  -17.0610   14.0100 C   0  0  0  0  0  1  0  0  0  0  0  0
  -30.9790  -16.7640   15.4470 C   0  0  0  0  0  2  0  0  0  0  0  0
  -29.1680  -19.9610   20.7260 C   0  0  0  0  0  3  0  0  0  0  0  0
  -29.1160  -21.2560   19.7670 C   0  0  0  0  0  3  0  0  0  0  0  0
  -28.9470  -22.6920   20.4830 C   0  0  0  0  0  2  0  0  0  0  0  0
  -29.3380  -24.3010   18.4600 C   0  0  0  0  0  1  0  0  0  0  0  0
  -28.4940  -24.0420   19.7120 C   0  0  0  0  0  3  0  0  0  0  0  0
  -28.4110  -25.3740   20.6190 C   0  0  0  0  0  2  0  0  0  0  0  0
  -28.4740  -26.7550   20.0810 O   0  0  0  0  0  0  0  0  0  0  0  0
  -24.6450  -32.0090   23.2910 C   0  0  0  0  0  0  0  0  0  0  0  0
  -27.3340  -27.5640   20.1370 C   0  0  0  0  0  0  0  0  0  0  0  0
  -23.4610  -30.6150   21.6340 C   0  0  0  0  0  3  0  0  0  0  0  0
  -24.9310  -29.1070   20.1800 C   0  0  0  0  0  0  0  0  0  0  0  0
  -25.9860  -30.9820   21.4410 C   0  0  0  0  0  2  0  0  0  0  0  0
  -26.0930  -29.6160   20.7780 C   0  0  0  0  0  0  0  0  0  0  0  0
  -27.2990  -28.8570   20.7470 C   0  0  0  0  0  3  0  0  0  0  0  0
  -26.1580  -27.1010   19.5190 C   0  0  0  0  0  3  0  0  0  0  0  0
  -24.9690  -27.8550   19.5430 C   0  0  0  0  0  3  0  0  0  0  0  0
  -23.6780  -29.9640   20.2430 C   0  0  0  0  0  2  0  0  0  0  0  0
  -24.7170  -31.2230   22.1780 N   0  0  0  0  0  0  0  0  0  0  0  0
  -23.5570  -32.2610   23.8310 O   0  0  0  0  0  0  0  0  0  0  0  0
  -22.8260  -29.5710   22.5800 C   0  0  0  0  0  0  0  0  0  0  0  0
  -21.5090  -29.3450   22.4290 N   0  0  0  0  0  0  0  0  0  0  0  0
  -23.5130  -28.9670   23.4060 O   0  0  0  0  0  0  0  0  0  0  0  0
  -21.0120  -29.8820   21.7320 H   0  0  0  0  0  0  0  0  0  0  0  0
  -18.1820  -28.0100   22.8880 C   0  0  0  0  0  0  0  0  0  0  0  0
  -20.7220  -28.3740   23.1890 C   0  0  0  0  0  3  0  0  0  0  0  0
  -20.8910  -26.9520   22.6110 C   0  0  0  0  0  2  0  0  0  0  0  0
  -19.8180  -26.5850   21.5810 C   0  0  0  0  0  2  0  0  0  0  0  0
  -18.4200  -26.6740   22.2040 C   0  0  0  0  0  2  0  0  0  0  0  0
  -19.2620  -28.8150   23.3360 C   0  0  0  0  0  0  0  0  0  0  0  0
  -18.9870  -30.0660   23.9330 C   0  0  0  0  0  3  0  0  0  0  0  0
  -17.6620  -30.5150   24.0790 C   0  0  0  0  0  3  0  0  0  0  0  0
  -16.5950  -29.7110   23.6410 C   0  0  0  0  0  3  0  0  0  0  0  0
  -16.8560  -28.4580   23.0580 C   0  0  0  0  0  3  0  0  0  0  0  0
  -25.9180  -32.6520   23.9260 C   0  0  0  0  0  3  0  0  0  0  0  0
  -26.4360  -31.8820   25.2060 C   0  0  1  0  0  0  0  0  0  0  0  0
  -25.3340  -31.6290   26.2640 C   0  0  0  0  0  1  0  0  0  0  0  0
  -27.0390  -30.5100   24.8160 C   0  0  0  0  0  1  0  0  0  0  0  0
  -27.5650  -32.6950   25.8800 C   0  0  0  0  0  1  0  0  0  0  0  0
  -25.5900  -34.0480   24.2540 N   0  0  0  0  0  0  0  0  0  0  0  0
  -25.9190  -35.1030   23.5000 C   0  0  0  0  0  0  0  0  0  0  0  0
  -26.6050  -35.0050   22.4790 O   0  0  0  0  0  0  0  0  0  0  0  0
  -24.9860  -34.1970   25.0490 H   0  0  0  0  0  0  0  0  0  0  0  0
  -24.1810  -36.8870   23.1120 C   0  0  0  0  0  1  0  0  0  0  0  0
  -25.4070  -36.4870   23.9480 C   0  0  0  0  0  3  0  0  0  0  0  0
  -27.5160  -37.3910   24.8250 C   0  0  0  0  0  1  0  0  0  0  0  0
  -26.4320  -37.5480   23.8590 N   0  0  0  0  0  0  0  0  0  0  0  0
  -26.0170  -38.4660   23.9880 H   0  0  0  0  0  0  0  0  0  0  0  0
  1 49  1  0
  2  8  1  0
  2  9  2  0
  3  8  1  0
  4  5  1  0
  4  3  1  0
  6  5  1  0
  6 19  1  0
  6  7  1  0
  8  7  1  0
 10 12  1  0
 11 44  1  0
 11 13  1  0
 11 10  1  0
 12  1  1  0
 13 14  1  0
 13 15  1  0
 15 12  1  0
 15  2  1  0
 16 17  2  0
 17 36  1  0
 17 18  1  0
 18 21  1  0
 19 16  1  0
 19 20  1  0
 20 18  2  0
 21 22  1  0
 22 23  2  0
 24 27  1  0
 24 23  1  0
 25 24  2  0
 26 25  1  0
 26 21  2  0
 27 28  1  0
 28 29  1  0
 29 30  2  0
 31 30  1  0
 31 35  1  0
 32 31  2  0
 33 28  2  0
 33 32  1  0
 34 33  1  0
 36 37  1  0
 37 40  1  0
 37 39  1  0
 38 36  2  0
 41 16  1  0
 42 41  1  0
 43 41  1  0
 44 45  1  1
 46 44  1  0
 47 48  1  0
 48 44  1  0
 50 51  1  0
 50 49  2  0
 53 52  1  0
 53 51  1  0
 53 54  1  0
 55 57  1  0
 55 54  1  0
 56 67  2  0
 57 62  1  0
 58 66  1  0
 58 68  1  0
 59 65  1  0
 59 61  1  0
 60 66  1  0
 61 60  1  0
 62 61  2  0
 63 64  1  0
 63 57  2  0
 64 59  2  0
 65 58  1  0
 66 56  1  0
 68 70  2  0
 69 68  1  0
 71 69  1  0
 72 81  2  0
 72 77  1  0
 73 69  1  0
 73 77  1  0
 74 73  1  0
 75 76  1  0
 75 74  1  0
 76 72  1  0
 77 78  2  0
 78 79  1  0
 80 79  2  0
 81 80  1  0
 82 56  1  0
 82 87  1  0
 82 83  1  0
 83 86  1  1
 83 84  1  0
 85 83  1  0
 87 90  1  0
 88 92  1  0
 88 87  1  0
 89 88  2  0
 92 91  1  0
 94 92  1  0
 94 95  1  0
 94 93  1  0
M  ISO  4   2 100  15 100  54 101  55 101
M  END
>  <TORSDO>  (34) 
F 23

>  <SCORE>  (34) 
-11.725

>  <name>  (34) 
33

>  <ligand_id>  (34) 
33

>  <original_smiles>  (34) 
[H]c1c([H])c([H])c2c(c1[H])C([H])([H])C([H])([H])C([H])([H])C2([H])N([H])C(=O)C1([H])N(C(=O)C([H])(N([H])C(=O)C([H])(N([H])C([H])([H])[H])C([H])([H])[H])C(C([H])([H])[H])(C([H])([H])[H])C([H])([H])[H])C([H])([H])c2c([H])c(OC([H])([H])C([H])(C([H])([H])[H])C([H])([H])C([H])([H])C([H])([H])C([H])([H])C3([H])N(C(=O)N4C([H])([H])C([H])([H])C([H])([H])C([H])(n5nc(-c6c([H])c([H])c(Oc7c([H])c([H])c(F)c([H])c7F)c([H])c6[H])c(C(=O)N([H])[H])c5N([H])[H])C4([H])[H])C([H])(C([H])([H])[H])C([H])(C(F)(F)C([H])([H])C([H])([H])[H])C3([H])[H])c([H])c([H])c2C1([H])[H]

>  <smiles>  (34) 
[H]c1c([H])c([H])c2c(c1[H])C([H])([H])C([H])([H])C([H])([H])C2([H])N([H])C(=O)C1([H])N(C(=O)C([H])(N([H])C(=O)C([H])(N([H])C([H])([H])[H])C([H])([H])[H])C(C([H])([H])[H])(C([H])([H])[H])C([H])([H])[H])C([H])([H])c2c([H])c(OC([H])([H])C([H])(C([H])([H])[H])C([H])([H])C([H])([H])C([H])([H])C([H])([H])C3([H])N(C(=O)N4C([H])([H])C([H])([H])C([H])([H])C([H])(n5nc(-c6c([H])c([H])c(Oc7c([H])c([H])c(F)c([H])c7F)c([H])c6[H])c(C(=O)N([H])[H])c5N([H])[H])C4([H])[H])C([H])(C([H])([H])[H])C([H])(C(F)(F)C([H])([H])C([H])([H])[H])C3([H])[H])c([H])c([H])c2C1([H])[H]

$$$$
34:0:0
     RDKit          3D

101109  0  0  1  0  0  0  0  0999 V2000
  -26.9100  -21.7120   17.5750 C   0  0  0  0  0  2  0  0  0  0  0  0
  -26.4790  -21.4820   20.1220 C   0  0  0  0  0  2  0  0  0  0  0  0
  -27.2920  -23.1940   17.5520 C   0  0  0  0  0  2  0  0  0  0  0  0
  -26.8120  -24.0380   19.8020 C   0  0  0  0  0  2  0  0  0  0  0  0
  -25.9200  -21.2760   18.6910 C   0  0  0  0  0  3  0  0  0  0  0  0
  -26.3850  -22.8940   20.7390 C   0  0  0  0  0  3  0  0  0  0  0  0
  -27.8800  -23.6360   18.8480 N   0  0  2  0  0  4  0  0  0  0  0  0
  -28.3700  -22.8460   19.2370 H   0  0  0  0  0  0  0  0  0  0  0  0
  -25.5870  -19.7790   18.5700 C   0  0  0  0  0  0  0  0  0  0  0  0
  -26.5760  -19.0080   18.0930 N   0  0  0  0  0  0  0  0  0  0  0  0
  -24.5250  -19.3370   19.0100 O   0  0  0  0  0  0  0  0  0  0  0  0
  -27.3680  -19.4920   17.6980 H   0  0  0  0  0  0  0  0  0  0  0  0
  -26.7710  -17.5880   18.3350 C   0  0  0  0  0  2  0  0  0  0  0  0
  -27.5900  -17.3570   19.6230 C   0  0  0  0  0  2  0  0  0  0  0  0
  -28.8690  -18.2060   19.8130 C   0  0  0  0  0  2  0  0  0  0  0  0
  -30.0510  -17.4490   20.4570 C   0  0  0  0  0  2  0  0  0  0  0  0
  -30.5120  -15.0900   20.9830 C   0  0  0  0  0  0  0  0  0  0  0  0
  -30.3450  -12.9760   19.7730 C   0  0  0  0  0  2  0  0  0  0  0  0
  -29.4650  -13.2500   18.5390 C   0  0  0  0  0  2  0  0  0  0  0  0
  -27.9810  -13.0090   18.8800 C   0  0  0  0  0  2  0  0  0  0  0  0
  -27.5340  -13.7240   20.1860 C   0  0  0  0  0  3  0  0  0  0  0  0
  -28.5590  -13.5410   21.3310 C   0  0  0  0  0  2  0  0  0  0  0  0
  -29.8940  -13.8960   20.8280 N   0  0  0  0  0  0  0  0  0  0  0  0
  -31.7070  -15.2770   20.7540 O   0  0  0  0  0  0  0  0  0  0  0  0
  -29.6840  -16.1390   21.0170 N   0  0  0  0  0  0  0  0  0  0  0  0
  -28.7050  -15.9380   21.1440 H   0  0  0  0  0  0  0  0  0  0  0  0
  -25.0680  -14.1380   20.8160 C   0  0  0  0  0  0  0  0  0  0  0  0
  -24.0370  -13.2790   21.0600 C   0  0  0  0  0  0  0  0  0  0  0  0
  -24.5870  -11.9630   20.9550 C   0  0  0  0  0  0  0  0  0  0  0  0
  -26.1810  -13.3420   20.5770 N   0  0  0  0  0  0  0  0  0  0  0  0
  -25.8920  -12.0260   20.7230 N   0  0  0  0  0  0  0  0  0  0  0  0
  -23.9400  -10.6490   21.0200 C   0  0  0  0  0  0  0  0  0  0  0  0
  -24.3980   -9.6460   21.9020 C   0  0  0  0  0  3  0  0  0  0  0  0
  -23.7480   -8.3930   21.9600 C   0  0  0  0  0  3  0  0  0  0  0  0
  -22.6220   -8.1390   21.1400 C   0  0  0  0  0  0  0  0  0  0  0  0
  -22.1830   -9.1370   20.2540 C   0  0  0  0  0  3  0  0  0  0  0  0
  -22.8330  -10.3800   20.1930 C   0  0  0  0  0  3  0  0  0  0  0  0
  -21.9420   -6.9460   21.1110 O   0  0  0  0  0  0  0  0  0  0  0  0
  -21.8890   -6.1230   22.2070 C   0  0  0  0  0  0  0  0  0  0  0  0
  -21.3940   -6.5700   23.4510 C   0  0  0  0  0  3  0  0  0  0  0  0
  -21.2930   -5.6700   24.5310 C   0  0  0  0  0  3  0  0  0  0  0  0
  -21.6750   -4.3260   24.3650 C   0  0  0  0  0  0  0  0  0  0  0  0
  -22.1660   -3.8800   23.1260 C   0  0  0  0  0  3  0  0  0  0  0  0
  -22.2680   -4.7740   22.0480 C   0  0  0  0  0  0  0  0  0  0  0  0
  -22.7210   -4.3350   20.8490 F   0  0  0  0  0  0  0  0  0  0  0  0
  -21.5680   -3.4620   25.4020 F   0  0  0  0  0  0  0  0  0  0  0  0
  -22.5990  -13.6470   21.2840 C   0  0  0  0  0  0  0  0  0  0  0  0
  -21.8820  -12.8620   22.0780 N   0  0  0  0  0  0  0  0  0  0  0  0
  -22.1180  -14.6670   20.7920 O   0  0  0  0  0  0  0  0  0  0  0  0
  -22.2810  -12.0350   22.4970 H   0  0  0  0  0  0  0  0  0  0  0  0
  -20.9220  -13.0990   22.2780 H   0  0  0  0  0  0  0  0  0  0  0  0
  -25.1470  -15.5310   20.7540 N   0  0  0  0  0  0  0  0  0  0  0  0
  -24.3350  -16.1150   20.9130 H   0  0  0  0  0  0  0  0  0  0  0  0
  -25.9910  -16.0650   20.6120 H   0  0  0  0  0  0  0  0  0  0  0  0
  -24.9100  -24.4790   22.1380 C   0  0  0  0  0  1  0  0  0  0  0  0
  -24.9980  -23.1580   21.3600 C   0  0  0  0  0  2  0  0  0  0  0  0
  -28.9070  -24.6840   18.6610 C   0  0  0  0  0  2  0  0  0  0  0  0
  -29.8560  -24.9120   19.8610 C   0  0  0  0  0  2  0  0  0  0  0  0
  -30.5810  -26.2770   19.8060 C   0  0  0  0  0  2  0  0  0  0  0  0
  -29.6600  -27.5060   19.9540 C   0  0  0  0  0  2  0  0  0  0  0  0
  -28.7970  -27.5760   18.8230 O   0  0  0  0  0  0  0  0  0  0  0  0
  -24.4190  -31.3280   22.9950 C   0  0  0  0  0  0  0  0  0  0  0  0
  -27.5290  -28.0380   19.0710 C   0  0  0  0  0  0  0  0  0  0  0  0
  -23.3360  -29.9720   21.2300 C   0  0  0  0  0  3  0  0  0  0  0  0
  -24.9060  -28.9770   19.4880 C   0  0  0  0  0  0  0  0  0  0  0  0
  -25.7170  -30.8480   20.9330 C   0  0  0  0  0  2  0  0  0  0  0  0
  -25.9910  -29.6250   20.0910 C   0  0  0  0  0  0  0  0  0  0  0  0
  -27.3040  -29.1520   19.9030 C   0  0  0  0  0  3  0  0  0  0  0  0
  -26.4310  -27.4110   18.4410 C   0  0  0  0  0  3  0  0  0  0  0  0
  -25.1180  -27.8570   18.6690 C   0  0  0  0  0  3  0  0  0  0  0  0
  -23.5350  -29.5530   19.7480 C   0  0  0  0  0  2  0  0  0  0  0  0
  -24.5110  -30.7220   21.7790 N   0  0  0  0  0  0  0  0  0  0  0  0
  -23.3640  -31.3040   23.6420 O   0  0  0  0  0  0  0  0  0  0  0  0
  -22.9770  -28.7140   22.0510 C   0  0  0  0  0  0  0  0  0  0  0  0
  -21.7260  -28.2510   21.9160 N   0  0  0  0  0  0  0  0  0  0  0  0
  -23.8200  -28.1610   22.7640 O   0  0  0  0  0  0  0  0  0  0  0  0
  -21.0940  -28.7660   21.3190 H   0  0  0  0  0  0  0  0  0  0  0  0
  -18.7710  -26.1900   22.1730 C   0  0  0  0  0  0  0  0  0  0  0  0
  -21.1720  -27.0630   22.5640 C   0  0  0  0  0  3  0  0  0  0  0  0
  -21.6480  -25.7720   21.8590 C   0  0  0  0  0  2  0  0  0  0  0  0
  -20.6780  -25.2820   20.7790 C   0  0  0  0  0  2  0  0  0  0  0  0
  -19.2980  -25.0050   21.3830 C   0  0  0  0  0  2  0  0  0  0  0  0
  -19.6500  -27.1660   22.7150 C   0  0  0  0  0  0  0  0  0  0  0  0
  -19.1060  -28.2670   23.4110 C   0  0  0  0  0  3  0  0  0  0  0  0
  -17.7150  -28.4020   23.5720 C   0  0  0  0  0  3  0  0  0  0  0  0
  -16.8500  -27.4250   23.0470 C   0  0  0  0  0  3  0  0  0  0  0  0
  -17.3780  -26.3220   22.3540 C   0  0  0  0  0  3  0  0  0  0  0  0
  -25.6270  -32.0940   23.6210 C   0  0  0  0  0  3  0  0  0  0  0  0
  -26.2780  -31.3400   24.8430 C   0  0  1  0  0  0  0  0  0  0  0  0
  -25.2580  -30.9140   25.9250 C   0  0  0  0  0  1  0  0  0  0  0  0
  -27.0200  -30.0700   24.3670 C   0  0  0  0  0  1  0  0  0  0  0  0
  -27.3370  -32.2460   25.5140 C   0  0  0  0  0  1  0  0  0  0  0  0
  -25.1460  -33.4220   24.0210 N   0  0  0  0  0  0  0  0  0  0  0  0
  -25.3580  -34.5470   23.3250 C   0  0  0  0  0  0  0  0  0  0  0  0
  -26.0520  -34.5850   22.3050 O   0  0  0  0  0  0  0  0  0  0  0  0
  -24.5250  -33.4580   24.8150 H   0  0  0  0  0  0  0  0  0  0  0  0
  -23.4450  -36.1460   23.0040 C   0  0  0  0  0  1  0  0  0  0  0  0
  -24.6930  -35.8370   23.8440 C   0  0  0  0  0  3  0  0  0  0  0  0
  -26.6880  -36.8950   24.8060 C   0  0  0  0  0  1  0  0  0  0  0  0
  -25.5990  -37.0070   23.8400 N   0  0  0  0  0  0  0  0  0  0  0  0
  -25.0840  -37.8610   24.0410 H   0  0  0  0  0  0  0  0  0  0  0  0
  1  5  1  0
  2  6  1  0
  3  1  1  0
  3  7  1  0
  4  6  1  0
  5  9  1  0
  5  2  1  0
  6 56  1  0
  7  8  1  1
  7  4  1  0
  9 11  2  0
 10 13  1  0
 10  9  1  0
 12 10  1  0
 13 14  1  0
 14 15  1  0
 15 16  1  0
 16 25  1  0
 17 25  1  0
 18 23  1  0
 19 20  1  0
 19 18  1  0
 21 20  1  0
 21 30  1  0
 21 22  1  0
 23 17  1  0
 23 22  1  0
 24 17  2  0
 25 26  1  0
 27 28  2  0
 28 47  1  0
 29 32  1  0
 29 28  1  0
 30 31  1  0
 30 27  1  0
 31 29  2  0
 32 33  1  0
 33 34  2  0
 35 34  1  0
 36 35  2  0
 37 36  1  0
 37 32  2  0
 38 35  1  0
 38 39  1  0
 39 40  1  0
 40 41  2  0
 42 41  1  0
 42 46  1  0
 43 42  2  0
 44 39  2  0
 44 43  1  0
 45 44  1  0
 47 48  1  0
 48 51  1  0
 48 50  1  0
 49 47  2  0
 52 27  1  0
 52 53  1  0
 54 52  1  0
 56 55  1  0
 57  7  1  0
 57 58  1  0
 59 58  1  0
 59 60  1  0
 61 63  1  0
 61 60  1  0
 62 73  2  0
 63 68  1  0
 64 72  1  0
 64 74  1  0
 65 71  1  0
 65 67  1  0
 66 72  1  0
 67 66  1  0
 68 67  2  0
 69 70  1  0
 69 63  2  0
 70 65  2  0
 71 64  1  0
 72 62  1  0
 74 76  2  0
 75 74  1  0
 77 75  1  0
 78 87  2  0
 78 83  1  0
 79 75  1  0
 79 83  1  0
 80 79  1  0
 81 82  1  0
 81 80  1  0
 82 78  1  0
 83 84  2  0
 84 85  1  0
 86 85  2  0
 87 86  1  0
 88 62  1  0
 88 93  1  0
 88 89  1  0
 89 92  1  1
 89 90  1  0
 91 89  1  0
 93 96  1  0
 94 98  1  0
 94 93  1  0
 95 94  2  0
 98 97  1  0
100 98  1  0
100101  1  0
100 99  1  0
M  ISO  4  17 100  25 100  60 101  61 101
M  END
>  <TORSDO>  (35) 
F 26

>  <SCORE>  (35) 
-6.681

>  <name>  (35) 
34

>  <ligand_id>  (35) 
34

>  <original_smiles>  (35) 
[H]c1c([H])c([H])c2c(c1[H])C([H])([H])C([H])([H])C([H])([H])C2([H])N([H])C(=O)C1([H])N(C(=O)C([H])(N([H])C(=O)C([H])(N([H])C([H])([H])[H])C([H])([H])[H])C(C([H])([H])[H])(C([H])([H])[H])C([H])([H])[H])C([H])([H])c2c([H])c(OC([H])([H])C([H])([H])C([H])([H])C([H])([H])[N+]3([H])C([H])([H])C([H])([H])C([H])(C(=O)N([H])C([H])([H])C([H])([H])C([H])([H])C([H])([H])N([H])C(=O)N4C([H])([H])C([H])([H])C([H])([H])C([H])(n5nc(-c6c([H])c([H])c(Oc7c([H])c([H])c(F)c([H])c7F)c([H])c6[H])c(C(=O)N([H])[H])c5N([H])[H])C4([H])[H])C([H])([H])C([H])(C([H])([H])C([H])([H])[H])C3([H])[H])c([H])c([H])c2C1([H])[H]

>  <smiles>  (35) 
[H]c1c([H])c([H])c2c(c1[H])C([H])([H])C([H])([H])C([H])([H])C2([H])N([H])C(=O)C1([H])N(C(=O)C([H])(N([H])C(=O)C([H])(N([H])C([H])([H])[H])C([H])([H])[H])C(C([H])([H])[H])(C([H])([H])[H])C([H])([H])[H])C([H])([H])c2c([H])c(OC([H])([H])C([H])([H])C([H])([H])C([H])([H])[N+]3([H])C([H])([H])C([H])([H])C([H])(C(=O)N([H])C([H])([H])C([H])([H])C([H])([H])C([H])([H])N([H])C(=O)N4C([H])([H])C([H])([H])C([H])([H])C([H])(n5nc(-c6c([H])c([H])c(Oc7c([H])c([H])c(F)c([H])c7F)c([H])c6[H])c(C(=O)N([H])[H])c5N([H])[H])C4([H])[H])C([H])([H])C([H])(C([H])([H])C([H])([H])[H])C3([H])[H])c([H])c([H])c2C1([H])[H]

$$$$
35:0:0
     RDKit          3D

 96103  0  0  1  0  0  0  0  0999 V2000
  -30.3210  -21.1580   18.7170 C   0  0  0  0  0  2  0  0  0  0  0  0
  -29.1910  -21.9190   18.1820 N   0  0  0  0  0  4  0  0  0  0  0  0
  -28.5250  -22.1250   18.9060 H   0  0  0  0  0  0  0  0  0  0  0  0
  -28.6830  -21.3360   17.5350 H   0  0  0  0  0  0  0  0  0  0  0  0
  -29.5790  -23.1310   17.4550 C   0  0  0  0  0  2  0  0  0  0  0  0
  -30.4130  -24.1760   18.2390 C   0  0  0  0  0  2  0  0  0  0  0  0
  -29.7070  -24.9490   19.3740 C   0  0  0  0  0  2  0  0  0  0  0  0
  -28.6280  -25.9580   18.9380 C   0  0  0  0  0  2  0  0  0  0  0  0
  -28.2780  -26.7490   20.0780 O   0  0  0  0  0  0  0  0  0  0  0  0
  -24.5330  -31.9030   23.2330 C   0  0  0  0  0  0  0  0  0  0  0  0
  -27.0900  -27.4490   20.0840 C   0  0  0  0  0  0  0  0  0  0  0  0
  -23.2790  -30.5130   21.6110 C   0  0  0  0  0  3  0  0  0  0  0  0
  -24.6890  -28.9500   20.1710 C   0  0  0  0  0  0  0  0  0  0  0  0
  -25.8010  -30.8410   21.3740 C   0  0  0  0  0  2  0  0  0  0  0  0
  -25.8590  -29.4680   20.7380 C   0  0  0  0  0  0  0  0  0  0  0  0
  -27.0530  -28.7160   20.7110 C   0  0  0  0  0  3  0  0  0  0  0  0
  -25.8940  -26.9360   19.5290 C   0  0  0  0  0  3  0  0  0  0  0  0
  -24.6980  -27.6760   19.5790 C   0  0  0  0  0  3  0  0  0  0  0  0
  -23.4520  -29.8180   20.2350 C   0  0  0  0  0  2  0  0  0  0  0  0
  -24.5560  -31.1010   22.1310 N   0  0  0  0  0  0  0  0  0  0  0  0
  -23.4670  -32.1920   23.7920 O   0  0  0  0  0  0  0  0  0  0  0  0
  -22.6340  -29.5070   22.5890 C   0  0  0  0  0  0  0  0  0  0  0  0
  -21.3090  -29.3210   22.4670 N   0  0  0  0  0  0  0  0  0  0  0  0
  -23.3210  -28.8910   23.4100 O   0  0  0  0  0  0  0  0  0  0  0  0
  -20.8140  -29.8680   21.7750 H   0  0  0  0  0  0  0  0  0  0  0  0
  -17.9450  -28.1050   22.9590 C   0  0  0  0  0  0  0  0  0  0  0  0
  -20.4960  -28.3920   23.2500 C   0  0  0  0  0  3  0  0  0  0  0  0
  -20.6170  -26.9500   22.7050 C   0  0  0  0  0  2  0  0  0  0  0  0
  -19.5290  -26.5960   21.6850 C   0  0  0  0  0  2  0  0  0  0  0  0
  -18.1410  -26.7430   22.3150 C   0  0  0  0  0  2  0  0  0  0  0  0
  -19.0530  -28.8860   23.3840 C   0  0  0  0  0  0  0  0  0  0  0  0
  -18.8200  -30.1610   23.9440 C   0  0  0  0  0  3  0  0  0  0  0  0
  -17.5100  -30.6560   24.0850 C   0  0  0  0  0  3  0  0  0  0  0  0
  -16.4150  -29.8730   23.6790 C   0  0  0  0  0  3  0  0  0  0  0  0
  -16.6340  -28.5990   23.1230 C   0  0  0  0  0  3  0  0  0  0  0  0
  -25.8440  -32.5130   23.8250 C   0  0  0  0  0  3  0  0  0  0  0  0
  -26.3880  -31.7260   25.0810 C   0  0  1  0  0  0  0  0  0  0  0  0
  -25.3190  -31.4910   26.1740 C   0  0  0  0  0  1  0  0  0  0  0  0
  -26.9490  -30.3460   24.6630 C   0  0  0  0  0  1  0  0  0  0  0  0
  -27.5620  -32.5030   25.7230 C   0  0  0  0  0  1  0  0  0  0  0  0
  -25.5600  -33.9120   24.1710 N   0  0  0  0  0  0  0  0  0  0  0  0
  -25.8890  -34.9670   23.4130 C   0  0  0  0  0  0  0  0  0  0  0  0
  -26.5390  -34.8630   22.3690 O   0  0  0  0  0  0  0  0  0  0  0  0
  -24.9840  -34.0680   24.9850 H   0  0  0  0  0  0  0  0  0  0  0  0
  -24.1730  -36.7780   23.1020 C   0  0  0  0  0  1  0  0  0  0  0  0
  -25.4250  -36.3560   23.8870 C   0  0  0  0  0  3  0  0  0  0  0  0
  -27.5830  -37.2130   24.6830 C   0  0  0  0  0  1  0  0  0  0  0  0
  -26.4650  -37.3990   23.7620 N   0  0  0  0  0  0  0  0  0  0  0  0
  -26.0700  -38.3210   23.9260 H   0  0  0  0  0  0  0  0  0  0  0  0
  -29.9000  -19.7090   19.0300 C   0  0  0  0  0  2  0  0  0  0  0  0
  -31.0590  -18.8020   19.4730 C   0  0  0  0  0  2  0  0  0  0  0  0
  -30.6340  -17.3190   19.5170 C   0  0  0  0  0  2  0  0  0  0  0  0
  -31.1210  -16.5290   20.7580 C   0  0  0  0  0  3  0  0  0  0  0  0
  -31.2430  -14.1640   19.9770 C   0  0  0  0  0  0  0  0  0  0  0  0
  -30.7450  -12.0840   18.7570 C   0  0  0  0  0  2  0  0  0  0  0  0
  -29.7670  -12.3930   17.6060 C   0  0  0  0  0  2  0  0  0  0  0  0
  -28.3060  -12.3570   18.0980 C   0  0  0  0  0  2  0  0  0  0  0  0
  -28.0910  -13.1850   19.3940 C   0  0  0  0  0  3  0  0  0  0  0  0
  -29.1640  -12.8350   20.4470 C   0  0  0  0  0  2  0  0  0  0  0  0
  -30.4870  -13.0500   19.8350 N   0  0  0  0  0  0  0  0  0  0  0  0
  -32.3270  -14.3230   19.4070 O   0  0  0  0  0  0  0  0  0  0  0  0
  -30.6620  -15.1480   20.6760 N   0  0  0  0  0  0  0  0  0  0  0  0
  -29.7940  -14.9350   21.1430 H   0  0  0  0  0  0  0  0  0  0  0  0
  -25.7630  -13.9620   20.1790 C   0  0  0  0  0  0  0  0  0  0  0  0
  -24.6650  -13.2690   20.6070 C   0  0  0  0  0  0  0  0  0  0  0  0
  -25.0380  -11.8900   20.5840 C   0  0  0  0  0  0  0  0  0  0  0  0
  -26.7400  -13.0100   19.9250 N   0  0  0  0  0  0  0  0  0  0  0  0
  -26.3080  -11.7600   20.2230 N   0  0  0  0  0  0  0  0  0  0  0  0
  -24.2430  -10.6810   20.8310 C   0  0  0  0  0  0  0  0  0  0  0  0
  -24.6540   -9.7060   21.7660 C   0  0  0  0  0  3  0  0  0  0  0  0
  -23.8670   -8.5560   21.9940 C   0  0  0  0  0  3  0  0  0  0  0  0
  -22.6520   -8.3760   21.2880 C   0  0  0  0  0  0  0  0  0  0  0  0
  -22.2580   -9.3420   20.3440 C   0  0  0  0  0  3  0  0  0  0  0  0
  -23.0460  -10.4820   20.1150 C   0  0  0  0  0  3  0  0  0  0  0  0
  -21.8350   -7.2820   21.4270 O   0  0  0  0  0  0  0  0  0  0  0  0
  -21.7900   -6.5630   22.5950 C   0  0  0  0  0  0  0  0  0  0  0  0
  -21.4750   -7.1690   23.8320 C   0  0  0  0  0  3  0  0  0  0  0  0
  -21.3650   -6.3820   24.9960 C   0  0  0  0  0  3  0  0  0  0  0  0
  -21.5610   -4.9890   24.9240 C   0  0  0  0  0  0  0  0  0  0  0  0
  -21.8760   -4.3830   23.6950 C   0  0  0  0  0  3  0  0  0  0  0  0
  -21.9830   -5.1690   22.5340 C   0  0  0  0  0  0  0  0  0  0  0  0
  -22.2590   -4.5780   21.3470 F   0  0  0  0  0  0  0  0  0  0  0  0
  -21.4530   -4.2320   26.0390 F   0  0  0  0  0  0  0  0  0  0  0  0
  -23.3140  -13.8390   20.9280 C   0  0  0  0  0  0  0  0  0  0  0  0
  -22.5870  -13.2180   21.8500 N   0  0  0  0  0  0  0  0  0  0  0  0
  -22.9170  -14.8760   20.3950 O   0  0  0  0  0  0  0  0  0  0  0  0
  -22.9210  -12.3810   22.3040 H   0  0  0  0  0  0  0  0  0  0  0  0
  -21.6820  -13.5860   22.1060 H   0  0  0  0  0  0  0  0  0  0  0  0
  -26.0120  -15.3140   19.9660 N   0  0  0  0  0  0  0  0  0  0  0  0
  -25.2830  -16.0110   20.0690 H   0  0  0  0  0  0  0  0  0  0  0  0
  -26.8390  -15.6730   19.5080 H   0  0  0  0  0  0  0  0  0  0  0  0
  -30.6500  -17.1240   22.0910 C   0  0  0  0  0  0  0  0  0  0  0  0
  -29.3390  -17.2310   22.2870 N   0  0  0  0  0  0  0  0  0  0  0  0
  -31.4550  -17.4550   22.9580 O   0  0  0  0  0  0  0  0  0  0  0  0
  -28.6830  -16.9890   21.5600 H   0  0  0  0  0  0  0  0  0  0  0  0
  -28.9910  -17.6340   23.1450 H   0  0  0  0  0  0  0  0  0  0  0  0
  1 50  1  0
  2  1  1  0
  2  3  1  0
  4  2  1  0
  5  2  1  0
  5  6  1  0
  6  7  1  0
  8  7  1  0
  8  9  1  0
  9 11  1  0
 10 21  2  0
 11 16  1  0
 12 20  1  0
 12 22  1  0
 13 19  1  0
 13 15  1  0
 14 20  1  0
 15 14  1  0
 16 15  2  0
 17 18  1  0
 17 11  2  0
 18 13  2  0
 19 12  1  0
 20 10  1  0
 22 24  2  0
 23 22  1  0
 25 23  1  0
 26 35  2  0
 26 31  1  0
 27 23  1  0
 27 31  1  0
 28 27  1  0
 29 30  1  0
 29 28  1  0
 30 26  1  0
 31 32  2  0
 32 33  1  0
 34 33  2  0
 35 34  1  0
 36 10  1  0
 36 41  1  0
 36 37  1  0
 37 40  1  1
 37 38  1  0
 39 37  1  0
 41 44  1  0
 42 46  1  0
 42 41  1  0
 43 42  2  0
 46 45  1  0
 48 46  1  0
 48 49  1  0
 48 47  1  0
 50 51  1  0
 51 52  1  0
 53 52  1  0
 53 92  1  0
 54 62  1  0
 55 60  1  0
 56 57  1  0
 56 55  1  0
 58 57  1  0
 58 67  1  0
 58 59  1  0
 60 54  1  0
 60 59  1  0
 61 54  2  0
 62 53  1  0
 62 63  1  0
 64 65  2  0
 65 84  1  0
 66 65  1  0
 66 69  1  0
 67 64  1  0
 67 68  1  0
 68 66  2  0
 69 70  1  0
 70 71  2  0
 72 75  1  0
 72 71  1  0
 73 72  2  0
 74 73  1  0
 74 69  2  0
 75 76  1  0
 76 77  1  0
 77 78  2  0
 79 78  1  0
 79 83  1  0
 80 79  2  0
 81 76  2  0
 81 80  1  0
 82 81  1  0
 84 85  1  0
 85 88  1  0
 85 87  1  0
 86 84  2  0
 89 90  1  0
 89 64  1  0
 91 89  1  0
 92 93  1  0
 92 94  2  0
 93 96  1  0
 95 93  1  0
M  ISO  4   8 101   9 101  54 100  62 100
M  END
>  <TORSDO>  (36) 
F 26

>  <SCORE>  (36) 
-10.505

>  <name>  (36) 
35

>  <ligand_id>  (36) 
35

>  <original_smiles>  (36) 
[H]c1c([H])c([H])c2c(c1[H])C([H])([H])C([H])([H])C([H])([H])C2([H])N([H])C(=O)C1([H])N(C(=O)C([H])(N([H])C(=O)C([H])(N([H])C([H])([H])[H])C([H])([H])[H])C(C([H])([H])[H])(C([H])([H])[H])C([H])([H])[H])C([H])([H])c2c([H])c(OC([H])([H])C([H])([H])C([H])([H])C([H])([H])[N+]([H])([H])C([H])([H])C([H])([H])C([H])([H])C([H])([H])C([H])(C(=O)N([H])[H])N([H])C(=O)N3C([H])([H])C([H])([H])C([H])([H])C([H])(n4nc(-c5c([H])c([H])c(Oc6c([H])c([H])c(F)c([H])c6F)c([H])c5[H])c(C(=O)N([H])[H])c4N([H])[H])C3([H])[H])c([H])c([H])c2C1([H])[H]

>  <smiles>  (36) 
[H]c1c([H])c([H])c2c(c1[H])C([H])([H])C([H])([H])C([H])([H])C2([H])N([H])C(=O)C1([H])N(C(=O)C([H])(N([H])C(=O)C([H])(N([H])C([H])([H])[H])C([H])([H])[H])C(C([H])([H])[H])(C([H])([H])[H])C([H])([H])[H])C([H])([H])c2c([H])c(OC([H])([H])C([H])([H])C([H])([H])C([H])([H])[N+]([H])([H])C([H])([H])C([H])([H])C([H])([H])C([H])([H])C([H])(C(=O)N([H])[H])N([H])C(=O)N3C([H])([H])C([H])([H])C([H])([H])C([H])(n4nc(-c5c([H])c([H])c(Oc6c([H])c([H])c(F)c([H])c6F)c([H])c5[H])c(C(=O)N([H])[H])c4N([H])[H])C3([H])[H])c([H])c([H])c2C1([H])[H]

$$$$
36:0:0
     RDKit          3D

 99107  0  0  1  0  0  0  0  0999 V2000
  -29.1300  -21.6280   20.8750 C   0  0  0  0  0  3  0  0  0  0  0  0
  -30.5410  -19.4280   20.7410 C   0  0  0  0  0  2  0  0  0  0  0  0
  -31.5570  -21.4520   19.9370 C   0  0  0  0  0  2  0  0  0  0  0  0
  -30.1860  -20.7860   20.1030 C   0  0  0  0  0  3  0  0  0  0  0  0
  -31.9840  -19.0870   20.3050 C   0  0  0  0  0  3  0  0  0  0  0  0
  -32.4730  -20.3100   19.4980 C   0  0  0  0  0  3  0  0  0  0  0  0
  -32.1030  -17.8000   19.4670 C   0  0  0  0  0  2  0  0  0  0  0  0
  -32.7290  -15.4720   19.9870 C   0  0  0  0  0  0  0  0  0  0  0  0
  -32.3300  -13.2600   19.0150 C   0  0  0  0  0  2  0  0  0  0  0  0
  -31.3880  -13.4620   17.8080 C   0  0  0  0  0  2  0  0  0  0  0  0
  -29.9120  -13.4360   18.2540 C   0  0  0  0  0  2  0  0  0  0  0  0
  -29.6370  -14.3580   19.4730 C   0  0  0  0  0  3  0  0  0  0  0  0
  -30.6890  -14.1330   20.5850 C   0  0  0  0  0  2  0  0  0  0  0  0
  -32.0250  -14.3130   19.9920 N   0  0  0  0  0  0  0  0  0  0  0  0
  -33.8710  -15.5750   19.5280 O   0  0  0  0  0  0  0  0  0  0  0  0
  -31.9830  -16.5590   20.2360 N   0  0  0  0  0  0  0  0  0  0  0  0
  -31.0800  -16.3760   20.6490 H   0  0  0  0  0  0  0  0  0  0  0  0
  -27.3300  -15.1570   20.2920 C   0  0  0  0  0  0  0  0  0  0  0  0
  -26.2020  -14.4710   20.6530 C   0  0  0  0  0  0  0  0  0  0  0  0
  -26.5240  -13.0850   20.5230 C   0  0  0  0  0  0  0  0  0  0  0  0
  -28.2750  -14.1930   19.9750 N   0  0  0  0  0  0  0  0  0  0  0  0
  -27.7950  -12.9390   20.1700 N   0  0  0  0  0  0  0  0  0  0  0  0
  -25.6830  -11.8900   20.6630 C   0  0  0  0  0  0  0  0  0  0  0  0
  -25.9520  -10.9090   21.6420 C   0  0  0  0  0  3  0  0  0  0  0  0
  -25.1180   -9.7770   21.7680 C   0  0  0  0  0  3  0  0  0  0  0  0
  -24.0030   -9.6190   20.9120 C   0  0  0  0  0  0  0  0  0  0  0  0
  -23.7540  -10.5870   19.9230 C   0  0  0  0  0  3  0  0  0  0  0  0
  -24.5870  -11.7100   19.7960 C   0  0  0  0  0  3  0  0  0  0  0  0
  -23.1540   -8.5390   20.9430 O   0  0  0  0  0  0  0  0  0  0  0  0
  -22.7660   -7.9620   22.1260 C   0  0  0  0  0  0  0  0  0  0  0  0
  -22.0510   -8.6820   23.1070 C   0  0  0  0  0  3  0  0  0  0  0  0
  -21.6120   -8.0330   24.2770 C   0  0  0  0  0  3  0  0  0  0  0  0
  -21.8790   -6.6630   24.4650 C   0  0  0  0  0  0  0  0  0  0  0  0
  -22.5860   -5.9420   23.4860 C   0  0  0  0  0  3  0  0  0  0  0  0
  -23.0250   -6.5910   22.3190 C   0  0  0  0  0  0  0  0  0  0  0  0
  -23.6880   -5.8870   21.3700 F   0  0  0  0  0  0  0  0  0  0  0  0
  -21.4510   -6.0360   25.5860 F   0  0  0  0  0  0  0  0  0  0  0  0
  -24.8660  -15.0640   21.0020 C   0  0  0  0  0  0  0  0  0  0  0  0
  -24.1000  -14.3880   21.8510 N   0  0  0  0  0  0  0  0  0  0  0  0
  -24.5160  -16.1570   20.5600 O   0  0  0  0  0  0  0  0  0  0  0  0
  -24.3950  -13.4990   22.2270 H   0  0  0  0  0  0  0  0  0  0  0  0
  -23.2040  -14.7640   22.1270 H   0  0  0  0  0  0  0  0  0  0  0  0
  -27.6260  -16.5140   20.1910 N   0  0  0  0  0  0  0  0  0  0  0  0
  -26.9290  -17.2310   20.3580 H   0  0  0  0  0  0  0  0  0  0  0  0
  -28.5020  -16.8880   19.8500 H   0  0  0  0  0  0  0  0  0  0  0  0
  -33.9810  -20.6030   19.6650 C   0  0  0  0  0  2  0  0  0  0  0  0
  -34.4500  -21.6560   18.7480 N   0  0  0  0  0  4  0  0  0  0  0  0
  -34.2860  -21.3960   17.7900 H   0  0  0  0  0  0  0  0  0  0  0  0
  -35.4380  -21.7940   18.8660 H   0  0  0  0  0  0  0  0  0  0  0  0
  -33.9910  -22.5300   18.9320 H   0  0  0  0  0  0  0  0  0  0  0  0
  -29.2910  -23.1300   20.5650 C   0  0  0  0  0  0  0  0  0  0  0  0
  -28.8220  -23.6260   19.5360 O   0  0  0  0  0  0  0  0  0  0  0  0
  -30.0760  -23.9670   21.5820 C   0  0  0  0  0  2  0  0  0  0  0  0
  -30.0190  -25.4930   21.3590 C   0  0  0  0  0  2  0  0  0  0  0  0
  -31.2780  -26.2100   21.8880 C   0  0  0  0  0  2  0  0  0  0  0  0
  -31.1820  -27.7400   21.8080 C   0  0  0  0  0  2  0  0  0  0  0  0
  -30.6410  -28.1140   20.5400 O   0  0  0  0  0  0  0  0  0  0  0  0
  -25.2330  -31.3750   23.8420 C   0  0  0  0  0  0  0  0  0  0  0  0
  -29.3240  -28.5110   20.5280 C   0  0  0  0  0  0  0  0  0  0  0  0
  -24.6360  -30.0340   21.8450 C   0  0  0  0  0  3  0  0  0  0  0  0
  -26.6000  -29.2440   20.4220 C   0  0  0  0  0  0  0  0  0  0  0  0
  -26.9460  -31.1060   22.0580 C   0  0  0  0  0  2  0  0  0  0  0  0
  -27.4850  -29.9550   21.2410 C   0  0  0  0  0  0  0  0  0  0  0  0
  -28.8460  -29.5960   21.2960 C   0  0  0  0  0  3  0  0  0  0  0  0
  -28.4270  -27.8100   19.6970 C   0  0  0  0  0  3  0  0  0  0  0  0
  -27.0640  -28.1650   19.6470 C   0  0  0  0  0  3  0  0  0  0  0  0
  -25.1590  -29.7020   20.4210 C   0  0  0  0  0  2  0  0  0  0  0  0
  -25.6120  -30.8450   22.6450 N   0  0  0  0  0  0  0  0  0  0  0  0
  -24.0770  -31.2360   24.2640 O   0  0  0  0  0  0  0  0  0  0  0  0
  -24.2290  -28.7140   22.5370 C   0  0  0  0  0  0  0  0  0  0  0  0
  -23.0540  -28.1830   22.1630 N   0  0  0  0  0  0  0  0  0  0  0  0
  -24.9690  -28.1770   23.3660 O   0  0  0  0  0  0  0  0  0  0  0  0
  -22.5040  -28.6860   21.4810 H   0  0  0  0  0  0  0  0  0  0  0  0
  -20.1790  -26.0120   21.9210 C   0  0  0  0  0  0  0  0  0  0  0  0
  -22.4840  -26.9280   22.6490 C   0  0  0  0  0  3  0  0  0  0  0  0
  -23.0880  -25.7160   21.9030 C   0  0  0  0  0  2  0  0  0  0  0  0
  -22.2650  -25.2860   20.6850 C   0  0  0  0  0  2  0  0  0  0  0  0
  -20.8390  -24.9130   21.1040 C   0  0  0  0  0  2  0  0  0  0  0  0
  -20.9510  -26.9670   22.6330 C   0  0  0  0  0  0  0  0  0  0  0  0
  -20.2900  -27.9860   23.3500 C   0  0  0  0  0  3  0  0  0  0  0  0
  -18.8850  -28.0620   23.3650 C   0  0  0  0  0  3  0  0  0  0  0  0
  -18.1240  -27.1050   22.6720 C   0  0  0  0  0  3  0  0  0  0  0  0
  -18.7700  -26.0810   21.9570 C   0  0  0  0  0  3  0  0  0  0  0  0
  -26.2240  -32.2000   24.7240 C   0  0  0  0  0  3  0  0  0  0  0  0
  -26.4620  -31.5680   26.1500 C   0  0  1  0  0  0  0  0  0  0  0  0
  -25.1570  -31.2320   26.9060 C   0  0  0  0  0  1  0  0  0  0  0  0
  -27.2930  -30.2690   26.0360 C   0  0  0  0  0  1  0  0  0  0  0  0
  -27.2810  -32.5440   27.0280 C   0  0  0  0  0  1  0  0  0  0  0  0
  -25.6830  -33.5610   24.8410 N   0  0  0  0  0  0  0  0  0  0  0  0
  -26.0630  -34.5960   24.0790 C   0  0  0  0  0  0  0  0  0  0  0  0
  -26.9700  -34.5180   23.2450 O   0  0  0  0  0  0  0  0  0  0  0  0
  -24.9010  -33.6850   25.4660 H   0  0  0  0  0  0  0  0  0  0  0  0
  -24.2460  -36.0860   23.1830 C   0  0  0  0  0  1  0  0  0  0  0  0
  -25.3180  -35.9300   24.2750 C   0  0  0  0  0  3  0  0  0  0  0  0
  -27.0840  -37.1780   25.4360 C   0  0  0  0  0  1  0  0  0  0  0  0
  -26.2110  -37.1100   24.2680 N   0  0  0  0  0  0  0  0  0  0  0  0
  -25.6690  -37.9680   24.2280 H   0  0  0  0  0  0  0  0  0  0  0  0
  -26.5690  -22.0360   21.1350 C   0  0  0  0  0  1  0  0  0  0  0  0
  -27.6880  -21.1310   20.5920 C   0  0  0  0  0  2  0  0  0  0  0  0
  1 99  1  0
  3  4  1  0
  4  2  1  0
  4  1  1  0
  5  7  1  0
  5  2  1  0
  6 46  1  0
  6  3  1  0
  6  5  1  0
  7 16  1  0
  8 14  1  0
  8 16  1  0
  9 14  1  0
 10 11  1  0
 10  9  1  0
 12 11  1  0
 12 21  1  0
 12 13  1  0
 14 13  1  0
 15  8  2  0
 16 17  1  0
 18 19  2  0
 19 38  1  0
 20 19  1  0
 20 23  1  0
 21 22  1  0
 21 18  1  0
 22 20  2  0
 23 24  1  0
 24 25  2  0
 26 29  1  0
 26 25  1  0
 27 26  2  0
 28 27  1  0
 28 23  2  0
 29 30  1  0
 30 35  2  0
 30 31  1  0
 31 32  2  0
 32 33  1  0
 33 37  1  0
 34 33  2  0
 35 34  1  0
 36 35  1  0
 38 39  1  0
 39 42  1  0
 39 41  1  0
 40 38  2  0
 43 18  1  0
 43 44  1  0
 45 43  1  0
 47 49  1  0
 47 50  1  0
 47 46  1  0
 48 47  1  0
 51  1  1  0
 51 53  1  0
 52 51  2  0
 54 53  1  0
 54 55  1  0
 56 55  1  0
 57 56  1  0
 58 69  2  0
 59 57  1  0
 59 64  1  0
 60 70  1  0
 60 68  1  0
 61 63  1  0
 62 68  1  0
 63 64  2  0
 63 62  1  0
 65 59  2  0
 66 65  1  0
 66 61  2  0
 67 61  1  0
 67 60  1  0
 68 58  1  0
 70 72  2  0
 71 70  1  0
 73 71  1  0
 74 83  2  0
 74 79  1  0
 75 71  1  0
 76 75  1  0
 77 78  1  0
 77 76  1  0
 78 74  1  0
 79 75  1  0
 79 80  2  0
 80 81  1  0
 82 81  2  0
 83 82  1  0
 84 58  1  0
 84 89  1  0
 84 85  1  0
 85 86  1  1
 85 88  1  0
 87 85  1  0
 89 92  1  0
 90 94  1  0
 90 89  1  0
 91 90  2  0
 94 93  1  0
 96 94  1  0
 96 95  1  0
 97 96  1  0
 99 98  1  0
M  ISO  4   8 100  16 100  56 101  57 101
M  END
>  <TORSDO>  (37) 
F 26

>  <SCORE>  (37) 
-4.471

>  <name>  (37) 
36

>  <ligand_id>  (37) 
36

>  <original_smiles>  (37) 
[H]c1c([H])c([H])c2c(c1[H])C([H])([H])C([H])([H])C([H])([H])C2([H])N([H])C(=O)C1([H])N(C(=O)C([H])(N([H])C(=O)C([H])(N([H])C([H])([H])[H])C([H])([H])[H])C(C([H])([H])[H])(C([H])([H])[H])C([H])([H])[H])C([H])([H])c2c([H])c(OC([H])([H])C([H])([H])C([H])([H])C([H])([H])C(=O)C([H])(C([H])([H])C([H])([H])[H])C3([H])C([H])([H])C([H])(C([H])([H])N([H])C(=O)N4C([H])([H])C([H])([H])C([H])([H])C([H])(n5nc(-c6c([H])c([H])c(Oc7c([H])c([H])c(F)c([H])c7F)c([H])c6[H])c(C(=O)N([H])[H])c5N([H])[H])C4([H])[H])C([H])(C([H])([H])[N+]([H])([H])[H])C3([H])[H])c([H])c([H])c2C1([H])[H]

>  <smiles>  (37) 
[H]c1c([H])c([H])c2c(c1[H])C([H])([H])C([H])([H])C([H])([H])C2([H])N([H])C(=O)C1([H])N(C(=O)C([H])(N([H])C(=O)C([H])(N([H])C([H])([H])[H])C([H])([H])[H])C(C([H])([H])[H])(C([H])([H])[H])C([H])([H])[H])C([H])([H])c2c([H])c(OC([H])([H])C([H])([H])C([H])([H])C([H])([H])C(=O)C([H])(C([H])([H])C([H])([H])[H])C3([H])C([H])([H])C([H])(C([H])([H])N([H])C(=O)N4C([H])([H])C([H])([H])C([H])([H])C([H])(n5nc(-c6c([H])c([H])c(Oc7c([H])c([H])c(F)c([H])c7F)c([H])c6[H])c(C(=O)N([H])[H])c5N([H])[H])C4([H])[H])C([H])(C([H])([H])[N+]([H])([H])[H])C3([H])[H])c([H])c([H])c2C1([H])[H]

$$$$
37:0:0
     RDKit          3D

 94102  0  0  1  0  0  0  0  0999 V2000
  -30.2900  -19.4460   20.5820 N   0  0  0  0  0  4  0  0  0  0  0  0
  -30.3820  -19.6470   19.5990 H   0  0  0  0  0  0  0  0  0  0  0  0
  -31.2120  -19.4920   20.9860 H   0  0  0  0  0  0  0  0  0  0  0  0
  -30.8230  -14.5740   20.1090 C   0  0  0  0  0  0  0  0  0  0  0  0
  -30.4030  -12.5020   18.8430 C   0  0  0  0  0  2  0  0  0  0  0  0
  -29.3940  -12.7960   17.7140 C   0  0  0  0  0  2  0  0  0  0  0  0
  -27.9450  -12.6510   18.2230 C   0  0  0  0  0  2  0  0  0  0  0  0
  -27.7010  -13.3940   19.5650 C   0  0  0  0  0  3  0  0  0  0  0  0
  -28.8210  -13.0750   20.5780 C   0  0  0  0  0  2  0  0  0  0  0  0
  -30.1030  -13.4270   19.9490 N   0  0  0  0  0  0  0  0  0  0  0  0
  -31.9440  -14.7050   19.6070 O   0  0  0  0  0  0  0  0  0  0  0  0
  -29.8130  -17.4450   22.1030 C   0  0  0  0  0  2  0  0  0  0  0  0
  -29.6080  -15.9480   21.8160 C   0  0  0  0  0  2  0  0  0  0  0  0
  -30.4730  -17.0040   19.8630 C   0  0  0  0  0  3  0  0  0  0  0  0
  -29.7430  -18.0650   20.7130 C   0  0  0  0  0  3  0  0  0  0  0  0
  -30.1300  -15.6930   20.4620 N   0  0  0  0  0  0  0  0  0  0  0  0
  -25.3380  -13.9650   20.4060 C   0  0  0  0  0  0  0  0  0  0  0  0
  -24.2940  -13.1760   20.8120 C   0  0  0  0  0  0  0  0  0  0  0  0
  -24.7630  -11.8290   20.7280 C   0  0  0  0  0  0  0  0  0  0  0  0
  -26.3760  -13.0970   20.1050 N   0  0  0  0  0  0  0  0  0  0  0  0
  -26.0360  -11.8070   20.3540 N   0  0  0  0  0  0  0  0  0  0  0  0
  -24.0570  -10.5580   20.9280 C   0  0  0  0  0  0  0  0  0  0  0  0
  -24.5040   -9.6040   21.8680 C   0  0  0  0  0  3  0  0  0  0  0  0
  -23.7970   -8.3970   22.0550 C   0  0  0  0  0  3  0  0  0  0  0  0
  -22.6280   -8.1350   21.3020 C   0  0  0  0  0  0  0  0  0  0  0  0
  -22.1990   -9.0790   20.3510 C   0  0  0  0  0  3  0  0  0  0  0  0
  -22.9070  -10.2760   20.1620 C   0  0  0  0  0  3  0  0  0  0  0  0
  -21.8910   -6.9800   21.3980 O   0  0  0  0  0  0  0  0  0  0  0  0
  -21.7960   -6.2830   22.5750 C   0  0  0  0  0  0  0  0  0  0  0  0
  -21.2970   -6.8780   23.7550 C   0  0  0  0  0  3  0  0  0  0  0  0
  -21.1500   -6.1060   24.9250 C   0  0  0  0  0  3  0  0  0  0  0  0
  -21.4930   -4.7400   24.9170 C   0  0  0  0  0  0  0  0  0  0  0  0
  -21.9860   -4.1460   23.7410 C   0  0  0  0  0  3  0  0  0  0  0  0
  -22.1350   -4.9150   22.5750 C   0  0  0  0  0  0  0  0  0  0  0  0
  -22.5890   -4.3310   21.4390 F   0  0  0  0  0  0  0  0  0  0  0  0
  -21.3450   -3.9970   26.0380 F   0  0  0  0  0  0  0  0  0  0  0  0
  -22.9110  -13.6380   21.1670 C   0  0  0  0  0  0  0  0  0  0  0  0
  -22.2350  -12.9200   22.0570 N   0  0  0  0  0  0  0  0  0  0  0  0
  -22.4390  -14.6700   20.6900 O   0  0  0  0  0  0  0  0  0  0  0  0
  -22.6290  -12.0840   22.4620 H   0  0  0  0  0  0  0  0  0  0  0  0
  -21.3100  -13.2120   22.3390 H   0  0  0  0  0  0  0  0  0  0  0  0
  -25.4830  -15.3410   20.2510 N   0  0  0  0  0  0  0  0  0  0  0  0
  -24.7150  -15.9830   20.4080 H   0  0  0  0  0  0  0  0  0  0  0  0
  -26.3120  -15.7930   19.8920 H   0  0  0  0  0  0  0  0  0  0  0  0
  -30.1570  -17.0730   18.3630 C   0  0  0  0  0  0  0  0  0  0  0  0
  -31.3170  -17.3890   17.4400 C   0  0  0  0  0  1  0  0  0  0  0  0
  -28.9980  -16.8700   17.9000 N   0  0  0  0  0  0  0  0  0  0  0  0
  -28.3090  -16.6650   18.6130 H   0  0  0  0  0  0  0  0  0  0  0  0
  -29.4580  -20.5280   21.1590 C   0  0  0  0  0  2  0  0  0  0  0  0
  -29.9110  -21.9300   20.6810 C   0  0  0  0  0  2  0  0  0  0  0  0
  -29.0340  -23.0840   21.2150 C   0  0  0  0  0  2  0  0  0  0  0  0
  -29.3300  -24.4510   20.5540 C   0  0  0  0  0  2  0  0  0  0  0  0
  -28.3950  -25.5680   21.0590 C   0  0  0  0  0  2  0  0  0  0  0  0
  -28.5380  -26.7830   20.3080 O   0  0  0  0  0  0  0  0  0  0  0  0
  -24.6350  -31.9370   23.2660 C   0  0  0  0  0  0  0  0  0  0  0  0
  -27.3810  -27.5250   20.2590 C   0  0  0  0  0  0  0  0  0  0  0  0
  -23.4700  -30.5110   21.6140 C   0  0  0  0  0  3  0  0  0  0  0  0
  -24.9670  -28.9890   20.2160 C   0  0  0  0  0  0  0  0  0  0  0  0
  -25.9930  -30.9070   21.4490 C   0  0  0  0  0  2  0  0  0  0  0  0
  -26.1080  -29.5360   20.8180 C   0  0  0  0  0  0  0  0  0  0  0  0
  -27.3220  -28.8120   20.8340 C   0  0  0  0  0  3  0  0  0  0  0  0
  -26.2300  -26.9930   19.6390 C   0  0  0  0  0  3  0  0  0  0  0  0
  -25.0220  -27.7160   19.6220 C   0  0  0  0  0  3  0  0  0  0  0  0
  -23.7100  -29.8280   20.2410 C   0  0  0  0  0  2  0  0  0  0  0  0
  -24.7170  -31.1330   22.1690 N   0  0  0  0  0  0  0  0  0  0  0  0
  -23.5430  -32.1980   23.7890 O   0  0  0  0  0  0  0  0  0  0  0  0
  -22.8200  -29.4850   22.5700 C   0  0  0  0  0  0  0  0  0  0  0  0
  -21.5000  -29.2870   22.4260 N   0  0  0  0  0  0  0  0  0  0  0  0
  -23.5010  -28.8690   23.3950 O   0  0  0  0  0  0  0  0  0  0  0  0
  -21.0130  -29.8370   21.7310 H   0  0  0  0  0  0  0  0  0  0  0  0
  -18.1310  -28.0640   22.8840 C   0  0  0  0  0  0  0  0  0  0  0  0
  -20.6830  -28.3440   23.1890 C   0  0  0  0  0  3  0  0  0  0  0  0
  -20.8050  -26.9120   22.6170 C   0  0  0  0  0  2  0  0  0  0  0  0
  -19.7190  -26.5780   21.5900 C   0  0  0  0  0  2  0  0  0  0  0  0
  -18.3270  -26.7130   22.2160 C   0  0  0  0  0  2  0  0  0  0  0  0
  -19.2380  -28.8360   23.3260 C   0  0  0  0  0  0  0  0  0  0  0  0
  -19.0020  -30.1000   23.9080 C   0  0  0  0  0  3  0  0  0  0  0  0
  -17.6910  -30.5930   24.0530 C   0  0  0  0  0  3  0  0  0  0  0  0
  -16.5980  -29.8170   23.6290 C   0  0  0  0  0  3  0  0  0  0  0  0
  -16.8190  -28.5540   23.0500 C   0  0  0  0  0  3  0  0  0  0  0  0
  -25.9050  -32.5860   23.9010 C   0  0  0  0  0  3  0  0  0  0  0  0
  -25.5770  -33.9830   24.2140 N   0  0  0  0  0  0  0  0  0  0  0  0
  -25.9130  -35.0320   23.4520 C   0  0  0  0  0  0  0  0  0  0  0  0
  -26.6040  -34.9270   22.4350 O   0  0  0  0  0  0  0  0  0  0  0  0
  -24.9640  -34.1370   25.0010 H   0  0  0  0  0  0  0  0  0  0  0  0
  -24.1750  -36.8020   23.0430 C   0  0  0  0  0  1  0  0  0  0  0  0
  -25.4010  -36.4180   23.8870 C   0  0  0  0  0  3  0  0  0  0  0  0
  -27.5070  -37.3290   24.7600 C   0  0  0  0  0  1  0  0  0  0  0  0
  -26.4250  -37.4810   23.7900 N   0  0  0  0  0  0  0  0  0  0  0  0
  -26.0070  -38.3980   23.9200 H   0  0  0  0  0  0  0  0  0  0  0  0
  -26.4130  -31.8280   25.1890 C   0  0  1  0  0  0  0  0  0  0  0  0
  -25.3080  -31.5830   26.2410 C   0  0  0  0  0  1  0  0  0  0  0  0
  -27.0210  -30.4580   24.8100 C   0  0  0  0  0  1  0  0  0  0  0  0
  -27.5430  -32.6420   25.8630 C   0  0  0  0  0  1  0  0  0  0  0  0
  1  3  1  0
  1 49  1  0
  2  1  1  0
  4 16  1  0
  5 10  1  0
  6  7  1  0
  6  5  1  0
  8  7  1  0
  8 20  1  0
  8  9  1  0
 10  4  1  0
 10  9  1  0
 11  4  2  0
 13 12  1  0
 14 45  1  0
 14 16  1  0
 14 15  1  0
 15  1  1  0
 15 12  1  0
 16 13  1  0
 17 18  2  0
 18 37  1  0
 19 18  1  0
 19 22  1  0
 20 21  1  0
 20 17  1  0
 21 19  2  0
 22 23  1  0
 23 24  2  0
 25 28  1  0
 25 24  1  0
 26 25  2  0
 27 26  1  0
 27 22  2  0
 28 29  1  0
 29 34  2  0
 29 30  1  0
 30 31  2  0
 32 31  1  0
 32 36  1  0
 33 32  2  0
 34 33  1  0
 35 34  1  0
 37 38  1  0
 38 41  1  0
 38 40  1  0
 39 37  2  0
 42 17  1  0
 42 43  1  0
 44 42  1  0
 46 45  1  0
 47 45  2  0
 47 48  1  0
 50 49  1  0
 50 51  1  0
 52 53  1  0
 52 51  1  0
 54 53  1  0
 55 66  2  0
 56 54  1  0
 56 61  1  0
 57 65  1  0
 57 67  1  0
 58 64  1  0
 58 60  1  0
 59 65  1  0
 60 61  2  0
 60 59  1  0
 62 56  2  0
 63 62  1  0
 63 58  2  0
 64 57  1  0
 65 55  1  0
 67 69  2  0
 68 67  1  0
 70 68  1  0
 71 80  2  0
 71 76  1  0
 72 68  1  0
 72 76  1  0
 73 72  1  0
 74 75  1  0
 74 73  1  0
 75 71  1  0
 76 77  2  0
 77 78  1  0
 79 78  2  0
 80 79  1  0
 81 55  1  0
 81 82  1  0
 81 91  1  0
 82 85  1  0
 83 87  1  0
 83 82  1  0
 84 83  2  0
 87 86  1  0
 89 87  1  0
 89 90  1  0
 89 88  1  0
 91 94  1  1
 91 92  1  0
 93 91  1  0
M  ISO  4   4 100  16 100  53 101  54 101
M  END
>  <TORSDO>  (38) 
F 22

>  <SCORE>  (38) 
-11.867

>  <name>  (38) 
37

>  <ligand_id>  (38) 
37

>  <original_smiles>  (38) 
[H]N=C(C([H])([H])[H])C1([H])N(C(=O)N2C([H])([H])C([H])([H])C([H])([H])C([H])(n3nc(-c4c([H])c([H])c(Oc5c([H])c([H])c(F)c([H])c5F)c([H])c4[H])c(C(=O)N([H])[H])c3N([H])[H])C2([H])[H])C([H])([H])C([H])([H])C1([H])[N+]([H])([H])C([H])([H])C([H])([H])C([H])([H])C([H])([H])C([H])([H])Oc1c([H])c([H])c2c(c1[H])C([H])([H])N(C(=O)C([H])(N([H])C(=O)C([H])(N([H])C([H])([H])[H])C([H])([H])[H])C(C([H])([H])[H])(C([H])([H])[H])C([H])([H])[H])C([H])(C(=O)N([H])C1([H])c3c([H])c([H])c([H])c([H])c3C([H])([H])C([H])([H])C1([H])[H])C2([H])[H]

>  <smiles>  (38) 
[H]N=C(C([H])([H])[H])C1([H])N(C(=O)N2C([H])([H])C([H])([H])C([H])([H])C([H])(n3nc(-c4c([H])c([H])c(Oc5c([H])c([H])c(F)c([H])c5F)c([H])c4[H])c(C(=O)N([H])[H])c3N([H])[H])C2([H])[H])C([H])([H])C([H])([H])C1([H])[N+]([H])([H])C([H])([H])C([H])([H])C([H])([H])C([H])([H])C([H])([H])Oc1c([H])c([H])c2c(c1[H])C([H])([H])N(C(=O)C([H])(N([H])C(=O)C([H])(N([H])C([H])([H])[H])C([H])([H])[H])C(C([H])([H])[H])(C([H])([H])[H])C([H])([H])[H])C([H])(C(=O)N([H])C1([H])c3c([H])c([H])c([H])c([H])c3C([H])([H])C([H])([H])C1([H])[H])C2([H])[H]

$$$$
38:0:0
     RDKit          3D

 97105  0  0  1  0  0  0  0  0999 V2000
  -31.0020  -14.3260   19.9970 C   0  0  0  0  0  0  0  0  0  0  0  0
  -30.9060  -11.9100   19.4200 C   0  0  0  0  0  2  0  0  0  0  0  0
  -30.1200  -11.6930   18.1090 C   0  0  0  0  0  2  0  0  0  0  0  0
  -28.6080  -11.5600   18.3830 C   0  0  0  0  0  2  0  0  0  0  0  0
  -28.0850  -12.6670   19.3300 C   0  0  0  0  0  3  0  0  0  0  0  0
  -29.0090  -12.7720   20.5780 C   0  0  0  0  0  2  0  0  0  0  0  0
  -30.3520  -13.1120   20.0860 N   0  0  0  0  0  0  0  0  0  0  0  0
  -32.1980  -14.3250   19.6810 O   0  0  0  0  0  0  0  0  0  0  0  0
  -29.1910  -18.2070   20.9980 C   0  0  0  0  0  2  0  0  0  0  0  0
  -31.2380  -16.7930   20.0630 C   0  0  0  0  0  2  0  0  0  0  0  0
  -28.9430  -15.8540   20.1010 C   0  0  0  0  0  3  0  0  0  0  0  0
  -30.6160  -18.2160   20.4010 C   0  0  0  0  0  3  0  0  0  0  0  0
  -28.6410  -16.8150   21.2850 C   0  0  0  0  0  3  0  0  0  0  0  0
  -30.3850  -15.5520   20.1810 N   0  0  0  0  0  0  0  0  0  0  0  0
  -25.6130  -13.3540   19.6020 C   0  0  0  0  0  0  0  0  0  0  0  0
  -24.5120  -12.6500   19.9950 C   0  0  0  0  0  0  0  0  0  0  0  0
  -24.9740  -11.3310   20.2840 C   0  0  0  0  0  0  0  0  0  0  0  0
  -26.6840  -12.4720   19.6860 N   0  0  0  0  0  0  0  0  0  0  0  0
  -26.2910  -11.2600   20.1490 N   0  0  0  0  0  0  0  0  0  0  0  0
  -24.2300  -10.1140   20.6210 C   0  0  0  0  0  0  0  0  0  0  0  0
  -24.6020   -9.3100   21.7190 C   0  0  0  0  0  3  0  0  0  0  0  0
  -23.8610   -8.1530   22.0380 C   0  0  0  0  0  3  0  0  0  0  0  0
  -22.7380   -7.7910   21.2550 C   0  0  0  0  0  0  0  0  0  0  0  0
  -22.3890   -8.5830   20.1480 C   0  0  0  0  0  3  0  0  0  0  0  0
  -23.1300   -9.7330   19.8280 C   0  0  0  0  0  3  0  0  0  0  0  0
  -21.9740   -6.6710   21.4760 O   0  0  0  0  0  0  0  0  0  0  0  0
  -21.8790   -6.0990   22.7190 C   0  0  0  0  0  0  0  0  0  0  0  0
  -21.4440   -6.8320   23.8460 C   0  0  0  0  0  3  0  0  0  0  0  0
  -21.2930   -6.1860   25.0890 C   0  0  0  0  0  3  0  0  0  0  0  0
  -21.5660   -4.8100   25.2080 C   0  0  0  0  0  0  0  0  0  0  0  0
  -21.9930   -4.0790   24.0860 C   0  0  0  0  0  3  0  0  0  0  0  0
  -22.1460   -4.7210   22.8450 C   0  0  0  0  0  0  0  0  0  0  0  0
  -22.5370   -4.0070   21.7620 F   0  0  0  0  0  0  0  0  0  0  0  0
  -21.4140   -4.1870   26.4000 F   0  0  0  0  0  0  0  0  0  0  0  0
  -23.0930  -13.1380   19.9970 C   0  0  0  0  0  0  0  0  0  0  0  0
  -22.2740  -12.6370   20.9140 N   0  0  0  0  0  0  0  0  0  0  0  0
  -22.7110  -14.0070   19.2130 O   0  0  0  0  0  0  0  0  0  0  0  0
  -22.5890  -11.9400   21.5730 H   0  0  0  0  0  0  0  0  0  0  0  0
  -21.3170  -12.9550   20.9550 H   0  0  0  0  0  0  0  0  0  0  0  0
  -25.7720  -14.6580   19.1550 N   0  0  0  0  0  0  0  0  0  0  0  0
  -24.9570  -15.2370   18.9920 H   0  0  0  0  0  0  0  0  0  0  0  0
  -26.6060  -15.0380   18.7290 H   0  0  0  0  0  0  0  0  0  0  0  0
  -28.5950  -16.3410   18.6660 C   0  0  0  0  0  0  0  0  0  0  0  0
  -27.5140  -17.0850   18.4760 N   0  0  0  0  0  0  0  0  0  0  0  0
  -29.2690  -15.9870   17.6980 O   0  0  0  0  0  0  0  0  0  0  0  0
  -26.9450  -17.3630   19.2630 H   0  0  0  0  0  0  0  0  0  0  0  0
  -27.2690  -17.4020   17.5510 H   0  0  0  0  0  0  0  0  0  0  0  0
  -26.5390  -15.4920   22.0040 C   0  0  0  0  0  1  0  0  0  0  0  0
  -27.1650  -16.8720   21.7520 C   0  0  0  0  0  2  0  0  0  0  0  0
  -30.7230  -19.2640   19.2370 C   0  0  0  0  0  3  0  0  0  0  0  0
  -30.3450  -20.7330   19.6170 C   0  0  0  0  0  3  0  0  0  0  0  0
  -30.1880  -21.7550   18.4550 C   0  0  0  0  0  2  0  0  0  0  0  0
  -29.6550  -23.1280   18.9640 C   0  0  0  0  0  2  0  0  0  0  0  0
  -30.4750  -25.5110   18.7100 C   0  0  0  0  0  1  0  0  0  0  0  0
  -29.7300  -24.3610   18.0010 C   0  0  0  0  0  3  0  0  0  0  0  0
  -28.3450  -24.8740   17.5050 C   0  0  0  0  0  2  0  0  0  0  0  0
  -28.3480  -26.3040   17.3080 O   0  0  0  0  0  0  0  0  0  0  0  0
  -25.0800  -30.0670   22.3860 C   0  0  0  0  0  0  0  0  0  0  0  0
  -27.2060  -26.9870   17.6760 C   0  0  0  0  0  0  0  0  0  0  0  0
  -23.6480  -29.3270   20.5110 C   0  0  0  0  0  3  0  0  0  0  0  0
  -24.8780  -28.3870   18.4820 C   0  0  0  0  0  0  0  0  0  0  0  0
  -26.1460  -29.7430   20.1550 C   0  0  0  0  0  2  0  0  0  0  0  0
  -26.1120  -28.6830   19.0730 C   0  0  0  0  0  0  0  0  0  0  0  0
  -27.2780  -27.9980   18.6630 C   0  0  0  0  0  3  0  0  0  0  0  0
  -25.9530  -26.7030   17.0860 C   0  0  0  0  0  3  0  0  0  0  0  0
  -24.7930  -27.3980   17.4850 C   0  0  0  0  0  3  0  0  0  0  0  0
  -23.6780  -29.1700   18.9660 C   0  0  0  0  0  2  0  0  0  0  0  0
  -24.9830  -29.7060   21.0750 N   0  0  0  0  0  0  0  0  0  0  0  0
  -24.0780  -30.1270   23.1120 O   0  0  0  0  0  0  0  0  0  0  0  0
  -23.0670  -28.0330   21.1260 C   0  0  0  0  0  0  0  0  0  0  0  0
  -21.7300  -27.9040   21.0980 N   0  0  0  0  0  0  0  0  0  0  0  0
  -23.8120  -27.1640   21.5880 O   0  0  0  0  0  0  0  0  0  0  0  0
  -21.1890  -28.6620   20.7070 H   0  0  0  0  0  0  0  0  0  0  0  0
  -18.3900  -26.5900   21.5060 C   0  0  0  0  0  0  0  0  0  0  0  0
  -20.9680  -26.7530   21.5830 C   0  0  0  0  0  3  0  0  0  0  0  0
  -20.9700  -25.6070   20.5440 C   0  0  0  0  0  2  0  0  0  0  0  0
  -19.7630  -25.6460   19.6020 C   0  0  0  0  0  2  0  0  0  0  0  0
  -18.4570  -25.5540   20.3970 C   0  0  0  0  0  2  0  0  0  0  0  0
  -19.5680  -27.1650   22.0520 C   0  0  0  0  0  0  0  0  0  0  0  0
  -19.4490  -28.1490   23.0580 C   0  0  0  0  0  3  0  0  0  0  0  0
  -18.1840  -28.5560   23.5210 C   0  0  0  0  0  3  0  0  0  0  0  0
  -17.0210  -27.9710   22.9880 C   0  0  0  0  0  3  0  0  0  0  0  0
  -17.1250  -26.9900   21.9880 C   0  0  0  0  0  3  0  0  0  0  0  0
  -26.4500  -30.4440   23.0330 C   0  0  0  0  0  3  0  0  0  0  0  0
  -26.2160  -31.5760   23.9400 N   0  0  0  0  0  0  0  0  0  0  0  0
  -26.5200  -32.8500   23.6610 C   0  0  0  0  0  0  0  0  0  0  0  0
  -27.0990  -33.1890   22.6250 O   0  0  0  0  0  0  0  0  0  0  0  0
  -25.6910  -31.3810   24.7800 H   0  0  0  0  0  0  0  0  0  0  0  0
  -24.8400  -34.6370   24.2230 C   0  0  0  0  0  1  0  0  0  0  0  0
  -26.1160  -33.9190   24.6940 C   0  0  0  0  0  3  0  0  0  0  0  0
  -28.3320  -34.3590   25.6570 C   0  0  0  0  0  1  0  0  0  0  0  0
  -27.1780  -34.9150   24.9550 N   0  0  0  0  0  0  0  0  0  0  0  0
  -26.8160  -35.6910   25.5050 H   0  0  0  0  0  0  0  0  0  0  0  0
  -27.1270  -29.2440   23.8020 C   0  0  1  0  0  0  0  0  0  0  0  0
  -26.1940  -28.5550   24.8230 C   0  0  0  0  0  1  0  0  0  0  0  0
  -27.6170  -28.1660   22.8070 C   0  0  0  0  0  1  0  0  0  0  0  0
  -28.3770  -29.7460   24.5630 C   0  0  0  0  0  1  0  0  0  0  0  0
  1  7  1  0
  1 14  1  0
  2  7  1  0
  3  4  1  0
  3  2  1  0
  5  4  1  0
  5 18  1  0
  5  6  1  0
  7  6  1  0
  8  1  2  0
  9 13  1  0
 10 14  1  0
 10 12  1  0
 11 43  1  0
 11 14  1  0
 11 13  1  0
 12 50  1  0
 12  9  1  0
 13 49  1  0
 15 18  1  0
 15 16  2  0
 16 35  1  0
 16 17  1  0
 17 20  1  0
 18 19  1  0
 19 17  2  0
 20 21  1  0
 21 22  2  0
 23 26  1  0
 23 22  1  0
 24 23  2  0
 25 24  1  0
 25 20  2  0
 26 27  1  0
 27 32  2  0
 27 28  1  0
 28 29  2  0
 29 30  1  0
 30 34  1  0
 31 30  2  0
 32 31  1  0
 33 32  1  0
 35 36  1  0
 36 39  1  0
 36 38  1  0
 37 35  2  0
 40 15  1  0
 41 40  1  0
 42 40  1  0
 44 43  1  0
 44 46  1  0
 45 43  2  0
 47 44  1  0
 49 48  1  0
 50 51  2  0
 52 53  1  0
 52 51  1  0
 55 54  1  0
 55 53  1  0
 56 55  1  0
 57 56  1  0
 57 59  1  0
 58 69  2  0
 59 64  1  0
 60 68  1  0
 60 70  1  0
 61 67  1  0
 61 63  1  0
 62 68  1  0
 63 62  1  0
 64 63  2  0
 65 66  1  0
 65 59  2  0
 66 61  2  0
 67 60  1  0
 68 58  1  0
 70 72  2  0
 71 70  1  0
 73 71  1  0
 74 83  2  0
 74 79  1  0
 75 71  1  0
 75 79  1  0
 76 75  1  0
 77 78  1  0
 77 76  1  0
 78 74  1  0
 79 80  2  0
 80 81  1  0
 82 81  2  0
 83 82  1  0
 84 58  1  0
 84 94  1  0
 84 85  1  0
 85 88  1  0
 86 85  1  0
 86 90  1  0
 87 86  2  0
 90 89  1  0
 90 92  1  0
 92 93  1  0
 92 91  1  0
 94 97  1  1
 94 95  1  0
 96 94  1  0
M  ISO  4   1 100  14 100  56 101  57 101
M  END
>  <TORSDO>  (39) 
F 23

>  <SCORE>  (39) 
0.694

>  <name>  (39) 
38

>  <ligand_id>  (39) 
38

>  <original_smiles>  (39) 
[H]c1c([H])c([H])c2c(c1[H])C([H])([H])C([H])([H])C([H])([H])C2([H])N([H])C(=O)C1([H])N(C(=O)C([H])(N([H])C(=O)C([H])(N([H])C([H])([H])[H])C([H])([H])[H])C(C([H])([H])[H])(C([H])([H])[H])C([H])([H])[H])C([H])([H])c2c([H])c(OC([H])([H])C([H])(C([H])([H])[H])C([H])([H])C([H])([H])C([H])([H])C([H])([H])C3([H])C([H])([H])N(C(=O)N4C([H])([H])C([H])([H])C([H])([H])C([H])(n5nc(-c6c([H])c([H])c(Oc7c([H])c([H])c(F)c([H])c7F)c([H])c6[H])c(C(=O)N([H])[H])c5N([H])[H])C4([H])[H])C([H])(C(=O)N([H])[H])C([H])(C([H])([H])C([H])([H])[H])C3([H])[H])c([H])c([H])c2C1([H])[H]

>  <smiles>  (39) 
[H]c1c([H])c([H])c2c(c1[H])C([H])([H])C([H])([H])C([H])([H])C2([H])N([H])C(=O)C1([H])N(C(=O)C([H])(N([H])C(=O)C([H])(N([H])C([H])([H])[H])C([H])([H])[H])C(C([H])([H])[H])(C([H])([H])[H])C([H])([H])[H])C([H])([H])c2c([H])c(OC([H])([H])C([H])(C([H])([H])[H])C([H])([H])C([H])([H])C([H])([H])C([H])([H])C3([H])C([H])([H])N(C(=O)N4C([H])([H])C([H])([H])C([H])([H])C([H])(n5nc(-c6c([H])c([H])c(Oc7c([H])c([H])c(F)c([H])c7F)c([H])c6[H])c(C(=O)N([H])[H])c5N([H])[H])C4([H])[H])C([H])(C(=O)N([H])[H])C([H])(C([H])([H])C([H])([H])[H])C3([H])[H])c([H])c([H])c2C1([H])[H]

$$$$
39:0:0
     RDKit          3D

 97105  0  0  1  0  0  0  0  0999 V2000
  -28.6780  -17.6550    7.4170 C   0  0  0  0  0  2  0  0  0  0  0  0
  -30.6490  -19.0960    8.1390 C   0  0  0  0  0  2  0  0  0  0  0  0
  -28.8760  -17.6700    5.8940 C   0  0  0  0  0  2  0  0  0  0  0  0
  -30.6810  -19.2770    5.5040 C   0  0  0  0  0  2  0  0  0  0  0  0
  -29.1180  -18.9200    8.2020 C   0  0  0  0  0  3  0  0  0  0  0  0
  -31.1930  -19.8070    6.8740 C   0  0  0  0  0  3  0  0  0  0  0  0
  -30.2990  -17.8380    5.4850 N   0  0  2  0  0  4  0  0  0  0  0  0
  -30.8660  -17.3440    6.1560 H   0  0  0  0  0  0  0  0  0  0  0  0
  -29.4940  -19.1270   11.8530 C   0  0  0  0  0  0  0  0  0  0  0  0
  -30.7080  -19.3360   13.9910 C   0  0  0  0  0  2  0  0  0  0  0  0
  -32.1460  -19.8330   13.7640 C   0  0  0  0  0  2  0  0  0  0  0  0
  -33.0930  -18.6470   13.4960 C   0  0  0  0  0  2  0  0  0  0  0  0
  -32.5470  -17.6760   12.4150 C   0  0  0  0  0  3  0  0  0  0  0  0
  -31.0650  -17.3210   12.6730 C   0  0  0  0  0  2  0  0  0  0  0  0
  -30.3120  -18.5800   12.7920 N   0  0  0  0  0  0  0  0  0  0  0  0
  -28.8660  -20.1670   12.0670 O   0  0  0  0  0  0  0  0  0  0  0  0
  -28.6270  -18.7860    9.6600 C   0  0  0  0  0  0  0  0  0  0  0  0
  -29.5370  -18.5710   10.6280 N   0  0  0  0  0  0  0  0  0  0  0  0
  -27.4190  -18.9170    9.8920 O   0  0  0  0  0  0  0  0  0  0  0  0
  -30.3750  -18.0670   10.3940 H   0  0  0  0  0  0  0  0  0  0  0  0
  -34.0830  -16.0060   11.2070 C   0  0  0  0  0  0  0  0  0  0  0  0
  -34.7590  -14.9000   11.6500 C   0  0  0  0  0  0  0  0  0  0  0  0
  -34.4280  -14.7620   13.0330 C   0  0  0  0  0  0  0  0  0  0  0  0
  -33.3810  -16.4840   12.3020 N   0  0  0  0  0  0  0  0  0  0  0  0
  -33.5520  -15.6920   13.3910 N   0  0  0  0  0  0  0  0  0  0  0  0
  -34.9400  -13.8340   14.0510 C   0  0  0  0  0  0  0  0  0  0  0  0
  -35.8820  -14.2460   15.0190 C   0  0  0  0  0  3  0  0  0  0  0  0
  -36.3460  -13.3390   15.9970 C   0  0  0  0  0  3  0  0  0  0  0  0
  -35.8650  -12.0070   16.0160 C   0  0  0  0  0  0  0  0  0  0  0  0
  -34.9450  -11.5970   15.0340 C   0  0  0  0  0  3  0  0  0  0  0  0
  -34.4880  -12.4990   14.0590 C   0  0  0  0  0  3  0  0  0  0  0  0
  -36.2750  -11.0520   16.9130 O   0  0  0  0  0  0  0  0  0  0  0  0
  -35.6200  -10.8540   18.1030 C   0  0  0  0  0  0  0  0  0  0  0  0
  -35.1020  -11.9290   18.8570 C   0  0  0  0  0  3  0  0  0  0  0  0
  -34.3770  -11.6770   20.0380 C   0  0  0  0  0  3  0  0  0  0  0  0
  -34.1590  -10.3510   20.4620 C   0  0  0  0  0  0  0  0  0  0  0  0
  -34.6720   -9.2790   19.7100 C   0  0  0  0  0  3  0  0  0  0  0  0
  -35.3970   -9.5310   18.5320 C   0  0  0  0  0  0  0  0  0  0  0  0
  -35.8680   -8.4940   17.7990 F   0  0  0  0  0  0  0  0  0  0  0  0
  -33.4570  -10.1070   21.5930 F   0  0  0  0  0  0  0  0  0  0  0  0
  -35.7330  -14.0740   10.8620 C   0  0  0  0  0  0  0  0  0  0  0  0
  -35.2330  -13.1490   10.0480 N   0  0  0  0  0  0  0  0  0  0  0  0
  -36.9440  -14.2770   10.9300 O   0  0  0  0  0  0  0  0  0  0  0  0
  -34.2390  -12.9950    9.9800 H   0  0  0  0  0  0  0  0  0  0  0  0
  -35.8550  -12.5870    9.4840 H   0  0  0  0  0  0  0  0  0  0  0  0
  -34.0200  -16.6550    9.9770 N   0  0  0  0  0  0  0  0  0  0  0  0
  -34.5630  -16.3550    9.1760 H   0  0  0  0  0  0  0  0  0  0  0  0
  -33.5200  -17.5190    9.8110 H   0  0  0  0  0  0  0  0  0  0  0  0
  -30.9100  -21.8550    8.4180 C   0  0  0  0  0  1  0  0  0  0  0  0
  -30.9920  -21.3370    6.9760 C   0  0  0  0  0  2  0  0  0  0  0  0
  -30.5830  -17.1830    4.1760 C   0  0  0  0  0  2  0  0  0  0  0  0
  -29.3960  -17.2210    3.1820 C   0  0  0  0  0  2  0  0  0  0  0  0
  -29.4510  -16.0950    2.1210 C   0  0  0  0  0  2  0  0  0  0  0  0
  -28.5190  -14.9190    2.4240 C   0  0  0  0  0  0  0  0  0  0  0  0
  -27.5570  -14.6700    1.6900 O   0  0  0  0  0  0  0  0  0  0  0  0
  -28.8230  -14.0870    3.6770 C   0  0  0  0  0  2  0  0  0  0  0  0
  -30.2180  -14.1460    3.9760 O   0  0  0  0  0  0  0  0  0  0  0  0
  -33.7350   -8.0030    5.0930 C   0  0  0  0  0  0  0  0  0  0  0  0
  -31.0330  -13.1340    3.5250 C   0  0  0  0  0  0  0  0  0  0  0  0
  -34.2220   -9.1810    2.9690 C   0  0  0  0  0  3  0  0  0  0  0  0
  -32.6700  -11.1230    2.4050 C   0  0  0  0  0  0  0  0  0  0  0  0
  -31.9590   -9.4530    4.1240 C   0  0  0  0  0  2  0  0  0  0  0  0
  -31.8960  -10.8480    3.5400 C   0  0  0  0  0  0  0  0  0  0  0  0
  -31.0780  -11.8470    4.1080 C   0  0  0  0  0  3  0  0  0  0  0  0
  -31.8110  -13.3990    2.3780 C   0  0  0  0  0  3  0  0  0  0  0  0
  -32.6370  -12.4030    1.8210 C   0  0  0  0  0  3  0  0  0  0  0  0
  -33.5060   -9.9890    1.8560 C   0  0  0  0  0  2  0  0  0  0  0  0
  -33.3180   -8.8650    4.1220 N   0  0  0  0  0  0  0  0  0  0  0  0
  -34.8340   -7.4390    5.0170 O   0  0  0  0  0  0  0  0  0  0  0  0
  -35.5000   -9.9420    3.3840 C   0  0  0  0  0  0  0  0  0  0  0  0
  -36.4870   -9.9900    2.4750 N   0  0  0  0  0  0  0  0  0  0  0  0
  -35.5770  -10.4970    4.4840 O   0  0  0  0  0  0  0  0  0  0  0  0
  -36.3480   -9.5120    1.5960 H   0  0  0  0  0  0  0  0  0  0  0  0
  -38.2290  -12.4670    4.4450 C   0  0  0  0  0  0  0  0  0  0  0  0
  -37.7650  -10.6830    2.6320 C   0  0  0  0  0  3  0  0  0  0  0  0
  -38.7860   -9.8010    3.3860 C   0  0  0  0  0  2  0  0  0  0  0  0
  -38.7960  -10.0440    4.8990 C   0  0  0  0  0  2  0  0  0  0  0  0
  -39.1260  -11.5070    5.2060 C   0  0  0  0  0  2  0  0  0  0  0  0
  -37.5780  -12.0750    3.2450 C   0  0  0  0  0  0  0  0  0  0  0  0
  -36.7250  -12.9950    2.5980 C   0  0  0  0  0  3  0  0  0  0  0  0
  -36.5210  -14.2840    3.1250 C   0  0  0  0  0  3  0  0  0  0  0  0
  -37.1820  -14.6740    4.3030 C   0  0  0  0  0  3  0  0  0  0  0  0
  -38.0350  -13.7670    4.9580 C   0  0  0  0  0  3  0  0  0  0  0  0
  -32.8450   -7.6690    6.3300 C   0  0  0  0  0  3  0  0  0  0  0  0
  -32.2140   -8.9200    6.7720 N   0  0  0  0  0  0  0  0  0  0  0  0
  -32.7400   -9.7590    7.6750 C   0  0  0  0  0  0  0  0  0  0  0  0
  -33.7840   -9.5150    8.2880 O   0  0  0  0  0  0  0  0  0  0  0  0
  -31.3830   -9.2080    6.2760 H   0  0  0  0  0  0  0  0  0  0  0  0
  -30.4980  -10.8900    7.6170 C   0  0  0  0  0  1  0  0  0  0  0  0
  -31.9870  -11.0760    7.9430 C   0  0  0  0  0  3  0  0  0  0  0  0
  -31.6510  -13.3950    7.2110 C   0  0  0  0  0  1  0  0  0  0  0  0
  -32.5250  -12.2260    7.1850 N   0  0  0  0  0  0  0  0  0  0  0  0
  -32.6860  -11.9730    6.2140 H   0  0  0  0  0  0  0  0  0  0  0  0
  -31.7580   -6.5650    6.0370 C   0  0  1  0  0  0  0  0  0  0  0  0
  -30.4240   -7.1310    5.5000 C   0  0  0  0  0  1  0  0  0  0  0  0
  -32.2830   -5.5410    5.0030 C   0  0  0  0  0  1  0  0  0  0  0  0
  -31.4570   -5.7690    7.3300 C   0  0  0  0  0  1  0  0  0  0  0  0
  1  5  1  0
  2  5  1  0
  3  1  1  0
  4  6  1  0
  5 17  1  0
  6 50  1  0
  6  2  1  0
  7  4  1  0
  7  3  1  0
  7  8  1  1
  9 16  2  0
  9 15  1  0
 11 10  1  0
 12 11  1  0
 13 24  1  0
 13 14  1  0
 13 12  1  0
 14 15  1  0
 15 10  1  0
 17 19  2  0
 17 18  1  0
 18  9  1  0
 20 18  1  0
 21 22  2  0
 21 24  1  0
 22 23  1  0
 23 25  2  0
 23 26  1  0
 24 25  1  0
 26 31  2  0
 26 27  1  0
 27 28  2  0
 28 29  1  0
 29 32  1  0
 30 29  2  0
 31 30  1  0
 32 33  1  0
 33 38  2  0
 33 34  1  0
 34 35  2  0
 35 36  1  0
 36 40  1  0
 37 36  2  0
 38 37  1  0
 39 38  1  0
 41 43  2  0
 41 22  1  0
 42 41  1  0
 44 42  1  0
 45 42  1  0
 46 21  1  0
 47 46  1  0
 48 46  1  0
 50 49  1  0
 51  7  1  0
 52 51  1  0
 53 54  1  0
 53 52  1  0
 54 56  1  0
 55 54  2  0
 56 57  1  0
 59 57  1  0
 59 64  1  0
 60 70  1  0
 60 68  1  0
 61 63  1  0
 63 64  2  0
 63 62  1  0
 65 59  2  0
 66 65  1  0
 66 61  2  0
 67 61  1  0
 67 60  1  0
 68 62  1  0
 68 58  1  0
 69 58  2  0
 70 72  2  0
 71 70  1  0
 73 71  1  0
 74 83  1  0
 74 78  1  0
 75 71  1  0
 75 79  1  0
 75 76  1  0
 76 77  1  0
 77 78  1  0
 79 74  2  0
 80 81  2  0
 80 79  1  0
 81 82  1  0
 82 83  2  0
 84 58  1  0
 84 85  1  0
 85 86  1  0
 86 90  1  0
 86 87  2  0
 88 85  1  0
 90 89  1  0
 92 91  1  0
 92 90  1  0
 93 92  1  0
 94 84  1  0
 94 97  1  1
 95 94  1  0
 96 94  1  0
M  ISO  4   9 100  18 100  56 101  57 101
M  END
>  <TORSDO>  (40) 
F 22

>  <SCORE>  (40) 
-2.134

>  <name>  (40) 
39

>  <ligand_id>  (40) 
39

>  <original_smiles>  (40) 
[H]c1c([H])c([H])c2c(c1[H])C([H])([H])C([H])([H])C([H])([H])C2([H])N([H])C(=O)C1([H])N(C(=O)C([H])(N([H])C(=O)C([H])(N([H])C([H])([H])[H])C([H])([H])[H])C(C([H])([H])[H])(C([H])([H])[H])C([H])([H])[H])C([H])([H])c2c([H])c(OC([H])([H])C(=O)C([H])([H])C([H])([H])C([H])([H])[N+]3([H])C([H])([H])C([H])([H])C([H])(C(=O)N([H])C(=O)N4C([H])([H])C([H])([H])C([H])([H])C([H])(n5nc(-c6c([H])c([H])c(Oc7c([H])c([H])c(F)c([H])c7F)c([H])c6[H])c(C(=O)N([H])[H])c5N([H])[H])C4([H])[H])C([H])([H])C([H])(C([H])([H])C([H])([H])[H])C3([H])[H])c([H])c([H])c2C1([H])[H]

>  <smiles>  (40) 
[H]c1c([H])c([H])c2c(c1[H])C([H])([H])C([H])([H])C([H])([H])C2([H])N([H])C(=O)C1([H])N(C(=O)C([H])(N([H])C(=O)C([H])(N([H])C([H])([H])[H])C([H])([H])[H])C(C([H])([H])[H])(C([H])([H])[H])C([H])([H])[H])C([H])([H])c2c([H])c(OC([H])([H])C(=O)C([H])([H])C([H])([H])C([H])([H])[N+]3([H])C([H])([H])C([H])([H])C([H])(C(=O)N([H])C(=O)N4C([H])([H])C([H])([H])C([H])([H])C([H])(n5nc(-c6c([H])c([H])c(Oc7c([H])c([H])c(F)c([H])c7F)c([H])c6[H])c(C(=O)N([H])[H])c5N([H])[H])C4([H])[H])C([H])([H])C([H])(C([H])([H])C([H])([H])[H])C3([H])[H])c([H])c([H])c2C1([H])[H]

$$$$
40:0:0
     RDKit          3D

 93100  0  0  1  0  0  0  0  0999 V2000
  -30.2730  -22.6900   20.0310 C   0  0  0  0  0  0  0  0  0  0  0  0
  -30.4260  -23.8080   19.3060 N   0  0  0  0  0  0  0  0  0  0  0  0
  -29.9490  -22.7080   21.2200 O   0  0  0  0  0  0  0  0  0  0  0  0
  -30.7160  -23.7090   18.3400 H   0  0  0  0  0  0  0  0  0  0  0  0
  -30.4980  -21.3540   19.3080 C   0  0  0  0  0  2  0  0  0  0  0  0
  -29.2720  -19.7900   17.7170 C   0  0  0  0  0  1  0  0  0  0  0  0
  -29.1770  -20.5810   19.0390 C   0  0  0  0  0  3  0  0  0  0  0  0
  -27.2830  -19.1390   20.0260 C   0  0  0  0  0  1  0  0  0  0  0  0
  -28.6960  -19.7160   20.2410 C   0  0  0  0  0  3  0  0  0  0  0  0
  -30.2870  -17.6850   21.0200 C   0  0  0  0  0  0  0  0  0  0  0  0
  -29.6130  -18.6250   20.6410 C   0  0  0  0  0  0  0  0  0  0  0  0
  -31.0480  -16.5200   21.5130 C   0  0  0  0  0  2  0  0  0  0  0  0
  -30.7880  -14.3930   20.2530 C   0  0  0  0  0  0  0  0  0  0  0  0
  -30.3950  -12.2380   19.1270 C   0  0  0  0  0  2  0  0  0  0  0  0
  -29.4530  -12.4170   17.9240 C   0  0  0  0  0  2  0  0  0  0  0  0
  -27.9890  -12.2770   18.3730 C   0  0  0  0  0  2  0  0  0  0  0  0
  -27.6570  -13.1660   19.6030 C   0  0  0  0  0  3  0  0  0  0  0  0
  -28.7200  -13.0190   20.7180 C   0  0  0  0  0  2  0  0  0  0  0  0
  -30.0540  -13.2570   20.1330 N   0  0  0  0  0  0  0  0  0  0  0  0
  -31.7900  -14.6300   19.5720 O   0  0  0  0  0  0  0  0  0  0  0  0
  -30.3890  -15.2490   21.1990 N   0  0  0  0  0  0  0  0  0  0  0  0
  -29.5730  -14.9910   21.7340 H   0  0  0  0  0  0  0  0  0  0  0  0
  -25.2620  -13.7860   20.3200 C   0  0  0  0  0  0  0  0  0  0  0  0
  -24.2020  -13.0200   20.7250 C   0  0  0  0  0  0  0  0  0  0  0  0
  -24.6690  -11.6700   20.7240 C   0  0  0  0  0  0  0  0  0  0  0  0
  -26.3080  -12.9020   20.1020 N   0  0  0  0  0  0  0  0  0  0  0  0
  -25.9540  -11.6250   20.4010 N   0  0  0  0  0  0  0  0  0  0  0  0
  -23.9490  -10.4110   20.9570 C   0  0  0  0  0  0  0  0  0  0  0  0
  -24.3870   -9.4770   21.9210 C   0  0  0  0  0  3  0  0  0  0  0  0
  -23.6660   -8.2820   22.1410 C   0  0  0  0  0  3  0  0  0  0  0  0
  -22.4930   -8.0140   21.3960 C   0  0  0  0  0  0  0  0  0  0  0  0
  -22.0750   -8.9370   20.4210 C   0  0  0  0  0  3  0  0  0  0  0  0
  -22.7960  -10.1230   20.2010 C   0  0  0  0  0  3  0  0  0  0  0  0
  -21.7450   -6.8710   21.5230 O   0  0  0  0  0  0  0  0  0  0  0  0
  -21.6950   -6.1690   22.7010 C   0  0  0  0  0  0  0  0  0  0  0  0
  -21.2660   -6.7650   23.9070 C   0  0  0  0  0  3  0  0  0  0  0  0
  -21.1630   -5.9870   25.0780 C   0  0  0  0  0  3  0  0  0  0  0  0
  -21.4790   -4.6160   25.0440 C   0  0  0  0  0  0  0  0  0  0  0  0
  -21.8990   -4.0210   23.8430 C   0  0  0  0  0  3  0  0  0  0  0  0
  -22.0030   -4.7940   22.6740 C   0  0  0  0  0  0  0  0  0  0  0  0
  -22.3900   -4.2090   21.5140 F   0  0  0  0  0  0  0  0  0  0  0  0
  -21.3730   -3.8700   26.1680 F   0  0  0  0  0  0  0  0  0  0  0  0
  -22.8090  -13.4990   21.0040 C   0  0  0  0  0  0  0  0  0  0  0  0
  -22.0950  -12.8230   21.8980 N   0  0  0  0  0  0  0  0  0  0  0  0
  -22.3590  -14.5090   20.4640 O   0  0  0  0  0  0  0  0  0  0  0  0
  -22.4710  -12.0100   22.3590 H   0  0  0  0  0  0  0  0  0  0  0  0
  -21.1580  -13.1260   22.1250 H   0  0  0  0  0  0  0  0  0  0  0  0
  -25.4140  -15.1520   20.1080 N   0  0  0  0  0  0  0  0  0  0  0  0
  -24.6360  -15.7950   20.2200 H   0  0  0  0  0  0  0  0  0  0  0  0
  -26.2590  -15.6060   19.7880 H   0  0  0  0  0  0  0  0  0  0  0  0
  -30.1940  -25.1720   19.7820 C   0  0  0  0  0  2  0  0  0  0  0  0
  -28.7070  -25.4450   20.1060 C   0  0  0  0  0  2  0  0  0  0  0  0
  -28.5720  -26.8550   20.2160 O   0  0  0  0  0  0  0  0  0  0  0  0
  -24.6120  -31.8750   23.2570 C   0  0  0  0  0  0  0  0  0  0  0  0
  -27.3380  -27.4630   20.2250 C   0  0  0  0  0  0  0  0  0  0  0  0
  -23.4350  -30.4570   21.6060 C   0  0  0  0  0  3  0  0  0  0  0  0
  -24.9120  -28.9190   20.2090 C   0  0  0  0  0  0  0  0  0  0  0  0
  -25.9500  -30.8500   21.4140 C   0  0  0  0  0  2  0  0  0  0  0  0
  -26.0540  -29.4690   20.8010 C   0  0  0  0  0  0  0  0  0  0  0  0
  -27.2650  -28.7460   20.8020 C   0  0  0  0  0  3  0  0  0  0  0  0
  -26.1730  -26.9110   19.6400 C   0  0  0  0  0  3  0  0  0  0  0  0
  -24.9640  -27.6400   19.6280 C   0  0  0  0  0  3  0  0  0  0  0  0
  -23.6650  -29.7730   20.2320 C   0  0  0  0  0  2  0  0  0  0  0  0
  -24.6850  -31.0750   22.1570 N   0  0  0  0  0  0  0  0  0  0  0  0
  -23.5250  -32.1410   23.7880 O   0  0  0  0  0  0  0  0  0  0  0  0
  -22.7770  -29.4390   22.5650 C   0  0  0  0  0  0  0  0  0  0  0  0
  -21.4510  -29.2710   22.4390 N   0  0  0  0  0  0  0  0  0  0  0  0
  -23.4560  -28.8010   23.3730 O   0  0  0  0  0  0  0  0  0  0  0  0
  -20.9680  -29.8400   21.7570 H   0  0  0  0  0  0  0  0  0  0  0  0
  -18.0620  -28.1070   22.9350 C   0  0  0  0  0  0  0  0  0  0  0  0
  -20.6240  -28.3360   23.1990 C   0  0  0  0  0  3  0  0  0  0  0  0
  -20.7070  -26.9090   22.6070 C   0  0  0  0  0  2  0  0  0  0  0  0
  -19.5950  -26.6080   21.5960 C   0  0  0  0  0  2  0  0  0  0  0  0
  -18.2200  -26.7610   22.2480 C   0  0  0  0  0  2  0  0  0  0  0  0
  -19.1920  -28.8510   23.3680 C   0  0  0  0  0  0  0  0  0  0  0  0
  -18.9890  -30.1110   23.9750 C   0  0  0  0  0  3  0  0  0  0  0  0
  -17.6920  -30.6280   24.1420 C   0  0  0  0  0  3  0  0  0  0  0  0
  -16.5780  -29.8830   23.7240 C   0  0  0  0  0  3  0  0  0  0  0  0
  -16.7640  -28.6220   23.1300 C   0  0  0  0  0  3  0  0  0  0  0  0
  -25.8890  -32.5140   23.8980 C   0  0  0  0  0  3  0  0  0  0  0  0
  -25.5690  -33.9140   24.2060 N   0  0  0  0  0  0  0  0  0  0  0  0
  -25.9240  -34.9590   23.4410 C   0  0  0  0  0  0  0  0  0  0  0  0
  -26.6220  -34.8420   22.4310 O   0  0  0  0  0  0  0  0  0  0  0  0
  -24.9350  -34.0740   24.9730 H   0  0  0  0  0  0  0  0  0  0  0  0
  -24.2030  -36.7510   23.0190 C   0  0  0  0  0  1  0  0  0  0  0  0
  -25.4230  -36.3510   23.8680 C   0  0  0  0  0  3  0  0  0  0  0  0
  -27.5480  -37.2400   24.7310 C   0  0  0  0  0  1  0  0  0  0  0  0
  -26.4640  -37.4010   23.7660 N   0  0  0  0  0  0  0  0  0  0  0  0
  -26.0580  -38.3240   23.8940 H   0  0  0  0  0  0  0  0  0  0  0  0
  -26.3930  -31.7480   25.1810 C   0  0  1  0  0  0  0  0  0  0  0  0
  -25.2910  -31.5090   26.2380 C   0  0  0  0  0  1  0  0  0  0  0  0
  -26.9820  -30.3690   24.7970 C   0  0  0  0  0  1  0  0  0  0  0  0
  -27.5380  -32.5460   25.8490 C   0  0  0  0  0  1  0  0  0  0  0  0
  1  3  2  0
  2 51  1  0
  2  1  1  0
  4  2  1  0
  5  1  1  0
  7  6  1  0
  7  5  1  0
  7  9  1  0
  9  8  1  0
  9 11  1  0
 10 12  1  0
 11 10  3  0
 13 21  1  0
 14 19  1  0
 15 16  1  0
 15 14  1  0
 17 16  1  0
 17 26  1  0
 17 18  1  0
 19 13  1  0
 19 18  1  0
 20 13  2  0
 21 12  1  0
 21 22  1  0
 23 24  2  0
 24 43  1  0
 25 24  1  0
 25 28  1  0
 26 23  1  0
 26 27  1  0
 27 25  2  0
 28 29  1  0
 29 30  2  0
 31 34  1  0
 31 30  1  0
 32 31  2  0
 33 32  1  0
 33 28  2  0
 34 35  1  0
 35 36  1  0
 36 37  2  0
 38 37  1  0
 38 42  1  0
 39 38  2  0
 40 35  2  0
 40 39  1  0
 41 40  1  0
 43 44  1  0
 44 47  1  0
 44 46  1  0
 45 43  2  0
 48 49  1  0
 48 23  1  0
 50 48  1  0
 51 52  1  0
 52 53  1  0
 53 55  1  0
 54 65  2  0
 55 60  1  0
 56 64  1  0
 56 66  1  0
 57 63  1  0
 57 59  1  0
 58 64  1  0
 59 60  2  0
 59 58  1  0
 61 55  2  0
 62 61  1  0
 62 57  2  0
 63 56  1  0
 64 54  1  0
 66 68  2  0
 67 66  1  0
 69 67  1  0
 70 79  2  0
 70 75  1  0
 71 67  1  0
 71 75  1  0
 72 71  1  0
 73 74  1  0
 73 72  1  0
 74 70  1  0
 75 76  2  0
 76 77  1  0
 78 77  2  0
 79 78  1  0
 80 54  1  0
 80 81  1  0
 80 90  1  0
 81 84  1  0
 82 86  1  0
 82 81  1  0
 83 82  2  0
 86 85  1  0
 88 86  1  0
 88 89  1  0
 88 87  1  0
 90 93  1  1
 90 91  1  0
 92 90  1  0
M  ISO  4  13 100  21 100  52 101  53 101
M  END
>  <TORSDO>  (41) 
F 23

>  <SCORE>  (41) 
-12.673

>  <name>  (41) 
40

>  <ligand_id>  (41) 
40

>  <original_smiles>  (41) 
[H]c1c([H])c([H])c2c(c1[H])C([H])([H])C([H])([H])C([H])([H])C2([H])N([H])C(=O)C1([H])N(C(=O)C([H])(N([H])C(=O)C([H])(N([H])C([H])([H])[H])C([H])([H])[H])C(C([H])([H])[H])(C([H])([H])[H])C([H])([H])[H])C([H])([H])c2c([H])c(OC([H])([H])C([H])([H])N([H])C(=O)C([H])([H])C([H])(C([H])([H])[H])C([H])(C#CC([H])([H])N([H])C(=O)N3C([H])([H])C([H])([H])C([H])([H])C([H])(n4nc(-c5c([H])c([H])c(Oc6c([H])c([H])c(F)c([H])c6F)c([H])c5[H])c(C(=O)N([H])[H])c4N([H])[H])C3([H])[H])C([H])([H])[H])c([H])c([H])c2C1([H])[H]

>  <smiles>  (41) 
[H]c1c([H])c([H])c2c(c1[H])C([H])([H])C([H])([H])C([H])([H])C2([H])N([H])C(=O)C1([H])N(C(=O)C([H])(N([H])C(=O)C([H])(N([H])C([H])([H])[H])C([H])([H])[H])C(C([H])([H])[H])(C([H])([H])[H])C([H])([H])[H])C([H])([H])c2c([H])c(OC([H])([H])C([H])([H])N([H])C(=O)C([H])([H])C([H])(C([H])([H])[H])C([H])(C#CC([H])([H])N([H])C(=O)N3C([H])([H])C([H])([H])C([H])([H])C([H])(n4nc(-c5c([H])c([H])c(Oc6c([H])c([H])c(F)c([H])c6F)c([H])c5[H])c(C(=O)N([H])[H])c4N([H])[H])C3([H])[H])C([H])([H])[H])c([H])c([H])c2C1([H])[H]

$$$$
41:0:0
     RDKit          3D

 96104  0  0  1  0  0  0  0  0999 V2000
  -31.1620  -20.1390   21.7700 C   0  0  0  0  0  2  0  0  0  0  0  0
  -27.8590  -19.5930   19.9950 C   0  0  0  0  0  2  0  0  0  0  0  0
  -28.8420  -20.4130   20.8100 C   0  0  0  0  0  2  0  0  0  0  0  0
  -28.6860  -18.3980   19.5170 C   0  0  0  0  0  3  0  0  0  0  0  0
  -29.7380  -18.2390   20.6750 C   0  0  0  0  0  3  0  0  0  0  0  0
  -30.1380  -19.6810   20.7740 N   0  0  2  0  0  4  0  0  0  0  0  0
  -30.5460  -19.8700   19.8670 H   0  0  0  0  0  0  0  0  0  0  0  0
  -32.1600  -17.2640   21.2830 C   0  0  0  0  0  1  0  0  0  0  0  0
  -30.8410  -17.1200   20.4420 C   0  0  0  0  0  3  0  0  0  0  0  0
  -30.7520  -14.6130   20.1670 C   0  0  0  0  0  0  0  0  0  0  0  0
  -30.2530  -12.4420   19.1130 C   0  0  0  0  0  2  0  0  0  0  0  0
  -29.2880  -12.6540   17.9330 C   0  0  0  0  0  2  0  0  0  0  0  0
  -27.8290  -12.5740   18.4120 C   0  0  0  0  0  2  0  0  0  0  0  0
  -27.5500  -13.4140   19.6850 C   0  0  0  0  0  3  0  0  0  0  0  0
  -28.6670  -13.2470   20.7480 C   0  0  0  0  0  2  0  0  0  0  0  0
  -29.9710  -13.4940   20.1080 N   0  0  0  0  0  0  0  0  0  0  0  0
  -31.8660  -14.6540   19.6530 O   0  0  0  0  0  0  0  0  0  0  0  0
  -30.2190  -15.7660   20.6180 N   0  0  0  0  0  0  0  0  0  0  0  0
  -29.2750  -15.7170   20.9760 H   0  0  0  0  0  0  0  0  0  0  0  0
  -25.1690  -13.9740   20.5090 C   0  0  0  0  0  0  0  0  0  0  0  0
  -24.1170  -13.1810   20.8820 C   0  0  0  0  0  0  0  0  0  0  0  0
  -24.5990  -11.8410   20.8140 C   0  0  0  0  0  0  0  0  0  0  0  0
  -26.2210  -13.1160   20.2190 N   0  0  0  0  0  0  0  0  0  0  0  0
  -25.8820  -11.8250   20.4770 N   0  0  0  0  0  0  0  0  0  0  0  0
  -23.8960  -10.5660   21.0100 C   0  0  0  0  0  0  0  0  0  0  0  0
  -24.3560   -9.6120   21.9360 C   0  0  0  0  0  3  0  0  0  0  0  0
  -23.6480   -8.4070   22.1350 C   0  0  0  0  0  3  0  0  0  0  0  0
  -22.4630   -8.1530   21.4050 C   0  0  0  0  0  0  0  0  0  0  0  0
  -22.0170   -9.1060   20.4700 C   0  0  0  0  0  3  0  0  0  0  0  0
  -22.7290  -10.3000   20.2710 C   0  0  0  0  0  3  0  0  0  0  0  0
  -21.7270   -6.9960   21.5100 O   0  0  0  0  0  0  0  0  0  0  0  0
  -21.7250   -6.2430   22.6570 C   0  0  0  0  0  0  0  0  0  0  0  0
  -21.3430   -6.7800   23.9060 C   0  0  0  0  0  3  0  0  0  0  0  0
  -21.2750   -5.9440   25.0380 C   0  0  0  0  0  3  0  0  0  0  0  0
  -21.5920   -4.5780   24.9320 C   0  0  0  0  0  0  0  0  0  0  0  0
  -21.9810   -4.0450   23.6890 C   0  0  0  0  0  3  0  0  0  0  0  0
  -22.0400   -4.8710   22.5550 C   0  0  0  0  0  0  0  0  0  0  0  0
  -22.3860   -4.3430   21.3570 F   0  0  0  0  0  0  0  0  0  0  0  0
  -21.5180   -3.7750   26.0210 F   0  0  0  0  0  0  0  0  0  0  0  0
  -22.7300  -13.6460   21.2040 C   0  0  0  0  0  0  0  0  0  0  0  0
  -22.0390  -12.9260   22.0890 N   0  0  0  0  0  0  0  0  0  0  0  0
  -22.2680  -14.6810   20.7150 O   0  0  0  0  0  0  0  0  0  0  0  0
  -22.4280  -12.0800   22.4740 H   0  0  0  0  0  0  0  0  0  0  0  0
  -21.1360  -13.2370   22.4130 H   0  0  0  0  0  0  0  0  0  0  0  0
  -25.2960  -15.3440   20.3970 N   0  0  0  0  0  0  0  0  0  0  0  0
  -24.5440  -15.9890   20.6320 H   0  0  0  0  0  0  0  0  0  0  0  0
  -26.1480  -15.8070   20.1200 H   0  0  0  0  0  0  0  0  0  0  0  0
  -26.5410  -17.6760   18.2960 C   0  0  0  0  0  1  0  0  0  0  0  0
  -27.7850  -17.2320   19.1100 C   0  0  0  0  0  2  0  0  0  0  0  0
  -30.8950  -21.4920   22.4850 C   0  0  0  0  0  2  0  0  0  0  0  0
  -31.0150  -22.7760   21.6040 C   0  0  0  0  0  2  0  0  0  0  0  0
  -30.1060  -23.9300   22.1080 C   0  0  0  0  0  2  0  0  0  0  0  0
  -30.0210  -25.2350   21.2670 C   0  0  0  0  0  2  0  0  0  0  0  0
  -28.7000  -24.6810   19.1510 C   0  0  0  0  0  1  0  0  0  0  0  0
  -28.6990  -25.4650   20.4730 C   0  0  0  0  0  3  0  0  0  0  0  0
  -28.5900  -26.8710   20.2100 O   0  0  0  0  0  0  0  0  0  0  0  0
  -24.5870  -31.9200   23.2410 C   0  0  0  0  0  0  0  0  0  0  0  0
  -27.3530  -27.4980   20.2230 C   0  0  0  0  0  0  0  0  0  0  0  0
  -23.4190  -30.4870   21.5870 C   0  0  0  0  0  3  0  0  0  0  0  0
  -24.9080  -28.9330   20.2190 C   0  0  0  0  0  0  0  0  0  0  0  0
  -25.9420  -30.8740   21.4310 C   0  0  0  0  0  2  0  0  0  0  0  0
  -26.0510  -29.4970   20.8010 C   0  0  0  0  0  0  0  0  0  0  0  0
  -27.2700  -28.7850   20.7990 C   0  0  0  0  0  3  0  0  0  0  0  0
  -26.1860  -26.9410   19.6560 C   0  0  0  0  0  3  0  0  0  0  0  0
  -24.9700  -27.6480   19.6470 C   0  0  0  0  0  3  0  0  0  0  0  0
  -23.6550  -29.7690   20.2310 C   0  0  0  0  0  2  0  0  0  0  0  0
  -24.6660  -31.1100   22.1430 N   0  0  0  0  0  0  0  0  0  0  0  0
  -23.4960  -32.1850   23.7640 O   0  0  0  0  0  0  0  0  0  0  0  0
  -22.7550  -29.4830   22.5540 C   0  0  0  0  0  0  0  0  0  0  0  0
  -21.4320  -29.2860   22.4100 N   0  0  0  0  0  0  0  0  0  0  0  0
  -23.4280  -28.8790   23.3940 O   0  0  0  0  0  0  0  0  0  0  0  0
  -20.9430  -29.8350   21.7150 H   0  0  0  0  0  0  0  0  0  0  0  0
  -18.0630  -28.0520   22.8680 C   0  0  0  0  0  0  0  0  0  0  0  0
  -20.6140  -28.3430   23.1770 C   0  0  0  0  0  3  0  0  0  0  0  0
  -20.7390  -26.9050   22.6200 C   0  0  0  0  0  2  0  0  0  0  0  0
  -19.6590  -26.5610   21.5900 C   0  0  0  0  0  2  0  0  0  0  0  0
  -18.2640  -26.7000   22.2060 C   0  0  0  0  0  2  0  0  0  0  0  0
  -19.1670  -28.8310   23.3070 C   0  0  0  0  0  0  0  0  0  0  0  0
  -18.9260  -30.0980   23.8800 C   0  0  0  0  0  3  0  0  0  0  0  0
  -17.6140  -30.5890   24.0140 C   0  0  0  0  0  3  0  0  0  0  0  0
  -16.5240  -29.8100   23.5910 C   0  0  0  0  0  3  0  0  0  0  0  0
  -16.7520  -28.5410   23.0280 C   0  0  0  0  0  3  0  0  0  0  0  0
  -25.8590  -32.5620   23.8790 C   0  0  0  0  0  3  0  0  0  0  0  0
  -25.5420  -33.9580   24.1980 N   0  0  0  0  0  0  0  0  0  0  0  0
  -25.8740  -35.0100   23.4330 C   0  0  0  0  0  0  0  0  0  0  0  0
  -26.5560  -34.9020   22.4080 O   0  0  0  0  0  0  0  0  0  0  0  0
  -24.9800  -34.1230   25.0220 H   0  0  0  0  0  0  0  0  0  0  0  0
  -24.1410  -36.7700   23.0320 C   0  0  0  0  0  1  0  0  0  0  0  0
  -25.3740  -36.3980   23.8710 C   0  0  0  0  0  3  0  0  0  0  0  0
  -27.4870  -37.2930   24.7300 C   0  0  0  0  0  1  0  0  0  0  0  0
  -26.4010  -37.4560   23.7640 N   0  0  0  0  0  0  0  0  0  0  0  0
  -25.9890  -38.3750   23.9060 H   0  0  0  0  0  0  0  0  0  0  0  0
  -26.3680  -31.8080   25.1700 C   0  0  1  0  0  0  0  0  0  0  0  0
  -25.2720  -31.5710   26.2330 C   0  0  0  0  0  1  0  0  0  0  0  0
  -26.9660  -30.4340   24.7870 C   0  0  0  0  0  1  0  0  0  0  0  0
  -27.5020  -32.6230   25.8400 C   0  0  0  0  0  1  0  0  0  0  0  0
  1 50  1  0
  2  3  1  0
  4 49  1  0
  4  2  1  0
  4  5  1  0
  5  9  1  0
  5  6  1  0
  6  3  1  0
  6  1  1  0
  6  7  1  6
  9 18  1  0
  9  8  1  0
 10 18  1  0
 11 16  1  0
 12 13  1  0
 12 11  1  0
 14 13  1  0
 14 23  1  0
 14 15  1  0
 16 10  1  0
 16 15  1  0
 17 10  2  0
 18 19  1  0
 20 21  2  0
 21 40  1  0
 22 21  1  0
 22 25  1  0
 23 24  1  0
 23 20  1  0
 24 22  2  0
 25 26  1  0
 26 27  2  0
 28 31  1  0
 28 27  1  0
 29 28  2  0
 30 29  1  0
 30 25  2  0
 31 32  1  0
 32 33  1  0
 33 34  2  0
 35 34  1  0
 35 39  1  0
 36 35  2  0
 37 32  2  0
 37 36  1  0
 38 37  1  0
 40 41  1  0
 41 44  1  0
 41 43  1  0
 42 40  2  0
 45 20  1  0
 45 46  1  0
 47 45  1  0
 48 49  1  0
 51 52  1  0
 51 50  1  0
 53 52  1  0
 55 54  1  0
 55 53  1  0
 56 58  1  0
 56 55  1  0
 57 68  2  0
 58 63  1  0
 59 67  1  0
 59 69  1  0
 60 66  1  0
 60 62  1  0
 61 67  1  0
 62 61  1  0
 63 62  2  0
 64 58  2  0
 65 64  1  0
 65 60  2  0
 66 59  1  0
 67 57  1  0
 69 71  2  0
 70 69  1  0
 72 70  1  0
 73 82  2  0
 73 78  1  0
 74 70  1  0
 74 78  1  0
 75 74  1  0
 76 77  1  0
 76 75  1  0
 77 73  1  0
 78 79  2  0
 79 80  1  0
 81 80  2  0
 82 81  1  0
 83 57  1  0
 83 84  1  0
 83 93  1  0
 84 87  1  0
 85 89  1  0
 85 84  1  0
 86 85  2  0
 89 88  1  0
 91 89  1  0
 91 92  1  0
 91 90  1  0
 93 96  1  1
 93 94  1  0
 95 93  1  0
M  ISO  4  10 100  18 100  55 101  56 101
M  END
>  <TORSDO>  (42) 
F 24

>  <SCORE>  (42) 
-11.675

>  <name>  (42) 
41

>  <ligand_id>  (42) 
41

>  <original_smiles>  (42) 
[H]c1c([H])c([H])c2c(c1[H])C([H])([H])C([H])([H])C([H])([H])C2([H])N([H])C(=O)C1([H])N(C(=O)C([H])(N([H])C(=O)C([H])(N([H])C([H])([H])[H])C([H])([H])[H])C(C([H])([H])[H])(C([H])([H])[H])C([H])([H])[H])C([H])([H])c2c([H])c(OC([H])(C([H])([H])[H])C([H])([H])C([H])([H])C([H])([H])C([H])([H])C([H])([H])[N+]3([H])C([H])([H])C([H])([H])C([H])(C([H])([H])C([H])([H])[H])C3([H])C([H])(N([H])C(=O)N3C([H])([H])C([H])([H])C([H])([H])C([H])(n4nc(-c5c([H])c([H])c(Oc6c([H])c([H])c(F)c([H])c6F)c([H])c5[H])c(C(=O)N([H])[H])c4N([H])[H])C3([H])[H])C([H])([H])[H])c([H])c([H])c2C1([H])[H]

>  <smiles>  (42) 
[H]c1c([H])c([H])c2c(c1[H])C([H])([H])C([H])([H])C([H])([H])C2([H])N([H])C(=O)C1([H])N(C(=O)C([H])(N([H])C(=O)C([H])(N([H])C([H])([H])[H])C([H])([H])[H])C(C([H])([H])[H])(C([H])([H])[H])C([H])([H])[H])C([H])([H])c2c([H])c(OC([H])(C([H])([H])[H])C([H])([H])C([H])([H])C([H])([H])C([H])([H])C([H])([H])[N+]3([H])C([H])([H])C([H])([H])C([H])(C([H])([H])C([H])([H])[H])C3([H])C([H])(N([H])C(=O)N3C([H])([H])C([H])([H])C([H])([H])C([H])(n4nc(-c5c([H])c([H])c(Oc6c([H])c([H])c(F)c([H])c6F)c([H])c5[H])c(C(=O)N([H])[H])c4N([H])[H])C3([H])[H])C([H])([H])[H])c([H])c([H])c2C1([H])[H]

$$$$
42:0:0
     RDKit          3D

 98106  0  0  1  0  0  0  0  0999 V2000
  -30.6160  -14.7670   20.4160 C   0  0  0  0  0  0  0  0  0  0  0  0
  -30.4240  -12.4860   19.4350 C   0  0  0  0  0  2  0  0  0  0  0  0
  -29.4940  -12.4890   18.2010 C   0  0  0  0  0  2  0  0  0  0  0  0
  -28.0090  -12.3950   18.6160 C   0  0  0  0  0  2  0  0  0  0  0  0
  -27.6200  -13.2940   19.8220 C   0  0  0  0  0  3  0  0  0  0  0  0
  -28.6740  -13.2340   20.9480 C   0  0  0  0  0  2  0  0  0  0  0  0
  -29.9740  -13.5540   20.3480 N   0  0  0  0  0  0  0  0  0  0  0  0
  -31.8450  -14.8330   20.3240 O   0  0  0  0  0  0  0  0  0  0  0  0
  -30.0950  -17.0920   18.0420 C   0  0  0  0  0  2  0  0  0  0  0  0
  -29.2690  -16.1230   18.9060 C   0  0  0  0  0  2  0  0  0  0  0  0
  -29.9790  -17.2640   20.9330 C   0  0  0  0  0  2  0  0  0  0  0  0
  -30.5620  -18.3870   18.7570 C   0  0  0  0  0  3  0  0  0  0  0  0
  -29.6880  -18.5860   20.0380 C   0  0  0  0  0  3  0  0  0  0  0  0
  -29.8400  -15.9110   20.2430 N   0  0  0  0  0  0  0  0  0  0  0  0
  -25.2270  -13.9150   20.4940 C   0  0  0  0  0  0  0  0  0  0  0  0
  -24.1490  -13.1480   20.8460 C   0  0  0  0  0  0  0  0  0  0  0  0
  -24.6140  -11.7980   20.8530 C   0  0  0  0  0  0  0  0  0  0  0  0
  -26.2720  -13.0260   20.3000 N   0  0  0  0  0  0  0  0  0  0  0  0
  -25.9100  -11.7510   20.5840 N   0  0  0  0  0  0  0  0  0  0  0  0
  -23.8850  -10.5400   21.0440 C   0  0  0  0  0  0  0  0  0  0  0  0
  -24.3100   -9.5800   21.9870 C   0  0  0  0  0  3  0  0  0  0  0  0
  -23.5860   -8.3820   22.1640 C   0  0  0  0  0  3  0  0  0  0  0  0
  -22.4240   -8.1350   21.3960 C   0  0  0  0  0  0  0  0  0  0  0  0
  -22.0170   -9.0850   20.4430 C   0  0  0  0  0  3  0  0  0  0  0  0
  -22.7420  -10.2760   20.2650 C   0  0  0  0  0  3  0  0  0  0  0  0
  -21.6710   -6.9890   21.4840 O   0  0  0  0  0  0  0  0  0  0  0  0
  -21.6250   -6.2450   22.6350 C   0  0  0  0  0  0  0  0  0  0  0  0
  -21.2210   -6.8030   23.8670 C   0  0  0  0  0  3  0  0  0  0  0  0
  -21.1240   -5.9870   25.0110 C   0  0  0  0  0  3  0  0  0  0  0  0
  -21.4160   -4.6130   24.9240 C   0  0  0  0  0  0  0  0  0  0  0  0
  -21.8130   -4.0540   23.6960 C   0  0  0  0  0  3  0  0  0  0  0  0
  -21.9150   -4.8680   22.5540 C   0  0  0  0  0  0  0  0  0  0  0  0
  -22.2780   -4.3220   21.3680 F   0  0  0  0  0  0  0  0  0  0  0  0
  -21.3170   -3.8250   26.0200 F   0  0  0  0  0  0  0  0  0  0  0  0
  -22.7450  -13.6290   21.0700 C   0  0  0  0  0  0  0  0  0  0  0  0
  -21.9940  -12.9480   21.9280 N   0  0  0  0  0  0  0  0  0  0  0  0
  -22.3190  -14.6410   20.5160 O   0  0  0  0  0  0  0  0  0  0  0  0
  -22.3470  -12.1250   22.3920 H   0  0  0  0  0  0  0  0  0  0  0  0
  -21.0520  -13.2560   22.1250 H   0  0  0  0  0  0  0  0  0  0  0  0
  -25.3960  -15.2830   20.2990 N   0  0  0  0  0  0  0  0  0  0  0  0
  -24.6250  -15.9370   20.3920 H   0  0  0  0  0  0  0  0  0  0  0  0
  -26.2630  -15.7220   20.0170 H   0  0  0  0  0  0  0  0  0  0  0  0
  -29.8190  -19.9450   20.7400 N   0  0  0  0  0  4  0  0  0  0  0  0
  -30.7900  -20.1140   20.9510 H   0  0  0  0  0  0  0  0  0  0  0  0
  -29.3520  -19.8430   21.6280 H   0  0  0  0  0  0  0  0  0  0  0  0
  -29.2260  -21.2000   20.0870 C   0  0  0  0  0  2  0  0  0  0  0  0
  -29.0470  -22.5330   20.9570 C   0  0  0  0  0  2  0  0  0  0  0  0
  -28.9120  -23.9400   20.1940 C   0  0  0  0  0  3  0  0  0  0  0  0
  -28.3960  -25.2110   21.0140 C   0  0  0  0  0  3  0  0  0  0  0  0
  -28.5290  -26.5720   20.4480 O   0  0  0  0  0  0  0  0  0  0  0  0
  -24.6490  -31.9570   23.3100 C   0  0  0  0  0  0  0  0  0  0  0  0
  -27.3910  -27.3880   20.4090 C   0  0  0  0  0  0  0  0  0  0  0  0
  -23.4960  -30.5100   21.6730 C   0  0  0  0  0  3  0  0  0  0  0  0
  -24.9980  -28.9430   20.3170 C   0  0  0  0  0  0  0  0  0  0  0  0
  -26.0320  -30.8640   21.5320 C   0  0  0  0  0  2  0  0  0  0  0  0
  -26.1470  -29.4720   20.9200 C   0  0  0  0  0  0  0  0  0  0  0  0
  -27.3500  -28.7090   20.9500 C   0  0  0  0  0  3  0  0  0  0  0  0
  -26.2220  -26.9010   19.7870 C   0  0  0  0  0  3  0  0  0  0  0  0
  -25.0350  -27.6620   19.7430 C   0  0  0  0  0  3  0  0  0  0  0  0
  -23.7470  -29.8020   20.3150 C   0  0  0  0  0  2  0  0  0  0  0  0
  -24.7430  -31.1290   22.2290 N   0  0  0  0  0  0  0  0  0  0  0  0
  -23.5520  -32.2330   23.8160 O   0  0  0  0  0  0  0  0  0  0  0  0
  -22.8260  -29.5060   22.6410 C   0  0  0  0  0  0  0  0  0  0  0  0
  -21.5030  -29.3180   22.4940 N   0  0  0  0  0  0  0  0  0  0  0  0
  -23.4940  -28.8990   23.4820 O   0  0  0  0  0  0  0  0  0  0  0  0
  -21.0230  -29.8630   21.7900 H   0  0  0  0  0  0  0  0  0  0  0  0
  -18.1230  -28.1160   22.9560 C   0  0  0  0  0  0  0  0  0  0  0  0
  -20.6760  -28.3900   23.2650 C   0  0  0  0  0  3  0  0  0  0  0  0
  -20.7920  -26.9500   22.7130 C   0  0  0  0  0  2  0  0  0  0  0  0
  -19.7070  -26.6080   21.6850 C   0  0  0  0  0  2  0  0  0  0  0  0
  -18.3150  -26.7580   22.3030 C   0  0  0  0  0  2  0  0  0  0  0  0
  -19.2320  -28.8890   23.3910 C   0  0  0  0  0  0  0  0  0  0  0  0
  -19.0000  -30.1610   23.9600 C   0  0  0  0  0  3  0  0  0  0  0  0
  -17.6900  -30.6610   24.0970 C   0  0  0  0  0  3  0  0  0  0  0  0
  -16.5950  -29.8860   23.6770 C   0  0  0  0  0  3  0  0  0  0  0  0
  -16.8130  -28.6160   23.1130 C   0  0  0  0  0  3  0  0  0  0  0  0
  -25.9090  -32.6160   23.9480 C   0  0  0  0  0  3  0  0  0  0  0  0
  -25.5750  -34.0160   24.2460 N   0  0  0  0  0  0  0  0  0  0  0  0
  -25.9080  -35.0590   23.4750 C   0  0  0  0  0  0  0  0  0  0  0  0
  -26.5970  -34.9460   22.4580 O   0  0  0  0  0  0  0  0  0  0  0  0
  -24.9640  -34.1770   25.0340 H   0  0  0  0  0  0  0  0  0  0  0  0
  -24.1530  -36.8180   23.0720 C   0  0  0  0  0  1  0  0  0  0  0  0
  -25.3950  -36.4480   23.8990 C   0  0  0  0  0  3  0  0  0  0  0  0
  -27.5110  -37.3830   24.7230 C   0  0  0  0  0  1  0  0  0  0  0  0
  -26.4100  -37.5160   23.7720 N   0  0  0  0  0  0  0  0  0  0  0  0
  -25.9890  -38.4320   23.9020 H   0  0  0  0  0  0  0  0  0  0  0  0
  -26.4080  -31.8740   25.2500 C   0  0  1  0  0  0  0  0  0  0  0  0
  -25.2940  -31.6390   26.2970 C   0  0  0  0  0  1  0  0  0  0  0  0
  -27.0190  -30.4980   24.8960 C   0  0  0  0  0  1  0  0  0  0  0  0
  -27.5340  -32.6940   25.9210 C   0  0  0  0  0  1  0  0  0  0  0  0
  -30.6520  -19.5530   17.7370 C   0  0  0  0  0  2  0  0  0  0  0  0
  -31.5180  -19.2650   16.4950 C   0  0  0  0  0  0  0  0  0  0  0  0
  -32.6320  -18.7530   16.6310 O   0  0  0  0  0  0  0  0  0  0  0  0
  -32.0230  -19.3570   14.0000 C   0  0  0  0  0  1  0  0  0  0  0  0
  -29.7400  -18.7500   14.7750 C   0  0  0  0  0  1  0  0  0  0  0  0
  -30.9620  -19.6380   15.0930 C   0  0  1  0  0  0  0  0  0  0  0  0
  -31.6080  -22.1790   15.3270 C   0  0  0  0  0  1  0  0  0  0  0  0
  -30.5230  -21.1280   15.0260 C   0  0  0  0  0  2  0  0  0  0  0  0
  2  7  1  0
  3  4  1  0
  3  2  1  0
  5  4  1  0
  5 18  1  0
  5  6  1  0
  7  1  1  0
  7  6  1  0
  8  1  2  0
  9 12  1  0
  9 10  1  0
 10 14  1  0
 12 91  1  0
 12 13  1  0
 13 43  1  0
 13 11  1  0
 14  1  1  0
 14 11  1  0
 15 16  2  0
 16 17  1  0
 16 35  1  0
 17 20  1  0
 18 15  1  0
 18 19  1  0
 19 17  2  0
 20 21  1  0
 21 22  2  0
 23 26  1  0
 23 22  1  0
 24 23  2  0
 25 24  1  0
 25 20  2  0
 26 27  1  0
 27 28  1  0
 28 29  2  0
 30 29  1  0
 30 34  1  0
 31 30  2  0
 32 27  2  0
 32 31  1  0
 33 32  1  0
 35 36  1  0
 36 39  1  0
 36 38  1  0
 37 35  2  0
 40 41  1  0
 40 15  1  0
 42 40  1  0
 43 44  1  0
 43 45  1  0
 46 43  1  0
 46 47  1  0
 48 47  1  0
 48 49  2  0
 50 49  1  0
 51 62  2  0
 52 50  1  0
 52 57  1  0
 53 61  1  0
 53 63  1  0
 54 56  1  0
 55 61  1  0
 56 57  2  0
 56 55  1  0
 58 52  2  0
 59 58  1  0
 59 54  2  0
 60 54  1  0
 60 53  1  0
 61 51  1  0
 63 65  2  0
 64 63  1  0
 66 64  1  0
 67 76  2  0
 67 72  1  0
 68 64  1  0
 68 72  1  0
 69 68  1  0
 70 71  1  0
 70 69  1  0
 71 67  1  0
 72 73  2  0
 73 74  1  0
 75 74  2  0
 76 75  1  0
 77 51  1  0
 77 78  1  0
 77 87  1  0
 78 81  1  0
 79 83  1  0
 79 78  1  0
 80 79  2  0
 83 82  1  0
 85 83  1  0
 85 86  1  0
 85 84  1  0
 87 90  1  1
 87 88  1  0
 89 87  1  0
 92 93  2  0
 92 91  1  0
 96 94  1  6
 95 96  1  0
 96 92  1  0
 98 96  1  0
 98 97  1  0
M  ISO  4   1 100  14 100  49 101  50 101
M  END
>  <TORSDO>  (43) 
F 24

>  <SCORE>  (43) 
-12.370

>  <name>  (43) 
42

>  <ligand_id>  (43) 
42

>  <original_smiles>  (43) 
[H]c1c([H])c([H])c2c(c1[H])C([H])([H])C([H])([H])C([H])([H])C2([H])N([H])C(=O)C1([H])N(C(=O)C([H])(N([H])C(=O)C([H])(N([H])C([H])([H])[H])C([H])([H])[H])C(C([H])([H])[H])(C([H])([H])[H])C([H])([H])[H])C([H])([H])c2c([H])c(OC([H])([H])C([H])([H])C([H])([H])C([H])([H])[N+]([H])([H])C3([H])C([H])([H])N(C(=O)N4C([H])([H])C([H])([H])C([H])([H])C([H])(n5nc(-c6c([H])c([H])c(Oc7c([H])c([H])c(F)c([H])c7F)c([H])c6[H])c(C(=O)N([H])[H])c5N([H])[H])C4([H])[H])C([H])([H])C([H])([H])C3([H])C([H])([H])C(=O)C(C([H])([H])[H])(C([H])([H])[H])C([H])([H])C([H])([H])[H])c([H])c([H])c2C1([H])[H]

>  <smiles>  (43) 
[H]c1c([H])c([H])c2c(c1[H])C([H])([H])C([H])([H])C([H])([H])C2([H])N([H])C(=O)C1([H])N(C(=O)C([H])(N([H])C(=O)C([H])(N([H])C([H])([H])[H])C([H])([H])[H])C(C([H])([H])[H])(C([H])([H])[H])C([H])([H])[H])C([H])([H])c2c([H])c(OC([H])([H])C([H])([H])C([H])([H])C([H])([H])[N+]([H])([H])C3([H])C([H])([H])N(C(=O)N4C([H])([H])C([H])([H])C([H])([H])C([H])(n5nc(-c6c([H])c([H])c(Oc7c([H])c([H])c(F)c([H])c7F)c([H])c6[H])c(C(=O)N([H])[H])c5N([H])[H])C4([H])[H])C([H])([H])C([H])([H])C3([H])C([H])([H])C(=O)C(C([H])([H])[H])(C([H])([H])[H])C([H])([H])C([H])([H])[H])c([H])c([H])c2C1([H])[H]

$$$$
43:0:0
     RDKit          3D

 96104  0  0  1  0  0  0  0  0999 V2000
  -30.4670  -19.8810   20.0910 N   0  0  0  0  0  4  0  0  0  0  0  0
  -30.0700  -19.5420   19.2280 H   0  0  0  0  0  0  0  0  0  0  0  0
  -29.7580  -19.8100   20.8020 H   0  0  0  0  0  0  0  0  0  0  0  0
  -30.7880  -21.3200   19.9400 C   0  0  0  0  0  2  0  0  0  0  0  0
  -29.5320  -22.1740   19.6550 C   0  0  0  0  0  2  0  0  0  0  0  0
  -29.8160  -23.6930   19.6570 C   0  0  0  0  0  2  0  0  0  0  0  0
  -28.5900  -24.5520   19.2810 C   0  0  0  0  0  2  0  0  0  0  0  0
  -28.9080  -26.0560   19.1080 C   0  0  0  0  0  2  0  0  0  0  0  0
  -28.5710  -26.8500   20.2510 O   0  0  0  0  0  0  0  0  0  0  0  0
  -24.6070  -31.9300   23.2740 C   0  0  0  0  0  0  0  0  0  0  0  0
  -27.3630  -27.5180   20.2430 C   0  0  0  0  0  0  0  0  0  0  0  0
  -23.4430  -30.5080   21.6180 C   0  0  0  0  0  3  0  0  0  0  0  0
  -24.9360  -28.9770   20.2280 C   0  0  0  0  0  0  0  0  0  0  0  0
  -25.9650  -30.8940   21.4600 C   0  0  0  0  0  2  0  0  0  0  0  0
  -26.0740  -29.5170   20.8380 C   0  0  0  0  0  0  0  0  0  0  0  0
  -27.2840  -28.7860   20.8600 C   0  0  0  0  0  3  0  0  0  0  0  0
  -26.2010  -26.9820   19.6420 C   0  0  0  0  0  3  0  0  0  0  0  0
  -24.9910  -27.7040   19.6340 C   0  0  0  0  0  3  0  0  0  0  0  0
  -23.6830  -29.8230   20.2460 C   0  0  0  0  0  2  0  0  0  0  0  0
  -24.6890  -31.1260   22.1770 N   0  0  0  0  0  0  0  0  0  0  0  0
  -23.5150  -32.1920   23.7980 O   0  0  0  0  0  0  0  0  0  0  0  0
  -22.7880  -29.4830   22.5730 C   0  0  0  0  0  0  0  0  0  0  0  0
  -21.4630  -29.3040   22.4400 N   0  0  0  0  0  0  0  0  0  0  0  0
  -23.4680  -28.8530   23.3870 O   0  0  0  0  0  0  0  0  0  0  0  0
  -20.9770  -29.8640   21.7530 H   0  0  0  0  0  0  0  0  0  0  0  0
  -18.0820  -28.1340   22.9330 C   0  0  0  0  0  0  0  0  0  0  0  0
  -20.6420  -28.3660   23.2050 C   0  0  0  0  0  3  0  0  0  0  0  0
  -20.7320  -26.9400   22.6140 C   0  0  0  0  0  2  0  0  0  0  0  0
  -19.6260  -26.6370   21.6000 C   0  0  0  0  0  2  0  0  0  0  0  0
  -18.2460  -26.7880   22.2470 C   0  0  0  0  0  2  0  0  0  0  0  0
  -19.2080  -28.8800   23.3700 C   0  0  0  0  0  0  0  0  0  0  0  0
  -19.0010  -30.1410   23.9720 C   0  0  0  0  0  3  0  0  0  0  0  0
  -17.7020  -30.6530   24.1440 C   0  0  0  0  0  3  0  0  0  0  0  0
  -16.5900  -29.9020   23.7250 C   0  0  0  0  0  3  0  0  0  0  0  0
  -16.7810  -28.6440   23.1250 C   0  0  0  0  0  3  0  0  0  0  0  0
  -25.8780  -32.5760   23.9120 C   0  0  0  0  0  3  0  0  0  0  0  0
  -26.3800  -31.8200   25.2020 C   0  0  1  0  0  0  0  0  0  0  0  0
  -25.2730  -31.5840   26.2540 C   0  0  0  0  0  1  0  0  0  0  0  0
  -26.9790  -30.4440   24.8280 C   0  0  0  0  0  1  0  0  0  0  0  0
  -27.5130  -32.6280   25.8770 C   0  0  0  0  0  1  0  0  0  0  0  0
  -25.5530  -33.9750   24.2220 N   0  0  0  0  0  0  0  0  0  0  0  0
  -25.8870  -35.0220   23.4540 C   0  0  0  0  0  0  0  0  0  0  0  0
  -26.5730  -34.9110   22.4340 O   0  0  0  0  0  0  0  0  0  0  0  0
  -24.9460  -34.1330   25.0130 H   0  0  0  0  0  0  0  0  0  0  0  0
  -24.1450  -36.7900   23.0560 C   0  0  0  0  0  1  0  0  0  0  0  0
  -25.3800  -36.4100   23.8880 C   0  0  0  0  0  3  0  0  0  0  0  0
  -27.4960  -37.3250   24.7300 C   0  0  0  0  0  1  0  0  0  0  0  0
  -26.4030  -37.4710   23.7730 N   0  0  0  0  0  0  0  0  0  0  0  0
  -25.9860  -38.3890   23.9070 H   0  0  0  0  0  0  0  0  0  0  0  0
  -31.6240  -19.0170   20.4740 C   0  0  0  0  0  3  0  0  0  0  0  0
  -31.2790  -17.5740   21.0150 C   0  0  0  0  0  3  0  0  0  0  0  0
  -29.9170  -16.7910   21.1620 C   0  0  0  0  0  3  0  0  0  0  0  0
  -30.6630  -14.4660   20.3530 C   0  0  0  0  0  0  0  0  0  0  0  0
  -30.3380  -12.3790   19.0770 C   0  0  0  0  0  2  0  0  0  0  0  0
  -29.3370  -12.6490   17.9340 C   0  0  0  0  0  2  0  0  0  0  0  0
  -27.8780  -12.5020   18.4120 C   0  0  0  0  0  2  0  0  0  0  0  0
  -27.6040  -13.2680   19.7320 C   0  0  0  0  0  3  0  0  0  0  0  0
  -28.6980  -12.9470   20.7770 C   0  0  0  0  0  2  0  0  0  0  0  0
  -30.0130  -13.2840   20.1900 N   0  0  0  0  0  0  0  0  0  0  0  0
  -31.6970  -14.7660   19.7460 O   0  0  0  0  0  0  0  0  0  0  0  0
  -30.0000  -15.3250   21.1410 N   0  0  0  0  0  0  0  0  0  0  0  0
  -29.2410  -14.8820   21.6360 H   0  0  0  0  0  0  0  0  0  0  0  0
  -25.2290  -13.8790   20.5250 C   0  0  0  0  0  0  0  0  0  0  0  0
  -24.1700  -13.1050   20.9200 C   0  0  0  0  0  0  0  0  0  0  0  0
  -24.6230  -11.7520   20.8450 C   0  0  0  0  0  0  0  0  0  0  0  0
  -26.2630  -12.9980   20.2450 N   0  0  0  0  0  0  0  0  0  0  0  0
  -25.9010  -11.7120   20.4900 N   0  0  0  0  0  0  0  0  0  0  0  0
  -23.9000  -10.4900   21.0400 C   0  0  0  0  0  0  0  0  0  0  0  0
  -24.3670   -9.5010   21.9350 C   0  0  0  0  0  3  0  0  0  0  0  0
  -23.6450   -8.3030   22.1170 C   0  0  0  0  0  3  0  0  0  0  0  0
  -22.4420   -8.0830   21.4040 C   0  0  0  0  0  0  0  0  0  0  0  0
  -21.9940   -9.0620   20.4990 C   0  0  0  0  0  3  0  0  0  0  0  0
  -22.7160  -10.2520   20.3140 C   0  0  0  0  0  3  0  0  0  0  0  0
  -21.6870   -6.9390   21.4970 O   0  0  0  0  0  0  0  0  0  0  0  0
  -21.6770   -6.1730   22.6360 C   0  0  0  0  0  0  0  0  0  0  0  0
  -21.3050   -6.7080   23.8880 C   0  0  0  0  0  3  0  0  0  0  0  0
  -21.2420   -5.8710   25.0210 C   0  0  0  0  0  3  0  0  0  0  0  0
  -21.5410   -4.5010   24.9000 C   0  0  0  0  0  0  0  0  0  0  0  0
  -21.9050   -3.9650   23.6510 C   0  0  0  0  0  3  0  0  0  0  0  0
  -21.9700   -4.7990   22.5220 C   0  0  0  0  0  0  0  0  0  0  0  0
  -22.3010   -4.2750   21.3180 F   0  0  0  0  0  0  0  0  0  0  0  0
  -21.4720   -3.6940   25.9850 F   0  0  0  0  0  0  0  0  0  0  0  0
  -22.7840  -13.5840   21.2520 C   0  0  0  0  0  0  0  0  0  0  0  0
  -22.0830  -12.8790   22.1340 N   0  0  0  0  0  0  0  0  0  0  0  0
  -22.3290  -14.6180   20.7650 O   0  0  0  0  0  0  0  0  0  0  0  0
  -22.4620  -12.0450   22.5550 H   0  0  0  0  0  0  0  0  0  0  0  0
  -21.1550  -13.1840   22.3920 H   0  0  0  0  0  0  0  0  0  0  0  0
  -25.3910  -15.2520   20.3670 N   0  0  0  0  0  0  0  0  0  0  0  0
  -24.6330  -15.9030   20.5270 H   0  0  0  0  0  0  0  0  0  0  0  0
  -26.2270  -15.7070   20.0170 H   0  0  0  0  0  0  0  0  0  0  0  0
  -26.7410  -18.2640   18.5680 C   0  0  0  0  0  3  0  0  0  0  0  0
  -26.7830  -18.6530   19.9200 C   0  0  0  0  0  3  0  0  0  0  0  0
  -27.7100  -17.3800   18.0580 C   0  0  0  0  0  3  0  0  0  0  0  0
  -27.8030  -18.1630   20.7610 C   0  0  0  0  0  3  0  0  0  0  0  0
  -28.7340  -16.8990   18.8970 C   0  0  0  0  0  3  0  0  0  0  0  0
  -28.7930  -17.2950   20.2520 C   0  0  0  0  0  0  0  0  0  0  0  0
  1 50  1  0
  1  3  1  0
  2  1  1  0
  4  1  1  0
  5  6  1  0
  5  4  1  0
  7  6  1  0
  8  7  1  0
  8  9  1  0
 10 21  2  0
 11  9  1  0
 11 16  1  0
 12 20  1  0
 12 22  1  0
 13 19  1  0
 13 15  1  0
 14 20  1  0
 15 16  2  0
 15 14  1  0
 17 11  2  0
 18 17  1  0
 18 13  2  0
 19 12  1  0
 20 10  1  0
 22 24  2  0
 23 22  1  0
 25 23  1  0
 26 35  2  0
 26 31  1  0
 27 23  1  0
 27 31  1  0
 28 27  1  0
 29 30  1  0
 29 28  1  0
 30 26  1  0
 31 32  2  0
 32 33  1  0
 34 33  2  0
 35 34  1  0
 36 10  1  0
 36 41  1  0
 36 37  1  0
 37 40  1  1
 37 38  1  0
 39 37  1  0
 41 44  1  0
 42 46  1  0
 42 41  1  0
 43 42  2  0
 46 45  1  0
 48 46  1  0
 48 49  1  0
 48 47  1  0
 50 51  2  0
 52 51  1  0
 53 61  1  0
 54 59  1  0
 55 56  1  0
 55 54  1  0
 57 56  1  0
 57 66  1  0
 57 58  1  0
 59 53  1  0
 59 58  1  0
 60 53  2  0
 61 52  1  0
 61 62  1  0
 63 64  2  0
 64 83  1  0
 65 64  1  0
 65 68  1  0
 66 67  1  0
 66 63  1  0
 67 65  2  0
 68 69  1  0
 69 70  2  0
 71 74  1  0
 71 70  1  0
 72 71  2  0
 73 72  1  0
 73 68  2  0
 74 75  1  0
 75 76  1  0
 76 77  2  0
 78 77  1  0
 78 82  1  0
 79 78  2  0
 80 75  2  0
 80 79  1  0
 81 80  1  0
 83 84  1  0
 84 87  1  0
 84 86  1  0
 85 83  2  0
 88 63  1  0
 88 89  1  0
 90 88  1  0
 91 92  1  0
 92 94  2  0
 93 91  2  0
 93 95  1  0
 95 96  2  0
 96 94  1  0
 96 52  1  0
M  ISO  4   8 101   9 101  53 100  61 100
M  END
>  <TORSDO>  (44) 
F 25

>  <SCORE>  (44) 
-11.410

>  <name>  (44) 
43

>  <ligand_id>  (44) 
43

>  <original_smiles>  (44) 
[H]c1c([H])c([H])c(C([H])(N([H])C(=O)N2C([H])([H])C([H])([H])C([H])([H])C([H])(n3nc(-c4c([H])c([H])c(Oc5c([H])c([H])c(F)c([H])c5F)c([H])c4[H])c(C(=O)N([H])[H])c3N([H])[H])C2([H])[H])C([H])([H])C([H])([H])[N+]([H])([H])C([H])([H])C([H])([H])C([H])([H])C([H])([H])C([H])([H])Oc2c([H])c([H])c3c(c2[H])C([H])([H])N(C(=O)C([H])(N([H])C(=O)C([H])(N([H])C([H])([H])[H])C([H])([H])[H])C(C([H])([H])[H])(C([H])([H])[H])C([H])([H])[H])C([H])(C(=O)N([H])C2([H])c4c([H])c([H])c([H])c([H])c4C([H])([H])C([H])([H])C2([H])[H])C3([H])[H])c([H])c1[H]

>  <smiles>  (44) 
[H]c1c([H])c([H])c(C([H])(N([H])C(=O)N2C([H])([H])C([H])([H])C([H])([H])C([H])(n3nc(-c4c([H])c([H])c(Oc5c([H])c([H])c(F)c([H])c5F)c([H])c4[H])c(C(=O)N([H])[H])c3N([H])[H])C2([H])[H])C([H])([H])C([H])([H])[N+]([H])([H])C([H])([H])C([H])([H])C([H])([H])C([H])([H])C([H])([H])Oc2c([H])c([H])c3c(c2[H])C([H])([H])N(C(=O)C([H])(N([H])C(=O)C([H])(N([H])C([H])([H])[H])C([H])([H])[H])C(C([H])([H])[H])(C([H])([H])[H])C([H])([H])[H])C([H])(C(=O)N([H])C2([H])c4c([H])c([H])c([H])c([H])c4C([H])([H])C([H])([H])C2([H])[H])C3([H])[H])c([H])c1[H]

$$$$
44:0:0
     RDKit          3D

 99107  0  0  1  0  0  0  0  0999 V2000
  -26.3310  -21.9930   21.2150 C   0  0  0  0  0  2  0  0  0  0  0  0
  -26.3470  -24.1270   21.1600 C   0  0  0  0  0  2  0  0  0  0  0  0
  -27.1150  -23.0730   21.9760 C   0  0  0  0  0  3  0  0  0  0  0  0
  -25.9000  -23.0380   20.1630 C   0  0  0  0  0  3  0  0  0  0  0  0
  -28.6210  -22.9420   21.7150 C   0  0  0  0  0  0  0  0  0  0  0  0
  -29.2640  -22.0400   22.4640 N   0  0  0  0  0  0  0  0  0  0  0  0
  -29.1630  -23.5520   20.7910 O   0  0  0  0  0  0  0  0  0  0  0  0
  -28.7710  -21.6390   23.2530 H   0  0  0  0  0  0  0  0  0  0  0  0
  -30.5190  -21.4060   22.0880 C   0  0  0  0  0  2  0  0  0  0  0  0
  -30.2580  -20.4790   20.8400 C   0  0  0  0  0  2  0  0  0  0  0  0
  -31.3350  -19.7320   20.0000 C   0  0  0  0  0  2  0  0  0  0  0  0
  -31.2570  -18.1930   20.0700 C   0  0  0  0  0  2  0  0  0  0  0  0
  -32.6050  -17.4630   19.9600 C   0  0  0  0  0  2  0  0  0  0  0  0
  -32.4150  -15.0940   19.2360 C   0  0  0  0  0  0  0  0  0  0  0  0
  -31.9830  -12.6870   18.9970 C   0  0  0  0  0  2  0  0  0  0  0  0
  -31.0200  -12.3360   17.8520 C   0  0  0  0  0  2  0  0  0  0  0  0
  -29.5620  -12.3930   18.3380 C   0  0  0  0  0  2  0  0  0  0  0  0
  -29.2340  -13.7270   19.0530 C   0  0  0  0  0  3  0  0  0  0  0  0
  -30.3020  -14.0650   20.1260 C   0  0  0  0  0  2  0  0  0  0  0  0
  -31.6500  -14.0150   19.5190 N   0  0  0  0  0  0  0  0  0  0  0  0
  -33.2370  -15.1500   18.3200 O   0  0  0  0  0  0  0  0  0  0  0  0
  -32.3300  -16.0490   20.1630 N   0  0  0  0  0  0  0  0  0  0  0  0
  -31.8090  -15.8030   20.9920 H   0  0  0  0  0  0  0  0  0  0  0  0
  -27.0250  -14.7490   19.9070 C   0  0  0  0  0  0  0  0  0  0  0  0
  -25.8580  -14.1770   20.3350 C   0  0  0  0  0  0  0  0  0  0  0  0
  -26.0620  -12.7650   20.2680 C   0  0  0  0  0  0  0  0  0  0  0  0
  -27.8810  -13.6980   19.6130 N   0  0  0  0  0  0  0  0  0  0  0  0
  -27.3040  -12.4980   19.8830 N   0  0  0  0  0  0  0  0  0  0  0  0
  -25.1290  -11.6540   20.4940 C   0  0  0  0  0  0  0  0  0  0  0  0
  -25.4100  -10.6380   21.4340 C   0  0  0  0  0  3  0  0  0  0  0  0
  -24.4930   -9.5850   21.6470 C   0  0  0  0  0  3  0  0  0  0  0  0
  -23.2770   -9.5440   20.9240 C   0  0  0  0  0  0  0  0  0  0  0  0
  -23.0120  -10.5460   19.9730 C   0  0  0  0  0  3  0  0  0  0  0  0
  -23.9280  -11.5900   19.7580 C   0  0  0  0  0  3  0  0  0  0  0  0
  -22.3410   -8.5480   21.0480 O   0  0  0  0  0  0  0  0  0  0  0  0
  -22.1360   -7.8970   22.2390 C   0  0  0  0  0  0  0  0  0  0  0  0
  -21.7800   -8.5910   23.4150 C   0  0  0  0  0  3  0  0  0  0  0  0
  -21.5090   -7.8760   24.6000 C   0  0  0  0  0  3  0  0  0  0  0  0
  -21.5800   -6.4700   24.6070 C   0  0  0  0  0  0  0  0  0  0  0  0
  -21.9280   -5.7770   23.4340 C   0  0  0  0  0  3  0  0  0  0  0  0
  -22.2000   -6.4880   22.2520 C   0  0  0  0  0  0  0  0  0  0  0  0
  -22.5130   -5.8140   21.1200 F   0  0  0  0  0  0  0  0  0  0  0  0
  -21.3130   -5.7840   25.7420 F   0  0  0  0  0  0  0  0  0  0  0  0
  -24.5890  -14.8940   20.7010 C   0  0  0  0  0  0  0  0  0  0  0  0
  -23.8140  -14.3350   21.6210 N   0  0  0  0  0  0  0  0  0  0  0  0
  -24.3060  -15.9850   20.2080 O   0  0  0  0  0  0  0  0  0  0  0  0
  -24.0530  -13.4510   22.0450 H   0  0  0  0  0  0  0  0  0  0  0  0
  -22.9650  -14.8020   21.9070 H   0  0  0  0  0  0  0  0  0  0  0  0
  -27.4230  -16.0710   19.7280 N   0  0  0  0  0  0  0  0  0  0  0  0
  -26.8190  -16.8600   19.9320 H   0  0  0  0  0  0  0  0  0  0  0  0
  -28.3350  -16.3470   19.3830 H   0  0  0  0  0  0  0  0  0  0  0  0
  -26.5100  -23.0880   18.7400 C   0  0  0  0  0  3  0  0  0  0  0  0
  -26.0680  -21.9300   17.9420 N   0  0  0  0  0  4  0  0  0  0  0  0
  -25.0670  -21.8910   17.8770 H   0  0  0  0  0  0  0  0  0  0  0  0
  -26.3910  -21.0770   18.3620 H   0  0  0  0  0  0  0  0  0  0  0  0
  -26.4400  -21.9680   17.0110 H   0  0  0  0  0  0  0  0  0  0  0  0
  -26.0970  -24.4090   18.0570 C   0  0  0  0  0  3  0  0  0  0  0  0
  -27.1270  -25.1410   17.1500 C   0  0  0  0  0  3  0  0  0  0  0  0
  -26.6190  -26.3020   16.4580 O   0  0  0  0  0  0  0  0  0  0  0  0
  -26.1000  -29.4350   22.8250 C   0  0  0  0  0  0  0  0  0  0  0  0
  -25.9640  -27.2130   17.2500 C   0  0  0  0  0  0  0  0  0  0  0  0
  -24.1510  -29.6730   21.3270 C   0  0  0  0  0  3  0  0  0  0  0  0
  -24.5330  -28.9950   18.9000 C   0  0  0  0  0  0  0  0  0  0  0  0
  -26.5090  -29.3750   20.3740 C   0  0  0  0  0  2  0  0  0  0  0  0
  -25.8740  -28.7030   19.1790 C   0  0  0  0  0  0  0  0  0  0  0  0
  -26.5960  -27.8010   18.3650 C   0  0  0  0  0  3  0  0  0  0  0  0
  -24.6400  -27.5850   16.9380 C   0  0  0  0  0  3  0  0  0  0  0  0
  -23.9060  -28.4350   17.7780 C   0  0  0  0  0  3  0  0  0  0  0  0
  -23.8210  -29.9430   19.8380 C   0  0  0  0  0  2  0  0  0  0  0  0
  -25.6170  -29.4630   21.5520 N   0  0  0  0  0  0  0  0  0  0  0  0
  -25.3520  -29.6080   23.7970 O   0  0  0  0  0  0  0  0  0  0  0  0
  -23.2810  -28.4970   21.8240 C   0  0  0  0  0  0  0  0  0  0  0  0
  -21.9560  -28.7120   21.8810 N   0  0  0  0  0  0  0  0  0  0  0  0
  -23.7930  -27.4160   22.1280 O   0  0  0  0  0  0  0  0  0  0  0  0
  -21.6120  -29.6260   21.6170 H   0  0  0  0  0  0  0  0  0  0  0  0
  -18.4020  -28.1290   22.0750 C   0  0  0  0  0  0  0  0  0  0  0  0
  -20.9450  -27.7390   22.2940 C   0  0  0  0  0  3  0  0  0  0  0  0
  -20.7670  -26.6350   21.2230 C   0  0  0  0  0  2  0  0  0  0  0  0
  -19.6460  -26.9310   20.2230 C   0  0  0  0  0  2  0  0  0  0  0  0
  -18.3110  -27.1220   20.9420 C   0  0  0  0  0  2  0  0  0  0  0  0
  -19.6400  -28.4280   22.7010 C   0  0  0  0  0  0  0  0  0  0  0  0
  -19.6760  -29.3950   23.7260 C   0  0  0  0  0  3  0  0  0  0  0  0
  -18.5020  -30.0550   24.1330 C   0  0  0  0  0  3  0  0  0  0  0  0
  -17.2730  -29.7440   23.5240 C   0  0  0  0  0  3  0  0  0  0  0  0
  -17.2270  -28.7820   22.5000 C   0  0  0  0  0  3  0  0  0  0  0  0
  -27.6150  -29.2020   23.1190 C   0  0  0  0  0  3  0  0  0  0  0  0
  -27.9920  -27.6790   23.2670 C   0  0  1  0  0  0  0  0  0  0  0  0
  -27.0950  -26.9130   24.2670 C   0  0  0  0  0  1  0  0  0  0  0  0
  -27.9060  -26.9570   21.9020 C   0  0  0  0  0  1  0  0  0  0  0  0
  -29.4590  -27.5470   23.7420 C   0  0  0  0  0  1  0  0  0  0  0  0
  -27.9470  -29.9450   24.3400 N   0  0  0  0  0  0  0  0  0  0  0  0
  -28.6630  -31.0770   24.3700 C   0  0  0  0  0  0  0  0  0  0  0  0
  -29.1810  -31.5690   23.3630 O   0  0  0  0  0  0  0  0  0  0  0  0
  -27.5190  -29.6290   25.1970 H   0  0  0  0  0  0  0  0  0  0  0  0
  -27.9020  -32.9950   25.8030 C   0  0  0  0  0  1  0  0  0  0  0  0
  -28.8300  -31.7720   25.7340 C   0  0  0  0  0  3  0  0  0  0  0  0
  -31.1240  -31.0580   26.2310 C   0  0  0  0  0  1  0  0  0  0  0  0
  -30.2210  -32.1850   26.0170 N   0  0  0  0  0  0  0  0  0  0  0  0
  -30.2610  -32.7820   26.8380 H   0  0  0  0  0  0  0  0  0  0  0  0
  1  3  1  0
  2  3  1  0
  3  5  1  0
  4 52  1  0
  4  2  1  0
  4  1  1  0
  5  6  1  0
  6  8  1  0
  7  5  2  0
  9  6  1  0
 10  9  1  0
 11 12  1  0
 11 10  1  0
 13 12  1  0
 13 22  1  0
 14 20  1  0
 14 22  1  0
 15 20  1  0
 16 17  1  0
 16 15  1  0
 18 17  1  0
 18 27  1  0
 18 19  1  0
 20 19  1  0
 21 14  2  0
 22 23  1  0
 24 25  2  0
 25 44  1  0
 26 25  1  0
 26 29  1  0
 27 28  1  0
 27 24  1  0
 28 26  2  0
 29 30  1  0
 30 31  2  0
 32 35  1  0
 32 31  1  0
 33 32  2  0
 34 33  1  0
 34 29  2  0
 35 36  1  0
 36 41  2  0
 36 37  1  0
 37 38  2  0
 38 39  1  0
 39 43  1  0
 40 39  2  0
 41 40  1  0
 42 41  1  0
 44 45  1  0
 45 48  1  0
 45 47  1  0
 46 44  2  0
 49 24  1  0
 49 50  1  0
 51 49  1  0
 52 57  1  0
 53 55  1  0
 53 52  1  0
 54 53  1  0
 56 53  1  0
 58 57  2  0
 59 58  1  0
 59 61  1  0
 60 71  2  0
 61 66  1  0
 62 70  1  0
 62 72  1  0
 63 65  1  0
 63 69  1  0
 64 70  1  0
 65 64  1  0
 66 65  2  0
 67 61  2  0
 67 68  1  0
 68 63  2  0
 69 62  1  0
 70 60  1  0
 72 73  1  0
 72 74  2  0
 75 73  1  0
 76 85  2  0
 76 81  1  0
 77 73  1  0
 77 81  1  0
 78 77  1  0
 79 80  1  0
 79 78  1  0
 80 76  1  0
 81 82  2  0
 82 83  1  0
 84 83  2  0
 85 84  1  0
 86 60  1  0
 86 87  1  0
 86 91  1  0
 87 90  1  1
 87 88  1  0
 89 87  1  0
 91 92  1  0
 91 94  1  0
 92 96  1  0
 93 92  2  0
 96 95  1  0
 96 98  1  0
 98 97  1  0
 98 99  1  0
M  ISO  4  14 100  22 100  58 101  59 101
M  END
>  <TORSDO>  (45) 
F 26

>  <SCORE>  (45) 
-7.035

>  <name>  (45) 
44

>  <ligand_id>  (45) 
44

>  <original_smiles>  (45) 
[H]c1c([H])c([H])c2c(c1[H])C([H])([H])C([H])([H])C([H])([H])C2([H])N([H])C(=O)C1([H])N(C(=O)C([H])(N([H])C(=O)C([H])(N([H])C([H])([H])[H])C([H])([H])[H])C(C([H])([H])[H])(C([H])([H])[H])C([H])([H])[H])C([H])([H])c2c([H])c(OC([H])([H])C([H])([H])C([H])(C3([H])C([H])([H])C([H])(C(=O)N([H])C([H])([H])C([H])([H])C([H])([H])C([H])([H])C([H])([H])N([H])C(=O)N4C([H])([H])C([H])([H])C([H])([H])C([H])(n5nc(-c6c([H])c([H])c(Oc7c([H])c([H])c(F)c([H])c7F)c([H])c6[H])c(C(=O)N([H])[H])c5N([H])[H])C4([H])[H])C3([H])[H])[N+]([H])([H])[H])c([H])c([H])c2C1([H])[H]

>  <smiles>  (45) 
[H]c1c([H])c([H])c2c(c1[H])C([H])([H])C([H])([H])C([H])([H])C2([H])N([H])C(=O)C1([H])N(C(=O)C([H])(N([H])C(=O)C([H])(N([H])C([H])([H])[H])C([H])([H])[H])C(C([H])([H])[H])(C([H])([H])[H])C([H])([H])[H])C([H])([H])c2c([H])c(OC([H])([H])C([H])([H])C([H])(C3([H])C([H])([H])C([H])(C(=O)N([H])C([H])([H])C([H])([H])C([H])([H])C([H])([H])C([H])([H])N([H])C(=O)N4C([H])([H])C([H])([H])C([H])([H])C([H])(n5nc(-c6c([H])c([H])c(Oc7c([H])c([H])c(F)c([H])c7F)c([H])c6[H])c(C(=O)N([H])[H])c5N([H])[H])C4([H])[H])C3([H])[H])[N+]([H])([H])[H])c([H])c([H])c2C1([H])[H]

$$$$
45:0:0
     RDKit          3D

 95103  0  0  1  0  0  0  0  0999 V2000
  -30.0110  -21.0550   22.1070 N   0  0  0  0  0  4  0  0  0  0  0  0
  -30.4370  -21.3690   21.2510 H   0  0  0  0  0  0  0  0  0  0  0  0
  -30.6220  -21.3320   22.8600 H   0  0  0  0  0  0  0  0  0  0  0  0
  -29.4150  -17.5330   20.6550 C   0  0  0  0  0  0  0  0  0  0  0  0
  -29.3540  -19.0560   20.7520 C   0  0  0  0  0  2  0  0  0  0  0  0
  -31.1660  -17.3980   22.4530 C   0  0  0  0  0  2  0  0  0  0  0  0
  -31.2690  -18.9350   22.4490 C   0  0  0  0  0  2  0  0  0  0  0  0
  -30.7450  -16.8750   21.0640 C   0  0  0  0  0  3  0  0  0  0  0  0
  -29.9060  -19.5760   22.1050 C   0  0  0  0  0  3  0  0  0  0  0  0
  -28.4370  -16.8960   20.2510 O   0  0  0  0  0  0  0  0  0  0  0  0
  -31.0530  -14.5810   20.1840 C   0  0  0  0  0  0  0  0  0  0  0  0
  -30.6320  -12.5070   18.9240 C   0  0  0  0  0  2  0  0  0  0  0  0
  -29.6230  -12.7860   17.7930 C   0  0  0  0  0  2  0  0  0  0  0  0
  -28.1750  -12.6470   18.3030 C   0  0  0  0  0  2  0  0  0  0  0  0
  -27.9270  -13.4410   19.6130 C   0  0  0  0  0  3  0  0  0  0  0  0
  -29.0350  -13.1400   20.6460 C   0  0  0  0  0  2  0  0  0  0  0  0
  -30.3430  -13.4340   20.0280 N   0  0  0  0  0  0  0  0  0  0  0  0
  -32.0490  -14.8650   19.5090 O   0  0  0  0  0  0  0  0  0  0  0  0
  -30.5580  -15.4270   21.0900 N   0  0  0  0  0  0  0  0  0  0  0  0
  -29.7340  -15.1020   21.5720 H   0  0  0  0  0  0  0  0  0  0  0  0
  -25.5730  -14.0550   20.4730 C   0  0  0  0  0  0  0  0  0  0  0  0
  -24.5170  -13.2820   20.8710 C   0  0  0  0  0  0  0  0  0  0  0  0
  -24.9530  -11.9270   20.7590 C   0  0  0  0  0  0  0  0  0  0  0  0
  -26.5940  -13.1710   20.1550 N   0  0  0  0  0  0  0  0  0  0  0  0
  -26.2230  -11.8830   20.3770 N   0  0  0  0  0  0  0  0  0  0  0  0
  -24.2210  -10.6680   20.9410 C   0  0  0  0  0  0  0  0  0  0  0  0
  -24.6410   -9.6960   21.8760 C   0  0  0  0  0  3  0  0  0  0  0  0
  -23.9090   -8.5010   22.0440 C   0  0  0  0  0  3  0  0  0  0  0  0
  -22.7420   -8.2700   21.2780 C   0  0  0  0  0  0  0  0  0  0  0  0
  -22.3420   -9.2290   20.3310 C   0  0  0  0  0  3  0  0  0  0  0  0
  -23.0760  -10.4150   20.1600 C   0  0  0  0  0  3  0  0  0  0  0  0
  -21.9830   -7.1270   21.3540 O   0  0  0  0  0  0  0  0  0  0  0  0
  -21.8250   -6.4460   22.5350 C   0  0  0  0  0  0  0  0  0  0  0  0
  -21.2650   -7.0560   23.6790 C   0  0  0  0  0  3  0  0  0  0  0  0
  -21.0560   -6.3000   24.8490 C   0  0  0  0  0  3  0  0  0  0  0  0
  -21.3960   -4.9340   24.8760 C   0  0  0  0  0  0  0  0  0  0  0  0
  -21.9490   -4.3230   23.7370 C   0  0  0  0  0  3  0  0  0  0  0  0
  -22.1590   -5.0770   22.5690 C   0  0  0  0  0  0  0  0  0  0  0  0
  -22.6710   -4.4790   21.4660 F   0  0  0  0  0  0  0  0  0  0  0  0
  -21.1900   -4.2040   25.9980 F   0  0  0  0  0  0  0  0  0  0  0  0
  -23.1460  -13.7650   21.2550 C   0  0  0  0  0  0  0  0  0  0  0  0
  -22.4750  -13.0540   22.1550 N   0  0  0  0  0  0  0  0  0  0  0  0
  -22.6830  -14.8070   20.7940 O   0  0  0  0  0  0  0  0  0  0  0  0
  -22.8590  -12.2070   22.5490 H   0  0  0  0  0  0  0  0  0  0  0  0
  -21.5600  -13.3610   22.4550 H   0  0  0  0  0  0  0  0  0  0  0  0
  -25.7500  -15.4290   20.3410 N   0  0  0  0  0  0  0  0  0  0  0  0
  -25.0030  -16.0970   20.4970 H   0  0  0  0  0  0  0  0  0  0  0  0
  -26.6500  -15.8750   20.1770 H   0  0  0  0  0  0  0  0  0  0  0  0
  -28.7350  -21.7720   22.3100 C   0  0  0  0  0  2  0  0  0  0  0  0
  -28.8280  -23.2370   21.8580 C   0  0  0  0  0  2  0  0  0  0  0  0
  -27.6280  -24.0690   22.3320 C   0  0  0  0  0  2  0  0  0  0  0  0
  -27.4870  -25.3950   21.5740 C   0  0  0  0  0  2  0  0  0  0  0  0
  -28.5780  -26.4530   21.8620 C   0  0  0  0  0  2  0  0  0  0  0  0
  -29.3590  -26.9630   20.6250 C   0  0  0  0  0  2  0  0  0  0  0  0
  -28.5650  -27.1540   19.4530 O   0  0  0  0  0  0  0  0  0  0  0  0
  -24.5690  -31.7890   23.1210 C   0  0  0  0  0  0  0  0  0  0  0  0
  -27.3980  -27.8680   19.5760 C   0  0  0  0  0  0  0  0  0  0  0  0
  -23.4100  -30.4960   21.3560 C   0  0  0  0  0  3  0  0  0  0  0  0
  -24.9200  -29.1920   19.7700 C   0  0  0  0  0  0  0  0  0  0  0  0
  -25.9010  -31.0250   21.1660 C   0  0  0  0  0  2  0  0  0  0  0  0
  -26.0530  -29.7300   20.3950 C   0  0  0  0  0  0  0  0  0  0  0  0
  -27.2970  -29.0730   20.3040 C   0  0  0  0  0  3  0  0  0  0  0  0
  -26.2570  -27.3470   18.9350 C   0  0  0  0  0  3  0  0  0  0  0  0
  -25.0140  -27.9950   19.0390 C   0  0  0  0  0  3  0  0  0  0  0  0
  -23.6290  -29.9620   19.9140 C   0  0  0  0  0  2  0  0  0  0  0  0
  -24.6460  -31.1100   21.9420 N   0  0  0  0  0  0  0  0  0  0  0  0
  -23.4840  -31.9480   23.6970 O   0  0  0  0  0  0  0  0  0  0  0  0
  -22.8250  -29.3550   22.2180 C   0  0  0  0  0  0  0  0  0  0  0  0
  -21.5050  -29.1390   22.1090 N   0  0  0  0  0  0  0  0  0  0  0  0
  -23.5550  -28.6690   22.9390 O   0  0  0  0  0  0  0  0  0  0  0  0
  -20.9760  -29.7450   21.4960 H   0  0  0  0  0  0  0  0  0  0  0  0
  -18.1930  -27.7750   22.5690 C   0  0  0  0  0  0  0  0  0  0  0  0
  -20.7470  -28.0960   22.7960 C   0  0  0  0  0  3  0  0  0  0  0  0
  -20.8800  -26.7420   22.0650 C   0  0  0  0  0  2  0  0  0  0  0  0
  -19.7570  -26.4860   21.0530 C   0  0  0  0  0  2  0  0  0  0  0  0
  -18.3930  -26.5130   21.7480 C   0  0  0  0  0  2  0  0  0  0  0  0
  -19.2980  -28.5260   23.0490 C   0  0  0  0  0  0  0  0  0  0  0  0
  -19.0570  -29.7100   23.7790 C   0  0  0  0  0  3  0  0  0  0  0  0
  -17.7430  -30.1400   24.0380 C   0  0  0  0  0  3  0  0  0  0  0  0
  -16.6510  -29.3850   23.5740 C   0  0  0  0  0  3  0  0  0  0  0  0
  -16.8770  -28.2040   22.8420 C   0  0  0  0  0  3  0  0  0  0  0  0
  -25.8310  -32.4220   23.7880 C   0  0  0  0  0  3  0  0  0  0  0  0
  -25.4990  -33.8080   24.1380 N   0  0  0  0  0  0  0  0  0  0  0  0
  -25.8210  -34.8770   23.3960 C   0  0  0  0  0  0  0  0  0  0  0  0
  -26.5040  -34.8010   22.3710 O   0  0  0  0  0  0  0  0  0  0  0  0
  -24.9010  -33.9470   24.9390 H   0  0  0  0  0  0  0  0  0  0  0  0
  -24.0650  -36.6430   23.0560 C   0  0  0  0  0  1  0  0  0  0  0  0
  -25.3070  -36.2500   23.8700 C   0  0  0  0  0  3  0  0  0  0  0  0
  -27.4180  -37.1630   24.7310 C   0  0  0  0  0  1  0  0  0  0  0  0
  -26.3200  -37.3230   23.7800 N   0  0  0  0  0  0  0  0  0  0  0  0
  -25.8930  -38.2310   23.9390 H   0  0  0  0  0  0  0  0  0  0  0  0
  -26.3340  -31.6260   25.0540 C   0  0  1  0  0  0  0  0  0  0  0  0
  -25.2260  -31.3630   26.1000 C   0  0  0  0  0  1  0  0  0  0  0  0
  -26.9290  -30.2560   24.6450 C   0  0  0  0  0  1  0  0  0  0  0  0
  -27.4710  -32.4130   25.7480 C   0  0  0  0  0  1  0  0  0  0  0  0
  1 49  1  0
  1  3  1  0
  2  1  1  0
  4  5  1  0
  4  8  1  0
  5  9  1  0
  7  6  1  0
  8 19  1  0
  8  6  1  0
  9  1  1  0
  9  7  1  0
 10  4  2  0
 11 19  1  0
 12 17  1  0
 13 14  1  0
 13 12  1  0
 15 14  1  0
 15 24  1  0
 15 16  1  0
 17 11  1  0
 17 16  1  0
 18 11  2  0
 19 20  1  0
 21 22  2  0
 22 41  1  0
 23 22  1  0
 23 26  1  0
 24 25  1  0
 24 21  1  0
 25 23  2  0
 26 27  1  0
 27 28  2  0
 29 32  1  0
 29 28  1  0
 30 29  2  0
 31 30  1  0
 31 26  2  0
 32 33  1  0
 33 38  2  0
 33 34  1  0
 34 35  2  0
 35 36  1  0
 36 40  1  0
 37 36  2  0
 38 37  1  0
 39 38  1  0
 41 42  1  0
 42 45  1  0
 42 44  1  0
 43 41  2  0
 46 21  1  0
 46 47  1  0
 48 46  1  0
 50 49  1  0
 50 51  1  0
 52 53  1  0
 52 51  1  0
 54 53  1  0
 55 57  1  0
 55 54  1  0
 56 67  2  0
 57 62  1  0
 58 66  1  0
 58 68  1  0
 59 65  1  0
 59 61  1  0
 60 66  1  0
 61 60  1  0
 62 61  2  0
 63 64  1  0
 63 57  2  0
 64 59  2  0
 65 58  1  0
 66 56  1  0
 68 70  2  0
 69 68  1  0
 71 69  1  0
 72 81  2  0
 72 77  1  0
 73 69  1  0
 73 77  1  0
 74 73  1  0
 75 76  1  0
 75 74  1  0
 76 72  1  0
 77 78  2  0
 78 79  1  0
 80 79  2  0
 81 80  1  0
 82 56  1  0
 82 83  1  0
 82 92  1  0
 83 86  1  0
 84 88  1  0
 84 83  1  0
 85 84  2  0
 88 87  1  0
 90 88  1  0
 90 91  1  0
 90 89  1  0
 92 95  1  1
 92 93  1  0
 94 92  1  0
M  ISO  4  11 100  19 100  54 101  55 101
M  END
>  <TORSDO>  (46) 
F 23

>  <SCORE>  (46) 
-11.134

>  <name>  (46) 
45

>  <ligand_id>  (46) 
45

>  <original_smiles>  (46) 
[H]c1c([H])c([H])c2c(c1[H])C([H])([H])C([H])([H])C([H])([H])C2([H])N([H])C(=O)C1([H])N(C(=O)C([H])(N([H])C(=O)C([H])(N([H])C([H])([H])[H])C([H])([H])[H])C(C([H])([H])[H])(C([H])([H])[H])C([H])([H])[H])C([H])([H])c2c([H])c(OC([H])([H])C([H])([H])C([H])([H])C([H])([H])C([H])([H])C([H])([H])[N+]([H])([H])C3([H])C([H])([H])C(=O)C([H])(N([H])C(=O)N4C([H])([H])C([H])([H])C([H])([H])C([H])(n5nc(-c6c([H])c([H])c(Oc7c([H])c([H])c(F)c([H])c7F)c([H])c6[H])c(C(=O)N([H])[H])c5N([H])[H])C4([H])[H])C([H])([H])C3([H])[H])c([H])c([H])c2C1([H])[H]

>  <smiles>  (46) 
[H]c1c([H])c([H])c2c(c1[H])C([H])([H])C([H])([H])C([H])([H])C2([H])N([H])C(=O)C1([H])N(C(=O)C([H])(N([H])C(=O)C([H])(N([H])C([H])([H])[H])C([H])([H])[H])C(C([H])([H])[H])(C([H])([H])[H])C([H])([H])[H])C([H])([H])c2c([H])c(OC([H])([H])C([H])([H])C([H])([H])C([H])([H])C([H])([H])C([H])([H])[N+]([H])([H])C3([H])C([H])([H])C(=O)C([H])(N([H])C(=O)N4C([H])([H])C([H])([H])C([H])([H])C([H])(n5nc(-c6c([H])c([H])c(Oc7c([H])c([H])c(F)c([H])c7F)c([H])c6[H])c(C(=O)N([H])[H])c5N([H])[H])C4([H])[H])C([H])([H])C3([H])[H])c([H])c([H])c2C1([H])[H]

$$$$
46:0:0
     RDKit          3D

 97105  0  0  1  0  0  0  0  0999 V2000
  -30.5110  -22.4910   23.5170 C   0  0  0  0  0  3  0  0  0  0  0  0
  -28.8770  -21.2550   22.2040 C   0  0  0  0  0  3  0  0  0  0  0  0
  -30.2010  -23.6610   22.7970 C   0  0  0  0  0  3  0  0  0  0  0  0
  -28.5570  -22.4290   21.4950 C   0  0  0  0  0  3  0  0  0  0  0  0
  -29.8860  -21.2730   23.1930 C   0  0  0  0  0  0  0  0  0  0  0  0
  -29.2310  -23.6400   21.7680 C   0  0  0  0  0  0  0  0  0  0  0  0
  -30.3590  -20.0130   23.8510 C   0  0  0  0  0  0  0  0  0  0  0  0
  -30.1870  -18.9220   23.1010 N   0  0  0  0  0  0  0  0  0  0  0  0
  -30.9890  -20.0290   24.9120 O   0  0  0  0  0  0  0  0  0  0  0  0
  -29.6440  -19.0510   22.2570 H   0  0  0  0  0  0  0  0  0  0  0  0
  -30.9330  -17.6770   23.2070 C   0  0  0  0  0  2  0  0  0  0  0  0
  -30.7940  -16.8750   21.9000 C   0  0  0  0  0  2  0  0  0  0  0  0
  -31.4450  -17.5350   20.6560 C   0  0  0  0  0  2  0  0  0  0  0  0
  -31.6500  -16.5850   19.4530 C   0  0  0  0  0  2  0  0  0  0  0  0
  -32.0360  -14.0950   19.4590 C   0  0  0  0  0  0  0  0  0  0  0  0
  -31.8130  -11.6440   19.3090 C   0  0  0  0  0  2  0  0  0  0  0  0
  -30.8590  -11.2610   18.1600 C   0  0  0  0  0  2  0  0  0  0  0  0
  -29.3840  -11.2960   18.6110 C   0  0  0  0  0  2  0  0  0  0  0  0
  -29.0220  -12.5990   19.3710 C   0  0  0  0  0  3  0  0  0  0  0  0
  -30.0680  -12.8830   20.4710 C   0  0  0  0  0  2  0  0  0  0  0  0
  -31.4000  -12.9540   19.8280 N   0  0  0  0  0  0  0  0  0  0  0  0
  -33.0760  -14.1230   18.7910 O   0  0  0  0  0  0  0  0  0  0  0  0
  -31.3990  -15.2040   19.8420 N   0  0  0  0  0  0  0  0  0  0  0  0
  -30.5590  -15.0490   20.3740 H   0  0  0  0  0  0  0  0  0  0  0  0
  -26.7690  -13.5680   20.1600 C   0  0  0  0  0  0  0  0  0  0  0  0
  -25.6220  -12.9650   20.6050 C   0  0  0  0  0  0  0  0  0  0  0  0
  -25.8860  -11.5610   20.5990 C   0  0  0  0  0  0  0  0  0  0  0  0
  -27.6680  -12.5400   19.9170 N   0  0  0  0  0  0  0  0  0  0  0  0
  -27.1390  -11.3310   20.2300 N   0  0  0  0  0  0  0  0  0  0  0  0
  -25.0020  -10.4210   20.8670 C   0  0  0  0  0  0  0  0  0  0  0  0
  -25.2710   -9.5050   21.9100 C   0  0  0  0  0  3  0  0  0  0  0  0
  -24.3950   -8.4270   22.1560 C   0  0  0  0  0  3  0  0  0  0  0  0
  -23.2370   -8.2550   21.3600 C   0  0  0  0  0  0  0  0  0  0  0  0
  -22.9880   -9.1560   20.3100 C   0  0  0  0  0  3  0  0  0  0  0  0
  -23.8630  -10.2250   20.0610 C   0  0  0  0  0  3  0  0  0  0  0  0
  -22.3430   -7.2230   21.5130 O   0  0  0  0  0  0  0  0  0  0  0  0
  -21.9150   -6.8180   22.7510 C   0  0  0  0  0  0  0  0  0  0  0  0
  -21.2780   -7.7050   23.6460 C   0  0  0  0  0  3  0  0  0  0  0  0
  -20.7910   -7.2300   24.8810 C   0  0  0  0  0  3  0  0  0  0  0  0
  -20.9300   -5.8700   25.2180 C   0  0  0  0  0  0  0  0  0  0  0  0
  -21.5580   -4.9850   24.3250 C   0  0  0  0  0  3  0  0  0  0  0  0
  -22.0460   -5.4570   23.0940 C   0  0  0  0  0  0  0  0  0  0  0  0
  -22.6300   -4.5940   22.2280 F   0  0  0  0  0  0  0  0  0  0  0  0
  -20.4550   -5.4130   26.4000 F   0  0  0  0  0  0  0  0  0  0  0  0
  -24.3200  -13.6410   20.9290 C   0  0  0  0  0  0  0  0  0  0  0  0
  -23.5340  -13.0640   21.8300 N   0  0  0  0  0  0  0  0  0  0  0  0
  -24.0150  -14.7170   20.4160 O   0  0  0  0  0  0  0  0  0  0  0  0
  -23.7890  -12.1940   22.2720 H   0  0  0  0  0  0  0  0  0  0  0  0
  -22.6600  -13.5030   22.0860 H   0  0  0  0  0  0  0  0  0  0  0  0
  -27.1110  -14.8970   19.9230 N   0  0  0  0  0  0  0  0  0  0  0  0
  -26.4410  -15.6500   20.0300 H   0  0  0  0  0  0  0  0  0  0  0  0
  -27.9940  -15.2030   19.5320 H   0  0  0  0  0  0  0  0  0  0  0  0
  -28.8950  -24.8700   20.9230 C   0  0  0  0  0  2  0  0  0  0  0  0
  -29.7840  -26.8660   22.2860 C   0  0  0  0  0  1  0  0  0  0  0  0
  -29.9000  -26.0450   20.9780 C   0  0  0  0  0  3  0  0  0  0  0  0
  -29.8340  -26.9390   19.7150 C   0  0  0  0  0  2  0  0  0  0  0  0
  -29.4320  -28.2660   20.0210 O   0  0  0  0  0  0  0  0  0  0  0  0
  -24.5520  -32.0510   23.4820 C   0  0  0  0  0  0  0  0  0  0  0  0
  -28.1050  -28.6160   20.0740 C   0  0  0  0  0  0  0  0  0  0  0  0
  -23.6850  -30.6300   21.6480 C   0  0  0  0  0  3  0  0  0  0  0  0
  -25.4470  -29.5700   20.1460 C   0  0  0  0  0  0  0  0  0  0  0  0
  -26.0840  -31.5060   21.5980 C   0  0  0  0  0  2  0  0  0  0  0  0
  -26.4550  -30.2550   20.8330 C   0  0  0  0  0  0  0  0  0  0  0  0
  -27.7810  -29.7830   20.7970 C   0  0  0  0  0  3  0  0  0  0  0  0
  -27.0740  -27.9230   19.3940 C   0  0  0  0  0  3  0  0  0  0  0  0
  -25.7500  -28.3980   19.4290 C   0  0  0  0  0  3  0  0  0  0  0  0
  -24.0560  -30.1560   20.2170 C   0  0  0  0  0  2  0  0  0  0  0  0
  -24.7880  -31.4060   22.3040 N   0  0  0  0  0  0  0  0  0  0  0  0
  -23.4270  -32.0440   23.9990 O   0  0  0  0  0  0  0  0  0  0  0  0
  -23.2320  -29.4040   22.4700 C   0  0  0  0  0  0  0  0  0  0  0  0
  -21.9840  -28.9630   22.2430 N   0  0  0  0  0  0  0  0  0  0  0  0
  -24.0010  -28.8520   23.2630 O   0  0  0  0  0  0  0  0  0  0  0  0
  -21.4140  -29.4780   21.5870 H   0  0  0  0  0  0  0  0  0  0  0  0
  -18.9390  -27.0240   22.3660 C   0  0  0  0  0  0  0  0  0  0  0  0
  -21.3530  -27.8020   22.8670 C   0  0  0  0  0  3  0  0  0  0  0  0
  -21.8090  -26.4890   22.1890 C   0  0  0  0  0  2  0  0  0  0  0  0
  -20.8710  -26.0330   21.0670 C   0  0  0  0  0  2  0  0  0  0  0  0
  -19.4540  -25.8130   21.6040 C   0  0  0  0  0  2  0  0  0  0  0  0
  -19.8320  -27.9640   22.9450 C   0  0  0  0  0  0  0  0  0  0  0  0
  -19.3020  -29.0900   23.6140 C   0  0  0  0  0  3  0  0  0  0  0  0
  -17.9130  -29.2820   23.7110 C   0  0  0  0  0  3  0  0  0  0  0  0
  -17.0330  -28.3390   23.1510 C   0  0  0  0  0  3  0  0  0  0  0  0
  -17.5470  -27.2120   22.4850 C   0  0  0  0  0  3  0  0  0  0  0  0
  -25.6750  -32.8450   24.2210 C   0  0  0  0  0  3  0  0  0  0  0  0
  -25.2000  -34.2230   24.3960 N   0  0  0  0  0  0  0  0  0  0  0  0
  -25.5780  -35.2600   23.6340 C   0  0  0  0  0  0  0  0  0  0  0  0
  -26.4280  -35.1630   22.7460 O   0  0  0  0  0  0  0  0  0  0  0  0
  -24.4580  -34.3650   25.0660 H   0  0  0  0  0  0  0  0  0  0  0  0
  -23.8110  -36.8680   22.8440 C   0  0  0  0  0  1  0  0  0  0  0  0
  -24.9020  -36.6190   23.8990 C   0  0  0  0  0  3  0  0  0  0  0  0
  -26.7740  -37.7240   25.0410 C   0  0  0  0  0  1  0  0  0  0  0  0
  -25.8490  -37.7550   23.9110 N   0  0  0  0  0  0  0  0  0  0  0  0
  -25.3510  -38.6410   23.9320 H   0  0  0  0  0  0  0  0  0  0  0  0
  -26.0760  -32.2110   25.6110 C   0  0  1  0  0  0  0  0  0  0  0  0
  -24.8670  -31.9350   26.5350 C   0  0  0  0  0  1  0  0  0  0  0  0
  -26.8330  -30.8790   25.4030 C   0  0  0  0  0  1  0  0  0  0  0  0
  -27.0420  -33.1570   26.3600 C   0  0  0  0  0  1  0  0  0  0  0  0
  2  5  2  0
  3  1  2  0
  4  6  2  0
  4  2  1  0
  5  1  1  0
  5  7  1  0
  6  3  1  0
  7  9  2  0
  8 11  1  0
  8  7  1  0
 10  8  1  0
 12 11  1  0
 13 12  1  0
 14 23  1  0
 14 13  1  0
 15 21  1  0
 15 23  1  0
 16 21  1  0
 17 18  1  0
 17 16  1  0
 19 18  1  0
 19 28  1  0
 19 20  1  0
 21 20  1  0
 22 15  2  0
 23 24  1  0
 25 26  2  0
 26 45  1  0
 27 26  1  0
 27 30  1  0
 28 25  1  0
 28 29  1  0
 29 27  2  0
 30 31  1  0
 31 32  2  0
 33 36  1  0
 33 32  1  0
 34 33  2  0
 35 34  1  0
 35 30  2  0
 36 37  1  0
 37 42  2  0
 37 38  1  0
 38 39  2  0
 39 40  1  0
 40 44  1  0
 41 40  2  0
 42 41  1  0
 43 42  1  0
 45 46  1  0
 46 49  1  0
 46 48  1  0
 47 45  2  0
 50 51  1  0
 50 25  1  0
 52 50  1  0
 53 55  1  0
 53  6  1  0
 55 54  1  0
 56 57  1  0
 56 55  1  0
 57 59  1  0
 58 69  2  0
 59 64  1  0
 60 68  1  0
 60 70  1  0
 61 67  1  0
 61 63  1  0
 62 68  1  0
 63 62  1  0
 64 63  2  0
 65 66  1  0
 65 59  2  0
 66 61  2  0
 67 60  1  0
 68 58  1  0
 70 72  2  0
 71 70  1  0
 73 71  1  0
 74 83  2  0
 74 79  1  0
 75 71  1  0
 75 79  1  0
 76 75  1  0
 77 78  1  0
 77 76  1  0
 78 74  1  0
 79 80  2  0
 80 81  1  0
 82 81  2  0
 83 82  1  0
 84 58  1  0
 84 85  1  0
 84 94  1  0
 85 88  1  0
 86 90  1  0
 86 85  1  0
 87 86  2  0
 90 89  1  0
 90 92  1  0
 92 93  1  0
 92 91  1  0
 94 97  1  1
 94 95  1  0
 96 94  1  0
M  ISO  4  15 100  23 100  56 101  57 101
M  END
>  <TORSDO>  (47) 
F 24

>  <SCORE>  (47) 
-5.284

>  <name>  (47) 
46

>  <ligand_id>  (47) 
46

>  <original_smiles>  (47) 
[H]c1c([H])c([H])c2c(c1[H])C([H])([H])C([H])([H])C([H])([H])C2([H])N([H])C(=O)C1([H])N(C(=O)C([H])(N([H])C(=O)C([H])(N([H])C([H])([H])[H])C([H])([H])[H])C(C([H])([H])[H])(C([H])([H])[H])C([H])([H])[H])C([H])([H])c2c([H])c(OC([H])([H])C([H])(C([H])([H])[H])C([H])([H])c3c([H])c([H])c(C(=O)N([H])C([H])([H])C([H])([H])C([H])([H])C([H])([H])N([H])C(=O)N4C([H])([H])C([H])([H])C([H])([H])C([H])(n5nc(-c6c([H])c([H])c(Oc7c([H])c([H])c(F)c([H])c7F)c([H])c6[H])c(C(=O)N([H])[H])c5N([H])[H])C4([H])[H])c([H])c3[H])c([H])c([H])c2C1([H])[H]

>  <smiles>  (47) 
[H]c1c([H])c([H])c2c(c1[H])C([H])([H])C([H])([H])C([H])([H])C2([H])N([H])C(=O)C1([H])N(C(=O)C([H])(N([H])C(=O)C([H])(N([H])C([H])([H])[H])C([H])([H])[H])C(C([H])([H])[H])(C([H])([H])[H])C([H])([H])[H])C([H])([H])c2c([H])c(OC([H])([H])C([H])(C([H])([H])[H])C([H])([H])c3c([H])c([H])c(C(=O)N([H])C([H])([H])C([H])([H])C([H])([H])C([H])([H])N([H])C(=O)N4C([H])([H])C([H])([H])C([H])([H])C([H])(n5nc(-c6c([H])c([H])c(Oc7c([H])c([H])c(F)c([H])c7F)c([H])c6[H])c(C(=O)N([H])[H])c5N([H])[H])C4([H])[H])c([H])c3[H])c([H])c([H])c2C1([H])[H]

$$$$
47:0:0
     RDKit          3D

 88 95  0  0  1  0  0  0  0  0999 V2000
  -28.9080  -22.5340   20.7470 C   0  0  0  0  0  3  0  0  0  0  0  0
  -28.5360  -23.8660   19.9390 C   0  0  0  0  0  3  0  0  0  0  0  0
  -28.2730  -25.1910   20.7910 C   0  0  0  0  0  2  0  0  0  0  0  0
  -28.3610  -26.5310   20.1740 O   0  0  0  0  0  0  0  0  0  0  0  0
  -24.6020  -31.8870   23.2390 C   0  0  0  0  0  0  0  0  0  0  0  0
  -27.2290  -27.3500   20.1910 C   0  0  0  0  0  0  0  0  0  0  0  0
  -23.4000  -30.4860   21.5980 C   0  0  0  0  0  3  0  0  0  0  0  0
  -24.8550  -28.9320   20.1800 C   0  0  0  0  0  0  0  0  0  0  0  0
  -25.9360  -30.8180   21.4090 C   0  0  0  0  0  2  0  0  0  0  0  0
  -26.0210  -29.4370   20.7680 C   0  0  0  0  0  0  0  0  0  0  0  0
  -27.2160  -28.6590   20.7590 C   0  0  0  0  0  3  0  0  0  0  0  0
  -26.0420  -26.8810   19.5940 C   0  0  0  0  0  3  0  0  0  0  0  0
  -24.8660  -27.6580   19.5850 C   0  0  0  0  0  3  0  0  0  0  0  0
  -23.6150  -29.8040   20.2210 C   0  0  0  0  0  2  0  0  0  0  0  0
  -24.6640  -31.0810   22.1390 N   0  0  0  0  0  0  0  0  0  0  0  0
  -23.5170  -32.1630   23.7740 O   0  0  0  0  0  0  0  0  0  0  0  0
  -22.7390  -29.4710   22.5590 C   0  0  0  0  0  0  0  0  0  0  0  0
  -21.4150  -29.2900   22.4310 N   0  0  0  0  0  0  0  0  0  0  0  0
  -23.4190  -28.8470   23.3790 O   0  0  0  0  0  0  0  0  0  0  0  0
  -20.9260  -29.8460   21.7420 H   0  0  0  0  0  0  0  0  0  0  0  0
  -18.0390  -28.0880   22.9210 C   0  0  0  0  0  0  0  0  0  0  0  0
  -20.5950  -28.3520   23.2000 C   0  0  0  0  0  3  0  0  0  0  0  0
  -20.7020  -26.9200   22.6260 C   0  0  0  0  0  2  0  0  0  0  0  0
  -19.6040  -26.5940   21.6080 C   0  0  0  0  0  2  0  0  0  0  0  0
  -18.2200  -26.7380   22.2470 C   0  0  0  0  0  2  0  0  0  0  0  0
  -19.1550  -28.8520   23.3530 C   0  0  0  0  0  0  0  0  0  0  0  0
  -18.9320  -30.1170   23.9430 C   0  0  0  0  0  3  0  0  0  0  0  0
  -17.6260  -30.6170   24.1030 C   0  0  0  0  0  3  0  0  0  0  0  0
  -16.5240  -29.8490   23.6880 C   0  0  0  0  0  3  0  0  0  0  0  0
  -16.7320  -28.5870   23.1020 C   0  0  0  0  0  3  0  0  0  0  0  0
  -25.8840  -32.5220   23.8620 C   0  0  0  0  0  3  0  0  0  0  0  0
  -26.3980  -31.7530   25.1400 C   0  0  1  0  0  0  0  0  0  0  0  0
  -25.3030  -31.5190   26.2070 C   0  0  0  0  0  1  0  0  0  0  0  0
  -26.9800  -30.3740   24.7520 C   0  0  0  0  0  1  0  0  0  0  0  0
  -27.5490  -32.5460   25.8030 C   0  0  0  0  0  1  0  0  0  0  0  0
  -25.5750  -33.9210   24.1880 N   0  0  0  0  0  0  0  0  0  0  0  0
  -25.9120  -34.9730   23.4300 C   0  0  0  0  0  0  0  0  0  0  0  0
  -26.5860  -34.8670   22.4010 O   0  0  0  0  0  0  0  0  0  0  0  0
  -24.9750  -34.0770   24.9860 H   0  0  0  0  0  0  0  0  0  0  0  0
  -24.1900  -36.7700   23.0620 C   0  0  0  0  0  1  0  0  0  0  0  0
  -25.4250  -36.3630   23.8830 C   0  0  0  0  0  3  0  0  0  0  0  0
  -27.5550  -37.2430   24.7300 C   0  0  0  0  0  1  0  0  0  0  0  0
  -26.4610  -37.4130   23.7780 N   0  0  0  0  0  0  0  0  0  0  0  0
  -26.0560  -38.3340   23.9210 H   0  0  0  0  0  0  0  0  0  0  0  0
  -28.9070  -21.0990   20.0300 C   0  0  0  0  0  2  0  0  0  0  0  0
  -31.2450  -20.1540   20.4920 C   0  0  0  0  0  1  0  0  0  0  0  0
  -29.7400  -19.9010   20.7030 C   0  0  0  0  0  3  0  0  0  0  0  0
  -29.3780  -18.3880   20.3470 C   0  0  0  0  0  0  0  0  0  0  0  0
  -28.3120  -18.1150   19.7910 O   0  0  0  0  0  0  0  0  0  0  0  0
  -30.3670  -17.2140   20.7290 C   0  0  0  0  0  2  0  0  0  0  0  0
  -30.6100  -14.6760   20.3680 C   0  0  0  0  0  0  0  0  0  0  0  0
  -30.3690  -12.4430   19.3050 C   0  0  0  0  0  2  0  0  0  0  0  0
  -29.4210  -12.5620   18.0930 C   0  0  0  0  0  2  0  0  0  0  0  0
  -27.9520  -12.4030   18.5350 C   0  0  0  0  0  2  0  0  0  0  0  0
  -27.5980  -13.2670   19.7760 C   0  0  0  0  0  3  0  0  0  0  0  0
  -28.6670  -13.1370   20.8820 C   0  0  0  0  0  2  0  0  0  0  0  0
  -29.9630  -13.4730   20.2810 N   0  0  0  0  0  0  0  0  0  0  0  0
  -31.7910  -14.7860   20.0320 O   0  0  0  0  0  0  0  0  0  0  0  0
  -29.8620  -15.7920   20.6380 N   0  0  0  0  0  0  0  0  0  0  0  0
  -28.8750  -15.6610   20.7990 H   0  0  0  0  0  0  0  0  0  0  0  0
  -25.2090  -13.8460   20.5150 C   0  0  0  0  0  0  0  0  0  0  0  0
  -24.1500  -13.0650   20.8910 C   0  0  0  0  0  0  0  0  0  0  0  0
  -24.6230  -11.7170   20.8580 C   0  0  0  0  0  0  0  0  0  0  0  0
  -26.2580  -12.9730   20.2730 N   0  0  0  0  0  0  0  0  0  0  0  0
  -25.9110  -11.6870   20.5420 N   0  0  0  0  0  0  0  0  0  0  0  0
  -23.9050  -10.4500   21.0510 C   0  0  0  0  0  0  0  0  0  0  0  0
  -24.3500   -9.4830   21.9790 C   0  0  0  0  0  3  0  0  0  0  0  0
  -23.6320   -8.2810   22.1600 C   0  0  0  0  0  3  0  0  0  0  0  0
  -22.4560   -8.0370   21.4120 C   0  0  0  0  0  0  0  0  0  0  0  0
  -22.0310   -8.9920   20.4730 C   0  0  0  0  0  3  0  0  0  0  0  0
  -22.7480  -10.1870   20.2900 C   0  0  0  0  0  3  0  0  0  0  0  0
  -21.7090   -6.8880   21.5030 O   0  0  0  0  0  0  0  0  0  0  0  0
  -21.6750   -6.1400   22.6530 C   0  0  0  0  0  0  0  0  0  0  0  0
  -21.2550   -6.6860   23.8850 C   0  0  0  0  0  3  0  0  0  0  0  0
  -21.1690   -5.8640   25.0270 C   0  0  0  0  0  3  0  0  0  0  0  0
  -21.4950   -4.4970   24.9380 C   0  0  0  0  0  0  0  0  0  0  0  0
  -21.9080   -3.9500   23.7100 C   0  0  0  0  0  3  0  0  0  0  0  0
  -21.9960   -4.7700   22.5700 C   0  0  0  0  0  0  0  0  0  0  0  0
  -22.3750   -4.2330   21.3850 F   0  0  0  0  0  0  0  0  0  0  0  0
  -21.4050   -3.7060   26.0320 F   0  0  0  0  0  0  0  0  0  0  0  0
  -22.7510  -13.5320   21.1680 C   0  0  0  0  0  0  0  0  0  0  0  0
  -22.0310  -12.8320   22.0360 N   0  0  0  0  0  0  0  0  0  0  0  0
  -22.3050  -14.5560   20.6510 O   0  0  0  0  0  0  0  0  0  0  0  0
  -22.4030  -12.0020   22.4750 H   0  0  0  0  0  0  0  0  0  0  0  0
  -21.0920  -13.1270   22.2640 H   0  0  0  0  0  0  0  0  0  0  0  0
  -25.3610  -15.2180   20.3350 N   0  0  0  0  0  0  0  0  0  0  0  0
  -24.5870  -15.8640   20.4510 H   0  0  0  0  0  0  0  0  0  0  0  0
  -26.1930  -15.6670   19.9710 H   0  0  0  0  0  0  0  0  0  0  0  0
  2  1  2  0
  2  3  1  0
  4  6  1  0
  4  3  1  0
  5 16  2  0
  6 11  1  0
  7 15  1  0
  7 17  1  0
  8 14  1  0
  8 10  1  0
  9 15  1  0
 10  9  1  0
 11 10  2  0
 12  6  2  0
 13 12  1  0
 13  8  2  0
 14  7  1  0
 15  5  1  0
 17 19  2  0
 18 17  1  0
 20 18  1  0
 21 30  2  0
 21 26  1  0
 22 18  1  0
 22 26  1  0
 23 22  1  0
 24 25  1  0
 24 23  1  0
 25 21  1  0
 26 27  2  0
 27 28  1  0
 29 28  2  0
 30 29  1  0
 31  5  1  0
 31 36  1  0
 31 32  1  0
 32 35  1  1
 32 33  1  0
 34 32  1  0
 36 39  1  0
 37 41  1  0
 37 36  1  0
 38 37  2  0
 41 40  1  0
 43 41  1  0
 43 44  1  0
 43 42  1  0
 45 47  1  0
 45  1  1  0
 47 46  1  0
 48 47  1  0
 48 50  1  0
 49 48  2  0
 51 59  1  0
 52 57  1  0
 53 54  1  0
 53 52  1  0
 55 54  1  0
 55 64  1  0
 55 56  1  0
 57 51  1  0
 57 56  1  0
 58 51  2  0
 59 50  1  0
 59 60  1  0
 61 62  2  0
 62 81  1  0
 63 62  1  0
 63 66  1  0
 64 61  1  0
 64 65  1  0
 65 63  2  0
 66 67  1  0
 67 68  2  0
 69 72  1  0
 69 68  1  0
 70 69  2  0
 71 70  1  0
 71 66  2  0
 72 73  1  0
 73 74  1  0
 74 75  2  0
 76 75  1  0
 76 80  1  0
 77 76  2  0
 78 73  2  0
 78 77  1  0
 79 78  1  0
 81 82  1  0
 82 85  1  0
 82 84  1  0
 83 81  2  0
 86 87  1  0
 86 61  1  0
 88 86  1  0
M  ISO  4   3 101   4 101  51 100  59 100
M  END
>  <TORSDO>  (48) 
F 22

>  <SCORE>  (48) 
-13.095

>  <name>  (48) 
47

>  <ligand_id>  (48) 
47

>  <original_smiles>  (48) 
[H]c1c([H])c([H])c2c(c1[H])C([H])([H])C([H])([H])C([H])([H])C2([H])N([H])C(=O)C1([H])N(C(=O)C([H])(N([H])C(=O)C([H])(N([H])C([H])([H])[H])C([H])([H])[H])C(C([H])([H])[H])(C([H])([H])[H])C([H])([H])[H])C([H])([H])c2c([H])c(OC([H])([H])C([H])([H])C([H])([H])C([H])([H])C([H])(C(=O)C([H])([H])N([H])C(=O)N3C([H])([H])C([H])([H])C([H])([H])C([H])(n4nc(-c5c([H])c([H])c(Oc6c([H])c([H])c(F)c([H])c6F)c([H])c5[H])c(C(=O)N([H])[H])c4N([H])[H])C3([H])[H])C([H])([H])[H])c([H])c([H])c2C1([H])[H]

>  <smiles>  (48) 
[H]c1c([H])c([H])c2c(c1[H])C([H])([H])C([H])([H])C([H])([H])C2([H])N([H])C(=O)C1([H])N(C(=O)C([H])(N([H])C(=O)C([H])(N([H])C([H])([H])[H])C([H])([H])[H])C(C([H])([H])[H])(C([H])([H])[H])C([H])([H])[H])C([H])([H])c2c([H])c(OC([H])([H])C([H])([H])C([H])([H])C([H])([H])C([H])(C(=O)C([H])([H])N([H])C(=O)N3C([H])([H])C([H])([H])C([H])([H])C([H])(n4nc(-c5c([H])c([H])c(Oc6c([H])c([H])c(F)c([H])c6F)c([H])c5[H])c(C(=O)N([H])[H])c4N([H])[H])C3([H])[H])C([H])([H])[H])c([H])c([H])c2C1([H])[H]

$$$$
48:0:0
     RDKit          3D

 96104  0  0  1  0  0  0  0  0999 V2000
  -30.2840  -21.7120   21.2380 C   0  0  0  0  0  3  0  0  0  0  0  0
  -31.6370  -19.5300   20.8780 C   0  0  0  0  0  2  0  0  0  0  0  0
  -29.2580  -19.1130   20.9340 C   0  0  0  0  0  2  0  0  0  0  0  0
  -30.3270  -20.1310   21.4400 C   0  0  0  0  0  3  0  0  0  0  0  0
  -31.2930  -18.2220   20.1460 C   0  0  0  0  0  3  0  0  0  0  0  0
  -30.0090  -17.7380   20.8490 C   0  0  0  0  0  3  0  0  0  0  0  0
  -32.5080  -17.2880   20.1320 C   0  0  0  0  0  1  0  0  0  0  0  0
  -29.1660  -16.5220   20.2870 C   0  0  0  0  0  2  0  0  0  0  0  0
  -30.5610  -14.3430   20.1840 C   0  0  0  0  0  0  0  0  0  0  0  0
  -30.2630  -12.0530   19.3230 C   0  0  0  0  0  2  0  0  0  0  0  0
  -29.3080  -12.0960   18.1150 C   0  0  0  0  0  2  0  0  0  0  0  0
  -27.8440  -11.9930   18.5840 C   0  0  0  0  0  2  0  0  0  0  0  0
  -27.5050  -12.9470   19.7620 C   0  0  0  0  0  3  0  0  0  0  0  0
  -28.5890  -12.9140   20.8610 C   0  0  0  0  0  2  0  0  0  0  0  0
  -29.8790  -13.1610   20.2120 N   0  0  0  0  0  0  0  0  0  0  0  0
  -31.7800  -14.3440   20.0130 O   0  0  0  0  0  0  0  0  0  0  0  0
  -29.9830  -15.5970   18.1740 C   0  0  0  0  0  1  0  0  0  0  0  0
  -29.8610  -15.3810   19.6250 N   0  0  0  0  0  0  0  0  0  0  0  0
  -25.1530  -13.5700   20.5800 C   0  0  0  0  0  0  0  0  0  0  0  0
  -24.0880  -12.8050   20.9700 C   0  0  0  0  0  0  0  0  0  0  0  0
  -24.5290  -11.4470   20.9060 C   0  0  0  0  0  0  0  0  0  0  0  0
  -26.1750  -12.6780   20.2990 N   0  0  0  0  0  0  0  0  0  0  0  0
  -25.8090  -11.3970   20.5600 N   0  0  0  0  0  0  0  0  0  0  0  0
  -23.7910  -10.1920   21.0970 C   0  0  0  0  0  0  0  0  0  0  0  0
  -24.2260   -9.2130   22.0180 C   0  0  0  0  0  3  0  0  0  0  0  0
  -23.4880   -8.0230   22.1970 C   0  0  0  0  0  3  0  0  0  0  0  0
  -22.3020   -7.8030   21.4560 C   0  0  0  0  0  0  0  0  0  0  0  0
  -21.8870   -8.7710   20.5260 C   0  0  0  0  0  3  0  0  0  0  0  0
  -22.6250   -9.9530   20.3440 C   0  0  0  0  0  3  0  0  0  0  0  0
  -21.5340   -6.6680   21.5470 O   0  0  0  0  0  0  0  0  0  0  0  0
  -21.4920   -5.9180   22.6950 C   0  0  0  0  0  0  0  0  0  0  0  0
  -21.0670   -6.4630   23.9260 C   0  0  0  0  0  3  0  0  0  0  0  0
  -20.9710   -5.6390   25.0650 C   0  0  0  0  0  3  0  0  0  0  0  0
  -21.2920   -4.2710   24.9750 C   0  0  0  0  0  0  0  0  0  0  0  0
  -21.7110   -3.7260   23.7490 C   0  0  0  0  0  3  0  0  0  0  0  0
  -21.8070   -4.5470   22.6120 C   0  0  0  0  0  0  0  0  0  0  0  0
  -22.1910   -4.0110   21.4280 F   0  0  0  0  0  0  0  0  0  0  0  0
  -21.1930   -3.4780   26.0680 F   0  0  0  0  0  0  0  0  0  0  0  0
  -22.7060  -13.2970   21.2900 C   0  0  0  0  0  0  0  0  0  0  0  0
  -21.9920  -12.5940   22.1640 N   0  0  0  0  0  0  0  0  0  0  0  0
  -22.2690  -14.3380   20.8030 O   0  0  0  0  0  0  0  0  0  0  0  0
  -22.3580  -11.7480   22.5770 H   0  0  0  0  0  0  0  0  0  0  0  0
  -21.0680  -12.9070   22.4250 H   0  0  0  0  0  0  0  0  0  0  0  0
  -25.3330  -14.9400   20.4180 N   0  0  0  0  0  0  0  0  0  0  0  0
  -24.5840  -15.6080   20.5640 H   0  0  0  0  0  0  0  0  0  0  0  0
  -26.1870  -15.3690   20.0800 H   0  0  0  0  0  0  0  0  0  0  0  0
  -30.9330  -22.3640   22.4070 N   0  0  0  0  0  4  0  0  0  0  0  0
  -30.9340  -23.3530   22.2160 H   0  0  0  0  0  0  0  0  0  0  0  0
  -30.3650  -22.2300   23.2290 H   0  0  0  0  0  0  0  0  0  0  0  0
  -32.4310  -21.0660   23.9280 C   0  0  0  0  0  1  0  0  0  0  0  0
  -32.3360  -22.0000   22.7100 C   0  0  0  0  0  2  0  0  0  0  0  0
  -27.8670  -22.2240   22.0020 C   0  0  0  0  0  1  0  0  0  0  0  0
  -28.9530  -22.4950   20.9400 C   0  0  0  0  0  3  0  0  0  0  0  0
  -29.2190  -24.0490   20.7630 C   0  0  0  0  0  2  0  0  0  0  0  0
  -28.0980  -24.9080   20.1110 C   0  0  0  0  0  2  0  0  0  0  0  0
  -28.3360  -26.3440   20.1530 O   0  0  0  0  0  0  0  0  0  0  0  0
  -24.5340  -31.6150   23.1160 C   0  0  0  0  0  0  0  0  0  0  0  0
  -27.2070  -27.1490   20.0630 C   0  0  0  0  0  0  0  0  0  0  0  0
  -23.3600  -30.2330   21.4380 C   0  0  0  0  0  3  0  0  0  0  0  0
  -24.8360  -28.7130   20.0180 C   0  0  0  0  0  0  0  0  0  0  0  0
  -25.8940  -30.5780   21.2970 C   0  0  0  0  0  2  0  0  0  0  0  0
  -25.9880  -29.2110   20.6400 C   0  0  0  0  0  0  0  0  0  0  0  0
  -27.1790  -28.4390   20.6560 C   0  0  0  0  0  3  0  0  0  0  0  0
  -26.0380  -26.6910   19.4100 C   0  0  0  0  0  3  0  0  0  0  0  0
  -24.8590  -27.4560   19.3940 C   0  0  0  0  0  3  0  0  0  0  0  0
  -23.5960  -29.5770   20.0520 C   0  0  0  0  0  2  0  0  0  0  0  0
  -24.6130  -30.8240   22.0080 N   0  0  0  0  0  0  0  0  0  0  0  0
  -23.4420  -31.8870   23.6350 O   0  0  0  0  0  0  0  0  0  0  0  0
  -22.6880  -29.2010   22.3720 C   0  0  0  0  0  0  0  0  0  0  0  0
  -21.3630  -29.0360   22.2300 N   0  0  0  0  0  0  0  0  0  0  0  0
  -23.3560  -28.5520   23.1820 O   0  0  0  0  0  0  0  0  0  0  0  0
  -20.8860  -29.6120   21.5480 H   0  0  0  0  0  0  0  0  0  0  0  0
  -17.9620  -27.9090   22.7100 C   0  0  0  0  0  0  0  0  0  0  0  0
  -20.5260  -28.0950   22.9720 C   0  0  0  0  0  3  0  0  0  0  0  0
  -20.5900  -26.6810   22.3490 C   0  0  0  0  0  2  0  0  0  0  0  0
  -19.4740  -26.4200   21.3310 C   0  0  0  0  0  2  0  0  0  0  0  0
  -18.1010  -26.5780   21.9890 C   0  0  0  0  0  2  0  0  0  0  0  0
  -19.1020  -28.6280   23.1570 C   0  0  0  0  0  0  0  0  0  0  0  0
  -18.9210  -29.8770   23.7900 C   0  0  0  0  0  3  0  0  0  0  0  0
  -17.6310  -30.4070   23.9800 C   0  0  0  0  0  3  0  0  0  0  0  0
  -16.5040  -29.6830   23.5510 C   0  0  0  0  0  3  0  0  0  0  0  0
  -16.6710  -28.4360   22.9210 C   0  0  0  0  0  3  0  0  0  0  0  0
  -25.8090  -32.2360   23.7680 C   0  0  0  0  0  3  0  0  0  0  0  0
  -25.5010  -33.6340   24.0950 N   0  0  0  0  0  0  0  0  0  0  0  0
  -25.8330  -34.6850   23.3350 C   0  0  0  0  0  0  0  0  0  0  0  0
  -26.5040  -34.5800   22.3050 O   0  0  0  0  0  0  0  0  0  0  0  0
  -24.9050  -33.7900   24.8960 H   0  0  0  0  0  0  0  0  0  0  0  0
  -24.0950  -36.4690   22.9910 C   0  0  0  0  0  1  0  0  0  0  0  0
  -25.3460  -36.0750   23.7900 C   0  0  0  0  0  3  0  0  0  0  0  0
  -27.4800  -36.9770   24.6000 C   0  0  0  0  0  1  0  0  0  0  0  0
  -26.3730  -37.1300   23.6590 N   0  0  0  0  0  0  0  0  0  0  0  0
  -25.9640  -38.0490   23.7990 H   0  0  0  0  0  0  0  0  0  0  0  0
  -26.2950  -31.4570   25.0520 C   0  0  1  0  0  0  0  0  0  0  0  0
  -25.1760  -31.2160   26.0920 C   0  0  0  0  0  1  0  0  0  0  0  0
  -26.8860  -30.0810   24.6640 C   0  0  0  0  0  1  0  0  0  0  0  0
  -27.4330  -32.2450   25.7450 C   0  0  0  0  0  1  0  0  0  0  0  0
  1 47  1  0
  2  4  1  0
  3  4  1  0
  4  1  1  0
  5  7  1  0
  5  6  1  0
  5  2  1  0
  6  8  1  0
  6  3  1  0
  9 15  1  0
 10 15  1  0
 11 12  1  0
 11 10  1  0
 13 12  1  0
 13 22  1  0
 13 14  1  0
 15 14  1  0
 16  9  2  0
 17 18  1  0
 18  9  1  0
 18  8  1  0
 19 20  2  0
 20 39  1  0
 21 20  1  0
 21 24  1  0
 22 23  1  0
 22 19  1  0
 23 21  2  0
 24 25  1  0
 25 26  2  0
 27 30  1  0
 27 26  1  0
 28 27  2  0
 29 28  1  0
 29 24  2  0
 30 31  1  0
 31 32  1  0
 32 33  2  0
 34 33  1  0
 34 38  1  0
 35 34  2  0
 36 31  2  0
 36 35  1  0
 37 36  1  0
 39 40  1  0
 40 43  1  0
 40 42  1  0
 41 39  2  0
 44 45  1  0
 44 19  1  0
 46 44  1  0
 47 51  1  0
 47 49  1  0
 48 47  1  0
 51 50  1  0
 53  1  1  0
 53 52  1  0
 54 53  1  0
 55 56  1  0
 55 54  1  0
 57 68  2  0
 58 56  1  0
 58 63  1  0
 59 67  1  0
 59 69  1  0
 60 66  1  0
 60 62  1  0
 61 67  1  0
 62 63  2  0
 62 61  1  0
 64 58  2  0
 65 64  1  0
 65 60  2  0
 66 59  1  0
 67 57  1  0
 69 71  2  0
 70 69  1  0
 72 70  1  0
 73 82  2  0
 73 78  1  0
 74 70  1  0
 74 78  1  0
 75 74  1  0
 76 77  1  0
 76 75  1  0
 77 73  1  0
 78 79  2  0
 79 80  1  0
 81 80  2  0
 82 81  1  0
 83 57  1  0
 83 84  1  0
 83 93  1  0
 84 87  1  0
 85 89  1  0
 85 84  1  0
 86 85  2  0
 89 88  1  0
 91 89  1  0
 91 92  1  0
 91 90  1  0
 93 96  1  1
 93 94  1  0
 95 93  1  0
M  ISO  4   9 100  18 100  55 101  56 101
M  END
>  <TORSDO>  (49) 
F 23

>  <SCORE>  (49) 
-10.874

>  <name>  (49) 
48

>  <ligand_id>  (49) 
48

>  <original_smiles>  (49) 
[H]c1c([H])c([H])c2c(c1[H])C([H])([H])C([H])([H])C([H])([H])C2([H])N([H])C(=O)C1([H])N(C(=O)C([H])(N([H])C(=O)C([H])(N([H])C([H])([H])[H])C([H])([H])[H])C(C([H])([H])[H])(C([H])([H])[H])C([H])([H])[H])C([H])([H])c2c([H])c(OC([H])([H])C([H])([H])C([H])(C([H])([H])[H])C([H])(C3([H])C([H])([H])C([H])(C([H])([H])[H])C([H])(C([H])([H])N(C(=O)N4C([H])([H])C([H])([H])C([H])([H])C([H])(n5nc(-c6c([H])c([H])c(Oc7c([H])c([H])c(F)c([H])c7F)c([H])c6[H])c(C(=O)N([H])[H])c5N([H])[H])C4([H])[H])C([H])([H])[H])C3([H])[H])[N+]([H])([H])C([H])([H])C([H])([H])[H])c([H])c([H])c2C1([H])[H]

>  <smiles>  (49) 
[H]c1c([H])c([H])c2c(c1[H])C([H])([H])C([H])([H])C([H])([H])C2([H])N([H])C(=O)C1([H])N(C(=O)C([H])(N([H])C(=O)C([H])(N([H])C([H])([H])[H])C([H])([H])[H])C(C([H])([H])[H])(C([H])([H])[H])C([H])([H])[H])C([H])([H])c2c([H])c(OC([H])([H])C([H])([H])C([H])(C([H])([H])[H])C([H])(C3([H])C([H])([H])C([H])(C([H])([H])[H])C([H])(C([H])([H])N(C(=O)N4C([H])([H])C([H])([H])C([H])([H])C([H])(n5nc(-c6c([H])c([H])c(Oc7c([H])c([H])c(F)c([H])c7F)c([H])c6[H])c(C(=O)N([H])[H])c5N([H])[H])C4([H])[H])C([H])([H])[H])C3([H])[H])[N+]([H])([H])C([H])([H])C([H])([H])[H])c([H])c([H])c2C1([H])[H]

$$$$
49:0:0
     RDKit          3D

100108  0  0  1  0  0  0  0  0999 V2000
  -28.9830  -20.8300   19.5300 C   0  0  0  0  0  3  0  0  0  0  0  0
  -29.5770  -22.0840   20.2680 C   0  0  0  0  0  2  0  0  0  0  0  0
  -28.6170  -23.2930   20.5520 C   0  0  0  0  0  2  0  0  0  0  0  0
  -28.8150  -24.6260   19.7510 C   0  0  0  0  0  2  0  0  0  0  0  0
  -28.0580  -25.8330   20.3890 C   0  0  0  0  0  2  0  0  0  0  0  0
  -28.1320  -27.0970   19.6780 O   0  0  0  0  0  0  0  0  0  0  0  0
  -24.4890  -32.0700   23.3070 C   0  0  0  0  0  0  0  0  0  0  0  0
  -26.9890  -27.8720   19.7770 C   0  0  0  0  0  0  0  0  0  0  0  0
  -23.2020  -30.7580   21.6530 C   0  0  0  0  0  3  0  0  0  0  0  0
  -24.5840  -29.3530   20.0310 C   0  0  0  0  0  0  0  0  0  0  0  0
  -25.7060  -31.1750   21.3210 C   0  0  0  0  0  2  0  0  0  0  0  0
  -25.7730  -29.8510   20.5820 C   0  0  0  0  0  0  0  0  0  0  0  0
  -26.9810  -29.1210   20.4480 C   0  0  0  0  0  3  0  0  0  0  0  0
  -25.7850  -27.4050   19.2060 C   0  0  0  0  0  3  0  0  0  0  0  0
  -24.5870  -28.1310   19.3380 C   0  0  0  0  0  3  0  0  0  0  0  0
  -23.3330  -30.1810   20.2190 C   0  0  0  0  0  2  0  0  0  0  0  0
  -24.4880  -31.3460   22.1510 N   0  0  0  0  0  0  0  0  0  0  0  0
  -23.4410  -32.2820   23.9320 O   0  0  0  0  0  0  0  0  0  0  0  0
  -22.6300  -29.6600   22.5800 C   0  0  0  0  0  0  0  0  0  0  0  0
  -21.3230  -29.3800   22.4440 N   0  0  0  0  0  0  0  0  0  0  0  0
  -23.3580  -29.0670   23.3790 O   0  0  0  0  0  0  0  0  0  0  0  0
  -20.7920  -29.9160   21.7720 H   0  0  0  0  0  0  0  0  0  0  0  0
  -18.0870  -27.8080   22.7850 C   0  0  0  0  0  0  0  0  0  0  0  0
  -20.5810  -28.3580   23.1830 C   0  0  0  0  0  3  0  0  0  0  0  0
  -20.8760  -26.9460   22.6280 C   0  0  0  0  0  2  0  0  0  0  0  0
  -19.8720  -26.4940   21.5640 C   0  0  0  0  0  2  0  0  0  0  0  0
  -18.4500  -26.4840   22.1350 C   0  0  0  0  0  2  0  0  0  0  0  0
  -19.0880  -28.6950   23.2640 C   0  0  0  0  0  0  0  0  0  0  0  0
  -18.6960  -29.9280   23.8280 C   0  0  0  0  0  3  0  0  0  0  0  0
  -17.3360  -30.2790   23.9200 C   0  0  0  0  0  3  0  0  0  0  0  0
  -16.3490  -29.3900   23.4600 C   0  0  0  0  0  3  0  0  0  0  0  0
  -16.7250  -28.1570   22.8980 C   0  0  0  0  0  3  0  0  0  0  0  0
  -25.8020  -32.6840   23.8850 C   0  0  0  0  0  3  0  0  0  0  0  0
  -26.3650  -31.8900   25.1270 C   0  0  1  0  0  0  0  0  0  0  0  0
  -25.3150  -31.6460   26.2350 C   0  0  0  0  0  1  0  0  0  0  0  0
  -26.9190  -30.5150   24.6890 C   0  0  0  0  0  1  0  0  0  0  0  0
  -27.5500  -32.6640   25.7520 C   0  0  0  0  0  1  0  0  0  0  0  0
  -25.5160  -34.0790   24.2460 N   0  0  0  0  0  0  0  0  0  0  0  0
  -25.8500  -35.1410   23.5020 C   0  0  0  0  0  0  0  0  0  0  0  0
  -26.5030  -35.0480   22.4580 O   0  0  0  0  0  0  0  0  0  0  0  0
  -24.9350  -34.2250   25.0590 H   0  0  0  0  0  0  0  0  0  0  0  0
  -24.1510  -36.9680   23.1920 C   0  0  0  0  0  1  0  0  0  0  0  0
  -25.3860  -36.5260   23.9910 C   0  0  0  0  0  3  0  0  0  0  0  0
  -27.5380  -37.3540   24.8340 C   0  0  0  0  0  1  0  0  0  0  0  0
  -26.4350  -37.5650   23.9000 N   0  0  0  0  0  0  0  0  0  0  0  0
  -26.0450  -38.4870   24.0750 H   0  0  0  0  0  0  0  0  0  0  0  0
  -28.5060  -21.2610   18.1110 C   0  0  0  0  0  2  0  0  0  0  0  0
  -29.6010  -21.7230   17.2350 N   0  0  0  0  0  4  0  0  0  0  0  0
  -30.0670  -22.5230   17.6250 H   0  0  0  0  0  0  0  0  0  0  0  0
  -29.2280  -21.9910   16.3400 H   0  0  0  0  0  0  0  0  0  0  0  0
  -30.2800  -20.9990   17.0810 H   0  0  0  0  0  0  0  0  0  0  0  0
  -29.8970  -19.5230   19.5490 C   0  0  0  0  0  3  0  0  0  0  0  0
  -31.0260  -19.6160   21.9790 C   0  0  0  0  0  2  0  0  0  0  0  0
  -31.5230  -18.2600   22.5070 C   0  0  0  0  0  3  0  0  0  0  0  0
  -30.1550  -18.8810   20.9470 C   0  0  0  0  0  3  0  0  0  0  0  0
  -31.1670  -17.6990   21.1170 C   0  0  0  0  0  3  0  0  0  0  0  0
  -31.3510  -15.1910   21.1100 C   0  0  0  0  0  0  0  0  0  0  0  0
  -31.2040  -12.7650   20.6680 C   0  0  0  0  0  2  0  0  0  0  0  0
  -30.4950  -12.5370   19.3180 C   0  0  0  0  0  2  0  0  0  0  0  0
  -28.9680  -12.4840   19.5080 C   0  0  0  0  0  2  0  0  0  0  0  0
  -28.4270  -13.6630   20.3620 C   0  0  0  0  0  3  0  0  0  0  0  0
  -29.2680  -13.8580   21.6440 C   0  0  0  0  0  2  0  0  0  0  0  0
  -30.6740  -14.0160   21.2370 N   0  0  0  0  0  0  0  0  0  0  0  0
  -32.5500  -15.2310   20.8230 O   0  0  0  0  0  0  0  0  0  0  0  0
  -30.6200  -16.3250   21.1890 N   0  0  0  0  0  0  0  0  0  0  0  0
  -29.6340  -16.2210   21.3720 H   0  0  0  0  0  0  0  0  0  0  0  0
  -26.0350  -14.4680   20.8510 C   0  0  0  0  0  0  0  0  0  0  0  0
  -24.8590  -13.7900   21.0340 C   0  0  0  0  0  0  0  0  0  0  0  0
  -25.1850  -12.4030   20.9390 C   0  0  0  0  0  0  0  0  0  0  0  0
  -27.0080  -13.4990   20.6640 N   0  0  0  0  0  0  0  0  0  0  0  0
  -26.4930  -12.2470   20.7740 N   0  0  0  0  0  0  0  0  0  0  0  0
  -24.3190  -11.2160   20.9380 C   0  0  0  0  0  0  0  0  0  0  0  0
  -24.5790  -10.1110   21.7790 C   0  0  0  0  0  3  0  0  0  0  0  0
  -23.7220   -8.9900   21.7740 C   0  0  0  0  0  3  0  0  0  0  0  0
  -22.5890   -8.9660   20.9260 C   0  0  0  0  0  0  0  0  0  0  0  0
  -22.3480  -10.0590   20.0740 C   0  0  0  0  0  3  0  0  0  0  0  0
  -23.2050  -11.1720   20.0770 C   0  0  0  0  0  3  0  0  0  0  0  0
  -21.7160   -7.9100   20.8360 O   0  0  0  0  0  0  0  0  0  0  0  0
  -21.5170   -7.0480   21.8850 C   0  0  0  0  0  0  0  0  0  0  0  0
  -21.0710   -7.4990   23.1460 C   0  0  0  0  0  3  0  0  0  0  0  0
  -20.8140   -6.5710   24.1750 C   0  0  0  0  0  3  0  0  0  0  0  0
  -20.9920   -5.1930   23.9420 C   0  0  0  0  0  0  0  0  0  0  0  0
  -21.4310   -4.7430   22.6850 C   0  0  0  0  0  3  0  0  0  0  0  0
  -21.6890   -5.6670   21.6590 C   0  0  0  0  0  0  0  0  0  0  0  0
  -22.0920   -5.2250   20.4430 F   0  0  0  0  0  0  0  0  0  0  0  0
  -20.7370   -4.3020   24.9290 F   0  0  0  0  0  0  0  0  0  0  0  0
  -23.4930  -14.3950   21.1890 C   0  0  0  0  0  0  0  0  0  0  0  0
  -22.6090  -13.7320   21.9260 N   0  0  0  0  0  0  0  0  0  0  0  0
  -23.2170  -15.4880   20.6960 O   0  0  0  0  0  0  0  0  0  0  0  0
  -22.8410  -12.8440   22.3480 H   0  0  0  0  0  0  0  0  0  0  0  0
  -21.6850  -14.1160   22.0690 H   0  0  0  0  0  0  0  0  0  0  0  0
  -26.3530  -15.8210   20.8070 N   0  0  0  0  0  0  0  0  0  0  0  0
  -25.6420  -16.5420   20.8700 H   0  0  0  0  0  0  0  0  0  0  0  0
  -27.2680  -16.1870   20.5820 H   0  0  0  0  0  0  0  0  0  0  0  0
  -30.8790  -17.6660   23.7640 C   0  0  0  0  0  2  0  0  0  0  0  0
  -29.7740  -18.1770   26.0050 C   0  0  0  0  0  1  0  0  0  0  0  0
  -30.7000  -18.6900   24.8950 C   0  0  0  0  0  2  0  0  0  0  0  0
  -29.4450  -18.3990   18.5730 C   0  0  0  0  0  2  0  0  0  0  0  0
  -27.9140  -16.4190   18.0750 C   0  0  0  0  0  1  0  0  0  0  0  0
  -28.2040  -17.5960   19.0120 C   0  0  0  0  0  2  0  0  0  0  0  0
  1 47  1  0
  1 52  1  0
  1  2  1  0
  2  3  1  0
  4  5  1  0
  4  3  1  0
  6  8  1  0
  6  5  1  0
  7 18  2  0
  8 13  1  0
  9 17  1  0
  9 19  1  0
 10 16  1  0
 10 12  1  0
 11 17  1  0
 12 11  1  0
 13 12  2  0
 14 15  1  0
 14  8  2  0
 15 10  2  0
 16  9  1  0
 17  7  1  0
 19 21  2  0
 20 19  1  0
 22 20  1  0
 23 32  2  0
 23 28  1  0
 24 20  1  0
 24 28  1  0
 25 24  1  0
 26 27  1  0
 26 25  1  0
 27 23  1  0
 28 29  2  0
 29 30  1  0
 31 30  2  0
 32 31  1  0
 33  7  1  0
 33 38  1  0
 33 34  1  0
 34 37  1  1
 34 35  1  0
 36 34  1  0
 38 41  1  0
 39 43  1  0
 39 38  1  0
 40 39  2  0
 43 42  1  0
 45 43  1  0
 45 46  1  0
 45 44  1  0
 48 49  1  0
 48 47  1  0
 50 48  1  0
 51 48  1  0
 52 98  1  0
 53 54  1  0
 54 95  1  0
 55 52  1  0
 55 56  1  0
 55 53  1  0
 56 65  1  0
 56 54  1  0
 57 65  1  0
 57 63  1  0
 58 63  1  0
 59 60  1  0
 59 58  1  0
 61 60  1  0
 61 70  1  0
 61 62  1  0
 63 62  1  0
 64 57  2  0
 65 66  1  0
 67 68  2  0
 68 87  1  0
 69 68  1  0
 70 71  1  0
 70 67  1  0
 71 69  2  0
 72 69  1  0
 72 73  1  0
 74 73  2  0
 75 74  1  0
 76 77  1  0
 76 75  2  0
 77 72  2  0
 78 75  1  0
 78 79  1  0
 79 80  1  0
 80 81  2  0
 82 81  1  0
 82 86  1  0
 83 82  2  0
 84 79  2  0
 84 83  1  0
 85 84  1  0
 87 88  1  0
 88 91  1  0
 88 90  1  0
 89 87  2  0
 92 67  1  0
 92 93  1  0
 94 92  1  0
 95 97  1  0
 97 96  1  0
 98100  1  0
 99100  1  0
M  ISO  4   5 101   6 101  57 100  65 100
M  END
>  <TORSDO>  (50) 
F 28

>  <SCORE>  (50) 
-4.871

>  <name>  (50) 
49

>  <ligand_id>  (50) 
49

>  <original_smiles>  (50) 
[H]c1c([H])c([H])c2c(c1[H])C([H])([H])C([H])([H])C([H])([H])C2([H])N([H])C(=O)C1([H])N(C(=O)C([H])(N([H])C(=O)C([H])(N([H])C([H])([H])[H])C([H])([H])[H])C(C([H])([H])[H])(C([H])([H])[H])C([H])([H])[H])C([H])([H])c2c([H])c(OC([H])([H])C([H])([H])C([H])([H])C([H])([H])C([H])(C([H])(C([H])([H])C([H])([H])C([H])([H])[H])C3([H])C([H])([H])C([H])(C([H])([H])C([H])([H])C([H])([H])[H])C3([H])N([H])C(=O)N3C([H])([H])C([H])([H])C([H])([H])C([H])(n4nc(-c5c([H])c([H])c(Oc6c([H])c([H])c(F)c([H])c6F)c([H])c5[H])c(C(=O)N([H])[H])c4N([H])[H])C3([H])[H])C([H])([H])[N+]([H])([H])[H])c([H])c([H])c2C1([H])[H]

>  <smiles>  (50) 
[H]c1c([H])c([H])c2c(c1[H])C([H])([H])C([H])([H])C([H])([H])C2([H])N([H])C(=O)C1([H])N(C(=O)C([H])(N([H])C(=O)C([H])(N([H])C([H])([H])[H])C([H])([H])[H])C(C([H])([H])[H])(C([H])([H])[H])C([H])([H])[H])C([H])([H])c2c([H])c(OC([H])([H])C([H])([H])C([H])([H])C([H])([H])C([H])(C([H])(C([H])([H])C([H])([H])C([H])([H])[H])C3([H])C([H])([H])C([H])(C([H])([H])C([H])([H])C([H])([H])[H])C3([H])N([H])C(=O)N3C([H])([H])C([H])([H])C([H])([H])C([H])(n4nc(-c5c([H])c([H])c(Oc6c([H])c([H])c(F)c([H])c6F)c([H])c5[H])c(C(=O)N([H])[H])c4N([H])[H])C3([H])[H])C([H])([H])[N+]([H])([H])[H])c([H])c([H])c2C1([H])[H]

$$$$
50:0:0
     RDKit          3D

 99107  0  0  1  0  0  0  0  0999 V2000
  -41.9880  -16.8630    7.2420 C   0  0  0  0  0  3  0  0  0  0  0  0
  -40.5960  -16.4890    6.6200 C   0  0  0  0  0  3  0  0  0  0  0  0
  -40.1060  -16.2640    4.0860 C   0  0  0  0  0  1  0  0  0  0  0  0
  -40.7190  -15.6210    5.3410 C   0  0  0  0  0  2  0  0  0  0  0  0
  -38.2110  -17.2810    5.8730 C   0  0  0  0  0  1  0  0  0  0  0  0
  -39.5740  -17.6690    6.4790 C   0  0  0  0  0  3  0  0  0  0  0  0
  -39.3210  -20.1660    5.8350 C   0  0  0  0  0  1  0  0  0  0  0  0
  -40.1840  -18.8980    5.7610 C   0  0  0  0  0  2  0  0  0  0  0  0
  -43.0480  -15.7190    7.1140 C   0  0  0  0  0  2  0  0  0  0  0  0
  -43.4660  -15.0420    8.4430 C   0  0  0  0  0  2  0  0  0  0  0  0
  -43.7690  -16.0410    9.5940 C   0  0  0  0  0  2  0  0  0  0  0  0
  -43.9460  -15.3590   10.9720 C   0  0  0  0  0  2  0  0  0  0  0  0
  -45.1100  -13.1190   10.7730 C   0  0  0  0  0  1  0  0  0  0  0  0
  -43.7570  -13.8170   11.0060 C   0  0  0  0  0  3  0  0  0  0  0  0
  -43.2260  -13.3930   12.2700 O   0  0  0  0  0  0  0  0  0  0  0  0
  -41.3340  -15.7270   18.7580 C   0  0  0  0  0  0  0  0  0  0  0  0
  -43.4630  -14.2210   13.3460 C   0  0  0  0  0  0  0  0  0  0  0  0
  -43.0380  -17.0710   17.5670 C   0  0  0  0  0  3  0  0  0  0  0  0
  -44.0330  -15.9940   15.4750 C   0  0  0  0  0  0  0  0  0  0  0  0
  -42.8100  -14.5640   17.1230 C   0  0  0  0  0  2  0  0  0  0  0  0
  -43.2900  -14.8310   15.7120 C   0  0  0  0  0  0  0  0  0  0  0  0
  -43.0040  -13.9420   14.6550 C   0  0  0  0  0  3  0  0  0  0  0  0
  -44.2250  -15.3860   13.1270 C   0  0  0  0  0  3  0  0  0  0  0  0
  -44.5050  -16.2780   14.1810 C   0  0  0  0  0  3  0  0  0  0  0  0
  -44.2900  -16.8940   16.6640 C   0  0  0  0  0  2  0  0  0  0  0  0
  -42.3340  -15.7740   17.8330 N   0  0  0  0  0  0  0  0  0  0  0  0
  -41.0230  -16.7290   19.4170 O   0  0  0  0  0  0  0  0  0  0  0  0
  -42.1230  -18.1450   16.9370 C   0  0  0  0  0  0  0  0  0  0  0  0
  -42.6660  -18.8960   15.9640 N   0  0  0  0  0  0  0  0  0  0  0  0
  -40.9510  -18.2710   17.3000 O   0  0  0  0  0  0  0  0  0  0  0  0
  -43.6350  -18.7340   15.7270 H   0  0  0  0  0  0  0  0  0  0  0  0
  -42.5240  -20.5230   12.7420 C   0  0  0  0  0  0  0  0  0  0  0  0
  -41.9830  -19.9390   15.2010 C   0  0  0  0  0  3  0  0  0  0  0  0
  -40.6180  -19.4390   14.6740 C   0  0  0  0  0  2  0  0  0  0  0  0
  -40.6940  -18.8550   13.2600 C   0  0  0  0  0  2  0  0  0  0  0  0
  -41.2190  -19.9020   12.2730 C   0  0  0  0  0  2  0  0  0  0  0  0
  -42.8910  -20.5250   14.1140 C   0  0  0  0  0  0  0  0  0  0  0  0
  -44.1330  -21.0820   14.4910 C   0  0  0  0  0  3  0  0  0  0  0  0
  -44.9970  -21.6330   13.5260 C   0  0  0  0  0  3  0  0  0  0  0  0
  -44.6240  -21.6420   12.1720 C   0  0  0  0  0  3  0  0  0  0  0  0
  -43.3880  -21.0920   11.7830 C   0  0  0  0  0  3  0  0  0  0  0  0
  -40.5490  -14.4090   19.0490 C   0  0  0  0  0  3  0  0  0  0  0  0
  -39.0650  -14.4370   18.5140 C   0  0  1  0  0  0  0  0  0  0  0  0
  -38.4570  -15.8570   18.4450 C   0  0  0  0  0  1  0  0  0  0  0  0
  -38.9840  -13.8210   17.0960 C   0  0  0  0  0  1  0  0  0  0  0  0
  -38.1610  -13.5730   19.4250 C   0  0  0  0  0  1  0  0  0  0  0  0
  -40.5760  -14.1900   20.5010 N   0  0  0  0  0  0  0  0  0  0  0  0
  -41.0280  -13.0770   21.0930 C   0  0  0  0  0  0  0  0  0  0  0  0
  -41.4060  -12.0870   20.4610 O   0  0  0  0  0  0  0  0  0  0  0  0
  -40.3360  -14.9800   21.0810 H   0  0  0  0  0  0  0  0  0  0  0  0
  -42.4920  -13.3880   23.1130 C   0  0  0  0  0  1  0  0  0  0  0  0
  -41.0690  -13.0600   22.6320 C   0  0  0  0  0  3  0  0  0  0  0  0
  -39.1800  -11.5910   23.1780 C   0  0  0  0  0  1  0  0  0  0  0  0
  -40.6270  -11.7760   23.2210 N   0  0  0  0  0  0  0  0  0  0  0  0
  -40.9270  -11.7030   24.1890 H   0  0  0  0  0  0  0  0  0  0  0  0
  -41.8890  -17.3490    8.7280 C   0  0  0  0  0  2  0  0  0  0  0  0
  -37.1140  -15.9090    8.6060 C   0  0  0  0  0  0  0  0  0  0  0  0
  -34.9040  -16.6780    7.8240 C   0  0  0  0  0  2  0  0  0  0  0  0
  -35.0590  -17.7090    6.6910 C   0  0  0  0  0  2  0  0  0  0  0  0
  -35.2140  -19.1280    7.2670 C   0  0  0  0  0  2  0  0  0  0  0  0
  -36.2840  -19.2020    8.3880 C   0  0  0  0  0  3  0  0  0  0  0  0
  -36.0920  -18.0720    9.4230 C   0  0  0  0  0  2  0  0  0  0  0  0
  -36.0790  -16.7860    8.7050 N   0  0  0  0  0  0  0  0  0  0  0  0
  -37.0830  -14.9180    7.8670 O   0  0  0  0  0  0  0  0  0  0  0  0
  -40.8070  -16.0930   10.6960 C   0  0  0  0  0  2  0  0  0  0  0  0
  -38.4600  -15.2440   10.4540 C   0  0  0  0  0  2  0  0  0  0  0  0
  -39.4560  -16.4930    8.6090 C   0  0  0  0  0  2  0  0  0  0  0  0
  -39.4970  -15.8050   11.4410 C   0  0  0  0  0  3  0  0  0  0  0  0
  -40.5790  -17.0560    9.5210 C   0  0  0  0  0  3  0  0  0  0  0  0
  -39.7310  -14.8560   12.6240 C   0  0  0  0  0  1  0  0  0  0  0  0
  -38.2140  -16.1790    9.3490 N   0  0  0  0  0  0  0  0  0  0  0  0
  -37.2670  -21.0950    9.8260 C   0  0  0  0  0  0  0  0  0  0  0  0
  -36.8260  -22.3630   10.0970 C   0  0  0  0  0  0  0  0  0  0  0  0
  -35.5770  -22.4990    9.4170 C   0  0  0  0  0  0  0  0  0  0  0  0
  -36.2980  -20.5180    9.0210 N   0  0  0  0  0  0  0  0  0  0  0  0
  -35.2510  -21.3600    8.8210 N   0  0  0  0  0  0  0  0  0  0  0  0
  -34.7010  -23.6670    9.2520 C   0  0  0  0  0  0  0  0  0  0  0  0
  -35.2250  -24.9510    8.9810 C   0  0  0  0  0  3  0  0  0  0  0  0
  -34.3610  -26.0540    8.8090 C   0  0  0  0  0  3  0  0  0  0  0  0
  -32.9620  -25.8810    8.9040 C   0  0  0  0  0  0  0  0  0  0  0  0
  -32.4480  -24.6050    9.1990 C   0  0  0  0  0  3  0  0  0  0  0  0
  -33.3070  -23.5070    9.3740 C   0  0  0  0  0  3  0  0  0  0  0  0
  -32.0480  -26.8990    8.7770 O   0  0  0  0  0  0  0  0  0  0  0  0
  -30.7130  -26.6490    8.5790 C   0  0  0  0  0  0  0  0  0  0  0  0
  -29.9230  -26.0080    9.5570 C   0  0  0  0  0  3  0  0  0  0  0  0
  -28.5400  -25.8300    9.3430 C   0  0  0  0  0  3  0  0  0  0  0  0
  -27.9450  -26.3020    8.1570 C   0  0  0  0  0  0  0  0  0  0  0  0
  -28.7300  -26.9460    7.1830 C   0  0  0  0  0  3  0  0  0  0  0  0
  -30.1090  -27.1210    7.3960 C   0  0  0  0  0  0  0  0  0  0  0  0
  -30.8560  -27.7610    6.4640 F   0  0  0  0  0  0  0  0  0  0  0  0
  -26.6180  -26.1410    7.9540 F   0  0  0  0  0  0  0  0  0  0  0  0
  -37.5640  -23.4200   10.8630 C   0  0  0  0  0  0  0  0  0  0  0  0
  -37.1720  -23.6600   12.1110 N   0  0  0  0  0  0  0  0  0  0  0  0
  -38.5260  -24.0110   10.3760 O   0  0  0  0  0  0  0  0  0  0  0  0
  -36.3930  -23.1610   12.5170 H   0  0  0  0  0  0  0  0  0  0  0  0
  -37.6540  -24.3530   12.6640 H   0  0  0  0  0  0  0  0  0  0  0  0
  -38.4150  -20.3910   10.1780 N   0  0  0  0  0  0  0  0  0  0  0  0
  -39.1550  -20.7990   10.7380 H   0  0  0  0  0  0  0  0  0  0  0  0
  -38.6130  -19.4420    9.8870 H   0  0  0  0  0  0  0  0  0  0  0  0
  1  9  1  0
  1 56  1  0
  2  4  1  0
  2  1  1  0
  3  4  1  0
  6  5  1  0
  6  2  1  0
  8  7  1  0
  8  6  1  0
  9 10  1  0
 10 11  1  0
 11 12  1  0
 12 14  1  0
 14 13  1  0
 14 15  1  0
 15 17  1  0
 16 27  2  0
 17 22  1  0
 18 28  1  0
 18 26  1  0
 19 21  1  0
 19 25  1  0
 20 26  1  0
 21 20  1  0
 22 21  2  0
 23 17  2  0
 23 24  1  0
 24 19  2  0
 25 18  1  0
 26 16  1  0
 28 30  2  0
 29 28  1  0
 31 29  1  0
 32 37  1  0
 33 29  1  0
 34 33  1  0
 35 34  1  0
 36 32  1  0
 36 35  1  0
 37 38  2  0
 37 33  1  0
 39 38  1  0
 40 39  2  0
 41 40  1  0
 41 32  2  0
 42 16  1  0
 42 47  1  0
 43 42  1  0
 43 46  1  1
 44 43  1  0
 45 43  1  0
 47 50  1  0
 47 48  1  0
 48 52  1  0
 49 48  2  0
 52 51  1  0
 52 54  1  0
 53 54  1  0
 54 55  1  0
 57 63  1  0
 57 71  1  0
 58 63  1  0
 59 60  1  0
 59 58  1  0
 61 60  1  0
 61 75  1  0
 61 62  1  0
 63 62  1  0
 64 57  2  0
 65 68  1  0
 66 68  1  0
 67 71  1  0
 67 69  1  0
 68 70  1  0
 69 56  1  0
 69 65  1  0
 71 66  1  0
 72 73  2  0
 72 97  1  0
 73 92  1  0
 74 73  1  0
 75 72  1  0
 76 75  1  0
 76 74  2  0
 77 82  1  0
 77 74  1  0
 78 77  2  0
 79 80  2  0
 79 78  1  0
 80 81  1  0
 81 82  2  0
 83 80  1  0
 84 83  1  0
 84 85  1  0
 86 85  2  0
 87 86  1  0
 88 89  1  0
 88 87  2  0
 89 84  2  0
 90 89  1  0
 91 87  1  0
 92 93  1  0
 93 95  1  0
 93 96  1  0
 94 92  2  0
 97 98  1  0
 99 97  1  0
M  ISO  4  14 101  15 101  57 100  71 100
M  END
>  <TORSDO>  (51) 
F 26

>  <SCORE>  (51) 
-0.367

>  <name>  (51) 
50

>  <ligand_id>  (51) 
50

>  <original_smiles>  (51) 
[H]c1c([H])c([H])c2c(c1[H])C([H])([H])C([H])([H])C([H])([H])C2([H])N([H])C(=O)C1([H])N(C(=O)C([H])(N([H])C(=O)C([H])(N([H])C([H])([H])[H])C([H])([H])[H])C(C([H])([H])[H])(C([H])([H])[H])C([H])([H])[H])C([H])([H])c2c([H])c(OC([H])(C([H])([H])[H])C([H])([H])C([H])([H])C([H])([H])C([H])([H])C([H])(C([H])([H])C3([H])C([H])([H])N(C(=O)N4C([H])([H])C([H])([H])C([H])([H])C([H])(n5nc(-c6c([H])c([H])c(Oc7c([H])c([H])c(F)c([H])c7F)c([H])c6[H])c(C(=O)N([H])[H])c5N([H])[H])C4([H])[H])C([H])([H])C([H])(C([H])([H])[H])C3([H])[H])C([H])(C([H])([H])C([H])([H])[H])C([H])(C([H])([H])[H])C([H])([H])C([H])([H])[H])c([H])c([H])c2C1([H])[H]

>  <smiles>  (51) 
[H]c1c([H])c([H])c2c(c1[H])C([H])([H])C([H])([H])C([H])([H])C2([H])N([H])C(=O)C1([H])N(C(=O)C([H])(N([H])C(=O)C([H])(N([H])C([H])([H])[H])C([H])([H])[H])C(C([H])([H])[H])(C([H])([H])[H])C([H])([H])[H])C([H])([H])c2c([H])c(OC([H])(C([H])([H])[H])C([H])([H])C([H])([H])C([H])([H])C([H])([H])C([H])(C([H])([H])C3([H])C([H])([H])N(C(=O)N4C([H])([H])C([H])([H])C([H])([H])C([H])(n5nc(-c6c([H])c([H])c(Oc7c([H])c([H])c(F)c([H])c7F)c([H])c6[H])c(C(=O)N([H])[H])c5N([H])[H])C4([H])[H])C([H])([H])C([H])(C([H])([H])[H])C3([H])[H])C([H])(C([H])([H])C([H])([H])[H])C([H])(C([H])([H])[H])C([H])([H])C([H])([H])[H])c([H])c([H])c2C1([H])[H]

$$$$
51:0:0
     RDKit          3D

 92 99  0  0  1  0  0  0  0  0999 V2000
  -26.3230  -23.4020   20.4320 C   0  0  0  0  0  2  0  0  0  0  0  0
  -27.5810  -21.3140   19.8700 C   0  0  0  0  0  0  0  0  0  0  0  0
  -26.7730  -22.0300   20.6590 N   0  0  0  0  0  0  0  0  0  0  0  0
  -28.1780  -21.7950   18.9050 O   0  0  0  0  0  0  0  0  0  0  0  0
  -26.3450  -21.5430   21.4360 H   0  0  0  0  0  0  0  0  0  0  0  0
  -27.6760  -19.8210   20.1900 C   0  0  0  0  0  2  0  0  0  0  0  0
  -29.0860  -19.2210   20.0270 C   0  0  0  0  0  2  0  0  0  0  0  0
  -29.0950  -17.7260   20.3880 C   0  0  0  0  0  2  0  0  0  0  0  0
  -30.4880  -17.0750   20.3440 C   0  0  0  0  0  2  0  0  0  0  0  0
  -31.0720  -14.6670   20.0780 C   0  0  0  0  0  0  0  0  0  0  0  0
  -30.8480  -12.3910   19.1650 C   0  0  0  0  0  2  0  0  0  0  0  0
  -29.8840  -12.4310   17.9610 C   0  0  0  0  0  2  0  0  0  0  0  0
  -28.4170  -12.3040   18.4240 C   0  0  0  0  0  2  0  0  0  0  0  0
  -28.0690  -13.2740   19.5850 C   0  0  0  0  0  3  0  0  0  0  0  0
  -29.1360  -13.1810   20.6980 C   0  0  0  0  0  2  0  0  0  0  0  0
  -30.4540  -13.4580   20.0950 N   0  0  0  0  0  0  0  0  0  0  0  0
  -32.1340  -14.8870   19.4880 O   0  0  0  0  0  0  0  0  0  0  0  0
  -30.3600  -15.6510   20.6390 N   0  0  0  0  0  0  0  0  0  0  0  0
  -29.5330  -15.3600   21.1370 H   0  0  0  0  0  0  0  0  0  0  0  0
  -25.7090  -13.9280   20.3860 C   0  0  0  0  0  0  0  0  0  0  0  0
  -24.6360  -13.1730   20.7790 C   0  0  0  0  0  0  0  0  0  0  0  0
  -25.0630  -11.8120   20.7070 C   0  0  0  0  0  0  0  0  0  0  0  0
  -26.7250  -13.0270   20.1020 N   0  0  0  0  0  0  0  0  0  0  0  0
  -26.3390  -11.7480   20.3500 N   0  0  0  0  0  0  0  0  0  0  0  0
  -24.3160  -10.5630   20.9010 C   0  0  0  0  0  0  0  0  0  0  0  0
  -24.7020   -9.6190   21.8780 C   0  0  0  0  0  3  0  0  0  0  0  0
  -23.9590   -8.4320   22.0590 C   0  0  0  0  0  3  0  0  0  0  0  0
  -22.8170   -8.1810   21.2620 C   0  0  0  0  0  0  0  0  0  0  0  0
  -22.4510   -9.1130   20.2750 C   0  0  0  0  0  3  0  0  0  0  0  0
  -23.1940  -10.2920   20.0930 C   0  0  0  0  0  3  0  0  0  0  0  0
  -22.0510   -7.0440   21.3490 O   0  0  0  0  0  0  0  0  0  0  0  0
  -21.8610   -6.3930   22.5410 C   0  0  0  0  0  0  0  0  0  0  0  0
  -21.2820   -7.0360   23.6570 C   0  0  0  0  0  3  0  0  0  0  0  0
  -21.0420   -6.3090   24.8400 C   0  0  0  0  0  3  0  0  0  0  0  0
  -21.3710   -4.9420   24.9080 C   0  0  0  0  0  0  0  0  0  0  0  0
  -21.9430   -4.2990   23.7960 C   0  0  0  0  0  3  0  0  0  0  0  0
  -22.1850   -5.0230   22.6150 C   0  0  0  0  0  0  0  0  0  0  0  0
  -22.7170   -4.3950   21.5390 F   0  0  0  0  0  0  0  0  0  0  0  0
  -21.1320   -4.2420   26.0410 F   0  0  0  0  0  0  0  0  0  0  0  0
  -23.2610  -13.6760   21.1140 C   0  0  0  0  0  0  0  0  0  0  0  0
  -22.5550  -12.9850   22.0030 N   0  0  0  0  0  0  0  0  0  0  0  0
  -22.8210  -14.7140   20.6210 O   0  0  0  0  0  0  0  0  0  0  0  0
  -22.9220  -12.1450   22.4260 H   0  0  0  0  0  0  0  0  0  0  0  0
  -21.6340  -13.3020   22.2690 H   0  0  0  0  0  0  0  0  0  0  0  0
  -25.9010  -15.2980   20.2280 N   0  0  0  0  0  0  0  0  0  0  0  0
  -25.1510  -15.9660   20.3680 H   0  0  0  0  0  0  0  0  0  0  0  0
  -26.7470  -15.7170   19.8650 H   0  0  0  0  0  0  0  0  0  0  0  0
  -27.1420  -24.1020   22.7570 C   0  0  0  0  0  1  0  0  0  0  0  0
  -27.0960  -24.4520   21.2590 C   0  0  0  0  0  3  0  0  0  0  0  0
  -28.5040  -24.7360   20.6900 C   0  0  0  0  0  2  0  0  0  0  0  0
  -28.9900  -26.1880   20.8720 C   0  0  0  0  0  2  0  0  0  0  0  0
  -28.6290  -26.9850   19.7450 O   0  0  0  0  0  0  0  0  0  0  0  0
  -24.7080  -31.8180   23.2180 C   0  0  0  0  0  0  0  0  0  0  0  0
  -27.4450  -27.6670   19.8560 C   0  0  0  0  0  0  0  0  0  0  0  0
  -23.5240  -30.4890   21.4970 C   0  0  0  0  0  3  0  0  0  0  0  0
  -25.0080  -29.0770   19.9750 C   0  0  0  0  0  0  0  0  0  0  0  0
  -26.0360  -30.9270   21.3100 C   0  0  0  0  0  2  0  0  0  0  0  0
  -26.1510  -29.5980   20.5970 C   0  0  0  0  0  0  0  0  0  0  0  0
  -27.3730  -28.8950   20.5460 C   0  0  0  0  0  3  0  0  0  0  0  0
  -26.2970  -27.1610   19.2150 C   0  0  0  0  0  3  0  0  0  0  0  0
  -25.0730  -27.8520   19.2880 C   0  0  0  0  0  3  0  0  0  0  0  0
  -23.7420  -29.8950   20.0790 C   0  0  0  0  0  2  0  0  0  0  0  0
  -24.7740  -31.0900   22.0670 N   0  0  0  0  0  0  0  0  0  0  0  0
  -23.6250  -32.0290   23.7810 O   0  0  0  0  0  0  0  0  0  0  0  0
  -22.9060  -29.3960   22.3970 C   0  0  0  0  0  0  0  0  0  0  0  0
  -21.5890  -29.1800   22.2540 N   0  0  0  0  0  0  0  0  0  0  0  0
  -23.6080  -28.7480   23.1790 O   0  0  0  0  0  0  0  0  0  0  0  0
  -21.0840  -29.7560   21.5960 H   0  0  0  0  0  0  0  0  0  0  0  0
  -18.2560  -27.8480   22.6660 C   0  0  0  0  0  0  0  0  0  0  0  0
  -20.8020  -28.1740   22.9670 C   0  0  0  0  0  3  0  0  0  0  0  0
  -20.9550  -26.7810   22.3140 C   0  0  0  0  0  2  0  0  0  0  0  0
  -19.8690  -26.4770   21.2790 C   0  0  0  0  0  2  0  0  0  0  0  0
  -18.4790  -26.5440   21.9210 C   0  0  0  0  0  2  0  0  0  0  0  0
  -19.3470  -28.6220   23.1440 C   0  0  0  0  0  0  0  0  0  0  0  0
  -19.0850  -29.8440   23.8000 C   0  0  0  0  0  3  0  0  0  0  0  0
  -17.7640  -30.2940   23.9850 C   0  0  0  0  0  3  0  0  0  0  0  0
  -16.6880  -29.5170   23.5220 C   0  0  0  0  0  3  0  0  0  0  0  0
  -16.9340  -28.2970   22.8690 C   0  0  0  0  0  3  0  0  0  0  0  0
  -25.9850  -32.4380   23.8660 C   0  0  0  0  0  3  0  0  0  0  0  0
  -25.6620  -33.8210   24.2420 N   0  0  0  0  0  0  0  0  0  0  0  0
  -25.9880  -34.9010   23.5200 C   0  0  0  0  0  0  0  0  0  0  0  0
  -26.6650  -34.8380   22.4890 O   0  0  0  0  0  0  0  0  0  0  0  0
  -25.0610  -33.9430   25.0440 H   0  0  0  0  0  0  0  0  0  0  0  0
  -24.2430  -36.6860   23.2100 C   0  0  0  0  0  1  0  0  0  0  0  0
  -25.4810  -36.2680   24.0180 C   0  0  0  0  0  3  0  0  0  0  0  0
  -27.5960  -37.1490   24.9010 C   0  0  0  0  0  1  0  0  0  0  0  0
  -26.5040  -37.3340   23.9500 N   0  0  0  0  0  0  0  0  0  0  0  0
  -26.0860  -38.2450   24.1200 H   0  0  0  0  0  0  0  0  0  0  0  0
  -26.5080  -31.6260   25.1140 C   0  0  1  0  0  0  0  0  0  0  0  0
  -25.4160  -31.3360   26.1690 C   0  0  0  0  0  1  0  0  0  0  0  0
  -27.1060  -30.2710   24.6710 C   0  0  0  0  0  1  0  0  0  0  0  0
  -27.6480  -32.4090   25.8090 C   0  0  0  0  0  1  0  0  0  0  0  0
  1  3  1  0
  1 49  1  0
  2  6  1  0
  2  3  1  0
  3  5  1  0
  4  2  2  0
  7  6  1  0
  7  8  1  0
  9  8  1  0
  9 18  1  0
 10 16  1  0
 10 18  1  0
 11 16  1  0
 12 13  1  0
 12 11  1  0
 14 13  1  0
 14 23  1  0
 14 15  1  0
 16 15  1  0
 17 10  2  0
 18 19  1  0
 20 21  2  0
 21 40  1  0
 22 21  1  0
 22 25  1  0
 23 24  1  0
 23 20  1  0
 24 22  2  0
 25 26  1  0
 26 27  2  0
 28 31  1  0
 28 27  1  0
 29 28  2  0
 30 29  1  0
 30 25  2  0
 31 32  1  0
 32 37  2  0
 32 33  1  0
 33 34  2  0
 34 35  1  0
 35 39  1  0
 36 35  2  0
 37 36  1  0
 38 37  1  0
 40 41  1  0
 41 44  1  0
 41 43  1  0
 42 40  2  0
 45 46  1  0
 45 20  1  0
 47 45  1  0
 49 48  1  0
 50 51  1  0
 50 49  1  0
 52 54  1  0
 52 51  1  0
 53 64  2  0
 54 59  1  0
 55 63  1  0
 55 65  1  0
 56 62  1  0
 56 58  1  0
 57 63  1  0
 58 57  1  0
 59 58  2  0
 60 61  1  0
 60 54  2  0
 61 56  2  0
 62 55  1  0
 63 53  1  0
 65 67  2  0
 66 65  1  0
 68 66  1  0
 69 78  2  0
 69 74  1  0
 70 66  1  0
 70 74  1  0
 71 70  1  0
 72 73  1  0
 72 71  1  0
 73 69  1  0
 74 75  2  0
 75 76  1  0
 77 76  2  0
 78 77  1  0
 79 53  1  0
 79 80  1  0
 79 89  1  0
 80 83  1  0
 81 85  1  0
 81 80  1  0
 82 81  2  0
 85 84  1  0
 87 85  1  0
 87 88  1  0
 87 86  1  0
 89 92  1  1
 89 90  1  0
 91 89  1  0
M  ISO  4  10 100  18 100  51 101  52 101
M  END
>  <TORSDO>  (52) 
F 24

>  <SCORE>  (52) 
-11.092

>  <name>  (52) 
51

>  <ligand_id>  (52) 
51

>  <original_smiles>  (52) 
[H]c1c([H])c([H])c2c(c1[H])C([H])([H])C([H])([H])C([H])([H])C2([H])N([H])C(=O)C1([H])N(C(=O)C([H])(N([H])C(=O)C([H])(N([H])C([H])([H])[H])C([H])([H])[H])C(C([H])([H])[H])(C([H])([H])[H])C([H])([H])[H])C([H])([H])c2c([H])c(OC([H])([H])C([H])([H])C([H])(C([H])([H])[H])C([H])([H])N([H])C(=O)C([H])([H])C([H])([H])C([H])([H])C([H])([H])N([H])C(=O)N3C([H])([H])C([H])([H])C([H])([H])C([H])(n4nc(-c5c([H])c([H])c(Oc6c([H])c([H])c(F)c([H])c6F)c([H])c5[H])c(C(=O)N([H])[H])c4N([H])[H])C3([H])[H])c([H])c([H])c2C1([H])[H]

>  <smiles>  (52) 
[H]c1c([H])c([H])c2c(c1[H])C([H])([H])C([H])([H])C([H])([H])C2([H])N([H])C(=O)C1([H])N(C(=O)C([H])(N([H])C(=O)C([H])(N([H])C([H])([H])[H])C([H])([H])[H])C(C([H])([H])[H])(C([H])([H])[H])C([H])([H])[H])C([H])([H])c2c([H])c(OC([H])([H])C([H])([H])C([H])(C([H])([H])[H])C([H])([H])N([H])C(=O)C([H])([H])C([H])([H])C([H])([H])C([H])([H])N([H])C(=O)N3C([H])([H])C([H])([H])C([H])([H])C([H])(n4nc(-c5c([H])c([H])c(Oc6c([H])c([H])c(F)c([H])c6F)c([H])c5[H])c(C(=O)N([H])[H])c4N([H])[H])C3([H])[H])c([H])c([H])c2C1([H])[H]

$$$$
52:0:0
     RDKit          3D

 97105  0  0  1  0  0  0  0  0999 V2000
  -32.0990  -21.4180   23.0800 C   0  0  0  0  0  2  0  0  0  0  0  0
  -32.3390  -19.0370   22.5020 C   0  0  0  0  0  2  0  0  0  0  0  0
  -31.0590  -21.5690   21.9650 C   0  0  0  0  0  2  0  0  0  0  0  0
  -31.1870  -19.1230   21.4590 C   0  0  0  0  0  3  0  0  0  0  0  0
  -33.1180  -20.3410   22.7020 C   0  0  0  0  0  3  0  0  0  0  0  0
  -30.2940  -20.3160   21.6770 N   0  0  2  0  0  4  0  0  0  0  0  0
  -29.7480  -20.0790   22.4930 H   0  0  0  0  0  0  0  0  0  0  0  0
  -30.3620  -17.8040   21.5670 C   0  0  0  0  0  0  0  0  0  0  0  0
  -29.1450  -17.7360   21.3580 O   0  0  0  0  0  0  0  0  0  0  0  0
  -31.1300  -16.5540   22.0320 C   0  0  0  0  0  2  0  0  0  0  0  0
  -31.0300  -14.2770   21.0580 C   0  0  0  0  0  0  0  0  0  0  0  0
  -31.2050  -11.8200   21.0590 C   0  0  0  0  0  2  0  0  0  0  0  0
  -30.6770  -11.1620   19.7740 C   0  0  0  0  0  2  0  0  0  0  0  0
  -29.1630  -10.9120   19.8790 C   0  0  0  0  0  2  0  0  0  0  0  0
  -28.3850  -12.1750   20.3310 C   0  0  0  0  0  3  0  0  0  0  0  0
  -29.0370  -12.8220   21.5750 C   0  0  0  0  0  2  0  0  0  0  0  0
  -30.4630  -13.0670   21.2930 N   0  0  0  0  0  0  0  0  0  0  0  0
  -32.1080  -14.4260   20.4770 O   0  0  0  0  0  0  0  0  0  0  0  0
  -30.4550  -15.2910   21.7090 N   0  0  0  0  0  0  0  0  0  0  0  0
  -29.5800  -15.1030   22.1760 H   0  0  0  0  0  0  0  0  0  0  0  0
  -25.8500  -12.6300   20.2620 C   0  0  0  0  0  0  0  0  0  0  0  0
  -24.7730  -11.8610   20.6120 C   0  0  0  0  0  0  0  0  0  0  0  0
  -25.3080  -10.6350   21.1120 C   0  0  0  0  0  0  0  0  0  0  0  0
  -26.9720  -11.8720   20.5600 N   0  0  0  0  0  0  0  0  0  0  0  0
  -26.6350  -10.6830   21.1230 N   0  0  0  0  0  0  0  0  0  0  0  0
  -24.6360   -9.3960   21.5270 C   0  0  0  0  0  0  0  0  0  0  0  0
  -24.4640   -9.0700   22.8900 C   0  0  0  0  0  3  0  0  0  0  0  0
  -23.7970   -7.8830   23.2640 C   0  0  0  0  0  3  0  0  0  0  0  0
  -23.2930   -7.0100   22.2710 C   0  0  0  0  0  0  0  0  0  0  0  0
  -23.4880   -7.3280   20.9150 C   0  0  0  0  0  3  0  0  0  0  0  0
  -24.1560   -8.5070   20.5450 C   0  0  0  0  0  3  0  0  0  0  0  0
  -22.6570   -5.8220   22.5390 O   0  0  0  0  0  0  0  0  0  0  0  0
  -21.6240   -5.7470   23.4390 C   0  0  0  0  0  0  0  0  0  0  0  0
  -20.4470   -6.5110   23.2890 C   0  0  0  0  0  3  0  0  0  0  0  0
  -19.3820   -6.3510   24.1990 C   0  0  0  0  0  3  0  0  0  0  0  0
  -19.4880   -5.4230   25.2520 C   0  0  0  0  0  0  0  0  0  0  0  0
  -20.6580   -4.6570   25.4000 C   0  0  0  0  0  3  0  0  0  0  0  0
  -21.7220   -4.8170   24.4940 C   0  0  0  0  0  0  0  0  0  0  0  0
  -22.8380   -4.0600   24.6290 F   0  0  0  0  0  0  0  0  0  0  0  0
  -18.4630   -5.2630   26.1210 F   0  0  0  0  0  0  0  0  0  0  0  0
  -23.3250  -12.2030   20.4060 C   0  0  0  0  0  0  0  0  0  0  0  0
  -22.4570  -11.7700   21.3140 N   0  0  0  0  0  0  0  0  0  0  0  0
  -22.9610  -12.9010   19.4600 O   0  0  0  0  0  0  0  0  0  0  0  0
  -22.7600  -11.2140   22.1010 H   0  0  0  0  0  0  0  0  0  0  0  0
  -21.4770  -11.9960   21.2210 H   0  0  0  0  0  0  0  0  0  0  0  0
  -25.9710  -13.8990   19.7030 N   0  0  0  0  0  0  0  0  0  0  0  0
  -25.1650  -14.4510   19.4320 H   0  0  0  0  0  0  0  0  0  0  0  0
  -26.8520  -14.3410   19.4700 H   0  0  0  0  0  0  0  0  0  0  0  0
  -35.3740  -21.1740   23.6340 C   0  0  0  0  0  1  0  0  0  0  0  0
  -34.2270  -20.1630   23.7600 C   0  0  0  0  0  2  0  0  0  0  0  0
  -29.3130  -20.5780   20.5750 C   0  0  0  0  0  2  0  0  0  0  0  0
  -28.1700  -21.5250   21.0160 C   0  0  0  0  0  2  0  0  0  0  0  0
  -27.4430  -22.2210   19.8490 C   0  0  0  0  0  2  0  0  0  0  0  0
  -26.4150  -23.2580   20.3430 C   0  0  0  0  0  2  0  0  0  0  0  0
  -25.9360  -24.2400   19.2540 C   0  0  0  0  0  2  0  0  0  0  0  0
  -25.0070  -25.3170   19.8350 C   0  0  0  0  0  2  0  0  0  0  0  0
  -24.8790  -26.4380   18.9590 O   0  0  0  0  0  0  0  0  0  0  0  0
  -24.1500  -30.9050   24.4390 C   0  0  0  0  0  0  0  0  0  0  0  0
  -24.1650  -27.4690   19.5190 C   0  0  0  0  0  0  0  0  0  0  0  0
  -22.2340  -30.7860   22.8790 C   0  0  0  0  0  3  0  0  0  0  0  0
  -22.6660  -29.5520   20.6890 C   0  0  0  0  0  0  0  0  0  0  0  0
  -24.6110  -30.3130   22.0640 C   0  0  0  0  0  2  0  0  0  0  0  0
  -24.0100  -29.3720   21.0420 C   0  0  0  0  0  0  0  0  0  0  0  0
  -24.7680  -28.3360   20.4540 C   0  0  0  0  0  3  0  0  0  0  0  0
  -22.8140  -27.6650   19.1630 C   0  0  0  0  0  3  0  0  0  0  0  0
  -22.0610  -28.7000   19.7480 C   0  0  0  0  0  3  0  0  0  0  0  0
  -21.9280  -30.6880   21.3600 C   0  0  0  0  0  2  0  0  0  0  0  0
  -23.6950  -30.6500   23.1800 N   0  0  0  0  0  0  0  0  0  0  0  0
  -23.3820  -31.2910   25.3310 O   0  0  0  0  0  0  0  0  0  0  0  0
  -21.3570  -29.7550   23.6260 C   0  0  0  0  0  0  0  0  0  0  0  0
  -20.0450  -29.7650   23.3370 N   0  0  0  0  0  0  0  0  0  0  0  0
  -21.8580  -28.9560   24.4220 O   0  0  0  0  0  0  0  0  0  0  0  0
  -19.7120  -30.4580   22.6810 H   0  0  0  0  0  0  0  0  0  0  0  0
  -16.6560  -28.5870   22.9170 C   0  0  0  0  0  0  0  0  0  0  0  0
  -19.0360  -28.8620   23.8880 C   0  0  0  0  0  3  0  0  0  0  0  0
  -19.2800  -27.4060   23.4310 C   0  0  0  0  0  2  0  0  0  0  0  0
  -18.5050  -27.0320   22.1640 C   0  0  0  0  0  2  0  0  0  0  0  0
  -17.0000  -27.2060   22.3840 C   0  0  0  0  0  2  0  0  0  0  0  0
  -17.6160  -29.3700   23.6100 C   0  0  0  0  0  0  0  0  0  0  0  0
  -17.2570  -30.6610   24.0550 C   0  0  0  0  0  3  0  0  0  0  0  0
  -15.9640  -31.1680   23.8210 C   0  0  0  0  0  3  0  0  0  0  0  0
  -15.0130  -30.3830   23.1480 C   0  0  0  0  0  3  0  0  0  0  0  0
  -15.3570  -29.0940   22.7010 C   0  0  0  0  0  3  0  0  0  0  0  0
  -25.6580  -30.7500   24.8120 C   0  0  0  0  0  3  0  0  0  0  0  0
  -25.9210  -29.6260   25.8890 C   0  0  1  0  0  0  0  0  0  0  0  0
  -24.9520  -29.6780   27.0930 C   0  0  0  0  0  1  0  0  0  0  0  0
  -25.8050  -28.2220   25.2480 C   0  0  0  0  0  1  0  0  0  0  0  0
  -27.3640  -29.7460   26.4320 C   0  0  0  0  0  1  0  0  0  0  0  0
  -26.1290  -32.0540   25.2960 N   0  0  0  0  0  0  0  0  0  0  0  0
  -26.9170  -32.8830   24.5990 C   0  0  0  0  0  0  0  0  0  0  0  0
  -27.3870  -32.5930   23.4950 O   0  0  0  0  0  0  0  0  0  0  0  0
  -25.7420  -32.3800   26.1700 H   0  0  0  0  0  0  0  0  0  0  0  0
  -26.3810  -35.3400   24.5510 C   0  0  0  0  0  1  0  0  0  0  0  0
  -27.2340  -34.2550   25.2260 C   0  0  0  0  0  3  0  0  0  0  0  0
  -29.5270  -33.7760   25.9640 C   0  0  0  0  0  1  0  0  0  0  0  0
  -28.6650  -34.6220   25.1440 N   0  0  0  0  0  0  0  0  0  0  0  0
  -28.8050  -35.5880   25.4270 H   0  0  0  0  0  0  0  0  0  0  0  0
  2  5  1  0
  3  1  1  0
  4  8  1  0
  4  6  1  0
  4  2  1  0
  5  1  1  0
  5 50  1  0
  6  3  1  0
  6  7  1  1
  8 10  1  0
  9  8  2  0
 11 17  1  0
 11 19  1  0
 12 17  1  0
 13 14  1  0
 13 12  1  0
 15 14  1  0
 15 24  1  0
 15 16  1  0
 17 16  1  0
 18 11  2  0
 19 10  1  0
 19 20  1  0
 21 24  1  0
 21 22  2  0
 22 23  1  0
 23 25  2  0
 23 26  1  0
 24 25  1  0
 26 27  1  0
 27 28  2  0
 29 32  1  0
 29 28  1  0
 30 29  2  0
 31 30  1  0
 31 26  2  0
 32 33  1  0
 33 38  1  0
 34 33  2  0
 34 35  1  0
 35 36  2  0
 36 37  1  0
 36 40  1  0
 38 39  1  0
 38 37  2  0
 41 22  1  0
 41 42  1  0
 42 44  1  0
 43 41  2  0
 45 42  1  0
 46 21  1  0
 47 46  1  0
 48 46  1  0
 49 50  1  0
 51 52  1  0
 51  6  1  0
 53 54  1  0
 53 52  1  0
 55 56  1  0
 55 54  1  0
 57 59  1  0
 57 56  1  0
 58 69  2  0
 59 64  1  0
 60 68  1  0
 60 70  1  0
 61 63  1  0
 61 67  1  0
 62 68  1  0
 63 62  1  0
 64 63  2  0
 65 59  2  0
 65 66  1  0
 66 61  2  0
 67 60  1  0
 68 58  1  0
 70 72  2  0
 71 70  1  0
 73 71  1  0
 74 79  1  0
 75 71  1  0
 76 75  1  0
 77 78  1  0
 77 76  1  0
 78 74  1  0
 79 75  1  0
 79 80  2  0
 81 80  1  0
 82 81  2  0
 83 74  2  0
 83 82  1  0
 84 58  1  0
 84 89  1  0
 84 85  1  0
 85 88  1  1
 85 86  1  0
 87 85  1  0
 89 92  1  0
 90 94  1  0
 90 89  1  0
 91 90  2  0
 94 93  1  0
 96 94  1  0
 96 97  1  0
 96 95  1  0
M  ISO  4  11 100  19 100  56 101  57 101
M  END
>  <TORSDO>  (53) 
F 25

>  <SCORE>  (53) 
-2.355

>  <name>  (53) 
52

>  <ligand_id>  (53) 
52

>  <original_smiles>  (53) 
[H]c1c([H])c([H])c2c(c1[H])C([H])([H])C([H])([H])C([H])([H])C2([H])N([H])C(=O)C1([H])N(C(=O)C([H])(N([H])C(=O)C([H])(N([H])C([H])([H])[H])C([H])([H])[H])C(C([H])([H])[H])(C([H])([H])[H])C([H])([H])[H])C([H])([H])c2c([H])c(OC([H])([H])C([H])([H])C([H])([H])C([H])([H])C([H])([H])C([H])([H])[N+]3([H])C([H])([H])C([H])([H])C([H])(C([H])([H])C([H])([H])[H])C([H])([H])C3([H])C(=O)C([H])([H])N([H])C(=O)N3C([H])([H])C([H])([H])C([H])([H])C([H])(n4nc(-c5c([H])c([H])c(Oc6c([H])c([H])c(F)c([H])c6F)c([H])c5[H])c(C(=O)N([H])[H])c4N([H])[H])C3([H])[H])c([H])c([H])c2C1([H])[H]

>  <smiles>  (53) 
[H]c1c([H])c([H])c2c(c1[H])C([H])([H])C([H])([H])C([H])([H])C2([H])N([H])C(=O)C1([H])N(C(=O)C([H])(N([H])C(=O)C([H])(N([H])C([H])([H])[H])C([H])([H])[H])C(C([H])([H])[H])(C([H])([H])[H])C([H])([H])[H])C([H])([H])c2c([H])c(OC([H])([H])C([H])([H])C([H])([H])C([H])([H])C([H])([H])C([H])([H])[N+]3([H])C([H])([H])C([H])([H])C([H])(C([H])([H])C([H])([H])[H])C([H])([H])C3([H])C(=O)C([H])([H])N([H])C(=O)N3C([H])([H])C([H])([H])C([H])([H])C([H])(n4nc(-c5c([H])c([H])c(Oc6c([H])c([H])c(F)c([H])c6F)c([H])c5[H])c(C(=O)N([H])[H])c4N([H])[H])C3([H])[H])c([H])c([H])c2C1([H])[H]

$$$$
53:0:0
     RDKit          3D

 99106  0  0  1  0  0  0  0  0999 V2000
  -25.1370  -18.8050   19.9940 C   0  0  0  0  0  2  0  0  0  0  0  0
  -26.0240  -20.8140   20.9760 C   0  0  0  0  0  2  0  0  0  0  0  0
  -24.7260  -18.8200   21.5140 C   0  0  0  0  0  3  0  0  0  0  0  0
  -26.1710  -19.9530   19.7150 C   0  0  0  0  0  3  0  0  0  0  0  0
  -25.7480  -19.8280   22.1230 C   0  0  0  0  0  3  0  0  0  0  0  0
  -24.6330  -17.4380   22.2690 C   0  0  0  0  0  0  0  0  0  0  0  0
  -24.5470  -16.2900   21.5500 N   0  0  0  0  0  0  0  0  0  0  0  0
  -24.5490  -17.4270   23.4980 O   0  0  0  0  0  0  0  0  0  0  0  0
  -24.6230  -16.4050   20.5370 H   0  0  0  0  0  0  0  0  0  0  0  0
  -24.3550  -14.8440   21.9680 C   0  0  0  0  0  2  0  0  0  0  0  0
  -24.9810  -13.7450   20.9300 C   0  0  0  0  0  2  0  0  0  0  0  0
  -26.7430  -14.5840   20.3060 C   0  0  0  0  0  2  0  0  0  0  0  0
  -28.9480  -13.4490   19.3040 C   0  0  0  0  0  2  0  0  0  0  0  0
  -28.5670  -12.2980   18.2330 C   0  0  0  0  0  2  0  0  0  0  0  0
  -27.3090  -11.4160   18.4890 C   0  0  0  0  0  2  0  0  0  0  0  0
  -26.4880  -12.3830   19.1550 C   0  0  0  0  0  3  0  0  0  0  0  0
  -27.3340  -12.6480   20.5330 C   0  0  0  0  0  2  0  0  0  0  0  0
  -27.8680  -13.8160   20.2840 N   0  0  0  0  0  0  0  0  0  0  0  0
  -27.1420  -15.5960   19.6100 O   0  0  0  0  0  1  0  0  0  0  0  0
  -23.6700  -13.0670   20.1100 C   0  0  0  0  0  3  0  0  0  0  0  0
  -23.0250  -12.1710   21.4060 C   0  0  0  0  0  3  0  0  0  0  0  0
  -24.0060  -10.7140   21.7070 C   0  0  0  0  0  3  0  0  0  0  0  0
  -25.2190  -12.0930   19.4900 N   0  0  0  0  0  2  0  0  0  0  0  0
  -25.3120  -10.6660   20.6530 N   0  0  0  0  0  2  0  0  0  0  0  0
  -23.4370   -9.2660   21.6660 C   0  0  0  0  0  0  0  0  0  0  0  0
  -23.9950   -8.3110   22.5350 C   0  0  0  0  0  3  0  0  0  0  0  0
  -23.5480   -6.9710   22.6020 C   0  0  0  0  0  3  0  0  0  0  0  0
  -22.5160   -6.4850   21.7710 C   0  0  0  0  0  0  0  0  0  0  0  0
  -22.0130   -7.3760   20.7950 C   0  0  0  0  0  3  0  0  0  0  0  0
  -22.4790   -8.7290   20.7260 C   0  0  0  0  0  3  0  0  0  0  0  0
  -22.0210   -5.1930   21.8660 O   0  0  0  0  0  0  0  0  0  0  0  0
  -22.0340   -4.4990   23.0680 C   0  0  0  0  0  0  0  0  0  0  0  0
  -21.2910   -4.9400   24.1870 C   0  0  0  0  0  3  0  0  0  0  0  0
  -21.2980   -4.2040   25.3900 C   0  0  0  0  0  3  0  0  0  0  0  0
  -22.0410   -3.0090   25.4830 C   0  0  0  0  0  0  0  0  0  0  0  0
  -22.7750   -2.5570   24.3720 C   0  0  0  0  0  3  0  0  0  0  0  0
  -22.7700   -3.2950   23.1720 C   0  0  0  0  0  0  0  0  0  0  0  0
  -23.4680   -2.8330   22.1080 F   0  0  0  0  0  0  0  0  0  0  0  0
  -22.0540   -2.3010   26.6380 F   0  0  0  0  0  0  0  0  0  0  0  0
  -21.5100  -12.0210   21.4710 C   0  0  0  0  0  0  0  0  0  0  0  0
  -20.9780  -11.2180   22.3900 N   0  0  0  0  0  0  0  0  0  0  0  0
  -20.7770  -12.6080   20.6760 O   0  0  0  0  0  0  0  0  0  0  0  0
  -21.5430  -10.7420   23.0740 H   0  0  0  0  0  0  0  0  0  0  0  0
  -19.9680  -11.1330   22.4500 H   0  0  0  0  0  0  0  0  0  0  0  0
  -23.3740  -14.3560   19.7720 N   0  0  0  0  0  0  0  0  0  0  0  0
  -22.3990  -14.6270   19.8570 H   0  0  0  0  0  0  0  0  0  0  0  0
  -23.7920  -14.7330   18.9270 H   0  0  0  0  0  0  0  0  0  0  0  0
  -26.0980  -20.8330   18.3920 C   0  0  0  0  0  2  0  0  0  0  0  0
  -27.3830  -21.5500   17.8130 C   0  0  0  0  0  3  0  0  0  0  0  0
  -28.4840  -21.2270   18.6460 O   0  0  0  0  0  0  0  0  0  0  0  0
  -28.7090  -20.3160   18.4870 H   0  0  0  0  0  0  0  0  0  0  0  0
  -27.3380  -23.1360   17.7420 C   0  0  0  0  0  3  0  0  0  0  0  0
  -28.6790  -23.8900   18.1370 C   0  0  0  0  0  3  0  0  0  0  0  0
  -28.8320  -25.3210   18.4690 O   0  0  0  0  0  0  0  0  0  0  0  0
  -24.6480  -29.7870   22.1610 C   0  0  0  0  0  0  0  0  0  0  0  0
  -27.7530  -26.1850   18.4730 C   0  0  0  0  0  0  0  0  0  0  0  0
  -23.7840  -29.0130   19.9750 C   0  0  0  0  0  3  0  0  0  0  0  0
  -25.4820  -27.8700   18.4530 C   0  0  0  0  0  0  0  0  0  0  0  0
  -26.3090  -29.2280   20.3870 C   0  0  0  0  0  2  0  0  0  0  0  0
  -26.5060  -28.0970   19.3890 C   0  0  0  0  0  0  0  0  0  0  0  0
  -27.6540  -27.2610   19.3920 C   0  0  0  0  0  3  0  0  0  0  0  0
  -26.7450  -26.0250   17.5060 C   0  0  0  0  0  3  0  0  0  0  0  0
  -25.6010  -26.8380   17.5070 C   0  0  0  0  0  3  0  0  0  0  0  0
  -24.2690  -28.7640   18.5200 C   0  0  0  0  0  2  0  0  0  0  0  0
  -24.9190  -29.3420   20.9010 N   0  0  0  0  0  0  0  0  0  0  0  0
  -23.4830  -29.9600   22.5400 O   0  0  0  0  0  0  0  0  0  0  0  0
  -22.9480  -27.7990   20.4400 C   0  0  0  0  0  0  0  0  0  0  0  0
  -21.6250  -27.8640   20.2250 N   0  0  0  0  0  0  0  0  0  0  0  0
  -23.4920  -26.8200   20.9620 O   0  0  0  0  0  0  0  0  0  0  0  0
  -21.2600  -28.7030   19.7980 H   0  0  0  0  0  0  0  0  0  0  0  0
  -18.0980  -27.2380   20.7130 C   0  0  0  0  0  0  0  0  0  0  0  0
  -20.6450  -26.8270   20.5480 C   0  0  0  0  0  3  0  0  0  0  0  0
  -20.3270  -25.9650   19.3060 C   0  0  0  0  0  2  0  0  0  0  0  0
  -19.1090  -26.4660   18.5230 C   0  0  0  0  0  2  0  0  0  0  0  0
  -17.8630  -26.4830   19.4160 C   0  0  0  0  0  2  0  0  0  0  0  0
  -19.4070  -27.4150   21.2350 C   0  0  0  0  0  0  0  0  0  0  0  0
  -19.5740  -28.1530   22.4270 C   0  0  0  0  0  3  0  0  0  0  0  0
  -18.4650  -28.7030   23.0970 C   0  0  0  0  0  3  0  0  0  0  0  0
  -17.1710  -28.5100   22.5830 C   0  0  0  0  0  3  0  0  0  0  0  0
  -16.9890  -27.7770   21.3960 C   0  0  0  0  0  3  0  0  0  0  0  0
  -25.7920  -30.1210   23.1660 C   0  0  0  0  0  3  0  0  0  0  0  0
  -25.7710  -29.2110   24.4570 C   0  0  1  0  0  0  0  0  0  0  0  0
  -24.3960  -29.1780   25.1640 C   0  0  0  0  0  1  0  0  0  0  0  0
  -26.1550  -27.7520   24.1140 C   0  0  0  0  0  1  0  0  0  0  0  0
  -26.8290  -29.7070   25.4710 C   0  0  0  0  0  1  0  0  0  0  0  0
  -25.6650  -31.5390   23.5320 N   0  0  0  0  0  0  0  0  0  0  0  0
  -26.2960  -32.5440   22.9090 C   0  0  0  0  0  0  0  0  0  0  0  0
  -27.1080  -32.3620   21.9980 O   0  0  0  0  0  0  0  0  0  0  0  0
  -24.9770  -31.7680   24.2340 H   0  0  0  0  0  0  0  0  0  0  0  0
  -25.0280  -34.6410   22.3440 C   0  0  0  0  0  1  0  0  0  0  0  0
  -25.9680  -33.9800   23.3650 C   0  0  0  0  0  3  0  0  0  0  0  0
  -27.9490  -34.4460   24.7380 C   0  0  0  0  0  1  0  0  0  0  0  0
  -27.1670  -34.8230   23.5630 N   0  0  0  0  0  0  0  0  0  0  0  0
  -26.9080  -35.8000   23.6550 H   0  0  0  0  0  0  0  0  0  0  0  0
  -25.3100  -20.5540   23.4200 C   0  0  0  0  0  2  0  0  0  0  0  0
  -25.2780  -19.6620   24.5910 N   0  0  0  0  0  4  0  0  0  0  0  0
  -24.7030  -18.8570   24.4290 H   0  0  0  0  0  0  0  0  0  0  0  0
  -24.9110  -20.1550   25.3860 H   0  0  0  0  0  0  0  0  0  0  0  0
  -26.2040  -19.3530   24.8250 H   0  0  0  0  0  0  0  0  0  0  0  0
  1  3  1  0
  2  5  1  0
  3  5  1  0
  3  6  1  0
  4 48  1  0
  4  1  1  0
  4  2  1  0
  5 95  1  0
  6  8  2  0
  7 10  1  0
  7  6  1  0
  9  7  1  0
 11 10  1  0
 13 18  1  0
 14 15  1  0
 14 13  1  0
 15 16  1  0
 16 23  1  0
 16 17  1  0
 18 12  1  0
 18 17  1  0
 19 12  1  0
 20 11  1  0
 20 21  1  0
 21 40  1  0
 21 22  1  0
 22 24  1  0
 23 24  1  0
 25 22  1  0
 25 26  1  0
 26 27  2  0
 28 31  1  0
 28 27  1  0
 29 28  2  0
 30 29  1  0
 30 25  2  0
 31 32  1  0
 32 37  2  0
 32 33  1  0
 33 34  2  0
 34 35  1  0
 35 39  1  0
 36 35  2  0
 37 36  1  0
 38 37  1  0
 40 41  1  0
 41 44  1  0
 41 43  1  0
 42 40  2  0
 45 46  1  0
 45 20  1  0
 47 45  1  0
 49 52  1  0
 49 48  1  0
 49 50  1  0
 51 50  1  0
 52 53  2  0
 53 54  1  0
 54 56  1  0
 55 66  2  0
 56 61  1  0
 57 67  1  0
 57 65  1  0
 58 64  1  0
 58 60  1  0
 59 65  1  0
 60 61  2  0
 60 59  1  0
 62 63  1  0
 62 56  2  0
 63 58  2  0
 64 57  1  0
 65 55  1  0
 67 69  2  0
 68 67  1  0
 70 68  1  0
 71 76  2  0
 71 80  1  0
 72 68  1  0
 72 76  1  0
 73 72  1  0
 74 73  1  0
 74 75  1  0
 75 71  1  0
 76 77  1  0
 77 78  2  0
 79 78  1  0
 80 79  2  0
 81 55  1  0
 81 86  1  0
 81 82  1  0
 82 83  1  1
 82 85  1  0
 84 82  1  0
 86 89  1  0
 87 91  1  0
 87 86  1  0
 88 87  2  0
 91 90  1  0
 91 93  1  0
 93 94  1  0
 93 92  1  0
 95 96  1  0
 96 99  1  0
 96 98  1  0
 97 96  1  0
M  ISO  4  11 100  12 100  53 101  54 101
M  END
>  <TORSDO>  (54) 
F 26

>  <SCORE>  (54) 
50.126

>  <name>  (54) 
53

>  <ligand_id>  (54) 
53

>  <original_smiles>  (54) 
[H]OC([H])(C([H])([H])C([H])([H])Oc1c([H])c([H])c2c(c1[H])C([H])([H])N(C(=O)C([H])(N([H])C(=O)C([H])(N([H])C([H])([H])[H])C([H])([H])[H])C(C([H])([H])[H])(C([H])([H])[H])C([H])([H])[H])C([H])(C(=O)N([H])C1([H])c3c([H])c([H])c([H])c([H])c3C([H])([H])C([H])([H])C1([H])[H])C2([H])[H])C([H])([H])C1([H])C([H])([H])C([H])(C(=O)N([H])C([H])([H])C([H])([H])C(=O)N2C([H])([H])C([H])([H])C([H])([H])C([H])(n3nc(-c4c([H])c([H])c(Oc5c([H])c([H])c(F)c([H])c5F)c([H])c4[H])c(C(=O)N([H])[H])c3N([H])[H])C2([H])[H])C([H])(C([H])([H])[N+]([H])([H])[H])C1([H])[H]

>  <smiles>  (54) 
[H]OC([H])(C([H])([H])C([H])([H])Oc1c([H])c([H])c2c(c1[H])C([H])([H])N(C(=O)C([H])(N([H])C(=O)C([H])(N([H])C([H])([H])[H])C([H])([H])[H])C(C([H])([H])[H])(C([H])([H])[H])C([H])([H])[H])C([H])(C(=O)N([H])C1([H])c3c([H])c([H])c([H])c([H])c3C([H])([H])C([H])([H])C1([H])[H])C2([H])[H])C([H])([H])C1([H])C([H])([H])C([H])(C(=O)N([H])C([H])([H])C([H])([H])C(=O)N2C([H])([H])C([H])([H])C([H])([H])C([H])(n3nc(-c4c([H])c([H])c(Oc5c([H])c([H])c(F)c([H])c5F)c([H])c4[H])c(C(=O)N([H])[H])c3N([H])[H])C2([H])[H])C([H])(C([H])([H])[N+]([H])([H])[H])C1([H])[H]

$$$$
54:0:0
     RDKit          3D

 95103  0  0  1  0  0  0  0  0999 V2000
  -24.2820  -20.7460   16.8480 C   0  0  0  0  0  1  0  0  0  0  0  0
  -25.5890  -20.8660   17.6530 C   0  0  0  0  0  3  0  0  0  0  0  0
  -24.9570  -18.9030   19.2050 C   0  0  0  0  0  1  0  0  0  0  0  0
  -26.0360  -19.5230   18.2950 C   0  0  0  0  0  3  0  0  0  0  0  0
  -27.3830  -19.6620   19.0530 C   0  0  0  0  0  2  0  0  0  0  0  0
  -31.0610  -15.2390   21.0550 C   0  0  0  0  0  0  0  0  0  0  0  0
  -31.0210  -12.9680   20.1600 C   0  0  0  0  0  2  0  0  0  0  0  0
  -30.2570  -13.0170   18.8210 C   0  0  0  0  0  2  0  0  0  0  0  0
  -28.7390  -12.8550   19.0480 C   0  0  0  0  0  2  0  0  0  0  0  0
  -28.1820  -13.7680   20.1750 C   0  0  0  0  0  3  0  0  0  0  0  0
  -29.0870  -13.7150   21.4290 C   0  0  0  0  0  2  0  0  0  0  0  0
  -30.4560  -14.0260   21.0040 N   0  0  0  0  0  0  0  0  0  0  0  0
  -32.2900  -15.3530   21.0710 O   0  0  0  0  0  0  0  0  0  0  0  0
  -28.9460  -18.3900   20.6050 C   0  0  0  0  0  2  0  0  0  0  0  0
  -29.1210  -18.1550   18.0470 C   0  0  0  0  0  2  0  0  0  0  0  0
  -29.3730  -17.0250   21.2070 C   0  0  0  0  0  2  0  0  0  0  0  0
  -30.9390  -16.8440   19.2390 C   0  0  0  0  0  2  0  0  0  0  0  0
  -28.1810  -18.3500   19.2560 C   0  0  0  0  0  3  0  0  0  0  0  0
  -29.9620  -16.8720   18.0490 C   0  0  0  0  0  3  0  0  0  0  0  0
  -30.7300  -16.7640   16.7190 C   0  0  0  0  0  1  0  0  0  0  0  0
  -30.3470  -16.2230   20.4410 N   0  0  0  0  0  0  0  0  0  0  0  0
  -25.6930  -14.2950   20.5500 C   0  0  0  0  0  0  0  0  0  0  0  0
  -24.6130  -13.4910   20.7930 C   0  0  0  0  0  0  0  0  0  0  0  0
  -25.1260  -12.1610   20.8680 C   0  0  0  0  0  0  0  0  0  0  0  0
  -26.7920  -13.4520   20.4890 N   0  0  0  0  0  0  0  0  0  0  0  0
  -26.4460  -12.1650   20.7420 N   0  0  0  0  0  0  0  0  0  0  0  0
  -24.4300  -10.8770   20.9950 C   0  0  0  0  0  0  0  0  0  0  0  0
  -24.7590   -9.9580   22.0150 C   0  0  0  0  0  3  0  0  0  0  0  0
  -24.0610   -8.7350   22.1290 C   0  0  0  0  0  3  0  0  0  0  0  0
  -23.0220   -8.4240   21.2180 C   0  0  0  0  0  0  0  0  0  0  0  0
  -22.7160   -9.3320   20.1900 C   0  0  0  0  0  3  0  0  0  0  0  0
  -23.4140  -10.5460   20.0760 C   0  0  0  0  0  3  0  0  0  0  0  0
  -22.3080   -7.2500   21.2370 O   0  0  0  0  0  0  0  0  0  0  0  0
  -22.0470   -6.5860   22.4080 C   0  0  0  0  0  0  0  0  0  0  0  0
  -21.3650   -7.2050   23.4790 C   0  0  0  0  0  3  0  0  0  0  0  0
  -21.0550   -6.4640   24.6370 C   0  0  0  0  0  3  0  0  0  0  0  0
  -21.4160   -5.1060   24.7240 C   0  0  0  0  0  0  0  0  0  0  0  0
  -22.0910   -4.4870   23.6570 C   0  0  0  0  0  3  0  0  0  0  0  0
  -22.4030   -5.2260   22.5010 C   0  0  0  0  0  0  0  0  0  0  0  0
  -23.0350   -4.6190   21.4670 F   0  0  0  0  0  0  0  0  0  0  0  0
  -21.1110   -4.3920   25.8320 F   0  0  0  0  0  0  0  0  0  0  0  0
  -23.1750  -13.9200   20.8550 C   0  0  0  0  0  0  0  0  0  0  0  0
  -22.3670  -13.2310   21.6530 N   0  0  0  0  0  0  0  0  0  0  0  0
  -22.7710  -14.8990   20.2300 O   0  0  0  0  0  0  0  0  0  0  0  0
  -22.7030  -12.4400   22.1820 H   0  0  0  0  0  0  0  0  0  0  0  0
  -21.3970  -13.5020   21.7400 H   0  0  0  0  0  0  0  0  0  0  0  0
  -25.8250  -15.6630   20.3570 N   0  0  0  0  0  0  0  0  0  0  0  0
  -25.0230  -16.2800   20.3230 H   0  0  0  0  0  0  0  0  0  0  0  0
  -26.6950  -16.1250   20.1310 H   0  0  0  0  0  0  0  0  0  0  0  0
  -25.5430  -22.0520   18.6500 C   0  0  0  0  0  2  0  0  0  0  0  0
  -26.7580  -22.9850   18.5150 C   0  0  0  0  0  2  0  0  0  0  0  0
  -27.0240  -23.8150   19.7770 C   0  0  0  0  0  2  0  0  0  0  0  0
  -28.2990  -24.6630   19.6320 C   0  0  0  0  0  2  0  0  0  0  0  0
  -28.4390  -25.7580   20.7010 C   0  0  0  0  0  2  0  0  0  0  0  0
  -28.5070  -27.0470   20.0890 O   0  0  0  0  0  0  0  0  0  0  0  0
  -24.5930  -31.9820   23.3180 C   0  0  0  0  0  0  0  0  0  0  0  0
  -27.3240  -27.7400   20.0820 C   0  0  0  0  0  0  0  0  0  0  0  0
  -23.4120  -30.6240   21.6200 C   0  0  0  0  0  3  0  0  0  0  0  0
  -24.8950  -29.1690   20.1440 C   0  0  0  0  0  0  0  0  0  0  0  0
  -25.9260  -31.0450   21.4370 C   0  0  0  0  0  2  0  0  0  0  0  0
  -26.0390  -29.7030   20.7500 C   0  0  0  0  0  0  0  0  0  0  0  0
  -27.2570  -28.9950   20.7180 C   0  0  0  0  0  3  0  0  0  0  0  0
  -26.1720  -27.2230   19.4520 C   0  0  0  0  0  3  0  0  0  0  0  0
  -24.9550  -27.9250   19.4920 C   0  0  0  0  0  3  0  0  0  0  0  0
  -23.6350  -29.9980   20.2170 C   0  0  0  0  0  2  0  0  0  0  0  0
  -24.6620  -31.2280   22.1860 N   0  0  0  0  0  0  0  0  0  0  0  0
  -23.5060  -32.2150   23.8670 O   0  0  0  0  0  0  0  0  0  0  0  0
  -22.7790  -29.5550   22.5390 C   0  0  0  0  0  0  0  0  0  0  0  0
  -21.4620  -29.3440   22.3900 N   0  0  0  0  0  0  0  0  0  0  0  0
  -23.4700  -28.9210   23.3410 O   0  0  0  0  0  0  0  0  0  0  0  0
  -20.9640  -29.9090   21.7170 H   0  0  0  0  0  0  0  0  0  0  0  0
  -18.1230  -28.0240   22.7810 C   0  0  0  0  0  0  0  0  0  0  0  0
  -20.6630  -28.3600   23.1210 C   0  0  0  0  0  3  0  0  0  0  0  0
  -20.8280  -26.9470   22.5170 C   0  0  0  0  0  2  0  0  0  0  0  0
  -19.7620  -26.6100   21.4690 C   0  0  0  0  0  2  0  0  0  0  0  0
  -18.3620  -26.6960   22.0820 C   0  0  0  0  0  2  0  0  0  0  0  0
  -19.2040  -28.8120   23.2560 C   0  0  0  0  0  0  0  0  0  0  0  0
  -18.9290  -30.0560   23.8660 C   0  0  0  0  0  3  0  0  0  0  0  0
  -17.6050  -30.5110   24.0070 C   0  0  0  0  0  3  0  0  0  0  0  0
  -16.5370  -29.7180   23.5500 C   0  0  0  0  0  3  0  0  0  0  0  0
  -16.7970  -28.4780   22.9420 C   0  0  0  0  0  3  0  0  0  0  0  0
  -25.8670  -32.6090   23.9630 C   0  0  0  0  0  3  0  0  0  0  0  0
  -25.5600  -34.0110   24.2730 N   0  0  0  0  0  0  0  0  0  0  0  0
  -25.9130  -35.0520   23.5090 C   0  0  0  0  0  0  0  0  0  0  0  0
  -26.6020  -34.9360   22.4910 O   0  0  0  0  0  0  0  0  0  0  0  0
  -24.9490  -34.1780   25.0590 H   0  0  0  0  0  0  0  0  0  0  0  0
  -24.1950  -36.8440   23.1100 C   0  0  0  0  0  1  0  0  0  0  0  0
  -25.4240  -36.4460   23.9440 C   0  0  0  0  0  3  0  0  0  0  0  0
  -27.5510  -37.3350   24.7900 C   0  0  0  0  0  1  0  0  0  0  0  0
  -26.4610  -37.4950   23.8310 N   0  0  0  0  0  0  0  0  0  0  0  0
  -26.0580  -38.4180   23.9590 H   0  0  0  0  0  0  0  0  0  0  0  0
  -26.3560  -31.8400   25.2510 C   0  0  1  0  0  0  0  0  0  0  0  0
  -25.2380  -31.6050   26.2930 C   0  0  0  0  0  1  0  0  0  0  0  0
  -26.9440  -30.4610   24.8710 C   0  0  0  0  0  1  0  0  0  0  0  0
  -27.4940  -32.6330   25.9360 C   0  0  0  0  0  1  0  0  0  0  0  0
  2  1  1  0
  2  4  1  0
  2 50  1  0
  4  5  1  0
  4  3  1  0
  6 13  2  0
  7 12  1  0
  8  9  1  0
  8  7  1  0
 10  9  1  0
 10 25  1  0
 10 11  1  0
 12  6  1  0
 12 11  1  0
 14 16  1  0
 15 19  1  0
 15 18  1  0
 17 21  1  0
 18  5  1  0
 18 14  1  0
 19 20  1  0
 19 17  1  0
 21  6  1  0
 21 16  1  0
 22 23  2  0
 23 42  1  0
 23 24  1  0
 24 27  1  0
 25 22  1  0
 25 26  1  0
 26 24  2  0
 27 28  1  0
 28 29  2  0
 30 33  1  0
 30 29  1  0
 31 30  2  0
 32 31  1  0
 32 27  2  0
 33 34  1  0
 34 39  2  0
 34 35  1  0
 35 36  2  0
 36 37  1  0
 37 41  1  0
 38 37  2  0
 39 38  1  0
 40 39  1  0
 42 43  1  0
 43 46  1  0
 43 45  1  0
 44 42  2  0
 47 22  1  0
 48 47  1  0
 49 47  1  0
 51 50  1  0
 51 52  1  0
 53 52  1  0
 53 54  1  0
 55 54  1  0
 56 67  2  0
 57 55  1  0
 57 62  1  0
 58 66  1  0
 58 68  1  0
 59 65  1  0
 59 61  1  0
 60 66  1  0
 61 60  1  0
 62 61  2  0
 63 64  1  0
 63 57  2  0
 64 59  2  0
 65 58  1  0
 66 56  1  0
 68 70  2  0
 69 68  1  0
 71 69  1  0
 72 81  2  0
 72 77  1  0
 73 69  1  0
 73 77  1  0
 74 73  1  0
 75 76  1  0
 75 74  1  0
 76 72  1  0
 77 78  2  0
 78 79  1  0
 80 79  2  0
 81 80  1  0
 82 56  1  0
 82 83  1  0
 82 92  1  0
 83 86  1  0
 84 88  1  0
 84 83  1  0
 85 84  2  0
 88 87  1  0
 90 88  1  0
 90 91  1  0
 90 89  1  0
 92 95  1  1
 92 93  1  0
 94 92  1  0
M  ISO  4   6 100  21 100  54 101  55 101
M  END
>  <TORSDO>  (55) 
F 23

>  <SCORE>  (55) 
-10.074

>  <name>  (55) 
54

>  <ligand_id>  (55) 
54

>  <original_smiles>  (55) 
[H]c1c([H])c([H])c2c(c1[H])C([H])([H])C([H])([H])C([H])([H])C2([H])N([H])C(=O)C1([H])N(C(=O)C([H])(N([H])C(=O)C([H])(N([H])C([H])([H])[H])C([H])([H])[H])C(C([H])([H])[H])(C([H])([H])[H])C([H])([H])[H])C([H])([H])c2c([H])c(OC([H])([H])C([H])([H])C([H])([H])C([H])([H])C([H])([H])C([H])(C([H])([H])[H])C([H])(C([H])([H])[H])C([H])([H])C3([H])C([H])([H])C([H])([H])N(C(=O)N4C([H])([H])C([H])([H])C([H])([H])C([H])(n5nc(-c6c([H])c([H])c(Oc7c([H])c([H])c(F)c([H])c7F)c([H])c6[H])c(C(=O)N([H])[H])c5N([H])[H])C4([H])[H])C([H])([H])C([H])(C([H])([H])[H])C3([H])[H])c([H])c([H])c2C1([H])[H]

>  <smiles>  (55) 
[H]c1c([H])c([H])c2c(c1[H])C([H])([H])C([H])([H])C([H])([H])C2([H])N([H])C(=O)C1([H])N(C(=O)C([H])(N([H])C(=O)C([H])(N([H])C([H])([H])[H])C([H])([H])[H])C(C([H])([H])[H])(C([H])([H])[H])C([H])([H])[H])C([H])([H])c2c([H])c(OC([H])([H])C([H])([H])C([H])([H])C([H])([H])C([H])([H])C([H])(C([H])([H])[H])C([H])(C([H])([H])[H])C([H])([H])C3([H])C([H])([H])C([H])([H])N(C(=O)N4C([H])([H])C([H])([H])C([H])([H])C([H])(n5nc(-c6c([H])c([H])c(Oc7c([H])c([H])c(F)c([H])c7F)c([H])c6[H])c(C(=O)N([H])[H])c5N([H])[H])C4([H])[H])C([H])([H])C([H])(C([H])([H])[H])C3([H])[H])c([H])c([H])c2C1([H])[H]

$$$$
55:0:0
     RDKit          3D

 92 99  0  0  1  0  0  0  0  0999 V2000
  -27.6660  -20.8100   19.1420 C   0  0  0  0  0  0  0  0  0  0  0  0
  -28.5180  -21.5270   18.6120 O   0  0  0  0  0  0  0  0  0  0  0  0
  -27.8710  -18.5500   18.0620 C   0  0  0  0  0  1  0  0  0  0  0  0
  -27.9270  -19.3190   19.3950 C   0  0  0  0  0  3  0  0  0  0  0  0
  -29.2350  -19.0270   20.1730 C   0  0  0  0  0  2  0  0  0  0  0  0
  -29.1250  -17.7470   21.0510 C   0  0  0  0  0  2  0  0  0  0  0  0
  -30.8210  -14.4900   20.4300 C   0  0  0  0  0  0  0  0  0  0  0  0
  -30.5320  -12.3420   19.2650 C   0  0  0  0  0  2  0  0  0  0  0  0
  -29.6000  -12.5750   18.0560 C   0  0  0  0  0  2  0  0  0  0  0  0
  -28.1230  -12.4290   18.4730 C   0  0  0  0  0  2  0  0  0  0  0  0
  -27.7780  -13.2580   19.7380 C   0  0  0  0  0  3  0  0  0  0  0  0
  -28.8220  -13.0110   20.8510 C   0  0  0  0  0  2  0  0  0  0  0  0
  -30.1550  -13.3130   20.3010 N   0  0  0  0  0  0  0  0  0  0  0  0
  -31.9650  -14.6550   19.9980 O   0  0  0  0  0  0  0  0  0  0  0  0
  -30.3320  -16.8060   20.9570 C   0  0  0  0  0  0  0  0  0  0  0  0
  -30.0440  -15.4940   20.8780 N   0  0  0  0  0  0  0  0  0  0  0  0
  -31.4720  -17.2820   20.9500 O   0  0  0  0  0  0  0  0  0  0  0  0
  -29.0900  -15.2360   21.0670 H   0  0  0  0  0  0  0  0  0  0  0  0
  -25.3720  -13.8760   20.4060 C   0  0  0  0  0  0  0  0  0  0  0  0
  -24.3000  -13.1110   20.7760 C   0  0  0  0  0  0  0  0  0  0  0  0
  -24.7630  -11.7590   20.7650 C   0  0  0  0  0  0  0  0  0  0  0  0
  -26.4190  -12.9910   20.1990 N   0  0  0  0  0  0  0  0  0  0  0  0
  -26.0550  -11.7130   20.4720 N   0  0  0  0  0  0  0  0  0  0  0  0
  -24.0360  -10.5000   20.9660 C   0  0  0  0  0  0  0  0  0  0  0  0
  -24.4530   -9.5540   21.9280 C   0  0  0  0  0  3  0  0  0  0  0  0
  -23.7300   -8.3560   22.1120 C   0  0  0  0  0  3  0  0  0  0  0  0
  -22.5790   -8.0940   21.3330 C   0  0  0  0  0  0  0  0  0  0  0  0
  -22.1820   -9.0270   20.3590 C   0  0  0  0  0  3  0  0  0  0  0  0
  -22.9050  -10.2190   20.1730 C   0  0  0  0  0  3  0  0  0  0  0  0
  -21.8310   -6.9450   21.4240 O   0  0  0  0  0  0  0  0  0  0  0  0
  -21.7440   -6.2310   22.5930 C   0  0  0  0  0  0  0  0  0  0  0  0
  -21.2630   -6.8110   23.7860 C   0  0  0  0  0  3  0  0  0  0  0  0
  -21.1240   -6.0210   24.9460 C   0  0  0  0  0  3  0  0  0  0  0  0
  -21.4600   -4.6540   24.9130 C   0  0  0  0  0  0  0  0  0  0  0  0
  -21.9330   -4.0750   23.7230 C   0  0  0  0  0  3  0  0  0  0  0  0
  -22.0750   -4.8620   22.5660 C   0  0  0  0  0  0  0  0  0  0  0  0
  -22.5130   -4.2930   21.4170 F   0  0  0  0  0  0  0  0  0  0  0  0
  -21.3220   -3.8940   26.0250 F   0  0  0  0  0  0  0  0  0  0  0  0
  -22.8980  -13.5890   21.0290 C   0  0  0  0  0  0  0  0  0  0  0  0
  -22.1630  -12.8960   21.8950 N   0  0  0  0  0  0  0  0  0  0  0  0
  -22.4620  -14.6070   20.4960 O   0  0  0  0  0  0  0  0  0  0  0  0
  -22.5290  -12.0740   22.3520 H   0  0  0  0  0  0  0  0  0  0  0  0
  -21.2250  -13.1940   22.1130 H   0  0  0  0  0  0  0  0  0  0  0  0
  -25.5390  -15.2440   20.2120 N   0  0  0  0  0  0  0  0  0  0  0  0
  -24.7570  -15.8830   20.2880 H   0  0  0  0  0  0  0  0  0  0  0  0
  -26.3640  -15.6670   19.8100 H   0  0  0  0  0  0  0  0  0  0  0  0
  -26.2560  -21.3070   19.4780 C   0  0  0  0  0  2  0  0  0  0  0  0
  -25.9990  -22.8280   19.3770 C   0  0  0  0  0  2  0  0  0  0  0  0
  -26.5820  -23.6950   20.5140 C   0  0  0  0  0  2  0  0  0  0  0  0
  -27.9380  -24.3450   20.1680 C   0  0  0  0  0  2  0  0  0  0  0  0
  -28.2800  -25.5770   21.0300 C   0  0  0  0  0  2  0  0  0  0  0  0
  -28.3820  -26.7690   20.2470 O   0  0  0  0  0  0  0  0  0  0  0  0
  -24.5050  -31.8910   23.2380 C   0  0  0  0  0  0  0  0  0  0  0  0
  -27.2220  -27.4990   20.2000 C   0  0  0  0  0  0  0  0  0  0  0  0
  -23.3330  -30.4840   21.5750 C   0  0  0  0  0  3  0  0  0  0  0  0
  -24.8180  -28.9680   20.1690 C   0  0  0  0  0  0  0  0  0  0  0  0
  -25.8550  -30.8760   21.4120 C   0  0  0  0  0  2  0  0  0  0  0  0
  -25.9610  -29.5090   20.7730 C   0  0  0  0  0  0  0  0  0  0  0  0
  -27.1700  -28.7800   20.7830 C   0  0  0  0  0  3  0  0  0  0  0  0
  -26.0690  -26.9730   19.5810 C   0  0  0  0  0  3  0  0  0  0  0  0
  -24.8670  -27.6990   19.5710 C   0  0  0  0  0  3  0  0  0  0  0  0
  -23.5670  -29.8130   20.1960 C   0  0  0  0  0  2  0  0  0  0  0  0
  -24.5820  -31.0980   22.1340 N   0  0  0  0  0  0  0  0  0  0  0  0
  -23.4160  -32.1530   23.7640 O   0  0  0  0  0  0  0  0  0  0  0  0
  -22.6760  -29.4540   22.5210 C   0  0  0  0  0  0  0  0  0  0  0  0
  -21.3520  -29.2750   22.3830 N   0  0  0  0  0  0  0  0  0  0  0  0
  -23.3530  -28.8180   23.3350 O   0  0  0  0  0  0  0  0  0  0  0  0
  -20.8670  -29.8400   21.6990 H   0  0  0  0  0  0  0  0  0  0  0  0
  -17.9650  -28.1170   22.8680 C   0  0  0  0  0  0  0  0  0  0  0  0
  -20.5270  -28.3350   23.1410 C   0  0  0  0  0  3  0  0  0  0  0  0
  -20.6110  -26.9110   22.5420 C   0  0  0  0  0  2  0  0  0  0  0  0
  -19.5030  -26.6200   21.5250 C   0  0  0  0  0  2  0  0  0  0  0  0
  -18.1230  -26.7750   22.1730 C   0  0  0  0  0  2  0  0  0  0  0  0
  -19.0950  -28.8560   23.3100 C   0  0  0  0  0  0  0  0  0  0  0  0
  -18.8940  -30.1130   23.9170 C   0  0  0  0  0  3  0  0  0  0  0  0
  -17.5980  -30.6310   24.0920 C   0  0  0  0  0  3  0  0  0  0  0  0
  -16.4820  -29.8880   23.6710 C   0  0  0  0  0  3  0  0  0  0  0  0
  -16.6670  -28.6320   23.0630 C   0  0  0  0  0  3  0  0  0  0  0  0
  -25.7810  -32.5280   23.8780 C   0  0  0  0  0  3  0  0  0  0  0  0
  -25.4680  -33.9290   24.1870 N   0  0  0  0  0  0  0  0  0  0  0  0
  -25.8120  -34.9710   23.4200 C   0  0  0  0  0  0  0  0  0  0  0  0
  -26.4990  -34.8560   22.4010 O   0  0  0  0  0  0  0  0  0  0  0  0
  -24.8660  -34.0950   24.9790 H   0  0  0  0  0  0  0  0  0  0  0  0
  -24.0880  -36.7540   23.0040 C   0  0  0  0  0  1  0  0  0  0  0  0
  -25.3120  -36.3630   23.8490 C   0  0  0  0  0  3  0  0  0  0  0  0
  -27.4250  -37.2600   24.7210 C   0  0  0  0  0  1  0  0  0  0  0  0
  -26.3450  -37.4170   23.7480 N   0  0  0  0  0  0  0  0  0  0  0  0
  -25.9350  -38.3380   23.8770 H   0  0  0  0  0  0  0  0  0  0  0  0
  -26.2760  -31.7680   25.1690 C   0  0  1  0  0  0  0  0  0  0  0  0
  -25.1620  -31.5370   26.2160 C   0  0  0  0  0  1  0  0  0  0  0  0
  -26.8690  -30.3890   24.7970 C   0  0  0  0  0  1  0  0  0  0  0  0
  -27.4140  -32.5680   25.8470 C   0  0  0  0  0  1  0  0  0  0  0  0
  1  4  1  0
  1 47  1  0
  2  1  2  0
  4  3  1  0
  4  5  1  0
  5  6  1  0
  7 16  1  0
  8 13  1  0
  9 10  1  0
  9  8  1  0
 11 10  1  0
 11 22  1  0
 11 12  1  0
 13  7  1  0
 13 12  1  0
 14  7  2  0
 15  6  1  0
 16 15  1  0
 16 18  1  0
 17 15  2  0
 19 20  2  0
 20 39  1  0
 21 20  1  0
 21 24  1  0
 22 19  1  0
 22 23  1  0
 23 21  2  0
 24 25  1  0
 25 26  2  0
 27 30  1  0
 27 26  1  0
 28 27  2  0
 29 28  1  0
 29 24  2  0
 30 31  1  0
 31 32  1  0
 32 33  2  0
 34 33  1  0
 34 38  1  0
 35 34  2  0
 36 31  2  0
 36 35  1  0
 37 36  1  0
 39 40  1  0
 40 43  1  0
 40 42  1  0
 41 39  2  0
 44 45  1  0
 44 19  1  0
 46 44  1  0
 48 47  1  0
 48 49  1  0
 50 49  1  0
 50 51  1  0
 52 51  1  0
 53 64  2  0
 54 52  1  0
 54 59  1  0
 55 63  1  0
 55 65  1  0
 56 62  1  0
 56 58  1  0
 57 63  1  0
 58 59  2  0
 58 57  1  0
 60 54  2  0
 61 60  1  0
 61 56  2  0
 62 55  1  0
 63 53  1  0
 65 67  2  0
 66 65  1  0
 68 66  1  0
 69 78  2  0
 69 74  1  0
 70 66  1  0
 70 74  1  0
 71 70  1  0
 72 73  1  0
 72 71  1  0
 73 69  1  0
 74 75  2  0
 75 76  1  0
 77 76  2  0
 78 77  1  0
 79 53  1  0
 79 80  1  0
 79 89  1  0
 80 83  1  0
 81 85  1  0
 81 80  1  0
 82 81  2  0
 85 84  1  0
 87 85  1  0
 87 88  1  0
 87 86  1  0
 89 92  1  1
 89 90  1  0
 91 89  1  0
M  ISO  4   7 100  16 100  51 101  52 101
M  END
>  <TORSDO>  (56) 
F 24

>  <SCORE>  (56) 
-12.143

>  <name>  (56) 
55

>  <ligand_id>  (56) 
55

>  <original_smiles>  (56) 
[H]c1c([H])c([H])c2c(c1[H])C([H])([H])C([H])([H])C([H])([H])C2([H])N([H])C(=O)C1([H])N(C(=O)C([H])(N([H])C(=O)C([H])(N([H])C([H])([H])[H])C([H])([H])[H])C(C([H])([H])[H])(C([H])([H])[H])C([H])([H])[H])C([H])([H])c2c([H])c(OC([H])([H])C([H])([H])C([H])([H])C([H])([H])C([H])([H])C(=O)C([H])(C([H])([H])[H])C([H])([H])C([H])([H])C(=O)N([H])C(=O)N3C([H])([H])C([H])([H])C([H])([H])C([H])(n4nc(-c5c([H])c([H])c(Oc6c([H])c([H])c(F)c([H])c6F)c([H])c5[H])c(C(=O)N([H])[H])c4N([H])[H])C3([H])[H])c([H])c([H])c2C1([H])[H]

>  <smiles>  (56) 
[H]c1c([H])c([H])c2c(c1[H])C([H])([H])C([H])([H])C([H])([H])C2([H])N([H])C(=O)C1([H])N(C(=O)C([H])(N([H])C(=O)C([H])(N([H])C([H])([H])[H])C([H])([H])[H])C(C([H])([H])[H])(C([H])([H])[H])C([H])([H])[H])C([H])([H])c2c([H])c(OC([H])([H])C([H])([H])C([H])([H])C([H])([H])C([H])([H])C(=O)C([H])(C([H])([H])[H])C([H])([H])C([H])([H])C(=O)N([H])C(=O)N3C([H])([H])C([H])([H])C([H])([H])C([H])(n4nc(-c5c([H])c([H])c(Oc6c([H])c([H])c(F)c([H])c6F)c([H])c5[H])c(C(=O)N([H])[H])c4N([H])[H])C3([H])[H])c([H])c([H])c2C1([H])[H]

$$$$
56:0:0
     RDKit          3D

 95103  0  0  1  0  0  0  0  0999 V2000
  -30.1720  -22.0220   23.6580 C   0  0  0  0  0  2  0  0  0  0  0  0
  -29.5500  -23.4380   23.6280 C   0  0  0  0  0  2  0  0  0  0  0  0
  -28.4050  -22.9210   21.5070 C   0  0  0  0  0  2  0  0  0  0  0  0
  -29.4930  -20.9790   22.7120 C   0  0  0  0  0  3  0  0  0  0  0  0
  -29.3880  -23.9050   22.1690 C   0  0  0  0  0  3  0  0  0  0  0  0
  -29.0070  -21.5760   21.4420 N   0  0  0  0  0  4  0  0  0  0  0  0
  -29.8280  -21.6020   20.8540 H   0  0  0  0  0  0  0  0  0  0  0  0
  -28.3600  -20.9390   21.0080 H   0  0  0  0  0  0  0  0  0  0  0  0
  -30.5350  -19.9540   22.2100 C   0  0  0  0  0  0  0  0  0  0  0  0
  -31.2770  -20.2290   21.2610 O   0  0  0  0  0  0  0  0  0  0  0  0
  -30.6390  -18.5770   22.8870 C   0  0  0  0  0  2  0  0  0  0  0  0
  -31.6330  -17.5790   22.2240 C   0  0  0  0  0  2  0  0  0  0  0  0
  -31.2100  -16.9800   20.8570 C   0  0  0  0  0  2  0  0  0  0  0  0
  -31.3840  -14.5920   20.1200 C   0  0  0  0  0  0  0  0  0  0  0  0
  -30.9730  -12.4180   19.0190 C   0  0  0  0  0  2  0  0  0  0  0  0
  -30.0030  -12.5890   17.8340 C   0  0  0  0  0  2  0  0  0  0  0  0
  -28.5400  -12.5070   18.3070 C   0  0  0  0  0  2  0  0  0  0  0  0
  -28.2590  -13.4170   19.5310 C   0  0  0  0  0  3  0  0  0  0  0  0
  -29.3300  -13.2150   20.6270 C   0  0  0  0  0  2  0  0  0  0  0  0
  -30.6590  -13.4440   20.0290 N   0  0  0  0  0  0  0  0  0  0  0  0
  -32.4160  -14.7840   19.4720 O   0  0  0  0  0  0  0  0  0  0  0  0
  -30.8640  -15.5510   20.9100 N   0  0  0  0  0  0  0  0  0  0  0  0
  -30.0430  -15.2970   21.4390 H   0  0  0  0  0  0  0  0  0  0  0  0
  -25.9470  -14.1430   20.4100 C   0  0  0  0  0  0  0  0  0  0  0  0
  -24.8400  -13.4230   20.7750 C   0  0  0  0  0  0  0  0  0  0  0  0
  -25.1910  -12.0490   20.6110 C   0  0  0  0  0  0  0  0  0  0  0  0
  -26.9080  -13.2090   20.0520 N   0  0  0  0  0  0  0  0  0  0  0  0
  -26.4580  -11.9410   20.2290 N   0  0  0  0  0  0  0  0  0  0  0  0
  -24.3800  -10.8310   20.7430 C   0  0  0  0  0  0  0  0  0  0  0  0
  -24.7570   -9.7840   21.6120 C   0  0  0  0  0  3  0  0  0  0  0  0
  -23.9500   -8.6310   21.7330 C   0  0  0  0  0  3  0  0  0  0  0  0
  -22.7550   -8.5190   20.9840 C   0  0  0  0  0  0  0  0  0  0  0  0
  -22.3980   -9.5550   20.1050 C   0  0  0  0  0  3  0  0  0  0  0  0
  -23.2030  -10.7000   19.9800 C   0  0  0  0  0  3  0  0  0  0  0  0
  -21.9230   -7.4250   21.0190 O   0  0  0  0  0  0  0  0  0  0  0  0
  -21.7670   -6.6770   22.1580 C   0  0  0  0  0  0  0  0  0  0  0  0
  -21.3220   -7.2480   23.3700 C   0  0  0  0  0  3  0  0  0  0  0  0
  -21.1060   -6.4300   24.4960 C   0  0  0  0  0  3  0  0  0  0  0  0
  -21.3270   -5.0420   24.4130 C   0  0  0  0  0  0  0  0  0  0  0  0
  -21.7640   -4.4700   23.2040 C   0  0  0  0  0  3  0  0  0  0  0  0
  -21.9800   -5.2860   22.0790 C   0  0  0  0  0  0  0  0  0  0  0  0
  -22.3820   -4.7280   20.9120 F   0  0  0  0  0  0  0  0  0  0  0  0
  -21.1130   -4.2530   25.4910 F   0  0  0  0  0  0  0  0  0  0  0  0
  -23.5000  -13.9790   21.1610 C   0  0  0  0  0  0  0  0  0  0  0  0
  -22.7760  -13.2810   22.0320 N   0  0  0  0  0  0  0  0  0  0  0  0
  -23.1070  -15.0630   20.7290 O   0  0  0  0  0  0  0  0  0  0  0  0
  -23.1060  -12.4010   22.3970 H   0  0  0  0  0  0  0  0  0  0  0  0
  -21.8790  -13.6330   22.3310 H   0  0  0  0  0  0  0  0  0  0  0  0
  -26.2070  -15.5070   20.3280 N   0  0  0  0  0  0  0  0  0  0  0  0
  -25.5000  -16.2080   20.5230 H   0  0  0  0  0  0  0  0  0  0  0  0
  -27.0740  -15.9070   19.9900 H   0  0  0  0  0  0  0  0  0  0  0  0
  -27.8330  -25.8810   22.8080 C   0  0  0  0  0  1  0  0  0  0  0  0
  -29.0490  -25.4110   21.9830 C   0  0  0  0  0  3  0  0  0  0  0  0
  -28.9360  -25.7630   20.4710 C   0  0  0  0  0  2  0  0  0  0  0  0
  -28.9070  -27.1680   20.2270 O   0  0  0  0  0  0  0  0  0  0  0  0
  -24.6680  -31.9090   23.3230 C   0  0  0  0  0  0  0  0  0  0  0  0
  -27.6770  -27.7800   20.1830 C   0  0  0  0  0  0  0  0  0  0  0  0
  -23.6000  -30.5170   21.5770 C   0  0  0  0  0  3  0  0  0  0  0  0
  -25.1920  -29.1220   20.1520 C   0  0  0  0  0  0  0  0  0  0  0  0
  -26.1030  -31.0350   21.4870 C   0  0  0  0  0  2  0  0  0  0  0  0
  -26.2920  -29.7000   20.7960 C   0  0  0  0  0  0  0  0  0  0  0  0
  -27.5370  -29.0420   20.8010 C   0  0  0  0  0  3  0  0  0  0  0  0
  -26.5640  -27.2110   19.5260 C   0  0  0  0  0  3  0  0  0  0  0  0
  -25.3210  -27.8730   19.5160 C   0  0  0  0  0  3  0  0  0  0  0  0
  -23.8970  -29.8990   20.1850 C   0  0  0  0  0  2  0  0  0  0  0  0
  -24.8060  -31.1630   22.1910 N   0  0  0  0  0  0  0  0  0  0  0  0
  -23.5540  -32.1020   23.8300 O   0  0  0  0  0  0  0  0  0  0  0  0
  -22.9690  -29.4230   22.4670 C   0  0  0  0  0  0  0  0  0  0  0  0
  -21.6520  -29.2180   22.3200 N   0  0  0  0  0  0  0  0  0  0  0  0
  -23.6630  -28.7610   23.2440 O   0  0  0  0  0  0  0  0  0  0  0  0
  -21.1490  -29.8160   21.6790 H   0  0  0  0  0  0  0  0  0  0  0  0
  -18.2930  -27.9600   22.7440 C   0  0  0  0  0  0  0  0  0  0  0  0
  -20.8500  -28.2140   23.0170 C   0  0  0  0  0  3  0  0  0  0  0  0
  -20.9570  -26.8350   22.3250 C   0  0  0  0  0  2  0  0  0  0  0  0
  -19.8480  -26.5880   21.2970 C   0  0  0  0  0  2  0  0  0  0  0  0
  -18.4720  -26.6690   21.9640 C   0  0  0  0  0  2  0  0  0  0  0  0
  -19.4100  -28.6950   23.2240 C   0  0  0  0  0  0  0  0  0  0  0  0
  -19.1900  -29.9100   23.9080 C   0  0  0  0  0  3  0  0  0  0  0  0
  -17.8840  -30.3880   24.1220 C   0  0  0  0  0  3  0  0  0  0  0  0
  -16.7800  -29.6470   23.6620 C   0  0  0  0  0  3  0  0  0  0  0  0
  -16.9870  -28.4360   22.9770 C   0  0  0  0  0  3  0  0  0  0  0  0
  -25.8950  -32.5770   24.0180 C   0  0  0  0  0  3  0  0  0  0  0  0
  -25.5320  -33.9680   24.3150 N   0  0  0  0  0  0  0  0  0  0  0  0
  -25.8880  -35.0220   23.5690 C   0  0  0  0  0  0  0  0  0  0  0  0
  -26.6280  -34.9280   22.5840 O   0  0  0  0  0  0  0  0  0  0  0  0
  -24.8810  -34.1130   25.0730 H   0  0  0  0  0  0  0  0  0  0  0  0
  -24.1410  -36.7650   23.0880 C   0  0  0  0  0  1  0  0  0  0  0  0
  -25.3380  -36.4010   23.9790 C   0  0  0  0  0  3  0  0  0  0  0  0
  -27.3920  -37.3480   24.9350 C   0  0  0  0  0  1  0  0  0  0  0  0
  -26.3480  -37.4790   23.9210 N   0  0  0  0  0  0  0  0  0  0  0  0
  -25.9100  -38.3880   24.0340 H   0  0  0  0  0  0  0  0  0  0  0  0
  -26.3480  -31.8280   25.3310 C   0  0  1  0  0  0  0  0  0  0  0  0
  -25.1970  -31.5540   26.3290 C   0  0  0  0  0  1  0  0  0  0  0  0
  -27.0020  -30.4690   24.9800 C   0  0  0  0  0  1  0  0  0  0  0  0
  -27.4180  -32.6670   26.0700 C   0  0  0  0  0  1  0  0  0  0  0  0
  2  1  1  0
  3  5  1  0
  4  9  1  0
  4  1  1  0
  5 53  1  0
  5  2  1  0
  6  3  1  0
  6  4  1  0
  7  6  1  0
  8  6  1  0
  9 11  1  0
 10  9  2  0
 12 11  1  0
 13 22  1  0
 13 12  1  0
 14 22  1  0
 15 20  1  0
 16 17  1  0
 16 15  1  0
 18 17  1  0
 18 27  1  0
 18 19  1  0
 20 14  1  0
 20 19  1  0
 21 14  2  0
 22 23  1  0
 24 25  2  0
 25 44  1  0
 26 29  1  0
 26 25  1  0
 27 28  1  0
 27 24  1  0
 28 26  2  0
 29 30  1  0
 30 31  2  0
 32 35  1  0
 32 31  1  0
 33 32  2  0
 34 33  1  0
 34 29  2  0
 35 36  1  0
 36 37  1  0
 37 38  2  0
 39 38  1  0
 39 43  1  0
 40 39  2  0
 41 36  2  0
 41 40  1  0
 42 41  1  0
 44 45  1  0
 45 48  1  0
 45 47  1  0
 46 44  2  0
 49 24  1  0
 49 50  1  0
 51 49  1  0
 53 52  1  0
 54 53  1  0
 55 54  1  0
 56 67  2  0
 57 55  1  0
 57 62  1  0
 58 66  1  0
 58 68  1  0
 59 65  1  0
 59 61  1  0
 60 66  1  0
 61 62  2  0
 61 60  1  0
 63 57  2  0
 64 63  1  0
 64 59  2  0
 65 58  1  0
 66 56  1  0
 68 70  2  0
 69 68  1  0
 71 69  1  0
 72 81  2  0
 72 77  1  0
 73 69  1  0
 73 77  1  0
 74 73  1  0
 75 76  1  0
 75 74  1  0
 76 72  1  0
 77 78  2  0
 78 79  1  0
 80 79  2  0
 81 80  1  0
 82 56  1  0
 82 83  1  0
 82 92  1  0
 83 86  1  0
 84 88  1  0
 84 83  1  0
 85 84  2  0
 88 87  1  0
 90 88  1  0
 90 91  1  0
 90 89  1  0
 92 95  1  1
 92 93  1  0
 94 92  1  0
M  ISO  4  14 100  22 100  54 101  55 101
M  END
>  <TORSDO>  (57) 
F 22

>  <SCORE>  (57) 
-11.179

>  <name>  (57) 
56

>  <ligand_id>  (57) 
56

>  <original_smiles>  (57) 
[H]c1c([H])c([H])c2c(c1[H])C([H])([H])C([H])([H])C([H])([H])C2([H])N([H])C(=O)C1([H])N(C(=O)C([H])(N([H])C(=O)C([H])(N([H])C([H])([H])[H])C([H])([H])[H])C(C([H])([H])[H])(C([H])([H])[H])C([H])([H])[H])C([H])([H])c2c([H])c(OC([H])([H])C([H])(C([H])([H])[H])C3([H])C([H])([H])C([H])([H])C([H])(C(=O)C([H])([H])C([H])([H])C([H])([H])N([H])C(=O)N4C([H])([H])C([H])([H])C([H])([H])C([H])(n5nc(-c6c([H])c([H])c(Oc7c([H])c([H])c(F)c([H])c7F)c([H])c6[H])c(C(=O)N([H])[H])c5N([H])[H])C4([H])[H])[N+]([H])([H])C3([H])[H])c([H])c([H])c2C1([H])[H]

>  <smiles>  (57) 
[H]c1c([H])c([H])c2c(c1[H])C([H])([H])C([H])([H])C([H])([H])C2([H])N([H])C(=O)C1([H])N(C(=O)C([H])(N([H])C(=O)C([H])(N([H])C([H])([H])[H])C([H])([H])[H])C(C([H])([H])[H])(C([H])([H])[H])C([H])([H])[H])C([H])([H])c2c([H])c(OC([H])([H])C([H])(C([H])([H])[H])C3([H])C([H])([H])C([H])([H])C([H])(C(=O)C([H])([H])C([H])([H])C([H])([H])N([H])C(=O)N4C([H])([H])C([H])([H])C([H])([H])C([H])(n5nc(-c6c([H])c([H])c(Oc7c([H])c([H])c(F)c([H])c7F)c([H])c6[H])c(C(=O)N([H])[H])c5N([H])[H])C4([H])[H])[N+]([H])([H])C3([H])[H])c([H])c([H])c2C1([H])[H]

$$$$
57:0:0
     RDKit          3D

 91 98  0  0  1  0  0  0  0  0999 V2000
  -27.1080  -19.4700   19.2160 C   0  0  0  0  0  1  0  0  0  0  0  0
  -28.2450  -20.4760   18.9710 C   0  0  0  0  0  3  0  0  0  0  0  0
  -28.1620  -21.7060   19.9160 C   0  0  0  0  0  2  0  0  0  0  0  0
  -28.4170  -23.0520   19.2000 C   0  0  0  0  0  2  0  0  0  0  0  0
  -28.3240  -24.2930   20.1150 C   0  0  0  0  0  2  0  0  0  0  0  0
  -28.6330  -25.6070   19.3630 C   0  0  0  0  0  2  0  0  0  0  0  0
  -28.4430  -26.7680   20.1780 O   0  0  0  0  0  0  0  0  0  0  0  0
  -24.5860  -31.8840   23.2470 C   0  0  0  0  0  0  0  0  0  0  0  0
  -27.2330  -27.4370   20.1710 C   0  0  0  0  0  0  0  0  0  0  0  0
  -23.3780  -30.4830   21.6020 C   0  0  0  0  0  3  0  0  0  0  0  0
  -24.8290  -28.9340   20.1870 C   0  0  0  0  0  0  0  0  0  0  0  0
  -25.9020  -30.8370   21.4060 C   0  0  0  0  0  2  0  0  0  0  0  0
  -25.9850  -29.4610   20.7790 C   0  0  0  0  0  0  0  0  0  0  0  0
  -27.1830  -28.7160   20.7710 C   0  0  0  0  0  3  0  0  0  0  0  0
  -26.0510  -26.9130   19.5950 C   0  0  0  0  0  3  0  0  0  0  0  0
  -24.8560  -27.6590   19.5980 C   0  0  0  0  0  3  0  0  0  0  0  0
  -23.5900  -29.7990   20.2240 C   0  0  0  0  0  2  0  0  0  0  0  0
  -24.6410  -31.0850   22.1450 N   0  0  0  0  0  0  0  0  0  0  0  0
  -23.5050  -32.1580   23.7860 O   0  0  0  0  0  0  0  0  0  0  0  0
  -22.7220  -29.4650   22.5640 C   0  0  0  0  0  0  0  0  0  0  0  0
  -21.3960  -29.2910   22.4390 N   0  0  0  0  0  0  0  0  0  0  0  0
  -23.4030  -28.8380   23.3790 O   0  0  0  0  0  0  0  0  0  0  0  0
  -20.9070  -29.8520   21.7560 H   0  0  0  0  0  0  0  0  0  0  0  0
  -18.0190  -28.1070   22.9340 C   0  0  0  0  0  0  0  0  0  0  0  0
  -20.5760  -28.3570   23.2110 C   0  0  0  0  0  3  0  0  0  0  0  0
  -20.6740  -26.9240   22.6400 C   0  0  0  0  0  2  0  0  0  0  0  0
  -19.5730  -26.6030   21.6230 C   0  0  0  0  0  2  0  0  0  0  0  0
  -18.1900  -26.7560   22.2640 C   0  0  0  0  0  2  0  0  0  0  0  0
  -19.1390  -28.8660   23.3660 C   0  0  0  0  0  0  0  0  0  0  0  0
  -18.9250  -30.1320   23.9520 C   0  0  0  0  0  3  0  0  0  0  0  0
  -17.6210  -30.6390   24.1130 C   0  0  0  0  0  3  0  0  0  0  0  0
  -16.5150  -29.8780   23.6960 C   0  0  0  0  0  3  0  0  0  0  0  0
  -16.7140  -28.6150   23.1130 C   0  0  0  0  0  3  0  0  0  0  0  0
  -25.8750  -32.5130   23.8660 C   0  0  0  0  0  3  0  0  0  0  0  0
  -26.3920  -31.7400   25.1410 C   0  0  1  0  0  0  0  0  0  0  0  0
  -25.3040  -31.5080   26.2130 C   0  0  0  0  0  1  0  0  0  0  0  0
  -26.9660  -30.3580   24.7460 C   0  0  0  0  0  1  0  0  0  0  0  0
  -27.5450  -32.5300   25.8020 C   0  0  0  0  0  1  0  0  0  0  0  0
  -25.5690  -33.9130   24.1960 N   0  0  0  0  0  0  0  0  0  0  0  0
  -25.9020  -34.9640   23.4350 C   0  0  0  0  0  0  0  0  0  0  0  0
  -26.5710  -34.8580   22.4030 O   0  0  0  0  0  0  0  0  0  0  0  0
  -24.9820  -34.0710   25.0020 H   0  0  0  0  0  0  0  0  0  0  0  0
  -24.1750  -36.7570   23.0710 C   0  0  0  0  0  1  0  0  0  0  0  0
  -25.4140  -36.3530   23.8880 C   0  0  0  0  0  3  0  0  0  0  0  0
  -27.5520  -37.2350   24.7160 C   0  0  0  0  0  1  0  0  0  0  0  0
  -26.4480  -37.4060   23.7740 N   0  0  0  0  0  0  0  0  0  0  0  0
  -26.0420  -38.3250   23.9220 H   0  0  0  0  0  0  0  0  0  0  0  0
  -29.6520  -19.8220   18.8940 C   0  0  0  0  0  2  0  0  0  0  0  0
  -30.0510  -19.0360   20.0930 N   0  0  0  0  0  4  0  0  0  0  0  0
  -31.0520  -19.1340   20.1780 H   0  0  0  0  0  0  0  0  0  0  0  0
  -29.6460  -19.4440   20.9200 H   0  0  0  0  0  0  0  0  0  0  0  0
  -29.7670  -17.5800   20.0290 C   0  0  0  0  0  2  0  0  0  0  0  0
  -30.2940  -16.8020   21.2610 C   0  0  0  0  0  2  0  0  0  0  0  0
  -30.6690  -14.4230   20.5380 C   0  0  0  0  0  0  0  0  0  0  0  0
  -30.3700  -12.3030   19.3200 C   0  0  0  0  0  2  0  0  0  0  0  0
  -29.4320  -12.5570   18.1220 C   0  0  0  0  0  2  0  0  0  0  0  0
  -27.9540  -12.4210   18.5420 C   0  0  0  0  0  2  0  0  0  0  0  0
  -27.6290  -13.2280   19.8270 C   0  0  0  0  0  3  0  0  0  0  0  0
  -28.6710  -12.9390   20.9300 C   0  0  0  0  0  2  0  0  0  0  0  0
  -30.0030  -13.2500   20.3810 N   0  0  0  0  0  0  0  0  0  0  0  0
  -31.7660  -14.6640   20.0210 O   0  0  0  0  0  0  0  0  0  0  0  0
  -29.9720  -15.3730   21.1780 N   0  0  0  0  0  0  0  0  0  0  0  0
  -29.0790  -15.0820   21.5490 H   0  0  0  0  0  0  0  0  0  0  0  0
  -25.2280  -13.8620   20.5070 C   0  0  0  0  0  0  0  0  0  0  0  0
  -24.1510  -13.1000   20.8700 C   0  0  0  0  0  0  0  0  0  0  0  0
  -24.6020  -11.7440   20.8510 C   0  0  0  0  0  0  0  0  0  0  0  0
  -26.2680  -12.9710   20.2920 N   0  0  0  0  0  0  0  0  0  0  0  0
  -25.8930  -11.6920   20.5530 N   0  0  0  0  0  0  0  0  0  0  0  0
  -23.8670  -10.4900   21.0490 C   0  0  0  0  0  0  0  0  0  0  0  0
  -24.3070   -9.5200   21.9760 C   0  0  0  0  0  3  0  0  0  0  0  0
  -23.5810   -8.3260   22.1640 C   0  0  0  0  0  3  0  0  0  0  0  0
  -22.3970   -8.0930   21.4220 C   0  0  0  0  0  0  0  0  0  0  0  0
  -21.9750   -9.0510   20.4850 C   0  0  0  0  0  3  0  0  0  0  0  0
  -22.7020  -10.2380   20.2980 C   0  0  0  0  0  3  0  0  0  0  0  0
  -21.6390   -6.9530   21.5170 O   0  0  0  0  0  0  0  0  0  0  0  0
  -21.6160   -6.1970   22.6600 C   0  0  0  0  0  0  0  0  0  0  0  0
  -21.2420   -6.7450   23.9050 C   0  0  0  0  0  3  0  0  0  0  0  0
  -21.1610   -5.9140   25.0430 C   0  0  0  0  0  3  0  0  0  0  0  0
  -21.4460   -4.5410   24.9340 C   0  0  0  0  0  0  0  0  0  0  0  0
  -21.8180   -3.9940   23.6930 C   0  0  0  0  0  3  0  0  0  0  0  0
  -21.8980   -4.8200   22.5580 C   0  0  0  0  0  0  0  0  0  0  0  0
  -22.2330   -4.2860   21.3580 F   0  0  0  0  0  0  0  0  0  0  0  0
  -21.3620   -3.7420   26.0230 F   0  0  0  0  0  0  0  0  0  0  0  0
  -22.7570  -13.5870   21.1360 C   0  0  0  0  0  0  0  0  0  0  0  0
  -22.0270  -12.9000   22.0060 N   0  0  0  0  0  0  0  0  0  0  0  0
  -22.3260  -14.6120   20.6090 O   0  0  0  0  0  0  0  0  0  0  0  0
  -22.3890  -12.0660   22.4440 H   0  0  0  0  0  0  0  0  0  0  0  0
  -21.0940  -13.2120   22.2380 H   0  0  0  0  0  0  0  0  0  0  0  0
  -25.4030  -15.2320   20.3290 N   0  0  0  0  0  0  0  0  0  0  0  0
  -24.6400  -15.8870   20.4560 H   0  0  0  0  0  0  0  0  0  0  0  0
  -26.2650  -15.6770   20.0430 H   0  0  0  0  0  0  0  0  0  0  0  0
  2  1  1  0
  2  3  1  0
  4  3  1  0
  4  5  1  0
  6  5  1  0
  6  7  1  0
  8 19  2  0
  9  7  1  0
  9 14  1  0
 10 18  1  0
 10 20  1  0
 11 17  1  0
 11 13  1  0
 12 18  1  0
 13 12  1  0
 14 13  2  0
 15 16  1  0
 15  9  2  0
 16 11  2  0
 17 10  1  0
 18  8  1  0
 20 22  2  0
 21 20  1  0
 23 21  1  0
 24 33  2  0
 24 29  1  0
 25 21  1  0
 25 29  1  0
 26 25  1  0
 27 28  1  0
 27 26  1  0
 28 24  1  0
 29 30  2  0
 30 31  1  0
 32 31  2  0
 33 32  1  0
 34  8  1  0
 34 39  1  0
 34 35  1  0
 35 38  1  1
 35 36  1  0
 37 35  1  0
 39 42  1  0
 40 44  1  0
 40 39  1  0
 41 40  2  0
 44 43  1  0
 46 44  1  0
 46 47  1  0
 46 45  1  0
 48  2  1  0
 48 49  1  0
 49 50  1  0
 49 51  1  0
 52 49  1  0
 52 53  1  0
 54 62  1  0
 55 60  1  0
 56 57  1  0
 56 55  1  0
 58 57  1  0
 58 67  1  0
 58 59  1  0
 60 54  1  0
 60 59  1  0
 61 54  2  0
 62 53  1  0
 62 63  1  0
 64 65  2  0
 65 84  1  0
 66 65  1  0
 66 69  1  0
 67 64  1  0
 67 68  1  0
 68 66  2  0
 69 70  1  0
 70 71  2  0
 72 75  1  0
 72 71  1  0
 73 72  2  0
 74 73  1  0
 74 69  2  0
 75 76  1  0
 76 77  1  0
 77 78  2  0
 79 78  1  0
 79 83  1  0
 80 79  2  0
 81 76  2  0
 81 80  1  0
 82 81  1  0
 84 85  1  0
 85 88  1  0
 85 87  1  0
 86 84  2  0
 89 90  1  0
 89 64  1  0
 91 89  1  0
M  ISO  4   6 101   7 101  54 100  62 100
M  END
>  <TORSDO>  (58) 
F 24

>  <SCORE>  (58) 
-12.402

>  <name>  (58) 
57

>  <ligand_id>  (58) 
57

>  <original_smiles>  (58) 
[H]c1c([H])c([H])c2c(c1[H])C([H])([H])C([H])([H])C([H])([H])C2([H])N([H])C(=O)C1([H])N(C(=O)C([H])(N([H])C(=O)C([H])(N([H])C([H])([H])[H])C([H])([H])[H])C(C([H])([H])[H])(C([H])([H])[H])C([H])([H])[H])C([H])([H])c2c([H])c(OC([H])([H])C([H])([H])C([H])([H])C([H])([H])C([H])(C([H])([H])[H])C([H])([H])[N+]([H])([H])C([H])([H])C([H])([H])N([H])C(=O)N3C([H])([H])C([H])([H])C([H])([H])C([H])(n4nc(-c5c([H])c([H])c(Oc6c([H])c([H])c(F)c([H])c6F)c([H])c5[H])c(C(=O)N([H])[H])c4N([H])[H])C3([H])[H])c([H])c([H])c2C1([H])[H]

>  <smiles>  (58) 
[H]c1c([H])c([H])c2c(c1[H])C([H])([H])C([H])([H])C([H])([H])C2([H])N([H])C(=O)C1([H])N(C(=O)C([H])(N([H])C(=O)C([H])(N([H])C([H])([H])[H])C([H])([H])[H])C(C([H])([H])[H])(C([H])([H])[H])C([H])([H])[H])C([H])([H])c2c([H])c(OC([H])([H])C([H])([H])C([H])([H])C([H])([H])C([H])(C([H])([H])[H])C([H])([H])[N+]([H])([H])C([H])([H])C([H])([H])N([H])C(=O)N3C([H])([H])C([H])([H])C([H])([H])C([H])(n4nc(-c5c([H])c([H])c(Oc6c([H])c([H])c(F)c([H])c6F)c([H])c5[H])c(C(=O)N([H])[H])c4N([H])[H])C3([H])[H])c([H])c([H])c2C1([H])[H]

$$$$
58:0:0
     RDKit          3D

 92 99  0  0  1  0  0  0  0  0999 V2000
  -29.6640  -23.2540   20.8000 C   0  0  0  0  0  3  0  0  0  0  0  0
  -29.1260  -24.4720   20.0240 C   0  0  0  0  0  0  0  0  0  0  0  0
  -29.3140  -24.6030   18.8110 O   0  0  0  0  0  0  0  0  0  0  0  0
  -28.3690  -25.5290   20.8320 C   0  0  0  0  0  2  0  0  0  0  0  0
  -28.4400  -26.7940   20.1730 O   0  0  0  0  0  0  0  0  0  0  0  0
  -24.6070  -31.9070   23.2530 C   0  0  0  0  0  0  0  0  0  0  0  0
  -27.2650  -27.4960   20.1810 C   0  0  0  0  0  0  0  0  0  0  0  0
  -23.4030  -30.5050   21.6070 C   0  0  0  0  0  3  0  0  0  0  0  0
  -24.8620  -28.9710   20.1850 C   0  0  0  0  0  0  0  0  0  0  0  0
  -25.9240  -30.8790   21.4070 C   0  0  0  0  0  2  0  0  0  0  0  0
  -26.0160  -29.5100   20.7690 C   0  0  0  0  0  0  0  0  0  0  0  0
  -27.2230  -28.7810   20.7620 C   0  0  0  0  0  3  0  0  0  0  0  0
  -26.0990  -26.9600   19.5960 C   0  0  0  0  0  3  0  0  0  0  0  0
  -24.8980  -27.6950   19.5940 C   0  0  0  0  0  3  0  0  0  0  0  0
  -23.6150  -29.8230   20.2280 C   0  0  0  0  0  2  0  0  0  0  0  0
  -24.6630  -31.1110   22.1480 N   0  0  0  0  0  0  0  0  0  0  0  0
  -23.5260  -32.1770   23.7950 O   0  0  0  0  0  0  0  0  0  0  0  0
  -22.7550  -29.4810   22.5670 C   0  0  0  0  0  0  0  0  0  0  0  0
  -21.4320  -29.2980   22.4380 N   0  0  0  0  0  0  0  0  0  0  0  0
  -23.4400  -28.8550   23.3810 O   0  0  0  0  0  0  0  0  0  0  0  0
  -20.9420  -29.8520   21.7500 H   0  0  0  0  0  0  0  0  0  0  0  0
  -18.0580  -28.0990   22.9200 C   0  0  0  0  0  0  0  0  0  0  0  0
  -20.6150  -28.3600   23.2060 C   0  0  0  0  0  3  0  0  0  0  0  0
  -20.7220  -26.9290   22.6320 C   0  0  0  0  0  2  0  0  0  0  0  0
  -19.6270  -26.6040   21.6130 C   0  0  0  0  0  2  0  0  0  0  0  0
  -18.2410  -26.7480   22.2500 C   0  0  0  0  0  2  0  0  0  0  0  0
  -19.1730  -28.8630   23.3550 C   0  0  0  0  0  0  0  0  0  0  0  0
  -18.9500  -30.1290   23.9410 C   0  0  0  0  0  3  0  0  0  0  0  0
  -17.6440  -30.6290   24.0960 C   0  0  0  0  0  3  0  0  0  0  0  0
  -16.5430  -29.8610   23.6780 C   0  0  0  0  0  3  0  0  0  0  0  0
  -16.7510  -28.5990   23.0950 C   0  0  0  0  0  3  0  0  0  0  0  0
  -25.8950  -32.5370   23.8740 C   0  0  0  0  0  3  0  0  0  0  0  0
  -26.4140  -31.7620   25.1460 C   0  0  1  0  0  0  0  0  0  0  0  0
  -25.3260  -31.5220   26.2170 C   0  0  0  0  0  1  0  0  0  0  0  0
  -26.9950  -30.3860   24.7460 C   0  0  0  0  0  1  0  0  0  0  0  0
  -27.5670  -32.5550   25.8070 C   0  0  0  0  0  1  0  0  0  0  0  0
  -25.5870  -33.9350   24.2040 N   0  0  0  0  0  0  0  0  0  0  0  0
  -25.9180  -34.9850   23.4410 C   0  0  0  0  0  0  0  0  0  0  0  0
  -26.5870  -34.8800   22.4080 O   0  0  0  0  0  0  0  0  0  0  0  0
  -24.9900  -34.0910   25.0030 H   0  0  0  0  0  0  0  0  0  0  0  0
  -24.1820  -36.7710   23.0890 C   0  0  0  0  0  1  0  0  0  0  0  0
  -25.4300  -36.3740   23.8950 C   0  0  0  0  0  3  0  0  0  0  0  0
  -27.5700  -37.2650   24.7040 C   0  0  0  0  0  1  0  0  0  0  0  0
  -26.4600  -37.4290   23.7710 N   0  0  0  0  0  0  0  0  0  0  0  0
  -26.0530  -38.3490   23.9200 H   0  0  0  0  0  0  0  0  0  0  0  0
  -31.8350  -22.2310   21.8030 C   0  0  0  0  0  1  0  0  0  0  0  0
  -31.1790  -23.4180   21.0790 C   0  0  0  0  0  2  0  0  0  0  0  0
  -29.2860  -21.8960   20.1490 C   0  0  0  0  0  2  0  0  0  0  0  0
  -29.9680  -21.5820   18.7960 C   0  0  0  0  0  2  0  0  0  0  0  0
  -30.1380  -19.0660   19.2630 C   0  0  0  0  0  3  0  0  0  0  0  0
  -30.0410  -20.1100   18.4210 C   0  0  0  0  0  3  0  0  0  0  0  0
  -30.2430  -17.6260   18.8110 C   0  0  0  0  0  2  0  0  0  0  0  0
  -29.0450  -16.7700   19.2630 C   0  0  0  0  0  2  0  0  0  0  0  0
  -29.0910  -16.2820   20.7340 C   0  0  0  0  0  2  0  0  0  0  0  0
  -30.7000  -14.4320   20.2570 C   0  0  0  0  0  0  0  0  0  0  0  0
  -30.2930  -12.3250   19.0480 C   0  0  0  0  0  2  0  0  0  0  0  0
  -29.3210  -12.5600   17.8760 C   0  0  0  0  0  2  0  0  0  0  0  0
  -27.8630  -12.4170   18.3490 C   0  0  0  0  0  2  0  0  0  0  0  0
  -27.5690  -13.2410   19.6310 C   0  0  0  0  0  3  0  0  0  0  0  0
  -28.6550  -13.0060   20.7050 C   0  0  0  0  0  2  0  0  0  0  0  0
  -29.9630  -13.2990   20.0980 N   0  0  0  0  0  0  0  0  0  0  0  0
  -31.7940  -14.6010   19.7200 O   0  0  0  0  0  0  0  0  0  0  0  0
  -30.2120  -15.3890   21.0600 N   0  0  0  0  0  0  0  0  0  0  0  0
  -30.9640  -15.9110   21.4870 H   0  0  0  0  0  0  0  0  0  0  0  0
  -25.1920  -13.8620   20.3990 C   0  0  0  0  0  0  0  0  0  0  0  0
  -24.1340  -13.0920   20.8020 C   0  0  0  0  0  0  0  0  0  0  0  0
  -24.5940  -11.7400   20.7680 C   0  0  0  0  0  0  0  0  0  0  0  0
  -26.2300  -12.9770   20.1480 N   0  0  0  0  0  0  0  0  0  0  0  0
  -25.8750  -11.6970   20.4270 N   0  0  0  0  0  0  0  0  0  0  0  0
  -23.8720  -10.4800   20.9830 C   0  0  0  0  0  0  0  0  0  0  0  0
  -24.3380   -9.5090   21.8970 C   0  0  0  0  0  3  0  0  0  0  0  0
  -23.6160   -8.3140   22.1000 C   0  0  0  0  0  3  0  0  0  0  0  0
  -22.4150   -8.0800   21.3880 C   0  0  0  0  0  0  0  0  0  0  0  0
  -21.9690   -9.0380   20.4620 C   0  0  0  0  0  3  0  0  0  0  0  0
  -22.6910  -10.2260   20.2570 C   0  0  0  0  0  3  0  0  0  0  0  0
  -21.6640   -6.9350   21.5020 O   0  0  0  0  0  0  0  0  0  0  0  0
  -21.6650   -6.1830   22.6470 C   0  0  0  0  0  0  0  0  0  0  0  0
  -21.3160   -6.7340   23.9000 C   0  0  0  0  0  3  0  0  0  0  0  0
  -21.2640   -5.9080   25.0410 C   0  0  0  0  0  3  0  0  0  0  0  0
  -21.5540   -4.5340   24.9320 C   0  0  0  0  0  0  0  0  0  0  0  0
  -21.9000   -3.9850   23.6850 C   0  0  0  0  0  3  0  0  0  0  0  0
  -21.9520   -4.8060   22.5470 C   0  0  0  0  0  0  0  0  0  0  0  0
  -22.2630   -4.2670   21.3430 F   0  0  0  0  0  0  0  0  0  0  0  0
  -21.4960   -3.7410   26.0260 F   0  0  0  0  0  0  0  0  0  0  0  0
  -22.7450  -13.5720   21.1070 C   0  0  0  0  0  0  0  0  0  0  0  0
  -22.0450  -12.8840   22.0000 N   0  0  0  0  0  0  0  0  0  0  0  0
  -22.2940  -14.5930   20.5870 O   0  0  0  0  0  0  0  0  0  0  0  0
  -22.4230  -12.0550   22.4370 H   0  0  0  0  0  0  0  0  0  0  0  0
  -21.1150  -13.1870   22.2540 H   0  0  0  0  0  0  0  0  0  0  0  0
  -25.3480  -15.2300   20.2030 N   0  0  0  0  0  0  0  0  0  0  0  0
  -24.5720  -15.8750   20.3040 H   0  0  0  0  0  0  0  0  0  0  0  0
  -26.1720  -15.6630   19.8060 H   0  0  0  0  0  0  0  0  0  0  0  0
  1 48  1  0
  1 47  1  0
  2  1  1  0
  2  4  1  0
  3  2  2  0
  5  7  1  0
  5  4  1  0
  6 17  2  0
  7 12  1  0
  8 16  1  0
  8 18  1  0
  9 15  1  0
  9 11  1  0
 10 16  1  0
 11 10  1  0
 12 11  2  0
 13  7  2  0
 14 13  1  0
 14  9  2  0
 15  8  1  0
 16  6  1  0
 18 20  2  0
 19 18  1  0
 21 19  1  0
 22 31  2  0
 22 27  1  0
 23 19  1  0
 23 27  1  0
 24 23  1  0
 25 26  1  0
 25 24  1  0
 26 22  1  0
 27 28  2  0
 28 29  1  0
 30 29  2  0
 31 30  1  0
 32  6  1  0
 32 37  1  0
 32 33  1  0
 33 36  1  1
 33 34  1  0
 35 33  1  0
 37 40  1  0
 38 42  1  0
 38 37  1  0
 39 38  2  0
 42 41  1  0
 44 42  1  0
 44 45  1  0
 44 43  1  0
 47 46  1  0
 49 48  1  0
 51 49  1  0
 51 50  2  0
 52 53  1  0
 52 50  1  0
 53 54  1  0
 54 63  1  0
 55 63  1  0
 56 61  1  0
 57 58  1  0
 57 56  1  0
 59 58  1  0
 59 68  1  0
 59 60  1  0
 61 55  1  0
 61 60  1  0
 62 55  2  0
 63 64  1  0
 65 66  2  0
 66 85  1  0
 67 66  1  0
 67 70  1  0
 68 65  1  0
 68 69  1  0
 69 67  2  0
 70 71  1  0
 71 72  2  0
 73 76  1  0
 73 72  1  0
 74 73  2  0
 75 74  1  0
 75 70  2  0
 76 77  1  0
 77 78  1  0
 78 79  2  0
 80 79  1  0
 80 84  1  0
 81 80  2  0
 82 77  2  0
 82 81  1  0
 83 82  1  0
 85 86  1  0
 86 89  1  0
 86 88  1  0
 87 85  2  0
 90 91  1  0
 90 65  1  0
 92 90  1  0
M  ISO  4   4 101   5 101  55 100  63 100
M  END
>  <TORSDO>  (59) 
F 25

>  <SCORE>  (59) 
-11.883

>  <name>  (59) 
58

>  <ligand_id>  (59) 
58

>  <original_smiles>  (59) 
[H]C(=C([H])C([H])([H])C([H])([H])C([H])(C(=O)C([H])([H])Oc1c([H])c([H])c2c(c1[H])C([H])([H])N(C(=O)C([H])(N([H])C(=O)C([H])(N([H])C([H])([H])[H])C([H])([H])[H])C(C([H])([H])[H])(C([H])([H])[H])C([H])([H])[H])C([H])(C(=O)N([H])C1([H])c3c([H])c([H])c([H])c([H])c3C([H])([H])C([H])([H])C1([H])[H])C2([H])[H])C([H])([H])C([H])([H])[H])C([H])([H])C([H])([H])C([H])([H])N([H])C(=O)N1C([H])([H])C([H])([H])C([H])([H])C([H])(n2nc(-c3c([H])c([H])c(Oc4c([H])c([H])c(F)c([H])c4F)c([H])c3[H])c(C(=O)N([H])[H])c2N([H])[H])C1([H])[H]

>  <smiles>  (59) 
[H]C(=C([H])C([H])([H])C([H])([H])C([H])(C(=O)C([H])([H])Oc1c([H])c([H])c2c(c1[H])C([H])([H])N(C(=O)C([H])(N([H])C(=O)C([H])(N([H])C([H])([H])[H])C([H])([H])[H])C(C([H])([H])[H])(C([H])([H])[H])C([H])([H])[H])C([H])(C(=O)N([H])C1([H])c3c([H])c([H])c([H])c([H])c3C([H])([H])C([H])([H])C1([H])[H])C2([H])[H])C([H])([H])C([H])([H])[H])C([H])([H])C([H])([H])C([H])([H])N([H])C(=O)N1C([H])([H])C([H])([H])C([H])([H])C([H])(n2nc(-c3c([H])c([H])c(Oc4c([H])c([H])c(F)c([H])c4F)c([H])c3[H])c(C(=O)N([H])[H])c2N([H])[H])C1([H])[H]

$$$$
59:0:0
     RDKit          3D

 91 99  0  0  1  0  0  0  0  0999 V2000
  -28.6790  -20.4500   20.1930 C   0  0  0  0  0  2  0  0  0  0  0  0
  -28.2880  -18.9450   20.2660 C   0  0  0  0  0  0  0  0  0  0  0  0
  -27.1400  -18.5860   19.9930 O   0  0  0  0  0  0  0  0  0  0  0  0
  -30.5980  -14.4920   19.4630 C   0  0  0  0  0  0  0  0  0  0  0  0
  -29.8960  -12.3900   18.3920 C   0  0  0  0  0  2  0  0  0  0  0  0
  -28.7980  -12.6640   17.3500 C   0  0  0  0  0  2  0  0  0  0  0  0
  -27.4210  -12.5310   18.0190 C   0  0  0  0  0  2  0  0  0  0  0  0
  -27.3200  -13.3270   19.3510 C   0  0  0  0  0  3  0  0  0  0  0  0
  -28.5580  -13.1260   20.2600 C   0  0  0  0  0  2  0  0  0  0  0  0
  -29.7550  -13.4120   19.4580 N   0  0  0  0  0  0  0  0  0  0  0  0
  -31.6550  -14.4110   18.8370 O   0  0  0  0  0  0  0  0  0  0  0  0
  -30.7000  -18.1230   20.0240 C   0  0  0  0  0  2  0  0  0  0  0  0
  -29.0380  -16.3930   20.3230 C   0  0  0  0  0  2  0  0  0  0  0  0
  -29.3510  -17.8860   20.6800 C   0  0  0  0  0  3  0  0  0  0  0  0
  -31.3800  -16.7540   19.9880 C   0  0  0  0  0  3  0  0  0  0  0  0
  -30.3250  -15.7070   20.0540 N   0  0  0  0  0  0  0  0  0  0  0  0
  -25.0990  -13.9110   20.4980 C   0  0  0  0  0  0  0  0  0  0  0  0
  -24.0880  -13.1310   20.9880 C   0  0  0  0  0  0  0  0  0  0  0  0
  -24.5050  -11.7770   20.8010 C   0  0  0  0  0  0  0  0  0  0  0  0
  -26.0700  -13.0340   20.0450 N   0  0  0  0  0  0  0  0  0  0  0  0
  -25.7270  -11.7420   20.2840 N   0  0  0  0  0  0  0  0  0  0  0  0
  -23.7870  -10.5170   21.0320 C   0  0  0  0  0  0  0  0  0  0  0  0
  -24.3000   -9.5170   21.8880 C   0  0  0  0  0  3  0  0  0  0  0  0
  -23.5800   -8.3240   22.1100 C   0  0  0  0  0  3  0  0  0  0  0  0
  -22.3310   -8.1200   21.4780 C   0  0  0  0  0  0  0  0  0  0  0  0
  -21.8340   -9.1080   20.6090 C   0  0  0  0  0  3  0  0  0  0  0  0
  -22.5540  -10.2940   20.3860 C   0  0  0  0  0  3  0  0  0  0  0  0
  -21.5750   -6.9820   21.6130 O   0  0  0  0  0  0  0  0  0  0  0  0
  -21.5910   -6.2410   22.7670 C   0  0  0  0  0  0  0  0  0  0  0  0
  -21.2590   -6.8040   24.0190 C   0  0  0  0  0  3  0  0  0  0  0  0
  -21.2240   -5.9910   25.1690 C   0  0  0  0  0  3  0  0  0  0  0  0
  -21.5090   -4.6160   25.0690 C   0  0  0  0  0  0  0  0  0  0  0  0
  -21.8340   -4.0530   23.8220 C   0  0  0  0  0  3  0  0  0  0  0  0
  -21.8730   -4.8640   22.6750 C   0  0  0  0  0  0  0  0  0  0  0  0
  -22.1680   -4.3120   21.4730 F   0  0  0  0  0  0  0  0  0  0  0  0
  -21.4680   -3.8330   26.1720 F   0  0  0  0  0  0  0  0  0  0  0  0
  -22.7670  -13.6120   21.5160 C   0  0  0  0  0  0  0  0  0  0  0  0
  -22.1850  -12.8820   22.4600 N   0  0  0  0  0  0  0  0  0  0  0  0
  -22.2680  -14.6680   21.1270 O   0  0  0  0  0  0  0  0  0  0  0  0
  -22.6030  -12.0240   22.7870 H   0  0  0  0  0  0  0  0  0  0  0  0
  -21.3070  -13.1810   22.8610 H   0  0  0  0  0  0  0  0  0  0  0  0
  -25.2670  -15.2860   20.3800 N   0  0  0  0  0  0  0  0  0  0  0  0
  -24.5500  -15.9400   20.6740 H   0  0  0  0  0  0  0  0  0  0  0  0
  -26.0780  -15.7420   19.9800 H   0  0  0  0  0  0  0  0  0  0  0  0
  -33.7510  -17.3470   20.7840 C   0  0  0  0  0  1  0  0  0  0  0  0
  -32.4580  -16.5700   21.0800 C   0  0  0  0  0  2  0  0  0  0  0  0
  -27.5960  -21.4530   20.7050 C   0  0  0  0  0  2  0  0  0  0  0  0
  -27.5110  -22.8610   20.0120 C   0  0  0  0  0  2  0  0  0  0  0  0
  -28.4780  -24.0360   20.4340 C   0  0  0  0  0  2  0  0  0  0  0  0
  -28.1210  -25.4400   21.0630 C   0  0  0  0  0  2  0  0  0  0  0  0
  -28.2940  -26.6260   20.2360 O   0  0  0  0  0  0  0  0  0  0  0  0
  -24.5420  -31.9090   23.2170 C   0  0  0  0  0  0  0  0  0  0  0  0
  -27.1730  -27.4290   20.1770 C   0  0  0  0  0  0  0  0  0  0  0  0
  -23.3350  -30.4920   21.5900 C   0  0  0  0  0  3  0  0  0  0  0  0
  -24.7910  -28.9510   20.1640 C   0  0  0  0  0  0  0  0  0  0  0  0
  -25.8640  -30.8530   21.3820 C   0  0  0  0  0  2  0  0  0  0  0  0
  -25.9520  -29.4800   20.7430 C   0  0  0  0  0  0  0  0  0  0  0  0
  -27.1550  -28.7310   20.7370 C   0  0  0  0  0  3  0  0  0  0  0  0
  -26.0010  -26.9250   19.5780 C   0  0  0  0  0  3  0  0  0  0  0  0
  -24.8130  -27.6780   19.5710 C   0  0  0  0  0  3  0  0  0  0  0  0
  -23.5420  -29.8060   20.2130 C   0  0  0  0  0  2  0  0  0  0  0  0
  -24.5990  -31.0990   22.1210 N   0  0  0  0  0  0  0  0  0  0  0  0
  -23.4610  -32.1820   23.7580 O   0  0  0  0  0  0  0  0  0  0  0  0
  -22.6870  -29.4770   22.5590 C   0  0  0  0  0  0  0  0  0  0  0  0
  -21.3630  -29.2920   22.4340 N   0  0  0  0  0  0  0  0  0  0  0  0
  -23.3730  -28.8570   23.3760 O   0  0  0  0  0  0  0  0  0  0  0  0
  -20.8700  -29.8400   21.7420 H   0  0  0  0  0  0  0  0  0  0  0  0
  -17.9910  -28.0990   22.9470 C   0  0  0  0  0  0  0  0  0  0  0  0
  -20.5480  -28.3600   23.2140 C   0  0  0  0  0  3  0  0  0  0  0  0
  -20.6510  -26.9240   22.6470 C   0  0  0  0  0  2  0  0  0  0  0  0
  -19.5490  -26.5950   21.6370 C   0  0  0  0  0  2  0  0  0  0  0  0
  -18.1680  -26.7440   22.2820 C   0  0  0  0  0  2  0  0  0  0  0  0
  -19.1090  -28.8650   23.3690 C   0  0  0  0  0  0  0  0  0  0  0  0
  -18.8890  -30.1340   23.9490 C   0  0  0  0  0  3  0  0  0  0  0  0
  -17.5830  -30.6340   24.1110 C   0  0  0  0  0  3  0  0  0  0  0  0
  -16.4800  -29.8650   23.7030 C   0  0  0  0  0  3  0  0  0  0  0  0
  -16.6860  -28.5980   23.1270 C   0  0  0  0  0  3  0  0  0  0  0  0
  -25.8280  -32.5460   23.8290 C   0  0  0  0  0  3  0  0  0  0  0  0
  -26.3600  -31.7730   25.0970 C   0  0  1  0  0  0  0  0  0  0  0  0
  -25.2780  -31.5220   26.1730 C   0  0  0  0  0  1  0  0  0  0  0  0
  -26.9490  -30.4020   24.6940 C   0  0  0  0  0  1  0  0  0  0  0  0
  -27.5140  -32.5700   25.7490 C   0  0  0  0  0  1  0  0  0  0  0  0
  -25.5140  -33.9410   24.1610 N   0  0  0  0  0  0  0  0  0  0  0  0
  -25.8470  -34.9950   23.4030 C   0  0  0  0  0  0  0  0  0  0  0  0
  -26.5170  -34.8940   22.3700 O   0  0  0  0  0  0  0  0  0  0  0  0
  -24.9150  -34.0950   24.9600 H   0  0  0  0  0  0  0  0  0  0  0  0
  -24.1130  -36.7800   23.0480 C   0  0  0  0  0  1  0  0  0  0  0  0
  -25.3570  -36.3820   23.8600 C   0  0  0  0  0  3  0  0  0  0  0  0
  -27.4880  -37.2690   24.6920 C   0  0  0  0  0  1  0  0  0  0  0  0
  -26.3870  -37.4360   23.7480 N   0  0  0  0  0  0  0  0  0  0  0  0
  -25.9810  -38.3560   23.8940 H   0  0  0  0  0  0  0  0  0  0  0  0
  1  2  1  0
  1 47  1  0
  3  2  2  0
  4 16  1  0
  5 10  1  0
  6  7  1  0
  6  5  1  0
  8  7  1  0
  8 20  1  0
  8  9  1  0
 10  4  1  0
 10  9  1  0
 11  4  2  0
 12 14  1  0
 13 14  1  0
 14  2  1  0
 15 12  1  0
 15 16  1  0
 15 46  1  0
 16 13  1  0
 17 18  2  0
 18 37  1  0
 19 18  1  0
 19 22  1  0
 20 21  1  0
 20 17  1  0
 21 19  2  0
 22 23  1  0
 23 24  2  0
 25 28  1  0
 25 24  1  0
 26 25  2  0
 27 26  1  0
 27 22  2  0
 28 29  1  0
 29 30  1  0
 30 31  2  0
 32 31  1  0
 32 36  1  0
 33 32  2  0
 34 29  2  0
 34 33  1  0
 35 34  1  0
 37 38  1  0
 38 40  1  0
 38 41  1  0
 39 37  2  0
 42 17  1  0
 42 43  1  0
 44 42  1  0
 45 46  1  0
 48 49  1  0
 48 47  1  0
 49 50  1  0
 51 50  1  0
 52 63  2  0
 53 51  1  0
 53 58  1  0
 54 62  1  0
 54 64  1  0
 55 61  1  0
 55 57  1  0
 56 62  1  0
 57 56  1  0
 58 57  2  0
 59 53  2  0
 60 59  1  0
 60 55  2  0
 61 54  1  0
 62 52  1  0
 64 66  2  0
 65 64  1  0
 67 65  1  0
 68 77  2  0
 68 73  1  0
 69 65  1  0
 69 73  1  0
 70 69  1  0
 71 72  1  0
 71 70  1  0
 72 68  1  0
 73 74  2  0
 74 75  1  0
 76 75  2  0
 77 76  1  0
 78 52  1  0
 78 83  1  0
 78 79  1  0
 79 82  1  1
 79 80  1  0
 81 79  1  0
 83 86  1  0
 84 88  1  0
 84 83  1  0
 85 84  2  0
 88 87  1  0
 90 88  1  0
 90 91  1  0
 90 89  1  0
M  ISO  4   4 100  16 100  50 101  51 101
M  END
>  <TORSDO>  (60) 
F 22

>  <SCORE>  (60) 
-10.214

>  <name>  (60) 
59

>  <ligand_id>  (60) 
59

>  <original_smiles>  (60) 
[H]c1c([H])c([H])c2c(c1[H])C([H])([H])C([H])([H])C([H])([H])C2([H])N([H])C(=O)C1([H])N(C(=O)C([H])(N([H])C(=O)C([H])(N([H])C([H])([H])[H])C([H])([H])[H])C(C([H])([H])[H])(C([H])([H])[H])C([H])([H])[H])C([H])([H])c2c([H])c(OC([H])([H])C([H])([H])C([H])([H])C([H])([H])C([H])([H])C(=O)C3([H])C([H])([H])N(C(=O)N4C([H])([H])C([H])([H])C([H])([H])C([H])(n5nc(-c6c([H])c([H])c(Oc7c([H])c([H])c(F)c([H])c7F)c([H])c6[H])c(C(=O)N([H])[H])c5N([H])[H])C4([H])[H])C([H])(C([H])([H])C([H])([H])[H])C3([H])[H])c([H])c([H])c2C1([H])[H]

>  <smiles>  (60) 
[H]c1c([H])c([H])c2c(c1[H])C([H])([H])C([H])([H])C([H])([H])C2([H])N([H])C(=O)C1([H])N(C(=O)C([H])(N([H])C(=O)C([H])(N([H])C([H])([H])[H])C([H])([H])[H])C(C([H])([H])[H])(C([H])([H])[H])C([H])([H])[H])C([H])([H])c2c([H])c(OC([H])([H])C([H])([H])C([H])([H])C([H])([H])C([H])([H])C(=O)C3([H])C([H])([H])N(C(=O)N4C([H])([H])C([H])([H])C([H])([H])C([H])(n5nc(-c6c([H])c([H])c(Oc7c([H])c([H])c(F)c([H])c7F)c([H])c6[H])c(C(=O)N([H])[H])c5N([H])[H])C4([H])[H])C([H])(C([H])([H])C([H])([H])[H])C3([H])[H])c([H])c([H])c2C1([H])[H]

$$$$
60:0:0
     RDKit          3D

 97105  0  0  1  0  0  0  0  0999 V2000
  -31.2020  -14.8060   20.5810 C   0  0  0  0  0  0  0  0  0  0  0  0
  -30.8370  -12.6710   19.4550 C   0  0  0  0  0  2  0  0  0  0  0  0
  -29.9710  -12.9120   18.2030 C   0  0  0  0  0  2  0  0  0  0  0  0
  -28.4790  -12.8060   18.5590 C   0  0  0  0  0  2  0  0  0  0  0  0
  -28.0840  -13.6280   19.8200 C   0  0  0  0  0  3  0  0  0  0  0  0
  -29.0990  -13.4450   20.9740 C   0  0  0  0  0  2  0  0  0  0  0  0
  -30.4360  -13.6940   20.4240 N   0  0  0  0  0  0  0  0  0  0  0  0
  -32.4250  -14.7280   20.6110 O   0  0  0  0  0  0  0  0  0  0  0  0
  -29.9050  -18.5400   18.8580 C   0  0  0  0  0  2  0  0  0  0  0  0
  -30.1800  -17.0080   20.9680 C   0  0  0  0  0  2  0  0  0  0  0  0
  -31.3490  -16.4630   18.8110 C   0  0  0  0  0  3  0  0  0  0  0  0
  -29.4400  -18.2270   20.2990 C   0  0  0  0  0  3  0  0  0  0  0  0
  -30.2720  -17.2790   18.0460 C   0  0  0  0  0  3  0  0  0  0  0  0
  -30.6880  -15.9560   20.0560 N   0  0  0  0  0  0  0  0  0  0  0  0
  -25.6330  -14.2050   20.3370 C   0  0  0  0  0  0  0  0  0  0  0  0
  -24.5560  -13.4250   20.6520 C   0  0  0  0  0  0  0  0  0  0  0  0
  -25.0390  -12.0820   20.7050 C   0  0  0  0  0  0  0  0  0  0  0  0
  -26.7070  -13.3390   20.2240 N   0  0  0  0  0  0  0  0  0  0  0  0
  -26.3520  -12.0590   20.5070 N   0  0  0  0  0  0  0  0  0  0  0  0
  -24.3160  -10.8130   20.8790 C   0  0  0  0  0  0  0  0  0  0  0  0
  -24.6850   -9.8850   21.8770 C   0  0  0  0  0  3  0  0  0  0  0  0
  -23.9580   -8.6840   22.0400 C   0  0  0  0  0  3  0  0  0  0  0  0
  -22.8480   -8.4080   21.2040 C   0  0  0  0  0  0  0  0  0  0  0  0
  -22.4990   -9.3260   20.1960 C   0  0  0  0  0  3  0  0  0  0  0  0
  -23.2260  -10.5160   20.0320 C   0  0  0  0  0  3  0  0  0  0  0  0
  -22.1060   -7.2550   21.2760 O   0  0  0  0  0  0  0  0  0  0  0  0
  -21.9710   -6.5530   22.4470 C   0  0  0  0  0  0  0  0  0  0  0  0
  -21.4650   -7.1530   23.6220 C   0  0  0  0  0  3  0  0  0  0  0  0
  -21.2750   -6.3760   24.7840 C   0  0  0  0  0  3  0  0  0  0  0  0
  -21.5840   -5.0020   24.7690 C   0  0  0  0  0  0  0  0  0  0  0  0
  -22.0830   -4.4040   23.5980 C   0  0  0  0  0  3  0  0  0  0  0  0
  -22.2720   -5.1750   22.4400 C   0  0  0  0  0  0  0  0  0  0  0  0
  -22.7310   -4.5880   21.3070 F   0  0  0  0  0  0  0  0  0  0  0  0
  -21.3960   -4.2540   25.8800 F   0  0  0  0  0  0  0  0  0  0  0  0
  -23.1330  -13.8820   20.7950 C   0  0  0  0  0  0  0  0  0  0  0  0
  -22.3600  -13.2170   21.6450 N   0  0  0  0  0  0  0  0  0  0  0  0
  -22.7150  -14.8660   20.1870 O   0  0  0  0  0  0  0  0  0  0  0  0
  -22.6990  -12.4180   22.1590 H   0  0  0  0  0  0  0  0  0  0  0  0
  -21.4040  -13.5200   21.7870 H   0  0  0  0  0  0  0  0  0  0  0  0
  -25.7830  -15.5690   20.1120 N   0  0  0  0  0  0  0  0  0  0  0  0
  -24.9930  -16.2070   20.1280 H   0  0  0  0  0  0  0  0  0  0  0  0
  -26.6500  -16.0080   19.8280 H   0  0  0  0  0  0  0  0  0  0  0  0
  -32.6760  -17.2830   18.9940 C   0  0  0  0  0  0  0  0  0  0  0  0
  -33.1640  -17.5220   20.2100 N   0  0  0  0  0  0  0  0  0  0  0  0
  -33.2920  -17.7100   18.0180 O   0  0  0  0  0  0  0  0  0  0  0  0
  -32.7400  -17.0680   21.0090 H   0  0  0  0  0  0  0  0  0  0  0  0
  -34.0020  -18.0750   20.3300 H   0  0  0  0  0  0  0  0  0  0  0  0
  -31.4710  -16.6180   15.8030 C   0  0  0  0  0  1  0  0  0  0  0  0
  -30.5870  -17.6280   16.5620 C   0  0  0  0  0  2  0  0  0  0  0  0
  -29.5800  -19.4760   21.2290 C   0  0  0  0  0  2  0  0  0  0  0  0
  -29.0330  -20.8700   20.7840 C   0  0  0  0  0  2  0  0  0  0  0  0
  -29.3530  -21.9480   21.8630 C   0  0  0  0  0  2  0  0  0  0  0  0
  -27.1290  -23.2420   21.6510 C   0  0  0  0  0  1  0  0  0  0  0  0
  -28.6550  -23.3480   21.8380 C   0  0  0  0  0  3  0  0  0  0  0  0
  -29.2820  -24.4610   20.9410 C   0  0  0  0  0  2  0  0  0  0  0  0
  -29.0240  -25.8930   21.5020 C   0  0  0  0  0  2  0  0  0  0  0  0
  -29.1180  -26.9590   20.5410 O   0  0  0  0  0  0  0  0  0  0  0  0
  -24.8810  -31.9550   23.3180 C   0  0  0  0  0  0  0  0  0  0  0  0
  -27.9500  -27.6750   20.4240 C   0  0  0  0  0  0  0  0  0  0  0  0
  -23.8580  -30.4860   21.6130 C   0  0  0  0  0  3  0  0  0  0  0  0
  -25.4780  -29.0350   20.2810 C   0  0  0  0  0  0  0  0  0  0  0  0
  -26.3650  -30.9930   21.5590 C   0  0  0  0  0  2  0  0  0  0  0  0
  -26.5640  -29.6270   20.9340 C   0  0  0  0  0  0  0  0  0  0  0  0
  -27.8070  -28.9580   21.0020 C   0  0  0  0  0  3  0  0  0  0  0  0
  -26.8560  -27.1020   19.7460 C   0  0  0  0  0  3  0  0  0  0  0  0
  -25.6230  -27.7710   19.6790 C   0  0  0  0  0  3  0  0  0  0  0  0
  -24.1840  -29.8100   20.2540 C   0  0  0  0  0  2  0  0  0  0  0  0
  -25.0510  -31.1590   22.2230 N   0  0  0  0  0  0  0  0  0  0  0  0
  -23.7560  -32.1660   23.7880 O   0  0  0  0  0  0  0  0  0  0  0  0
  -23.2070  -29.4340   22.5390 C   0  0  0  0  0  0  0  0  0  0  0  0
  -21.8920  -29.2230   22.3780 N   0  0  0  0  0  0  0  0  0  0  0  0
  -23.8850  -28.8120   23.3630 O   0  0  0  0  0  0  0  0  0  0  0  0
  -21.4060  -29.7810   21.6890 H   0  0  0  0  0  0  0  0  0  0  0  0
  -18.5220  -28.0100   22.8410 C   0  0  0  0  0  0  0  0  0  0  0  0
  -21.0800  -28.2510   23.1090 C   0  0  0  0  0  3  0  0  0  0  0  0
  -21.1760  -26.8460   22.4690 C   0  0  0  0  0  2  0  0  0  0  0  0
  -20.0660  -26.5720   21.4490 C   0  0  0  0  0  2  0  0  0  0  0  0
  -18.6900  -26.6930   22.1050 C   0  0  0  0  0  2  0  0  0  0  0  0
  -19.6430  -28.7510   23.2990 C   0  0  0  0  0  0  0  0  0  0  0  0
  -19.4280  -29.9870   23.9450 C   0  0  0  0  0  3  0  0  0  0  0  0
  -18.1240  -30.4810   24.1430 C   0  0  0  0  0  3  0  0  0  0  0  0
  -17.0180  -29.7360   23.6990 C   0  0  0  0  0  3  0  0  0  0  0  0
  -17.2180  -28.5030   23.0550 C   0  0  0  0  0  3  0  0  0  0  0  0
  -26.0890  -32.6580   24.0090 C   0  0  0  0  0  3  0  0  0  0  0  0
  -25.6750  -34.0300   24.3340 N   0  0  0  0  0  0  0  0  0  0  0  0
  -25.9860  -35.1100   23.6060 C   0  0  0  0  0  0  0  0  0  0  0  0
  -26.7190  -35.0620   22.6130 O   0  0  0  0  0  0  0  0  0  0  0  0
  -25.0260  -34.1380   25.1000 H   0  0  0  0  0  0  0  0  0  0  0  0
  -24.1710  -36.7990   23.1730 C   0  0  0  0  0  1  0  0  0  0  0  0
  -25.3900  -36.4610   24.0480 C   0  0  0  0  0  3  0  0  0  0  0  0
  -27.4220  -37.4630   24.9940 C   0  0  0  0  0  1  0  0  0  0  0  0
  -26.3600  -37.5770   23.9990 N   0  0  0  0  0  0  0  0  0  0  0  0
  -25.8880  -38.4670   24.1330 H   0  0  0  0  0  0  0  0  0  0  0  0
  -26.5890  -31.9050   25.3020 C   0  0  1  0  0  0  0  0  0  0  0  0
  -25.4510  -31.5280   26.2810 C   0  0  0  0  0  1  0  0  0  0  0  0
  -27.3340  -30.6060   24.9190 C   0  0  0  0  0  1  0  0  0  0  0  0
  -27.6120  -32.7870   26.0580 C   0  0  0  0  0  1  0  0  0  0  0  0
  1  8  2  0
  2  7  1  0
  3  4  1  0
  3  2  1  0
  5  4  1  0
  5 18  1  0
  5  6  1  0
  7  1  1  0
  7  6  1  0
  9 12  1  0
 11 43  1  0
 11 14  1  0
 12 10  1  0
 12 50  1  0
 13 49  1  0
 13 11  1  0
 13  9  1  0
 14  1  1  0
 14 10  1  0
 15 16  2  0
 16 17  1  0
 16 35  1  0
 17 20  1  0
 18 15  1  0
 18 19  1  0
 19 17  2  0
 20 21  1  0
 21 22  2  0
 23 26  1  0
 23 22  1  0
 24 23  2  0
 25 24  1  0
 25 20  2  0
 26 27  1  0
 27 28  1  0
 28 29  2  0
 30 29  1  0
 30 34  1  0
 31 30  2  0
 32 27  2  0
 32 31  1  0
 33 32  1  0
 35 36  1  0
 36 39  1  0
 36 38  1  0
 37 35  2  0
 40 41  1  0
 40 15  1  0
 42 40  1  0
 43 44  1  0
 44 47  1  0
 44 46  1  0
 45 43  2  0
 48 49  1  0
 51 50  1  0
 51 52  1  0
 54 53  1  0
 54 52  1  0
 55 56  1  0
 55 54  1  0
 57 56  1  0
 58 69  2  0
 59 57  1  0
 59 64  1  0
 60 68  1  0
 60 70  1  0
 61 63  1  0
 62 68  1  0
 63 64  2  0
 63 62  1  0
 65 59  2  0
 66 65  1  0
 66 61  2  0
 67 61  1  0
 67 60  1  0
 68 58  1  0
 70 72  2  0
 71 70  1  0
 73 71  1  0
 74 83  2  0
 74 79  1  0
 75 71  1  0
 75 79  1  0
 76 75  1  0
 77 78  1  0
 77 76  1  0
 78 74  1  0
 79 80  2  0
 80 81  1  0
 82 81  2  0
 83 82  1  0
 84 58  1  0
 84 85  1  0
 84 94  1  0
 85 88  1  0
 86 90  1  0
 86 85  1  0
 87 86  2  0
 90 89  1  0
 92 90  1  0
 92 93  1  0
 92 91  1  0
 94 97  1  1
 94 95  1  0
 96 94  1  0
M  ISO  4   1 100  14 100  56 101  57 101
M  END
>  <TORSDO>  (61) 
F 23

>  <SCORE>  (61) 
-11.343

>  <name>  (61) 
60

>  <ligand_id>  (61) 
60

>  <original_smiles>  (61) 
[H]c1c([H])c([H])c2c(c1[H])C([H])([H])C([H])([H])C([H])([H])C2([H])N([H])C(=O)C1([H])N(C(=O)C([H])(N([H])C(=O)C([H])(N([H])C([H])([H])[H])C([H])([H])[H])C(C([H])([H])[H])(C([H])([H])[H])C([H])([H])[H])C([H])([H])c2c([H])c(OC([H])([H])C([H])([H])C([H])(C([H])([H])[H])C([H])([H])C([H])([H])C([H])([H])C3([H])C([H])([H])N(C(=O)N4C([H])([H])C([H])([H])C([H])([H])C([H])(n5nc(-c6c([H])c([H])c(Oc7c([H])c([H])c(F)c([H])c7F)c([H])c6[H])c(C(=O)N([H])[H])c5N([H])[H])C4([H])[H])C([H])(C(=O)N([H])[H])C([H])(C([H])([H])C([H])([H])[H])C3([H])[H])c([H])c([H])c2C1([H])[H]

>  <smiles>  (61) 
[H]c1c([H])c([H])c2c(c1[H])C([H])([H])C([H])([H])C([H])([H])C2([H])N([H])C(=O)C1([H])N(C(=O)C([H])(N([H])C(=O)C([H])(N([H])C([H])([H])[H])C([H])([H])[H])C(C([H])([H])[H])(C([H])([H])[H])C([H])([H])[H])C([H])([H])c2c([H])c(OC([H])([H])C([H])([H])C([H])(C([H])([H])[H])C([H])([H])C([H])([H])C([H])([H])C3([H])C([H])([H])N(C(=O)N4C([H])([H])C([H])([H])C([H])([H])C([H])(n5nc(-c6c([H])c([H])c(Oc7c([H])c([H])c(F)c([H])c7F)c([H])c6[H])c(C(=O)N([H])[H])c5N([H])[H])C4([H])[H])C([H])(C(=O)N([H])[H])C([H])(C([H])([H])C([H])([H])[H])C3([H])[H])c([H])c([H])c2C1([H])[H]

$$$$
61:0:0
     RDKit          3D

 91 99  0  0  1  0  0  0  0  0999 V2000
  -28.5060  -21.8320   20.0040 C   0  0  0  0  0  2  0  0  0  0  0  0
  -29.5790  -20.7370   20.2720 C   0  0  0  0  0  2  0  0  0  0  0  0
  -29.1170  -19.2800   20.0590 C   0  0  0  0  0  0  0  0  0  0  0  0
  -27.9440  -19.0330   19.7620 O   0  0  0  0  0  0  0  0  0  0  0  0
  -30.7810  -14.5310   20.0560 C   0  0  0  0  0  0  0  0  0  0  0  0
  -30.4320  -12.3790   18.8930 C   0  0  0  0  0  2  0  0  0  0  0  0
  -29.4170  -12.6070   17.7520 C   0  0  0  0  0  2  0  0  0  0  0  0
  -27.9680  -12.4600   18.2670 C   0  0  0  0  0  2  0  0  0  0  0  0
  -27.7150  -13.2600   19.5740 C   0  0  0  0  0  3  0  0  0  0  0  0
  -28.8380  -12.9990   20.5990 C   0  0  0  0  0  2  0  0  0  0  0  0
  -30.1200  -13.3390   19.9600 N   0  0  0  0  0  0  0  0  0  0  0  0
  -31.8490  -14.7370   19.4720 O   0  0  0  0  0  0  0  0  0  0  0  0
  -30.5320  -17.0740   22.4680 C   0  0  0  0  0  3  0  0  0  0  0  0
  -30.6520  -18.1370   21.6620 C   0  0  0  0  0  3  0  0  0  0  0  0
  -29.9310  -15.7610   22.0120 C   0  0  0  0  0  2  0  0  0  0  0  0
  -29.6870  -16.7390   19.7280 C   0  0  0  0  0  2  0  0  0  0  0  0
  -30.1690  -18.1530   20.2230 C   0  0  0  0  0  3  0  0  0  0  0  0
  -30.0560  -15.5670   20.5610 N   0  0  0  0  0  0  0  0  0  0  0  0
  -25.3820  -13.8620   20.4710 C   0  0  0  0  0  0  0  0  0  0  0  0
  -24.3350  -13.0840   20.8930 C   0  0  0  0  0  0  0  0  0  0  0  0
  -24.7800  -11.7310   20.7830 C   0  0  0  0  0  0  0  0  0  0  0  0
  -26.3990  -12.9790   20.1370 N   0  0  0  0  0  0  0  0  0  0  0  0
  -26.0440  -11.6900   20.3790 N   0  0  0  0  0  0  0  0  0  0  0  0
  -24.0560  -10.4690   20.9780 C   0  0  0  0  0  0  0  0  0  0  0  0
  -24.5340   -9.4730   21.8560 C   0  0  0  0  0  3  0  0  0  0  0  0
  -23.8150   -8.2740   22.0430 C   0  0  0  0  0  3  0  0  0  0  0  0
  -22.5970   -8.0630   21.3510 C   0  0  0  0  0  0  0  0  0  0  0  0
  -22.1360   -9.0480   20.4610 C   0  0  0  0  0  3  0  0  0  0  0  0
  -22.8580  -10.2390   20.2720 C   0  0  0  0  0  3  0  0  0  0  0  0
  -21.8400   -6.9200   21.4520 O   0  0  0  0  0  0  0  0  0  0  0  0
  -21.8510   -6.1480   22.5860 C   0  0  0  0  0  0  0  0  0  0  0  0
  -21.4920   -6.6690   23.8480 C   0  0  0  0  0  3  0  0  0  0  0  0
  -21.4490   -5.8210   24.9720 C   0  0  0  0  0  3  0  0  0  0  0  0
  -21.7560   -4.4540   24.8380 C   0  0  0  0  0  0  0  0  0  0  0  0
  -22.1090   -3.9320   23.5810 C   0  0  0  0  0  3  0  0  0  0  0  0
  -22.1550   -4.7770   22.4590 C   0  0  0  0  0  0  0  0  0  0  0  0
  -22.4730   -4.2630   21.2460 F   0  0  0  0  0  0  0  0  0  0  0  0
  -21.7080   -3.6400   25.9170 F   0  0  0  0  0  0  0  0  0  0  0  0
  -22.9650  -13.5640   21.2770 C   0  0  0  0  0  0  0  0  0  0  0  0
  -22.3040  -12.8670   22.1940 N   0  0  0  0  0  0  0  0  0  0  0  0
  -22.4940  -14.5940   20.7980 O   0  0  0  0  0  0  0  0  0  0  0  0
  -22.6990  -12.0340   22.6060 H   0  0  0  0  0  0  0  0  0  0  0  0
  -21.3880  -13.1730   22.4910 H   0  0  0  0  0  0  0  0  0  0  0  0
  -25.5460  -15.2340   20.3230 N   0  0  0  0  0  0  0  0  0  0  0  0
  -24.7980  -15.8950   20.5000 H   0  0  0  0  0  0  0  0  0  0  0  0
  -26.3680  -15.6710   19.9270 H   0  0  0  0  0  0  0  0  0  0  0  0
  -29.1010  -23.2610   19.9910 C   0  0  0  0  0  2  0  0  0  0  0  0
  -28.1060  -24.4010   19.6500 C   0  0  0  0  0  2  0  0  0  0  0  0
  -28.8140  -26.1780   17.8680 C   0  0  0  0  0  1  0  0  0  0  0  0
  -28.8030  -25.7590   19.3500 C   0  0  0  0  0  3  0  0  0  0  0  0
  -28.4450  -26.8360   20.2240 O   0  0  0  0  0  0  0  0  0  0  0  0
  -24.4640  -31.8570   23.2680 C   0  0  0  0  0  0  0  0  0  0  0  0
  -27.2240  -27.4820   20.1800 C   0  0  0  0  0  0  0  0  0  0  0  0
  -23.2970  -30.4440   21.6050 C   0  0  0  0  0  3  0  0  0  0  0  0
  -24.7910  -28.9320   20.1890 C   0  0  0  0  0  0  0  0  0  0  0  0
  -25.8170  -30.8400   21.4390 C   0  0  0  0  0  2  0  0  0  0  0  0
  -25.9290  -29.4730   20.7980 C   0  0  0  0  0  0  0  0  0  0  0  0
  -27.1410  -28.7510   20.7980 C   0  0  0  0  0  3  0  0  0  0  0  0
  -26.0650  -26.9480   19.5720 C   0  0  0  0  0  3  0  0  0  0  0  0
  -24.8530  -27.6670   19.5750 C   0  0  0  0  0  3  0  0  0  0  0  0
  -23.5300  -29.7660   20.2270 C   0  0  0  0  0  2  0  0  0  0  0  0
  -24.5430  -31.0610   22.1630 N   0  0  0  0  0  0  0  0  0  0  0  0
  -23.3730  -32.1130   23.7960 O   0  0  0  0  0  0  0  0  0  0  0  0
  -22.6510  -29.4140   22.5550 C   0  0  0  0  0  0  0  0  0  0  0  0
  -21.3300  -29.2180   22.4170 N   0  0  0  0  0  0  0  0  0  0  0  0
  -23.3370  -28.7900   23.3690 O   0  0  0  0  0  0  0  0  0  0  0  0
  -20.8360  -29.7730   21.7310 H   0  0  0  0  0  0  0  0  0  0  0  0
  -17.9630  -27.9960   22.8880 C   0  0  0  0  0  0  0  0  0  0  0  0
  -20.5170  -28.2650   23.1740 C   0  0  0  0  0  3  0  0  0  0  0  0
  -20.6300  -26.8410   22.5850 C   0  0  0  0  0  2  0  0  0  0  0  0
  -19.5370  -26.5240   21.5610 C   0  0  0  0  0  2  0  0  0  0  0  0
  -18.1510  -26.6550   22.2000 C   0  0  0  0  0  2  0  0  0  0  0  0
  -19.0750  -28.7600   23.3320 C   0  0  0  0  0  0  0  0  0  0  0  0
  -18.8460  -30.0170   23.9340 C   0  0  0  0  0  3  0  0  0  0  0  0
  -17.5390  -30.5110   24.0950 C   0  0  0  0  0  3  0  0  0  0  0  0
  -16.4410  -29.7440   23.6680 C   0  0  0  0  0  3  0  0  0  0  0  0
  -16.6530  -28.4870   23.0730 C   0  0  0  0  0  3  0  0  0  0  0  0
  -25.7340  -32.5040   23.9030 C   0  0  0  0  0  3  0  0  0  0  0  0
  -25.4010  -33.8960   24.2390 N   0  0  0  0  0  0  0  0  0  0  0  0
  -25.7350  -34.9580   23.4940 C   0  0  0  0  0  0  0  0  0  0  0  0
  -26.4250  -34.8690   22.4740 O   0  0  0  0  0  0  0  0  0  0  0  0
  -24.7820  -34.0360   25.0230 H   0  0  0  0  0  0  0  0  0  0  0  0
  -23.9920  -36.7310   23.1150 C   0  0  0  0  0  1  0  0  0  0  0  0
  -25.2220  -36.3370   23.9480 C   0  0  0  0  0  3  0  0  0  0  0  0
  -27.3300  -37.2410   24.8250 C   0  0  0  0  0  1  0  0  0  0  0  0
  -26.2450  -37.4030   23.8630 N   0  0  0  0  0  0  0  0  0  0  0  0
  -25.8250  -38.3190   24.0090 H   0  0  0  0  0  0  0  0  0  0  0  0
  -26.2560  -31.7320   25.1760 C   0  0  1  0  0  0  0  0  0  0  0  0
  -25.1610  -31.4640   26.2340 C   0  0  0  0  0  1  0  0  0  0  0  0
  -26.8660  -30.3680   24.7760 C   0  0  0  0  0  1  0  0  0  0  0  0
  -27.3890  -32.5400   25.8520 C   0  0  0  0  0  1  0  0  0  0  0  0
  1  2  1  0
  3  2  1  0
  4  3  2  0
  5 18  1  0
  6 11  1  0
  7  8  1  0
  7  6  1  0
  9  8  1  0
  9 22  1  0
  9 10  1  0
 11  5  1  0
 11 10  1  0
 12  5  2  0
 14 13  2  0
 15 13  1  0
 16 17  1  0
 16 18  1  0
 17  3  1  0
 17 14  1  0
 18 15  1  0
 19 20  2  0
 20 39  1  0
 21 20  1  0
 21 24  1  0
 22 23  1  0
 22 19  1  0
 23 21  2  0
 24 25  1  0
 25 26  2  0
 27 30  1  0
 27 26  1  0
 28 27  2  0
 29 28  1  0
 29 24  2  0
 30 31  1  0
 31 32  1  0
 32 33  2  0
 34 33  1  0
 34 38  1  0
 35 34  2  0
 36 31  2  0
 36 35  1  0
 37 36  1  0
 39 40  1  0
 40 43  1  0
 40 42  1  0
 41 39  2  0
 44 19  1  0
 44 45  1  0
 46 44  1  0
 47  1  1  0
 48 47  1  0
 50 49  1  0
 50 48  1  0
 50 51  1  0
 52 63  2  0
 53 51  1  0
 53 58  1  0
 54 62  1  0
 54 64  1  0
 55 61  1  0
 55 57  1  0
 56 62  1  0
 57 56  1  0
 58 57  2  0
 59 60  1  0
 59 53  2  0
 60 55  2  0
 61 54  1  0
 62 52  1  0
 64 66  2  0
 65 64  1  0
 67 65  1  0
 68 77  2  0
 68 73  1  0
 69 65  1  0
 69 73  1  0
 70 69  1  0
 71 72  1  0
 71 70  1  0
 72 68  1  0
 73 74  2  0
 74 75  1  0
 76 75  2  0
 77 76  1  0
 78 52  1  0
 78 79  1  0
 78 88  1  0
 79 82  1  0
 80 84  1  0
 80 79  1  0
 81 80  2  0
 84 83  1  0
 86 84  1  0
 86 87  1  0
 86 85  1  0
 88 91  1  1
 88 89  1  0
 90 88  1  0
M  ISO  4   5 100  18 100  50 101  51 101
M  END
>  <TORSDO>  (62) 
F 21

>  <SCORE>  (62) 
-12.798

>  <name>  (62) 
61

>  <ligand_id>  (62) 
61

>  <original_smiles>  (62) 
[H]C1=C([H])C([H])(C(=O)C([H])([H])C([H])([H])C([H])([H])C([H])([H])C([H])(Oc2c([H])c([H])c3c(c2[H])C([H])([H])N(C(=O)C([H])(N([H])C(=O)C([H])(N([H])C([H])([H])[H])C([H])([H])[H])C(C([H])([H])[H])(C([H])([H])[H])C([H])([H])[H])C([H])(C(=O)N([H])C2([H])c4c([H])c([H])c([H])c([H])c4C([H])([H])C([H])([H])C2([H])[H])C3([H])[H])C([H])([H])[H])C([H])([H])N(C(=O)N2C([H])([H])C([H])([H])C([H])([H])C([H])(n3nc(-c4c([H])c([H])c(Oc5c([H])c([H])c(F)c([H])c5F)c([H])c4[H])c(C(=O)N([H])[H])c3N([H])[H])C2([H])[H])C1([H])[H]

>  <smiles>  (62) 
[H]C1=C([H])C([H])(C(=O)C([H])([H])C([H])([H])C([H])([H])C([H])([H])C([H])(Oc2c([H])c([H])c3c(c2[H])C([H])([H])N(C(=O)C([H])(N([H])C(=O)C([H])(N([H])C([H])([H])[H])C([H])([H])[H])C(C([H])([H])[H])(C([H])([H])[H])C([H])([H])[H])C([H])(C(=O)N([H])C2([H])c4c([H])c([H])c([H])c([H])c4C([H])([H])C([H])([H])C2([H])[H])C3([H])[H])C([H])([H])[H])C([H])([H])N(C(=O)N2C([H])([H])C([H])([H])C([H])([H])C([H])(n3nc(-c4c([H])c([H])c(Oc5c([H])c([H])c(F)c([H])c5F)c([H])c4[H])c(C(=O)N([H])[H])c3N([H])[H])C2([H])[H])C1([H])[H]

$$$$
62:0:0
     RDKit          3D

 93101  0  0  1  0  0  0  0  0999 V2000
  -28.9880  -21.0350   19.8910 N   0  0  0  0  0  4  0  0  0  0  0  0
  -29.1430  -20.9960   20.8840 H   0  0  0  0  0  0  0  0  0  0  0  0
  -28.0110  -20.8410   19.7440 H   0  0  0  0  0  0  0  0  0  0  0  0
  -29.6160  -19.8470   17.7150 C   0  0  0  0  0  2  0  0  0  0  0  0
  -28.8400  -18.5340   17.8570 C   0  0  0  0  0  2  0  0  0  0  0  0
  -29.8140  -19.9080   19.2370 C   0  0  0  0  0  3  0  0  0  0  0  0
  -29.3380  -18.3500   19.3160 C   0  0  2  0  0  0  0  0  0  0  0  0
  -30.9730  -14.7600   19.5740 C   0  0  0  0  0  0  0  0  0  0  0  0
  -30.7350  -12.3760   18.9080 C   0  0  0  0  0  2  0  0  0  0  0  0
  -29.7360  -12.3010   17.7350 C   0  0  0  0  0  2  0  0  0  0  0  0
  -28.2900  -12.1830   18.2590 C   0  0  0  0  0  2  0  0  0  0  0  0
  -27.9720  -13.2240   19.3680 C   0  0  0  0  0  3  0  0  0  0  0  0
  -29.0890  -13.2880   20.4300 C   0  0  0  0  0  2  0  0  0  0  0  0
  -30.3530  -13.5450   19.7290 N   0  0  0  0  0  0  0  0  0  0  0  0
  -32.1500  -14.7910   19.2020 O   0  0  0  0  0  0  0  0  0  0  0  0
  -30.4750  -17.2100   19.3020 C   0  0  0  0  0  0  0  0  0  0  0  0
  -30.1780  -15.8940   19.6240 N   0  0  0  0  0  0  0  0  0  0  0  0
  -31.6120  -17.5680   18.9840 O   0  0  0  0  0  0  0  0  0  0  0  0
  -29.2210  -15.7270   19.8860 H   0  0  0  0  0  0  0  0  0  0  0  0
  -25.7040  -13.9340   20.3360 C   0  0  0  0  0  0  0  0  0  0  0  0
  -24.6250  -13.2120   20.7690 C   0  0  0  0  0  0  0  0  0  0  0  0
  -24.9900  -11.8370   20.6370 C   0  0  0  0  0  0  0  0  0  0  0  0
  -26.6600  -13.0010   19.9660 N   0  0  0  0  0  0  0  0  0  0  0  0
  -26.2420  -11.7320   20.2100 N   0  0  0  0  0  0  0  0  0  0  0  0
  -24.2000  -10.6160   20.8360 C   0  0  0  0  0  0  0  0  0  0  0  0
  -24.6280   -9.5930   21.7110 C   0  0  0  0  0  3  0  0  0  0  0  0
  -23.8410   -8.4360   21.9010 C   0  0  0  0  0  3  0  0  0  0  0  0
  -22.6110   -8.2940   21.2160 C   0  0  0  0  0  0  0  0  0  0  0  0
  -22.2000   -9.3050   20.3290 C   0  0  0  0  0  3  0  0  0  0  0  0
  -22.9870  -10.4520   20.1360 C   0  0  0  0  0  3  0  0  0  0  0  0
  -21.7920   -7.1950   21.3170 O   0  0  0  0  0  0  0  0  0  0  0  0
  -21.7530   -6.4300   22.4550 C   0  0  0  0  0  0  0  0  0  0  0  0
  -21.4020   -6.9770   23.7100 C   0  0  0  0  0  3  0  0  0  0  0  0
  -21.3060   -6.1420   24.8400 C   0  0  0  0  0  3  0  0  0  0  0  0
  -21.5510   -4.7600   24.7180 C   0  0  0  0  0  0  0  0  0  0  0  0
  -21.8970   -4.2120   23.4700 C   0  0  0  0  0  3  0  0  0  0  0  0
  -21.9950   -5.0470   22.3420 C   0  0  0  0  0  0  0  0  0  0  0  0
  -22.3050   -4.5100   21.1370 F   0  0  0  0  0  0  0  0  0  0  0  0
  -21.4540   -3.9560   25.8030 F   0  0  0  0  0  0  0  0  0  0  0  0
  -23.2910  -13.7630   21.1810 C   0  0  0  0  0  0  0  0  0  0  0  0
  -22.6010  -13.0880   22.0930 N   0  0  0  0  0  0  0  0  0  0  0  0
  -22.8730  -14.8280   20.7280 O   0  0  0  0  0  0  0  0  0  0  0  0
  -22.9520  -12.2260   22.4830 H   0  0  0  0  0  0  0  0  0  0  0  0
  -21.7070  -13.4390   22.4050 H   0  0  0  0  0  0  0  0  0  0  0  0
  -25.9430  -15.2970   20.2000 N   0  0  0  0  0  0  0  0  0  0  0  0
  -25.2190  -15.9840   20.3850 H   0  0  0  0  0  0  0  0  0  0  0  0
  -26.7570  -15.6960   19.7510 H   0  0  0  0  0  0  0  0  0  0  0  0
  -26.8490  -18.1900   20.1110 C   0  0  0  0  0  1  0  0  0  0  0  0
  -28.3390  -18.0000   20.4480 C   0  0  0  0  0  2  0  0  0  0  0  0
  -29.2250  -22.4890   19.4630 C   0  0  0  0  0  3  0  0  0  0  0  0
  -28.4160  -23.6750   20.2140 C   0  0  0  0  0  3  0  0  0  0  0  0
  -28.5610  -25.1810   19.6650 C   0  0  0  0  0  2  0  0  0  0  0  0
  -28.3440  -26.3760   20.5310 O   0  0  0  0  0  0  0  0  0  0  0  0
  -24.6710  -31.8790   23.4440 C   0  0  0  0  0  0  0  0  0  0  0  0
  -27.2280  -27.2270   20.4510 C   0  0  0  0  0  0  0  0  0  0  0  0
  -23.4690  -30.5070   21.7810 C   0  0  0  0  0  3  0  0  0  0  0  0
  -24.9080  -28.9090   20.3960 C   0  0  0  0  0  0  0  0  0  0  0  0
  -26.0210  -30.7500   21.6600 C   0  0  0  0  0  2  0  0  0  0  0  0
  -26.0750  -29.3650   21.0180 C   0  0  0  0  0  0  0  0  0  0  0  0
  -27.2350  -28.5330   21.0400 C   0  0  0  0  0  3  0  0  0  0  0  0
  -26.0330  -26.8200   19.8170 C   0  0  0  0  0  3  0  0  0  0  0  0
  -24.8890  -27.6420   19.7900 C   0  0  0  0  0  3  0  0  0  0  0  0
  -23.7030  -29.8270   20.4070 C   0  0  0  0  0  2  0  0  0  0  0  0
  -24.7390  -31.0640   22.3510 N   0  0  0  0  0  0  0  0  0  0  0  0
  -23.5830  -32.1880   23.9520 O   0  0  0  0  0  0  0  0  0  0  0  0
  -22.7580  -29.5120   22.7300 C   0  0  0  0  0  0  0  0  0  0  0  0
  -21.4310  -29.3580   22.5670 N   0  0  0  0  0  0  0  0  0  0  0  0
  -23.3990  -28.8830   23.5750 O   0  0  0  0  0  0  0  0  0  0  0  0
  -20.9700  -29.9240   21.8680 H   0  0  0  0  0  0  0  0  0  0  0  0
  -18.0210  -28.2230   22.9720 C   0  0  0  0  0  0  0  0  0  0  0  0
  -20.5730  -28.4430   23.3230 C   0  0  0  0  0  3  0  0  0  0  0  0
  -20.6700  -27.0020   22.7700 C   0  0  0  0  0  2  0  0  0  0  0  0
  -19.5950  -26.6840   21.7240 C   0  0  0  0  0  2  0  0  0  0  0  0
  -18.1950  -26.8620   22.3190 C   0  0  0  0  0  2  0  0  0  0  0  0
  -19.1370  -28.9710   23.4310 C   0  0  0  0  0  0  0  0  0  0  0  0
  -18.9200  -30.2440   24.0000 C   0  0  0  0  0  3  0  0  0  0  0  0
  -17.6180  -30.7690   24.1160 C   0  0  0  0  0  3  0  0  0  0  0  0
  -16.5170  -30.0180   23.6720 C   0  0  0  0  0  3  0  0  0  0  0  0
  -16.7180  -28.7480   23.1040 C   0  0  0  0  0  3  0  0  0  0  0  0
  -25.9550  -32.4810   24.0930 C   0  0  0  0  0  3  0  0  0  0  0  0
  -25.6910  -33.9020   24.3590 N   0  0  0  0  0  0  0  0  0  0  0  0
  -26.0820  -34.9120   23.5680 C   0  0  0  0  0  0  0  0  0  0  0  0
  -26.7710  -34.7410   22.5590 O   0  0  0  0  0  0  0  0  0  0  0  0
  -25.0840  -34.1110   25.1370 H   0  0  0  0  0  0  0  0  0  0  0  0
  -24.4310  -36.7520   23.1030 C   0  0  0  0  0  1  0  0  0  0  0  0
  -25.6390  -36.3350   23.9560 C   0  0  0  0  0  3  0  0  0  0  0  0
  -27.7890  -37.1820   24.7930 C   0  0  0  0  0  1  0  0  0  0  0  0
  -26.7130  -37.3430   23.8190 N   0  0  0  0  0  0  0  0  0  0  0  0
  -26.3380  -38.2840   23.9110 H   0  0  0  0  0  0  0  0  0  0  0  0
  -26.3860  -31.7390   25.4170 C   0  0  1  0  0  0  0  0  0  0  0  0
  -25.2360  -31.5660   26.4370 C   0  0  0  0  0  1  0  0  0  0  0  0
  -26.9490  -30.3330   25.1010 C   0  0  0  0  0  1  0  0  0  0  0  0
  -27.5230  -32.5240   26.1090 C   0  0  0  0  0  1  0  0  0  0  0  0
  1  2  1  0
  3  1  1  0
  4  5  1  0
  4  6  1  0
  5  7  1  0
  6  7  1  0
  6  1  1  0
  7 49  1  1
  8 17  1  0
  8 14  1  0
  9 14  1  0
 10 11  1  0
 10  9  1  0
 12 11  1  0
 12 23  1  0
 12 13  1  0
 14 13  1  0
 15  8  2  0
 16  7  1  0
 16 17  1  0
 17 19  1  0
 18 16  2  0
 20 21  2  0
 21 40  1  0
 22 21  1  0
 22 25  1  0
 23 24  1  0
 23 20  1  0
 24 22  2  0
 25 26  1  0
 26 27  2  0
 28 31  1  0
 28 27  1  0
 29 28  2  0
 30 29  1  0
 30 25  2  0
 31 32  1  0
 32 33  1  0
 33 34  2  0
 35 34  1  0
 35 39  1  0
 36 35  2  0
 37 32  2  0
 37 36  1  0
 38 37  1  0
 40 41  1  0
 41 44  1  0
 41 43  1  0
 42 40  2  0
 45 20  1  0
 45 46  1  0
 47 45  1  0
 48 49  1  0
 50  1  1  0
 50 51  2  0
 52 51  1  0
 52 53  1  0
 54 65  2  0
 55 53  1  0
 55 60  1  0
 56 64  1  0
 56 66  1  0
 57 63  1  0
 57 59  1  0
 58 64  1  0
 59 60  2  0
 59 58  1  0
 61 55  2  0
 62 61  1  0
 62 57  2  0
 63 56  1  0
 64 54  1  0
 66 68  2  0
 67 66  1  0
 69 67  1  0
 70 79  2  0
 70 75  1  0
 71 67  1  0
 71 75  1  0
 72 71  1  0
 73 74  1  0
 73 72  1  0
 74 70  1  0
 75 76  2  0
 76 77  1  0
 78 77  2  0
 79 78  1  0
 80 54  1  0
 80 81  1  0
 80 90  1  0
 81 84  1  0
 82 86  1  0
 82 81  1  0
 83 82  2  0
 86 85  1  0
 88 89  1  0
 88 86  1  0
 88 87  1  0
 90 93  1  1
 90 91  1  0
 92 90  1  0
M  ISO  4   8 100  17 100  52 101  53 101
M  END
>  <TORSDO>  (63) 
F 21

>  <SCORE>  (63) 
-13.019

>  <name>  (63) 
62

>  <ligand_id>  (63) 
62

>  <original_smiles>  (63) 
[H]c1c([H])c([H])c2c(c1[H])C([H])([H])C([H])([H])C([H])([H])C2([H])N([H])C(=O)C1([H])N(C(=O)C([H])(N([H])C(=O)C([H])(N([H])C([H])([H])[H])C([H])([H])[H])C(C([H])([H])[H])(C([H])([H])[H])C([H])([H])[H])C([H])([H])c2c([H])c(OC([H])([H])C([H])([H])C([H])([H])[N+]([H])([H])C3([H])C([H])([H])C([H])([H])C3(C(=O)N([H])C(=O)N3C([H])([H])C([H])([H])C([H])([H])C([H])(n4nc(-c5c([H])c([H])c(Oc6c([H])c([H])c(F)c([H])c6F)c([H])c5[H])c(C(=O)N([H])[H])c4N([H])[H])C3([H])[H])C([H])([H])C([H])([H])[H])c([H])c([H])c2C1([H])[H]

>  <smiles>  (63) 
[H]c1c([H])c([H])c2c(c1[H])C([H])([H])C([H])([H])C([H])([H])C2([H])N([H])C(=O)C1([H])N(C(=O)C([H])(N([H])C(=O)C([H])(N([H])C([H])([H])[H])C([H])([H])[H])C(C([H])([H])[H])(C([H])([H])[H])C([H])([H])[H])C([H])([H])c2c([H])c(OC([H])([H])C([H])([H])C([H])([H])[N+]([H])([H])C3([H])C([H])([H])C([H])([H])C3(C(=O)N([H])C(=O)N3C([H])([H])C([H])([H])C([H])([H])C([H])(n4nc(-c5c([H])c([H])c(Oc6c([H])c([H])c(F)c([H])c6F)c([H])c5[H])c(C(=O)N([H])[H])c4N([H])[H])C3([H])[H])C([H])([H])C([H])([H])[H])c([H])c([H])c2C1([H])[H]

$$$$
63:0:0
     RDKit          3D

 88 95  0  0  1  0  0  0  0  0999 V2000
  -28.9080  -22.5340   20.7470 C   0  0  0  0  0  3  0  0  0  0  0  0
  -28.5360  -23.8660   19.9390 C   0  0  0  0  0  3  0  0  0  0  0  0
  -28.2730  -25.1910   20.7910 C   0  0  0  0  0  2  0  0  0  0  0  0
  -28.3610  -26.5310   20.1740 O   0  0  0  0  0  0  0  0  0  0  0  0
  -24.6020  -31.8870   23.2390 C   0  0  0  0  0  0  0  0  0  0  0  0
  -27.2290  -27.3500   20.1910 C   0  0  0  0  0  0  0  0  0  0  0  0
  -23.4000  -30.4860   21.5980 C   0  0  0  0  0  3  0  0  0  0  0  0
  -24.8550  -28.9320   20.1800 C   0  0  0  0  0  0  0  0  0  0  0  0
  -25.9360  -30.8180   21.4090 C   0  0  0  0  0  2  0  0  0  0  0  0
  -26.0210  -29.4370   20.7680 C   0  0  0  0  0  0  0  0  0  0  0  0
  -27.2160  -28.6590   20.7590 C   0  0  0  0  0  3  0  0  0  0  0  0
  -26.0420  -26.8810   19.5940 C   0  0  0  0  0  3  0  0  0  0  0  0
  -24.8660  -27.6580   19.5850 C   0  0  0  0  0  3  0  0  0  0  0  0
  -23.6150  -29.8040   20.2210 C   0  0  0  0  0  2  0  0  0  0  0  0
  -24.6640  -31.0810   22.1390 N   0  0  0  0  0  0  0  0  0  0  0  0
  -23.5170  -32.1630   23.7740 O   0  0  0  0  0  0  0  0  0  0  0  0
  -22.7390  -29.4710   22.5590 C   0  0  0  0  0  0  0  0  0  0  0  0
  -21.4150  -29.2900   22.4310 N   0  0  0  0  0  0  0  0  0  0  0  0
  -23.4190  -28.8470   23.3790 O   0  0  0  0  0  0  0  0  0  0  0  0
  -20.9260  -29.8460   21.7420 H   0  0  0  0  0  0  0  0  0  0  0  0
  -18.0390  -28.0880   22.9210 C   0  0  0  0  0  0  0  0  0  0  0  0
  -20.5950  -28.3520   23.2000 C   0  0  0  0  0  3  0  0  0  0  0  0
  -20.7020  -26.9200   22.6260 C   0  0  0  0  0  2  0  0  0  0  0  0
  -19.6040  -26.5940   21.6080 C   0  0  0  0  0  2  0  0  0  0  0  0
  -18.2200  -26.7380   22.2470 C   0  0  0  0  0  2  0  0  0  0  0  0
  -19.1550  -28.8520   23.3530 C   0  0  0  0  0  0  0  0  0  0  0  0
  -18.9320  -30.1170   23.9430 C   0  0  0  0  0  3  0  0  0  0  0  0
  -17.6260  -30.6170   24.1030 C   0  0  0  0  0  3  0  0  0  0  0  0
  -16.5240  -29.8490   23.6880 C   0  0  0  0  0  3  0  0  0  0  0  0
  -16.7320  -28.5870   23.1020 C   0  0  0  0  0  3  0  0  0  0  0  0
  -25.8840  -32.5220   23.8620 C   0  0  0  0  0  3  0  0  0  0  0  0
  -26.3980  -31.7530   25.1400 C   0  0  1  0  0  0  0  0  0  0  0  0
  -25.3030  -31.5190   26.2070 C   0  0  0  0  0  1  0  0  0  0  0  0
  -26.9800  -30.3740   24.7520 C   0  0  0  0  0  1  0  0  0  0  0  0
  -27.5490  -32.5460   25.8030 C   0  0  0  0  0  1  0  0  0  0  0  0
  -25.5750  -33.9210   24.1880 N   0  0  0  0  0  0  0  0  0  0  0  0
  -25.9120  -34.9730   23.4300 C   0  0  0  0  0  0  0  0  0  0  0  0
  -26.5860  -34.8670   22.4010 O   0  0  0  0  0  0  0  0  0  0  0  0
  -24.9750  -34.0770   24.9860 H   0  0  0  0  0  0  0  0  0  0  0  0
  -24.1900  -36.7700   23.0620 C   0  0  0  0  0  1  0  0  0  0  0  0
  -25.4250  -36.3630   23.8830 C   0  0  0  0  0  3  0  0  0  0  0  0
  -27.5550  -37.2430   24.7300 C   0  0  0  0  0  1  0  0  0  0  0  0
  -26.4610  -37.4130   23.7780 N   0  0  0  0  0  0  0  0  0  0  0  0
  -26.0560  -38.3340   23.9210 H   0  0  0  0  0  0  0  0  0  0  0  0
  -28.9070  -21.0990   20.0300 C   0  0  0  0  0  2  0  0  0  0  0  0
  -31.2450  -20.1540   20.4920 C   0  0  0  0  0  1  0  0  0  0  0  0
  -29.7400  -19.9010   20.7030 C   0  0  0  0  0  3  0  0  0  0  0  0
  -29.3780  -18.3880   20.3470 C   0  0  0  0  0  0  0  0  0  0  0  0
  -28.3120  -18.1150   19.7910 O   0  0  0  0  0  0  0  0  0  0  0  0
  -30.3670  -17.2140   20.7290 C   0  0  0  0  0  2  0  0  0  0  0  0
  -30.6100  -14.6760   20.3680 C   0  0  0  0  0  0  0  0  0  0  0  0
  -30.3690  -12.4430   19.3050 C   0  0  0  0  0  2  0  0  0  0  0  0
  -29.4210  -12.5620   18.0930 C   0  0  0  0  0  2  0  0  0  0  0  0
  -27.9520  -12.4030   18.5350 C   0  0  0  0  0  2  0  0  0  0  0  0
  -27.5980  -13.2670   19.7760 C   0  0  0  0  0  3  0  0  0  0  0  0
  -28.6670  -13.1370   20.8820 C   0  0  0  0  0  2  0  0  0  0  0  0
  -29.9630  -13.4730   20.2810 N   0  0  0  0  0  0  0  0  0  0  0  0
  -31.7910  -14.7860   20.0320 O   0  0  0  0  0  0  0  0  0  0  0  0
  -29.8620  -15.7920   20.6380 N   0  0  0  0  0  0  0  0  0  0  0  0
  -28.8750  -15.6610   20.7990 H   0  0  0  0  0  0  0  0  0  0  0  0
  -25.2090  -13.8460   20.5150 C   0  0  0  0  0  0  0  0  0  0  0  0
  -24.1500  -13.0650   20.8910 C   0  0  0  0  0  0  0  0  0  0  0  0
  -24.6230  -11.7170   20.8580 C   0  0  0  0  0  0  0  0  0  0  0  0
  -26.2580  -12.9730   20.2730 N   0  0  0  0  0  0  0  0  0  0  0  0
  -25.9110  -11.6870   20.5420 N   0  0  0  0  0  0  0  0  0  0  0  0
  -23.9050  -10.4500   21.0510 C   0  0  0  0  0  0  0  0  0  0  0  0
  -24.3500   -9.4830   21.9790 C   0  0  0  0  0  3  0  0  0  0  0  0
  -23.6320   -8.2810   22.1600 C   0  0  0  0  0  3  0  0  0  0  0  0
  -22.4560   -8.0370   21.4120 C   0  0  0  0  0  0  0  0  0  0  0  0
  -22.0310   -8.9920   20.4730 C   0  0  0  0  0  3  0  0  0  0  0  0
  -22.7480  -10.1870   20.2900 C   0  0  0  0  0  3  0  0  0  0  0  0
  -21.7090   -6.8880   21.5030 O   0  0  0  0  0  0  0  0  0  0  0  0
  -21.6750   -6.1400   22.6530 C   0  0  0  0  0  0  0  0  0  0  0  0
  -21.2550   -6.6860   23.8850 C   0  0  0  0  0  3  0  0  0  0  0  0
  -21.1690   -5.8640   25.0270 C   0  0  0  0  0  3  0  0  0  0  0  0
  -21.4950   -4.4970   24.9380 C   0  0  0  0  0  0  0  0  0  0  0  0
  -21.9080   -3.9500   23.7100 C   0  0  0  0  0  3  0  0  0  0  0  0
  -21.9960   -4.7700   22.5700 C   0  0  0  0  0  0  0  0  0  0  0  0
  -22.3750   -4.2330   21.3850 F   0  0  0  0  0  0  0  0  0  0  0  0
  -21.4050   -3.7060   26.0320 F   0  0  0  0  0  0  0  0  0  0  0  0
  -22.7510  -13.5320   21.1680 C   0  0  0  0  0  0  0  0  0  0  0  0
  -22.0310  -12.8320   22.0360 N   0  0  0  0  0  0  0  0  0  0  0  0
  -22.3050  -14.5560   20.6510 O   0  0  0  0  0  0  0  0  0  0  0  0
  -22.4030  -12.0020   22.4750 H   0  0  0  0  0  0  0  0  0  0  0  0
  -21.0920  -13.1270   22.2640 H   0  0  0  0  0  0  0  0  0  0  0  0
  -25.3610  -15.2180   20.3350 N   0  0  0  0  0  0  0  0  0  0  0  0
  -24.5870  -15.8640   20.4510 H   0  0  0  0  0  0  0  0  0  0  0  0
  -26.1930  -15.6670   19.9710 H   0  0  0  0  0  0  0  0  0  0  0  0
  2  1  2  0
  2  3  1  0
  4  6  1  0
  4  3  1  0
  5 16  2  0
  6 11  1  0
  7 15  1  0
  7 17  1  0
  8 14  1  0
  8 10  1  0
  9 15  1  0
 10  9  1  0
 11 10  2  0
 12  6  2  0
 13 12  1  0
 13  8  2  0
 14  7  1  0
 15  5  1  0
 17 19  2  0
 18 17  1  0
 20 18  1  0
 21 30  2  0
 21 26  1  0
 22 18  1  0
 22 26  1  0
 23 22  1  0
 24 25  1  0
 24 23  1  0
 25 21  1  0
 26 27  2  0
 27 28  1  0
 29 28  2  0
 30 29  1  0
 31  5  1  0
 31 36  1  0
 31 32  1  0
 32 35  1  1
 32 33  1  0
 34 32  1  0
 36 39  1  0
 37 41  1  0
 37 36  1  0
 38 37  2  0
 41 40  1  0
 43 41  1  0
 43 44  1  0
 43 42  1  0
 45 47  1  0
 45  1  1  0
 47 46  1  0
 48 47  1  0
 48 50  1  0
 49 48  2  0
 51 59  1  0
 52 57  1  0
 53 54  1  0
 53 52  1  0
 55 54  1  0
 55 64  1  0
 55 56  1  0
 57 51  1  0
 57 56  1  0
 58 51  2  0
 59 50  1  0
 59 60  1  0
 61 62  2  0
 62 81  1  0
 63 62  1  0
 63 66  1  0
 64 61  1  0
 64 65  1  0
 65 63  2  0
 66 67  1  0
 67 68  2  0
 69 72  1  0
 69 68  1  0
 70 69  2  0
 71 70  1  0
 71 66  2  0
 72 73  1  0
 73 74  1  0
 74 75  2  0
 76 75  1  0
 76 80  1  0
 77 76  2  0
 78 73  2  0
 78 77  1  0
 79 78  1  0
 81 82  1  0
 82 85  1  0
 82 84  1  0
 83 81  2  0
 86 87  1  0
 86 61  1  0
 88 86  1  0
M  ISO  4   3 101   4 101  51 100  59 100
M  END
>  <TORSDO>  (64) 
F 22

>  <SCORE>  (64) 
-13.095

>  <name>  (64) 
63

>  <ligand_id>  (64) 
63

>  <original_smiles>  (64) 
[H]c1c([H])c([H])c2c(c1[H])C([H])([H])C([H])([H])C([H])([H])C2([H])N([H])C(=O)C1([H])N(C(=O)C([H])(N([H])C(=O)C([H])(N([H])C([H])([H])[H])C([H])([H])[H])C(C([H])([H])[H])(C([H])([H])[H])C([H])([H])[H])C([H])([H])c2c([H])c(OC([H])([H])C([H])([H])C([H])([H])C([H])([H])C([H])(C(=O)C([H])([H])N([H])C(=O)N3C([H])([H])C([H])([H])C([H])([H])C([H])(n4nc(-c5c([H])c([H])c(Oc6c([H])c([H])c(F)c([H])c6F)c([H])c5[H])c(C(=O)N([H])[H])c4N([H])[H])C3([H])[H])C([H])([H])[H])c([H])c([H])c2C1([H])[H]

>  <smiles>  (64) 
[H]c1c([H])c([H])c2c(c1[H])C([H])([H])C([H])([H])C([H])([H])C2([H])N([H])C(=O)C1([H])N(C(=O)C([H])(N([H])C(=O)C([H])(N([H])C([H])([H])[H])C([H])([H])[H])C(C([H])([H])[H])(C([H])([H])[H])C([H])([H])[H])C([H])([H])c2c([H])c(OC([H])([H])C([H])([H])C([H])([H])C([H])([H])C([H])(C(=O)C([H])([H])N([H])C(=O)N3C([H])([H])C([H])([H])C([H])([H])C([H])(n4nc(-c5c([H])c([H])c(Oc6c([H])c([H])c(F)c([H])c6F)c([H])c5[H])c(C(=O)N([H])[H])c4N([H])[H])C3([H])[H])C([H])([H])[H])c([H])c([H])c2C1([H])[H]

$$$$
64:0:0
     RDKit          3D

 96104  0  0  1  0  0  0  0  0999 V2000
  -32.1180  -18.8080   22.0060 C   0  0  0  0  0  2  0  0  0  0  0  0
  -30.7520  -18.2670   24.0340 C   0  0  0  0  0  2  0  0  0  0  0  0
  -31.1270  -19.9360   21.6620 C   0  0  0  0  0  2  0  0  0  0  0  0
  -29.8080  -19.4440   23.6980 C   0  0  0  0  0  2  0  0  0  0  0  0
  -31.4570  -17.6650   22.7980 C   0  0  0  0  0  3  0  0  0  0  0  0
  -30.4640  -20.4970   22.8740 N   0  0  2  0  0  4  0  0  0  0  0  0
  -31.1790  -20.9080   23.4550 H   0  0  0  0  0  0  0  0  0  0  0  0
  -30.5440  -16.7860   21.9190 C   0  0  0  0  0  0  0  0  0  0  0  0
  -29.3280  -16.9940   21.8820 O   0  0  0  0  0  0  0  0  0  0  0  0
  -31.2120  -15.6660   21.1020 C   0  0  0  0  0  3  0  0  0  0  0  0
  -29.9780  -14.3830   19.3440 C   0  0  0  0  0  0  0  0  0  0  0  0
  -29.4350  -12.3200   18.1240 C   0  0  0  0  0  2  0  0  0  0  0  0
  -28.2330  -12.4070   17.1710 C   0  0  0  0  0  2  0  0  0  0  0  0
  -26.9240  -12.1340   17.9260 C   0  0  0  0  0  2  0  0  0  0  0  0
  -26.7890  -12.9970   19.2070 C   0  0  0  0  0  3  0  0  0  0  0  0
  -28.0690  -12.9190   20.0700 C   0  0  0  0  0  2  0  0  0  0  0  0
  -29.2370  -13.2560   19.2350 N   0  0  0  0  0  0  0  0  0  0  0  0
  -30.6130  -14.8860   18.4120 O   0  0  0  0  0  0  0  0  0  0  0  0
  -30.1930  -14.7330   20.6130 N   0  0  0  0  0  0  0  0  0  0  0  0
  -29.6490  -14.2520   21.3120 H   0  0  0  0  0  0  0  0  0  0  0  0
  -24.6110  -13.4360   20.5140 C   0  0  0  0  0  0  0  0  0  0  0  0
  -23.6870  -12.5880   21.0630 C   0  0  0  0  0  0  0  0  0  0  0  0
  -24.1660  -11.2660   20.8110 C   0  0  0  0  0  0  0  0  0  0  0  0
  -25.5980  -12.6260   19.9710 N   0  0  0  0  0  0  0  0  0  0  0  0
  -25.3430  -11.3110   20.2020 N   0  0  0  0  0  0  0  0  0  0  0  0
  -23.5440   -9.9600   21.0640 C   0  0  0  0  0  0  0  0  0  0  0  0
  -24.1370   -9.0140   21.9310 C   0  0  0  0  0  3  0  0  0  0  0  0
  -23.5100   -7.7730   22.1720 C   0  0  0  0  0  3  0  0  0  0  0  0
  -22.2770   -7.4660   21.5480 C   0  0  0  0  0  0  0  0  0  0  0  0
  -21.7030   -8.4010   20.6690 C   0  0  0  0  0  3  0  0  0  0  0  0
  -22.3300   -9.6340   20.4260 C   0  0  0  0  0  3  0  0  0  0  0  0
  -21.6090   -6.2760   21.7040 O   0  0  0  0  0  0  0  0  0  0  0  0
  -21.6280   -5.5900   22.8920 C   0  0  0  0  0  0  0  0  0  0  0  0
  -21.1860   -6.1740   24.0990 C   0  0  0  0  0  3  0  0  0  0  0  0
  -21.1570   -5.4110   25.2830 C   0  0  0  0  0  3  0  0  0  0  0  0
  -21.5610   -4.0630   25.2610 C   0  0  0  0  0  0  0  0  0  0  0  0
  -21.9960   -3.4770   24.0590 C   0  0  0  0  0  3  0  0  0  0  0  0
  -22.0280   -4.2370   22.8780 C   0  0  0  0  0  0  0  0  0  0  0  0
  -22.4270   -3.6620   21.7190 F   0  0  0  0  0  0  0  0  0  0  0  0
  -21.5250   -3.3260   26.3960 F   0  0  0  0  0  0  0  0  0  0  0  0
  -22.3820  -12.9750   21.7000 C   0  0  0  0  0  0  0  0  0  0  0  0
  -21.9250  -12.2030   22.6790 N   0  0  0  0  0  0  0  0  0  0  0  0
  -21.7850  -13.9980   21.3650 O   0  0  0  0  0  0  0  0  0  0  0  0
  -22.4270  -11.3770   22.9700 H   0  0  0  0  0  0  0  0  0  0  0  0
  -21.0620  -12.4400   23.1460 H   0  0  0  0  0  0  0  0  0  0  0  0
  -24.6880  -14.8210   20.4160 N   0  0  0  0  0  0  0  0  0  0  0  0
  -23.9550  -15.4330   20.7610 H   0  0  0  0  0  0  0  0  0  0  0  0
  -25.4370  -15.3220   19.9510 H   0  0  0  0  0  0  0  0  0  0  0  0
  -32.9270  -13.7560   21.2430 C   0  0  0  0  0  1  0  0  0  0  0  0
  -32.1930  -14.8750   21.9980 C   0  0  0  0  0  2  0  0  0  0  0  0
  -29.5060  -21.5830   22.5360 C   0  0  0  0  0  2  0  0  0  0  0  0
  -30.1700  -22.8450   21.9480 C   0  0  0  0  0  2  0  0  0  0  0  0
  -29.1800  -23.6520   21.0950 C   0  0  0  0  0  2  0  0  0  0  0  0
  -29.6580  -25.0730   20.7570 C   0  0  0  0  0  2  0  0  0  0  0  0
  -28.7040  -25.7490   19.7660 C   0  0  0  0  0  2  0  0  0  0  0  0
  -28.7560  -27.1670   19.9130 O   0  0  0  0  0  0  0  0  0  0  0  0
  -24.5680  -31.8440   23.2070 C   0  0  0  0  0  0  0  0  0  0  0  0
  -27.5370  -27.8030   19.9070 C   0  0  0  0  0  0  0  0  0  0  0  0
  -23.4770  -30.4750   21.4590 C   0  0  0  0  0  3  0  0  0  0  0  0
  -25.0450  -29.1300   19.9690 C   0  0  0  0  0  0  0  0  0  0  0  0
  -25.9750  -31.0120   21.3290 C   0  0  0  0  0  2  0  0  0  0  0  0
  -26.1570  -29.6950   20.6080 C   0  0  0  0  0  0  0  0  0  0  0  0
  -27.4070  -29.0390   20.5730 C   0  0  0  0  0  3  0  0  0  0  0  0
  -26.4070  -27.2500   19.2570 C   0  0  0  0  0  3  0  0  0  0  0  0
  -25.1640  -27.9040   19.2920 C   0  0  0  0  0  3  0  0  0  0  0  0
  -23.7480  -29.9010   20.0440 C   0  0  0  0  0  2  0  0  0  0  0  0
  -24.6890  -31.1210   22.0580 N   0  0  0  0  0  0  0  0  0  0  0  0
  -23.4640  -32.0100   23.7440 O   0  0  0  0  0  0  0  0  0  0  0  0
  -22.8820  -29.3540   22.3410 C   0  0  0  0  0  0  0  0  0  0  0  0
  -21.5700  -29.1060   22.1880 N   0  0  0  0  0  0  0  0  0  0  0  0
  -23.5950  -28.7130   23.1170 O   0  0  0  0  0  0  0  0  0  0  0  0
  -21.0520  -29.6790   21.5370 H   0  0  0  0  0  0  0  0  0  0  0  0
  -18.2550  -27.7370   22.6090 C   0  0  0  0  0  0  0  0  0  0  0  0
  -20.8020  -28.0750   22.8860 C   0  0  0  0  0  3  0  0  0  0  0  0
  -20.9590  -26.7020   22.1940 C   0  0  0  0  0  2  0  0  0  0  0  0
  -19.8610  -26.4180   21.1640 C   0  0  0  0  0  2  0  0  0  0  0  0
  -18.4800  -26.4550   21.8250 C   0  0  0  0  0  2  0  0  0  0  0  0
  -19.3450  -28.5070   23.0940 C   0  0  0  0  0  0  0  0  0  0  0  0
  -19.0820  -29.7090   23.7840 C   0  0  0  0  0  3  0  0  0  0  0  0
  -17.7610  -30.1420   23.9980 C   0  0  0  0  0  3  0  0  0  0  0  0
  -16.6840  -29.3680   23.5320 C   0  0  0  0  0  3  0  0  0  0  0  0
  -16.9310  -28.1670   22.8430 C   0  0  0  0  0  3  0  0  0  0  0  0
  -25.8020  -32.5130   23.8870 C   0  0  0  0  0  3  0  0  0  0  0  0
  -25.4350  -33.9000   24.2000 N   0  0  0  0  0  0  0  0  0  0  0  0
  -25.7630  -34.9610   23.4490 C   0  0  0  0  0  0  0  0  0  0  0  0
  -26.4760  -34.8760   22.4450 O   0  0  0  0  0  0  0  0  0  0  0  0
  -24.8060  -34.0380   24.9770 H   0  0  0  0  0  0  0  0  0  0  0  0
  -23.9910  -36.6900   23.0140 C   0  0  0  0  0  1  0  0  0  0  0  0
  -25.2100  -36.3320   23.8790 C   0  0  0  0  0  3  0  0  0  0  0  0
  -27.2800  -37.2880   24.7910 C   0  0  0  0  0  1  0  0  0  0  0  0
  -26.2090  -37.4200   23.8060 N   0  0  0  0  0  0  0  0  0  0  0  0
  -25.7670  -38.3250   23.9400 H   0  0  0  0  0  0  0  0  0  0  0  0
  -26.2840  -31.7560   25.1860 C   0  0  1  0  0  0  0  0  0  0  0  0
  -25.1470  -31.4630   26.1910 C   0  0  0  0  0  1  0  0  0  0  0  0
  -26.9500  -30.4110   24.8150 C   0  0  0  0  0  1  0  0  0  0  0  0
  -27.3580  -32.5980   25.9140 C   0  0  0  0  0  1  0  0  0  0  0  0
  1  5  1  0
  3  1  1  0
  3  6  1  0
  4  2  1  0
  5  8  1  0
  5  2  1  0
  6  7  1  1
  6  4  1  0
  9  8  2  0
 10  8  1  0
 10 50  1  0
 11 19  1  0
 12 17  1  0
 13 14  1  0
 13 12  1  0
 15 14  1  0
 15 24  1  0
 15 16  1  0
 17 11  1  0
 17 16  1  0
 18 11  2  0
 19 10  1  0
 19 20  1  0
 21 22  2  0
 22 41  1  0
 23 22  1  0
 23 26  1  0
 24 25  1  0
 24 21  1  0
 25 23  2  0
 26 27  1  0
 27 28  2  0
 29 32  1  0
 29 28  1  0
 30 29  2  0
 31 30  1  0
 31 26  2  0
 32 33  1  0
 33 34  1  0
 34 35  2  0
 36 35  1  0
 36 40  1  0
 37 36  2  0
 38 33  2  0
 38 37  1  0
 39 38  1  0
 41 42  1  0
 42 44  1  0
 42 45  1  0
 43 41  2  0
 46 21  1  0
 46 47  1  0
 48 46  1  0
 49 50  1  0
 51  6  1  0
 52 51  1  0
 53 52  1  0
 54 53  1  0
 55 56  1  0
 55 54  1  0
 57 68  2  0
 58 56  1  0
 58 63  1  0
 59 67  1  0
 59 69  1  0
 60 66  1  0
 60 62  1  0
 61 67  1  0
 62 61  1  0
 63 62  2  0
 64 65  1  0
 64 58  2  0
 65 60  2  0
 66 59  1  0
 67 57  1  0
 69 71  2  0
 70 69  1  0
 72 70  1  0
 73 82  2  0
 73 78  1  0
 74 70  1  0
 74 78  1  0
 75 74  1  0
 76 77  1  0
 76 75  1  0
 77 73  1  0
 78 79  2  0
 79 80  1  0
 81 80  2  0
 82 81  1  0
 83 57  1  0
 83 84  1  0
 83 93  1  0
 84 87  1  0
 85 89  1  0
 85 84  1  0
 86 85  2  0
 89 88  1  0
 91 89  1  0
 91 92  1  0
 91 90  1  0
 93 96  1  1
 93 94  1  0
 95 93  1  0
M  ISO  4  11 100  19 100  55 101  56 101
M  END
>  <TORSDO>  (65) 
F 24

>  <SCORE>  (65) 
-6.126

>  <name>  (65) 
64

>  <ligand_id>  (65) 
64

>  <original_smiles>  (65) 
[H]c1c([H])c([H])c2c(c1[H])C([H])([H])C([H])([H])C([H])([H])C2([H])N([H])C(=O)C1([H])N(C(=O)C([H])(N([H])C(=O)C([H])(N([H])C([H])([H])[H])C([H])([H])[H])C(C([H])([H])[H])(C([H])([H])[H])C([H])([H])[H])C([H])([H])c2c([H])c(OC([H])([H])C([H])([H])C([H])([H])C([H])([H])C([H])([H])[N+]3([H])C([H])([H])C([H])([H])C([H])(C(=O)C([H])(N([H])C(=O)N4C([H])([H])C([H])([H])C([H])([H])C([H])(n5nc(-c6c([H])c([H])c(Oc7c([H])c([H])c(F)c([H])c7F)c([H])c6[H])c(C(=O)N([H])[H])c5N([H])[H])C4([H])[H])C([H])([H])C([H])([H])[H])C([H])([H])C3([H])[H])c([H])c([H])c2C1([H])[H]

>  <smiles>  (65) 
[H]c1c([H])c([H])c2c(c1[H])C([H])([H])C([H])([H])C([H])([H])C2([H])N([H])C(=O)C1([H])N(C(=O)C([H])(N([H])C(=O)C([H])(N([H])C([H])([H])[H])C([H])([H])[H])C(C([H])([H])[H])(C([H])([H])[H])C([H])([H])[H])C([H])([H])c2c([H])c(OC([H])([H])C([H])([H])C([H])([H])C([H])([H])C([H])([H])[N+]3([H])C([H])([H])C([H])([H])C([H])(C(=O)C([H])(N([H])C(=O)N4C([H])([H])C([H])([H])C([H])([H])C([H])(n5nc(-c6c([H])c([H])c(Oc7c([H])c([H])c(F)c([H])c7F)c([H])c6[H])c(C(=O)N([H])[H])c5N([H])[H])C4([H])[H])C([H])([H])C([H])([H])[H])C([H])([H])C3([H])[H])c([H])c([H])c2C1([H])[H]

$$$$
65:0:0
     RDKit          3D

 94101  0  0  1  0  0  0  0  0999 V2000
  -29.4270  -20.5450   20.1990 C   0  0  0  0  0  0  0  0  0  0  0  0
  -29.4310  -20.6310   18.9710 O   0  0  0  0  0  0  0  0  0  0  0  0
  -29.6070  -21.9330   22.4100 C   0  0  0  0  0  1  0  0  0  0  0  0
  -29.0090  -21.9330   20.9920 C   0  0  0  0  0  3  0  0  0  0  0  0
  -29.1330  -23.4700   20.3010 C   0  0  0  0  0  3  0  0  0  0  0  0
  -28.2580  -24.8330   20.7570 C   0  0  0  0  0  3  0  0  0  0  0  0
  -28.4470  -26.3050   20.2890 O   0  0  0  0  0  0  0  0  0  0  0  0
  -24.6940  -31.9330   23.2080 C   0  0  0  0  0  0  0  0  0  0  0  0
  -27.3550  -27.2410   20.2540 C   0  0  0  0  0  0  0  0  0  0  0  0
  -23.5150  -30.4920   21.5880 C   0  0  0  0  0  3  0  0  0  0  0  0
  -24.9880  -28.9230   20.1810 C   0  0  0  0  0  0  0  0  0  0  0  0
  -26.0570  -30.8130   21.4040 C   0  0  0  0  0  2  0  0  0  0  0  0
  -26.1580  -29.4110   20.7790 C   0  0  0  0  0  0  0  0  0  0  0  0
  -27.3440  -28.5890   20.7890 C   0  0  0  0  0  3  0  0  0  0  0  0
  -26.1600  -26.8460   19.6160 C   0  0  0  0  0  3  0  0  0  0  0  0
  -25.0040  -27.6540   19.5770 C   0  0  0  0  0  3  0  0  0  0  0  0
  -23.7430  -29.7920   20.2190 C   0  0  0  0  0  2  0  0  0  0  0  0
  -24.7760  -31.1020   22.1210 N   0  0  0  0  0  0  0  0  0  0  0  0
  -23.6060  -32.2050   23.7340 O   0  0  0  0  0  0  0  0  0  0  0  0
  -22.8530  -29.4910   22.5690 C   0  0  0  0  0  0  0  0  0  0  0  0
  -21.5280  -29.3000   22.4500 N   0  0  0  0  0  0  0  0  0  0  0  0
  -23.5380  -28.8820   23.3950 O   0  0  0  0  0  0  0  0  0  0  0  0
  -21.0330  -29.8480   21.7620 H   0  0  0  0  0  0  0  0  0  0  0  0
  -18.1620  -28.0600   22.9750 C   0  0  0  0  0  0  0  0  0  0  0  0
  -20.7180  -28.3610   23.2320 C   0  0  0  0  0  3  0  0  0  0  0  0
  -20.8360  -26.9240   22.6730 C   0  0  0  0  0  2  0  0  0  0  0  0
  -19.7360  -26.5760   21.6640 C   0  0  0  0  0  2  0  0  0  0  0  0
  -18.3540  -26.7090   22.3090 C   0  0  0  0  0  2  0  0  0  0  0  0
  -19.2730  -28.8450   23.3910 C   0  0  0  0  0  0  0  0  0  0  0  0
  -19.0380  -30.1090   23.9750 C   0  0  0  0  0  3  0  0  0  0  0  0
  -17.7280  -30.5910   24.1480 C   0  0  0  0  0  3  0  0  0  0  0  0
  -16.6320  -29.8080   23.7460 C   0  0  0  0  0  3  0  0  0  0  0  0
  -16.8500  -28.5440   23.1680 C   0  0  0  0  0  3  0  0  0  0  0  0
  -25.9650  -32.5970   23.8230 C   0  0  0  0  0  3  0  0  0  0  0  0
  -26.5090  -31.8330   25.0940 C   0  0  1  0  0  0  0  0  0  0  0  0
  -25.4310  -31.5610   26.1690 C   0  0  0  0  0  1  0  0  0  0  0  0
  -27.1230  -30.4740   24.6910 C   0  0  0  0  0  1  0  0  0  0  0  0
  -27.6490  -32.6510   25.7470 C   0  0  0  0  0  1  0  0  0  0  0  0
  -25.6250  -33.9870   24.1650 N   0  0  0  0  0  0  0  0  0  0  0  0
  -25.9270  -35.0550   23.4150 C   0  0  0  0  0  0  0  0  0  0  0  0
  -26.5830  -34.9760   22.3730 O   0  0  0  0  0  0  0  0  0  0  0  0
  -25.0440  -34.1250   24.9800 H   0  0  0  0  0  0  0  0  0  0  0  0
  -24.1470  -36.8100   23.1080 C   0  0  0  0  0  1  0  0  0  0  0  0
  -25.4140  -36.4280   23.8910 C   0  0  0  0  0  3  0  0  0  0  0  0
  -27.5460  -37.3540   24.6840 C   0  0  0  0  0  1  0  0  0  0  0  0
  -26.4160  -37.5090   23.7700 N   0  0  0  0  0  0  0  0  0  0  0  0
  -25.9910  -38.4150   23.9450 H   0  0  0  0  0  0  0  0  0  0  0  0
  -29.8840  -19.0770   20.8190 C   0  0  0  0  0  2  0  0  0  0  0  0
  -29.0710  -17.6220   20.6240 C   0  0  0  0  0  0  0  0  0  0  0  0
  -30.4000  -15.1020   20.4910 C   0  0  0  0  0  0  0  0  0  0  0  0
  -30.3700  -12.8280   19.3780 C   0  0  0  0  0  2  0  0  0  0  0  0
  -29.4310  -12.9230   18.1490 C   0  0  0  0  0  2  0  0  0  0  0  0
  -27.9650  -12.6570   18.5520 C   0  0  0  0  0  2  0  0  0  0  0  0
  -27.5670  -13.4420   19.8310 C   0  0  0  0  0  3  0  0  0  0  0  0
  -28.6280  -13.3130   20.9460 C   0  0  0  0  0  2  0  0  0  0  0  0
  -29.8970  -13.8030   20.4030 N   0  0  0  0  0  0  0  0  0  0  0  0
  -31.5330  -15.3180   20.0430 O   0  0  0  0  0  0  0  0  0  0  0  0
  -29.5520  -16.1390   20.9590 N   0  0  0  0  0  4  0  0  0  0  0  0
  -28.8450  -15.7030   21.5300 H   0  0  0  0  0  0  0  0  0  0  0  0
  -25.1560  -13.9180   20.5460 C   0  0  0  0  0  0  0  0  0  0  0  0
  -24.1190  -13.0980   20.8890 C   0  0  0  0  0  0  0  0  0  0  0  0
  -24.6380  -11.7690   20.8560 C   0  0  0  0  0  0  0  0  0  0  0  0
  -26.2330  -13.0830   20.3000 N   0  0  0  0  0  0  0  0  0  0  0  0
  -25.9340  -11.7870   20.5640 N   0  0  0  0  0  0  0  0  0  0  0  0
  -23.9660  -10.4770   21.0380 C   0  0  0  0  0  0  0  0  0  0  0  0
  -24.4120   -9.5450   21.9980 C   0  0  0  0  0  3  0  0  0  0  0  0
  -23.7400   -8.3160   22.1680 C   0  0  0  0  0  3  0  0  0  0  0  0
  -22.6080   -8.0130   21.3760 C   0  0  0  0  0  0  0  0  0  0  0  0
  -22.1840   -8.9320   20.4030 C   0  0  0  0  0  3  0  0  0  0  0  0
  -22.8580  -10.1520   20.2290 C   0  0  0  0  0  3  0  0  0  0  0  0
  -21.8990   -6.8360   21.4540 O   0  0  0  0  0  0  0  0  0  0  0  0
  -21.8130   -6.1220   22.6220 C   0  0  0  0  0  0  0  0  0  0  0  0
  -21.3000   -6.6880   23.8100 C   0  0  0  0  0  3  0  0  0  0  0  0
  -21.1710   -5.8980   24.9680 C   0  0  0  0  0  3  0  0  0  0  0  0
  -21.5400   -4.5390   24.9400 C   0  0  0  0  0  0  0  0  0  0  0  0
  -22.0440   -3.9720   23.7550 C   0  0  0  0  0  3  0  0  0  0  0  0
  -22.1800   -4.7610   22.6010 C   0  0  0  0  0  0  0  0  0  0  0  0
  -22.6440   -4.2050   21.4550 F   0  0  0  0  0  0  0  0  0  0  0  0
  -21.4090   -3.7750   26.0490 F   0  0  0  0  0  0  0  0  0  0  0  0
  -22.6970  -13.5120   21.1440 C   0  0  0  0  0  0  0  0  0  0  0  0
  -21.9920  -12.7940   22.0130 N   0  0  0  0  0  0  0  0  0  0  0  0
  -22.2180  -14.5090   20.6080 O   0  0  0  0  0  0  0  0  0  0  0  0
  -22.3890  -11.9910   22.4820 H   0  0  0  0  0  0  0  0  0  0  0  0
  -21.0380  -13.0580   22.2170 H   0  0  0  0  0  0  0  0  0  0  0  0
  -25.2840  -15.2980   20.4130 N   0  0  0  0  0  0  0  0  0  0  0  0
  -24.6170  -15.8490   20.9390 H   0  0  0  0  0  0  0  0  0  0  0  0
  -26.2210  -15.6600   20.5020 H   0  0  0  0  0  0  0  0  0  0  0  0
  -27.9950  -17.6190   19.4960 C   0  0  0  0  0  2  0  0  0  0  0  0
  -26.7570  -18.5180   19.7780 C   0  0  0  0  0  2  0  0  0  0  0  0
  -25.5890  -18.3140   18.7820 C   0  0  0  0  0  2  0  0  0  0  0  0
  -24.3220  -18.8950   19.2710 N   0  0  0  0  0  4  0  0  0  0  0  0
  -24.1130  -18.5520   20.1930 H   0  0  0  0  0  0  0  0  0  0  0  0
  -23.5740  -18.6200   18.6610 H   0  0  0  0  0  0  0  0  0  0  0  0
  -24.3520  -19.8980   19.2880 H   0  0  0  0  0  0  0  0  0  0  0  0
  1 48  1  0
  1  4  1  0
  2  1  2  0
  4  3  1  0
  5  6  2  0
  5  4  1  0
  7  6  1  0
  8 19  2  0
  9  7  1  0
  9 14  1  0
 10 18  1  0
 10 20  1  0
 11 17  1  0
 11 13  1  0
 12 18  1  0
 13 14  2  0
 13 12  1  0
 15  9  2  0
 16 15  1  0
 16 11  2  0
 17 10  1  0
 18  8  1  0
 20 22  2  0
 21 20  1  0
 23 21  1  0
 24 33  2  0
 24 29  1  0
 25 21  1  0
 25 29  1  0
 26 25  1  0
 27 28  1  0
 27 26  1  0
 28 24  1  0
 29 30  2  0
 30 31  1  0
 32 31  2  0
 33 32  1  0
 34  8  1  0
 34 39  1  0
 34 35  1  0
 35 38  1  1
 35 36  1  0
 37 35  1  0
 39 42  1  0
 40 44  1  0
 40 39  1  0
 41 40  2  0
 44 43  1  0
 46 44  1  0
 46 47  1  0
 46 45  1  0
 49 48  1  0
 49 58  2  3
 50 58  1  0
 51 56  1  0
 52 53  1  0
 52 51  1  0
 54 53  1  0
 54 63  1  0
 54 55  1  0
 56 50  1  0
 56 55  1  0
 57 50  2  0
 58 59  1  0
 60 61  2  0
 61 80  1  0
 62 61  1  0
 62 65  1  0
 63 60  1  0
 63 64  1  0
 64 62  2  0
 65 66  1  0
 66 67  2  0
 68 71  1  0
 68 67  1  0
 69 68  2  0
 70 69  1  0
 70 65  2  0
 71 72  1  0
 72 73  1  0
 73 74  2  0
 75 74  1  0
 75 79  1  0
 76 75  2  0
 77 72  2  0
 77 76  1  0
 78 77  1  0
 80 81  1  0
 81 84  1  0
 81 83  1  0
 82 80  2  0
 85 87  1  0
 85 60  1  0
 85 86  1  0
 88 89  1  0
 88 49  1  0
 90 91  1  0
 90 89  1  0
 91 94  1  0
 91 92  1  0
 93 91  1  0
M  ISO  4   6 101   7 101  50 100  58 100
M  END
>  <TORSDO>  (66) 
F 25

>  <SCORE>  (66) 
-11.386

>  <name>  (66) 
65

>  <ligand_id>  (66) 
65

>  <original_smiles>  (66) 
[H]c1c([H])c([H])c2c(c1[H])C([H])([H])C([H])([H])C([H])([H])C2([H])N([H])C(=O)C1([H])N(C(=O)C([H])(N([H])C(=O)C([H])(N([H])C([H])([H])[H])C([H])([H])[H])C(C([H])([H])[H])(C([H])([H])[H])C([H])([H])[H])C([H])([H])c2c([H])c(OC([H])([H])C([H])([H])C([H])(C(=O)C([H])([H])C([H])(N([H])C(=O)N3C([H])([H])C([H])([H])C([H])([H])C([H])(n4nc(-c5c([H])c([H])c(Oc6c([H])c([H])c(F)c([H])c6F)c([H])c5[H])c(C(=O)N([H])[H])c4N([H])[H])C3([H])[H])C([H])([H])C([H])([H])C([H])([H])[N+]([H])([H])[H])C([H])([H])[H])c([H])c([H])c2C1([H])[H]

>  <smiles>  (66) 
[H]c1c([H])c([H])c2c(c1[H])C([H])([H])C([H])([H])C([H])([H])C2([H])N([H])C(=O)C1([H])N(C(=O)C([H])(N([H])C(=O)C([H])(N([H])C([H])([H])[H])C([H])([H])[H])C(C([H])([H])[H])(C([H])([H])[H])C([H])([H])[H])C([H])([H])c2c([H])c(OC([H])([H])C([H])([H])C([H])(C(=O)C([H])([H])C([H])(N([H])C(=O)N3C([H])([H])C([H])([H])C([H])([H])C([H])(n4nc(-c5c([H])c([H])c(Oc6c([H])c([H])c(F)c([H])c6F)c([H])c5[H])c(C(=O)N([H])[H])c4N([H])[H])C3([H])[H])C([H])([H])C([H])([H])C([H])([H])[N+]([H])([H])[H])C([H])([H])[H])c([H])c([H])c2C1([H])[H]

$$$$
66:0:0
     RDKit          3D

 98106  0  0  1  0  0  0  0  0999 V2000
  -30.1060  -20.4630   19.2410 C   0  0  0  0  0  2  0  0  0  0  0  0
  -30.5530  -21.8640   18.8020 C   0  0  0  0  0  2  0  0  0  0  0  0
  -32.4930  -23.1290   19.9160 C   0  0  0  0  0  1  0  0  0  0  0  0
  -30.9810  -22.8280   19.9370 C   0  0  0  0  0  3  0  0  0  0  0  0
  -30.0850  -24.0910   20.0210 C   0  0  0  0  0  2  0  0  0  0  0  0
  -30.7050  -24.8080   17.5690 C   0  0  0  0  0  1  0  0  0  0  0  0
  -30.2500  -25.2360   18.9830 C   0  0  0  0  0  3  0  0  0  0  0  0
  -28.9030  -25.9790   18.8190 C   0  0  0  0  0  2  0  0  0  0  0  0
  -28.5310  -26.7010   19.9840 O   0  0  0  0  0  0  0  0  0  0  0  0
  -24.5870  -31.7150   23.0860 C   0  0  0  0  0  0  0  0  0  0  0  0
  -27.3170  -27.3600   19.9620 C   0  0  0  0  0  0  0  0  0  0  0  0
  -23.4040  -30.3130   21.4200 C   0  0  0  0  0  3  0  0  0  0  0  0
  -24.8860  -28.8130   19.9750 C   0  0  0  0  0  0  0  0  0  0  0  0
  -25.9230  -30.7000   21.2470 C   0  0  0  0  0  2  0  0  0  0  0  0
  -26.0220  -29.3410   20.5970 C   0  0  0  0  0  0  0  0  0  0  0  0
  -27.2320  -28.6100   20.6070 C   0  0  0  0  0  3  0  0  0  0  0  0
  -26.1590  -26.8390   19.3340 C   0  0  0  0  0  3  0  0  0  0  0  0
  -24.9490  -27.5590   19.3390 C   0  0  0  0  0  3  0  0  0  0  0  0
  -23.6220  -29.6400   20.0350 C   0  0  0  0  0  2  0  0  0  0  0  0
  -24.6540  -30.9280   21.9750 N   0  0  0  0  0  0  0  0  0  0  0  0
  -23.4980  -31.9780   23.6170 O   0  0  0  0  0  0  0  0  0  0  0  0
  -22.7620  -29.2760   22.3690 C   0  0  0  0  0  0  0  0  0  0  0  0
  -21.4400  -29.0820   22.2310 N   0  0  0  0  0  0  0  0  0  0  0  0
  -23.4480  -28.6490   23.1780 O   0  0  0  0  0  0  0  0  0  0  0  0
  -20.9500  -29.6560   21.5600 H   0  0  0  0  0  0  0  0  0  0  0  0
  -18.0750  -27.8460   22.6800 C   0  0  0  0  0  0  0  0  0  0  0  0
  -20.6260  -28.1220   22.9760 C   0  0  0  0  0  3  0  0  0  0  0  0
  -20.7430  -26.6970   22.3820 C   0  0  0  0  0  2  0  0  0  0  0  0
  -19.6530  -26.3780   21.3530 C   0  0  0  0  0  2  0  0  0  0  0  0
  -18.2670  -26.5040   21.9890 C   0  0  0  0  0  2  0  0  0  0  0  0
  -19.1820  -28.6130   23.1260 C   0  0  0  0  0  0  0  0  0  0  0  0
  -18.9440  -29.8720   23.7230 C   0  0  0  0  0  3  0  0  0  0  0  0
  -17.6340  -30.3580   23.8790 C   0  0  0  0  0  3  0  0  0  0  0  0
  -16.5400  -29.5830   23.4520 C   0  0  0  0  0  3  0  0  0  0  0  0
  -16.7630  -28.3270   22.8590 C   0  0  0  0  0  3  0  0  0  0  0  0
  -25.8660  -32.3440   23.7220 C   0  0  0  0  0  3  0  0  0  0  0  0
  -25.5440  -33.7300   24.0840 N   0  0  0  0  0  0  0  0  0  0  0  0
  -25.8790  -34.8020   23.3550 C   0  0  0  0  0  0  0  0  0  0  0  0
  -26.5650  -34.7320   22.3320 O   0  0  0  0  0  0  0  0  0  0  0  0
  -24.9420  -33.8630   24.8840 H   0  0  0  0  0  0  0  0  0  0  0  0
  -24.1540  -36.6020   23.0090 C   0  0  0  0  0  1  0  0  0  0  0  0
  -25.3720  -36.1730   23.8430 C   0  0  0  0  0  3  0  0  0  0  0  0
  -27.4790  -37.0360   24.7650 C   0  0  0  0  0  1  0  0  0  0  0  0
  -26.4040  -37.2300   23.7960 N   0  0  0  0  0  0  0  0  0  0  0  0
  -25.9890  -38.1420   23.9610 H   0  0  0  0  0  0  0  0  0  0  0  0
  -26.4070  -31.5500   24.9760 C   0  0  1  0  0  0  0  0  0  0  0  0
  -25.3220  -31.2480   26.0370 C   0  0  0  0  0  1  0  0  0  0  0  0
  -27.0300  -30.2010   24.5450 C   0  0  0  0  0  1  0  0  0  0  0  0
  -27.5390  -32.3600   25.6560 C   0  0  0  0  0  1  0  0  0  0  0  0
  -31.2610  -19.5130   19.5900 C   0  0  0  0  0  2  0  0  0  0  0  0
  -30.2820  -14.2950   18.6950 C   0  0  0  0  0  0  0  0  0  0  0  0
  -29.3120  -12.5100   17.3060 C   0  0  0  0  0  2  0  0  0  0  0  0
  -28.0540  -13.0250   16.5840 C   0  0  0  0  0  2  0  0  0  0  0  0
  -26.8060  -12.7830   17.4500 C   0  0  0  0  0  2  0  0  0  0  0  0
  -26.9900  -13.3150   18.8950 C   0  0  0  0  0  3  0  0  0  0  0  0
  -28.3370  -12.8680   19.5060 C   0  0  0  0  0  2  0  0  0  0  0  0
  -29.4250  -13.2390   18.5850 N   0  0  0  0  0  0  0  0  0  0  0  0
  -31.0590  -14.5860   17.7880 O   0  0  0  0  0  0  0  0  0  0  0  0
  -29.3690  -16.1130   20.0430 C   0  0  0  0  0  2  0  0  0  0  0  0
  -29.9350  -17.5270   20.3670 C   0  0  0  0  0  2  0  0  0  0  0  0
  -32.1120  -17.2480   19.1360 C   0  0  0  0  0  2  0  0  0  0  0  0
  -32.5310  -16.3430   20.3220 C   0  0  0  0  0  3  0  0  0  0  0  0
  -31.6360  -15.0770   20.5750 C   0  0  0  0  0  3  0  0  0  0  0  0
  -30.3300  -14.9990   19.8610 N   0  0  0  0  0  0  0  0  0  0  0  0
  -30.9040  -18.0770   19.3740 N   0  0  2  0  0  4  0  0  0  0  0  0
  -30.4270  -18.0800   18.4850 H   0  0  0  0  0  0  0  0  0  0  0  0
  -24.9590  -13.7830   20.4020 C   0  0  0  0  0  0  0  0  0  0  0  0
  -24.0550  -12.9460   21.0030 C   0  0  0  0  0  0  0  0  0  0  0  0
  -24.4600  -11.6180   20.6650 C   0  0  0  0  0  0  0  0  0  0  0  0
  -25.8580  -12.9560   19.7470 N   0  0  0  0  0  0  0  0  0  0  0  0
  -25.5810  -11.6430   19.9570 N   0  0  0  0  0  0  0  0  0  0  0  0
  -23.8120  -10.3260   20.9280 C   0  0  0  0  0  0  0  0  0  0  0  0
  -24.3950   -9.3650   21.7830 C   0  0  0  0  0  3  0  0  0  0  0  0
  -23.7400   -8.1400   22.0350 C   0  0  0  0  0  3  0  0  0  0  0  0
  -22.4880   -7.8670   21.4370 C   0  0  0  0  0  0  0  0  0  0  0  0
  -21.9240   -8.8190   20.5680 C   0  0  0  0  0  3  0  0  0  0  0  0
  -22.5790  -10.0350   20.3150 C   0  0  0  0  0  3  0  0  0  0  0  0
  -21.7910   -6.6970   21.6050 O   0  0  0  0  0  0  0  0  0  0  0  0
  -21.7700   -6.0390   22.8090 C   0  0  0  0  0  0  0  0  0  0  0  0
  -21.3070   -6.6590   23.9910 C   0  0  0  0  0  3  0  0  0  0  0  0
  -21.2350   -5.9230   25.1890 C   0  0  0  0  0  3  0  0  0  0  0  0
  -21.6160   -4.5670   25.2100 C   0  0  0  0  0  0  0  0  0  0  0  0
  -22.0720   -3.9490   24.0330 C   0  0  0  0  0  3  0  0  0  0  0  0
  -22.1430   -4.6810   22.8350 C   0  0  0  0  0  0  0  0  0  0  0  0
  -22.5620   -4.0720   21.7000 F   0  0  0  0  0  0  0  0  0  0  0  0
  -21.5420   -3.8600   26.3610 F   0  0  0  0  0  0  0  0  0  0  0  0
  -22.8310  -13.3560   21.7680 C   0  0  0  0  0  0  0  0  0  0  0  0
  -22.4430  -12.5720   22.7710 N   0  0  0  0  0  0  0  0  0  0  0  0
  -22.2380  -14.4020   21.5120 O   0  0  0  0  0  0  0  0  0  0  0  0
  -22.9390  -11.7230   22.9910 H   0  0  0  0  0  0  0  0  0  0  0  0
  -21.6380  -12.8280   23.3250 H   0  0  0  0  0  0  0  0  0  0  0  0
  -25.0830  -15.1670   20.3340 N   0  0  0  0  0  0  0  0  0  0  0  0
  -24.4060  -15.8000   20.7410 H   0  0  0  0  0  0  0  0  0  0  0  0
  -25.7870  -15.6480   19.7900 H   0  0  0  0  0  0  0  0  0  0  0  0
  -30.9720  -13.3480   22.3890 C   0  0  0  0  0  1  0  0  0  0  0  0
  -31.5140  -14.7480   22.0830 C   0  0  0  0  0  2  0  0  0  0  0  0
  -35.0160  -17.0510   20.0060 C   0  0  0  0  0  1  0  0  0  0  0  0
  -34.0000  -15.9010   20.1430 C   0  0  0  0  0  2  0  0  0  0  0  0
  1 50  1  0
  2  1  1  0
  2  4  1  0
  4  3  1  0
  4  5  1  0
  7  6  1  0
  7  5  1  0
  8  7  1  0
  8  9  1  0
 10 21  2  0
 11  9  1  0
 11 16  1  0
 12 20  1  0
 12 22  1  0
 13 19  1  0
 13 15  1  0
 14 20  1  0
 15 16  2  0
 15 14  1  0
 17 18  1  0
 17 11  2  0
 18 13  2  0
 19 12  1  0
 20 10  1  0
 22 24  2  0
 23 22  1  0
 25 23  1  0
 26 35  2  0
 26 31  1  0
 27 23  1  0
 27 31  1  0
 28 27  1  0
 29 30  1  0
 29 28  1  0
 30 26  1  0
 31 32  2  0
 32 33  1  0
 34 33  2  0
 35 34  1  0
 36 10  1  0
 36 37  1  0
 36 46  1  0
 37 40  1  0
 38 42  1  0
 38 37  1  0
 39 38  2  0
 42 41  1  0
 44 42  1  0
 44 45  1  0
 44 43  1  0
 46 49  1  1
 46 47  1  0
 48 46  1  0
 51 64  1  0
 52 57  1  0
 53 52  1  0
 53 54  1  0
 55 54  1  0
 55 56  1  0
 55 70  1  0
 57 51  1  0
 57 56  1  0
 58 51  2  0
 59 60  1  0
 61 65  1  0
 61 62  1  0
 62 98  1  0
 62 63  1  0
 63 96  1  0
 64 59  1  0
 64 63  1  0
 65 50  1  0
 65 60  1  0
 65 66  1  6
 67 68  2  0
 68 87  1  0
 69 72  1  0
 69 68  1  0
 70 71  1  0
 70 67  1  0
 71 69  2  0
 72 73  1  0
 73 74  2  0
 75 78  1  0
 75 74  1  0
 76 75  2  0
 77 76  1  0
 77 72  2  0
 78 79  1  0
 79 84  2  0
 79 80  1  0
 80 81  2  0
 81 82  1  0
 82 86  1  0
 83 82  2  0
 84 83  1  0
 85 84  1  0
 87 88  1  0
 88 90  1  0
 88 91  1  0
 89 87  2  0
 92 67  1  0
 92 93  1  0
 94 92  1  0
 96 95  1  0
 97 98  1  0
M  ISO  4   8 101   9 101  51 100  64 100
M  END
>  <TORSDO>  (67) 
F 24

>  <SCORE>  (67) 
-4.244

>  <name>  (67) 
66

>  <ligand_id>  (67) 
66

>  <original_smiles>  (67) 
[H]c1c([H])c([H])c2c(c1[H])C([H])([H])C([H])([H])C([H])([H])C2([H])N([H])C(=O)C1([H])N(C(=O)C([H])(N([H])C(=O)C([H])(N([H])C([H])([H])[H])C([H])([H])[H])C(C([H])([H])[H])(C([H])([H])[H])C([H])([H])[H])C([H])([H])c2c([H])c(OC([H])([H])C([H])(C([H])([H])[H])C([H])([H])C([H])(C([H])([H])[H])C([H])([H])C([H])([H])C([H])([H])[N+]3([H])C([H])([H])C([H])([H])N(C(=O)N4C([H])([H])C([H])([H])C([H])([H])C([H])(n5nc(-c6c([H])c([H])c(Oc7c([H])c([H])c(F)c([H])c7F)c([H])c6[H])c(C(=O)N([H])[H])c5N([H])[H])C4([H])[H])C([H])(C([H])([H])C([H])([H])[H])C([H])(C([H])([H])C([H])([H])[H])C3([H])[H])c([H])c([H])c2C1([H])[H]

>  <smiles>  (67) 
[H]c1c([H])c([H])c2c(c1[H])C([H])([H])C([H])([H])C([H])([H])C2([H])N([H])C(=O)C1([H])N(C(=O)C([H])(N([H])C(=O)C([H])(N([H])C([H])([H])[H])C([H])([H])[H])C(C([H])([H])[H])(C([H])([H])[H])C([H])([H])[H])C([H])([H])c2c([H])c(OC([H])([H])C([H])(C([H])([H])[H])C([H])([H])C([H])(C([H])([H])[H])C([H])([H])C([H])([H])C([H])([H])[N+]3([H])C([H])([H])C([H])([H])N(C(=O)N4C([H])([H])C([H])([H])C([H])([H])C([H])(n5nc(-c6c([H])c([H])c(Oc7c([H])c([H])c(F)c([H])c7F)c([H])c6[H])c(C(=O)N([H])[H])c5N([H])[H])C4([H])[H])C([H])(C([H])([H])C([H])([H])[H])C([H])(C([H])([H])C([H])([H])[H])C3([H])[H])c([H])c([H])c2C1([H])[H]

$$$$
67:0:0
     RDKit          3D

 93101  0  0  1  0  0  0  0  0999 V2000
  -30.8590  -21.6840   21.6340 N   0  0  0  0  0  4  0  0  0  0  0  0
  -31.1840  -21.5810   20.6870 H   0  0  0  0  0  0  0  0  0  0  0  0
  -31.6300  -22.0390   22.1750 H   0  0  0  0  0  0  0  0  0  0  0  0
  -32.1680  -18.4280   22.2950 C   0  0  0  0  0  3  0  0  0  0  0  0
  -31.8260  -19.6860   22.6170 C   0  0  0  0  0  3  0  0  0  0  0  0
  -29.8110  -17.9890   21.5030 C   0  0  0  0  0  2  0  0  0  0  0  0
  -29.7470  -19.4900   21.1680 C   0  0  0  0  0  2  0  0  0  0  0  0
  -31.2700  -17.4750   21.5250 C   0  0  0  0  0  3  0  0  0  0  0  0
  -30.5280  -20.3560   22.1900 C   0  0  0  0  0  3  0  0  0  0  0  0
  -31.4010  -16.0510   22.1040 C   0  0  0  0  0  2  0  0  0  0  0  0
  -30.8480  -14.4400   20.2850 C   0  0  0  0  0  0  0  0  0  0  0  0
  -30.3720  -12.4490   18.9060 C   0  0  0  0  0  2  0  0  0  0  0  0
  -29.3720  -12.7370   17.7730 C   0  0  0  0  0  2  0  0  0  0  0  0
  -27.9240  -12.5880   18.2740 C   0  0  0  0  0  2  0  0  0  0  0  0
  -27.6690  -13.3700   19.5870 C   0  0  0  0  0  3  0  0  0  0  0  0
  -28.7640  -13.0630   20.6300 C   0  0  0  0  0  2  0  0  0  0  0  0
  -30.0790  -13.3520   20.0270 N   0  0  0  0  0  0  0  0  0  0  0  0
  -31.8080  -14.7780   19.5850 O   0  0  0  0  0  0  0  0  0  0  0  0
  -30.5610  -15.0640   21.4330 N   0  0  0  0  0  0  0  0  0  0  0  0
  -29.7710  -14.7060   21.9490 H   0  0  0  0  0  0  0  0  0  0  0  0
  -25.3020  -13.9840   20.3980 C   0  0  0  0  0  0  0  0  0  0  0  0
  -24.2460  -13.2120   20.8040 C   0  0  0  0  0  0  0  0  0  0  0  0
  -24.6990  -11.8590   20.7390 C   0  0  0  0  0  0  0  0  0  0  0  0
  -26.3320  -13.1000   20.1160 N   0  0  0  0  0  0  0  0  0  0  0  0
  -25.9740  -11.8170   20.3750 N   0  0  0  0  0  0  0  0  0  0  0  0
  -23.9750  -10.5970   20.9470 C   0  0  0  0  0  0  0  0  0  0  0  0
  -24.4270   -9.6310   21.8730 C   0  0  0  0  0  3  0  0  0  0  0  0
  -23.7040   -8.4340   22.0680 C   0  0  0  0  0  3  0  0  0  0  0  0
  -22.5170   -8.1940   21.3340 C   0  0  0  0  0  0  0  0  0  0  0  0
  -22.0850   -9.1490   20.3980 C   0  0  0  0  0  3  0  0  0  0  0  0
  -22.8090  -10.3380   20.2010 C   0  0  0  0  0  3  0  0  0  0  0  0
  -21.7650   -7.0500   21.4380 O   0  0  0  0  0  0  0  0  0  0  0  0
  -21.7230   -6.3180   22.5980 C   0  0  0  0  0  0  0  0  0  0  0  0
  -21.3170   -6.8890   23.8240 C   0  0  0  0  0  3  0  0  0  0  0  0
  -21.2220   -6.0850   24.9770 C   0  0  0  0  0  3  0  0  0  0  0  0
  -21.5220   -4.7110   24.9070 C   0  0  0  0  0  0  0  0  0  0  0  0
  -21.9210   -4.1400   23.6850 C   0  0  0  0  0  3  0  0  0  0  0  0
  -22.0180   -4.9410   22.5330 C   0  0  0  0  0  0  0  0  0  0  0  0
  -22.3820   -4.3820   21.3550 F   0  0  0  0  0  0  0  0  0  0  0  0
  -21.4230   -3.9370   26.0120 F   0  0  0  0  0  0  0  0  0  0  0  0
  -22.8640  -13.6910   21.1410 C   0  0  0  0  0  0  0  0  0  0  0  0
  -22.1700  -12.9880   22.0290 N   0  0  0  0  0  0  0  0  0  0  0  0
  -22.4080  -14.7250   20.6540 O   0  0  0  0  0  0  0  0  0  0  0  0
  -22.5500  -12.1500   22.4440 H   0  0  0  0  0  0  0  0  0  0  0  0
  -21.2440  -13.2890   22.2970 H   0  0  0  0  0  0  0  0  0  0  0  0
  -25.4660  -15.3560   20.2300 N   0  0  0  0  0  0  0  0  0  0  0  0
  -24.7120  -16.0160   20.3820 H   0  0  0  0  0  0  0  0  0  0  0  0
  -26.3140  -15.7930   19.8910 H   0  0  0  0  0  0  0  0  0  0  0  0
  -29.7950  -22.7100   21.6940 C   0  0  0  0  0  2  0  0  0  0  0  0
  -30.3740  -24.0880   21.3210 C   0  0  0  0  0  2  0  0  0  0  0  0
  -29.4120  -25.2770   21.4750 C   0  0  0  0  0  2  0  0  0  0  0  0
  -28.3860  -25.4460   20.3390 C   0  0  0  0  0  2  0  0  0  0  0  0
  -28.3430  -26.8400   20.0580 O   0  0  0  0  0  0  0  0  0  0  0  0
  -24.5230  -31.9110   23.2100 C   0  0  0  0  0  0  0  0  0  0  0  0
  -27.1360  -27.4880   20.1120 C   0  0  0  0  0  0  0  0  0  0  0  0
  -23.2960  -30.5060   21.5820 C   0  0  0  0  0  3  0  0  0  0  0  0
  -24.7320  -28.9600   20.1510 C   0  0  0  0  0  0  0  0  0  0  0  0
  -25.8150  -30.8720   21.3520 C   0  0  0  0  0  2  0  0  0  0  0  0
  -25.8920  -29.5000   20.7200 C   0  0  0  0  0  0  0  0  0  0  0  0
  -27.0980  -28.7710   20.6920 C   0  0  0  0  0  3  0  0  0  0  0  0
  -25.9610  -26.9460   19.5480 C   0  0  0  0  0  3  0  0  0  0  0  0
  -24.7580  -27.6800   19.5660 C   0  0  0  0  0  3  0  0  0  0  0  0
  -23.4880  -29.8180   20.2040 C   0  0  0  0  0  2  0  0  0  0  0  0
  -24.5640  -31.1110   22.1060 N   0  0  0  0  0  0  0  0  0  0  0  0
  -23.4490  -32.1850   23.7630 O   0  0  0  0  0  0  0  0  0  0  0  0
  -22.6560  -29.4890   22.5520 C   0  0  0  0  0  0  0  0  0  0  0  0
  -21.3310  -29.3050   22.4340 N   0  0  0  0  0  0  0  0  0  0  0  0
  -23.3460  -28.8670   23.3630 O   0  0  0  0  0  0  0  0  0  0  0  0
  -20.8360  -29.8590   21.7490 H   0  0  0  0  0  0  0  0  0  0  0  0
  -17.9600  -28.1190   22.9570 C   0  0  0  0  0  0  0  0  0  0  0  0
  -20.5200  -28.3700   23.2120 C   0  0  0  0  0  3  0  0  0  0  0  0
  -20.6150  -26.9380   22.6360 C   0  0  0  0  0  2  0  0  0  0  0  0
  -19.5050  -26.6180   21.6310 C   0  0  0  0  0  2  0  0  0  0  0  0
  -18.1290  -26.7680   22.2830 C   0  0  0  0  0  2  0  0  0  0  0  0
  -19.0840  -28.8790   23.3780 C   0  0  0  0  0  0  0  0  0  0  0  0
  -18.8730  -30.1450   23.9660 C   0  0  0  0  0  3  0  0  0  0  0  0
  -17.5710  -30.6500   24.1390 C   0  0  0  0  0  3  0  0  0  0  0  0
  -16.4620  -29.8880   23.7360 C   0  0  0  0  0  3  0  0  0  0  0  0
  -16.6580  -28.6250   23.1500 C   0  0  0  0  0  3  0  0  0  0  0  0
  -25.8190  -32.5380   23.8150 C   0  0  0  0  0  3  0  0  0  0  0  0
  -25.5170  -33.9340   24.1570 N   0  0  0  0  0  0  0  0  0  0  0  0
  -25.8540  -34.9900   23.4060 C   0  0  0  0  0  0  0  0  0  0  0  0
  -26.5250  -34.8920   22.3740 O   0  0  0  0  0  0  0  0  0  0  0  0
  -24.9240  -34.0850   24.9600 H   0  0  0  0  0  0  0  0  0  0  0  0
  -24.1430  -36.7970   23.0460 C   0  0  0  0  0  1  0  0  0  0  0  0
  -25.3690  -36.3760   23.8710 C   0  0  0  0  0  3  0  0  0  0  0  0
  -27.4980  -37.2350   24.7430 C   0  0  0  0  0  1  0  0  0  0  0  0
  -26.4110  -37.4230   23.7860 N   0  0  0  0  0  0  0  0  0  0  0  0
  -26.0090  -38.3430   23.9410 H   0  0  0  0  0  0  0  0  0  0  0  0
  -26.3590  -31.7570   25.0760 C   0  0  1  0  0  0  0  0  0  0  0  0
  -25.2830  -31.5070   26.1590 C   0  0  0  0  0  1  0  0  0  0  0  0
  -26.9400  -30.3860   24.6600 C   0  0  0  0  0  1  0  0  0  0  0  0
  -27.5180  -32.5490   25.7270 C   0  0  0  0  0  1  0  0  0  0  0  0
  1 49  1  0
  1  3  1  0
  2  1  1  0
  4  5  2  0
  6  8  1  0
  7  6  1  0
  7  9  1  0
  8 10  1  0
  8  4  1  0
  9  1  1  0
  9  5  1  0
 11 19  1  0
 12 17  1  0
 13 14  1  0
 13 12  1  0
 15 14  1  0
 15 24  1  0
 15 16  1  0
 17 11  1  0
 17 16  1  0
 18 11  2  0
 19 20  1  0
 19 10  1  0
 21 22  2  0
 22 41  1  0
 23 22  1  0
 23 26  1  0
 24 25  1  0
 24 21  1  0
 25 23  2  0
 26 27  1  0
 27 28  2  0
 29 32  1  0
 29 28  1  0
 30 29  2  0
 31 30  1  0
 31 26  2  0
 32 33  1  0
 33 34  1  0
 34 35  2  0
 36 35  1  0
 36 40  1  0
 37 36  2  0
 38 33  2  0
 38 37  1  0
 39 38  1  0
 41 42  1  0
 42 45  1  0
 42 44  1  0
 43 41  2  0
 46 47  1  0
 46 21  1  0
 48 46  1  0
 50 51  1  0
 50 49  1  0
 52 51  1  0
 53 55  1  0
 53 52  1  0
 54 65  2  0
 55 60  1  0
 56 64  1  0
 56 66  1  0
 57 63  1  0
 57 59  1  0
 58 64  1  0
 59 58  1  0
 60 59  2  0
 61 62  1  0
 61 55  2  0
 62 57  2  0
 63 56  1  0
 64 54  1  0
 66 68  2  0
 67 66  1  0
 69 67  1  0
 70 79  2  0
 70 75  1  0
 71 67  1  0
 71 75  1  0
 72 71  1  0
 73 74  1  0
 73 72  1  0
 74 70  1  0
 75 76  2  0
 76 77  1  0
 78 77  2  0
 79 78  1  0
 80 54  1  0
 80 81  1  0
 80 90  1  0
 81 84  1  0
 82 86  1  0
 82 81  1  0
 83 82  2  0
 86 85  1  0
 88 86  1  0
 88 89  1  0
 88 87  1  0
 90 93  1  1
 90 91  1  0
 92 90  1  0
M  ISO  4  11 100  19 100  52 101  53 101
M  END
>  <TORSDO>  (68) 
F 22

>  <SCORE>  (68) 
-12.064

>  <name>  (68) 
67

>  <ligand_id>  (68) 
67

>  <original_smiles>  (68) 
[H]C1=C([H])C([H])([N+]([H])([H])C([H])([H])C([H])([H])C([H])([H])C([H])([H])Oc2c([H])c([H])c3c(c2[H])C([H])([H])N(C(=O)C([H])(N([H])C(=O)C([H])(N([H])C([H])([H])[H])C([H])([H])[H])C(C([H])([H])[H])(C([H])([H])[H])C([H])([H])[H])C([H])(C(=O)N([H])C2([H])c4c([H])c([H])c([H])c([H])c4C([H])([H])C([H])([H])C2([H])[H])C3([H])[H])C([H])([H])C([H])([H])C1([H])C([H])([H])N([H])C(=O)N1C([H])([H])C([H])([H])C([H])([H])C([H])(n2nc(-c3c([H])c([H])c(Oc4c([H])c([H])c(F)c([H])c4F)c([H])c3[H])c(C(=O)N([H])[H])c2N([H])[H])C1([H])[H]

>  <smiles>  (68) 
[H]C1=C([H])C([H])([N+]([H])([H])C([H])([H])C([H])([H])C([H])([H])C([H])([H])Oc2c([H])c([H])c3c(c2[H])C([H])([H])N(C(=O)C([H])(N([H])C(=O)C([H])(N([H])C([H])([H])[H])C([H])([H])[H])C(C([H])([H])[H])(C([H])([H])[H])C([H])([H])[H])C([H])(C(=O)N([H])C2([H])c4c([H])c([H])c([H])c([H])c4C([H])([H])C([H])([H])C2([H])[H])C3([H])[H])C([H])([H])C([H])([H])C1([H])C([H])([H])N([H])C(=O)N1C([H])([H])C([H])([H])C([H])([H])C([H])(n2nc(-c3c([H])c([H])c(Oc4c([H])c([H])c(F)c([H])c4F)c([H])c3[H])c(C(=O)N([H])[H])c2N([H])[H])C1([H])[H]

$$$$
68:0:0
     RDKit          3D

 91 99  0  0  1  0  0  0  0  0999 V2000
  -28.6210  -20.6280   20.0980 C   0  0  0  0  0  0  0  0  0  0  0  0
  -29.0210  -21.9990   19.9870 N   0  0  0  0  0  0  0  0  0  0  0  0
  -27.4530  -20.4290   20.4320 O   0  0  0  0  0  0  0  0  0  0  0  0
  -30.0170  -22.0850   19.8190 H   0  0  0  0  0  0  0  0  0  0  0  0
  -30.5370  -15.2610   19.9190 C   0  0  0  0  0  0  0  0  0  0  0  0
  -30.4160  -12.8900   19.0080 C   0  0  0  0  0  2  0  0  0  0  0  0
  -29.4200  -12.7900   17.8310 C   0  0  0  0  0  2  0  0  0  0  0  0
  -27.9900  -12.5480   18.3500 C   0  0  0  0  0  2  0  0  0  0  0  0
  -27.6220  -13.4750   19.5380 C   0  0  0  0  0  3  0  0  0  0  0  0
  -28.7400  -13.5500   20.5970 C   0  0  0  0  0  2  0  0  0  0  0  0
  -29.9480  -13.9940   19.8960 N   0  0  0  0  0  0  0  0  0  0  0  0
  -31.7530  -15.2950   19.6860 O   0  0  0  0  0  0  0  0  0  0  0  0
  -28.8280  -18.4390   18.5750 C   0  0  0  0  0  2  0  0  0  0  0  0
  -29.3750  -16.9690   18.5280 C   0  0  0  0  0  2  0  0  0  0  0  0
  -29.5020  -19.2370   19.7120 C   0  0  0  0  0  3  0  0  0  0  0  0
  -29.7770  -17.8610   20.6270 C   0  0  0  0  0  3  0  0  0  0  0  0
  -29.7520  -16.4770   19.8680 N   0  0  0  0  0  0  0  0  0  0  0  0
  -25.2980  -14.0060   20.4530 C   0  0  0  0  0  0  0  0  0  0  0  0
  -24.2650  -13.2100   20.8640 C   0  0  0  0  0  0  0  0  0  0  0  0
  -24.7370  -11.8660   20.7640 C   0  0  0  0  0  0  0  0  0  0  0  0
  -26.3270  -13.1450   20.1190 N   0  0  0  0  0  0  0  0  0  0  0  0
  -26.0060  -11.8500   20.3740 N   0  0  0  0  0  0  0  0  0  0  0  0
  -24.0320  -10.5920   20.9590 C   0  0  0  0  0  0  0  0  0  0  0  0
  -24.4890   -9.6280   21.8850 C   0  0  0  0  0  3  0  0  0  0  0  0
  -23.7810   -8.4200   22.0690 C   0  0  0  0  0  3  0  0  0  0  0  0
  -22.6030   -8.1680   21.3270 C   0  0  0  0  0  0  0  0  0  0  0  0
  -22.1650   -9.1210   20.3900 C   0  0  0  0  0  3  0  0  0  0  0  0
  -22.8750  -10.3190   20.2040 C   0  0  0  0  0  3  0  0  0  0  0  0
  -21.8650   -7.0130   21.4220 O   0  0  0  0  0  0  0  0  0  0  0  0
  -21.7950   -6.2980   22.5910 C   0  0  0  0  0  0  0  0  0  0  0  0
  -21.2790   -6.8580   23.7780 C   0  0  0  0  0  3  0  0  0  0  0  0
  -21.1590   -6.0650   24.9370 C   0  0  0  0  0  3  0  0  0  0  0  0
  -21.5480   -4.7130   24.9090 C   0  0  0  0  0  0  0  0  0  0  0  0
  -22.0590   -4.1510   23.7260 C   0  0  0  0  0  3  0  0  0  0  0  0
  -22.1790   -4.9410   22.5690 C   0  0  0  0  0  0  0  0  0  0  0  0
  -22.6520   -4.3890   21.4260 F   0  0  0  0  0  0  0  0  0  0  0  0
  -21.4270   -3.9490   26.0200 F   0  0  0  0  0  0  0  0  0  0  0  0
  -22.8840  -13.6680   21.2320 C   0  0  0  0  0  0  0  0  0  0  0  0
  -22.2120  -12.9390   22.1170 N   0  0  0  0  0  0  0  0  0  0  0  0
  -22.4110  -14.7060   20.7700 O   0  0  0  0  0  0  0  0  0  0  0  0
  -22.6090  -12.0990   22.5110 H   0  0  0  0  0  0  0  0  0  0  0  0
  -21.2880  -13.2270   22.4040 H   0  0  0  0  0  0  0  0  0  0  0  0
  -25.4420  -15.3830   20.3110 N   0  0  0  0  0  0  0  0  0  0  0  0
  -24.6850  -16.0290   20.5050 H   0  0  0  0  0  0  0  0  0  0  0  0
  -26.2790  -15.8420   19.9730 H   0  0  0  0  0  0  0  0  0  0  0  0
  -31.0420  -17.9770   21.5020 C   0  0  0  0  0  2  0  0  0  0  0  0
  -32.5040  -19.4150   23.0090 C   0  0  0  0  0  1  0  0  0  0  0  0
  -31.1920  -19.3270   22.2200 C   0  0  0  0  0  2  0  0  0  0  0  0
  -28.2530  -23.3790   19.6800 C   0  0  0  0  0  2  0  0  0  0  0  0
  -28.2200  -24.8470   20.5560 C   0  0  0  0  0  2  0  0  0  0  0  0
  -28.2300  -26.3580   20.0980 O   0  0  0  0  0  0  0  0  0  0  0  0
  -24.5750  -31.9860   23.2850 C   0  0  0  0  0  0  0  0  0  0  0  0
  -27.1390  -27.3060   20.1670 C   0  0  0  0  0  0  0  0  0  0  0  0
  -23.3600  -30.6020   21.6470 C   0  0  0  0  0  3  0  0  0  0  0  0
  -24.7970  -29.0450   20.1870 C   0  0  0  0  0  0  0  0  0  0  0  0
  -25.9090  -30.8860   21.4420 C   0  0  0  0  0  2  0  0  0  0  0  0
  -25.9850  -29.4960   20.7760 C   0  0  0  0  0  0  0  0  0  0  0  0
  -27.1570  -28.6470   20.7380 C   0  0  0  0  0  3  0  0  0  0  0  0
  -25.9190  -26.9520   19.5550 C   0  0  0  0  0  3  0  0  0  0  0  0
  -24.7780  -27.7870   19.5600 C   0  0  0  0  0  3  0  0  0  0  0  0
  -23.5670  -29.9380   20.2580 C   0  0  0  0  0  2  0  0  0  0  0  0
  -24.6360  -31.1800   22.1790 N   0  0  0  0  0  0  0  0  0  0  0  0
  -23.4950  -32.2540   23.8340 O   0  0  0  0  0  0  0  0  0  0  0  0
  -22.7030  -29.5790   22.6090 C   0  0  0  0  0  0  0  0  0  0  0  0
  -21.3820  -29.3660   22.4690 N   0  0  0  0  0  0  0  0  0  0  0  0
  -23.3870  -28.9790   23.4420 O   0  0  0  0  0  0  0  0  0  0  0  0
  -20.8860  -29.9030   21.7740 H   0  0  0  0  0  0  0  0  0  0  0  0
  -18.0460  -28.0250   22.9170 C   0  0  0  0  0  0  0  0  0  0  0  0
  -20.5850  -28.4040   23.2370 C   0  0  0  0  0  3  0  0  0  0  0  0
  -20.7620  -26.9690   22.6870 C   0  0  0  0  0  2  0  0  0  0  0  0
  -19.6990  -26.5840   21.6530 C   0  0  0  0  0  2  0  0  0  0  0  0
  -18.2980  -26.6760   22.2630 C   0  0  0  0  0  2  0  0  0  0  0  0
  -19.1200  -28.8420   23.3590 C   0  0  0  0  0  0  0  0  0  0  0  0
  -18.8310  -30.1000   23.9310 C   0  0  0  0  0  3  0  0  0  0  0  0
  -17.5020  -30.5430   24.0630 C   0  0  0  0  0  3  0  0  0  0  0  0
  -16.4430  -29.7240   23.6370 C   0  0  0  0  0  3  0  0  0  0  0  0
  -16.7160  -28.4670   23.0700 C   0  0  0  0  0  3  0  0  0  0  0  0
  -25.8570  -32.6260   23.9010 C   0  0  0  0  0  3  0  0  0  0  0  0
  -26.3640  -31.8760   25.1950 C   0  0  1  0  0  0  0  0  0  0  0  0
  -25.2630  -31.6600   26.2620 C   0  0  0  0  0  1  0  0  0  0  0  0
  -26.9450  -30.4890   24.8340 C   0  0  0  0  0  1  0  0  0  0  0  0
  -27.5130  -32.6780   25.8500 C   0  0  0  0  0  1  0  0  0  0  0  0
  -25.5520  -34.0320   24.2130 N   0  0  0  0  0  0  0  0  0  0  0  0
  -25.8920  -35.0760   23.4480 C   0  0  0  0  0  0  0  0  0  0  0  0
  -26.5610  -34.9580   22.4170 O   0  0  0  0  0  0  0  0  0  0  0  0
  -24.9580  -34.1960   25.0130 H   0  0  0  0  0  0  0  0  0  0  0  0
  -24.1850  -36.8870   23.0750 C   0  0  0  0  0  1  0  0  0  0  0  0
  -25.4170  -36.4740   23.8930 C   0  0  0  0  0  3  0  0  0  0  0  0
  -27.5520  -37.3520   24.7340 C   0  0  0  0  0  1  0  0  0  0  0  0
  -26.4610  -37.5170   23.7770 N   0  0  0  0  0  0  0  0  0  0  0  0
  -26.0630  -38.4420   23.9070 H   0  0  0  0  0  0  0  0  0  0  0  0
  1  3  2  0
  2  1  1  0
  4  2  1  0
  6 11  1  0
  7  8  1  0
  7  6  1  0
  9  8  1  0
  9 21  1  0
  9 10  1  0
 11  5  1  0
 11 10  1  0
 12  5  2  0
 13 15  1  0
 14 13  1  0
 14 17  1  0
 15  1  1  0
 15 16  1  0
 16 46  1  0
 17  5  1  0
 17 16  1  0
 18 19  2  0
 19 38  1  0
 20 19  1  0
 20 23  1  0
 21 22  1  0
 21 18  1  0
 22 20  2  0
 23 24  1  0
 24 25  2  0
 26 29  1  0
 26 25  1  0
 27 26  2  0
 28 27  1  0
 28 23  2  0
 29 30  1  0
 30 31  1  0
 31 32  2  0
 33 32  1  0
 33 37  1  0
 34 33  2  0
 35 30  2  0
 35 34  1  0
 36 35  1  0
 38 39  1  0
 39 42  1  0
 39 41  1  0
 40 38  2  0
 43 18  1  0
 43 44  1  0
 45 43  1  0
 46 48  1  0
 48 47  1  0
 49  2  1  0
 49 50  1  0
 51 53  1  0
 51 50  1  0
 52 63  2  0
 53 58  1  0
 54 62  1  0
 54 64  1  0
 55 61  1  0
 55 57  1  0
 56 62  1  0
 57 56  1  0
 58 57  2  0
 59 60  1  0
 59 53  2  0
 60 55  2  0
 61 54  1  0
 62 52  1  0
 64 66  2  0
 65 64  1  0
 67 65  1  0
 68 77  2  0
 68 73  1  0
 69 65  1  0
 69 73  1  0
 70 69  1  0
 71 72  1  0
 71 70  1  0
 72 68  1  0
 73 74  2  0
 74 75  1  0
 76 75  2  0
 77 76  1  0
 78 52  1  0
 78 83  1  0
 78 79  1  0
 79 82  1  1
 79 80  1  0
 81 79  1  0
 83 86  1  0
 84 88  1  0
 84 83  1  0
 85 84  2  0
 88 87  1  0
 90 88  1  0
 90 91  1  0
 90 89  1  0
M  ISO  4   5 100  17 100  50 101  51 101
M  END
>  <TORSDO>  (69) 
F 20

>  <SCORE>  (69) 
-13.974

>  <name>  (69) 
68

>  <ligand_id>  (69) 
68

>  <original_smiles>  (69) 
[H]c1c([H])c([H])c2c(c1[H])C([H])([H])C([H])([H])C([H])([H])C2([H])N([H])C(=O)C1([H])N(C(=O)C([H])(N([H])C(=O)C([H])(N([H])C([H])([H])[H])C([H])([H])[H])C(C([H])([H])[H])(C([H])([H])[H])C([H])([H])[H])C([H])([H])c2c([H])c(OC([H])([H])C([H])([H])N([H])C(=O)C3([H])C([H])([H])C([H])([H])N(C(=O)N4C([H])([H])C([H])([H])C([H])([H])C([H])(n5nc(-c6c([H])c([H])c(Oc7c([H])c([H])c(F)c([H])c7F)c([H])c6[H])c(C(=O)N([H])[H])c5N([H])[H])C4([H])[H])C3([H])C([H])([H])C([H])([H])C([H])([H])[H])c([H])c([H])c2C1([H])[H]

>  <smiles>  (69) 
[H]c1c([H])c([H])c2c(c1[H])C([H])([H])C([H])([H])C([H])([H])C2([H])N([H])C(=O)C1([H])N(C(=O)C([H])(N([H])C(=O)C([H])(N([H])C([H])([H])[H])C([H])([H])[H])C(C([H])([H])[H])(C([H])([H])[H])C([H])([H])[H])C([H])([H])c2c([H])c(OC([H])([H])C([H])([H])N([H])C(=O)C3([H])C([H])([H])C([H])([H])N(C(=O)N4C([H])([H])C([H])([H])C([H])([H])C([H])(n5nc(-c6c([H])c([H])c(Oc7c([H])c([H])c(F)c([H])c7F)c([H])c6[H])c(C(=O)N([H])[H])c5N([H])[H])C4([H])[H])C3([H])C([H])([H])C([H])([H])C([H])([H])[H])c([H])c([H])c2C1([H])[H]

$$$$
69:0:0
     RDKit          3D

 90 97  0  0  1  0  0  0  0  0999 V2000
  -28.3030  -21.5050   20.8260 C   0  0  0  0  0  3  0  0  0  0  0  0
  -28.7380  -19.0090   20.5880 C   0  0  0  0  0  0  0  0  0  0  0  0
  -29.1550  -20.2970   20.6790 N   0  0  0  0  0  0  0  0  0  0  0  0
  -27.5650  -18.7290   20.3380 O   0  0  0  0  0  0  0  0  0  0  0  0
  -30.1470  -20.4340   20.8230 H   0  0  0  0  0  0  0  0  0  0  0  0
  -29.7780  -17.8680   20.8360 C   0  0  0  0  0  2  0  0  0  0  0  0
  -28.3790  -16.5120   22.5330 C   0  0  0  0  0  1  0  0  0  0  0  0
  -29.2210  -16.4450   21.2410 C   0  0  0  0  0  3  0  0  0  0  0  0
  -30.7360  -14.4970   20.5960 C   0  0  0  0  0  0  0  0  0  0  0  0
  -30.4160  -12.3360   19.4290 C   0  0  0  0  0  2  0  0  0  0  0  0
  -29.4880  -12.5060   18.2100 C   0  0  0  0  0  2  0  0  0  0  0  0
  -28.0110  -12.3640   18.6230 C   0  0  0  0  0  2  0  0  0  0  0  0
  -27.6550  -13.2160   19.8700 C   0  0  0  0  0  3  0  0  0  0  0  0
  -28.7020  -13.0260   20.9920 C   0  0  0  0  0  2  0  0  0  0  0  0
  -30.0290  -13.3380   20.4410 N   0  0  0  0  0  0  0  0  0  0  0  0
  -31.8270  -14.6740   20.0530 O   0  0  0  0  0  0  0  0  0  0  0  0
  -30.2940  -15.4380   21.4590 N   0  0  0  0  0  0  0  0  0  0  0  0
  -31.0960  -15.8880   21.8760 H   0  0  0  0  0  0  0  0  0  0  0  0
  -25.2530  -13.8200   20.5690 C   0  0  0  0  0  0  0  0  0  0  0  0
  -24.1800  -13.0450   20.9200 C   0  0  0  0  0  0  0  0  0  0  0  0
  -24.6370  -11.6930   20.8730 C   0  0  0  0  0  0  0  0  0  0  0  0
  -26.2980  -12.9390   20.3380 N   0  0  0  0  0  0  0  0  0  0  0  0
  -25.9300  -11.6530   20.5760 N   0  0  0  0  0  0  0  0  0  0  0  0
  -23.9050  -10.4300   21.0400 C   0  0  0  0  0  0  0  0  0  0  0  0
  -24.3610   -9.4220   21.9160 C   0  0  0  0  0  3  0  0  0  0  0  0
  -23.6280   -8.2260   22.0750 C   0  0  0  0  0  3  0  0  0  0  0  0
  -22.4260   -8.0290   21.3550 C   0  0  0  0  0  0  0  0  0  0  0  0
  -21.9890   -9.0250   20.4650 C   0  0  0  0  0  3  0  0  0  0  0  0
  -22.7210  -10.2140   20.3050 C   0  0  0  0  0  3  0  0  0  0  0  0
  -21.6640   -6.8880   21.4240 O   0  0  0  0  0  0  0  0  0  0  0  0
  -21.6850   -6.0750   22.5280 C   0  0  0  0  0  0  0  0  0  0  0  0
  -21.4020   -6.5650   23.8220 C   0  0  0  0  0  3  0  0  0  0  0  0
  -21.3660   -5.6800   24.9180 C   0  0  0  0  0  3  0  0  0  0  0  0
  -21.6040   -4.3060   24.7230 C   0  0  0  0  0  0  0  0  0  0  0  0
  -21.8820   -3.8160   23.4350 C   0  0  0  0  0  3  0  0  0  0  0  0
  -21.9190   -4.6980   22.3410 C   0  0  0  0  0  0  0  0  0  0  0  0
  -22.1650   -4.2160   21.0990 F   0  0  0  0  0  0  0  0  0  0  0  0
  -21.5630   -3.4530   25.7740 F   0  0  0  0  0  0  0  0  0  0  0  0
  -22.7820  -13.5230   21.1850 C   0  0  0  0  0  0  0  0  0  0  0  0
  -22.0470  -12.8220   22.0430 N   0  0  0  0  0  0  0  0  0  0  0  0
  -22.3490  -14.5510   20.6670 O   0  0  0  0  0  0  0  0  0  0  0  0
  -22.4100  -11.9880   22.4800 H   0  0  0  0  0  0  0  0  0  0  0  0
  -21.1080  -13.1240   22.2650 H   0  0  0  0  0  0  0  0  0  0  0  0
  -25.4220  -15.1910   20.4050 N   0  0  0  0  0  0  0  0  0  0  0  0
  -24.6620  -15.8520   20.5210 H   0  0  0  0  0  0  0  0  0  0  0  0
  -26.2790  -15.6340   20.0990 H   0  0  0  0  0  0  0  0  0  0  0  0
  -28.7610  -22.7510   20.0000 C   0  0  0  0  0  3  0  0  0  0  0  0
  -28.1310  -24.1250   20.4230 C   0  0  0  0  0  2  0  0  0  0  0  0
  -28.5170  -25.3400   19.5150 C   0  0  0  0  0  2  0  0  0  0  0  0
  -28.4070  -26.6570   20.1150 O   0  0  0  0  0  0  0  0  0  0  0  0
  -24.6190  -31.8670   23.2070 C   0  0  0  0  0  0  0  0  0  0  0  0
  -27.2270  -27.3870   20.0930 C   0  0  0  0  0  0  0  0  0  0  0  0
  -23.4080  -30.4890   21.5480 C   0  0  0  0  0  3  0  0  0  0  0  0
  -24.8500  -28.9460   20.1150 C   0  0  0  0  0  0  0  0  0  0  0  0
  -25.9410  -30.8140   21.3670 C   0  0  0  0  0  2  0  0  0  0  0  0
  -26.0130  -29.4450   20.7130 C   0  0  0  0  0  0  0  0  0  0  0  0
  -27.2000  -28.6720   20.6980 C   0  0  0  0  0  3  0  0  0  0  0  0
  -26.0390  -26.9080   19.4960 C   0  0  0  0  0  3  0  0  0  0  0  0
  -24.8600  -27.6790   19.5050 C   0  0  0  0  0  3  0  0  0  0  0  0
  -23.6190  -29.8240   20.1630 C   0  0  0  0  0  2  0  0  0  0  0  0
  -24.6750  -31.0720   22.0990 N   0  0  0  0  0  0  0  0  0  0  0  0
  -23.5370  -32.1460   23.7420 O   0  0  0  0  0  0  0  0  0  0  0  0
  -22.7440  -29.4660   22.4970 C   0  0  0  0  0  0  0  0  0  0  0  0
  -21.4160  -29.3050   22.3710 N   0  0  0  0  0  0  0  0  0  0  0  0
  -23.4200  -28.8200   23.3030 O   0  0  0  0  0  0  0  0  0  0  0  0
  -20.9320  -29.8750   21.6920 H   0  0  0  0  0  0  0  0  0  0  0  0
  -18.0290  -28.1390   22.8520 C   0  0  0  0  0  0  0  0  0  0  0  0
  -20.5880  -28.3690   23.1310 C   0  0  0  0  0  3  0  0  0  0  0  0
  -20.6770  -26.9420   22.5420 C   0  0  0  0  0  2  0  0  0  0  0  0
  -19.5730  -26.6400   21.5230 C   0  0  0  0  0  2  0  0  0  0  0  0
  -18.1920  -26.7940   22.1660 C   0  0  0  0  0  2  0  0  0  0  0  0
  -19.1540  -28.8860   23.2910 C   0  0  0  0  0  0  0  0  0  0  0  0
  -18.9460  -30.1460   23.8930 C   0  0  0  0  0  3  0  0  0  0  0  0
  -17.6450  -30.6590   24.0580 C   0  0  0  0  0  3  0  0  0  0  0  0
  -16.5350  -29.9100   23.6320 C   0  0  0  0  0  3  0  0  0  0  0  0
  -16.7280  -28.6510   23.0360 C   0  0  0  0  0  3  0  0  0  0  0  0
  -25.9070  -32.4810   23.8370 C   0  0  0  0  0  3  0  0  0  0  0  0
  -25.5910  -33.8610   24.2320 N   0  0  0  0  0  0  0  0  0  0  0  0
  -25.9040  -34.9470   23.5130 C   0  0  0  0  0  0  0  0  0  0  0  0
  -26.5590  -34.8920   22.4690 O   0  0  0  0  0  0  0  0  0  0  0  0
  -25.0080  -33.9770   25.0470 H   0  0  0  0  0  0  0  0  0  0  0  0
  -24.1480  -36.7300   23.2640 C   0  0  0  0  0  1  0  0  0  0  0  0
  -25.4110  -36.3100   24.0340 C   0  0  0  0  0  3  0  0  0  0  0  0
  -27.5580  -37.1800   24.8470 C   0  0  0  0  0  1  0  0  0  0  0  0
  -26.4290  -37.3780   23.9410 N   0  0  0  0  0  0  0  0  0  0  0  0
  -26.0180  -38.2860   24.1410 H   0  0  0  0  0  0  0  0  0  0  0  0
  -26.4470  -31.6600   25.0720 C   0  0  1  0  0  0  0  0  0  0  0  0
  -25.3720  -31.3730   26.1460 C   0  0  0  0  0  1  0  0  0  0  0  0
  -27.0290  -30.3030   24.6100 C   0  0  0  0  0  1  0  0  0  0  0  0
  -27.6050  -32.4310   25.7470 C   0  0  0  0  0  1  0  0  0  0  0  0
  2  3  1  0
  2  6  1  0
  3  5  1  0
  3  1  1  0
  4  2  2  0
  6  8  1  0
  8 17  1  0
  8  7  1  0
  9 17  1  0
 10 15  1  0
 11 12  1  0
 11 10  1  0
 13 12  1  0
 13 22  1  0
 13 14  1  0
 15  9  1  0
 15 14  1  0
 16  9  2  0
 17 18  1  0
 19 20  2  0
 20 39  1  0
 21 20  1  0
 21 24  1  0
 22 19  1  0
 22 23  1  0
 23 21  2  0
 24 25  1  0
 25 26  2  0
 27 30  1  0
 27 26  1  0
 28 27  2  0
 29 28  1  0
 29 24  2  0
 30 31  1  0
 31 32  1  0
 32 33  2  0
 34 33  1  0
 34 38  1  0
 35 34  2  0
 36 31  2  0
 36 35  1  0
 37 36  1  0
 39 40  1  0
 40 43  1  0
 40 42  1  0
 41 39  2  0
 44 45  1  0
 44 19  1  0
 46 44  1  0
 47 48  1  0
 47  1  2  0
 49 50  1  0
 49 48  1  0
 51 62  2  0
 52 50  1  0
 52 57  1  0
 53 61  1  0
 53 63  1  0
 54 60  1  0
 54 56  1  0
 55 61  1  0
 56 55  1  0
 57 56  2  0
 58 59  1  0
 58 52  2  0
 59 54  2  0
 60 53  1  0
 61 51  1  0
 63 65  2  0
 64 63  1  0
 66 64  1  0
 67 76  2  0
 67 72  1  0
 68 64  1  0
 68 72  1  0
 69 68  1  0
 70 71  1  0
 70 69  1  0
 71 67  1  0
 72 73  2  0
 73 74  1  0
 75 74  2  0
 76 75  1  0
 77 51  1  0
 77 78  1  0
 77 87  1  0
 78 81  1  0
 79 83  1  0
 79 78  1  0
 80 79  2  0
 83 82  1  0
 85 83  1  0
 85 86  1  0
 85 84  1  0
 87 90  1  1
 87 88  1  0
 89 87  1  0
M  ISO  4   9 100  17 100  49 101  50 101
M  END
>  <TORSDO>  (70) 
F 22

>  <SCORE>  (70) 
-9.093

>  <name>  (70) 
69

>  <ligand_id>  (70) 
69

>  <original_smiles>  (70) 
[H]c1c([H])c([H])c2c(c1[H])C([H])([H])C([H])([H])C([H])([H])C2([H])N([H])C(=O)C1([H])N(C(=O)C([H])(N([H])C(=O)C([H])(N([H])C([H])([H])[H])C([H])([H])[H])C(C([H])([H])[H])(C([H])([H])[H])C([H])([H])[H])C([H])([H])c2c([H])c(OC([H])([H])C([H])([H])C([H])([H])C([H])([H])N([H])C(=O)C([H])([H])C([H])(N([H])C(=O)N3C([H])([H])C([H])([H])C([H])([H])C([H])(n4nc(-c5c([H])c([H])c(Oc6c([H])c([H])c(F)c([H])c6F)c([H])c5[H])c(C(=O)N([H])[H])c4N([H])[H])C3([H])[H])C([H])([H])[H])c([H])c([H])c2C1([H])[H]

>  <smiles>  (70) 
[H]c1c([H])c([H])c2c(c1[H])C([H])([H])C([H])([H])C([H])([H])C2([H])N([H])C(=O)C1([H])N(C(=O)C([H])(N([H])C(=O)C([H])(N([H])C([H])([H])[H])C([H])([H])[H])C(C([H])([H])[H])(C([H])([H])[H])C([H])([H])[H])C([H])([H])c2c([H])c(OC([H])([H])C([H])([H])C([H])([H])C([H])([H])N([H])C(=O)C([H])([H])C([H])(N([H])C(=O)N3C([H])([H])C([H])([H])C([H])([H])C([H])(n4nc(-c5c([H])c([H])c(Oc6c([H])c([H])c(F)c([H])c6F)c([H])c5[H])c(C(=O)N([H])[H])c4N([H])[H])C3([H])[H])C([H])([H])[H])c([H])c([H])c2C1([H])[H]

$$$$
70:0:0
     RDKit          3D

102110  0  0  1  0  0  0  0  0999 V2000
  -29.4430  -19.8190   20.5640 C   0  0  0  0  0  3  0  0  0  0  0  0
  -30.6970  -20.0270   21.4230 C   0  0  0  0  0  0  0  0  0  0  0  0
  -31.7930  -20.2600   20.9060 O   0  0  0  0  0  0  0  0  0  0  0  0
  -30.6710  -18.3550   23.2940 C   0  0  0  0  0  2  0  0  0  0  0  0
  -30.4830  -18.1170   24.7950 C   0  0  0  0  0  2  0  0  0  0  0  0
  -31.5180  -20.7110   23.8020 C   0  0  0  0  0  3  0  0  0  0  0  0
  -30.5370  -19.8530   22.9430 C   0  0  0  0  0  3  0  0  0  0  0  0
  -31.3730  -20.3690   25.3210 C   0  0  0  0  0  3  0  0  0  0  0  0
  -32.4010  -21.1010   26.2100 C   0  0  0  0  0  1  0  0  0  0  0  0
  -31.4630  -18.9070   25.5650 N   0  0  0  0  0  4  0  0  0  0  0  0
  -32.3910  -18.5750   25.3530 H   0  0  0  0  0  0  0  0  0  0  0  0
  -31.3060  -18.7240   26.5440 H   0  0  0  0  0  0  0  0  0  0  0  0
  -31.3250  -22.2140   23.5600 C   0  0  0  0  0  3  0  0  0  0  0  0
  -31.9000  -22.8730   22.6440 N   0  0  0  0  0  0  0  0  0  0  0  0
  -32.4900  -22.2840   22.0610 H   0  0  0  0  0  0  0  0  0  0  0  0
  -29.4920  -18.4630   19.6870 C   0  0  0  0  0  3  0  0  0  0  0  0
  -27.9650  -17.2200   18.0060 C   0  0  0  0  0  1  0  0  0  0  0  0
  -28.0550  -18.0320   19.3080 C   0  0  0  0  0  2  0  0  0  0  0  0
  -30.4250  -17.2070   20.0960 C   0  0  0  0  0  2  0  0  0  0  0  0
  -30.6240  -14.6450   19.9090 C   0  0  0  0  0  0  0  0  0  0  0  0
  -30.3170  -12.3600   18.9990 C   0  0  0  0  0  2  0  0  0  0  0  0
  -29.3550  -12.4350   17.7940 C   0  0  0  0  0  2  0  0  0  0  0  0
  -27.8930  -12.3140   18.2670 C   0  0  0  0  0  2  0  0  0  0  0  0
  -27.5660  -13.2530   19.4590 C   0  0  0  0  0  3  0  0  0  0  0  0
  -28.6520  -13.1930   20.5550 C   0  0  0  0  0  2  0  0  0  0  0  0
  -29.9470  -13.4580   19.9120 N   0  0  0  0  0  0  0  0  0  0  0  0
  -31.8030  -14.7050   19.5580 O   0  0  0  0  0  0  0  0  0  0  0  0
  -29.8990  -15.7930   20.0960 N   0  0  0  0  0  0  0  0  0  0  0  0
  -28.9200  -15.6690   20.3000 H   0  0  0  0  0  0  0  0  0  0  0  0
  -25.2150  -13.8970   20.2600 C   0  0  0  0  0  0  0  0  0  0  0  0
  -24.1450  -13.1440   20.6670 C   0  0  0  0  0  0  0  0  0  0  0  0
  -24.5810  -11.7840   20.6300 C   0  0  0  0  0  0  0  0  0  0  0  0
  -26.2340  -12.9970   19.9970 N   0  0  0  0  0  0  0  0  0  0  0  0
  -25.8610  -11.7220   20.2820 N   0  0  0  0  0  0  0  0  0  0  0  0
  -23.8370  -10.5370   20.8510 C   0  0  0  0  0  0  0  0  0  0  0  0
  -24.2560   -9.5850   21.8080 C   0  0  0  0  0  3  0  0  0  0  0  0
  -23.5110   -8.4040   22.0150 C   0  0  0  0  0  3  0  0  0  0  0  0
  -22.3340   -8.1650   21.2670 C   0  0  0  0  0  0  0  0  0  0  0  0
  -21.9340   -9.1050   20.3000 C   0  0  0  0  0  3  0  0  0  0  0  0
  -22.6790  -10.2790   20.0910 C   0  0  0  0  0  3  0  0  0  0  0  0
  -21.5600   -7.0370   21.3830 O   0  0  0  0  0  0  0  0  0  0  0  0
  -21.4710   -6.3430   22.5620 C   0  0  0  0  0  0  0  0  0  0  0  0
  -21.0430   -6.9580   23.7590 C   0  0  0  0  0  3  0  0  0  0  0  0
  -20.9020   -6.1920   24.9330 C   0  0  0  0  0  3  0  0  0  0  0  0
  -21.1760   -4.8120   24.9110 C   0  0  0  0  0  0  0  0  0  0  0  0
  -21.5990   -4.1960   23.7190 C   0  0  0  0  0  3  0  0  0  0  0  0
  -21.7420   -4.9590   22.5480 C   0  0  0  0  0  0  0  0  0  0  0  0
  -22.1280   -4.3570   21.3980 F   0  0  0  0  0  0  0  0  0  0  0  0
  -21.0340   -4.0740   26.0370 F   0  0  0  0  0  0  0  0  0  0  0  0
  -22.7660  -13.6510   20.9770 C   0  0  0  0  0  0  0  0  0  0  0  0
  -22.0590  -12.9830   21.8800 N   0  0  0  0  0  0  0  0  0  0  0  0
  -22.3290  -14.6740   20.4530 O   0  0  0  0  0  0  0  0  0  0  0  0
  -22.4260  -12.1520   22.3220 H   0  0  0  0  0  0  0  0  0  0  0  0
  -21.1360  -13.3080   22.1360 H   0  0  0  0  0  0  0  0  0  0  0  0
  -25.3980  -15.2630   20.0700 N   0  0  0  0  0  0  0  0  0  0  0  0
  -24.6190  -15.9090   20.1250 H   0  0  0  0  0  0  0  0  0  0  0  0
  -26.2160  -15.6690   19.6340 H   0  0  0  0  0  0  0  0  0  0  0  0
  -29.0150  -21.1910   19.8490 C   0  0  0  0  0  3  0  0  0  0  0  0
  -28.6780  -22.4560   20.7680 C   0  0  0  0  0  3  0  0  0  0  0  0
  -28.0850  -23.8030   20.1430 C   0  0  0  0  0  3  0  0  0  0  0  0
  -27.6410  -24.9240   21.1860 C   0  0  0  0  0  3  0  0  0  0  0  0
  -26.9830  -26.1770   20.7390 O   0  0  0  0  0  0  0  0  0  0  0  0
  -25.9130  -31.8660   25.0840 C   0  0  0  0  0  0  0  0  0  0  0  0
  -26.1700  -26.8460   21.6670 C   0  0  0  0  0  0  0  0  0  0  0  0
  -24.5150  -29.8740   25.4940 C   0  0  0  0  0  3  0  0  0  0  0  0
  -24.5380  -28.0980   23.6580 C   0  0  0  0  0  0  0  0  0  0  0  0
  -25.4020  -30.3770   23.1390 C   0  0  0  0  0  2  0  0  0  0  0  0
  -25.3850  -28.8790   22.8630 C   0  0  0  0  0  0  0  0  0  0  0  0
  -26.1880  -28.2630   21.8560 C   0  0  0  0  0  3  0  0  0  0  0  0
  -25.2640  -26.1050   22.4610 C   0  0  0  0  0  3  0  0  0  0  0  0
  -24.4670  -26.7120   23.4470 C   0  0  0  0  0  3  0  0  0  0  0  0
  -23.7150  -28.7960   24.7200 C   0  0  0  0  0  2  0  0  0  0  0  0
  -25.3250  -30.7430   24.5800 N   0  0  0  0  0  0  0  0  0  0  0  0
  -25.7650  -32.1940   26.2700 O   0  0  0  0  0  0  0  0  0  0  0  0
  -25.3630  -29.1830   26.5890 C   0  0  0  0  0  0  0  0  0  0  0  0
  -24.7450  -28.9190   27.7540 N   0  0  0  0  0  0  0  0  0  0  0  0
  -26.5390  -28.8770   26.3740 O   0  0  0  0  0  0  0  0  0  0  0  0
  -23.7830  -29.2110   27.8540 H   0  0  0  0  0  0  0  0  0  0  0  0
  -24.1190  -27.8560   31.1550 C   0  0  0  0  0  0  0  0  0  0  0  0
  -25.3370  -28.2370   28.9060 C   0  0  0  0  0  3  0  0  0  0  0  0
  -25.2810  -26.7020   28.7320 C   0  0  0  0  0  2  0  0  0  0  0  0
  -24.0390  -26.0680   29.3660 C   0  0  0  0  0  2  0  0  0  0  0  0
  -23.9840  -26.3700   30.8660 C   0  0  0  0  0  2  0  0  0  0  0  0
  -24.7410  -28.7340   30.2280 C   0  0  0  0  0  0  0  0  0  0  0  0
  -24.8140  -30.1110   30.5340 C   0  0  0  0  0  3  0  0  0  0  0  0
  -24.2780  -30.6120   31.7350 C   0  0  0  0  0  3  0  0  0  0  0  0
  -23.6790  -29.7360   32.6550 C   0  0  0  0  0  3  0  0  0  0  0  0
  -23.6040  -28.3620   32.3660 C   0  0  0  0  0  3  0  0  0  0  0  0
  -26.7840  -32.8050   24.1900 C   0  0  0  0  0  3  0  0  0  0  0  0
  -28.3300  -32.5030   24.2920 C   0  0  1  0  0  0  0  0  0  0  0  0
  -28.8570  -32.4430   25.7450 C   0  0  0  0  0  1  0  0  0  0  0  0
  -28.6730  -31.1620   23.6060 C   0  0  0  0  0  1  0  0  0  0  0  0
  -29.1240  -33.5940   23.5340 C   0  0  0  0  0  1  0  0  0  0  0  0
  -26.5030  -34.1890   24.5960 N   0  0  0  0  0  0  0  0  0  0  0  0
  -25.6770  -35.0210   23.9470 C   0  0  0  0  0  0  0  0  0  0  0  0
  -25.1170  -34.7160   22.8910 O   0  0  0  0  0  0  0  0  0  0  0  0
  -26.8890  -34.4910   25.4780 H   0  0  0  0  0  0  0  0  0  0  0  0
  -24.0790  -36.4210   25.2940 C   0  0  0  0  0  1  0  0  0  0  0  0
  -25.4340  -36.4120   24.5700 C   0  0  0  0  0  3  0  0  0  0  0  0
  -26.8110  -37.7430   23.0380 C   0  0  0  0  0  1  0  0  0  0  0  0
  -25.4770  -37.5120   23.5830 N   0  0  0  0  0  0  0  0  0  0  0  0
  -25.1480  -38.3800   23.9940 H   0  0  0  0  0  0  0  0  0  0  0  0
  1 58  1  0
  1  2  1  0
  3  2  2  0
  4  5  1  0
  5 10  1  0
  6 13  1  0
  6  8  1  0
  7  2  1  0
  7  4  1  0
  7  6  1  0
  8 10  1  0
  8  9  1  0
 10 12  1  0
 11 10  1  0
 14 13  2  0
 15 14  1  0
 16 18  1  0
 16 19  1  0
 16  1  1  0
 17 18  1  0
 20 26  1  0
 20 28  1  0
 21 26  1  0
 22 23  1  0
 22 21  1  0
 24 23  1  0
 24 33  1  0
 24 25  1  0
 26 25  1  0
 27 20  2  0
 28 19  1  0
 28 29  1  0
 30 31  2  0
 31 50  1  0
 32 31  1  0
 32 35  1  0
 33 30  1  0
 33 34  1  0
 34 32  2  0
 35 36  1  0
 36 37  2  0
 38 41  1  0
 38 37  1  0
 39 38  2  0
 40 39  1  0
 40 35  2  0
 41 42  1  0
 42 43  1  0
 43 44  2  0
 45 44  1  0
 45 49  1  0
 46 45  2  0
 47 42  2  0
 47 46  1  0
 48 47  1  0
 50 51  1  0
 51 54  1  0
 51 53  1  0
 52 50  2  0
 55 56  1  0
 55 30  1  0
 57 55  1  0
 58 59  2  0
 60 59  1  0
 60 61  2  0
 62 61  1  0
 62 64  1  0
 63 74  2  0
 64 69  2  0
 64 70  1  0
 65 75  1  0
 66 72  1  0
 67 73  1  0
 68 67  1  0
 68 66  2  0
 69 68  1  0
 70 71  2  0
 71 66  1  0
 72 65  1  0
 73 63  1  0
 73 65  1  0
 75 76  1  0
 76 78  1  0
 77 75  2  0
 79 88  1  0
 80 76  1  0
 80 84  1  0
 81 80  1  0
 81 82  1  0
 82 83  1  0
 83 79  1  0
 84 85  1  0
 84 79  2  0
 85 86  2  0
 86 87  1  0
 88 87  2  0
 89 90  1  0
 89 94  1  0
 89 63  1  0
 90 91  1  1
 92 90  1  0
 93 90  1  0
 94 97  1  0
 95 99  1  0
 95 94  1  0
 96 95  2  0
 99 98  1  0
100101  1  0
101102  1  0
101 99  1  0
M  ISO  4  20 100  28 100  61 101  62 101
M  END
>  <TORSDO>  (71) 
F 26

>  <SCORE>  (71) 
4.681

>  <name>  (71) 
70

>  <ligand_id>  (71) 
70

>  <original_smiles>  (71) 
[H]N=C([H])C1([H])C([H])(C(=O)C([H])(C([H])([H])C([H])([H])C([H])([H])C([H])([H])Oc2c([H])c([H])c3c(c2[H])C([H])([H])N(C(=O)C([H])(N([H])C(=O)C([H])(N([H])C([H])([H])[H])C([H])([H])[H])C(C([H])([H])[H])(C([H])([H])[H])C([H])([H])[H])C([H])(C(=O)N([H])C2([H])c4c([H])c([H])c([H])c([H])c4C([H])([H])C([H])([H])C2([H])[H])C3([H])[H])C([H])(C([H])([H])N([H])C(=O)N2C([H])([H])C([H])([H])C([H])([H])C([H])(n3nc(-c4c([H])c([H])c(Oc5c([H])c([H])c(F)c([H])c5F)c([H])c4[H])c(C(=O)N([H])[H])c3N([H])[H])C2([H])[H])C([H])([H])C([H])([H])[H])C([H])([H])C([H])([H])[N+]([H])([H])C1([H])C([H])([H])[H]

>  <smiles>  (71) 
[H]N=C([H])C1([H])C([H])(C(=O)C([H])(C([H])([H])C([H])([H])C([H])([H])C([H])([H])Oc2c([H])c([H])c3c(c2[H])C([H])([H])N(C(=O)C([H])(N([H])C(=O)C([H])(N([H])C([H])([H])[H])C([H])([H])[H])C(C([H])([H])[H])(C([H])([H])[H])C([H])([H])[H])C([H])(C(=O)N([H])C2([H])c4c([H])c([H])c([H])c([H])c4C([H])([H])C([H])([H])C2([H])[H])C3([H])[H])C([H])(C([H])([H])N([H])C(=O)N2C([H])([H])C([H])([H])C([H])([H])C([H])(n3nc(-c4c([H])c([H])c(Oc5c([H])c([H])c(F)c([H])c5F)c([H])c4[H])c(C(=O)N([H])[H])c3N([H])[H])C2([H])[H])C([H])([H])C([H])([H])[H])C([H])([H])C([H])([H])[N+]([H])([H])C1([H])C([H])([H])[H]

$$$$
71:0:0
     RDKit          3D

 89 96  0  0  1  0  0  0  0  0999 V2000
  -28.7790  -21.1130   20.2100 C   0  0  0  0  0  0  0  0  0  0  0  0
  -27.8780  -20.9110   19.3930 O   0  0  0  0  0  0  0  0  0  0  0  0
  -28.9270  -22.5460   20.8650 C   0  0  0  0  0  3  0  0  0  0  0  0
  -28.5450  -23.8640   20.0370 C   0  0  0  0  0  3  0  0  0  0  0  0
  -28.2830  -25.2000   20.8690 C   0  0  0  0  0  2  0  0  0  0  0  0
  -28.3720  -26.5300   20.2310 O   0  0  0  0  0  0  0  0  0  0  0  0
  -24.5990  -31.8880   23.2610 C   0  0  0  0  0  0  0  0  0  0  0  0
  -27.2400  -27.3470   20.2370 C   0  0  0  0  0  0  0  0  0  0  0  0
  -23.4030  -30.4770   21.6240 C   0  0  0  0  0  3  0  0  0  0  0  0
  -24.8630  -28.9220   20.2120 C   0  0  0  0  0  0  0  0  0  0  0  0
  -25.9370  -30.8150   21.4380 C   0  0  0  0  0  2  0  0  0  0  0  0
  -26.0270  -29.4330   20.8010 C   0  0  0  0  0  0  0  0  0  0  0  0
  -27.2220  -28.6590   20.7970 C   0  0  0  0  0  3  0  0  0  0  0  0
  -26.0560  -26.8720   19.6370 C   0  0  0  0  0  3  0  0  0  0  0  0
  -24.8780  -27.6470   19.6220 C   0  0  0  0  0  3  0  0  0  0  0  0
  -23.6210  -29.7900   20.2490 C   0  0  0  0  0  2  0  0  0  0  0  0
  -24.6640  -31.0780   22.1650 N   0  0  0  0  0  0  0  0  0  0  0  0
  -23.5140  -32.1630   23.7940 O   0  0  0  0  0  0  0  0  0  0  0  0
  -22.7430  -29.4640   22.5890 C   0  0  0  0  0  0  0  0  0  0  0  0
  -21.4190  -29.2790   22.4580 N   0  0  0  0  0  0  0  0  0  0  0  0
  -23.4230  -28.8460   23.4120 O   0  0  0  0  0  0  0  0  0  0  0  0
  -20.9300  -29.8290   21.7660 H   0  0  0  0  0  0  0  0  0  0  0  0
  -18.0470  -28.0670   22.9500 C   0  0  0  0  0  0  0  0  0  0  0  0
  -20.6020  -28.3410   23.2310 C   0  0  0  0  0  3  0  0  0  0  0  0
  -20.7150  -26.9070   22.6640 C   0  0  0  0  0  2  0  0  0  0  0  0
  -19.6190  -26.5730   21.6470 C   0  0  0  0  0  2  0  0  0  0  0  0
  -18.2340  -26.7150   22.2830 C   0  0  0  0  0  2  0  0  0  0  0  0
  -19.1600  -28.8380   23.3800 C   0  0  0  0  0  0  0  0  0  0  0  0
  -18.9310  -30.1030   23.9630 C   0  0  0  0  0  3  0  0  0  0  0  0
  -17.6230  -30.5990   24.1200 C   0  0  0  0  0  3  0  0  0  0  0  0
  -16.5250  -29.8260   23.7060 C   0  0  0  0  0  3  0  0  0  0  0  0
  -16.7380  -28.5620   23.1260 C   0  0  0  0  0  3  0  0  0  0  0  0
  -25.8790  -32.5270   23.8830 C   0  0  0  0  0  3  0  0  0  0  0  0
  -25.5670  -33.9290   24.2010 N   0  0  0  0  0  0  0  0  0  0  0  0
  -25.9020  -34.9760   23.4360 C   0  0  0  0  0  0  0  0  0  0  0  0
  -26.5760  -34.8650   22.4080 O   0  0  0  0  0  0  0  0  0  0  0  0
  -24.9690  -34.0880   24.9980 H   0  0  0  0  0  0  0  0  0  0  0  0
  -24.1790  -36.7690   23.0570 C   0  0  0  0  0  1  0  0  0  0  0  0
  -25.4120  -36.3670   23.8810 C   0  0  0  0  0  3  0  0  0  0  0  0
  -27.5400  -37.2570   24.7250 C   0  0  0  0  0  1  0  0  0  0  0  0
  -26.4470  -37.4190   23.7700 N   0  0  0  0  0  0  0  0  0  0  0  0
  -26.0400  -38.3400   23.9070 H   0  0  0  0  0  0  0  0  0  0  0  0
  -26.3920  -31.7680   25.1680 C   0  0  1  0  0  0  0  0  0  0  0  0
  -25.2950  -31.5380   26.2340 C   0  0  0  0  0  1  0  0  0  0  0  0
  -26.9790  -30.3880   24.7900 C   0  0  0  0  0  1  0  0  0  0  0  0
  -27.5400  -32.5690   25.8280 C   0  0  0  0  0  1  0  0  0  0  0  0
  -29.7720  -19.9330   20.5950 C   0  0  0  0  0  3  0  0  0  0  0  0
  -31.1640  -20.0000   18.3940 C   0  0  0  0  0  1  0  0  0  0  0  0
  -31.1450  -20.1810   19.9230 C   0  0  0  0  0  2  0  0  0  0  0  0
  -29.2810  -18.4100   20.3890 C   0  0  0  0  0  3  0  0  0  0  0  0
  -30.3020  -17.2260   20.7470 C   0  0  0  0  0  3  0  0  0  0  0  0
  -30.5930  -14.6730   20.4130 C   0  0  0  0  0  0  0  0  0  0  0  0
  -30.3660  -12.4350   19.3550 C   0  0  0  0  0  2  0  0  0  0  0  0
  -29.4330  -12.5510   18.1320 C   0  0  0  0  0  2  0  0  0  0  0  0
  -27.9590  -12.3950   18.5560 C   0  0  0  0  0  2  0  0  0  0  0  0
  -27.5920  -13.2670   19.7860 C   0  0  0  0  0  3  0  0  0  0  0  0
  -28.6430  -13.1350   20.9090 C   0  0  0  0  0  2  0  0  0  0  0  0
  -29.9500  -13.4670   20.3270 N   0  0  0  0  0  0  0  0  0  0  0  0
  -31.7750  -14.7850   20.0750 O   0  0  0  0  0  0  0  0  0  0  0  0
  -29.8370  -15.7880   20.6890 N   0  0  0  0  0  0  0  0  0  0  0  0
  -28.8660  -15.6160   20.9050 H   0  0  0  0  0  0  0  0  0  0  0  0
  -25.1980  -13.8650   20.4950 C   0  0  0  0  0  0  0  0  0  0  0  0
  -24.1280  -13.0930   20.8580 C   0  0  0  0  0  0  0  0  0  0  0  0
  -24.5900  -11.7410   20.8310 C   0  0  0  0  0  0  0  0  0  0  0  0
  -26.2430  -12.9840   20.2660 N   0  0  0  0  0  0  0  0  0  0  0  0
  -25.8830  -11.7020   20.5320 N   0  0  0  0  0  0  0  0  0  0  0  0
  -23.8630  -10.4790   21.0170 C   0  0  0  0  0  0  0  0  0  0  0  0
  -24.2800   -9.5170   21.9630 C   0  0  0  0  0  3  0  0  0  0  0  0
  -23.5510   -8.3200   22.1350 C   0  0  0  0  0  3  0  0  0  0  0  0
  -22.3910   -8.0780   21.3630 C   0  0  0  0  0  0  0  0  0  0  0  0
  -21.9930   -9.0300   20.4070 C   0  0  0  0  0  3  0  0  0  0  0  0
  -22.7220  -10.2170   20.2330 C   0  0  0  0  0  3  0  0  0  0  0  0
  -21.6360   -6.9330   21.4440 O   0  0  0  0  0  0  0  0  0  0  0  0
  -21.5600   -6.2020   22.6020 C   0  0  0  0  0  0  0  0  0  0  0  0
  -21.0880   -6.7630   23.8080 C   0  0  0  0  0  3  0  0  0  0  0  0
  -20.9600   -5.9570   24.9580 C   0  0  0  0  0  3  0  0  0  0  0  0
  -21.2960   -4.5900   24.9010 C   0  0  0  0  0  0  0  0  0  0  0  0
  -21.7630   -4.0300   23.6990 C   0  0  0  0  0  3  0  0  0  0  0  0
  -21.8910   -4.8320   22.5530 C   0  0  0  0  0  0  0  0  0  0  0  0
  -22.3210   -4.2810   21.3920 F   0  0  0  0  0  0  0  0  0  0  0  0
  -21.1680   -3.8150   26.0030 F   0  0  0  0  0  0  0  0  0  0  0  0
  -22.7300  -13.5720   21.1190 C   0  0  0  0  0  0  0  0  0  0  0  0
  -21.9930  -12.8740   21.9770 N   0  0  0  0  0  0  0  0  0  0  0  0
  -22.2980  -14.5990   20.5980 O   0  0  0  0  0  0  0  0  0  0  0  0
  -22.3550  -12.0430   22.4200 H   0  0  0  0  0  0  0  0  0  0  0  0
  -21.0540  -13.1760   22.1930 H   0  0  0  0  0  0  0  0  0  0  0  0
  -25.3640  -15.2370   20.3160 N   0  0  0  0  0  0  0  0  0  0  0  0
  -24.5930  -15.8890   20.4190 H   0  0  0  0  0  0  0  0  0  0  0  0
  -26.2070  -15.6730   19.9670 H   0  0  0  0  0  0  0  0  0  0  0  0
  1 47  1  0
  1  3  1  0
  2  1  2  0
  4  3  2  0
  4  5  1  0
  6  8  1  0
  6  5  1  0
  7 18  2  0
  8 13  1  0
  9 17  1  0
  9 19  1  0
 10 16  1  0
 10 12  1  0
 11 17  1  0
 12 11  1  0
 13 12  2  0
 14  8  2  0
 15 14  1  0
 15 10  2  0
 16  9  1  0
 17  7  1  0
 19 21  2  0
 20 19  1  0
 22 20  1  0
 23 32  2  0
 23 28  1  0
 24 20  1  0
 24 28  1  0
 25 24  1  0
 26 27  1  0
 26 25  1  0
 27 23  1  0
 28 29  2  0
 29 30  1  0
 31 30  2  0
 32 31  1  0
 33  7  1  0
 33 34  1  0
 33 43  1  0
 34 37  1  0
 35 39  1  0
 35 34  1  0
 36 35  2  0
 39 38  1  0
 41 39  1  0
 41 42  1  0
 41 40  1  0
 43 46  1  1
 43 44  1  0
 45 43  1  0
 47 49  1  0
 48 49  1  0
 50 47  1  0
 50 51  2  0
 52 60  1  0
 53 58  1  0
 54 55  1  0
 54 53  1  0
 56 55  1  0
 56 65  1  0
 56 57  1  0
 58 52  1  0
 58 57  1  0
 59 52  2  0
 60 51  1  0
 60 61  1  0
 62 63  2  0
 63 82  1  0
 64 63  1  0
 64 67  1  0
 65 62  1  0
 65 66  1  0
 66 64  2  0
 67 68  1  0
 68 69  2  0
 70 73  1  0
 70 69  1  0
 71 70  2  0
 72 71  1  0
 72 67  2  0
 73 74  1  0
 74 75  1  0
 75 76  2  0
 77 76  1  0
 77 81  1  0
 78 77  2  0
 79 74  2  0
 79 78  1  0
 80 79  1  0
 82 83  1  0
 83 86  1  0
 83 85  1  0
 84 82  2  0
 87 88  1  0
 87 62  1  0
 89 87  1  0
M  ISO  4   5 101   6 101  52 100  60 100
M  END
>  <TORSDO>  (72) 
F 23

>  <SCORE>  (72) 
-12.754

>  <name>  (72) 
71

>  <ligand_id>  (72) 
71

>  <original_smiles>  (72) 
[H]c1c([H])c([H])c2c(c1[H])C([H])([H])C([H])([H])C([H])([H])C2([H])N([H])C(=O)C1([H])N(C(=O)C([H])(N([H])C(=O)C([H])(N([H])C([H])([H])[H])C([H])([H])[H])C(C([H])([H])[H])(C([H])([H])[H])C([H])([H])[H])C([H])([H])c2c([H])c(OC([H])([H])C([H])([H])C([H])([H])C(=O)C([H])(C([H])([H])C([H])([H])[H])C([H])([H])C([H])([H])N([H])C(=O)N3C([H])([H])C([H])([H])C([H])([H])C([H])(n4nc(-c5c([H])c([H])c(Oc6c([H])c([H])c(F)c([H])c6F)c([H])c5[H])c(C(=O)N([H])[H])c4N([H])[H])C3([H])[H])c([H])c([H])c2C1([H])[H]

>  <smiles>  (72) 
[H]c1c([H])c([H])c2c(c1[H])C([H])([H])C([H])([H])C([H])([H])C2([H])N([H])C(=O)C1([H])N(C(=O)C([H])(N([H])C(=O)C([H])(N([H])C([H])([H])[H])C([H])([H])[H])C(C([H])([H])[H])(C([H])([H])[H])C([H])([H])[H])C([H])([H])c2c([H])c(OC([H])([H])C([H])([H])C([H])([H])C(=O)C([H])(C([H])([H])C([H])([H])[H])C([H])([H])C([H])([H])N([H])C(=O)N3C([H])([H])C([H])([H])C([H])([H])C([H])(n4nc(-c5c([H])c([H])c(Oc6c([H])c([H])c(F)c([H])c6F)c([H])c5[H])c(C(=O)N([H])[H])c4N([H])[H])C3([H])[H])c([H])c([H])c2C1([H])[H]

$$$$
72:0:0
     RDKit          3D

 95103  0  0  1  0  0  0  0  0999 V2000
  -28.8240  -22.4160   20.4800 C   0  0  0  0  0  0  0  0  0  0  0  0
  -27.8380  -22.0900   21.1460 O   0  0  0  0  0  0  0  0  0  0  0  0
  -29.6690  -21.2570   19.8120 C   0  0  0  0  0  2  0  0  0  0  0  0
  -31.3710  -18.7900   22.2800 C   0  0  0  0  0  3  0  0  0  0  0  0
  -30.8800  -19.9740   21.6860 C   0  0  0  0  0  3  0  0  0  0  0  0
  -31.0130  -17.5210   21.7800 C   0  0  0  0  0  3  0  0  0  0  0  0
  -29.6570  -18.6230   20.0820 C   0  0  0  0  0  3  0  0  0  0  0  0
  -30.0210  -19.9250   20.5660 C   0  0  0  0  0  0  0  0  0  0  0  0
  -30.1430  -17.4020   20.6760 C   0  0  0  0  0  0  0  0  0  0  0  0
  -29.6040  -15.9890   20.2530 C   0  0  1  0  0  0  0  0  0  0  0  0
  -28.5790  -15.8080   21.0830 F   0  0  0  0  0  0  0  0  0  0  0  0
  -29.1020  -16.1300   19.0230 F   0  0  0  0  0  0  0  0  0  0  0  0
  -30.5380  -14.6860   20.2180 C   0  0  0  0  0  0  0  0  0  0  0  0
  -30.3760  -12.4390   19.1820 C   0  0  0  0  0  2  0  0  0  0  0  0
  -29.3970  -12.5600   17.9890 C   0  0  0  0  0  2  0  0  0  0  0  0
  -27.9290  -12.3930   18.4400 C   0  0  0  0  0  2  0  0  0  0  0  0
  -27.5910  -13.2450   19.6910 C   0  0  0  0  0  3  0  0  0  0  0  0
  -28.6730  -13.0590   20.7770 C   0  0  0  0  0  2  0  0  0  0  0  0
  -29.9690  -13.4350   20.1940 N   0  0  0  0  0  0  0  0  0  0  0  0
  -31.7330  -14.8200   19.9230 O   0  0  0  0  0  0  0  0  0  0  0  0
  -25.2130  -13.8580   20.4580 C   0  0  0  0  0  0  0  0  0  0  0  0
  -24.1510  -13.0860   20.8460 C   0  0  0  0  0  0  0  0  0  0  0  0
  -24.6120  -11.7360   20.8050 C   0  0  0  0  0  0  0  0  0  0  0  0
  -26.2520  -12.9730   20.2030 N   0  0  0  0  0  0  0  0  0  0  0  0
  -25.8950  -11.6930   20.4720 N   0  0  0  0  0  0  0  0  0  0  0  0
  -23.8900  -10.4740   21.0080 C   0  0  0  0  0  0  0  0  0  0  0  0
  -24.3380   -9.5070   21.9360 C   0  0  0  0  0  3  0  0  0  0  0  0
  -23.6150   -8.3090   22.1230 C   0  0  0  0  0  3  0  0  0  0  0  0
  -22.4310   -8.0710   21.3840 C   0  0  0  0  0  0  0  0  0  0  0  0
  -22.0060   -9.0250   20.4450 C   0  0  0  0  0  3  0  0  0  0  0  0
  -22.7280  -10.2140   20.2550 C   0  0  0  0  0  3  0  0  0  0  0  0
  -21.6770   -6.9260   21.4820 O   0  0  0  0  0  0  0  0  0  0  0  0
  -21.6450   -6.1840   22.6350 C   0  0  0  0  0  0  0  0  0  0  0  0
  -21.2350   -6.7380   23.8670 C   0  0  0  0  0  3  0  0  0  0  0  0
  -21.1510   -5.9200   25.0120 C   0  0  0  0  0  3  0  0  0  0  0  0
  -21.4630   -4.5500   24.9250 C   0  0  0  0  0  0  0  0  0  0  0  0
  -21.8670   -3.9970   23.6970 C   0  0  0  0  0  3  0  0  0  0  0  0
  -21.9530   -4.8110   22.5540 C   0  0  0  0  0  0  0  0  0  0  0  0
  -22.3210   -4.2690   21.3680 F   0  0  0  0  0  0  0  0  0  0  0  0
  -21.3730   -3.7610   26.0200 F   0  0  0  0  0  0  0  0  0  0  0  0
  -22.7590  -13.5650   21.1430 C   0  0  0  0  0  0  0  0  0  0  0  0
  -22.0470  -12.8650   22.0210 N   0  0  0  0  0  0  0  0  0  0  0  0
  -22.3100  -14.5890   20.6290 O   0  0  0  0  0  0  0  0  0  0  0  0
  -22.4220  -12.0360   22.4560 H   0  0  0  0  0  0  0  0  0  0  0  0
  -21.1140  -13.1630   22.2610 H   0  0  0  0  0  0  0  0  0  0  0  0
  -25.3740  -15.2280   20.2830 N   0  0  0  0  0  0  0  0  0  0  0  0
  -24.6100  -15.8790   20.4210 H   0  0  0  0  0  0  0  0  0  0  0  0
  -26.2330  -15.6780   19.9920 H   0  0  0  0  0  0  0  0  0  0  0  0
  -29.2200  -23.9650   20.3000 C   0  0  0  0  0  3  0  0  0  0  0  0
  -30.0030  -24.1200   19.0530 N   0  0  0  0  0  4  0  0  0  0  0  0
  -29.4760  -23.8540   18.2390 H   0  0  0  0  0  0  0  0  0  0  0  0
  -30.8440  -23.5730   19.0900 H   0  0  0  0  0  0  0  0  0  0  0  0
  -30.2740  -25.0830   18.9440 H   0  0  0  0  0  0  0  0  0  0  0  0
  -28.0010  -24.9880   20.2880 C   0  0  0  0  0  2  0  0  0  0  0  0
  -28.2740  -26.4530   20.2120 O   0  0  0  0  0  0  0  0  0  0  0  0
  -24.5930  -31.8850   23.2440 C   0  0  0  0  0  0  0  0  0  0  0  0
  -27.1650  -27.3160   20.1700 C   0  0  0  0  0  0  0  0  0  0  0  0
  -23.3750  -30.4870   21.6160 C   0  0  0  0  0  3  0  0  0  0  0  0
  -24.8130  -28.9450   20.1750 C   0  0  0  0  0  0  0  0  0  0  0  0
  -25.9150  -30.8010   21.4180 C   0  0  0  0  0  2  0  0  0  0  0  0
  -25.9880  -29.4250   20.7660 C   0  0  0  0  0  0  0  0  0  0  0  0
  -27.1690  -28.6220   20.7550 C   0  0  0  0  0  3  0  0  0  0  0  0
  -25.9640  -26.8980   19.5480 C   0  0  0  0  0  3  0  0  0  0  0  0
  -24.8040  -27.6900   19.5550 C   0  0  0  0  0  3  0  0  0  0  0  0
  -23.5790  -29.8200   20.2310 C   0  0  0  0  0  2  0  0  0  0  0  0
  -24.6470  -31.0740   22.1490 N   0  0  0  0  0  0  0  0  0  0  0  0
  -23.5140  -32.1650   23.7870 O   0  0  0  0  0  0  0  0  0  0  0  0
  -22.7220  -29.4680   22.5790 C   0  0  0  0  0  0  0  0  0  0  0  0
  -21.3980  -29.2800   22.4530 N   0  0  0  0  0  0  0  0  0  0  0  0
  -23.4050  -28.8500   23.4010 O   0  0  0  0  0  0  0  0  0  0  0  0
  -20.9060  -29.8230   21.7580 H   0  0  0  0  0  0  0  0  0  0  0  0
  -18.0290  -28.0580   22.9470 C   0  0  0  0  0  0  0  0  0  0  0  0
  -20.5840  -28.3440   23.2300 C   0  0  0  0  0  3  0  0  0  0  0  0
  -20.7050  -26.9080   22.6670 C   0  0  0  0  0  2  0  0  0  0  0  0
  -19.6120  -26.5650   21.6510 C   0  0  0  0  0  2  0  0  0  0  0  0
  -18.2250  -26.7030   22.2860 C   0  0  0  0  0  2  0  0  0  0  0  0
  -19.1380  -28.8350   23.3760 C   0  0  0  0  0  0  0  0  0  0  0  0
  -18.9050  -30.1030   23.9530 C   0  0  0  0  0  3  0  0  0  0  0  0
  -17.5940  -30.5920   24.1080 C   0  0  0  0  0  3  0  0  0  0  0  0
  -16.4990  -29.8120   23.6970 C   0  0  0  0  0  3  0  0  0  0  0  0
  -16.7180  -28.5470   23.1220 C   0  0  0  0  0  3  0  0  0  0  0  0
  -25.8830  -32.5170   23.8550 C   0  0  0  0  0  3  0  0  0  0  0  0
  -25.5790  -33.9170   24.1790 N   0  0  0  0  0  0  0  0  0  0  0  0
  -25.9070  -34.9650   23.4110 C   0  0  0  0  0  0  0  0  0  0  0  0
  -26.5700  -34.8550   22.3770 O   0  0  0  0  0  0  0  0  0  0  0  0
  -24.9900  -34.0780   24.9830 H   0  0  0  0  0  0  0  0  0  0  0  0
  -24.1830  -36.7630   23.0580 C   0  0  0  0  0  1  0  0  0  0  0  0
  -25.4260  -36.3560   23.8660 C   0  0  0  0  0  3  0  0  0  0  0  0
  -27.5650  -37.2400   24.6880 C   0  0  0  0  0  1  0  0  0  0  0  0
  -26.4600  -37.4070   23.7460 N   0  0  0  0  0  0  0  0  0  0  0  0
  -26.0550  -38.3280   23.8930 H   0  0  0  0  0  0  0  0  0  0  0  0
  -26.4030  -31.7500   25.1320 C   0  0  1  0  0  0  0  0  0  0  0  0
  -25.3140  -31.5220   26.2050 C   0  0  0  0  0  1  0  0  0  0  0  0
  -26.9800  -30.3660   24.7480 C   0  0  0  0  0  1  0  0  0  0  0  0
  -27.5600  -32.5430   25.7850 C   0  0  0  0  0  1  0  0  0  0  0  0
  1  2  2  0
  3  1  1  0
  3  8  1  0
  5  4  2  0
  6  4  1  0
  7  8  2  0
  7  9  1  0
  8  5  1  0
  9  6  2  0
 10  9  1  0
 10 11  1  1
 12 10  1  0
 13 10  1  0
 14 19  1  0
 15 16  1  0
 15 14  1  0
 17 16  1  0
 17 24  1  0
 17 18  1  0
 19 13  1  0
 19 18  1  0
 20 13  2  0
 21 22  2  0
 22 41  1  0
 23 22  1  0
 23 26  1  0
 24 21  1  0
 24 25  1  0
 25 23  2  0
 26 27  1  0
 27 28  2  0
 29 32  1  0
 29 28  1  0
 30 29  2  0
 31 30  1  0
 31 26  2  0
 32 33  1  0
 33 34  1  0
 34 35  2  0
 36 35  1  0
 36 40  1  0
 37 36  2  0
 38 33  2  0
 38 37  1  0
 39 38  1  0
 41 42  1  0
 42 45  1  0
 42 44  1  0
 43 41  2  0
 46 47  1  0
 46 21  1  0
 48 46  1  0
 49 54  1  0
 49  1  1  0
 50 52  1  0
 50 49  1  0
 51 50  1  0
 53 50  1  0
 55 54  1  0
 56 67  2  0
 57 55  1  0
 57 62  1  0
 58 66  1  0
 58 68  1  0
 59 65  1  0
 59 61  1  0
 60 66  1  0
 61 60  1  0
 62 61  2  0
 63 64  1  0
 63 57  2  0
 64 59  2  0
 65 58  1  0
 66 56  1  0
 68 70  2  0
 69 68  1  0
 71 69  1  0
 72 81  2  0
 72 77  1  0
 73 69  1  0
 73 77  1  0
 74 73  1  0
 75 76  1  0
 75 74  1  0
 76 72  1  0
 77 78  2  0
 78 79  1  0
 80 79  2  0
 81 80  1  0
 82 56  1  0
 82 83  1  0
 82 92  1  0
 83 86  1  0
 84 88  1  0
 84 83  1  0
 85 84  2  0
 88 87  1  0
 90 88  1  0
 90 91  1  0
 90 89  1  0
 92 95  1  1
 92 93  1  0
 94 92  1  0
M  ISO  4  10 100  13 100  54 101  55 101
M  END
>  <TORSDO>  (73) 
F 22

>  <SCORE>  (73) 
-13.636

>  <name>  (73) 
72

>  <ligand_id>  (73) 
72

>  <original_smiles>  (73) 
[H]c1c([H])c(C([H])([H])C(=O)C([H])(C([H])([H])Oc2c([H])c([H])c3c(c2[H])C([H])([H])N(C(=O)C([H])(N([H])C(=O)C([H])(N([H])C([H])([H])[H])C([H])([H])[H])C(C([H])([H])[H])(C([H])([H])[H])C([H])([H])[H])C([H])(C(=O)N([H])C2([H])c4c([H])c([H])c([H])c([H])c4C([H])([H])C([H])([H])C2([H])[H])C3([H])[H])[N+]([H])([H])[H])c([H])c(C(F)(F)C(=O)N2C([H])([H])C([H])([H])C([H])([H])C([H])(n3nc(-c4c([H])c([H])c(Oc5c([H])c([H])c(F)c([H])c5F)c([H])c4[H])c(C(=O)N([H])[H])c3N([H])[H])C2([H])[H])c1[H]

>  <smiles>  (73) 
[H]c1c([H])c(C([H])([H])C(=O)C([H])(C([H])([H])Oc2c([H])c([H])c3c(c2[H])C([H])([H])N(C(=O)C([H])(N([H])C(=O)C([H])(N([H])C([H])([H])[H])C([H])([H])[H])C(C([H])([H])[H])(C([H])([H])[H])C([H])([H])[H])C([H])(C(=O)N([H])C2([H])c4c([H])c([H])c([H])c([H])c4C([H])([H])C([H])([H])C2([H])[H])C3([H])[H])[N+]([H])([H])[H])c([H])c(C(F)(F)C(=O)N2C([H])([H])C([H])([H])C([H])([H])C([H])(n3nc(-c4c([H])c([H])c(Oc5c([H])c([H])c(F)c([H])c5F)c([H])c4[H])c(C(=O)N([H])[H])c3N([H])[H])C2([H])[H])c1[H]

$$$$
73:0:0
     RDKit          3D

 89 96  0  0  1  0  0  0  0  0999 V2000
  -27.7690  -21.8270   21.7430 C   0  0  0  0  0  1  0  0  0  0  0  0
  -28.4630  -21.9340   20.3640 C   0  0  0  0  0  3  0  0  0  0  0  0
  -28.9950  -23.5220   20.2330 C   0  0  0  0  0  3  0  0  0  0  0  0
  -27.9590  -24.8390   20.1430 C   0  0  0  0  0  3  0  0  0  0  0  0
  -28.2800  -26.3540   20.2050 O   0  0  0  0  0  0  0  0  0  0  0  0
  -24.6800  -31.9380   23.3520 C   0  0  0  0  0  0  0  0  0  0  0  0
  -27.2200  -27.3260   20.1750 C   0  0  0  0  0  0  0  0  0  0  0  0
  -23.4570  -30.5810   21.6980 C   0  0  0  0  0  3  0  0  0  0  0  0
  -24.8860  -29.0530   20.2140 C   0  0  0  0  0  0  0  0  0  0  0  0
  -26.0070  -30.8640   21.4990 C   0  0  0  0  0  2  0  0  0  0  0  0
  -26.0730  -29.4920   20.8140 C   0  0  0  0  0  0  0  0  0  0  0  0
  -27.2430  -28.6460   20.7770 C   0  0  0  0  0  3  0  0  0  0  0  0
  -26.0070  -26.9880   19.5350 C   0  0  0  0  0  3  0  0  0  0  0  0
  -24.8660  -27.8140   19.5570 C   0  0  0  0  0  3  0  0  0  0  0  0
  -23.6570  -29.9430   20.2990 C   0  0  0  0  0  2  0  0  0  0  0  0
  -24.7350  -31.1470   22.2370 N   0  0  0  0  0  0  0  0  0  0  0  0
  -23.6010  -32.2060   23.9030 O   0  0  0  0  0  0  0  0  0  0  0  0
  -22.7990  -29.5450   22.6420 C   0  0  0  0  0  0  0  0  0  0  0  0
  -21.4800  -29.3350   22.4950 N   0  0  0  0  0  0  0  0  0  0  0  0
  -23.4780  -28.9340   23.4730 O   0  0  0  0  0  0  0  0  0  0  0  0
  -20.9860  -29.8850   21.8060 H   0  0  0  0  0  0  0  0  0  0  0  0
  -18.1390  -27.9990   22.9080 C   0  0  0  0  0  0  0  0  0  0  0  0
  -20.6750  -28.3670   23.2470 C   0  0  0  0  0  3  0  0  0  0  0  0
  -20.8510  -26.9360   22.6840 C   0  0  0  0  0  2  0  0  0  0  0  0
  -19.7940  -26.5620   21.6410 C   0  0  0  0  0  2  0  0  0  0  0  0
  -18.3890  -26.6560   22.2430 C   0  0  0  0  0  2  0  0  0  0  0  0
  -19.2120  -28.8100   23.3630 C   0  0  0  0  0  0  0  0  0  0  0  0
  -18.9250  -30.0640   23.9430 C   0  0  0  0  0  3  0  0  0  0  0  0
  -17.5970  -30.5100   24.0710 C   0  0  0  0  0  3  0  0  0  0  0  0
  -16.5370  -29.7000   23.6290 C   0  0  0  0  0  3  0  0  0  0  0  0
  -16.8090  -28.4450   23.0540 C   0  0  0  0  0  3  0  0  0  0  0  0
  -25.9670  -32.5580   23.9770 C   0  0  0  0  0  3  0  0  0  0  0  0
  -25.6750  -33.9650   24.2920 N   0  0  0  0  0  0  0  0  0  0  0  0
  -25.9930  -35.0040   23.5100 C   0  0  0  0  0  0  0  0  0  0  0  0
  -26.6280  -34.8800   22.4600 O   0  0  0  0  0  0  0  0  0  0  0  0
  -25.1040  -34.1360   25.1080 H   0  0  0  0  0  0  0  0  0  0  0  0
  -24.2520  -36.7980   23.2050 C   0  0  0  0  0  1  0  0  0  0  0  0
  -25.5310  -36.4040   23.9620 C   0  0  0  0  0  3  0  0  0  0  0  0
  -27.7030  -37.3060   24.6740 C   0  0  0  0  0  1  0  0  0  0  0  0
  -26.5600  -37.4510   23.7760 N   0  0  0  0  0  0  0  0  0  0  0  0
  -26.1630  -38.3760   23.9130 H   0  0  0  0  0  0  0  0  0  0  0  0
  -26.4600  -31.7950   25.2680 C   0  0  1  0  0  0  0  0  0  0  0  0
  -25.3530  -31.5890   26.3280 C   0  0  0  0  0  1  0  0  0  0  0  0
  -27.0260  -30.4030   24.9040 C   0  0  0  0  0  1  0  0  0  0  0  0
  -27.6150  -32.5810   25.9310 C   0  0  0  0  0  1  0  0  0  0  0  0
  -29.3750  -20.5110   20.0490 C   0  0  0  0  0  2  0  0  0  0  0  0
  -28.9920  -18.8280   20.0670 C   0  0  0  0  0  3  0  0  0  0  0  0
  -30.6590  -15.0850   20.0440 C   0  0  0  0  0  0  0  0  0  0  0  0
  -30.5410  -12.6880   19.2540 C   0  0  0  0  0  2  0  0  0  0  0  0
  -29.5970  -12.5840   18.0350 C   0  0  0  0  0  2  0  0  0  0  0  0
  -28.1410  -12.3890   18.4970 C   0  0  0  0  0  2  0  0  0  0  0  0
  -27.7400  -13.3700   19.6300 C   0  0  0  0  0  3  0  0  0  0  0  0
  -28.8080  -13.4510   20.7400 C   0  0  0  0  0  2  0  0  0  0  0  0
  -30.0730  -13.8250   20.0970 N   0  0  0  0  0  0  0  0  0  0  0  0
  -31.8510  -15.1320   19.7200 O   0  0  0  0  0  0  0  0  0  0  0  0
  -30.1150  -17.6260   19.9210 C   0  0  0  0  0  0  0  0  0  0  0  0
  -29.8590  -16.2490   20.1650 N   0  0  0  0  0  0  0  0  0  0  0  0
  -31.2360  -17.9980   19.5660 O   0  0  0  0  0  0  0  0  0  0  0  0
  -28.9100  -16.0570   20.4400 H   0  0  0  0  0  0  0  0  0  0  0  0
  -25.3850  -13.9560   20.4460 C   0  0  0  0  0  0  0  0  0  0  0  0
  -24.3260  -13.1840   20.8350 C   0  0  0  0  0  0  0  0  0  0  0  0
  -24.7770  -11.8300   20.7650 C   0  0  0  0  0  0  0  0  0  0  0  0
  -26.4140  -13.0740   20.1590 N   0  0  0  0  0  0  0  0  0  0  0  0
  -26.0580  -11.7890   20.4170 N   0  0  0  0  0  0  0  0  0  0  0  0
  -24.0440  -10.5720   20.9530 C   0  0  0  0  0  0  0  0  0  0  0  0
  -24.4570   -9.6100   21.9010 C   0  0  0  0  0  3  0  0  0  0  0  0
  -23.7220   -8.4180   22.0780 C   0  0  0  0  0  3  0  0  0  0  0  0
  -22.5600   -8.1780   21.3060 C   0  0  0  0  0  0  0  0  0  0  0  0
  -22.1630   -9.1310   20.3500 C   0  0  0  0  0  3  0  0  0  0  0  0
  -22.8990  -10.3140   20.1710 C   0  0  0  0  0  3  0  0  0  0  0  0
  -21.7990   -7.0370   21.3910 O   0  0  0  0  0  0  0  0  0  0  0  0
  -21.6710   -6.3440   22.5670 C   0  0  0  0  0  0  0  0  0  0  0  0
  -21.1330   -6.9400   23.7280 C   0  0  0  0  0  3  0  0  0  0  0  0
  -20.9560   -6.1710   24.8980 C   0  0  0  0  0  3  0  0  0  0  0  0
  -21.3060   -4.8080   24.9030 C   0  0  0  0  0  0  0  0  0  0  0  0
  -21.8360   -4.2110   23.7460 C   0  0  0  0  0  3  0  0  0  0  0  0
  -22.0150   -4.9770   22.5810 C   0  0  0  0  0  0  0  0  0  0  0  0
  -22.5080   -4.3930   21.4620 F   0  0  0  0  0  0  0  0  0  0  0  0
  -21.1280   -4.0670   26.0220 F   0  0  0  0  0  0  0  0  0  0  0  0
  -22.9420  -13.6700   21.1510 C   0  0  0  0  0  0  0  0  0  0  0  0
  -22.2350  -12.9760   22.0350 N   0  0  0  0  0  0  0  0  0  0  0  0
  -22.4980  -14.7030   20.6520 O   0  0  0  0  0  0  0  0  0  0  0  0
  -22.6080  -12.1420   22.4630 H   0  0  0  0  0  0  0  0  0  0  0  0
  -21.3090  -13.2880   22.2920 H   0  0  0  0  0  0  0  0  0  0  0  0
  -25.5520  -15.3270   20.2870 N   0  0  0  0  0  0  0  0  0  0  0  0
  -24.7800  -15.9710   20.4280 H   0  0  0  0  0  0  0  0  0  0  0  0
  -26.3600  -15.7620   19.8670 H   0  0  0  0  0  0  0  0  0  0  0  0
  -26.4190  -18.9870   19.5400 C   0  0  0  0  0  1  0  0  0  0  0  0
  -27.7940  -18.4340   19.1350 C   0  0  0  0  0  2  0  0  0  0  0  0
  2  1  1  0
  3  2  1  0
  4  5  1  0
  4  3  2  0
  6 17  2  0
  7  5  1  0
  7 12  1  0
  8 16  1  0
  8 18  1  0
  9 15  1  0
  9 11  1  0
 10 16  1  0
 11 10  1  0
 12 11  2  0
 13 14  1  0
 13  7  2  0
 14  9  2  0
 15  8  1  0
 16  6  1  0
 18 20  2  0
 19 18  1  0
 21 19  1  0
 22 31  2  0
 22 27  1  0
 23 19  1  0
 23 27  1  0
 24 23  1  0
 25 26  1  0
 25 24  1  0
 26 22  1  0
 27 28  2  0
 28 29  1  0
 30 29  2  0
 31 30  1  0
 32  6  1  0
 32 33  1  0
 32 42  1  0
 33 36  1  0
 34 38  1  0
 34 33  1  0
 35 34  2  0
 38 37  1  0
 40 41  1  0
 40 38  1  0
 40 39  1  0
 42 45  1  1
 42 43  1  0
 44 42  1  0
 46 47  1  0
 46  2  1  0
 47 89  1  0
 48 54  1  0
 48 57  1  0
 49 54  1  0
 50 51  1  0
 50 49  1  0
 52 51  1  0
 52 63  1  0
 52 53  1  0
 54 53  1  0
 55 48  2  0
 56 47  1  0
 56 57  1  0
 57 59  1  0
 58 56  2  0
 60 61  2  0
 61 80  1  0
 62 61  1  0
 62 65  1  0
 63 64  1  0
 63 60  1  0
 64 62  2  0
 65 66  1  0
 66 67  2  0
 68 71  1  0
 68 67  1  0
 69 68  2  0
 70 69  1  0
 70 65  2  0
 71 72  1  0
 72 77  2  0
 72 73  1  0
 73 74  2  0
 74 75  1  0
 75 79  1  0
 76 75  2  0
 77 76  1  0
 78 77  1  0
 80 81  1  0
 81 84  1  0
 81 83  1  0
 82 80  2  0
 85 86  1  0
 85 60  1  0
 87 85  1  0
 89 88  1  0
M  ISO  4   4 101   5 101  48 100  57 100
M  END
>  <TORSDO>  (74) 
F 21

>  <SCORE>  (74) 
-13.541

>  <name>  (74) 
73

>  <ligand_id>  (74) 
73

>  <original_smiles>  (74) 
[H]c1c([H])c([H])c2c(c1[H])C([H])([H])C([H])([H])C([H])([H])C2([H])N([H])C(=O)C1([H])N(C(=O)C([H])(N([H])C(=O)C([H])(N([H])C([H])([H])[H])C([H])([H])[H])C(C([H])([H])[H])(C([H])([H])[H])C([H])([H])[H])C([H])([H])c2c([H])c(OC([H])([H])C([H])([H])C([H])(C([H])([H])[H])C([H])([H])C([H])(C(=O)N([H])C(=O)N3C([H])([H])C([H])([H])C([H])([H])C([H])(n4nc(-c5c([H])c([H])c(Oc6c([H])c([H])c(F)c([H])c6F)c([H])c5[H])c(C(=O)N([H])[H])c4N([H])[H])C3([H])[H])C([H])([H])C([H])([H])[H])c([H])c([H])c2C1([H])[H]

>  <smiles>  (74) 
[H]c1c([H])c([H])c2c(c1[H])C([H])([H])C([H])([H])C([H])([H])C2([H])N([H])C(=O)C1([H])N(C(=O)C([H])(N([H])C(=O)C([H])(N([H])C([H])([H])[H])C([H])([H])[H])C(C([H])([H])[H])(C([H])([H])[H])C([H])([H])[H])C([H])([H])c2c([H])c(OC([H])([H])C([H])([H])C([H])(C([H])([H])[H])C([H])([H])C([H])(C(=O)N([H])C(=O)N3C([H])([H])C([H])([H])C([H])([H])C([H])(n4nc(-c5c([H])c([H])c(Oc6c([H])c([H])c(F)c([H])c6F)c([H])c5[H])c(C(=O)N([H])[H])c4N([H])[H])C3([H])[H])C([H])([H])C([H])([H])[H])c([H])c([H])c2C1([H])[H]

$$$$
74:0:0
     RDKit          3D

 91 99  0  0  1  0  0  0  0  0999 V2000
  -28.9780  -21.7850   20.3910 C   0  0  0  0  0  2  0  0  0  0  0  0
  -28.6180  -20.5250   21.2090 C   0  0  0  0  0  2  0  0  0  0  0  0
  -28.3540  -19.3020   20.3240 C   0  0  0  0  0  0  0  0  0  0  0  0
  -27.3030  -19.2050   19.6830 O   0  0  0  0  0  0  0  0  0  0  0  0
  -31.1890  -14.3130   19.8570 C   0  0  0  0  0  0  0  0  0  0  0  0
  -30.8120  -12.0730   18.9200 C   0  0  0  0  0  2  0  0  0  0  0  0
  -29.8410  -12.2020   17.7290 C   0  0  0  0  0  2  0  0  0  0  0  0
  -28.3780  -12.1320   18.2100 C   0  0  0  0  0  2  0  0  0  0  0  0
  -28.0920  -13.0720   19.4140 C   0  0  0  0  0  3  0  0  0  0  0  0
  -29.1790  -12.9350   20.5030 C   0  0  0  0  0  2  0  0  0  0  0  0
  -30.4850  -13.1510   19.8650 N   0  0  0  0  0  0  0  0  0  0  0  0
  -32.3350  -14.3930   19.4000 O   0  0  0  0  0  0  0  0  0  0  0  0
  -29.3320  -17.1890   21.4000 C   0  0  0  0  0  2  0  0  0  0  0  0
  -29.3980  -17.4420   18.9210 C   0  0  0  0  0  2  0  0  0  0  0  0
  -30.4470  -16.1180   21.3030 C   0  0  0  0  0  2  0  0  0  0  0  0
  -30.5190  -16.3940   18.8720 C   0  0  0  0  0  2  0  0  0  0  0  0
  -29.4370  -18.2120   20.2520 C   0  0  0  0  0  3  0  0  0  0  0  0
  -30.4490  -15.4390   19.9960 N   0  0  0  0  0  0  0  0  0  0  0  0
  -25.7590  -13.7820   20.2380 C   0  0  0  0  0  0  0  0  0  0  0  0
  -24.6760  -13.0540   20.6550 C   0  0  0  0  0  0  0  0  0  0  0  0
  -25.0750  -11.6840   20.5980 C   0  0  0  0  0  0  0  0  0  0  0  0
  -26.7520  -12.8550   19.9550 N   0  0  0  0  0  0  0  0  0  0  0  0
  -26.3460  -11.5890   20.2290 N   0  0  0  0  0  0  0  0  0  0  0  0
  -24.3020  -10.4540   20.8200 C   0  0  0  0  0  0  0  0  0  0  0  0
  -24.6640   -9.5250   21.8200 C   0  0  0  0  0  3  0  0  0  0  0  0
  -23.8960   -8.3590   22.0260 C   0  0  0  0  0  3  0  0  0  0  0  0
  -22.7490   -8.1140   21.2330 C   0  0  0  0  0  0  0  0  0  0  0  0
  -22.4060   -9.0320   20.2250 C   0  0  0  0  0  3  0  0  0  0  0  0
  -23.1740  -10.1880   20.0170 C   0  0  0  0  0  3  0  0  0  0  0  0
  -21.9580   -6.9970   21.3460 O   0  0  0  0  0  0  0  0  0  0  0  0
  -21.7450   -6.3860   22.5540 C   0  0  0  0  0  0  0  0  0  0  0  0
  -21.1840   -7.0770   23.6510 C   0  0  0  0  0  3  0  0  0  0  0  0
  -20.9160   -6.3910   24.8520 C   0  0  0  0  0  3  0  0  0  0  0  0
  -21.1980   -5.0170   24.9580 C   0  0  0  0  0  0  0  0  0  0  0  0
  -21.7520   -4.3260   23.8660 C   0  0  0  0  0  3  0  0  0  0  0  0
  -22.0230   -5.0090   22.6670 C   0  0  0  0  0  0  0  0  0  0  0  0
  -22.5360   -4.3330   21.6110 F   0  0  0  0  0  0  0  0  0  0  0  0
  -20.9360   -4.3550   26.1100 F   0  0  0  0  0  0  0  0  0  0  0  0
  -23.3140  -13.5930   20.9900 C   0  0  0  0  0  0  0  0  0  0  0  0
  -22.6040  -12.9410   21.9050 N   0  0  0  0  0  0  0  0  0  0  0  0
  -22.8920  -14.6270   20.4780 O   0  0  0  0  0  0  0  0  0  0  0  0
  -22.9580  -12.1050   22.3460 H   0  0  0  0  0  0  0  0  0  0  0  0
  -21.6950  -13.2920   22.1730 H   0  0  0  0  0  0  0  0  0  0  0  0
  -25.9730  -15.1420   20.0520 N   0  0  0  0  0  0  0  0  0  0  0  0
  -25.2350  -15.8230   20.1970 H   0  0  0  0  0  0  0  0  0  0  0  0
  -26.8190  -15.5480   19.6720 H   0  0  0  0  0  0  0  0  0  0  0  0
  -28.9820  -23.0950   21.2210 C   0  0  0  0  0  2  0  0  0  0  0  0
  -26.6420  -23.9440   20.7270 C   0  0  0  0  0  1  0  0  0  0  0  0
  -28.1550  -24.2460   20.5930 C   0  0  0  0  0  3  0  0  0  0  0  0
  -28.5480  -25.6330   21.1830 C   0  0  0  0  0  2  0  0  0  0  0  0
  -28.4830  -26.7190   20.2510 O   0  0  0  0  0  0  0  0  0  0  0  0
  -24.6060  -31.8590   23.3350 C   0  0  0  0  0  0  0  0  0  0  0  0
  -27.3240  -27.4540   20.2720 C   0  0  0  0  0  0  0  0  0  0  0  0
  -23.4400  -30.4660   21.6560 C   0  0  0  0  0  3  0  0  0  0  0  0
  -24.9280  -28.9450   20.2520 C   0  0  0  0  0  0  0  0  0  0  0  0
  -25.9670  -30.8360   21.5160 C   0  0  0  0  0  2  0  0  0  0  0  0
  -26.0700  -29.4680   20.8740 C   0  0  0  0  0  0  0  0  0  0  0  0
  -27.2730  -28.7240   20.8900 C   0  0  0  0  0  3  0  0  0  0  0  0
  -26.1790  -26.9600   19.6190 C   0  0  0  0  0  3  0  0  0  0  0  0
  -24.9750  -27.6870   19.6270 C   0  0  0  0  0  3  0  0  0  0  0  0
  -23.6810  -29.7980   20.2760 C   0  0  0  0  0  2  0  0  0  0  0  0
  -24.6880  -31.0680   22.2280 N   0  0  0  0  0  0  0  0  0  0  0  0
  -23.5130  -32.1220   23.8550 O   0  0  0  0  0  0  0  0  0  0  0  0
  -22.7730  -29.4340   22.5940 C   0  0  0  0  0  0  0  0  0  0  0  0
  -21.4510  -29.2560   22.4420 N   0  0  0  0  0  0  0  0  0  0  0  0
  -23.4420  -28.8000   23.4140 O   0  0  0  0  0  0  0  0  0  0  0  0
  -20.9730  -29.8230   21.7580 H   0  0  0  0  0  0  0  0  0  0  0  0
  -18.0690  -28.0650   22.8730 C   0  0  0  0  0  0  0  0  0  0  0  0
  -20.6220  -28.3090   23.1870 C   0  0  0  0  0  3  0  0  0  0  0  0
  -20.7300  -26.8850   22.5900 C   0  0  0  0  0  2  0  0  0  0  0  0
  -19.6430  -26.5840   21.5550 C   0  0  0  0  0  2  0  0  0  0  0  0
  -18.2510  -26.7270   22.1790 C   0  0  0  0  0  2  0  0  0  0  0  0
  -19.1830  -28.8160   23.3330 C   0  0  0  0  0  0  0  0  0  0  0  0
  -18.9590  -30.0710   23.9390 C   0  0  0  0  0  3  0  0  0  0  0  0
  -17.6550  -30.5780   24.0890 C   0  0  0  0  0  3  0  0  0  0  0  0
  -16.5550  -29.8230   23.6490 C   0  0  0  0  0  3  0  0  0  0  0  0
  -16.7610  -28.5690   23.0470 C   0  0  0  0  0  3  0  0  0  0  0  0
  -25.8780  -32.4880   23.9840 C   0  0  0  0  0  3  0  0  0  0  0  0
  -25.5770  -33.8960   24.2740 N   0  0  0  0  0  0  0  0  0  0  0  0
  -25.9390  -34.9260   23.5000 C   0  0  0  0  0  0  0  0  0  0  0  0
  -26.6370  -34.7900   22.4910 O   0  0  0  0  0  0  0  0  0  0  0  0
  -24.9690  -34.0770   25.0590 H   0  0  0  0  0  0  0  0  0  0  0  0
  -24.2440  -36.7270   23.0420 C   0  0  0  0  0  1  0  0  0  0  0  0
  -25.4520  -36.3300   23.9070 C   0  0  0  0  0  3  0  0  0  0  0  0
  -27.5650  -37.2120   24.7930 C   0  0  0  0  0  1  0  0  0  0  0  0
  -26.4990  -37.3690   23.8080 N   0  0  0  0  0  0  0  0  0  0  0  0
  -26.0980  -38.2960   23.9200 H   0  0  0  0  0  0  0  0  0  0  0  0
  -26.3460  -31.7380   25.2910 C   0  0  1  0  0  0  0  0  0  0  0  0
  -25.2130  -31.5250   26.3230 C   0  0  0  0  0  1  0  0  0  0  0  0
  -26.9360  -30.3520   24.9430 C   0  0  0  0  0  1  0  0  0  0  0  0
  -27.4740  -32.5390   25.9830 C   0  0  0  0  0  1  0  0  0  0  0  0
  1  2  1  0
  1 47  1  0
  3  2  1  0
  4  3  2  0
  5 11  1  0
  5 18  1  0
  6 11  1  0
  7  8  1  0
  7  6  1  0
  9  8  1  0
  9 22  1  0
  9 10  1  0
 11 10  1  0
 12  5  2  0
 14 17  1  0
 15 13  1  0
 16 14  1  0
 16 18  1  0
 17  3  1  0
 17 13  1  0
 18 15  1  0
 19 20  2  0
 20 39  1  0
 21 20  1  0
 21 24  1  0
 22 23  1  0
 22 19  1  0
 23 21  2  0
 24 25  1  0
 25 26  2  0
 27 30  1  0
 27 26  1  0
 28 27  2  0
 29 28  1  0
 29 24  2  0
 30 31  1  0
 31 36  2  0
 31 32  1  0
 32 33  2  0
 33 34  1  0
 34 38  1  0
 35 34  2  0
 36 35  1  0
 37 36  1  0
 39 40  1  0
 40 43  1  0
 40 42  1  0
 41 39  2  0
 44 45  1  0
 44 19  1  0
 46 44  1  0
 49 48  1  0
 49 50  1  0
 49 47  1  0
 51 53  1  0
 51 50  1  0
 52 63  2  0
 53 58  1  0
 54 62  1  0
 54 64  1  0
 55 61  1  0
 55 57  1  0
 56 62  1  0
 57 58  2  0
 57 56  1  0
 59 60  1  0
 59 53  2  0
 60 55  2  0
 61 54  1  0
 62 52  1  0
 64 66  2  0
 65 64  1  0
 67 65  1  0
 68 77  2  0
 68 73  1  0
 69 65  1  0
 69 73  1  0
 70 69  1  0
 71 72  1  0
 71 70  1  0
 72 68  1  0
 73 74  2  0
 74 75  1  0
 76 75  2  0
 77 76  1  0
 78 52  1  0
 78 79  1  0
 78 88  1  0
 79 82  1  0
 80 84  1  0
 80 79  1  0
 81 80  2  0
 84 83  1  0
 86 84  1  0
 86 87  1  0
 86 85  1  0
 88 91  1  1
 88 89  1  0
 90 88  1  0
M  ISO  4   5 100  18 100  50 101  51 101
M  END
>  <TORSDO>  (75) 
F 21

>  <SCORE>  (75) 
-12.787

>  <name>  (75) 
74

>  <ligand_id>  (75) 
74

>  <original_smiles>  (75) 
[H]c1c([H])c([H])c2c(c1[H])C([H])([H])C([H])([H])C([H])([H])C2([H])N([H])C(=O)C1([H])N(C(=O)C([H])(N([H])C(=O)C([H])(N([H])C([H])([H])[H])C([H])([H])[H])C(C([H])([H])[H])(C([H])([H])[H])C([H])([H])[H])C([H])([H])c2c([H])c(OC([H])([H])C([H])(C([H])([H])[H])C([H])([H])C([H])([H])C([H])([H])C(=O)C3([H])C([H])([H])C([H])([H])N(C(=O)N4C([H])([H])C([H])([H])C([H])([H])C([H])(n5nc(-c6c([H])c([H])c(Oc7c([H])c([H])c(F)c([H])c7F)c([H])c6[H])c(C(=O)N([H])[H])c5N([H])[H])C4([H])[H])C([H])([H])C3([H])[H])c([H])c([H])c2C1([H])[H]

>  <smiles>  (75) 
[H]c1c([H])c([H])c2c(c1[H])C([H])([H])C([H])([H])C([H])([H])C2([H])N([H])C(=O)C1([H])N(C(=O)C([H])(N([H])C(=O)C([H])(N([H])C([H])([H])[H])C([H])([H])[H])C(C([H])([H])[H])(C([H])([H])[H])C([H])([H])[H])C([H])([H])c2c([H])c(OC([H])([H])C([H])(C([H])([H])[H])C([H])([H])C([H])([H])C([H])([H])C(=O)C3([H])C([H])([H])C([H])([H])N(C(=O)N4C([H])([H])C([H])([H])C([H])([H])C([H])(n5nc(-c6c([H])c([H])c(Oc7c([H])c([H])c(F)c([H])c7F)c([H])c6[H])c(C(=O)N([H])[H])c5N([H])[H])C4([H])[H])C([H])([H])C3([H])[H])c([H])c([H])c2C1([H])[H]

$$$$
75:0:0
     RDKit          3D

 94102  0  0  1  0  0  0  0  0999 V2000
  -30.7480  -15.0440   20.4380 C   0  0  0  0  0  0  0  0  0  0  0  0
  -30.4290  -12.7440   19.4570 C   0  0  0  0  0  2  0  0  0  0  0  0
  -29.5120  -12.6960   18.2210 C   0  0  0  0  0  2  0  0  0  0  0  0
  -28.0410  -12.5330   18.6430 C   0  0  0  0  0  2  0  0  0  0  0  0
  -27.6340  -13.4620   19.8190 C   0  0  0  0  0  3  0  0  0  0  0  0
  -28.7040  -13.5160   20.9370 C   0  0  0  0  0  2  0  0  0  0  0  0
  -29.9750  -13.8930   20.2870 N   0  0  0  0  0  0  0  0  0  0  0  0
  -31.9620  -14.8570   20.4560 O   0  0  0  0  0  0  0  0  0  0  0  0
  -29.9030  -19.1030   18.6680 C   0  0  0  0  0  2  0  0  0  0  0  0
  -30.1140  -17.6810   20.8240 C   0  0  0  0  0  2  0  0  0  0  0  0
  -30.7950  -16.6910   18.6200 C   0  0  0  0  0  3  0  0  0  0  0  0
  -29.7900  -17.7120   18.0020 C   0  0  0  0  0  3  0  0  0  0  0  0
  -29.4420  -19.0610   20.1310 C   0  0  0  0  0  3  0  0  0  0  0  0
  -29.8040  -17.8240   16.4660 C   0  0  0  0  0  1  0  0  0  0  0  0
  -30.3160  -16.3380   20.0090 N   0  0  0  0  0  0  0  0  0  0  0  0
  -25.2320  -14.0270   20.4970 C   0  0  0  0  0  0  0  0  0  0  0  0
  -24.1610  -13.2550   20.8380 C   0  0  0  0  0  0  0  0  0  0  0  0
  -24.6280  -11.9010   20.8420 C   0  0  0  0  0  0  0  0  0  0  0  0
  -26.2900  -13.1530   20.3030 N   0  0  0  0  0  0  0  0  0  0  0  0
  -25.9320  -11.8700   20.5780 N   0  0  0  0  0  0  0  0  0  0  0  0
  -23.8940  -10.6410   21.0230 C   0  0  0  0  0  0  0  0  0  0  0  0
  -24.3020   -9.6780   21.9710 C   0  0  0  0  0  3  0  0  0  0  0  0
  -23.5660   -8.4860   22.1460 C   0  0  0  0  0  3  0  0  0  0  0  0
  -22.4090   -8.2470   21.3690 C   0  0  0  0  0  0  0  0  0  0  0  0
  -22.0180   -9.1980   20.4110 C   0  0  0  0  0  3  0  0  0  0  0  0
  -22.7530  -10.3790   20.2360 C   0  0  0  0  0  3  0  0  0  0  0  0
  -21.6470   -7.1050   21.4520 O   0  0  0  0  0  0  0  0  0  0  0  0
  -21.5770   -6.3680   22.6080 C   0  0  0  0  0  0  0  0  0  0  0  0
  -21.1370   -6.9300   23.8260 C   0  0  0  0  0  3  0  0  0  0  0  0
  -21.0160   -6.1200   24.9730 C   0  0  0  0  0  3  0  0  0  0  0  0
  -21.3250   -4.7480   24.9030 C   0  0  0  0  0  0  0  0  0  0  0  0
  -21.7600   -4.1850   23.6910 C   0  0  0  0  0  3  0  0  0  0  0  0
  -21.8820   -4.9930   22.5450 C   0  0  0  0  0  0  0  0  0  0  0  0
  -22.2800   -4.4390   21.3740 F   0  0  0  0  0  0  0  0  0  0  0  0
  -21.2010   -3.9690   26.0030 F   0  0  0  0  0  0  0  0  0  0  0  0
  -22.7530  -13.7280   21.0560 C   0  0  0  0  0  0  0  0  0  0  0  0
  -22.0050  -13.0520   21.9170 N   0  0  0  0  0  0  0  0  0  0  0  0
  -22.3240  -14.7380   20.4920 O   0  0  0  0  0  0  0  0  0  0  0  0
  -22.3640  -12.2360   22.3890 H   0  0  0  0  0  0  0  0  0  0  0  0
  -21.0620  -13.3550   22.1100 H   0  0  0  0  0  0  0  0  0  0  0  0
  -25.4000  -15.3980   20.3120 N   0  0  0  0  0  0  0  0  0  0  0  0
  -24.6430  -16.0600   20.4380 H   0  0  0  0  0  0  0  0  0  0  0  0
  -26.2780  -15.8330   20.0540 H   0  0  0  0  0  0  0  0  0  0  0  0
  -32.3190  -17.0310   18.3610 C   0  0  0  0  0  0  0  0  0  0  0  0
  -33.3000  -17.3230   19.4970 C   0  0  0  0  0  1  0  0  0  0  0  0
  -32.8100  -17.0250   17.1880 N   0  0  0  0  0  0  0  0  0  0  0  0
  -32.1500  -16.7990   16.4510 H   0  0  0  0  0  0  0  0  0  0  0  0
  -29.5380  -20.5080   20.7840 N   0  0  0  0  0  4  0  0  0  0  0  0
  -30.5220  -20.6950   20.8860 H   0  0  0  0  0  0  0  0  0  0  0  0
  -29.1680  -20.4270   21.7180 H   0  0  0  0  0  0  0  0  0  0  0  0
  -28.8650  -21.8040   20.1530 C   0  0  0  0  0  2  0  0  0  0  0  0
  -28.9930  -23.3700   20.7770 C   0  0  0  0  0  3  0  0  0  0  0  0
  -28.1680  -24.7350   20.1890 C   0  0  0  0  0  3  0  0  0  0  0  0
  -28.3190  -26.2500   20.5580 O   0  0  0  0  0  0  0  0  0  0  0  0
  -24.6350  -32.0240   23.3170 C   0  0  0  0  0  0  0  0  0  0  0  0
  -27.2650  -27.2370   20.4200 C   0  0  0  0  0  0  0  0  0  0  0  0
  -23.4680  -30.6090   21.6700 C   0  0  0  0  0  3  0  0  0  0  0  0
  -24.9440  -29.0050   20.2950 C   0  0  0  0  0  0  0  0  0  0  0  0
  -26.0260  -30.8520   21.5650 C   0  0  0  0  0  2  0  0  0  0  0  0
  -26.1090  -29.4470   20.9370 C   0  0  0  0  0  0  0  0  0  0  0  0
  -27.2640  -28.5760   20.9910 C   0  0  0  0  0  3  0  0  0  0  0  0
  -26.0800  -26.9020   19.7290 C   0  0  0  0  0  3  0  0  0  0  0  0
  -24.9450  -27.7470   19.6740 C   0  0  0  0  0  3  0  0  0  0  0  0
  -23.7150  -29.9090   20.3060 C   0  0  0  0  0  2  0  0  0  0  0  0
  -24.7300  -31.1880   22.2370 N   0  0  0  0  0  0  0  0  0  0  0  0
  -23.5400  -32.3180   23.8170 O   0  0  0  0  0  0  0  0  0  0  0  0
  -22.7610  -29.6210   22.6320 C   0  0  0  0  0  0  0  0  0  0  0  0
  -21.4350  -29.4610   22.4870 N   0  0  0  0  0  0  0  0  0  0  0  0
  -23.4110  -28.9940   23.4710 O   0  0  0  0  0  0  0  0  0  0  0  0
  -20.9680  -30.0160   21.7850 H   0  0  0  0  0  0  0  0  0  0  0  0
  -18.0290  -28.3180   22.9660 C   0  0  0  0  0  0  0  0  0  0  0  0
  -20.5890  -28.5410   23.2510 C   0  0  0  0  0  3  0  0  0  0  0  0
  -20.6760  -27.1080   22.6820 C   0  0  0  0  0  2  0  0  0  0  0  0
  -19.5780  -26.8040   21.6580 C   0  0  0  0  0  2  0  0  0  0  0  0
  -18.1920  -26.9670   22.2920 C   0  0  0  0  0  2  0  0  0  0  0  0
  -19.1570  -29.0670   23.3990 C   0  0  0  0  0  0  0  0  0  0  0  0
  -18.9530  -30.3330   23.9900 C   0  0  0  0  0  3  0  0  0  0  0  0
  -17.6510  -30.8490   24.1520 C   0  0  0  0  0  3  0  0  0  0  0  0
  -16.5380  -30.1010   23.7310 C   0  0  0  0  0  3  0  0  0  0  0  0
  -16.7290  -28.8380   23.1410 C   0  0  0  0  0  3  0  0  0  0  0  0
  -25.8990  -32.6640   23.9630 C   0  0  0  0  0  3  0  0  0  0  0  0
  -26.3720  -31.9160   25.2710 C   0  0  1  0  0  0  0  0  0  0  0  0
  -25.2440  -31.6940   26.3080 C   0  0  0  0  0  1  0  0  0  0  0  0
  -26.9720  -30.5330   24.9280 C   0  0  0  0  0  1  0  0  0  0  0  0
  -27.5040  -32.7210   25.9550 C   0  0  0  0  0  1  0  0  0  0  0  0
  -25.5860  -34.0720   24.2650 N   0  0  0  0  0  0  0  0  0  0  0  0
  -25.9290  -35.1120   23.4940 C   0  0  0  0  0  0  0  0  0  0  0  0
  -26.6070  -34.9870   22.4690 O   0  0  0  0  0  0  0  0  0  0  0  0
  -24.9800  -34.2370   25.0550 H   0  0  0  0  0  0  0  0  0  0  0  0
  -24.1910  -36.8990   23.1250 C   0  0  0  0  0  1  0  0  0  0  0  0
  -25.4450  -36.5120   23.9260 C   0  0  0  0  0  3  0  0  0  0  0  0
  -27.5890  -37.4230   24.7040 C   0  0  0  0  0  1  0  0  0  0  0  0
  -26.4750  -37.5650   23.7730 N   0  0  0  0  0  0  0  0  0  0  0  0
  -26.0730  -38.4890   23.9040 H   0  0  0  0  0  0  0  0  0  0  0  0
  1  8  2  0
  2  7  1  0
  3  4  1  0
  3  2  1  0
  5  4  1  0
  5 19  1  0
  5  6  1  0
  7  1  1  0
  7  6  1  0
  9 13  1  0
 11 44  1  0
 11 15  1  0
 12 14  1  0
 12 11  1  0
 12  9  1  0
 13 48  1  0
 13 10  1  0
 15  1  1  0
 15 10  1  0
 16 17  2  0
 17 18  1  0
 17 36  1  0
 18 21  1  0
 19 16  1  0
 19 20  1  0
 20 18  2  0
 21 22  1  0
 22 23  2  0
 24 27  1  0
 24 23  1  0
 25 24  2  0
 26 25  1  0
 26 21  2  0
 27 28  1  0
 28 29  1  0
 29 30  2  0
 31 30  1  0
 31 35  1  0
 32 31  2  0
 33 28  2  0
 33 32  1  0
 34 33  1  0
 36 37  1  0
 37 40  1  0
 37 39  1  0
 38 36  2  0
 41 42  1  0
 41 16  1  0
 43 41  1  0
 44 45  1  0
 46 44  2  0
 47 46  1  0
 48 49  1  0
 48 50  1  0
 51 52  1  0
 51 48  1  0
 53 54  1  0
 53 52  2  0
 55 66  2  0
 56 54  1  0
 56 61  1  0
 57 65  1  0
 57 67  1  0
 58 64  1  0
 58 60  1  0
 59 65  1  0
 60 61  2  0
 60 59  1  0
 62 56  2  0
 63 62  1  0
 63 58  2  0
 64 57  1  0
 65 55  1  0
 67 69  2  0
 68 67  1  0
 70 68  1  0
 71 80  2  0
 71 76  1  0
 72 68  1  0
 72 76  1  0
 73 72  1  0
 74 75  1  0
 74 73  1  0
 75 71  1  0
 76 77  2  0
 77 78  1  0
 79 78  2  0
 80 79  1  0
 81 55  1  0
 81 86  1  0
 81 82  1  0
 82 85  1  1
 82 83  1  0
 84 82  1  0
 86 89  1  0
 87 91  1  0
 87 86  1  0
 88 87  2  0
 91 90  1  0
 93 94  1  0
 93 91  1  0
 93 92  1  0
M  ISO  4   1 100  15 100  53 101  54 101
M  END
>  <TORSDO>  (76) 
F 20

>  <SCORE>  (76) 
-13.865

>  <name>  (76) 
75

>  <ligand_id>  (76) 
75

>  <original_smiles>  (76) 
[H]N=C(C([H])([H])[H])C1([H])N(C(=O)N2C([H])([H])C([H])([H])C([H])([H])C([H])(n3nc(-c4c([H])c([H])c(Oc5c([H])c([H])c(F)c([H])c5F)c([H])c4[H])c(C(=O)N([H])[H])c3N([H])[H])C2([H])[H])C([H])([H])C([H])([N+]([H])([H])C([H])([H])C([H])([H])C([H])([H])Oc2c([H])c([H])c3c(c2[H])C([H])([H])N(C(=O)C([H])(N([H])C(=O)C([H])(N([H])C([H])([H])[H])C([H])([H])[H])C(C([H])([H])[H])(C([H])([H])[H])C([H])([H])[H])C([H])(C(=O)N([H])C2([H])c4c([H])c([H])c([H])c([H])c4C([H])([H])C([H])([H])C2([H])[H])C3([H])[H])C([H])([H])C1([H])C([H])([H])[H]

>  <smiles>  (76) 
[H]N=C(C([H])([H])[H])C1([H])N(C(=O)N2C([H])([H])C([H])([H])C([H])([H])C([H])(n3nc(-c4c([H])c([H])c(Oc5c([H])c([H])c(F)c([H])c5F)c([H])c4[H])c(C(=O)N([H])[H])c3N([H])[H])C2([H])[H])C([H])([H])C([H])([N+]([H])([H])C([H])([H])C([H])([H])C([H])([H])Oc2c([H])c([H])c3c(c2[H])C([H])([H])N(C(=O)C([H])(N([H])C(=O)C([H])(N([H])C([H])([H])[H])C([H])([H])[H])C(C([H])([H])[H])(C([H])([H])[H])C([H])([H])[H])C([H])(C(=O)N([H])C2([H])c4c([H])c([H])c([H])c([H])c4C([H])([H])C([H])([H])C2([H])[H])C3([H])[H])C([H])([H])C1([H])C([H])([H])[H]

$$$$
76:0:0
     RDKit          3D

 93101  0  0  1  0  0  0  0  0999 V2000
  -29.6010  -17.6040   19.9920 C   0  0  0  0  0  3  0  0  0  0  0  0
  -29.8940  -12.6500   22.1220 C   0  0  0  0  0  3  0  0  0  0  0  0
  -30.5180  -14.1150   22.5910 C   0  0  0  0  0  3  0  0  0  0  0  0
  -28.8650  -12.5620   20.7950 C   0  0  0  0  0  2  0  0  0  0  0  0
  -30.2200  -15.5960   21.8960 C   0  0  0  0  0  3  0  0  0  0  0  0
  -28.5420  -14.5320   19.7250 C   0  0  0  0  0  2  0  0  0  0  0  0
  -29.3170  -15.9450   20.5080 C   0  0  0  0  0  0  0  0  0  0  0  0
  -31.1180  -17.8570   20.3020 C   0  0  0  0  0  0  0  0  0  0  0  0
  -31.4410  -18.7880   21.0450 O   0  0  0  0  0  0  0  0  0  0  0  0
  -32.2560  -16.9310   19.7630 C   0  0  0  0  0  2  0  0  0  0  0  0
  -31.7070  -14.6180   19.2450 C   0  0  0  0  0  0  0  0  0  0  0  0
  -30.7020  -12.7770   17.9180 C   0  0  0  0  0  2  0  0  0  0  0  0
  -29.1710  -12.4230   16.9230 C   0  0  0  0  0  2  0  0  0  0  0  0
  -27.4250  -12.5350   17.4570 C   0  0  0  0  0  2  0  0  0  0  0  0
  -26.8100  -13.4360   18.9190 C   0  0  0  0  0  3  0  0  0  0  0  0
  -27.8810  -14.0760   20.3190 C   0  0  0  0  0  3  0  0  0  0  0  0
  -30.6570  -13.7730   19.4710 N   0  0  0  0  0  2  0  0  0  0  0  0
  -32.2060  -14.7460   18.1530 O   0  0  0  0  0  0  0  0  0  0  0  0
  -32.1340  -15.4990   20.1600 N   0  0  0  0  0  0  0  0  0  0  0  0
  -31.7540  -15.3400   21.0840 H   0  0  0  0  0  0  0  0  0  0  0  0
  -24.8380  -13.8610   20.0470 C   0  0  0  0  0  0  0  0  0  0  0  0
  -23.9250  -13.0550   20.5970 C   0  0  0  0  0  0  0  0  0  0  0  0
  -24.4390  -11.7200   20.5110 C   0  0  0  0  0  0  0  0  0  0  0  0
  -25.7480  -12.9740   19.5780 N   0  0  0  0  0  0  0  0  0  0  0  0
  -25.6320  -11.6940   19.9520 N   0  0  0  0  0  0  0  0  0  0  0  0
  -23.7990  -10.4570   20.8090 C   0  0  0  0  0  0  0  0  0  0  0  0
  -24.3420   -9.5430   21.7340 C   0  0  0  0  0  3  0  0  0  0  0  0
  -23.6540   -8.3480   22.0160 C   0  0  0  0  0  3  0  0  0  0  0  0
  -22.4240   -8.0730   21.3700 C   0  0  0  0  0  0  0  0  0  0  0  0
  -21.9160   -8.9750   20.4210 C   0  0  0  0  0  3  0  0  0  0  0  0
  -22.6030  -10.1600   20.1350 C   0  0  0  0  0  3  0  0  0  0  0  0
  -21.6860   -6.9370   21.5720 O   0  0  0  0  0  0  0  0  0  0  0  0
  -21.6950   -6.2870   22.7770 C   0  0  0  0  0  0  0  0  0  0  0  0
  -21.3440   -6.9370   23.9800 C   0  0  0  0  0  3  0  0  0  0  0  0
  -21.3010   -6.2060   25.1840 C   0  0  0  0  0  3  0  0  0  0  0  0
  -21.6000   -4.8300   25.1840 C   0  0  0  0  0  0  0  0  0  0  0  0
  -21.9470   -4.1830   23.9840 C   0  0  0  0  0  3  0  0  0  0  0  0
  -21.9920   -4.9110   22.7830 C   0  0  0  0  0  0  0  0  0  0  0  0
  -22.3070   -4.2830   21.6250 F   0  0  0  0  0  0  0  0  0  0  0  0
  -21.5480   -4.1250   26.3370 F   0  0  0  0  0  0  0  0  0  0  0  0
  -22.5950  -13.5350   21.0260 C   0  0  0  0  0  0  0  0  0  0  0  0
  -22.0160  -12.8820   22.0170 N   0  0  0  0  0  0  0  0  0  0  0  0
  -22.0980  -14.5370   20.5110 O   0  0  0  0  0  0  0  0  0  0  0  0
  -22.4570  -12.0780   22.4410 H   0  0  0  0  0  0  0  0  0  0  0  0
  -21.1170  -13.1870   22.3650 H   0  0  0  0  0  0  0  0  0  0  0  0
  -24.9420  -15.2460   19.8510 N   0  0  0  0  0  0  0  0  0  0  0  0
  -24.2080  -15.8850   20.1310 H   0  0  0  0  0  0  0  0  0  0  0  0
  -25.7040  -15.7030   19.3640 H   0  0  0  0  0  0  0  0  0  0  0  0
  -28.7500  -19.2020   20.2090 C   0  0  0  0  0  2  0  0  0  0  0  0
  -29.2640  -20.9470   20.3670 C   0  0  0  0  0  2  0  0  0  0  0  0
  -28.6800  -22.5790   19.8150 C   0  0  0  0  0  2  0  0  0  0  0  0
  -28.4940  -24.2250   20.5650 C   0  0  0  0  0  2  0  0  0  0  0  0
  -28.5920  -25.8260   20.1380 O   0  0  0  0  0  0  0  0  0  0  0  0
  -24.8140  -31.6910   23.1490 C   0  0  0  0  0  0  0  0  0  0  0  0
  -27.5470  -26.8920   20.1560 C   0  0  0  0  0  0  0  0  0  0  0  0
  -23.6950  -30.2730   21.4800 C   0  0  0  0  0  3  0  0  0  0  0  0
  -25.2100  -28.7180   20.0790 C   0  0  0  0  0  0  0  0  0  0  0  0
  -26.2570  -30.5560   21.3830 C   0  0  0  0  0  2  0  0  0  0  0  0
  -26.3780  -29.1500   20.7210 C   0  0  0  0  0  0  0  0  0  0  0  0
  -27.5460  -28.2600   20.7270 C   0  0  0  0  0  3  0  0  0  0  0  0
  -26.3460  -26.6100   19.4750 C   0  0  0  0  0  3  0  0  0  0  0  0
  -25.2190  -27.4700   19.4350 C   0  0  0  0  0  3  0  0  0  0  0  0
  -23.9690  -29.6070   20.1040 C   0  0  0  0  0  2  0  0  0  0  0  0
  -24.9430  -30.8680   22.0570 N   0  0  0  0  0  0  0  0  0  0  0  0
  -23.7060  -31.9420   23.6500 O   0  0  0  0  0  0  0  0  0  0  0  0
  -23.0130  -29.2490   22.4240 C   0  0  0  0  0  0  0  0  0  0  0  0
  -21.6930  -29.0390   22.2670 N   0  0  0  0  0  0  0  0  0  0  0  0
  -23.6800  -28.6430   23.2670 O   0  0  0  0  0  0  0  0  0  0  0  0
  -21.2070  -29.5780   21.5640 H   0  0  0  0  0  0  0  0  0  0  0  0
  -18.3440  -27.7090   22.6900 C   0  0  0  0  0  0  0  0  0  0  0  0
  -20.8850  -28.0690   23.0150 C   0  0  0  0  0  3  0  0  0  0  0  0
  -21.0530  -26.6430   22.4380 C   0  0  0  0  0  2  0  0  0  0  0  0
  -19.9880  -26.2840   21.3970 C   0  0  0  0  0  2  0  0  0  0  0  0
  -18.5870  -26.3720   22.0090 C   0  0  0  0  0  2  0  0  0  0  0  0
  -19.4220  -28.5120   23.1470 C   0  0  0  0  0  0  0  0  0  0  0  0
  -19.1380  -29.7590   23.7460 C   0  0  0  0  0  3  0  0  0  0  0  0
  -17.8110  -30.2040   23.8900 C   0  0  0  0  0  3  0  0  0  0  0  0
  -16.7480  -29.4000   23.4460 C   0  0  0  0  0  3  0  0  0  0  0  0
  -17.0150  -28.1530   22.8510 C   0  0  0  0  0  3  0  0  0  0  0  0
  -26.0520  -32.3680   23.8120 C   0  0  0  0  0  3  0  0  0  0  0  0
  -25.6810  -33.7530   24.1540 N   0  0  0  0  0  0  0  0  0  0  0  0
  -25.9870  -34.8340   23.4230 C   0  0  0  0  0  0  0  0  0  0  0  0
  -26.6730  -34.7710   22.3990 O   0  0  0  0  0  0  0  0  0  0  0  0
  -25.0700  -33.8710   24.9490 H   0  0  0  0  0  0  0  0  0  0  0  0
  -24.1980  -36.5760   23.0940 C   0  0  0  0  0  1  0  0  0  0  0  0
  -25.4510  -36.1990   23.9000 C   0  0  0  0  0  3  0  0  0  0  0  0
  -27.5490  -37.1520   24.7530 C   0  0  0  0  0  1  0  0  0  0  0  0
  -26.4460  -37.2900   23.8050 N   0  0  0  0  0  0  0  0  0  0  0  0
  -26.0070  -38.1940   23.9590 H   0  0  0  0  0  0  0  0  0  0  0  0
  -26.5540  -31.6090   25.1020 C   0  0  1  0  0  0  0  0  0  0  0  0
  -25.4410  -31.3350   26.1390 C   0  0  0  0  0  1  0  0  0  0  0  0
  -27.1910  -30.2500   24.7310 C   0  0  0  0  0  1  0  0  0  0  0  0
  -27.6630  -32.4350   25.7960 C   0  0  0  0  0  1  0  0  0  0  0  0
  1 49  1  0
  1  8  1  0
  1  7  1  0
  2  3  2  0
  4  2  1  0
  5  3  1  0
  6  7  1  0
  7  5  2  0
  8  9  2  0
 10 19  1  0
 10  8  1  0
 11 17  1  0
 11 19  1  0
 12 17  1  0
 13 14  1  0
 13 12  1  0
 15 14  1  0
 15 24  1  0
 15 16  1  0
 16  6  1  0
 16  4  1  0
 18 11  2  0
 19 20  1  0
 21 22  2  0
 22 41  1  0
 23 22  1  0
 23 26  1  0
 24 25  1  0
 24 21  1  0
 25 23  2  0
 26 27  1  0
 27 28  2  0
 29 32  1  0
 29 28  1  0
 30 29  2  0
 31 30  1  0
 31 26  2  0
 32 33  1  0
 33 38  2  0
 33 34  1  0
 34 35  2  0
 35 36  1  0
 36 40  1  0
 37 36  2  0
 38 37  1  0
 39 38  1  0
 41 42  1  0
 42 45  1  0
 42 44  1  0
 43 41  2  0
 46 21  1  0
 46 47  1  0
 48 46  1  0
 49 50  1  0
 51 50  1  0
 51 52  1  0
 53 55  1  0
 53 52  1  0
 54 65  2  0
 55 60  1  0
 56 64  1  0
 56 66  1  0
 57 63  1  0
 57 59  1  0
 58 64  1  0
 59 60  2  0
 59 58  1  0
 61 55  2  0
 62 61  1  0
 62 57  2  0
 63 56  1  0
 64 54  1  0
 66 68  2  0
 67 66  1  0
 69 67  1  0
 70 79  2  0
 70 75  1  0
 71 67  1  0
 71 75  1  0
 72 71  1  0
 73 74  1  0
 73 72  1  0
 74 70  1  0
 75 76  2  0
 76 77  1  0
 78 77  2  0
 79 78  1  0
 80 54  1  0
 80 81  1  0
 80 90  1  0
 81 84  1  0
 82 86  1  0
 82 81  1  0
 83 82  2  0
 86 85  1  0
 88 86  1  0
 88 89  1  0
 88 87  1  0
 90 93  1  1
 90 91  1  0
 92 90  1  0
M  ISO  4  11 100  19 100  52 101  53 101
M  END
>  <TORSDO>  (77) 
F 23

>  <SCORE>  (77) 
-9.835

>  <name>  (77) 
76

>  <ligand_id>  (77) 
76

>  <original_smiles>  (77) 
[H]c1c([H])c([H])c(C([H])(C(=O)C([H])([H])N([H])C(=O)N2C([H])([H])C([H])([H])C([H])([H])C([H])(n3nc(-c4c([H])c([H])c(Oc5c([H])c([H])c(F)c([H])c5F)c([H])c4[H])c(C(=O)N([H])[H])c3N([H])[H])C2([H])[H])C([H])([H])C([H])([H])C([H])([H])C([H])([H])Oc2c([H])c([H])c3c(c2[H])C([H])([H])N(C(=O)C([H])(N([H])C(=O)C([H])(N([H])C([H])([H])[H])C([H])([H])[H])C(C([H])([H])[H])(C([H])([H])[H])C([H])([H])[H])C([H])(C(=O)N([H])C2([H])c4c([H])c([H])c([H])c([H])c4C([H])([H])C([H])([H])C2([H])[H])C3([H])[H])c([H])c1[H]

>  <smiles>  (77) 
[H]c1c([H])c([H])c(C([H])(C(=O)C([H])([H])N([H])C(=O)N2C([H])([H])C([H])([H])C([H])([H])C([H])(n3nc(-c4c([H])c([H])c(Oc5c([H])c([H])c(F)c([H])c5F)c([H])c4[H])c(C(=O)N([H])[H])c3N([H])[H])C2([H])[H])C([H])([H])C([H])([H])C([H])([H])C([H])([H])Oc2c([H])c([H])c3c(c2[H])C([H])([H])N(C(=O)C([H])(N([H])C(=O)C([H])(N([H])C([H])([H])[H])C([H])([H])[H])C(C([H])([H])[H])(C([H])([H])[H])C([H])([H])[H])C([H])(C(=O)N([H])C2([H])c4c([H])c([H])c([H])c([H])c4C([H])([H])C([H])([H])C2([H])[H])C3([H])[H])c([H])c1[H]

$$$$
77:0:0
     RDKit          3D

 98106  0  0  1  0  0  0  0  0999 V2000
  -30.5510  -23.0090   20.0830 C   0  0  0  0  0  2  0  0  0  0  0  0
  -31.4900  -21.8060   20.2050 C   0  0  0  0  0  2  0  0  0  0  0  0
  -31.3170  -24.3410   20.2240 C   0  0  0  0  0  3  0  0  0  0  0  0
  -32.6030  -24.3840   19.3150 C   0  0  0  0  0  3  0  0  0  0  0  0
  -33.4290  -23.0410   19.3090 C   0  0  0  0  0  3  0  0  0  0  0  0
  -32.4900  -21.8780   19.1220 N   0  0  1  0  0  4  0  0  0  0  0  0
  -31.9670  -22.1410   18.3020 H   0  0  0  0  0  0  0  0  0  0  0  0
  -34.6200  -25.9760   18.6870 C   0  0  0  0  0  1  0  0  0  0  0  0
  -33.4490  -25.6610   19.6330 C   0  0  0  0  0  2  0  0  0  0  0  0
  -35.3650  -21.7430   20.5650 C   0  0  0  0  0  1  0  0  0  0  0  0
  -34.3940  -22.9350   20.5350 C   0  0  0  0  0  2  0  0  0  0  0  0
  -30.4130  -25.5840   19.9670 C   0  0  0  0  0  2  0  0  0  0  0  0
  -28.8890  -25.5630   20.2640 C   0  0  0  0  0  2  0  0  0  0  0  0
  -28.5650  -26.9350   20.0910 O   0  0  0  0  0  0  0  0  0  0  0  0
  -24.6260  -31.8980   23.2200 C   0  0  0  0  0  0  0  0  0  0  0  0
  -27.3000  -27.4680   20.1830 C   0  0  0  0  0  0  0  0  0  0  0  0
  -23.4100  -30.4700   21.6000 C   0  0  0  0  0  3  0  0  0  0  0  0
  -24.8620  -28.9010   20.2020 C   0  0  0  0  0  0  0  0  0  0  0  0
  -25.9230  -30.8480   21.3720 C   0  0  0  0  0  2  0  0  0  0  0  0
  -26.0120  -29.4660   20.7630 C   0  0  0  0  0  0  0  0  0  0  0  0
  -27.2280  -28.7600   20.7380 C   0  0  0  0  0  3  0  0  0  0  0  0
  -26.1320  -26.8830   19.6430 C   0  0  0  0  0  3  0  0  0  0  0  0
  -24.9150  -27.6070   19.6440 C   0  0  0  0  0  3  0  0  0  0  0  0
  -23.6100  -29.7510   20.2350 C   0  0  0  0  0  2  0  0  0  0  0  0
  -24.6700  -31.0890   22.1230 N   0  0  0  0  0  0  0  0  0  0  0  0
  -23.5490  -32.1730   23.7670 O   0  0  0  0  0  0  0  0  0  0  0  0
  -22.7650  -29.4680   22.5840 C   0  0  0  0  0  0  0  0  0  0  0  0
  -21.4430  -29.2800   22.4600 N   0  0  0  0  0  0  0  0  0  0  0  0
  -23.4550  -28.8580   23.4060 O   0  0  0  0  0  0  0  0  0  0  0  0
  -20.9500  -29.8250   21.7660 H   0  0  0  0  0  0  0  0  0  0  0  0
  -18.0750  -28.0740   22.9670 C   0  0  0  0  0  0  0  0  0  0  0  0
  -20.6310  -28.3500   23.2440 C   0  0  0  0  0  3  0  0  0  0  0  0
  -20.7440  -26.9120   22.6910 C   0  0  0  0  0  2  0  0  0  0  0  0
  -19.6500  -26.5660   21.6770 C   0  0  0  0  0  2  0  0  0  0  0  0
  -18.2630  -26.7140   22.3120 C   0  0  0  0  0  2  0  0  0  0  0  0
  -19.1890  -28.8480   23.3880 C   0  0  0  0  0  0  0  0  0  0  0  0
  -18.9630  -30.1210   23.9570 C   0  0  0  0  0  3  0  0  0  0  0  0
  -17.6550  -30.6190   24.1090 C   0  0  0  0  0  3  0  0  0  0  0  0
  -16.5560  -29.8420   23.7050 C   0  0  0  0  0  3  0  0  0  0  0  0
  -16.7680  -28.5710   23.1400 C   0  0  0  0  0  3  0  0  0  0  0  0
  -25.9150  -32.5360   23.8280 C   0  0  0  0  0  3  0  0  0  0  0  0
  -26.4600  -31.7640   25.0940 C   0  0  1  0  0  0  0  0  0  0  0  0
  -25.3900  -31.5300   26.1860 C   0  0  0  0  0  1  0  0  0  0  0  0
  -27.0300  -30.3850   24.6860 C   0  0  0  0  0  1  0  0  0  0  0  0
  -27.6240  -32.5580   25.7330 C   0  0  0  0  0  1  0  0  0  0  0  0
  -25.6030  -33.9310   24.1640 N   0  0  0  0  0  0  0  0  0  0  0  0
  -25.9240  -34.9880   23.4050 C   0  0  0  0  0  0  0  0  0  0  0  0
  -26.5840  -34.8930   22.3670 O   0  0  0  0  0  0  0  0  0  0  0  0
  -25.0110  -34.0780   24.9680 H   0  0  0  0  0  0  0  0  0  0  0  0
  -24.1750  -36.7660   23.0780 C   0  0  0  0  0  1  0  0  0  0  0  0
  -25.4300  -36.3710   23.8730 C   0  0  0  0  0  3  0  0  0  0  0  0
  -27.5740  -37.2620   24.6690 C   0  0  0  0  0  1  0  0  0  0  0  0
  -26.4510  -37.4340   23.7520 N   0  0  0  0  0  0  0  0  0  0  0  0
  -26.0400  -38.3480   23.9240 H   0  0  0  0  0  0  0  0  0  0  0  0
  -33.0680  -20.5560   18.7310 C   0  0  0  0  0  2  0  0  0  0  0  0
  -33.1100  -18.8470   16.8520 C   0  0  0  0  0  1  0  0  0  0  0  0
  -32.1970  -19.7360   17.7210 C   0  0  0  0  0  3  0  0  0  0  0  0
  -30.9630  -18.9150   18.2520 C   0  0  0  0  0  2  0  0  0  0  0  0
  -31.1490  -17.8070   19.3450 C   0  0  0  0  0  2  0  0  0  0  0  0
  -29.8740  -16.8890   19.4480 C   0  0  0  0  0  2  0  0  0  0  0  0
  -30.6120  -14.6010   20.2790 C   0  0  0  0  0  0  0  0  0  0  0  0
  -30.3130  -12.3710   19.3030 C   0  0  0  0  0  2  0  0  0  0  0  0
  -29.3740  -12.5380   18.0880 C   0  0  0  0  0  2  0  0  0  0  0  0
  -27.9030  -12.3990   18.5250 C   0  0  0  0  0  2  0  0  0  0  0  0
  -27.5560  -13.2650   19.7660 C   0  0  0  0  0  3  0  0  0  0  0  0
  -28.6270  -13.1290   20.8780 C   0  0  0  0  0  2  0  0  0  0  0  0
  -29.9470  -13.4070   20.2840 N   0  0  0  0  0  0  0  0  0  0  0  0
  -31.7840  -14.7070   19.9290 O   0  0  0  0  0  0  0  0  0  0  0  0
  -29.8270  -15.6990   20.3470 N   0  0  0  0  0  0  0  0  0  0  0  0
  -28.9010  -15.4900   20.6890 H   0  0  0  0  0  0  0  0  0  0  0  0
  -25.1580  -13.8530   20.4780 C   0  0  0  0  0  0  0  0  0  0  0  0
  -24.0950  -13.0800   20.8560 C   0  0  0  0  0  0  0  0  0  0  0  0
  -24.5640  -11.7280   20.8390 C   0  0  0  0  0  0  0  0  0  0  0  0
  -26.2080  -12.9790   20.2550 N   0  0  0  0  0  0  0  0  0  0  0  0
  -25.8550  -11.6960   20.5330 N   0  0  0  0  0  0  0  0  0  0  0  0
  -23.8430  -10.4650   21.0390 C   0  0  0  0  0  0  0  0  0  0  0  0
  -24.2930   -9.4990   21.9680 C   0  0  0  0  0  3  0  0  0  0  0  0
  -23.5730   -8.2980   22.1550 C   0  0  0  0  0  3  0  0  0  0  0  0
  -22.3910   -8.0560   21.4160 C   0  0  0  0  0  0  0  0  0  0  0  0
  -21.9620   -9.0090   20.4760 C   0  0  0  0  0  3  0  0  0  0  0  0
  -22.6830  -10.2000   20.2840 C   0  0  0  0  0  3  0  0  0  0  0  0
  -21.6420   -6.9070   21.5160 O   0  0  0  0  0  0  0  0  0  0  0  0
  -21.6220   -6.1560   22.6640 C   0  0  0  0  0  0  0  0  0  0  0  0
  -21.2410   -6.7060   23.9080 C   0  0  0  0  0  3  0  0  0  0  0  0
  -21.1700   -5.8820   25.0490 C   0  0  0  0  0  3  0  0  0  0  0  0
  -21.4690   -4.5090   24.9470 C   0  0  0  0  0  0  0  0  0  0  0  0
  -21.8430   -3.9590   23.7090 C   0  0  0  0  0  3  0  0  0  0  0  0
  -21.9170   -4.7810   22.5720 C   0  0  0  0  0  0  0  0  0  0  0  0
  -22.2550   -4.2420   21.3770 F   0  0  0  0  0  0  0  0  0  0  0  0
  -21.3920   -3.7150   26.0410 F   0  0  0  0  0  0  0  0  0  0  0  0
  -22.6950  -13.5480   21.1290 C   0  0  0  0  0  0  0  0  0  0  0  0
  -21.9730  -12.8480   21.9990 N   0  0  0  0  0  0  0  0  0  0  0  0
  -22.2500  -14.5680   20.6040 O   0  0  0  0  0  0  0  0  0  0  0  0
  -22.3480  -12.0200   22.4360 H   0  0  0  0  0  0  0  0  0  0  0  0
  -21.0360  -13.1410   22.2320 H   0  0  0  0  0  0  0  0  0  0  0  0
  -25.3220  -15.2230   20.2840 N   0  0  0  0  0  0  0  0  0  0  0  0
  -24.5540  -15.8830   20.3420 H   0  0  0  0  0  0  0  0  0  0  0  0
  -26.1790  -15.6460   19.9510 H   0  0  0  0  0  0  0  0  0  0  0  0
  1  2  1  0
  1  3  1  0
  3 12  1  0
  4  9  1  0
  4  3  1  0
  5  4  1  0
  5 11  1  0
  6  5  1  0
  6  2  1  0
  6  7  1  6
  8  9  1  0
 11 10  1  0
 12 13  1  0
 14 16  1  0
 14 13  1  0
 15 26  2  0
 16 21  1  0
 17 25  1  0
 17 27  1  0
 18 24  1  0
 18 20  1  0
 19 25  1  0
 20 19  1  0
 21 20  2  0
 22 23  1  0
 22 16  2  0
 23 18  2  0
 24 17  1  0
 25 15  1  0
 27 29  2  0
 28 27  1  0
 30 28  1  0
 31 40  2  0
 31 36  1  0
 32 28  1  0
 32 36  1  0
 33 32  1  0
 34 35  1  0
 34 33  1  0
 35 31  1  0
 36 37  2  0
 37 38  1  0
 39 38  2  0
 40 39  1  0
 41 15  1  0
 41 46  1  0
 41 42  1  0
 42 45  1  1
 42 43  1  0
 44 42  1  0
 46 49  1  0
 47 51  1  0
 47 46  1  0
 48 47  2  0
 51 50  1  0
 53 51  1  0
 53 54  1  0
 53 52  1  0
 55  6  1  0
 57 56  1  0
 57 58  1  0
 57 55  1  0
 58 59  1  0
 59 60  1  0
 60 69  1  0
 61 67  1  0
 61 69  1  0
 62 67  1  0
 63 64  1  0
 63 62  1  0
 65 64  1  0
 65 74  1  0
 65 66  1  0
 67 66  1  0
 68 61  2  0
 69 70  1  0
 71 72  2  0
 72 91  1  0
 73 72  1  0
 73 76  1  0
 74 71  1  0
 74 75  1  0
 75 73  2  0
 76 77  1  0
 77 78  2  0
 79 82  1  0
 79 78  1  0
 80 79  2  0
 81 80  1  0
 81 76  2  0
 82 83  1  0
 83 84  1  0
 84 85  2  0
 86 85  1  0
 86 90  1  0
 87 86  2  0
 88 83  2  0
 88 87  1  0
 89 88  1  0
 91 92  1  0
 92 95  1  0
 92 94  1  0
 93 91  2  0
 96 97  1  0
 96 71  1  0
 98 96  1  0
M  ISO  4  13 101  14 101  61 100  69 100
M  END
>  <TORSDO>  (78) 
F 25

>  <SCORE>  (78) 
-11.878

>  <name>  (78) 
77

>  <ligand_id>  (78) 
77

>  <original_smiles>  (78) 
[H]c1c([H])c([H])c2c(c1[H])C([H])([H])C([H])([H])C([H])([H])C2([H])N([H])C(=O)C1([H])N(C(=O)C([H])(N([H])C(=O)C([H])(N([H])C([H])([H])[H])C([H])([H])[H])C(C([H])([H])[H])(C([H])([H])[H])C([H])([H])[H])C([H])([H])c2c([H])c(OC([H])([H])C([H])([H])C3([H])C([H])([H])C([H])([H])[N+]([H])(C([H])([H])C([H])(C([H])([H])[H])C([H])([H])C([H])([H])C([H])([H])N([H])C(=O)N4C([H])([H])C([H])([H])C([H])([H])C([H])(n5nc(-c6c([H])c([H])c(Oc7c([H])c([H])c(F)c([H])c7F)c([H])c6[H])c(C(=O)N([H])[H])c5N([H])[H])C4([H])[H])C([H])(C([H])([H])C([H])([H])[H])C3([H])C([H])([H])C([H])([H])[H])c([H])c([H])c2C1([H])[H]

>  <smiles>  (78) 
[H]c1c([H])c([H])c2c(c1[H])C([H])([H])C([H])([H])C([H])([H])C2([H])N([H])C(=O)C1([H])N(C(=O)C([H])(N([H])C(=O)C([H])(N([H])C([H])([H])[H])C([H])([H])[H])C(C([H])([H])[H])(C([H])([H])[H])C([H])([H])[H])C([H])([H])c2c([H])c(OC([H])([H])C([H])([H])C3([H])C([H])([H])C([H])([H])[N+]([H])(C([H])([H])C([H])(C([H])([H])[H])C([H])([H])C([H])([H])C([H])([H])N([H])C(=O)N4C([H])([H])C([H])([H])C([H])([H])C([H])(n5nc(-c6c([H])c([H])c(Oc7c([H])c([H])c(F)c([H])c7F)c([H])c6[H])c(C(=O)N([H])[H])c5N([H])[H])C4([H])[H])C([H])(C([H])([H])C([H])([H])[H])C3([H])C([H])([H])C([H])([H])[H])c([H])c([H])c2C1([H])[H]

$$$$
79:0:0
     RDKit          3D

 99107  0  0  1  0  0  0  0  0999 V2000
  -29.9720  -21.4090   19.3340 C   0  0  0  0  0  2  0  0  0  0  0  0
  -29.5800  -20.6310   18.0740 C   0  0  0  0  0  2  0  0  0  0  0  0
  -27.5300  -21.8890   19.7660 C   0  0  0  0  0  2  0  0  0  0  0  0
  -28.9370  -22.5050   19.6270 C   0  0  0  0  0  3  0  0  0  0  0  0
  -27.1430  -21.0420   18.5260 C   0  0  0  0  0  3  0  0  0  0  0  0
  -28.1960  -19.9290   18.1880 C   0  0  1  0  0  0  0  0  0  0  0  0
  -25.6970  -20.5220   18.6300 C   0  0  0  0  0  1  0  0  0  0  0  0
  -27.7790  -20.1610   15.5840 C   0  0  0  0  0  1  0  0  0  0  0  0
  -27.8780  -19.2490   16.8200 C   0  0  0  0  0  2  0  0  0  0  0  0
  -28.1870  -18.8280   19.3090 C   0  0  0  0  0  2  0  0  0  0  0  0
  -29.4020  -17.8910   19.3980 C   0  0  0  0  0  0  0  0  0  0  0  0
  -30.2510  -18.1170   20.4100 N   0  0  0  0  0  0  0  0  0  0  0  0
  -29.5810  -16.9920   18.5730 O   0  0  0  0  0  0  0  0  0  0  0  0
  -30.0210  -18.8660   21.0520 H   0  0  0  0  0  0  0  0  0  0  0  0
  -31.5520  -17.4890   20.5930 C   0  0  0  0  0  2  0  0  0  0  0  0
  -31.5140  -16.3310   21.6120 C   0  0  0  0  0  2  0  0  0  0  0  0
  -30.8680  -14.5140   20.0210 C   0  0  0  0  0  0  0  0  0  0  0  0
  -30.4730  -12.3000   19.0200 C   0  0  0  0  0  2  0  0  0  0  0  0
  -29.4740  -12.3180   17.8530 C   0  0  0  0  0  2  0  0  0  0  0  0
  -28.0330  -12.1870   18.3730 C   0  0  0  0  0  2  0  0  0  0  0  0
  -27.7200  -13.2000   19.5030 C   0  0  0  0  0  3  0  0  0  0  0  0
  -28.8160  -13.1740   20.5920 C   0  0  0  0  0  2  0  0  0  0  0  0
  -30.1310  -13.3810   19.9550 N   0  0  0  0  0  0  0  0  0  0  0  0
  -31.7480  -14.8070   19.2060 O   0  0  0  0  0  0  0  0  0  0  0  0
  -30.7100  -15.1970   21.1620 N   0  0  0  0  0  0  0  0  0  0  0  0
  -30.0080  -14.8520   21.7970 H   0  0  0  0  0  0  0  0  0  0  0  0
  -25.4020  -13.8740   20.4020 C   0  0  0  0  0  0  0  0  0  0  0  0
  -24.3320  -13.1300   20.8260 C   0  0  0  0  0  0  0  0  0  0  0  0
  -24.7370  -11.7640   20.7210 C   0  0  0  0  0  0  0  0  0  0  0  0
  -26.3930  -12.9640   20.0720 N   0  0  0  0  0  0  0  0  0  0  0  0
  -25.9980  -11.6880   20.3150 N   0  0  0  0  0  0  0  0  0  0  0  0
  -23.9780  -10.5230   20.9290 C   0  0  0  0  0  0  0  0  0  0  0  0
  -24.4070   -9.5410   21.8490 C   0  0  0  0  0  3  0  0  0  0  0  0
  -23.6500   -8.3660   22.0450 C   0  0  0  0  0  3  0  0  0  0  0  0
  -22.4530   -8.1620   21.3190 C   0  0  0  0  0  0  0  0  0  0  0  0
  -22.0430   -9.1330   20.3880 C   0  0  0  0  0  3  0  0  0  0  0  0
  -22.8000  -10.3010   20.1910 C   0  0  0  0  0  3  0  0  0  0  0  0
  -21.6680   -7.0400   21.4240 O   0  0  0  0  0  0  0  0  0  0  0  0
  -21.5960   -6.3170   22.5890 C   0  0  0  0  0  0  0  0  0  0  0  0
  -21.1670   -6.9000   23.8010 C   0  0  0  0  0  3  0  0  0  0  0  0
  -21.0410   -6.1050   24.9580 C   0  0  0  0  0  3  0  0  0  0  0  0
  -21.3350   -4.7290   24.9040 C   0  0  0  0  0  0  0  0  0  0  0  0
  -21.7570   -4.1460   23.6960 C   0  0  0  0  0  3  0  0  0  0  0  0
  -21.8850   -4.9390   22.5410 C   0  0  0  0  0  0  0  0  0  0  0  0
  -22.2720   -4.3680   21.3750 F   0  0  0  0  0  0  0  0  0  0  0  0
  -21.2070   -3.9640   26.0130 F   0  0  0  0  0  0  0  0  0  0  0  0
  -22.9790  -13.6500   21.2180 C   0  0  0  0  0  0  0  0  0  0  0  0
  -22.2940  -12.9560   22.1220 N   0  0  0  0  0  0  0  0  0  0  0  0
  -22.5410  -14.7030   20.7590 O   0  0  0  0  0  0  0  0  0  0  0  0
  -22.6610  -12.1030   22.5150 H   0  0  0  0  0  0  0  0  0  0  0  0
  -21.3890  -13.2870   22.4240 H   0  0  0  0  0  0  0  0  0  0  0  0
  -25.6090  -15.2410   20.2580 N   0  0  0  0  0  0  0  0  0  0  0  0
  -24.8960  -15.9290   20.4710 H   0  0  0  0  0  0  0  0  0  0  0  0
  -26.4940  -15.6560   19.9850 H   0  0  0  0  0  0  0  0  0  0  0  0
  -29.3520  -23.3280   20.8630 C   0  0  0  0  0  2  0  0  0  0  0  0
  -29.3130  -25.4720   22.1710 C   0  0  0  0  0  1  0  0  0  0  0  0
  -28.6250  -24.6790   21.0440 C   0  0  0  0  0  3  0  0  0  0  0  0
  -28.5630  -25.4770   19.7170 C   0  0  0  0  0  2  0  0  0  0  0  0
  -28.4510  -26.8760   19.9720 O   0  0  0  0  0  0  0  0  0  0  0  0
  -24.5100  -31.8150   23.1560 C   0  0  0  0  0  0  0  0  0  0  0  0
  -27.2250  -27.5020   19.9820 C   0  0  0  0  0  0  0  0  0  0  0  0
  -23.3290  -30.4600   21.4560 C   0  0  0  0  0  3  0  0  0  0  0  0
  -24.8090  -28.9690   20.0090 C   0  0  0  0  0  0  0  0  0  0  0  0
  -25.8520  -30.8430   21.2970 C   0  0  0  0  0  2  0  0  0  0  0  0
  -25.9510  -29.4900   20.6250 C   0  0  0  0  0  0  0  0  0  0  0  0
  -27.1580  -28.7630   20.6100 C   0  0  0  0  0  3  0  0  0  0  0  0
  -26.0640  -26.9860   19.3560 C   0  0  0  0  0  3  0  0  0  0  0  0
  -24.8570  -27.7150   19.3740 C   0  0  0  0  0  3  0  0  0  0  0  0
  -23.5630  -29.8230   20.0590 C   0  0  0  0  0  2  0  0  0  0  0  0
  -24.5810  -31.0520   22.0300 N   0  0  0  0  0  0  0  0  0  0  0  0
  -23.4210  -32.0670   23.6910 O   0  0  0  0  0  0  0  0  0  0  0  0
  -22.6720  -29.4070   22.3750 C   0  0  0  0  0  0  0  0  0  0  0  0
  -21.3450  -29.2500   22.2450 N   0  0  0  0  0  0  0  0  0  0  0  0
  -23.3500  -28.7360   23.1570 O   0  0  0  0  0  0  0  0  0  0  0  0
  -20.8610  -29.8380   21.5830 H   0  0  0  0  0  0  0  0  0  0  0  0
  -17.9450  -28.1570   22.7770 C   0  0  0  0  0  0  0  0  0  0  0  0
  -20.5170  -28.2930   22.9780 C   0  0  0  0  0  3  0  0  0  0  0  0
  -20.5420  -26.9040   22.3000 C   0  0  0  0  0  2  0  0  0  0  0  0
  -19.3960  -26.6980   21.3040 C   0  0  0  0  0  2  0  0  0  0  0  0
  -18.0440  -26.8520   22.0060 C   0  0  0  0  0  2  0  0  0  0  0  0
  -19.1070  -28.8410   23.2210 C   0  0  0  0  0  0  0  0  0  0  0  0
  -18.9620  -30.0670   23.9050 C   0  0  0  0  0  3  0  0  0  0  0  0
  -17.6860  -30.6080   24.1500 C   0  0  0  0  0  3  0  0  0  0  0  0
  -16.5370  -29.9190   23.7210 C   0  0  0  0  0  3  0  0  0  0  0  0
  -16.6680  -28.6960   23.0400 C   0  0  0  0  0  3  0  0  0  0  0  0
  -25.7870  -32.4250   23.8140 C   0  0  0  0  0  3  0  0  0  0  0  0
  -26.2660  -31.6370   25.0950 C   0  0  1  0  0  0  0  0  0  0  0  0
  -25.1410  -31.3830   26.1230 C   0  0  0  0  0  1  0  0  0  0  0  0
  -26.8650  -30.2700   24.6930 C   0  0  0  0  0  1  0  0  0  0  0  0
  -27.3960  -32.4230   25.8030 C   0  0  0  0  0  1  0  0  0  0  0  0
  -25.4860  -33.8230   24.1470 N   0  0  0  0  0  0  0  0  0  0  0  0
  -25.8570  -34.8770   23.4050 C   0  0  0  0  0  0  0  0  0  0  0  0
  -26.5590  -34.7730   22.3960 O   0  0  0  0  0  0  0  0  0  0  0  0
  -24.8660  -33.9800   24.9270 H   0  0  0  0  0  0  0  0  0  0  0  0
  -24.1610  -36.6890   23.0100 C   0  0  0  0  0  1  0  0  0  0  0  0
  -25.3710  -36.2670   23.8580 C   0  0  0  0  0  3  0  0  0  0  0  0
  -27.4900  -37.1190   24.7610 C   0  0  0  0  0  1  0  0  0  0  0  0
  -26.4200  -37.3070   23.7830 N   0  0  0  0  0  0  0  0  0  0  0  0
  -26.0220  -38.2320   23.9250 H   0  0  0  0  0  0  0  0  0  0  0  0
  1  4  1  0
  2  6  1  0
  2  1  1  0
  4  3  1  0
  4 55  1  0
  5  7  1  0
  5  3  1  0
  6  9  1  6
  6  5  1  0
  6 10  1  0
  8  9  1  0
 10 11  1  0
 11 12  1  0
 12 15  1  0
 12 14  1  0
 13 11  2  0
 15 16  1  0
 17 25  1  0
 18 23  1  0
 19 20  1  0
 19 18  1  0
 21 20  1  0
 21 30  1  0
 21 22  1  0
 23 17  1  0
 23 22  1  0
 24 17  2  0
 25 16  1  0
 25 26  1  0
 27 28  2  0
 28 47  1  0
 29 28  1  0
 29 32  1  0
 30 31  1  0
 30 27  1  0
 31 29  2  0
 32 33  1  0
 33 34  2  0
 35 38  1  0
 35 34  1  0
 36 35  2  0
 37 36  1  0
 37 32  2  0
 38 39  1  0
 39 40  1  0
 40 41  2  0
 42 41  1  0
 42 46  1  0
 43 42  2  0
 44 39  2  0
 44 43  1  0
 45 44  1  0
 47 48  1  0
 48 51  1  0
 48 50  1  0
 49 47  2  0
 52 27  1  0
 52 53  1  0
 54 52  1  0
 55 57  1  0
 57 56  1  0
 58 59  1  0
 58 57  1  0
 59 61  1  0
 60 71  2  0
 61 66  1  0
 62 70  1  0
 62 72  1  0
 63 69  1  0
 63 65  1  0
 64 70  1  0
 65 64  1  0
 66 65  2  0
 67 68  1  0
 67 61  2  0
 68 63  2  0
 69 62  1  0
 70 60  1  0
 72 74  2  0
 73 72  1  0
 75 73  1  0
 76 85  2  0
 76 81  1  0
 77 73  1  0
 77 81  1  0
 78 77  1  0
 79 80  1  0
 79 78  1  0
 80 76  1  0
 81 82  2  0
 82 83  1  0
 84 83  2  0
 85 84  1  0
 86 60  1  0
 86 91  1  0
 86 87  1  0
 87 90  1  1
 87 88  1  0
 89 87  1  0
 91 94  1  0
 92 96  1  0
 92 91  1  0
 93 92  2  0
 96 95  1  0
 98 96  1  0
 98 99  1  0
 98 97  1  0
M  ISO  4  17 100  25 100  58 101  59 101
M  END
>  <TORSDO>  (79) 
F 24

>  <SCORE>  (79) 
-11.421

>  <name>  (79) 
79

>  <ligand_id>  (79) 
79

>  <original_smiles>  (79) 
[H]c1c([H])c([H])c2c(c1[H])C([H])([H])C([H])([H])C([H])([H])C2([H])N([H])C(=O)C1([H])N(C(=O)C([H])(N([H])C(=O)C([H])(N([H])C([H])([H])[H])C([H])([H])[H])C(C([H])([H])[H])(C([H])([H])[H])C([H])([H])[H])C([H])([H])c2c([H])c(OC([H])([H])C([H])(C([H])([H])[H])C([H])([H])C3([H])C([H])([H])C([H])([H])C(C([H])([H])C(=O)N([H])C([H])([H])C([H])([H])N([H])C(=O)N4C([H])([H])C([H])([H])C([H])([H])C([H])(n5nc(-c6c([H])c([H])c(Oc7c([H])c([H])c(F)c([H])c7F)c([H])c6[H])c(C(=O)N([H])[H])c5N([H])[H])C4([H])[H])(C([H])([H])C([H])([H])[H])C([H])(C([H])([H])[H])C3([H])[H])c([H])c([H])c2C1([H])[H]

>  <smiles>  (79) 
[H]c1c([H])c([H])c2c(c1[H])C([H])([H])C([H])([H])C([H])([H])C2([H])N([H])C(=O)C1([H])N(C(=O)C([H])(N([H])C(=O)C([H])(N([H])C([H])([H])[H])C([H])([H])[H])C(C([H])([H])[H])(C([H])([H])[H])C([H])([H])[H])C([H])([H])c2c([H])c(OC([H])([H])C([H])(C([H])([H])[H])C([H])([H])C3([H])C([H])([H])C([H])([H])C(C([H])([H])C(=O)N([H])C([H])([H])C([H])([H])N([H])C(=O)N4C([H])([H])C([H])([H])C([H])([H])C([H])(n5nc(-c6c([H])c([H])c(Oc7c([H])c([H])c(F)c([H])c7F)c([H])c6[H])c(C(=O)N([H])[H])c5N([H])[H])C4([H])[H])(C([H])([H])C([H])([H])[H])C([H])(C([H])([H])[H])C3([H])[H])c([H])c([H])c2C1([H])[H]

$$$$
80:0:0
     RDKit          3D

 94102  0  0  1  0  0  0  0  0999 V2000
  -28.7750  -18.6870   21.0650 C   0  0  0  0  0  2  0  0  0  0  0  0
  -28.4110  -20.1100   20.5840 C   0  0  0  0  0  2  0  0  0  0  0  0
  -30.7780  -20.0800   19.7740 C   0  0  0  0  0  2  0  0  0  0  0  0
  -29.5560  -17.8530   20.0110 C   0  0  0  0  0  3  0  0  0  0  0  0
  -30.3440  -18.7960   19.0340 C   0  0  0  0  0  3  0  0  0  0  0  0
  -31.4960  -18.1530   18.2260 C   0  0  0  0  0  1  0  0  0  0  0  0
  -29.5880  -20.9080   20.1220 N   0  0  2  0  0  4  0  0  0  0  0  0
  -29.2950  -21.3130   19.2440 H   0  0  0  0  0  0  0  0  0  0  0  0
  -30.7260  -14.4490   20.4540 C   0  0  0  0  0  0  0  0  0  0  0  0
  -30.3730  -12.3100   19.3140 C   0  0  0  0  0  2  0  0  0  0  0  0
  -29.4520  -12.5480   18.1020 C   0  0  0  0  0  2  0  0  0  0  0  0
  -27.9730  -12.4330   18.5120 C   0  0  0  0  0  2  0  0  0  0  0  0
  -27.6260  -13.2650   19.7750 C   0  0  0  0  0  3  0  0  0  0  0  0
  -28.6680  -13.0450   20.8920 C   0  0  0  0  0  2  0  0  0  0  0  0
  -30.0050  -13.3030   20.3290 N   0  0  0  0  0  0  0  0  0  0  0  0
  -31.9040  -14.5300   20.0970 O   0  0  0  0  0  0  0  0  0  0  0  0
  -30.4420  -16.8070   20.7200 C   0  0  0  0  0  0  0  0  0  0  0  0
  -29.9890  -15.5400   20.7270 N   0  0  0  0  0  0  0  0  0  0  0  0
  -31.5230  -17.1570   21.2040 O   0  0  0  0  0  0  0  0  0  0  0  0
  -28.9960  -15.4070   20.7140 H   0  0  0  0  0  0  0  0  0  0  0  0
  -25.2150  -13.8780   20.4360 C   0  0  0  0  0  0  0  0  0  0  0  0
  -24.1420  -13.1110   20.7970 C   0  0  0  0  0  0  0  0  0  0  0  0
  -24.6030  -11.7580   20.7940 C   0  0  0  0  0  0  0  0  0  0  0  0
  -26.2630  -12.9940   20.2340 N   0  0  0  0  0  0  0  0  0  0  0  0
  -25.8990  -11.7160   20.5100 N   0  0  0  0  0  0  0  0  0  0  0  0
  -23.8740  -10.5000   20.9910 C   0  0  0  0  0  0  0  0  0  0  0  0
  -24.2980   -9.5420   21.9380 C   0  0  0  0  0  3  0  0  0  0  0  0
  -23.5710   -8.3470   22.1240 C   0  0  0  0  0  3  0  0  0  0  0  0
  -22.4030   -8.1010   21.3640 C   0  0  0  0  0  0  0  0  0  0  0  0
  -21.9960   -9.0470   20.4070 C   0  0  0  0  0  3  0  0  0  0  0  0
  -22.7250  -10.2340   20.2200 C   0  0  0  0  0  3  0  0  0  0  0  0
  -21.6480   -6.9580   21.4570 O   0  0  0  0  0  0  0  0  0  0  0  0
  -21.5950   -6.2210   22.6130 C   0  0  0  0  0  0  0  0  0  0  0  0
  -21.1750   -6.7860   23.8380 C   0  0  0  0  0  3  0  0  0  0  0  0
  -21.0680   -5.9780   24.9870 C   0  0  0  0  0  3  0  0  0  0  0  0
  -21.3740   -4.6060   24.9150 C   0  0  0  0  0  0  0  0  0  0  0  0
  -21.7870   -4.0400   23.6970 C   0  0  0  0  0  3  0  0  0  0  0  0
  -21.8970   -4.8460   22.5490 C   0  0  0  0  0  0  0  0  0  0  0  0
  -22.2750   -4.2900   21.3740 F   0  0  0  0  0  0  0  0  0  0  0  0
  -21.2650   -3.8270   26.0170 F   0  0  0  0  0  0  0  0  0  0  0  0
  -22.7390  -13.5900   21.0370 C   0  0  0  0  0  0  0  0  0  0  0  0
  -21.9960  -12.9120   21.9020 N   0  0  0  0  0  0  0  0  0  0  0  0
  -22.3100  -14.6070   20.4920 O   0  0  0  0  0  0  0  0  0  0  0  0
  -22.3540  -12.0920   22.3690 H   0  0  0  0  0  0  0  0  0  0  0  0
  -21.0540  -13.2170   22.1020 H   0  0  0  0  0  0  0  0  0  0  0  0
  -25.3850  -15.2460   20.2460 N   0  0  0  0  0  0  0  0  0  0  0  0
  -24.6170  -15.9000   20.3300 H   0  0  0  0  0  0  0  0  0  0  0  0
  -26.2370  -15.6780   19.9120 H   0  0  0  0  0  0  0  0  0  0  0  0
  -29.9190  -22.0960   20.9570 C   0  0  0  0  0  2  0  0  0  0  0  0
  -28.8190  -23.1860   20.9120 C   0  0  0  0  0  2  0  0  0  0  0  0
  -30.0460  -24.6550   22.5970 C   0  0  0  0  0  1  0  0  0  0  0  0
  -29.3060  -24.6190   21.2460 C   0  0  0  0  0  3  0  0  0  0  0  0
  -28.1380  -25.6380   21.2140 C   0  0  0  0  0  2  0  0  0  0  0  0
  -28.3210  -26.6800   20.2450 O   0  0  0  0  0  0  0  0  0  0  0  0
  -24.5760  -31.8920   23.2370 C   0  0  0  0  0  0  0  0  0  0  0  0
  -27.1980  -27.4640   20.1630 C   0  0  0  0  0  0  0  0  0  0  0  0
  -23.3630  -30.4930   21.5960 C   0  0  0  0  0  3  0  0  0  0  0  0
  -24.8110  -28.9590   20.1610 C   0  0  0  0  0  0  0  0  0  0  0  0
  -25.8870  -30.8580   21.3890 C   0  0  0  0  0  2  0  0  0  0  0  0
  -25.9690  -29.4900   20.7460 C   0  0  0  0  0  0  0  0  0  0  0  0
  -27.1730  -28.7510   20.7410 C   0  0  0  0  0  3  0  0  0  0  0  0
  -26.0320  -26.9490   19.5580 C   0  0  0  0  0  3  0  0  0  0  0  0
  -24.8360  -27.6880   19.5600 C   0  0  0  0  0  3  0  0  0  0  0  0
  -23.5640  -29.8110   20.2150 C   0  0  0  0  0  2  0  0  0  0  0  0
  -24.6270  -31.0940   22.1320 N   0  0  0  0  0  0  0  0  0  0  0  0
  -23.4950  -32.1660   23.7790 O   0  0  0  0  0  0  0  0  0  0  0  0
  -22.7180  -29.4720   22.5620 C   0  0  0  0  0  0  0  0  0  0  0  0
  -21.3920  -29.2930   22.4380 N   0  0  0  0  0  0  0  0  0  0  0  0
  -23.4060  -28.8420   23.3720 O   0  0  0  0  0  0  0  0  0  0  0  0
  -20.9000  -29.8530   21.7560 H   0  0  0  0  0  0  0  0  0  0  0  0
  -18.0160  -28.1110   22.9530 C   0  0  0  0  0  0  0  0  0  0  0  0
  -20.5760  -28.3560   23.2110 C   0  0  0  0  0  3  0  0  0  0  0  0
  -20.6670  -26.9260   22.6310 C   0  0  0  0  0  2  0  0  0  0  0  0
  -19.5580  -26.6130   21.6210 C   0  0  0  0  0  2  0  0  0  0  0  0
  -18.1820  -26.7640   22.2740 C   0  0  0  0  0  2  0  0  0  0  0  0
  -19.1400  -28.8690   23.3790 C   0  0  0  0  0  0  0  0  0  0  0  0
  -18.9320  -30.1320   23.9730 C   0  0  0  0  0  3  0  0  0  0  0  0
  -17.6310  -30.6400   24.1450 C   0  0  0  0  0  3  0  0  0  0  0  0
  -16.5210  -29.8830   23.7330 C   0  0  0  0  0  3  0  0  0  0  0  0
  -16.7150  -28.6200   23.1450 C   0  0  0  0  0  3  0  0  0  0  0  0
  -25.8670  -32.5200   23.8500 C   0  0  0  0  0  3  0  0  0  0  0  0
  -26.3920  -31.7430   25.1190 C   0  0  1  0  0  0  0  0  0  0  0  0
  -25.3060  -31.5030   26.1940 C   0  0  0  0  0  1  0  0  0  0  0  0
  -26.9680  -30.3640   24.7140 C   0  0  0  0  0  1  0  0  0  0  0  0
  -27.5490  -32.5320   25.7780 C   0  0  0  0  0  1  0  0  0  0  0  0
  -25.5590  -33.9170   24.1830 N   0  0  0  0  0  0  0  0  0  0  0  0
  -25.8900  -34.9700   23.4240 C   0  0  0  0  0  0  0  0  0  0  0  0
  -26.5590  -34.8680   22.3920 O   0  0  0  0  0  0  0  0  0  0  0  0
  -24.9680  -34.0730   24.9870 H   0  0  0  0  0  0  0  0  0  0  0  0
  -24.1640  -36.7650   23.0700 C   0  0  0  0  0  1  0  0  0  0  0  0
  -25.4040  -36.3580   23.8840 C   0  0  0  0  0  3  0  0  0  0  0  0
  -27.5410  -37.2380   24.7140 C   0  0  0  0  0  1  0  0  0  0  0  0
  -26.4380  -37.4090   23.7730 N   0  0  0  0  0  0  0  0  0  0  0  0
  -26.0340  -38.3300   23.9200 H   0  0  0  0  0  0  0  0  0  0  0  0
  2  1  1  0
  3  7  1  0
  4 17  1  0
  4  1  1  0
  5  6  1  0
  5  3  1  0
  5  4  1  0
  7  2  1  0
  7 49  1  0
  7  8  1  6
  9 18  1  0
 10 15  1  0
 11 12  1  0
 11 10  1  0
 13 12  1  0
 13 24  1  0
 13 14  1  0
 15  9  1  0
 15 14  1  0
 16  9  2  0
 17 18  1  0
 17 19  2  0
 20 18  1  0
 21 22  2  0
 22 41  1  0
 23 22  1  0
 23 26  1  0
 24 21  1  0
 24 25  1  0
 25 23  2  0
 26 27  1  0
 27 28  2  0
 29 32  1  0
 29 28  1  0
 30 29  2  0
 31 30  1  0
 31 26  2  0
 32 33  1  0
 33 34  1  0
 34 35  2  0
 36 35  1  0
 36 40  1  0
 37 36  2  0
 38 33  2  0
 38 37  1  0
 39 38  1  0
 41 42  1  0
 42 45  1  0
 42 44  1  0
 43 41  2  0
 46 47  1  0
 46 21  1  0
 48 46  1  0
 50 49  1  0
 50 52  1  0
 52 51  1  0
 53 52  1  0
 54 53  1  0
 55 66  2  0
 56 54  1  0
 56 61  1  0
 57 65  1  0
 57 67  1  0
 58 64  1  0
 58 60  1  0
 59 65  1  0
 60 59  1  0
 61 60  2  0
 62 63  1  0
 62 56  2  0
 63 58  2  0
 64 57  1  0
 65 55  1  0
 67 69  2  0
 68 67  1  0
 70 68  1  0
 71 80  2  0
 71 76  1  0
 72 68  1  0
 72 76  1  0
 73 72  1  0
 74 75  1  0
 74 73  1  0
 75 71  1  0
 76 77  2  0
 77 78  1  0
 79 78  2  0
 80 79  1  0
 81 55  1  0
 81 86  1  0
 81 82  1  0
 82 85  1  1
 82 83  1  0
 84 82  1  0
 86 89  1  0
 87 91  1  0
 87 86  1  0
 88 87  2  0
 91 90  1  0
 93 91  1  0
 93 94  1  0
 93 92  1  0
M  ISO  4   9 100  18 100  53 101  54 101
M  END
>  <TORSDO>  (80) 
F 20

>  <SCORE>  (80) 
-13.561

>  <name>  (80) 
80

>  <ligand_id>  (80) 
80

>  <original_smiles>  (80) 
[H]c1c([H])c([H])c2c(c1[H])C([H])([H])C([H])([H])C([H])([H])C2([H])N([H])C(=O)C1([H])N(C(=O)C([H])(N([H])C(=O)C([H])(N([H])C([H])([H])[H])C([H])([H])[H])C(C([H])([H])[H])(C([H])([H])[H])C([H])([H])[H])C([H])([H])c2c([H])c(OC([H])([H])C([H])(C([H])([H])[H])C([H])([H])C([H])([H])[N+]3([H])C([H])([H])C([H])([H])C([H])(C(=O)N([H])C(=O)N4C([H])([H])C([H])([H])C([H])([H])C([H])(n5nc(-c6c([H])c([H])c(Oc7c([H])c([H])c(F)c([H])c7F)c([H])c6[H])c(C(=O)N([H])[H])c5N([H])[H])C4([H])[H])C([H])(C([H])([H])[H])C3([H])[H])c([H])c([H])c2C1([H])[H]

>  <smiles>  (80) 
[H]c1c([H])c([H])c2c(c1[H])C([H])([H])C([H])([H])C([H])([H])C2([H])N([H])C(=O)C1([H])N(C(=O)C([H])(N([H])C(=O)C([H])(N([H])C([H])([H])[H])C([H])([H])[H])C(C([H])([H])[H])(C([H])([H])[H])C([H])([H])[H])C([H])([H])c2c([H])c(OC([H])([H])C([H])(C([H])([H])[H])C([H])([H])C([H])([H])[N+]3([H])C([H])([H])C([H])([H])C([H])(C(=O)N([H])C(=O)N4C([H])([H])C([H])([H])C([H])([H])C([H])(n5nc(-c6c([H])c([H])c(Oc7c([H])c([H])c(F)c([H])c7F)c([H])c6[H])c(C(=O)N([H])[H])c5N([H])[H])C4([H])[H])C([H])(C([H])([H])[H])C3([H])[H])c([H])c([H])c2C1([H])[H]

$$$$
81:0:0
     RDKit          3D

 99107  0  0  1  0  0  0  0  0999 V2000
  -28.0280  -19.7310   18.5910 C   0  0  0  0  0  2  0  0  0  0  0  0
  -28.6640  -18.6560   19.4890 C   0  0  0  0  0  3  0  0  0  0  0  0
  -30.2150  -18.6410   19.3440 C   0  0  0  0  0  3  0  0  0  0  0  0
  -28.6070  -19.8870   17.1600 C   0  0  0  0  0  3  0  0  0  0  0  0
  -30.5230  -18.2260   17.8650 C   0  0  0  0  0  3  0  0  0  0  0  0
  -30.0480  -19.3850   16.9650 N   0  0  0  0  0  4  0  0  0  0  0  0
  -30.1750  -19.1080   16.0010 H   0  0  0  0  0  0  0  0  0  0  0  0
  -30.6590  -20.1760   17.0720 H   0  0  0  0  0  0  0  0  0  0  0  0
  -28.9910  -18.5220   22.1800 C   0  0  0  0  0  1  0  0  0  0  0  0
  -28.0890  -18.6910   20.9270 C   0  0  0  0  0  2  0  0  0  0  0  0
  -31.0320  -19.9310   19.7410 C   0  0  0  0  0  2  0  0  0  0  0  0
  -30.3890  -21.2530   19.6390 N   0  0  0  0  0  4  0  0  0  0  0  0
  -29.7330  -21.3230   18.8770 H   0  0  0  0  0  0  0  0  0  0  0  0
  -31.0920  -21.9770   19.5320 H   0  0  0  0  0  0  0  0  0  0  0  0
  -29.8870  -21.4020   20.5050 H   0  0  0  0  0  0  0  0  0  0  0  0
  -28.0850  -21.2610   16.5190 C   0  0  0  0  0  2  0  0  0  0  0  0
  -28.9660  -22.5500   16.2240 C   0  0  0  0  0  2  0  0  0  0  0  0
  -28.9440  -23.8260   17.1750 C   0  0  0  0  0  3  0  0  0  0  0  0
  -27.7340  -24.8280   17.0880 C   0  0  0  0  0  3  0  0  0  0  0  0
  -27.8960  -26.1790   17.6970 O   0  0  0  0  0  0  0  0  0  0  0  0
  -24.6760  -30.2610   22.7470 C   0  0  0  0  0  0  0  0  0  0  0  0
  -26.7670  -26.9110   18.0980 C   0  0  0  0  0  0  0  0  0  0  0  0
  -23.2120  -29.2020   21.0770 C   0  0  0  0  0  3  0  0  0  0  0  0
  -24.3880  -28.2210   19.0340 C   0  0  0  0  0  0  0  0  0  0  0  0
  -25.6490  -29.7950   20.4920 C   0  0  0  0  0  2  0  0  0  0  0  0
  -25.6390  -28.6420   19.4950 C   0  0  0  0  0  0  0  0  0  0  0  0
  -26.8270  -27.9960   19.0330 C   0  0  0  0  0  3  0  0  0  0  0  0
  -25.4750  -26.5690   17.6200 C   0  0  0  0  0  3  0  0  0  0  0  0
  -24.3050  -27.1860   18.0980 C   0  0  0  0  0  3  0  0  0  0  0  0
  -23.1540  -28.9280   19.5630 C   0  0  0  0  0  2  0  0  0  0  0  0
  -24.5440  -29.7530   21.4910 N   0  0  0  0  0  0  0  0  0  0  0  0
  -23.7290  -30.3010   23.5430 O   0  0  0  0  0  0  0  0  0  0  0  0
  -22.8280  -27.9060   21.8290 C   0  0  0  0  0  0  0  0  0  0  0  0
  -21.5730  -27.4610   21.6750 N   0  0  0  0  0  0  0  0  0  0  0  0
  -23.6620  -27.3170   22.5170 O   0  0  0  0  0  0  0  0  0  0  0  0
  -20.9450  -28.0080   21.1010 H   0  0  0  0  0  0  0  0  0  0  0  0
  -18.6380  -25.3600   21.7230 C   0  0  0  0  0  0  0  0  0  0  0  0
  -20.9980  -26.2560   22.2780 C   0  0  0  0  0  3  0  0  0  0  0  0
  -21.5310  -24.9770   21.5980 C   0  0  0  0  0  2  0  0  0  0  0  0
  -20.6440  -24.4900   20.4490 C   0  0  0  0  0  2  0  0  0  0  0  0
  -19.2240  -24.1950   20.9440 C   0  0  0  0  0  2  0  0  0  0  0  0
  -19.4740  -26.3330   22.3320 C   0  0  0  0  0  0  0  0  0  0  0  0
  -18.8800  -27.4160   23.0230 C   0  0  0  0  0  3  0  0  0  0  0  0
  -17.4760  -27.5370   23.1050 C   0  0  0  0  0  3  0  0  0  0  0  0
  -16.6580  -26.5600   22.5120 C   0  0  0  0  0  3  0  0  0  0  0  0
  -17.2400  -25.4760   21.8280 C   0  0  0  0  0  3  0  0  0  0  0  0
  -26.0350  -30.8480   23.2450 C   0  0  0  0  0  3  0  0  0  0  0  0
  -26.7340  -29.9460   24.3360 C   0  0  1  0  0  0  0  0  0  0  0  0
  -25.8030  -29.5690   25.5160 C   0  0  0  0  0  1  0  0  0  0  0  0
  -27.2660  -28.6340   23.7110 C   0  0  0  0  0  1  0  0  0  0  0  0
  -27.9660  -30.6840   24.9090 C   0  0  0  0  0  1  0  0  0  0  0  0
  -25.7650  -32.1870   23.7830 N   0  0  0  0  0  0  0  0  0  0  0  0
  -26.0150  -33.3340   23.1350 C   0  0  0  0  0  0  0  0  0  0  0  0
  -26.5800  -33.3670   22.0380 O   0  0  0  0  0  0  0  0  0  0  0  0
  -25.2460  -32.2290   24.6480 H   0  0  0  0  0  0  0  0  0  0  0  0
  -24.2690  -35.1420   23.1800 C   0  0  0  0  0  1  0  0  0  0  0  0
  -25.5780  -34.6450   23.8160 C   0  0  0  0  0  3  0  0  0  0  0  0
  -27.7740  -35.4440   24.5670 C   0  0  0  0  0  1  0  0  0  0  0  0
  -26.5990  -35.7180   23.7440 N   0  0  0  0  0  0  0  0  0  0  0  0
  -26.2100  -36.6150   24.0290 H   0  0  0  0  0  0  0  0  0  0  0  0
  -32.0460  -17.7080   17.7020 C   0  0  0  0  0  2  0  0  0  0  0  0
  -33.1740  -15.4350   18.0180 C   0  0  0  0  0  0  0  0  0  0  0  0
  -33.0510  -12.9700   18.2750 C   0  0  0  0  0  2  0  0  0  0  0  0
  -32.0100  -12.4730   17.2440 C   0  0  0  0  0  2  0  0  0  0  0  0
  -30.5910  -12.5440   17.8460 C   0  0  0  0  0  2  0  0  0  0  0  0
  -30.2770  -13.9030   18.5250 C   0  0  0  0  0  3  0  0  0  0  0  0
  -31.4380  -14.3440   19.4530 C   0  0  0  0  0  2  0  0  0  0  0  0
  -32.6660  -14.3470   18.6560 N   0  0  0  0  0  0  0  0  0  0  0  0
  -34.3330  -15.4530   17.5970 O   0  0  0  0  0  0  0  0  0  0  0  0
  -32.2450  -16.2520   17.4380 N   0  0  0  0  0  0  0  0  0  0  0  0
  -32.2100  -16.0470   16.4460 H   0  0  0  0  0  0  0  0  0  0  0  0
  -28.2150  -14.9400   19.6820 C   0  0  0  0  0  0  0  0  0  0  0  0
  -27.0780  -14.3880   20.1790 C   0  0  0  0  0  0  0  0  0  0  0  0
  -27.2090  -12.9750   20.0030 C   0  0  0  0  0  0  0  0  0  0  0  0
  -28.9920  -13.8840   19.2230 N   0  0  0  0  0  0  0  0  0  0  0  0
  -28.4010  -12.6890   19.4860 N   0  0  0  0  0  0  0  0  0  0  0  0
  -26.2530  -11.8870   20.2350 C   0  0  0  0  0  0  0  0  0  0  0  0
  -26.4400  -10.9560   21.2800 C   0  0  0  0  0  3  0  0  0  0  0  0
  -25.4970   -9.9280   21.5030 C   0  0  0  0  0  3  0  0  0  0  0  0
  -24.3490   -9.8300   20.6860 C   0  0  0  0  0  0  0  0  0  0  0  0
  -24.1750  -10.7430   19.6320 C   0  0  0  0  0  3  0  0  0  0  0  0
  -25.1170  -11.7640   19.4050 C   0  0  0  0  0  3  0  0  0  0  0  0
  -23.3980   -8.8490   20.8100 O   0  0  0  0  0  0  0  0  0  0  0  0
  -22.9350   -8.4430   22.0350 C   0  0  0  0  0  0  0  0  0  0  0  0
  -22.2710   -9.3280   22.9110 C   0  0  0  0  0  3  0  0  0  0  0  0
  -21.7550   -8.8580   24.1330 C   0  0  0  0  0  3  0  0  0  0  0  0
  -21.8840   -7.4990   24.4800 C   0  0  0  0  0  0  0  0  0  0  0  0
  -22.5360   -6.6110   23.6030 C   0  0  0  0  0  3  0  0  0  0  0  0
  -23.0540   -7.0810   22.3860 C   0  0  0  0  0  0  0  0  0  0  0  0
  -23.6660   -6.2170   21.5370 F   0  0  0  0  0  0  0  0  0  0  0  0
  -21.3780   -7.0420   25.6470 F   0  0  0  0  0  0  0  0  0  0  0  0
  -25.8780  -15.1250   20.7020 C   0  0  0  0  0  0  0  0  0  0  0  0
  -25.1880  -14.5610   21.6760 N   0  0  0  0  0  0  0  0  0  0  0  0
  -25.5810  -16.2390   20.2660 O   0  0  0  0  0  0  0  0  0  0  0  0
  -25.4480  -13.6540   22.0510 H   0  0  0  0  0  0  0  0  0  0  0  0
  -24.3820  -15.0380   22.0670 H   0  0  0  0  0  0  0  0  0  0  0  0
  -28.6650  -16.2580   19.5490 N   0  0  0  0  0  0  0  0  0  0  0  0
  -28.0660  -17.0420   19.7760 H   0  0  0  0  0  0  0  0  0  0  0  0
  -29.4820  -16.5170   19.0170 H   0  0  0  0  0  0  0  0  0  0  0  0
  1  2  1  0
  2 10  1  0
  3  2  1  0
  3 11  1  0
  4 16  1  0
  4  1  1  0
  5 61  1  0
  5  3  1  0
  6  8  1  0
  6  4  1  0
  6  5  1  0
  7  6  1  0
 10  9  1  0
 12 11  1  0
 12 15  1  0
 13 12  1  0
 14 12  1  0
 17 16  1  0
 17 18  1  0
 19 18  2  0
 19 20  1  0
 20 22  1  0
 21 32  2  0
 22 27  1  0
 23 31  1  0
 23 33  1  0
 24 26  1  0
 24 30  1  0
 25 31  1  0
 26 25  1  0
 27 26  2  0
 28 22  2  0
 28 29  1  0
 29 24  2  0
 30 23  1  0
 31 21  1  0
 33 35  2  0
 34 33  1  0
 36 34  1  0
 37 46  2  0
 37 42  1  0
 38 34  1  0
 38 42  1  0
 39 38  1  0
 40 41  1  0
 40 39  1  0
 41 37  1  0
 42 43  2  0
 43 44  1  0
 45 44  2  0
 46 45  1  0
 47 21  1  0
 47 52  1  0
 47 48  1  0
 48 51  1  1
 48 49  1  0
 50 48  1  0
 52 55  1  0
 53 52  1  0
 53 57  1  0
 54 53  2  0
 57 56  1  0
 59 57  1  0
 59 60  1  0
 59 58  1  0
 62 68  1  0
 63 68  1  0
 64 65  1  0
 64 63  1  0
 66 65  1  0
 66 75  1  0
 66 67  1  0
 68 67  1  0
 69 62  2  0
 70 61  1  0
 70 62  1  0
 71 70  1  0
 72 73  2  0
 73 92  1  0
 74 73  1  0
 74 77  1  0
 75 76  1  0
 75 72  1  0
 76 74  2  0
 77 78  1  0
 78 79  2  0
 80 83  1  0
 80 79  1  0
 81 80  2  0
 82 81  1  0
 82 77  2  0
 83 84  1  0
 84 89  2  0
 84 85  1  0
 85 86  2  0
 86 87  1  0
 87 91  1  0
 88 87  2  0
 89 88  1  0
 90 89  1  0
 92 93  1  0
 93 95  1  0
 93 96  1  0
 94 92  2  0
 97 72  1  0
 97 98  1  0
 99 97  1  0
M  ISO  4  19 101  20 101  62 100  70 100
M  END
>  <TORSDO>  (81) 
F 24

>  <SCORE>  (81) 
-2.123

>  <name>  (81) 
81

>  <ligand_id>  (81) 
81

>  <original_smiles>  (81) 
[H]c1c([H])c([H])c2c(c1[H])C([H])([H])C([H])([H])C([H])([H])C2([H])N([H])C(=O)C1([H])N(C(=O)C([H])(N([H])C(=O)C([H])(N([H])C([H])([H])[H])C([H])([H])[H])C(C([H])([H])[H])(C([H])([H])[H])C([H])([H])[H])C([H])([H])c2c([H])c(OC([H])([H])C([H])([H])C([H])([H])C([H])([H])C3([H])C([H])([H])C([H])(C([H])([H])C([H])([H])[H])C([H])(C([H])([H])[N+]([H])([H])[H])C([H])(C([H])([H])N([H])C(=O)N4C([H])([H])C([H])([H])C([H])([H])C([H])(n5nc(-c6c([H])c([H])c(Oc7c([H])c([H])c(F)c([H])c7F)c([H])c6[H])c(C(=O)N([H])[H])c5N([H])[H])C4([H])[H])[N+]3([H])[H])c([H])c([H])c2C1([H])[H]

>  <smiles>  (81) 
[H]c1c([H])c([H])c2c(c1[H])C([H])([H])C([H])([H])C([H])([H])C2([H])N([H])C(=O)C1([H])N(C(=O)C([H])(N([H])C(=O)C([H])(N([H])C([H])([H])[H])C([H])([H])[H])C(C([H])([H])[H])(C([H])([H])[H])C([H])([H])[H])C([H])([H])c2c([H])c(OC([H])([H])C([H])([H])C([H])([H])C([H])([H])C3([H])C([H])([H])C([H])(C([H])([H])C([H])([H])[H])C([H])(C([H])([H])[N+]([H])([H])[H])C([H])(C([H])([H])N([H])C(=O)N4C([H])([H])C([H])([H])C([H])([H])C([H])(n5nc(-c6c([H])c([H])c(Oc7c([H])c([H])c(F)c([H])c7F)c([H])c6[H])c(C(=O)N([H])[H])c5N([H])[H])C4([H])[H])[N+]3([H])[H])c([H])c([H])c2C1([H])[H]

$$$$
82:0:0
     RDKit          3D

 95103  0  0  1  0  0  0  0  0999 V2000
  -29.8800  -20.5260   20.3080 N   0  0  0  0  0  4  0  0  0  0  0  0
  -29.8950  -20.4900   19.3010 H   0  0  0  0  0  0  0  0  0  0  0  0
  -28.9490  -20.2710   20.5970 H   0  0  0  0  0  0  0  0  0  0  0  0
  -30.0920  -21.9440   20.7240 C   0  0  0  0  0  2  0  0  0  0  0  0
  -28.9290  -22.8840   20.3190 C   0  0  0  0  0  2  0  0  0  0  0  0
  -29.1430  -24.3860   20.6640 C   0  0  0  0  0  2  0  0  0  0  0  0
  -28.0810  -25.2820   19.9940 C   0  0  0  0  0  2  0  0  0  0  0  0
  -28.2360  -26.6930   20.2480 O   0  0  0  0  0  0  0  0  0  0  0  0
  -24.5470  -31.9820   23.2780 C   0  0  0  0  0  0  0  0  0  0  0  0
  -27.0890  -27.4700   20.1950 C   0  0  0  0  0  0  0  0  0  0  0  0
  -23.3050  -30.5890   21.6590 C   0  0  0  0  0  3  0  0  0  0  0  0
  -24.7230  -29.0360   20.2180 C   0  0  0  0  0  0  0  0  0  0  0  0
  -25.8380  -30.9070   21.4380 C   0  0  0  0  0  2  0  0  0  0  0  0
  -25.8960  -29.5330   20.8010 C   0  0  0  0  0  0  0  0  0  0  0  0
  -27.0800  -28.7550   20.7900 C   0  0  0  0  0  3  0  0  0  0  0  0
  -25.8980  -27.0140   19.5760 C   0  0  0  0  0  3  0  0  0  0  0  0
  -24.7190  -27.7770   19.6020 C   0  0  0  0  0  3  0  0  0  0  0  0
  -23.4920  -29.9120   20.2780 C   0  0  0  0  0  2  0  0  0  0  0  0
  -24.5830  -31.1740   22.1820 N   0  0  0  0  0  0  0  0  0  0  0  0
  -23.4730  -32.2720   23.8260 O   0  0  0  0  0  0  0  0  0  0  0  0
  -22.6550  -29.5750   22.6270 C   0  0  0  0  0  0  0  0  0  0  0  0
  -21.3310  -29.3870   22.4970 N   0  0  0  0  0  0  0  0  0  0  0  0
  -23.3370  -28.9630   23.4530 O   0  0  0  0  0  0  0  0  0  0  0  0
  -20.8410  -29.9340   21.8020 H   0  0  0  0  0  0  0  0  0  0  0  0
  -17.9630  -28.1650   22.9670 C   0  0  0  0  0  0  0  0  0  0  0  0
  -20.5120  -28.4600   23.2790 C   0  0  0  0  0  3  0  0  0  0  0  0
  -20.6410  -27.0160   22.7440 C   0  0  0  0  0  2  0  0  0  0  0  0
  -19.5620  -26.6530   21.7190 C   0  0  0  0  0  2  0  0  0  0  0  0
  -18.1680  -26.8000   22.3330 C   0  0  0  0  0  2  0  0  0  0  0  0
  -19.0650  -28.9520   23.3970 C   0  0  0  0  0  0  0  0  0  0  0  0
  -18.8200  -30.2280   23.9480 C   0  0  0  0  0  3  0  0  0  0  0  0
  -17.5070  -30.7200   24.0740 C   0  0  0  0  0  3  0  0  0  0  0  0
  -16.4190  -29.9300   23.6620 C   0  0  0  0  0  3  0  0  0  0  0  0
  -16.6490  -28.6540   23.1150 C   0  0  0  0  0  3  0  0  0  0  0  0
  -25.8470  -32.6010   23.8780 C   0  0  0  0  0  3  0  0  0  0  0  0
  -25.5560  -34.0020   24.2090 N   0  0  0  0  0  0  0  0  0  0  0  0
  -25.8930  -35.0480   23.4430 C   0  0  0  0  0  0  0  0  0  0  0  0
  -26.5540  -34.9340   22.4060 O   0  0  0  0  0  0  0  0  0  0  0  0
  -24.9620  -34.1640   25.0090 H   0  0  0  0  0  0  0  0  0  0  0  0
  -24.1790  -36.8560   23.0960 C   0  0  0  0  0  1  0  0  0  0  0  0
  -25.4240  -36.4420   23.8980 C   0  0  0  0  0  3  0  0  0  0  0  0
  -27.5790  -37.3040   24.7030 C   0  0  0  0  0  1  0  0  0  0  0  0
  -26.4670  -37.4840   23.7710 N   0  0  0  0  0  0  0  0  0  0  0  0
  -26.0750  -38.4090   23.9230 H   0  0  0  0  0  0  0  0  0  0  0  0
  -26.3780  -31.8240   25.1440 C   0  0  1  0  0  0  0  0  0  0  0  0
  -25.2990  -31.5890   26.2270 C   0  0  0  0  0  1  0  0  0  0  0  0
  -26.9440  -30.4410   24.7420 C   0  0  0  0  0  1  0  0  0  0  0  0
  -27.5510  -32.6030   25.7830 C   0  0  0  0  0  1  0  0  0  0  0  0
  -30.8090  -19.4790   20.8490 C   0  0  0  0  0  3  0  0  0  0  0  0
  -33.0150  -21.0140   21.0580 C   0  0  0  0  0  2  0  0  0  0  0  0
  -33.4280  -18.9570   21.1510 C   0  0  0  0  0  2  0  0  0  0  0  0
  -34.3050  -20.2080   21.2240 C   0  0  0  0  0  3  0  0  0  0  0  0
  -32.2960  -19.7700   20.4980 C   0  0  0  0  0  3  0  0  0  0  0  0
  -35.1690  -20.4440   22.4570 C   0  0  0  0  0  1  0  0  0  0  0  0
  -30.6750  -17.7220   18.9470 C   0  0  0  0  0  1  0  0  0  0  0  0
  -30.3160  -18.0410   20.4150 C   0  0  0  0  0  3  0  0  0  0  0  0
  -30.7690  -16.8840   21.3660 C   0  0  0  0  0  2  0  0  0  0  0  0
  -30.9240  -14.5260   20.4870 C   0  0  0  0  0  0  0  0  0  0  0  0
  -30.6470  -12.3250   19.4030 C   0  0  0  0  0  2  0  0  0  0  0  0
  -29.7300  -12.4650   18.1710 C   0  0  0  0  0  2  0  0  0  0  0  0
  -28.2480  -12.3390   18.5750 C   0  0  0  0  0  2  0  0  0  0  0  0
  -27.8820  -13.2380   19.7850 C   0  0  0  0  0  3  0  0  0  0  0  0
  -28.9090  -13.0720   20.9280 C   0  0  0  0  0  2  0  0  0  0  0  0
  -30.2440  -13.3520   20.3740 N   0  0  0  0  0  0  0  0  0  0  0  0
  -32.0550  -14.6900   20.0240 O   0  0  0  0  0  0  0  0  0  0  0  0
  -30.2420  -15.5430   21.0470 N   0  0  0  0  0  0  0  0  0  0  0  0
  -29.3090  -15.3270   21.3620 H   0  0  0  0  0  0  0  0  0  0  0  0
  -25.4780  -13.8900   20.4350 C   0  0  0  0  0  0  0  0  0  0  0  0
  -24.3930  -13.1390   20.7960 C   0  0  0  0  0  0  0  0  0  0  0  0
  -24.8370  -11.7800   20.7990 C   0  0  0  0  0  0  0  0  0  0  0  0
  -26.5160  -12.9920   20.2410 N   0  0  0  0  0  0  0  0  0  0  0  0
  -26.1320  -11.7200   20.5170 N   0  0  0  0  0  0  0  0  0  0  0  0
  -24.0930  -10.5310   20.9960 C   0  0  0  0  0  0  0  0  0  0  0  0
  -24.5040   -9.5680   21.9440 C   0  0  0  0  0  3  0  0  0  0  0  0
  -23.7610   -8.3820   22.1280 C   0  0  0  0  0  3  0  0  0  0  0  0
  -22.5930   -8.1500   21.3630 C   0  0  0  0  0  0  0  0  0  0  0  0
  -22.2020   -9.1020   20.4030 C   0  0  0  0  0  3  0  0  0  0  0  0
  -22.9450  -10.2790   20.2190 C   0  0  0  0  0  3  0  0  0  0  0  0
  -21.8230   -7.0160   21.4560 O   0  0  0  0  0  0  0  0  0  0  0  0
  -21.7560   -6.2860   22.6150 C   0  0  0  0  0  0  0  0  0  0  0  0
  -21.3400   -6.8590   23.8360 C   0  0  0  0  0  3  0  0  0  0  0  0
  -21.2200   -6.0540   24.9870 C   0  0  0  0  0  3  0  0  0  0  0  0
  -21.5040   -4.6770   24.9170 C   0  0  0  0  0  0  0  0  0  0  0  0
  -21.9120   -4.1040   23.7000 C   0  0  0  0  0  3  0  0  0  0  0  0
  -22.0340   -4.9050   22.5510 C   0  0  0  0  0  0  0  0  0  0  0  0
  -22.4070   -4.3430   21.3770 F   0  0  0  0  0  0  0  0  0  0  0  0
  -21.3810   -3.9020   26.0200 F   0  0  0  0  0  0  0  0  0  0  0  0
  -22.9970  -13.6360   21.0340 C   0  0  0  0  0  0  0  0  0  0  0  0
  -22.2440  -12.9640   21.8970 N   0  0  0  0  0  0  0  0  0  0  0  0
  -22.5790  -14.6570   20.4870 O   0  0  0  0  0  0  0  0  0  0  0  0
  -22.5920  -12.1350   22.3590 H   0  0  0  0  0  0  0  0  0  0  0  0
  -21.3060  -13.2800   22.1010 H   0  0  0  0  0  0  0  0  0  0  0  0
  -25.6660  -15.2560   20.2340 N   0  0  0  0  0  0  0  0  0  0  0  0
  -24.9070  -15.9240   20.3100 H   0  0  0  0  0  0  0  0  0  0  0  0
  -26.5290  -15.6730   19.9100 H   0  0  0  0  0  0  0  0  0  0  0  0
  1  3  1  0
  1  4  1  0
  2  1  1  0
  5  6  1  0
  5  4  1  0
  7  8  1  0
  7  6  1  0
  9 20  2  0
 10  8  1  0
 10 15  1  0
 11 19  1  0
 11 21  1  0
 12 18  1  0
 12 14  1  0
 13 19  1  0
 14 13  1  0
 15 14  2  0
 16 17  1  0
 16 10  2  0
 17 12  2  0
 18 11  1  0
 19  9  1  0
 21 23  2  0
 22 21  1  0
 24 22  1  0
 25 34  2  0
 25 30  1  0
 26 22  1  0
 26 30  1  0
 27 26  1  0
 28 29  1  0
 28 27  1  0
 29 25  1  0
 30 31  2  0
 31 32  1  0
 33 32  2  0
 34 33  1  0
 35  9  1  0
 35 36  1  0
 35 45  1  0
 36 39  1  0
 37 41  1  0
 37 36  1  0
 38 37  2  0
 41 40  1  0
 43 41  1  0
 43 44  1  0
 43 42  1  0
 45 48  1  1
 45 46  1  0
 47 45  1  0
 49  1  1  0
 50 52  1  0
 51 52  1  0
 52 54  1  0
 53 49  1  0
 53 50  1  0
 53 51  1  0
 56 55  1  0
 56 49  1  0
 56 57  1  0
 58 66  1  0
 59 64  1  0
 60 61  1  0
 60 59  1  0
 62 61  1  0
 62 71  1  0
 62 63  1  0
 64 58  1  0
 64 63  1  0
 65 58  2  0
 66 67  1  0
 66 57  1  0
 68 69  2  0
 69 70  1  0
 69 88  1  0
 70 73  1  0
 71 68  1  0
 71 72  1  0
 72 70  2  0
 73 74  1  0
 74 75  2  0
 76 79  1  0
 76 75  1  0
 77 76  2  0
 78 77  1  0
 78 73  2  0
 79 80  1  0
 80 81  1  0
 81 82  2  0
 83 82  1  0
 83 87  1  0
 84 83  2  0
 85 80  2  0
 85 84  1  0
 86 85  1  0
 88 89  1  0
 89 92  1  0
 89 91  1  0
 90 88  2  0
 93 94  1  0
 93 68  1  0
 95 93  1  0
M  ISO  4   7 101   8 101  58 100  66 100
M  END
>  <TORSDO>  (82) 
F 24

>  <SCORE>  (82) 
-12.692

>  <name>  (82) 
82

>  <ligand_id>  (82) 
82

>  <original_smiles>  (82) 
[H]c1c([H])c([H])c2c(c1[H])C([H])([H])C([H])([H])C([H])([H])C2([H])N([H])C(=O)C1([H])N(C(=O)C([H])(N([H])C(=O)C([H])(N([H])C([H])([H])[H])C([H])([H])[H])C(C([H])([H])[H])(C([H])([H])[H])C([H])([H])[H])C([H])([H])c2c([H])c(OC([H])([H])C([H])([H])C([H])([H])C([H])([H])[N+]([H])([H])C([H])(C([H])(C([H])([H])[H])C([H])([H])N([H])C(=O)N3C([H])([H])C([H])([H])C([H])([H])C([H])(n4nc(-c5c([H])c([H])c(Oc6c([H])c([H])c(F)c([H])c6F)c([H])c5[H])c(C(=O)N([H])[H])c4N([H])[H])C3([H])[H])C3([H])C([H])([H])C([H])(C([H])([H])[H])C3([H])[H])c([H])c([H])c2C1([H])[H]

>  <smiles>  (82) 
[H]c1c([H])c([H])c2c(c1[H])C([H])([H])C([H])([H])C([H])([H])C2([H])N([H])C(=O)C1([H])N(C(=O)C([H])(N([H])C(=O)C([H])(N([H])C([H])([H])[H])C([H])([H])[H])C(C([H])([H])[H])(C([H])([H])[H])C([H])([H])[H])C([H])([H])c2c([H])c(OC([H])([H])C([H])([H])C([H])([H])C([H])([H])[N+]([H])([H])C([H])(C([H])(C([H])([H])[H])C([H])([H])N([H])C(=O)N3C([H])([H])C([H])([H])C([H])([H])C([H])(n4nc(-c5c([H])c([H])c(Oc6c([H])c([H])c(F)c([H])c6F)c([H])c5[H])c(C(=O)N([H])[H])c4N([H])[H])C3([H])[H])C3([H])C([H])([H])C([H])(C([H])([H])[H])C3([H])[H])c([H])c([H])c2C1([H])[H]

$$$$
83:0:0
     RDKit          3D

 97105  0  0  1  0  0  0  0  0999 V2000
  -28.9990  -22.6150   19.2890 C   0  0  0  0  0  2  0  0  0  0  0  0
  -30.7340  -22.1170   17.7150 C   0  0  0  0  0  2  0  0  0  0  0  0
  -29.4700  -21.1770   19.6010 C   0  0  0  0  0  3  0  0  0  0  0  0
  -30.7220  -20.9410   18.7150 C   0  0  0  0  0  3  0  0  0  0  0  0
  -30.1220  -23.2900   18.4910 C   0  0  0  0  0  3  0  0  0  0  0  0
  -29.7890  -20.9770   21.0920 C   0  0  0  0  0  0  0  0  0  0  0  0
  -28.9810  -20.1930   21.7940 N   0  0  0  0  0  0  0  0  0  0  0  0
  -30.7630  -21.5160   21.6140 O   0  0  0  0  0  0  0  0  0  0  0  0
  -28.1690  -19.7700   21.3650 H   0  0  0  0  0  0  0  0  0  0  0  0
  -29.1690  -20.0050   22.7680 H   0  0  0  0  0  0  0  0  0  0  0  0
  -30.7080  -19.5560   18.0460 C   0  0  0  0  0  0  0  0  0  0  0  0
  -31.2690  -18.5480   18.7290 N   0  0  0  0  0  0  0  0  0  0  0  0
  -30.1950  -19.4040   16.9340 O   0  0  0  0  0  0  0  0  0  0  0  0
  -31.6680  -18.7720   19.6320 H   0  0  0  0  0  0  0  0  0  0  0  0
  -31.4390  -17.1730   18.2490 C   0  0  0  0  0  2  0  0  0  0  0  0
  -31.1710  -16.1070   19.3440 C   0  0  0  0  0  2  0  0  0  0  0  0
  -31.9400  -14.7900   19.1020 C   0  0  0  0  0  0  0  0  0  0  0  0
  -31.8610  -12.3280   18.9360 C   0  0  0  0  0  2  0  0  0  0  0  0
  -30.8690  -11.9280   17.8240 C   0  0  0  0  0  2  0  0  0  0  0  0
  -29.4380  -11.8340   18.3840 C   0  0  0  0  0  2  0  0  0  0  0  0
  -29.0340  -13.0850   19.2090 C   0  0  0  0  0  3  0  0  0  0  0  0
  -30.1350  -13.4540   20.2280 C   0  0  0  0  0  2  0  0  0  0  0  0
  -31.4010  -13.6060   19.4980 N   0  0  0  0  0  0  0  0  0  0  0  0
  -32.9960  -14.8410   18.4660 O   0  0  0  0  0  0  0  0  0  0  0  0
  -26.7750  -13.8470   20.1810 C   0  0  0  0  0  0  0  0  0  0  0  0
  -25.7220  -13.1450   20.7070 C   0  0  0  0  0  0  0  0  0  0  0  0
  -26.1060  -11.7700   20.6690 C   0  0  0  0  0  0  0  0  0  0  0  0
  -27.7370  -12.9020   19.8580 N   0  0  0  0  0  0  0  0  0  0  0  0
  -27.3440  -11.6500   20.2070 N   0  0  0  0  0  0  0  0  0  0  0  0
  -25.3460  -10.5560   20.9910 C   0  0  0  0  0  0  0  0  0  0  0  0
  -25.4730   -9.9160   22.2440 C   0  0  0  0  0  3  0  0  0  0  0  0
  -24.7180   -8.7590   22.5380 C   0  0  0  0  0  3  0  0  0  0  0  0
  -23.8230   -8.2350   21.5750 C   0  0  0  0  0  0  0  0  0  0  0  0
  -23.7150   -8.8630   20.3230 C   0  0  0  0  0  3  0  0  0  0  0  0
  -24.4710  -10.0110   20.0310 C   0  0  0  0  0  3  0  0  0  0  0  0
  -23.0650   -7.1030   21.7630 O   0  0  0  0  0  0  0  0  0  0  0  0
  -22.2280   -6.9680   22.8410 C   0  0  0  0  0  0  0  0  0  0  0  0
  -21.1470   -7.8510   23.0620 C   0  0  0  0  0  3  0  0  0  0  0  0
  -20.2700   -7.6350   24.1420 C   0  0  0  0  0  3  0  0  0  0  0  0
  -20.4640   -6.5340   24.9980 C   0  0  0  0  0  0  0  0  0  0  0  0
  -21.5360   -5.6510   24.7770 C   0  0  0  0  0  3  0  0  0  0  0  0
  -22.4130   -5.8660   23.7010 C   0  0  0  0  0  0  0  0  0  0  0  0
  -23.4300   -5.0000   23.4800 F   0  0  0  0  0  0  0  0  0  0  0  0
  -19.6160   -6.3220   26.0320 F   0  0  0  0  0  0  0  0  0  0  0  0
  -24.3960  -13.7060   21.1310 C   0  0  0  0  0  0  0  0  0  0  0  0
  -23.7770  -13.1150   22.1460 N   0  0  0  0  0  0  0  0  0  0  0  0
  -23.9210  -14.7050   20.5920 O   0  0  0  0  0  0  0  0  0  0  0  0
  -24.1730  -12.3040   22.5990 H   0  0  0  0  0  0  0  0  0  0  0  0
  -22.8900  -13.4730   22.4710 H   0  0  0  0  0  0  0  0  0  0  0  0
  -26.9860  -15.2000   19.9320 N   0  0  0  0  0  0  0  0  0  0  0  0
  -26.2590  -15.8930   20.0770 H   0  0  0  0  0  0  0  0  0  0  0  0
  -27.8070  -15.5710   19.4700 H   0  0  0  0  0  0  0  0  0  0  0  0
  -29.6080  -24.4860   17.6520 C   0  0  0  0  0  2  0  0  0  0  0  0
  -31.3810  -25.5980   16.1490 C   0  0  0  0  0  1  0  0  0  0  0  0
  -30.5890  -25.6730   17.4640 C   0  0  0  0  0  3  0  0  0  0  0  0
  -29.8690  -27.0380   17.5910 C   0  0  0  0  0  2  0  0  0  0  0  0
  -28.8240  -27.1680   16.6220 O   0  0  0  0  0  0  0  0  0  0  0  0
  -25.0860  -29.4510   22.2340 C   0  0  0  0  0  0  0  0  0  0  0  0
  -27.5980  -27.4960   17.1510 C   0  0  0  0  0  0  0  0  0  0  0  0
  -23.7720  -28.4530   20.3870 C   0  0  0  0  0  3  0  0  0  0  0  0
  -25.0440  -28.0710   18.2060 C   0  0  0  0  0  0  0  0  0  0  0  0
  -25.9970  -29.6190   19.9240 C   0  0  0  0  0  2  0  0  0  0  0  0
  -26.1830  -28.6710   18.7600 C   0  0  0  0  0  0  0  0  0  0  0  0
  -27.4630  -28.3840   18.2410 C   0  0  0  0  0  3  0  0  0  0  0  0
  -26.4450  -26.9130   16.5870 C   0  0  0  0  0  3  0  0  0  0  0  0
  -25.1690  -27.1870   17.1170 C   0  0  0  0  0  3  0  0  0  0  0  0
  -23.7140  -28.4220   18.8340 C   0  0  0  0  0  2  0  0  0  0  0  0
  -24.9820  -29.1690   20.9040 N   0  0  0  0  0  0  0  0  0  0  0  0
  -24.1740  -29.1640   23.0210 O   0  0  0  0  0  0  0  0  0  0  0  0
  -23.6440  -27.0050   20.9130 C   0  0  0  0  0  0  0  0  0  0  0  0
  -22.4580  -26.4040   20.7200 N   0  0  0  0  0  0  0  0  0  0  0  0
  -24.5980  -26.4400   21.4530 O   0  0  0  0  0  0  0  0  0  0  0  0
  -21.7230  -26.9400   20.2820 H   0  0  0  0  0  0  0  0  0  0  0  0
  -19.8880  -23.8760   20.4940 C   0  0  0  0  0  0  0  0  0  0  0  0
  -22.1190  -25.0330   21.0950 C   0  0  0  0  0  3  0  0  0  0  0  0
  -22.7870  -24.0140   20.1430 C   0  0  0  0  0  2  0  0  0  0  0  0
  -21.8910  -23.6110   18.9670 C   0  0  0  0  0  2  0  0  0  0  0  0
  -20.5870  -22.9880   19.4770 C   0  0  0  0  0  2  0  0  0  0  0  0
  -20.6060  -24.8470   21.2410 C   0  0  0  0  0  0  0  0  0  0  0  0
  -19.9020  -25.6730   22.1450 C   0  0  0  0  0  3  0  0  0  0  0  0
  -18.5110  -25.5390   22.3090 C   0  0  0  0  0  3  0  0  0  0  0  0
  -17.8080  -24.5660   21.5790 C   0  0  0  0  0  3  0  0  0  0  0  0
  -18.4970  -23.7340   20.6790 C   0  0  0  0  0  3  0  0  0  0  0  0
  -26.3440  -30.1650   22.8250 C   0  0  0  0  0  3  0  0  0  0  0  0
  -25.8770  -31.3460   23.5610 N   0  0  0  0  0  0  0  0  0  0  0  0
  -25.9500  -32.6050   23.1040 C   0  0  0  0  0  0  0  0  0  0  0  0
  -26.4920  -32.9000   22.0350 O   0  0  0  0  0  0  0  0  0  0  0  0
  -25.3820  -31.1760   24.4250 H   0  0  0  0  0  0  0  0  0  0  0  0
  -23.9400  -34.0850   23.4040 C   0  0  0  0  0  1  0  0  0  0  0  0
  -25.3200  -33.7110   23.9700 C   0  0  0  0  0  3  0  0  0  0  0  0
  -27.3660  -34.7170   24.8790 C   0  0  0  0  0  1  0  0  0  0  0  0
  -26.1590  -34.9240   24.0810 N   0  0  0  0  0  0  0  0  0  0  0  0
  -25.6350  -35.6870   24.4970 H   0  0  0  0  0  0  0  0  0  0  0  0
  -27.2110  -29.2300   23.7540 C   0  0  1  0  0  0  0  0  0  0  0  0
  -26.3910  -28.5110   24.8500 C   0  0  0  0  0  1  0  0  0  0  0  0
  -27.9300  -28.1490   22.9150 C   0  0  0  0  0  1  0  0  0  0  0  0
  -28.3160  -30.0580   24.4500 C   0  0  0  0  0  1  0  0  0  0  0  0
  1  3  1  0
  2  5  1  0
  2  4  1  0
  3  6  1  0
  4 11  1  0
  4  3  1  0
  5 53  1  0
  5  1  1  0
  6  8  2  0
  6  7  1  0
  7 10  1  0
  9  7  1  0
 11 12  1  0
 12 14  1  0
 13 11  2  0
 15 12  1  0
 15 16  1  0
 17 16  1  0
 17 23  1  0
 18 23  1  0
 19 20  1  0
 19 18  1  0
 21 20  1  0
 21 28  1  0
 21 22  1  0
 23 22  1  0
 24 17  2  0
 25 26  2  0
 26 45  1  0
 27 26  1  0
 27 30  1  0
 28 25  1  0
 28 29  1  0
 29 27  2  0
 30 31  1  0
 31 32  2  0
 33 36  1  0
 33 32  1  0
 34 33  2  0
 35 34  1  0
 35 30  2  0
 36 37  1  0
 37 38  2  0
 37 42  1  0
 38 39  1  0
 39 40  2  0
 40 44  1  0
 41 40  1  0
 42 41  2  0
 43 42  1  0
 45 46  1  0
 46 49  1  0
 46 48  1  0
 47 45  2  0
 50 51  1  0
 50 25  1  0
 52 50  1  0
 55 54  1  0
 55 56  1  0
 55 53  1  0
 57 59  1  0
 57 56  1  0
 58 69  2  0
 59 64  1  0
 60 68  1  0
 60 70  1  0
 61 63  1  0
 61 67  1  0
 62 68  1  0
 63 62  1  0
 64 63  2  0
 65 66  1  0
 65 59  2  0
 66 61  2  0
 67 60  1  0
 68 58  1  0
 70 72  2  0
 71 70  1  0
 73 71  1  0
 74 83  2  0
 74 79  1  0
 75 71  1  0
 75 79  1  0
 76 75  1  0
 77 78  1  0
 77 76  1  0
 78 74  1  0
 79 80  2  0
 80 81  1  0
 82 81  2  0
 83 82  1  0
 84 58  1  0
 84 85  1  0
 84 94  1  0
 85 88  1  0
 86 85  1  0
 86 90  1  0
 87 86  2  0
 90 89  1  0
 90 92  1  0
 92 93  1  0
 92 91  1  0
 94 97  1  1
 94 95  1  0
 96 94  1  0
M  ISO  4  16 100  17 100  56 101  57 101
M  END
>  <TORSDO>  (83) 
F 23

>  <SCORE>  (83) 
-5.462

>  <name>  (83) 
83

>  <ligand_id>  (83) 
83

>  <original_smiles>  (83) 
[H]c1c([H])c([H])c2c(c1[H])C([H])([H])C([H])([H])C([H])([H])C2([H])N([H])C(=O)C1([H])N(C(=O)C([H])(N([H])C(=O)C([H])(N([H])C([H])([H])[H])C([H])([H])[H])C(C([H])([H])[H])(C([H])([H])[H])C([H])([H])[H])C([H])([H])c2c([H])c(OC([H])([H])C([H])(C([H])([H])[H])C([H])([H])C3([H])C([H])([H])C([H])(C(=O)N([H])[H])C([H])(C(=O)N([H])C([H])([H])C([H])([H])C(=O)N4C([H])([H])C([H])([H])C([H])([H])C([H])(n5nc(-c6c([H])c([H])c(Oc7c([H])c([H])c(F)c([H])c7F)c([H])c6[H])c(C(=O)N([H])[H])c5N([H])[H])C4([H])[H])C3([H])[H])c([H])c([H])c2C1([H])[H]

>  <smiles>  (83) 
[H]c1c([H])c([H])c2c(c1[H])C([H])([H])C([H])([H])C([H])([H])C2([H])N([H])C(=O)C1([H])N(C(=O)C([H])(N([H])C(=O)C([H])(N([H])C([H])([H])[H])C([H])([H])[H])C(C([H])([H])[H])(C([H])([H])[H])C([H])([H])[H])C([H])([H])c2c([H])c(OC([H])([H])C([H])(C([H])([H])[H])C([H])([H])C3([H])C([H])([H])C([H])(C(=O)N([H])[H])C([H])(C(=O)N([H])C([H])([H])C([H])([H])C(=O)N4C([H])([H])C([H])([H])C([H])([H])C([H])(n5nc(-c6c([H])c([H])c(Oc7c([H])c([H])c(F)c([H])c7F)c([H])c6[H])c(C(=O)N([H])[H])c5N([H])[H])C4([H])[H])C3([H])[H])c([H])c([H])c2C1([H])[H]

$$$$
84:0:0
     RDKit          3D

 96104  0  0  1  0  0  0  0  0999 V2000
  -29.1260  -21.9730   18.8250 C   0  0  0  0  0  2  0  0  0  0  0  0
  -26.8860  -22.8060   18.6900 C   0  0  0  0  0  2  0  0  0  0  0  0
  -28.2360  -20.7310   18.6030 C   0  0  0  0  0  3  0  0  0  0  0  0
  -28.2120  -23.0500   19.4160 C   0  0  0  0  0  3  0  0  0  0  0  0
  -26.7760  -21.2760   18.5800 C   0  0  0  0  0  3  0  0  0  0  0  0
  -28.4320  -19.6520   19.6930 C   0  0  0  0  0  0  0  0  0  0  0  0
  -28.8770  -18.4550   19.2930 N   0  0  0  0  0  0  0  0  0  0  0  0
  -28.1280  -19.8810   20.8650 O   0  0  0  0  0  0  0  0  0  0  0  0
  -29.1640  -18.3640   18.3260 H   0  0  0  0  0  0  0  0  0  0  0  0
  -28.7640  -17.2170   20.0590 C   0  0  0  0  0  2  0  0  0  0  0  0
  -30.0500  -16.8070   20.8030 C   0  0  0  0  0  2  0  0  0  0  0  0
  -30.6780  -14.4130   20.5200 C   0  0  0  0  0  0  0  0  0  0  0  0
  -30.3760  -12.2750   19.3380 C   0  0  0  0  0  2  0  0  0  0  0  0
  -29.4360  -12.5100   18.1390 C   0  0  0  0  0  2  0  0  0  0  0  0
  -27.9590  -12.3850   18.5630 C   0  0  0  0  0  2  0  0  0  0  0  0
  -27.6300  -13.2040   19.8380 C   0  0  0  0  0  3  0  0  0  0  0  0
  -28.6780  -12.9360   20.9430 C   0  0  0  0  0  2  0  0  0  0  0  0
  -30.0150  -13.2340   20.3920 N   0  0  0  0  0  0  0  0  0  0  0  0
  -31.7670  -14.6480   19.9870 O   0  0  0  0  0  0  0  0  0  0  0  0
  -29.9710  -15.3790   21.1170 N   0  0  0  0  0  0  0  0  0  0  0  0
  -29.1340  -15.0690   21.5890 H   0  0  0  0  0  0  0  0  0  0  0  0
  -25.2240  -13.8350   20.5160 C   0  0  0  0  0  0  0  0  0  0  0  0
  -24.1510  -13.0690   20.8860 C   0  0  0  0  0  0  0  0  0  0  0  0
  -24.6060  -11.7160   20.8680 C   0  0  0  0  0  0  0  0  0  0  0  0
  -26.2690  -12.9450   20.3040 N   0  0  0  0  0  0  0  0  0  0  0  0
  -25.8980  -11.6680   20.5690 N   0  0  0  0  0  0  0  0  0  0  0  0
  -23.8750  -10.4570   21.0600 C   0  0  0  0  0  0  0  0  0  0  0  0
  -24.3100   -9.4860   21.9890 C   0  0  0  0  0  3  0  0  0  0  0  0
  -23.5810   -8.2920   22.1710 C   0  0  0  0  0  3  0  0  0  0  0  0
  -22.4010   -8.0590   21.4240 C   0  0  0  0  0  0  0  0  0  0  0  0
  -21.9840   -9.0190   20.4850 C   0  0  0  0  0  3  0  0  0  0  0  0
  -22.7140  -10.2060   20.3020 C   0  0  0  0  0  3  0  0  0  0  0  0
  -21.6440   -6.9160   21.5150 O   0  0  0  0  0  0  0  0  0  0  0  0
  -21.6140   -6.1610   22.6610 C   0  0  0  0  0  0  0  0  0  0  0  0
  -21.2220   -6.7090   23.9030 C   0  0  0  0  0  3  0  0  0  0  0  0
  -21.1360   -5.8820   25.0410 C   0  0  0  0  0  3  0  0  0  0  0  0
  -21.4330   -4.5090   24.9370 C   0  0  0  0  0  0  0  0  0  0  0  0
  -21.8180   -3.9630   23.7010 C   0  0  0  0  0  3  0  0  0  0  0  0
  -21.9050   -4.7860   22.5650 C   0  0  0  0  0  0  0  0  0  0  0  0
  -22.2550   -4.2500   21.3720 F   0  0  0  0  0  0  0  0  0  0  0  0
  -21.3450   -3.7140   26.0290 F   0  0  0  0  0  0  0  0  0  0  0  0
  -22.7520  -13.5530   21.1450 C   0  0  0  0  0  0  0  0  0  0  0  0
  -22.0140  -12.8680   22.0120 N   0  0  0  0  0  0  0  0  0  0  0  0
  -22.3210  -14.5760   20.6130 O   0  0  0  0  0  0  0  0  0  0  0  0
  -22.3710  -12.0410   22.4660 H   0  0  0  0  0  0  0  0  0  0  0  0
  -21.0790  -13.1820   22.2280 H   0  0  0  0  0  0  0  0  0  0  0  0
  -25.3960  -15.2010   20.3210 N   0  0  0  0  0  0  0  0  0  0  0  0
  -24.6300  -15.8610   20.4010 H   0  0  0  0  0  0  0  0  0  0  0  0
  -26.2390  -15.6170   19.9480 H   0  0  0  0  0  0  0  0  0  0  0  0
  -25.9990  -20.8390   17.4010 N   0  0  0  0  0  4  0  0  0  0  0  0
  -26.4330  -21.1340   16.5430 H   0  0  0  0  0  0  0  0  0  0  0  0
  -25.0700  -21.2210   17.4290 H   0  0  0  0  0  0  0  0  0  0  0  0
  -25.9110  -19.8370   17.3830 H   0  0  0  0  0  0  0  0  0  0  0  0
  -28.7370  -24.4960   19.2740 C   0  0  0  0  0  2  0  0  0  0  0  0
  -28.3300  -25.3800   20.4600 C   0  0  0  0  0  2  0  0  0  0  0  0
  -28.4290  -26.7650   20.1290 O   0  0  0  0  0  0  0  0  0  0  0  0
  -24.6080  -31.8780   23.2150 C   0  0  0  0  0  0  0  0  0  0  0  0
  -27.2460  -27.4650   20.1170 C   0  0  0  0  0  0  0  0  0  0  0  0
  -23.3920  -30.4750   21.5780 C   0  0  0  0  0  3  0  0  0  0  0  0
  -24.8420  -28.9430   20.1430 C   0  0  0  0  0  0  0  0  0  0  0  0
  -25.9140  -30.8460   21.3630 C   0  0  0  0  0  2  0  0  0  0  0  0
  -26.0000  -29.4770   20.7240 C   0  0  0  0  0  0  0  0  0  0  0  0
  -27.2050  -28.7460   20.7060 C   0  0  0  0  0  3  0  0  0  0  0  0
  -26.0750  -26.9410   19.5250 C   0  0  0  0  0  3  0  0  0  0  0  0
  -24.8730  -27.6730   19.5420 C   0  0  0  0  0  3  0  0  0  0  0  0
  -23.5940  -29.7950   20.1980 C   0  0  0  0  0  2  0  0  0  0  0  0
  -24.6560  -31.0810   22.1100 N   0  0  0  0  0  0  0  0  0  0  0  0
  -23.5300  -32.1470   23.7630 O   0  0  0  0  0  0  0  0  0  0  0  0
  -22.7510  -29.4520   22.5400 C   0  0  0  0  0  0  0  0  0  0  0  0
  -21.4260  -29.2710   22.4210 N   0  0  0  0  0  0  0  0  0  0  0  0
  -23.4420  -28.8250   23.3480 O   0  0  0  0  0  0  0  0  0  0  0  0
  -20.9310  -29.8250   21.7370 H   0  0  0  0  0  0  0  0  0  0  0  0
  -18.0560  -28.0820   22.9360 C   0  0  0  0  0  0  0  0  0  0  0  0
  -20.6150  -28.3330   23.1950 C   0  0  0  0  0  3  0  0  0  0  0  0
  -20.7140  -26.9030   22.6140 C   0  0  0  0  0  2  0  0  0  0  0  0
  -19.6060  -26.5850   21.6050 C   0  0  0  0  0  2  0  0  0  0  0  0
  -18.2270  -26.7330   22.2570 C   0  0  0  0  0  2  0  0  0  0  0  0
  -19.1780  -28.8390   23.3610 C   0  0  0  0  0  0  0  0  0  0  0  0
  -18.9650  -30.1030   23.9530 C   0  0  0  0  0  3  0  0  0  0  0  0
  -17.6620  -30.6080   24.1250 C   0  0  0  0  0  3  0  0  0  0  0  0
  -16.5550  -29.8460   23.7160 C   0  0  0  0  0  3  0  0  0  0  0  0
  -16.7530  -28.5840   23.1270 C   0  0  0  0  0  3  0  0  0  0  0  0
  -25.8980  -32.5080   23.8270 C   0  0  0  0  0  3  0  0  0  0  0  0
  -25.5900  -33.9010   24.1720 N   0  0  0  0  0  0  0  0  0  0  0  0
  -25.9160  -34.9590   23.4180 C   0  0  0  0  0  0  0  0  0  0  0  0
  -26.5790  -34.8660   22.3810 O   0  0  0  0  0  0  0  0  0  0  0  0
  -25.0030  -34.0480   24.9790 H   0  0  0  0  0  0  0  0  0  0  0  0
  -24.1810  -36.7470   23.0830 C   0  0  0  0  0  1  0  0  0  0  0  0
  -25.4260  -36.3410   23.8870 C   0  0  0  0  0  3  0  0  0  0  0  0
  -27.5610  -37.2240   24.7160 C   0  0  0  0  0  1  0  0  0  0  0  0
  -26.4550  -37.3980   23.7780 N   0  0  0  0  0  0  0  0  0  0  0  0
  -26.0470  -38.3170   23.9370 H   0  0  0  0  0  0  0  0  0  0  0  0
  -26.4360  -31.7250   25.0880 C   0  0  1  0  0  0  0  0  0  0  0  0
  -25.3560  -31.4720   26.1670 C   0  0  0  0  0  1  0  0  0  0  0  0
  -27.0190  -30.3540   24.6700 C   0  0  0  0  0  1  0  0  0  0  0  0
  -27.5920  -32.5170   25.7440 C   0  0  0  0  0  1  0  0  0  0  0  0
  1  4  1  0
  2  4  1  0
  3  1  1  0
  3  6  1  0
  4 54  1  0
  5 50  1  0
  5  3  1  0
  5  2  1  0
  6  8  2  0
  7  6  1  0
  7 10  1  0
  9  7  1  0
 10 11  1  0
 11 20  1  0
 12 20  1  0
 13 18  1  0
 14 15  1  0
 14 13  1  0
 16 15  1  0
 16 25  1  0
 16 17  1  0
 18 12  1  0
 18 17  1  0
 19 12  2  0
 20 21  1  0
 22 23  2  0
 23 42  1  0
 24 23  1  0
 24 27  1  0
 25 22  1  0
 25 26  1  0
 26 24  2  0
 27 28  1  0
 28 29  2  0
 30 33  1  0
 30 29  1  0
 31 30  2  0
 32 31  1  0
 32 27  2  0
 33 34  1  0
 34 35  1  0
 35 36  2  0
 37 36  1  0
 37 41  1  0
 38 37  2  0
 39 34  2  0
 39 38  1  0
 40 39  1  0
 42 43  1  0
 43 46  1  0
 43 45  1  0
 44 42  2  0
 47 48  1  0
 47 22  1  0
 49 47  1  0
 50 52  1  0
 51 50  1  0
 53 50  1  0
 54 55  1  0
 56 55  1  0
 57 68  2  0
 58 56  1  0
 58 63  1  0
 59 67  1  0
 59 69  1  0
 60 66  1  0
 60 62  1  0
 61 67  1  0
 62 61  1  0
 63 62  2  0
 64 65  1  0
 64 58  2  0
 65 60  2  0
 66 59  1  0
 67 57  1  0
 69 71  2  0
 70 69  1  0
 72 70  1  0
 73 82  2  0
 73 78  1  0
 74 70  1  0
 74 78  1  0
 75 74  1  0
 76 77  1  0
 76 75  1  0
 77 73  1  0
 78 79  2  0
 79 80  1  0
 81 80  2  0
 82 81  1  0
 83 57  1  0
 83 84  1  0
 83 93  1  0
 84 87  1  0
 85 89  1  0
 85 84  1  0
 86 85  2  0
 89 88  1  0
 91 89  1  0
 91 92  1  0
 91 90  1  0
 93 96  1  1
 93 94  1  0
 95 93  1  0
M  ISO  4  12 100  20 100  55 101  56 101
M  END
>  <TORSDO>  (84) 
F 22

>  <SCORE>  (84) 
-13.397

>  <name>  (84) 
84

>  <ligand_id>  (84) 
84

>  <original_smiles>  (84) 
[H]c1c([H])c([H])c2c(c1[H])C([H])([H])C([H])([H])C([H])([H])C2([H])N([H])C(=O)C1([H])N(C(=O)C([H])(N([H])C(=O)C([H])(N([H])C([H])([H])[H])C([H])([H])[H])C(C([H])([H])[H])(C([H])([H])[H])C([H])([H])[H])C([H])([H])c2c([H])c(OC([H])([H])C([H])([H])C3([H])C([H])([H])C([H])(C(=O)N([H])C([H])([H])C([H])([H])N([H])C(=O)N4C([H])([H])C([H])([H])C([H])([H])C([H])(n5nc(-c6c([H])c([H])c(Oc7c([H])c([H])c(F)c([H])c7F)c([H])c6[H])c(C(=O)N([H])[H])c5N([H])[H])C4([H])[H])C([H])([N+]([H])([H])[H])C3([H])[H])c([H])c([H])c2C1([H])[H]

>  <smiles>  (84) 
[H]c1c([H])c([H])c2c(c1[H])C([H])([H])C([H])([H])C([H])([H])C2([H])N([H])C(=O)C1([H])N(C(=O)C([H])(N([H])C(=O)C([H])(N([H])C([H])([H])[H])C([H])([H])[H])C(C([H])([H])[H])(C([H])([H])[H])C([H])([H])[H])C([H])([H])c2c([H])c(OC([H])([H])C([H])([H])C3([H])C([H])([H])C([H])(C(=O)N([H])C([H])([H])C([H])([H])N([H])C(=O)N4C([H])([H])C([H])([H])C([H])([H])C([H])(n5nc(-c6c([H])c([H])c(Oc7c([H])c([H])c(F)c([H])c7F)c([H])c6[H])c(C(=O)N([H])[H])c5N([H])[H])C4([H])[H])C([H])([N+]([H])([H])[H])C3([H])[H])c([H])c([H])c2C1([H])[H]

$$$$
85:0:0
     RDKit          3D

 91 99  0  0  1  0  0  0  0  0999 V2000
  -29.1440  -19.6050   19.8010 N   0  0  0  0  0  4  0  0  0  0  0  0
  -28.3000  -19.5960   19.2540 H   0  0  0  0  0  0  0  0  0  0  0  0
  -29.8990  -19.5970   19.1370 H   0  0  0  0  0  0  0  0  0  0  0  0
  -30.5620  -15.0420   20.6580 C   0  0  0  0  0  0  0  0  0  0  0  0
  -30.4970  -12.6800   19.8390 C   0  0  0  0  0  2  0  0  0  0  0  0
  -29.6480  -12.5940   18.5520 C   0  0  0  0  0  2  0  0  0  0  0  0
  -28.1650  -12.3780   18.9030 C   0  0  0  0  0  2  0  0  0  0  0  0
  -27.6650  -13.3500   20.0060 C   0  0  0  0  0  3  0  0  0  0  0  0
  -28.6470  -13.4410   21.1950 C   0  0  0  0  0  2  0  0  0  0  0  0
  -29.9620  -13.7990   20.6530 N   0  0  0  0  0  0  0  0  0  0  0  0
  -31.7650  -15.1240   20.3920 O   0  0  0  0  0  0  0  0  0  0  0  0
  -29.1040  -16.9330   19.7210 C   0  0  0  0  0  2  0  0  0  0  0  0
  -29.1310  -18.2490   20.5640 C   0  0  0  0  0  3  0  0  0  0  0  0
  -30.4190  -17.5710   21.1200 C   0  0  0  0  0  3  0  0  0  0  0  0
  -29.8100  -16.2110   20.8280 N   0  0  0  0  0  0  0  0  0  0  0  0
  -25.2290  -13.8850   20.5940 C   0  0  0  0  0  0  0  0  0  0  0  0
  -24.1670  -13.0890   20.9220 C   0  0  0  0  0  0  0  0  0  0  0  0
  -24.6690  -11.7510   20.9500 C   0  0  0  0  0  0  0  0  0  0  0  0
  -26.3080  -13.0310   20.4350 N   0  0  0  0  0  0  0  0  0  0  0  0
  -25.9760  -11.7450   20.7150 N   0  0  0  0  0  0  0  0  0  0  0  0
  -23.9680  -10.4730   21.1300 C   0  0  0  0  0  0  0  0  0  0  0  0
  -24.3890   -9.5280   22.0920 C   0  0  0  0  0  3  0  0  0  0  0  0
  -23.6870   -8.3150   22.2610 C   0  0  0  0  0  3  0  0  0  0  0  0
  -22.5490   -8.0390   21.4660 C   0  0  0  0  0  0  0  0  0  0  0  0
  -22.1480   -8.9720   20.4940 C   0  0  0  0  0  3  0  0  0  0  0  0
  -22.8520  -10.1760   20.3240 C   0  0  0  0  0  3  0  0  0  0  0  0
  -21.8190   -6.8770   21.5410 O   0  0  0  0  0  0  0  0  0  0  0  0
  -21.7590   -6.1390   22.6960 C   0  0  0  0  0  0  0  0  0  0  0  0
  -21.2880   -6.6890   23.9080 C   0  0  0  0  0  3  0  0  0  0  0  0
  -21.1770   -5.8760   25.0540 C   0  0  0  0  0  3  0  0  0  0  0  0
  -21.5280   -4.5150   24.9880 C   0  0  0  0  0  0  0  0  0  0  0  0
  -21.9920   -3.9640   23.7810 C   0  0  0  0  0  3  0  0  0  0  0  0
  -22.1040   -4.7740   22.6370 C   0  0  0  0  0  0  0  0  0  0  0  0
  -22.5320   -4.2330   21.4710 F   0  0  0  0  0  0  0  0  0  0  0  0
  -21.4140   -3.7310   26.0870 F   0  0  0  0  0  0  0  0  0  0  0  0
  -22.7440  -13.5320   21.1040 C   0  0  0  0  0  0  0  0  0  0  0  0
  -21.9950  -12.8490   21.9640 N   0  0  0  0  0  0  0  0  0  0  0  0
  -22.3020  -14.5190   20.5190 O   0  0  0  0  0  0  0  0  0  0  0  0
  -22.3660  -12.0510   22.4590 H   0  0  0  0  0  0  0  0  0  0  0  0
  -21.0390  -13.1300   22.1310 H   0  0  0  0  0  0  0  0  0  0  0  0
  -25.3640  -15.2560   20.3940 N   0  0  0  0  0  0  0  0  0  0  0  0
  -24.5760  -15.8900   20.4560 H   0  0  0  0  0  0  0  0  0  0  0  0
  -26.2260  -15.7140   20.1320 H   0  0  0  0  0  0  0  0  0  0  0  0
  -30.7820  -17.6860   22.6020 C   0  0  0  0  0  2  0  0  0  0  0  0
  -30.9380  -19.2600   24.6070 C   0  0  0  0  0  1  0  0  0  0  0  0
  -30.8930  -19.1410   23.0800 C   0  0  0  0  0  2  0  0  0  0  0  0
  -29.1370  -20.9890   20.4900 C   0  0  0  0  0  3  0  0  0  0  0  0
  -28.6630  -22.3010   19.6280 C   0  0  0  0  0  3  0  0  0  0  0  0
  -28.9390  -23.8470   20.0910 C   0  0  0  0  0  3  0  0  0  0  0  0
  -28.0670  -25.0690   19.4580 C   0  0  0  0  0  3  0  0  0  0  0  0
  -28.3220  -26.5400   19.7110 O   0  0  0  0  0  0  0  0  0  0  0  0
  -24.7340  -31.7900   23.2430 C   0  0  0  0  0  0  0  0  0  0  0  0
  -27.2400  -27.4630   19.7270 C   0  0  0  0  0  0  0  0  0  0  0  0
  -23.4900  -30.5540   21.5080 C   0  0  0  0  0  3  0  0  0  0  0  0
  -24.9010  -29.1350   19.9100 C   0  0  0  0  0  0  0  0  0  0  0  0
  -26.0330  -30.8570   21.3080 C   0  0  0  0  0  2  0  0  0  0  0  0
  -26.0870  -29.5400   20.5320 C   0  0  0  0  0  0  0  0  0  0  0  0
  -27.2580  -28.7160   20.4340 C   0  0  0  0  0  3  0  0  0  0  0  0
  -26.0320  -27.1490   19.0600 C   0  0  0  0  0  3  0  0  0  0  0  0
  -24.8800  -27.9490   19.1620 C   0  0  0  0  0  3  0  0  0  0  0  0
  -23.6740  -30.0120   20.0670 C   0  0  0  0  0  2  0  0  0  0  0  0
  -24.7730  -31.0800   22.0760 N   0  0  0  0  0  0  0  0  0  0  0  0
  -23.6620  -32.0230   23.8220 O   0  0  0  0  0  0  0  0  0  0  0  0
  -22.8380  -29.4570   22.3840 C   0  0  0  0  0  0  0  0  0  0  0  0
  -21.5070  -29.3000   22.2710 N   0  0  0  0  0  0  0  0  0  0  0  0
  -23.5280  -28.7540   23.1280 O   0  0  0  0  0  0  0  0  0  0  0  0
  -21.0090  -29.9200   21.6490 H   0  0  0  0  0  0  0  0  0  0  0  0
  -18.1330  -28.0690   22.7250 C   0  0  0  0  0  0  0  0  0  0  0  0
  -20.6980  -28.2990   22.9700 C   0  0  0  0  0  3  0  0  0  0  0  0
  -20.7830  -26.9240   22.2680 C   0  0  0  0  0  2  0  0  0  0  0  0
  -19.6630  -26.6950   21.2490 C   0  0  0  0  0  2  0  0  0  0  0  0
  -18.2930  -26.7850   21.9280 C   0  0  0  0  0  2  0  0  0  0  0  0
  -19.2630  -28.7890   23.2000 C   0  0  0  0  0  0  0  0  0  0  0  0
  -19.0590  -29.9930   23.9070 C   0  0  0  0  0  3  0  0  0  0  0  0
  -17.7590  -30.4790   24.1430 C   0  0  0  0  0  3  0  0  0  0  0  0
  -16.6450  -29.7560   23.6830 C   0  0  0  0  0  3  0  0  0  0  0  0
  -16.8330  -28.5530   22.9800 C   0  0  0  0  0  3  0  0  0  0  0  0
  -26.0310  -32.3580   23.8950 C   0  0  0  0  0  3  0  0  0  0  0  0
  -26.5790  -31.4610   25.0720 C   0  0  1  0  0  0  0  0  0  0  0  0
  -25.5150  -31.1200   26.1410 C   0  0  0  0  0  1  0  0  0  0  0  0
  -27.1450  -30.1280   24.5290 C   0  0  0  0  0  1  0  0  0  0  0  0
  -27.7520  -32.1820   25.7760 C   0  0  0  0  0  1  0  0  0  0  0  0
  -25.7280  -33.7140   24.3780 N   0  0  0  0  0  0  0  0  0  0  0  0
  -26.0760  -34.8430   23.7490 C   0  0  0  0  0  0  0  0  0  0  0  0
  -26.7550  -34.8530   22.7180 O   0  0  0  0  0  0  0  0  0  0  0  0
  -25.1280  -33.7800   25.1860 H   0  0  0  0  0  0  0  0  0  0  0  0
  -24.3760  -36.6910   23.5820 C   0  0  0  0  0  1  0  0  0  0  0  0
  -25.5980  -36.1760   24.3590 C   0  0  0  0  0  3  0  0  0  0  0  0
  -27.7260  -36.9290   25.3260 C   0  0  0  0  0  1  0  0  0  0  0  0
  -26.6430  -37.2200   24.3880 N   0  0  0  0  0  0  0  0  0  0  0  0
  -26.2460  -38.1220   24.6340 H   0  0  0  0  0  0  0  0  0  0  0  0
  1 47  1  0
  2  1  1  0
  3  1  1  0
  4 15  1  0
  5 10  1  0
  6  7  1  0
  6  5  1  0
  8  7  1  0
  8 19  1  0
  8  9  1  0
 10  4  1  0
 10  9  1  0
 11  4  2  0
 12 13  1  0
 12 15  1  0
 13  1  1  0
 13 14  1  0
 14 44  1  0
 15 14  1  0
 16 17  2  0
 17 18  1  0
 17 36  1  0
 18 21  1  0
 19 16  1  0
 19 20  1  0
 20 18  2  0
 21 22  1  0
 22 23  2  0
 24 27  1  0
 24 23  1  0
 25 24  2  0
 26 25  1  0
 26 21  2  0
 27 28  1  0
 28 29  1  0
 29 30  2  0
 31 30  1  0
 31 35  1  0
 32 31  2  0
 33 28  2  0
 33 32  1  0
 34 33  1  0
 36 37  1  0
 37 40  1  0
 37 39  1  0
 38 36  2  0
 41 42  1  0
 41 16  1  0
 43 41  1  0
 44 46  1  0
 46 45  1  0
 48 49  1  0
 48 47  2  0
 50 51  1  0
 50 49  2  0
 51 53  1  0
 52 63  2  0
 53 58  1  0
 54 62  1  0
 54 64  1  0
 55 61  1  0
 55 57  1  0
 56 62  1  0
 57 56  1  0
 58 57  2  0
 59 60  1  0
 59 53  2  0
 60 55  2  0
 61 54  1  0
 62 52  1  0
 64 66  2  0
 65 64  1  0
 67 65  1  0
 68 77  2  0
 68 73  1  0
 69 65  1  0
 69 73  1  0
 70 69  1  0
 71 72  1  0
 71 70  1  0
 72 68  1  0
 73 74  2  0
 74 75  1  0
 76 75  2  0
 77 76  1  0
 78 52  1  0
 78 83  1  0
 78 79  1  0
 79 82  1  1
 79 80  1  0
 81 79  1  0
 83 86  1  0
 84 88  1  0
 84 83  1  0
 85 84  2  0
 88 87  1  0
 88 90  1  0
 90 91  1  0
 90 89  1  0
M  ISO  4   4 100  15 100  50 101  51 101
M  END
>  <TORSDO>  (85) 
F 22

>  <SCORE>  (85) 
-11.614

>  <name>  (85) 
85

>  <ligand_id>  (85) 
85

>  <original_smiles>  (85) 
[H]c1c([H])c([H])c2c(c1[H])C([H])([H])C([H])([H])C([H])([H])C2([H])N([H])C(=O)C1([H])N(C(=O)C([H])(N([H])C(=O)C([H])(N([H])C([H])([H])[H])C([H])([H])[H])C(C([H])([H])[H])(C([H])([H])[H])C([H])([H])[H])C([H])([H])c2c([H])c(OC([H])([H])C([H])([H])C([H])([H])C([H])([H])[N+]([H])([H])C3([H])C([H])([H])N(C(=O)N4C([H])([H])C([H])([H])C([H])([H])C([H])(n5nc(-c6c([H])c([H])c(Oc7c([H])c([H])c(F)c([H])c7F)c([H])c6[H])c(C(=O)N([H])[H])c5N([H])[H])C4([H])[H])C3([H])C([H])([H])C([H])([H])C([H])([H])[H])c([H])c([H])c2C1([H])[H]

>  <smiles>  (85) 
[H]c1c([H])c([H])c2c(c1[H])C([H])([H])C([H])([H])C([H])([H])C2([H])N([H])C(=O)C1([H])N(C(=O)C([H])(N([H])C(=O)C([H])(N([H])C([H])([H])[H])C([H])([H])[H])C(C([H])([H])[H])(C([H])([H])[H])C([H])([H])[H])C([H])([H])c2c([H])c(OC([H])([H])C([H])([H])C([H])([H])C([H])([H])[N+]([H])([H])C3([H])C([H])([H])N(C(=O)N4C([H])([H])C([H])([H])C([H])([H])C([H])(n5nc(-c6c([H])c([H])c(Oc7c([H])c([H])c(F)c([H])c7F)c([H])c6[H])c(C(=O)N([H])[H])c5N([H])[H])C4([H])[H])C3([H])C([H])([H])C([H])([H])C([H])([H])[H])c([H])c([H])c2C1([H])[H]

$$$$
86:0:0
     RDKit          3D

 98106  0  0  1  0  0  0  0  0999 V2000
  -27.8620  -21.2210   21.2240 C   0  0  0  0  0  2  0  0  0  0  0  0
  -28.5210  -22.6000   20.9310 C   0  0  0  0  0  2  0  0  0  0  0  0
  -27.5100  -23.6760   20.4000 C   0  0  0  0  0  3  0  0  0  0  0  0
  -29.3050  -25.3870   21.0940 C   0  0  0  0  0  1  0  0  0  0  0  0
  -28.0520  -25.1420   20.2310 C   0  0  0  0  0  3  0  0  0  0  0  0
  -28.2300  -25.6620   18.7750 C   0  0  0  0  0  2  0  0  0  0  0  0
  -28.1850  -27.1170   18.7140 O   0  0  0  0  0  0  0  0  0  0  0  0
  -24.4420  -31.5500   22.8640 C   0  0  0  0  0  0  0  0  0  0  0  0
  -26.9780  -27.7720   18.9080 C   0  0  0  0  0  0  0  0  0  0  0  0
  -23.1500  -30.3350   21.1410 C   0  0  0  0  0  3  0  0  0  0  0  0
  -24.5300  -29.1390   19.3590 C   0  0  0  0  0  0  0  0  0  0  0  0
  -25.6310  -30.8810   20.7740 C   0  0  0  0  0  2  0  0  0  0  0  0
  -25.7170  -29.6370   19.9110 C   0  0  0  0  0  0  0  0  0  0  0  0
  -26.9450  -28.9690   19.6660 C   0  0  0  0  0  3  0  0  0  0  0  0
  -25.7640  -27.3020   18.3540 C   0  0  0  0  0  3  0  0  0  0  0  0
  -24.5540  -27.9790   18.5730 C   0  0  0  0  0  3  0  0  0  0  0  0
  -23.2500  -29.8910   19.6590 C   0  0  0  0  0  2  0  0  0  0  0  0
  -24.4320  -30.9300   21.6490 N   0  0  0  0  0  0  0  0  0  0  0  0
  -23.4080  -31.6640   23.5350 O   0  0  0  0  0  0  0  0  0  0  0  0
  -22.6540  -29.1380   21.9840 C   0  0  0  0  0  0  0  0  0  0  0  0
  -21.3350  -28.8850   21.9490 N   0  0  0  0  0  0  0  0  0  0  0  0
  -23.4460  -28.4460   22.6290 O   0  0  0  0  0  0  0  0  0  0  0  0
  -20.7550  -29.4960   21.3910 H   0  0  0  0  0  0  0  0  0  0  0  0
  -18.1000  -27.3730   22.4990 C   0  0  0  0  0  0  0  0  0  0  0  0
  -20.6470  -27.7870   22.6290 C   0  0  0  0  0  3  0  0  0  0  0  0
  -20.8060  -26.4710   21.8310 C   0  0  0  0  0  2  0  0  0  0  0  0
  -19.6480  -26.2140   20.8610 C   0  0  0  0  0  2  0  0  0  0  0  0
  -18.3140  -26.1560   21.6110 C   0  0  0  0  0  2  0  0  0  0  0  0
  -19.1960  -28.1490   22.9580 C   0  0  0  0  0  0  0  0  0  0  0  0
  -18.9470  -29.2970   23.7390 C   0  0  0  0  0  3  0  0  0  0  0  0
  -17.6330  -29.6640   24.0770 C   0  0  0  0  0  3  0  0  0  0  0  0
  -16.5500  -28.8820   23.6430 C   0  0  0  0  0  3  0  0  0  0  0  0
  -16.7860  -27.7390   22.8550 C   0  0  0  0  0  3  0  0  0  0  0  0
  -25.7500  -32.1670   23.4490 C   0  0  0  0  0  3  0  0  0  0  0  0
  -25.4140  -33.4980   23.9690 N   0  0  0  0  0  0  0  0  0  0  0  0
  -25.6840  -34.6540   23.3480 C   0  0  0  0  0  0  0  0  0  0  0  0
  -26.3140  -34.7120   22.2900 O   0  0  0  0  0  0  0  0  0  0  0  0
  -24.8440  -33.5210   24.8000 H   0  0  0  0  0  0  0  0  0  0  0  0
  -23.9060  -36.4390   23.2760 C   0  0  0  0  0  1  0  0  0  0  0  0
  -25.1690  -35.9510   24.0040 C   0  0  0  0  0  3  0  0  0  0  0  0
  -27.2930  -36.7610   24.9300 C   0  0  0  0  0  1  0  0  0  0  0  0
  -26.1740  -37.0350   24.0320 N   0  0  0  0  0  0  0  0  0  0  0  0
  -25.7480  -37.9120   24.3170 H   0  0  0  0  0  0  0  0  0  0  0  0
  -26.4060  -31.2780   24.5770 C   0  0  1  0  0  0  0  0  0  0  0  0
  -25.4230  -30.8640   25.6940 C   0  0  0  0  0  1  0  0  0  0  0  0
  -27.0000  -29.9840   23.9750 C   0  0  0  0  0  1  0  0  0  0  0  0
  -27.5780  -32.0430   25.2350 C   0  0  0  0  0  1  0  0  0  0  0  0
  -24.9470  -23.4760   20.5620 C   0  0  0  0  0  1  0  0  0  0  0  0
  -26.2540  -23.7080   21.3210 C   0  0  0  0  0  2  0  0  0  0  0  0
  -28.6940  -20.1030   21.9530 C   0  0  0  0  0  2  0  0  0  0  0  0
  -31.4380  -15.0420   20.1150 C   0  0  0  0  0  0  0  0  0  0  0  0
  -31.1140  -12.7890   19.1700 C   0  0  0  0  0  2  0  0  0  0  0  0
  -30.1710  -12.9050   17.9550 C   0  0  0  0  0  2  0  0  0  0  0  0
  -28.6960  -12.8190   18.3930 C   0  0  0  0  0  2  0  0  0  0  0  0
  -28.3640  -13.7340   19.6040 C   0  0  0  0  0  3  0  0  0  0  0  0
  -29.4340  -13.6290   20.7160 C   0  0  0  0  0  2  0  0  0  0  0  0
  -30.7420  -13.8700   20.0960 N   0  0  0  0  0  0  0  0  0  0  0  0
  -32.6250  -15.1030   19.7770 O   0  0  0  0  0  0  0  0  0  0  0  0
  -31.1780  -17.1960   21.2160 C   0  0  0  0  0  2  0  0  0  0  0  0
  -30.3830  -16.8030   18.8950 C   0  0  0  0  0  2  0  0  0  0  0  0
  -30.0490  -18.0070   21.9140 C   0  0  0  0  0  2  0  0  0  0  0  0
  -28.9410  -18.7410   19.8690 C   0  0  0  0  0  2  0  0  0  0  0  0
  -29.9930  -18.3120   18.8230 C   0  0  0  0  0  3  0  0  0  0  0  0
  -30.7150  -16.2010   20.2170 N   0  0  0  0  0  0  0  0  0  0  0  0
  -29.5610  -19.1880   21.1370 N   0  0  1  0  0  4  0  0  0  0  0  0
  -30.3750  -19.7350   20.8980 H   0  0  0  0  0  0  0  0  0  0  0  0
  -26.0190  -14.4230   20.3940 C   0  0  0  0  0  0  0  0  0  0  0  0
  -24.9300  -13.6890   20.7660 C   0  0  0  0  0  0  0  0  0  0  0  0
  -25.3250  -12.3160   20.6760 C   0  0  0  0  0  0  0  0  0  0  0  0
  -27.0170  -13.5020   20.1090 N   0  0  0  0  0  0  0  0  0  0  0  0
  -26.6060  -12.2290   20.3360 N   0  0  0  0  0  0  0  0  0  0  0  0
  -24.5490  -11.0840   20.8370 C   0  0  0  0  0  0  0  0  0  0  0  0
  -24.9120  -10.1030   21.7830 C   0  0  0  0  0  3  0  0  0  0  0  0
  -24.1390   -8.9320   21.9300 C   0  0  0  0  0  3  0  0  0  0  0  0
  -22.9880   -8.7370   21.1320 C   0  0  0  0  0  0  0  0  0  0  0  0
  -22.6420   -9.7080   20.1750 C   0  0  0  0  0  3  0  0  0  0  0  0
  -23.4160  -10.8700   20.0250 C   0  0  0  0  0  3  0  0  0  0  0  0
  -22.1880   -7.6220   21.1940 O   0  0  0  0  0  0  0  0  0  0  0  0
  -21.9800   -6.9490   22.3700 C   0  0  0  0  0  0  0  0  0  0  0  0
  -21.4380   -7.5870   23.5080 C   0  0  0  0  0  3  0  0  0  0  0  0
  -21.1710   -6.8420   24.6740 C   0  0  0  0  0  3  0  0  0  0  0  0
  -21.4380   -5.4610   24.7060 C   0  0  0  0  0  0  0  0  0  0  0  0
  -21.9680   -4.8210   23.5720 C   0  0  0  0  0  3  0  0  0  0  0  0
  -22.2360   -5.5630   22.4080 C   0  0  0  0  0  0  0  0  0  0  0  0
  -22.7310   -4.9370   21.3140 F   0  0  0  0  0  0  0  0  0  0  0  0
  -21.1730   -4.7440   25.8240 F   0  0  0  0  0  0  0  0  0  0  0  0
  -23.5630  -14.2160   21.0890 C   0  0  0  0  0  0  0  0  0  0  0  0
  -22.8370  -13.5390   21.9700 N   0  0  0  0  0  0  0  0  0  0  0  0
  -23.1510  -15.2660   20.5990 O   0  0  0  0  0  0  0  0  0  0  0  0
  -23.1790  -12.6880   22.3910 H   0  0  0  0  0  0  0  0  0  0  0  0
  -21.9170  -13.8720   22.2190 H   0  0  0  0  0  0  0  0  0  0  0  0
  -26.2370  -15.7930   20.2470 N   0  0  0  0  0  0  0  0  0  0  0  0
  -25.4660  -16.4430   20.3380 H   0  0  0  0  0  0  0  0  0  0  0  0
  -27.0310  -16.1840   19.7630 H   0  0  0  0  0  0  0  0  0  0  0  0
  -29.6530  -18.7330   17.3580 C   0  0  0  0  0  2  0  0  0  0  0  0
  -27.8430  -20.5680   17.3780 C   0  0  0  0  0  1  0  0  0  0  0  0
  -27.8440  -18.8330   15.5480 C   0  0  0  0  0  1  0  0  0  0  0  0
  -28.1790  -19.0990   17.0230 C   0  0  0  0  0  3  0  0  0  0  0  0
  1 50  1  0
  2  1  1  0
  3  2  1  0
  3 49  1  0
  5  3  1  0
  5  4  1  0
  6  5  1  0
  7  6  1  0
  7  9  1  0
  8 19  2  0
  9 14  1  0
 10 18  1  0
 10 20  1  0
 11 17  1  0
 11 13  1  0
 12 18  1  0
 13 12  1  0
 14 13  2  0
 15 16  1  0
 15  9  2  0
 16 11  2  0
 17 10  1  0
 18  8  1  0
 20 22  2  0
 21 20  1  0
 23 21  1  0
 24 33  2  0
 24 29  1  0
 25 21  1  0
 25 29  1  0
 26 25  1  0
 27 28  1  0
 27 26  1  0
 28 24  1  0
 29 30  2  0
 30 31  1  0
 32 31  2  0
 33 32  1  0
 34  8  1  0
 34 35  1  0
 34 44  1  0
 35 38  1  0
 36 35  1  0
 36 40  1  0
 37 36  2  0
 40 39  1  0
 40 42  1  0
 42 43  1  0
 42 41  1  0
 44 47  1  1
 44 45  1  0
 46 44  1  0
 48 49  1  0
 51 64  1  0
 52 57  1  0
 53 54  1  0
 53 52  1  0
 55 54  1  0
 55 70  1  0
 55 56  1  0
 57 51  1  0
 57 56  1  0
 58 51  2  0
 59 61  1  0
 60 64  1  0
 62 65  1  0
 63 95  1  0
 63 60  1  0
 63 62  1  0
 64 59  1  0
 65 61  1  0
 65 50  1  0
 65 66  1  6
 67 68  2  0
 68 87  1  0
 69 68  1  0
 69 72  1  0
 70 71  1  0
 70 67  1  0
 71 69  2  0
 72 73  1  0
 73 74  2  0
 75 78  1  0
 75 74  1  0
 76 75  2  0
 77 76  1  0
 77 72  2  0
 78 79  1  0
 79 84  2  0
 79 80  1  0
 80 81  2  0
 81 82  1  0
 82 86  1  0
 83 82  2  0
 84 83  1  0
 85 84  1  0
 87 88  1  0
 88 91  1  0
 88 90  1  0
 89 87  2  0
 92 93  1  0
 92 67  1  0
 94 92  1  0
 97 98  1  0
 98 95  1  0
 98 96  1  0
M  ISO  4   6 101   7 101  51 100  64 100
M  END
>  <TORSDO>  (86) 
F 24

>  <SCORE>  (86) 
-9.138

>  <name>  (86) 
86

>  <ligand_id>  (86) 
86

>  <original_smiles>  (86) 
[H]c1c([H])c([H])c2c(c1[H])C([H])([H])C([H])([H])C([H])([H])C2([H])N([H])C(=O)C1([H])N(C(=O)C([H])(N([H])C(=O)C([H])(N([H])C([H])([H])[H])C([H])([H])[H])C(C([H])([H])[H])(C([H])([H])[H])C([H])([H])[H])C([H])([H])c2c([H])c(OC([H])([H])C([H])(C([H])([H])[H])C([H])(C([H])([H])C([H])([H])[H])C([H])([H])C([H])([H])C([H])([H])[N+]3([H])C([H])([H])C([H])([H])N(C(=O)N4C([H])([H])C([H])([H])C([H])([H])C([H])(n5nc(-c6c([H])c([H])c(Oc7c([H])c([H])c(F)c([H])c7F)c([H])c6[H])c(C(=O)N([H])[H])c5N([H])[H])C4([H])[H])C([H])([H])C([H])(C([H])([H])C([H])(C([H])([H])[H])C([H])([H])[H])C3([H])[H])c([H])c([H])c2C1([H])[H]

>  <smiles>  (86) 
[H]c1c([H])c([H])c2c(c1[H])C([H])([H])C([H])([H])C([H])([H])C2([H])N([H])C(=O)C1([H])N(C(=O)C([H])(N([H])C(=O)C([H])(N([H])C([H])([H])[H])C([H])([H])[H])C(C([H])([H])[H])(C([H])([H])[H])C([H])([H])[H])C([H])([H])c2c([H])c(OC([H])([H])C([H])(C([H])([H])[H])C([H])(C([H])([H])C([H])([H])[H])C([H])([H])C([H])([H])C([H])([H])[N+]3([H])C([H])([H])C([H])([H])N(C(=O)N4C([H])([H])C([H])([H])C([H])([H])C([H])(n5nc(-c6c([H])c([H])c(Oc7c([H])c([H])c(F)c([H])c7F)c([H])c6[H])c(C(=O)N([H])[H])c5N([H])[H])C4([H])[H])C([H])([H])C([H])(C([H])([H])C([H])(C([H])([H])[H])C([H])([H])[H])C3([H])[H])c([H])c([H])c2C1([H])[H]

$$$$
87:0:0
     RDKit          3D

 94102  0  0  1  0  0  0  0  0999 V2000
  -29.1210  -19.7820   19.3680 C   0  0  0  0  0  0  0  0  0  0  0  0
  -29.0310  -19.6640   18.1430 O   0  0  0  0  0  0  0  0  0  0  0  0
  -30.8060  -15.0600   19.9610 C   0  0  0  0  0  0  0  0  0  0  0  0
  -30.5680  -12.8140   18.9640 C   0  0  0  0  0  2  0  0  0  0  0  0
  -29.5630  -12.9030   17.7950 C   0  0  0  0  0  2  0  0  0  0  0  0
  -28.1160  -12.7320   18.3000 C   0  0  0  0  0  2  0  0  0  0  0  0
  -27.7950  -13.6320   19.5230 C   0  0  0  0  0  3  0  0  0  0  0  0
  -28.9060  -13.5230   20.5890 C   0  0  0  0  0  2  0  0  0  0  0  0
  -30.1900  -13.8460   19.9450 N   0  0  0  0  0  0  0  0  0  0  0  0
  -31.8770  -15.2720   19.3850 O   0  0  0  0  0  0  0  0  0  0  0  0
  -30.7650  -18.8290   21.0940 C   0  0  0  0  0  2  0  0  0  0  0  0
  -29.6330  -17.2010   19.5380 C   0  0  0  0  0  2  0  0  0  0  0  0
  -30.1670  -16.4420   21.8530 C   0  0  0  0  0  2  0  0  0  0  0  0
  -29.4850  -18.5730   20.2720 C   0  0  0  0  0  3  0  0  0  0  0  0
  -31.0940  -17.6660   22.0630 C   0  0  0  0  0  3  0  0  0  0  0  0
  -30.0600  -16.0880   20.4310 N   0  0  0  0  0  0  0  0  0  0  0  0
  -25.4500  -14.2010   20.4240 C   0  0  0  0  0  0  0  0  0  0  0  0
  -24.4080  -13.4090   20.8280 C   0  0  0  0  0  0  0  0  0  0  0  0
  -24.8640  -12.0600   20.6960 C   0  0  0  0  0  0  0  0  0  0  0  0
  -26.4760  -13.3330   20.0790 N   0  0  0  0  0  0  0  0  0  0  0  0
  -26.1310  -12.0390   20.2990 N   0  0  0  0  0  0  0  0  0  0  0  0
  -24.1510  -10.7880   20.8710 C   0  0  0  0  0  0  0  0  0  0  0  0
  -24.5440   -9.8470   21.8470 C   0  0  0  0  0  3  0  0  0  0  0  0
  -23.8310   -8.6390   22.0080 C   0  0  0  0  0  3  0  0  0  0  0  0
  -22.7100   -8.3640   21.1890 C   0  0  0  0  0  0  0  0  0  0  0  0
  -22.3360   -9.2930   20.2030 C   0  0  0  0  0  3  0  0  0  0  0  0
  -23.0510  -10.4930   20.0410 C   0  0  0  0  0  3  0  0  0  0  0  0
  -21.9710   -7.2070   21.2570 O   0  0  0  0  0  0  0  0  0  0  0  0
  -21.7190   -6.5830   22.4520 C   0  0  0  0  0  0  0  0  0  0  0  0
  -21.0270   -7.2310   23.4990 C   0  0  0  0  0  3  0  0  0  0  0  0
  -20.7270   -6.5320   24.6840 C   0  0  0  0  0  3  0  0  0  0  0  0
  -21.1100   -5.1840   24.8230 C   0  0  0  0  0  0  0  0  0  0  0  0
  -21.7940   -4.5350   23.7800 C   0  0  0  0  0  3  0  0  0  0  0  0
  -22.0950   -5.2320   22.5970 C   0  0  0  0  0  0  0  0  0  0  0  0
  -22.7360   -4.5960   21.5870 F   0  0  0  0  0  0  0  0  0  0  0  0
  -20.8150   -4.5080   25.9580 F   0  0  0  0  0  0  0  0  0  0  0  0
  -23.0320  -13.8670   21.2180 C   0  0  0  0  0  0  0  0  0  0  0  0
  -22.3810  -13.1490   22.1280 N   0  0  0  0  0  0  0  0  0  0  0  0
  -22.5450  -14.8950   20.7530 O   0  0  0  0  0  0  0  0  0  0  0  0
  -22.7850  -12.3140   22.5250 H   0  0  0  0  0  0  0  0  0  0  0  0
  -21.4620  -13.4380   22.4320 H   0  0  0  0  0  0  0  0  0  0  0  0
  -25.6030  -15.5800   20.2980 N   0  0  0  0  0  0  0  0  0  0  0  0
  -24.8460  -16.2310   20.4790 H   0  0  0  0  0  0  0  0  0  0  0  0
  -26.4320  -16.0280   19.9290 H   0  0  0  0  0  0  0  0  0  0  0  0
  -29.8480  -18.6010   24.1520 C   0  0  0  0  0  1  0  0  0  0  0  0
  -31.1730  -18.1130   23.5420 C   0  0  2  0  0  0  0  0  0  0  0  0
  -32.0710  -19.0930   23.6470 F   0  0  0  0  0  0  0  0  0  0  0  0
  -31.6160  -17.0920   24.2730 F   0  0  0  0  0  0  0  0  0  0  0  0
  -28.8560  -21.1380   20.0590 C   0  0  0  0  0  2  0  0  0  0  0  0
  -27.7610  -22.0490   19.4240 C   0  0  0  0  0  2  0  0  0  0  0  0
  -28.2470  -23.3520   18.7270 C   0  0  0  0  0  2  0  0  0  0  0  0
  -27.7920  -24.6800   19.3970 C   0  0  0  0  0  2  0  0  0  0  0  0
  -28.2180  -25.9450   18.6010 C   0  0  0  0  0  2  0  0  0  0  0  0
  -28.1260  -27.1800   19.3340 O   0  0  0  0  0  0  0  0  0  0  0  0
  -24.4310  -31.9240   23.1460 C   0  0  0  0  0  0  0  0  0  0  0  0
  -26.9180  -27.8370   19.4740 C   0  0  0  0  0  0  0  0  0  0  0  0
  -23.1260  -30.6240   21.4940 C   0  0  0  0  0  3  0  0  0  0  0  0
  -24.4910  -29.2590   19.8260 C   0  0  0  0  0  0  0  0  0  0  0  0
  -25.6170  -31.0780   21.1210 C   0  0  0  0  0  2  0  0  0  0  0  0
  -25.6810  -29.7680   20.3570 C   0  0  0  0  0  0  0  0  0  0  0  0
  -26.8930  -29.0620   20.1820 C   0  0  0  0  0  3  0  0  0  0  0  0
  -25.7040  -27.3380   18.9480 C   0  0  0  0  0  3  0  0  0  0  0  0
  -24.4980  -28.0430   19.1220 C   0  0  0  0  0  3  0  0  0  0  0  0
  -23.2350  -30.0690   20.0490 C   0  0  0  0  0  2  0  0  0  0  0  0
  -24.4140  -31.2210   21.9770 N   0  0  0  0  0  0  0  0  0  0  0  0
  -23.3930  -32.1130   23.7960 O   0  0  0  0  0  0  0  0  0  0  0  0
  -22.5880  -29.5060   22.4140 C   0  0  0  0  0  0  0  0  0  0  0  0
  -21.2780  -29.2270   22.3130 N   0  0  0  0  0  0  0  0  0  0  0  0
  -23.3420  -28.8940   23.1760 O   0  0  0  0  0  0  0  0  0  0  0  0
  -20.7260  -29.7740   21.6700 H   0  0  0  0  0  0  0  0  0  0  0  0
  -18.0460  -27.6780   22.7630 C   0  0  0  0  0  0  0  0  0  0  0  0
  -20.5620  -28.1870   23.0510 C   0  0  0  0  0  3  0  0  0  0  0  0
  -20.8120  -26.7930   22.4290 C   0  0  0  0  0  2  0  0  0  0  0  0
  -19.7490  -26.3900   21.4040 C   0  0  0  0  0  2  0  0  0  0  0  0
  -18.3580  -26.3750   22.0470 C   0  0  0  0  0  2  0  0  0  0  0  0
  -19.0790  -28.5360   23.2210 C   0  0  0  0  0  0  0  0  0  0  0  0
  -18.7350  -29.7540   23.8480 C   0  0  0  0  0  3  0  0  0  0  0  0
  -17.3860  -30.1140   24.0260 C   0  0  0  0  0  3  0  0  0  0  0  0
  -16.3660  -29.2540   23.5860 C   0  0  0  0  0  3  0  0  0  0  0  0
  -16.6950  -28.0390   22.9590 C   0  0  0  0  0  3  0  0  0  0  0  0
  -25.7490  -32.5440   23.7080 C   0  0  0  0  0  3  0  0  0  0  0  0
  -25.4640  -33.9370   24.0760 N   0  0  0  0  0  0  0  0  0  0  0  0
  -25.7640  -34.9990   23.3180 C   0  0  0  0  0  0  0  0  0  0  0  0
  -26.3830  -34.9110   22.2540 O   0  0  0  0  0  0  0  0  0  0  0  0
  -24.9150  -34.0810   24.9110 H   0  0  0  0  0  0  0  0  0  0  0  0
  -24.0260  -36.7990   23.0710 C   0  0  0  0  0  1  0  0  0  0  0  0
  -25.3010  -36.3800   23.8200 C   0  0  0  0  0  3  0  0  0  0  0  0
  -27.4690  -37.2530   24.5740 C   0  0  0  0  0  1  0  0  0  0  0  0
  -26.3310  -37.4330   23.6770 N   0  0  0  0  0  0  0  0  0  0  0  0
  -25.9330  -38.3530   23.8520 H   0  0  0  0  0  0  0  0  0  0  0  0
  -26.3340  -31.7480   24.9400 C   0  0  1  0  0  0  0  0  0  0  0  0
  -25.2990  -31.4770   26.0550 C   0  0  0  0  0  1  0  0  0  0  0  0
  -26.9030  -30.3840   24.4850 C   0  0  0  0  0  1  0  0  0  0  0  0
  -27.5100  -32.5360   25.5630 C   0  0  0  0  0  1  0  0  0  0  0  0
  1 49  1  0
  2  1  2  0
  3 16  1  0
  4  9  1  0
  5  6  1  0
  5  4  1  0
  7  6  1  0
  7 20  1  0
  7  8  1  0
  9  3  1  0
  9  8  1  0
 10  3  2  0
 11 15  1  0
 12 14  1  0
 12 16  1  0
 13 15  1  0
 14  1  1  0
 14 11  1  0
 15 46  1  0
 16 13  1  0
 17 18  2  0
 18 37  1  0
 19 18  1  0
 19 22  1  0
 20 21  1  0
 20 17  1  0
 21 19  2  0
 22 23  1  0
 23 24  2  0
 25 28  1  0
 25 24  1  0
 26 25  2  0
 27 26  1  0
 27 22  2  0
 28 29  1  0
 29 34  2  0
 29 30  1  0
 30 31  2  0
 31 32  1  0
 32 36  1  0
 33 32  2  0
 34 33  1  0
 35 34  1  0
 37 38  1  0
 38 41  1  0
 38 40  1  0
 39 37  2  0
 42 17  1  0
 42 43  1  0
 44 42  1  0
 46 47  1  0
 46 45  1  1
 46 48  1  0
 50 49  1  0
 51 52  1  0
 51 50  1  0
 53 54  1  0
 53 52  1  0
 54 56  1  0
 55 66  2  0
 56 61  1  0
 57 65  1  0
 57 67  1  0
 58 64  1  0
 58 60  1  0
 59 65  1  0
 60 59  1  0
 61 60  2  0
 62 63  1  0
 62 56  2  0
 63 58  2  0
 64 57  1  0
 65 55  1  0
 67 69  2  0
 68 67  1  0
 70 68  1  0
 71 80  2  0
 71 76  1  0
 72 68  1  0
 72 76  1  0
 73 72  1  0
 74 75  1  0
 74 73  1  0
 75 71  1  0
 76 77  2  0
 77 78  1  0
 79 78  2  0
 80 79  1  0
 81 55  1  0
 81 82  1  0
 81 91  1  0
 82 85  1  0
 83 87  1  0
 83 82  1  0
 84 83  2  0
 87 86  1  0
 89 87  1  0
 89 90  1  0
 89 88  1  0
 91 94  1  1
 91 92  1  0
 93 91  1  0
M  ISO  4   3 100  16 100  53 101  54 101
M  END
>  <TORSDO>  (87) 
F 22

>  <SCORE>  (87) 
-9.075

>  <name>  (87) 
87

>  <ligand_id>  (87) 
87

>  <original_smiles>  (87) 
[H]c1c([H])c([H])c2c(c1[H])C([H])([H])C([H])([H])C([H])([H])C2([H])N([H])C(=O)C1([H])N(C(=O)C([H])(N([H])C(=O)C([H])(N([H])C([H])([H])[H])C([H])([H])[H])C(C([H])([H])[H])(C([H])([H])[H])C([H])([H])[H])C([H])([H])c2c([H])c(OC([H])([H])C([H])([H])C([H])([H])C([H])([H])C([H])([H])C(=O)C3([H])C([H])([H])N(C(=O)N4C([H])([H])C([H])([H])C([H])([H])C([H])(n5nc(-c6c([H])c([H])c(Oc7c([H])c([H])c(F)c([H])c7F)c([H])c6[H])c(C(=O)N([H])[H])c5N([H])[H])C4([H])[H])C([H])([H])C([H])(C(F)(F)C([H])([H])[H])C3([H])[H])c([H])c([H])c2C1([H])[H]

>  <smiles>  (87) 
[H]c1c([H])c([H])c2c(c1[H])C([H])([H])C([H])([H])C([H])([H])C2([H])N([H])C(=O)C1([H])N(C(=O)C([H])(N([H])C(=O)C([H])(N([H])C([H])([H])[H])C([H])([H])[H])C(C([H])([H])[H])(C([H])([H])[H])C([H])([H])[H])C([H])([H])c2c([H])c(OC([H])([H])C([H])([H])C([H])([H])C([H])([H])C([H])([H])C(=O)C3([H])C([H])([H])N(C(=O)N4C([H])([H])C([H])([H])C([H])([H])C([H])(n5nc(-c6c([H])c([H])c(Oc7c([H])c([H])c(F)c([H])c7F)c([H])c6[H])c(C(=O)N([H])[H])c5N([H])[H])C4([H])[H])C([H])([H])C([H])(C(F)(F)C([H])([H])[H])C3([H])[H])c([H])c([H])c2C1([H])[H]

$$$$
88:0:0
     RDKit          3D

 89 97  0  0  1  0  0  0  0  0999 V2000
  -28.5370  -22.6630   20.7880 C   0  0  0  0  0  0  0  0  0  0  0  0
  -27.8230  -22.6730   21.7940 O   0  0  0  0  0  0  0  0  0  0  0  0
  -29.1470  -21.3080   20.2910 C   0  0  0  0  0  2  0  0  0  0  0  0
  -28.6710  -20.0460   21.1080 C   0  0  0  0  0  2  0  0  0  0  0  0
  -30.2650  -16.5140   21.5640 C   0  0  0  0  0  3  0  0  0  0  0  0
  -29.5630  -16.7160   19.2610 C   0  0  0  0  0  3  0  0  0  0  0  0
  -29.8060  -17.8370   21.8060 C   0  0  0  0  0  3  0  0  0  0  0  0
  -29.1040  -18.0400   19.5030 C   0  0  0  0  0  3  0  0  0  0  0  0
  -30.1560  -15.9260   20.2810 C   0  0  0  0  0  0  0  0  0  0  0  0
  -29.2310  -18.6320   20.7810 C   0  0  0  0  0  0  0  0  0  0  0  0
  -30.8510  -14.6130   19.9280 C   0  0  0  0  0  0  0  0  0  0  0  0
  -30.4760  -12.4160   18.8720 C   0  0  0  0  0  2  0  0  0  0  0  0
  -29.4440  -12.5920   17.7390 C   0  0  0  0  0  2  0  0  0  0  0  0
  -28.0140  -12.4340   18.2880 C   0  0  0  0  0  2  0  0  0  0  0  0
  -27.7640  -13.2790   19.5670 C   0  0  0  0  0  3  0  0  0  0  0  0
  -28.9130  -13.1340   20.5870 C   0  0  0  0  0  2  0  0  0  0  0  0
  -30.1740  -13.4270   19.9010 N   0  0  0  0  0  0  0  0  0  0  0  0
  -31.9800  -14.7200   19.4440 O   0  0  0  0  0  0  0  0  0  0  0  0
  -25.4690  -13.8460   20.5690 C   0  0  0  0  0  0  0  0  0  0  0  0
  -24.4300  -13.0580   20.9860 C   0  0  0  0  0  0  0  0  0  0  0  0
  -24.8630  -11.7080   20.8130 C   0  0  0  0  0  0  0  0  0  0  0  0
  -26.4670  -12.9740   20.1670 N   0  0  0  0  0  0  0  0  0  0  0  0
  -26.1160  -11.6800   20.3750 N   0  0  0  0  0  0  0  0  0  0  0  0
  -24.1370  -10.4420   20.9860 C   0  0  0  0  0  0  0  0  0  0  0  0
  -24.5760   -9.4550   21.8960 C   0  0  0  0  0  3  0  0  0  0  0  0
  -23.8510   -8.2550   22.0570 C   0  0  0  0  0  3  0  0  0  0  0  0
  -22.6700   -8.0340   21.3090 C   0  0  0  0  0  0  0  0  0  0  0  0
  -22.2490   -9.0090   20.3870 C   0  0  0  0  0  3  0  0  0  0  0  0
  -22.9760  -10.2010   20.2240 C   0  0  0  0  0  3  0  0  0  0  0  0
  -21.9150   -6.8880   21.3790 O   0  0  0  0  0  0  0  0  0  0  0  0
  -21.7840   -6.1850   22.5500 C   0  0  0  0  0  0  0  0  0  0  0  0
  -21.2630   -6.7770   23.7210 C   0  0  0  0  0  3  0  0  0  0  0  0
  -21.0790   -5.9990   24.8810 C   0  0  0  0  0  3  0  0  0  0  0  0
  -21.4050   -4.6300   24.8720 C   0  0  0  0  0  0  0  0  0  0  0  0
  -21.9200   -4.0370   23.7050 C   0  0  0  0  0  3  0  0  0  0  0  0
  -22.1040   -4.8120   22.5460 C   0  0  0  0  0  0  0  0  0  0  0  0
  -22.5800   -4.2310   21.4190 F   0  0  0  0  0  0  0  0  0  0  0  0
  -21.2230   -3.8810   25.9840 F   0  0  0  0  0  0  0  0  0  0  0  0
  -23.0750  -13.5290   21.4320 C   0  0  0  0  0  0  0  0  0  0  0  0
  -22.4310  -12.7850   22.3250 N   0  0  0  0  0  0  0  0  0  0  0  0
  -22.6010  -14.5880   21.0240 O   0  0  0  0  0  0  0  0  0  0  0  0
  -22.8300  -11.9260   22.6730 H   0  0  0  0  0  0  0  0  0  0  0  0
  -21.5260  -13.0800   22.6650 H   0  0  0  0  0  0  0  0  0  0  0  0
  -25.6410  -15.2230   20.4760 N   0  0  0  0  0  0  0  0  0  0  0  0
  -24.9130  -15.8830   20.7230 H   0  0  0  0  0  0  0  0  0  0  0  0
  -26.4880  -15.6720   20.1470 H   0  0  0  0  0  0  0  0  0  0  0  0
  -28.8200  -24.0040   20.0300 C   0  0  0  0  0  2  0  0  0  0  0  0
  -28.2670  -25.2980   20.7410 C   0  0  0  0  0  2  0  0  0  0  0  0
  -28.4430  -26.5920   20.0790 O   0  0  0  0  0  0  0  0  0  0  0  0
  -24.6580  -31.8590   23.1400 C   0  0  0  0  0  0  0  0  0  0  0  0
  -27.3130  -27.3990   20.0560 C   0  0  0  0  0  0  0  0  0  0  0  0
  -23.4580  -30.4470   21.5060 C   0  0  0  0  0  3  0  0  0  0  0  0
  -24.9190  -28.9250   20.0650 C   0  0  0  0  0  0  0  0  0  0  0  0
  -25.9840  -30.8210   21.2940 C   0  0  0  0  0  2  0  0  0  0  0  0
  -26.0800  -29.4480   20.6470 C   0  0  0  0  0  0  0  0  0  0  0  0
  -27.2860  -28.6970   20.6330 C   0  0  0  0  0  3  0  0  0  0  0  0
  -26.1360  -26.9090   19.4520 C   0  0  0  0  0  3  0  0  0  0  0  0
  -24.9450  -27.6570   19.4590 C   0  0  0  0  0  3  0  0  0  0  0  0
  -23.6670  -29.7730   20.1230 C   0  0  0  0  0  2  0  0  0  0  0  0
  -24.7190  -31.0580   22.0380 N   0  0  0  0  0  0  0  0  0  0  0  0
  -23.5770  -32.1210   23.6860 O   0  0  0  0  0  0  0  0  0  0  0  0
  -22.8210  -29.4190   22.4700 C   0  0  0  0  0  0  0  0  0  0  0  0
  -21.4950  -29.2320   22.3590 N   0  0  0  0  0  0  0  0  0  0  0  0
  -23.5170  -28.7930   23.2740 O   0  0  0  0  0  0  0  0  0  0  0  0
  -20.9940  -29.7910   21.6830 H   0  0  0  0  0  0  0  0  0  0  0  0
  -18.1320  -28.0240   22.9040 C   0  0  0  0  0  0  0  0  0  0  0  0
  -20.6920  -28.2850   23.1350 C   0  0  0  0  0  3  0  0  0  0  0  0
  -20.7890  -26.8590   22.5460 C   0  0  0  0  0  2  0  0  0  0  0  0
  -19.6710  -26.5420   21.5470 C   0  0  0  0  0  2  0  0  0  0  0  0
  -18.3000  -26.6790   22.2150 C   0  0  0  0  0  2  0  0  0  0  0  0
  -19.2550  -28.7840   23.3220 C   0  0  0  0  0  0  0  0  0  0  0  0
  -19.0440  -30.0430   23.9260 C   0  0  0  0  0  3  0  0  0  0  0  0
  -17.7410  -30.5400   24.1160 C   0  0  0  0  0  3  0  0  0  0  0  0
  -16.6320  -29.7760   23.7150 C   0  0  0  0  0  3  0  0  0  0  0  0
  -16.8280  -28.5200   23.1140 C   0  0  0  0  0  3  0  0  0  0  0  0
  -25.9400  -32.5050   23.7520 C   0  0  0  0  0  3  0  0  0  0  0  0
  -25.6100  -33.8910   24.1130 N   0  0  0  0  0  0  0  0  0  0  0  0
  -25.9100  -34.9640   23.3690 C   0  0  0  0  0  0  0  0  0  0  0  0
  -26.5670  -34.8920   22.3250 O   0  0  0  0  0  0  0  0  0  0  0  0
  -25.0270  -34.0200   24.9260 H   0  0  0  0  0  0  0  0  0  0  0  0
  -24.1490  -36.7320   23.0650 C   0  0  0  0  0  1  0  0  0  0  0  0
  -25.4030  -36.3330   23.8580 C   0  0  0  0  0  3  0  0  0  0  0  0
  -27.5290  -37.2370   24.6930 C   0  0  0  0  0  1  0  0  0  0  0  0
  -26.4160  -37.4060   23.7620 N   0  0  0  0  0  0  0  0  0  0  0  0
  -25.9950  -38.3150   23.9330 H   0  0  0  0  0  0  0  0  0  0  0  0
  -26.4940  -31.7210   25.0050 C   0  0  1  0  0  0  0  0  0  0  0  0
  -25.4240  -31.4390   26.0850 C   0  0  0  0  0  1  0  0  0  0  0  0
  -27.0990  -30.3650   24.5750 C   0  0  0  0  0  1  0  0  0  0  0  0
  -27.6370  -32.5270   25.6640 C   0  0  0  0  0  1  0  0  0  0  0  0
  1  2  2  0
  3  1  1  0
  3  4  1  0
  5  7  1  0
  6  8  2  0
  6  9  1  0
  8 10  1  0
  9  5  2  0
 10  4  1  0
 10  7  2  0
 11  9  1  0
 12 17  1  0
 13 14  1  0
 13 12  1  0
 15 14  1  0
 15 22  1  0
 15 16  1  0
 17 11  1  0
 17 16  1  0
 18 11  2  0
 19 20  2  0
 20 39  1  0
 21 24  1  0
 21 20  1  0
 22 23  1  0
 22 19  1  0
 23 21  2  0
 24 25  1  0
 25 26  2  0
 27 30  1  0
 27 26  1  0
 28 27  2  0
 29 28  1  0
 29 24  2  0
 30 31  1  0
 31 32  1  0
 32 33  2  0
 34 33  1  0
 34 38  1  0
 35 34  2  0
 36 31  2  0
 36 35  1  0
 37 36  1  0
 39 40  1  0
 40 43  1  0
 40 42  1  0
 41 39  2  0
 44 19  1  0
 44 45  1  0
 46 44  1  0
 47 48  1  0
 47  1  1  0
 49 48  1  0
 50 61  2  0
 51 49  1  0
 51 56  1  0
 52 60  1  0
 52 62  1  0
 53 59  1  0
 53 55  1  0
 54 60  1  0
 55 54  1  0
 56 55  2  0
 57 58  1  0
 57 51  2  0
 58 53  2  0
 59 52  1  0
 60 50  1  0
 62 64  2  0
 63 62  1  0
 65 63  1  0
 66 75  2  0
 66 71  1  0
 67 63  1  0
 67 71  1  0
 68 67  1  0
 69 70  1  0
 69 68  1  0
 70 66  1  0
 71 72  2  0
 72 73  1  0
 74 73  2  0
 75 74  1  0
 76 50  1  0
 76 77  1  0
 76 86  1  0
 77 80  1  0
 78 82  1  0
 78 77  1  0
 79 78  2  0
 82 81  1  0
 84 82  1  0
 84 85  1  0
 84 83  1  0
 86 89  1  1
 86 87  1  0
 88 86  1  0
M  ISO  4   9 100  11 100  48 101  49 101
M  END
>  <TORSDO>  (88) 
F 21

>  <SCORE>  (88) 
-12.551

>  <name>  (88) 
88

>  <ligand_id>  (88) 
88

>  <original_smiles>  (88) 
[H]c1c([H])c([H])c2c(c1[H])C([H])([H])C([H])([H])C([H])([H])C2([H])N([H])C(=O)C1([H])N(C(=O)C([H])(N([H])C(=O)C([H])(N([H])C([H])([H])[H])C([H])([H])[H])C(C([H])([H])[H])(C([H])([H])[H])C([H])([H])[H])C([H])([H])c2c([H])c(OC([H])([H])C([H])([H])C(=O)C([H])([H])C([H])([H])c3c([H])c([H])c(C(=O)N4C([H])([H])C([H])([H])C([H])([H])C([H])(n5nc(-c6c([H])c([H])c(Oc7c([H])c([H])c(F)c([H])c7F)c([H])c6[H])c(C(=O)N([H])[H])c5N([H])[H])C4([H])[H])c([H])c3[H])c([H])c([H])c2C1([H])[H]

>  <smiles>  (88) 
[H]c1c([H])c([H])c2c(c1[H])C([H])([H])C([H])([H])C([H])([H])C2([H])N([H])C(=O)C1([H])N(C(=O)C([H])(N([H])C(=O)C([H])(N([H])C([H])([H])[H])C([H])([H])[H])C(C([H])([H])[H])(C([H])([H])[H])C([H])([H])[H])C([H])([H])c2c([H])c(OC([H])([H])C([H])([H])C(=O)C([H])([H])C([H])([H])c3c([H])c([H])c(C(=O)N4C([H])([H])C([H])([H])C([H])([H])C([H])(n5nc(-c6c([H])c([H])c(Oc7c([H])c([H])c(F)c([H])c7F)c([H])c6[H])c(C(=O)N([H])[H])c5N([H])[H])C4([H])[H])c([H])c3[H])c([H])c([H])c2C1([H])[H]

$$$$
89:0:0
     RDKit          3D

 96104  0  0  1  0  0  0  0  0999 V2000
  -29.4000  -19.4190   21.5110 C   0  0  0  0  0  2  0  0  0  0  0  0
  -29.5320  -20.2370   19.2360 C   0  0  0  0  0  2  0  0  0  0  0  0
  -28.8780  -20.5630   20.5910 C   0  0  0  0  0  3  0  0  0  0  0  0
  -29.5940  -18.1830   20.5920 C   0  0  0  0  0  3  0  0  0  0  0  0
  -30.2590  -18.8740   19.3820 C   0  0  0  0  0  3  0  0  0  0  0  0
  -29.1290  -22.0250   21.0570 C   0  0  0  0  0  0  0  0  0  0  0  0
  -28.2980  -22.9800   20.5880 N   0  0  0  0  0  0  0  0  0  0  0  0
  -30.0380  -22.2820   21.8470 O   0  0  0  0  0  0  0  0  0  0  0  0
  -27.5880  -22.6760   19.9340 H   0  0  0  0  0  0  0  0  0  0  0  0
  -28.2250  -24.4000   20.9940 C   0  0  0  0  0  2  0  0  0  0  0  0
  -28.5770  -25.3960   19.8550 C   0  0  0  0  0  2  0  0  0  0  0  0
  -28.4970  -26.7840   20.2520 O   0  0  0  0  0  0  0  0  0  0  0  0
  -24.6100  -31.9450   23.2620 C   0  0  0  0  0  0  0  0  0  0  0  0
  -27.2980  -27.4790   20.2230 C   0  0  0  0  0  0  0  0  0  0  0  0
  -23.4270  -30.5360   21.6130 C   0  0  0  0  0  3  0  0  0  0  0  0
  -24.8950  -28.9970   20.2070 C   0  0  0  0  0  0  0  0  0  0  0  0
  -25.9550  -30.8980   21.4370 C   0  0  0  0  0  2  0  0  0  0  0  0
  -26.0480  -29.5240   20.7980 C   0  0  0  0  0  0  0  0  0  0  0  0
  -27.2500  -28.7760   20.7940 C   0  0  0  0  0  3  0  0  0  0  0  0
  -26.1170  -26.9650   19.6370 C   0  0  0  0  0  3  0  0  0  0  0  0
  -24.9270  -27.7190   19.6220 C   0  0  0  0  0  3  0  0  0  0  0  0
  -23.6480  -29.8530   20.2380 C   0  0  0  0  0  2  0  0  0  0  0  0
  -24.6830  -31.1410   22.1620 N   0  0  0  0  0  0  0  0  0  0  0  0
  -23.5220  -32.2130   23.7890 O   0  0  0  0  0  0  0  0  0  0  0  0
  -22.7650  -29.5170   22.5710 C   0  0  0  0  0  0  0  0  0  0  0  0
  -21.4430  -29.3350   22.4290 N   0  0  0  0  0  0  0  0  0  0  0  0
  -23.4400  -28.8910   23.3920 O   0  0  0  0  0  0  0  0  0  0  0  0
  -20.9590  -29.8910   21.7380 H   0  0  0  0  0  0  0  0  0  0  0  0
  -18.0610  -28.1550   22.9040 C   0  0  0  0  0  0  0  0  0  0  0  0
  -20.6170  -28.3990   23.1930 C   0  0  0  0  0  3  0  0  0  0  0  0
  -20.7160  -26.9700   22.6120 C   0  0  0  0  0  2  0  0  0  0  0  0
  -19.6190  -26.6560   21.5910 C   0  0  0  0  0  2  0  0  0  0  0  0
  -18.2340  -26.8070   22.2260 C   0  0  0  0  0  2  0  0  0  0  0  0
  -19.1810  -28.9100   23.3420 C   0  0  0  0  0  0  0  0  0  0  0  0
  -18.9630  -30.1730   23.9360 C   0  0  0  0  0  3  0  0  0  0  0  0
  -17.6600  -30.6800   24.0930 C   0  0  0  0  0  3  0  0  0  0  0  0
  -16.5550  -29.9210   23.6710 C   0  0  0  0  0  3  0  0  0  0  0  0
  -16.7560  -28.6590   23.0820 C   0  0  0  0  0  3  0  0  0  0  0  0
  -25.8870  -32.5820   23.8950 C   0  0  0  0  0  3  0  0  0  0  0  0
  -25.5750  -33.9840   24.2010 N   0  0  0  0  0  0  0  0  0  0  0  0
  -25.9260  -35.0270   23.4360 C   0  0  0  0  0  0  0  0  0  0  0  0
  -26.6160  -34.9090   22.4200 O   0  0  0  0  0  0  0  0  0  0  0  0
  -24.9660  -34.1490   24.9890 H   0  0  0  0  0  0  0  0  0  0  0  0
  -24.2110  -36.8210   23.0270 C   0  0  0  0  0  1  0  0  0  0  0  0
  -25.4340  -36.4220   23.8690 C   0  0  0  0  0  3  0  0  0  0  0  0
  -27.5520  -37.3090   24.7380 C   0  0  0  0  0  1  0  0  0  0  0  0
  -26.4730  -37.4700   23.7670 N   0  0  0  0  0  0  0  0  0  0  0  0
  -26.0670  -38.3940   23.8960 H   0  0  0  0  0  0  0  0  0  0  0  0
  -26.3830  -31.8250   25.1870 C   0  0  1  0  0  0  0  0  0  0  0  0
  -25.2750  -31.6000   26.2420 C   0  0  0  0  0  1  0  0  0  0  0  0
  -26.9690  -30.4420   24.8190 C   0  0  0  0  0  1  0  0  0  0  0  0
  -27.5220  -32.6290   25.8570 C   0  0  0  0  0  1  0  0  0  0  0  0
  -30.3960  -16.9880   21.2320 C   0  0  0  0  0  2  0  0  0  0  0  0
  -30.6580  -14.5950   20.3630 C   0  0  0  0  0  0  0  0  0  0  0  0
  -30.3670  -12.4370   19.1870 C   0  0  0  0  0  2  0  0  0  0  0  0
  -29.4050  -12.6350   17.9980 C   0  0  0  0  0  2  0  0  0  0  0  0
  -27.9380  -12.4770   18.4490 C   0  0  0  0  0  2  0  0  0  0  0  0
  -27.6120  -13.3030   19.7200 C   0  0  0  0  0  3  0  0  0  0  0  0
  -28.6840  -13.0810   20.8090 C   0  0  0  0  0  2  0  0  0  0  0  0
  -29.9920  -13.4140   20.2220 N   0  0  0  0  0  0  0  0  0  0  0  0
  -31.8000  -14.7670   19.9320 O   0  0  0  0  0  0  0  0  0  0  0  0
  -29.9340  -15.6240   20.8690 N   0  0  0  0  0  0  0  0  0  0  0  0
  -28.9880  -15.3930   21.1350 H   0  0  0  0  0  0  0  0  0  0  0  0
  -25.2250  -13.9070   20.4600 C   0  0  0  0  0  0  0  0  0  0  0  0
  -24.1620  -13.1320   20.8430 C   0  0  0  0  0  0  0  0  0  0  0  0
  -24.6270  -11.7830   20.8090 C   0  0  0  0  0  0  0  0  0  0  0  0
  -26.2670  -13.0260   20.2160 N   0  0  0  0  0  0  0  0  0  0  0  0
  -25.9130  -11.7440   20.4860 N   0  0  0  0  0  0  0  0  0  0  0  0
  -23.9050  -10.5190   21.0060 C   0  0  0  0  0  0  0  0  0  0  0  0
  -24.3510   -9.5510   21.9340 C   0  0  0  0  0  3  0  0  0  0  0  0
  -23.6300   -8.3510   22.1190 C   0  0  0  0  0  3  0  0  0  0  0  0
  -22.4490   -8.1130   21.3760 C   0  0  0  0  0  0  0  0  0  0  0  0
  -22.0250   -9.0680   20.4360 C   0  0  0  0  0  3  0  0  0  0  0  0
  -22.7470  -10.2580   20.2480 C   0  0  0  0  0  3  0  0  0  0  0  0
  -21.6990   -6.9650   21.4690 O   0  0  0  0  0  0  0  0  0  0  0  0
  -21.6640   -6.2200   22.6200 C   0  0  0  0  0  0  0  0  0  0  0  0
  -21.2450   -6.7700   23.8520 C   0  0  0  0  0  3  0  0  0  0  0  0
  -21.1590   -5.9520   24.9970 C   0  0  0  0  0  3  0  0  0  0  0  0
  -21.4800   -4.5830   24.9110 C   0  0  0  0  0  0  0  0  0  0  0  0
  -21.8900   -4.0330   23.6840 C   0  0  0  0  0  3  0  0  0  0  0  0
  -21.9810   -4.8490   22.5420 C   0  0  0  0  0  0  0  0  0  0  0  0
  -22.3560   -4.3080   21.3580 F   0  0  0  0  0  0  0  0  0  0  0  0
  -21.3900   -3.7950   26.0070 F   0  0  0  0  0  0  0  0  0  0  0  0
  -22.7670  -13.6070   21.1290 C   0  0  0  0  0  0  0  0  0  0  0  0
  -22.0470  -12.9090   22.0010 N   0  0  0  0  0  0  0  0  0  0  0  0
  -22.3220  -14.6310   20.6150 O   0  0  0  0  0  0  0  0  0  0  0  0
  -22.4170  -12.0800   22.4430 H   0  0  0  0  0  0  0  0  0  0  0  0
  -21.1110  -13.2110   22.2310 H   0  0  0  0  0  0  0  0  0  0  0  0
  -25.3860  -15.2790   20.2760 N   0  0  0  0  0  0  0  0  0  0  0  0
  -24.6190  -15.9340   20.3840 H   0  0  0  0  0  0  0  0  0  0  0  0
  -26.2250  -15.7160   19.9160 H   0  0  0  0  0  0  0  0  0  0  0  0
  -30.2660  -18.0500   18.0830 C   0  0  0  0  0  2  0  0  0  0  0  0
  -31.0090  -18.7400   17.0120 N   0  0  0  0  0  4  0  0  0  0  0  0
  -30.6190  -19.6470   16.8280 H   0  0  0  0  0  0  0  0  0  0  0  0
  -30.9710  -18.2090   16.1610 H   0  0  0  0  0  0  0  0  0  0  0  0
  -31.9740  -18.8560   17.2660 H   0  0  0  0  0  0  0  0  0  0  0  0
  2  5  1  0
  2  3  1  0
  3  6  1  0
  3  1  1  0
  4 53  1  0
  4  1  1  0
  5 92  1  0
  5  4  1  0
  6  8  2  0
  7 10  1  0
  7  6  1  0
  9  7  1  0
 11 12  1  0
 11 10  1  0
 13 24  2  0
 14 12  1  0
 14 19  1  0
 15 23  1  0
 15 25  1  0
 16 22  1  0
 16 18  1  0
 17 23  1  0
 18 17  1  0
 19 18  2  0
 20 14  2  0
 21 20  1  0
 21 16  2  0
 22 15  1  0
 23 13  1  0
 25 27  2  0
 26 25  1  0
 28 26  1  0
 29 38  2  0
 29 34  1  0
 30 26  1  0
 30 34  1  0
 31 30  1  0
 32 33  1  0
 32 31  1  0
 33 29  1  0
 34 35  2  0
 35 36  1  0
 37 36  2  0
 38 37  1  0
 39 13  1  0
 39 40  1  0
 39 49  1  0
 40 43  1  0
 41 45  1  0
 41 40  1  0
 42 41  2  0
 45 44  1  0
 47 45  1  0
 47 48  1  0
 47 46  1  0
 49 52  1  1
 49 50  1  0
 51 49  1  0
 54 62  1  0
 55 60  1  0
 56 57  1  0
 56 55  1  0
 58 57  1  0
 58 67  1  0
 58 59  1  0
 60 54  1  0
 60 59  1  0
 61 54  2  0
 62 63  1  0
 62 53  1  0
 64 65  2  0
 65 84  1  0
 66 65  1  0
 66 69  1  0
 67 64  1  0
 67 68  1  0
 68 66  2  0
 69 70  1  0
 70 71  2  0
 72 75  1  0
 72 71  1  0
 73 72  2  0
 74 73  1  0
 74 69  2  0
 75 76  1  0
 76 77  1  0
 77 78  2  0
 79 78  1  0
 79 83  1  0
 80 79  2  0
 81 76  2  0
 81 80  1  0
 82 81  1  0
 84 85  1  0
 85 88  1  0
 85 87  1  0
 86 84  2  0
 89 90  1  0
 89 64  1  0
 91 89  1  0
 93 96  1  0
 93 92  1  0
 94 93  1  0
 95 93  1  0
M  ISO  4  11 101  12 101  54 100  62 100
M  END
>  <TORSDO>  (89) 
F 22

>  <SCORE>  (89) 
-13.149

>  <name>  (89) 
89

>  <ligand_id>  (89) 
89

>  <original_smiles>  (89) 
[H]c1c([H])c([H])c2c(c1[H])C([H])([H])C([H])([H])C([H])([H])C2([H])N([H])C(=O)C1([H])N(C(=O)C([H])(N([H])C(=O)C([H])(N([H])C([H])([H])[H])C([H])([H])[H])C(C([H])([H])[H])(C([H])([H])[H])C([H])([H])[H])C([H])([H])c2c([H])c(OC([H])([H])C([H])([H])N([H])C(=O)C3([H])C([H])([H])C([H])(C([H])([H])N([H])C(=O)N4C([H])([H])C([H])([H])C([H])([H])C([H])(n5nc(-c6c([H])c([H])c(Oc7c([H])c([H])c(F)c([H])c7F)c([H])c6[H])c(C(=O)N([H])[H])c5N([H])[H])C4([H])[H])C([H])(C([H])([H])[N+]([H])([H])[H])C3([H])[H])c([H])c([H])c2C1([H])[H]

>  <smiles>  (89) 
[H]c1c([H])c([H])c2c(c1[H])C([H])([H])C([H])([H])C([H])([H])C2([H])N([H])C(=O)C1([H])N(C(=O)C([H])(N([H])C(=O)C([H])(N([H])C([H])([H])[H])C([H])([H])[H])C(C([H])([H])[H])(C([H])([H])[H])C([H])([H])[H])C([H])([H])c2c([H])c(OC([H])([H])C([H])([H])N([H])C(=O)C3([H])C([H])([H])C([H])(C([H])([H])N([H])C(=O)N4C([H])([H])C([H])([H])C([H])([H])C([H])(n5nc(-c6c([H])c([H])c(Oc7c([H])c([H])c(F)c([H])c7F)c([H])c6[H])c(C(=O)N([H])[H])c5N([H])[H])C4([H])[H])C([H])(C([H])([H])[N+]([H])([H])[H])C3([H])[H])c([H])c([H])c2C1([H])[H]

$$$$
90:0:0
     RDKit          3D

 95103  0  0  1  0  0  0  0  0999 V2000
  -29.2910  -20.0020   20.6230 N   0  0  0  0  0  4  0  0  0  0  0  0
  -28.5810  -20.3950   21.2230 H   0  0  0  0  0  0  0  0  0  0  0  0
  -28.9480  -20.1130   19.6810 H   0  0  0  0  0  0  0  0  0  0  0  0
  -30.6800  -14.5350   20.2800 C   0  0  0  0  0  0  0  0  0  0  0  0
  -30.3300  -12.3840   19.1180 C   0  0  0  0  0  2  0  0  0  0  0  0
  -29.3640  -12.5810   17.9330 C   0  0  0  0  0  2  0  0  0  0  0  0
  -27.9000  -12.4200   18.3890 C   0  0  0  0  0  2  0  0  0  0  0  0
  -27.5730  -13.2560   19.6530 C   0  0  0  0  0  3  0  0  0  0  0  0
  -28.6600  -13.0840   20.7430 C   0  0  0  0  0  2  0  0  0  0  0  0
  -29.9730  -13.3800   20.1400 N   0  0  0  0  0  0  0  0  0  0  0  0
  -31.8400  -14.6670   19.8820 O   0  0  0  0  0  0  0  0  0  0  0  0
  -29.3260  -17.7710   19.5650 C   0  0  0  0  0  2  0  0  0  0  0  0
  -29.0570  -16.2820   19.7980 C   0  0  0  0  0  2  0  0  0  0  0  0
  -30.4220  -16.3900   21.9130 C   0  0  0  0  0  2  0  0  0  0  0  0
  -30.5110  -17.9450   21.7500 C   0  0  0  0  0  3  0  0  0  0  0  0
  -29.3420  -18.5280   20.8920 C   0  0  0  0  0  3  0  0  0  0  0  0
  -29.9910  -15.6180   20.7240 N   0  0  0  0  0  0  0  0  0  0  0  0
  -25.2010  -13.8780   20.4250 C   0  0  0  0  0  0  0  0  0  0  0  0
  -24.1410  -13.1070   20.8150 C   0  0  0  0  0  0  0  0  0  0  0  0
  -24.6010  -11.7550   20.7740 C   0  0  0  0  0  0  0  0  0  0  0  0
  -26.2370  -12.9930   20.1680 N   0  0  0  0  0  0  0  0  0  0  0  0
  -25.8840  -11.7130   20.4410 N   0  0  0  0  0  0  0  0  0  0  0  0
  -23.8810  -10.4950   20.9740 C   0  0  0  0  0  0  0  0  0  0  0  0
  -24.3310   -9.5290   21.8990 C   0  0  0  0  0  3  0  0  0  0  0  0
  -23.6130   -8.3290   22.0860 C   0  0  0  0  0  3  0  0  0  0  0  0
  -22.4300   -8.0860   21.3460 C   0  0  0  0  0  0  0  0  0  0  0  0
  -21.9990   -9.0420   20.4100 C   0  0  0  0  0  3  0  0  0  0  0  0
  -22.7190  -10.2330   20.2210 C   0  0  0  0  0  3  0  0  0  0  0  0
  -21.6820   -6.9390   21.4440 O   0  0  0  0  0  0  0  0  0  0  0  0
  -21.6420   -6.2030   22.6010 C   0  0  0  0  0  0  0  0  0  0  0  0
  -21.2300   -6.7650   23.8290 C   0  0  0  0  0  3  0  0  0  0  0  0
  -21.1370   -5.9540   24.9780 C   0  0  0  0  0  3  0  0  0  0  0  0
  -21.4480   -4.5820   24.9000 C   0  0  0  0  0  0  0  0  0  0  0  0
  -21.8570   -4.0210   23.6770 C   0  0  0  0  0  3  0  0  0  0  0  0
  -21.9510   -4.8290   22.5310 C   0  0  0  0  0  0  0  0  0  0  0  0
  -22.3230   -4.2800   21.3490 F   0  0  0  0  0  0  0  0  0  0  0  0
  -21.3510   -3.8010   26.0010 F   0  0  0  0  0  0  0  0  0  0  0  0
  -22.7480  -13.5840   21.1110 C   0  0  0  0  0  0  0  0  0  0  0  0
  -22.0380  -12.8910   21.9920 N   0  0  0  0  0  0  0  0  0  0  0  0
  -22.3010  -14.6080   20.5960 O   0  0  0  0  0  0  0  0  0  0  0  0
  -22.4130  -12.0620   22.4320 H   0  0  0  0  0  0  0  0  0  0  0  0
  -21.1050  -13.1930   22.2330 H   0  0  0  0  0  0  0  0  0  0  0  0
  -25.3600  -15.2510   20.2420 N   0  0  0  0  0  0  0  0  0  0  0  0
  -24.5880  -15.8970   20.3590 H   0  0  0  0  0  0  0  0  0  0  0  0
  -26.1860  -15.6820   19.8530 H   0  0  0  0  0  0  0  0  0  0  0  0
  -30.6280  -18.5900   23.1280 C   0  0  0  0  0  3  0  0  0  0  0  0
  -31.7320  -18.8800   23.6740 N   0  0  0  0  0  0  0  0  0  0  0  0
  -32.5270  -18.6250   23.0980 H   0  0  0  0  0  0  0  0  0  0  0  0
  -30.5190  -20.8210   20.7710 C   0  0  0  0  0  2  0  0  0  0  0  0
  -30.5360  -22.1470   19.9600 C   0  0  0  0  0  2  0  0  0  0  0  0
  -28.4230  -22.5270   18.6050 C   0  0  0  0  0  1  0  0  0  0  0  0
  -29.2240  -22.9660   19.8530 C   0  0  0  0  0  3  0  0  0  0  0  0
  -29.4990  -24.4990   19.8650 C   0  0  0  0  0  2  0  0  0  0  0  0
  -28.2250  -25.3480   19.7070 C   0  0  0  0  0  2  0  0  0  0  0  0
  -28.3530  -26.7220   20.1140 O   0  0  0  0  0  0  0  0  0  0  0  0
  -24.5650  -31.9070   23.2540 C   0  0  0  0  0  0  0  0  0  0  0  0
  -27.1790  -27.4590   20.1300 C   0  0  0  0  0  0  0  0  0  0  0  0
  -23.3470  -30.5100   21.6240 C   0  0  0  0  0  3  0  0  0  0  0  0
  -24.7850  -28.9800   20.1850 C   0  0  0  0  0  0  0  0  0  0  0  0
  -25.8720  -30.8670   21.4010 C   0  0  0  0  0  2  0  0  0  0  0  0
  -25.9530  -29.4930   20.7620 C   0  0  0  0  0  0  0  0  0  0  0  0
  -27.1530  -28.7420   20.7310 C   0  0  0  0  0  3  0  0  0  0  0  0
  -25.9780  -26.9670   19.5570 C   0  0  0  0  0  3  0  0  0  0  0  0
  -24.7910  -27.7150   19.5830 C   0  0  0  0  0  3  0  0  0  0  0  0
  -23.5440  -29.8350   20.2420 C   0  0  0  0  0  2  0  0  0  0  0  0
  -24.6150  -31.1080   22.1520 N   0  0  0  0  0  0  0  0  0  0  0  0
  -23.4880  -32.1800   23.8010 O   0  0  0  0  0  0  0  0  0  0  0  0
  -22.7040  -29.4840   22.5860 C   0  0  0  0  0  0  0  0  0  0  0  0
  -21.3800  -29.2980   22.4630 N   0  0  0  0  0  0  0  0  0  0  0  0
  -23.3920  -28.8580   23.3970 O   0  0  0  0  0  0  0  0  0  0  0  0
  -20.8860  -29.8530   21.7790 H   0  0  0  0  0  0  0  0  0  0  0  0
  -18.0090  -28.0900   22.9630 C   0  0  0  0  0  0  0  0  0  0  0  0
  -20.5660  -28.3590   23.2360 C   0  0  0  0  0  3  0  0  0  0  0  0
  -20.6750  -26.9260   22.6630 C   0  0  0  0  0  2  0  0  0  0  0  0
  -19.5740  -26.5960   21.6500 C   0  0  0  0  0  2  0  0  0  0  0  0
  -18.1920  -26.7390   22.2930 C   0  0  0  0  0  2  0  0  0  0  0  0
  -19.1250  -28.8570   23.3910 C   0  0  0  0  0  0  0  0  0  0  0  0
  -18.9010  -30.1220   23.9770 C   0  0  0  0  0  3  0  0  0  0  0  0
  -17.5950  -30.6220   24.1370 C   0  0  0  0  0  3  0  0  0  0  0  0
  -16.4940  -29.8510   23.7250 C   0  0  0  0  0  3  0  0  0  0  0  0
  -16.7030  -28.5860   23.1440 C   0  0  0  0  0  3  0  0  0  0  0  0
  -25.8540  -32.5380   23.8660 C   0  0  0  0  0  3  0  0  0  0  0  0
  -25.5480  -33.9350   24.2030 N   0  0  0  0  0  0  0  0  0  0  0  0
  -25.8670  -34.9880   23.4380 C   0  0  0  0  0  0  0  0  0  0  0  0
  -26.5250  -34.8850   22.3990 O   0  0  0  0  0  0  0  0  0  0  0  0
  -24.9660  -34.0870   25.0140 H   0  0  0  0  0  0  0  0  0  0  0  0
  -24.1300  -36.7730   23.1000 C   0  0  0  0  0  1  0  0  0  0  0  0
  -25.3810  -36.3740   23.8990 C   0  0  0  0  0  3  0  0  0  0  0  0
  -27.5240  -37.2640   24.7020 C   0  0  0  0  0  1  0  0  0  0  0  0
  -26.4090  -37.4300   23.7740 N   0  0  0  0  0  0  0  0  0  0  0  0
  -26.0040  -38.3490   23.9240 H   0  0  0  0  0  0  0  0  0  0  0  0
  -26.3830  -31.7600   25.1320 C   0  0  1  0  0  0  0  0  0  0  0  0
  -25.3010  -31.5120   26.2080 C   0  0  0  0  0  1  0  0  0  0  0  0
  -26.9600  -30.3850   24.7200 C   0  0  0  0  0  1  0  0  0  0  0  0
  -27.5420  -32.5490   25.7860 C   0  0  0  0  0  1  0  0  0  0  0  0
  1 49  1  0
  1  2  1  0
  3  1  1  0
  4 17  1  0
  5 10  1  0
  6  7  1  0
  6  5  1  0
  8  7  1  0
  8 21  1  0
  8  9  1  0
 10  4  1  0
 10  9  1  0
 11  4  2  0
 12 13  1  0
 12 16  1  0
 13 17  1  0
 15 14  1  0
 15 46  1  0
 16  1  1  0
 16 15  1  0
 17 14  1  0
 18 19  2  0
 19 38  1  0
 20 19  1  0
 20 23  1  0
 21 18  1  0
 21 22  1  0
 22 20  2  0
 23 24  1  0
 24 25  2  0
 26 29  1  0
 26 25  1  0
 27 26  2  0
 28 27  1  0
 28 23  2  0
 29 30  1  0
 30 31  1  0
 31 32  2  0
 33 32  1  0
 33 37  1  0
 34 33  2  0
 35 30  2  0
 35 34  1  0
 36 35  1  0
 38 39  1  0
 39 42  1  0
 39 41  1  0
 40 38  2  0
 43 44  1  0
 43 18  1  0
 45 43  1  0
 46 47  2  0
 48 47  1  0
 50 49  1  0
 52 51  1  0
 52 53  1  0
 52 50  1  0
 54 53  1  0
 54 55  1  0
 55 57  1  0
 56 67  2  0
 57 62  1  0
 58 66  1  0
 58 68  1  0
 59 65  1  0
 59 61  1  0
 60 66  1  0
 61 60  1  0
 62 61  2  0
 63 64  1  0
 63 57  2  0
 64 59  2  0
 65 58  1  0
 66 56  1  0
 68 70  2  0
 69 68  1  0
 71 69  1  0
 72 81  2  0
 72 77  1  0
 73 69  1  0
 73 77  1  0
 74 73  1  0
 75 76  1  0
 75 74  1  0
 76 72  1  0
 77 78  2  0
 78 79  1  0
 80 79  2  0
 81 80  1  0
 82 56  1  0
 82 83  1  0
 82 92  1  0
 83 86  1  0
 84 88  1  0
 84 83  1  0
 85 84  2  0
 88 87  1  0
 90 88  1  0
 90 91  1  0
 90 89  1  0
 92 95  1  1
 92 93  1  0
 94 92  1  0
M  ISO  4   4 100  17 100  54 101  55 101
M  END
>  <TORSDO>  (90) 
F 22

>  <SCORE>  (90) 
-12.492

>  <name>  (90) 
90

>  <ligand_id>  (90) 
90

>  <original_smiles>  (90) 
[H]N=C([H])C1([H])C([H])([H])N(C(=O)N2C([H])([H])C([H])([H])C([H])([H])C([H])(n3nc(-c4c([H])c([H])c(Oc5c([H])c([H])c(F)c([H])c5F)c([H])c4[H])c(C(=O)N([H])[H])c3N([H])[H])C2([H])[H])C([H])([H])C([H])([H])C1([H])[N+]([H])([H])C([H])([H])C([H])([H])C([H])(C([H])([H])[H])C([H])([H])C([H])([H])Oc1c([H])c([H])c2c(c1[H])C([H])([H])N(C(=O)C([H])(N([H])C(=O)C([H])(N([H])C([H])([H])[H])C([H])([H])[H])C(C([H])([H])[H])(C([H])([H])[H])C([H])([H])[H])C([H])(C(=O)N([H])C1([H])c3c([H])c([H])c([H])c([H])c3C([H])([H])C([H])([H])C1([H])[H])C2([H])[H]

>  <smiles>  (90) 
[H]N=C([H])C1([H])C([H])([H])N(C(=O)N2C([H])([H])C([H])([H])C([H])([H])C([H])(n3nc(-c4c([H])c([H])c(Oc5c([H])c([H])c(F)c([H])c5F)c([H])c4[H])c(C(=O)N([H])[H])c3N([H])[H])C2([H])[H])C([H])([H])C([H])([H])C1([H])[N+]([H])([H])C([H])([H])C([H])([H])C([H])(C([H])([H])[H])C([H])([H])C([H])([H])Oc1c([H])c([H])c2c(c1[H])C([H])([H])N(C(=O)C([H])(N([H])C(=O)C([H])(N([H])C([H])([H])[H])C([H])([H])[H])C(C([H])([H])[H])(C([H])([H])[H])C([H])([H])[H])C([H])(C(=O)N([H])C1([H])c3c([H])c([H])c([H])c([H])c3C([H])([H])C([H])([H])C1([H])[H])C2([H])[H]

$$$$
91:0:0
     RDKit          3D

 95102  0  0  1  0  0  0  0  0999 V2000
  -30.7960  -23.0080   20.3770 C   0  0  0  0  0  3  0  0  0  0  0  0
  -31.8910  -22.8870   21.3660 N   0  0  0  0  0  4  0  0  0  0  0  0
  -31.5460  -22.4490   22.2070 H   0  0  0  0  0  0  0  0  0  0  0  0
  -32.2770  -23.7850   21.5990 H   0  0  0  0  0  0  0  0  0  0  0  0
  -32.6340  -22.3180   21.0010 H   0  0  0  0  0  0  0  0  0  0  0  0
  -30.1420  -21.6360   19.9860 C   0  0  0  0  0  2  0  0  0  0  0  0
  -30.0880  -20.4920   21.0210 C   0  0  0  0  0  0  0  0  0  0  0  0
  -29.9270  -19.2550   20.5270 N   0  0  0  0  0  0  0  0  0  0  0  0
  -30.2300  -20.7130   22.2280 O   0  0  0  0  0  0  0  0  0  0  0  0
  -29.8020  -19.1810   19.5250 H   0  0  0  0  0  0  0  0  0  0  0  0
  -29.9670  -17.9880   21.2620 C   0  0  0  0  0  2  0  0  0  0  0  0
  -30.0700  -16.8330   20.2440 C   0  0  0  0  0  2  0  0  0  0  0  0
  -30.6590  -14.4410   20.4390 C   0  0  0  0  0  0  0  0  0  0  0  0
  -30.3460  -12.2760   19.3230 C   0  0  0  0  0  2  0  0  0  0  0  0
  -29.4090  -12.5070   18.1210 C   0  0  0  0  0  2  0  0  0  0  0  0
  -27.9340  -12.3880   18.5540 C   0  0  0  0  0  2  0  0  0  0  0  0
  -27.6070  -13.2220   19.8250 C   0  0  0  0  0  3  0  0  0  0  0  0
  -28.6650  -12.9840   20.9280 C   0  0  0  0  0  2  0  0  0  0  0  0
  -29.9910  -13.2600   20.3540 N   0  0  0  0  0  0  0  0  0  0  0  0
  -31.7920  -14.6100   19.9820 O   0  0  0  0  0  0  0  0  0  0  0  0
  -29.9050  -15.4880   20.8080 N   0  0  0  0  0  0  0  0  0  0  0  0
  -28.9950  -15.2620   21.1850 H   0  0  0  0  0  0  0  0  0  0  0  0
  -25.2100  -13.8360   20.5380 C   0  0  0  0  0  0  0  0  0  0  0  0
  -24.1430  -13.0650   20.9130 C   0  0  0  0  0  0  0  0  0  0  0  0
  -24.6030  -11.7130   20.8820 C   0  0  0  0  0  0  0  0  0  0  0  0
  -26.2540  -12.9520   20.3070 N   0  0  0  0  0  0  0  0  0  0  0  0
  -25.8920  -11.6730   20.5710 N   0  0  0  0  0  0  0  0  0  0  0  0
  -23.8760  -10.4520   21.0790 C   0  0  0  0  0  0  0  0  0  0  0  0
  -24.3260   -9.4730   21.9920 C   0  0  0  0  0  3  0  0  0  0  0  0
  -23.6010   -8.2750   22.1750 C   0  0  0  0  0  3  0  0  0  0  0  0
  -22.4100   -8.0480   21.4450 C   0  0  0  0  0  0  0  0  0  0  0  0
  -21.9780   -9.0160   20.5190 C   0  0  0  0  0  3  0  0  0  0  0  0
  -22.7040  -10.2050   20.3340 C   0  0  0  0  0  3  0  0  0  0  0  0
  -21.6550   -6.9040   21.5390 O   0  0  0  0  0  0  0  0  0  0  0  0
  -21.6500   -6.1380   22.6780 C   0  0  0  0  0  0  0  0  0  0  0  0
  -21.2920   -6.6730   23.9370 C   0  0  0  0  0  3  0  0  0  0  0  0
  -21.2290   -5.8300   25.0640 C   0  0  0  0  0  3  0  0  0  0  0  0
  -21.5140   -4.4560   24.9380 C   0  0  0  0  0  0  0  0  0  0  0  0
  -21.8670   -3.9240   23.6850 C   0  0  0  0  0  3  0  0  0  0  0  0
  -21.9300   -4.7620   22.5580 C   0  0  0  0  0  0  0  0  0  0  0  0
  -22.2460   -4.2390   21.3490 F   0  0  0  0  0  0  0  0  0  0  0  0
  -21.4490   -3.6480   26.0220 F   0  0  0  0  0  0  0  0  0  0  0  0
  -22.7460  -13.5430   21.1910 C   0  0  0  0  0  0  0  0  0  0  0  0
  -22.0220  -12.8480   22.0610 N   0  0  0  0  0  0  0  0  0  0  0  0
  -22.3070  -14.5680   20.6700 O   0  0  0  0  0  0  0  0  0  0  0  0
  -22.3940  -12.0230   22.5100 H   0  0  0  0  0  0  0  0  0  0  0  0
  -21.0870  -13.1520   22.2920 H   0  0  0  0  0  0  0  0  0  0  0  0
  -25.3780  -15.2050   20.3590 N   0  0  0  0  0  0  0  0  0  0  0  0
  -24.6120  -15.8620   20.4550 H   0  0  0  0  0  0  0  0  0  0  0  0
  -26.2240  -15.6390   20.0130 H   0  0  0  0  0  0  0  0  0  0  0  0
  -29.7710  -24.1150   20.7690 C   0  0  0  0  0  2  0  0  0  0  0  0
  -31.2100  -26.0270   19.7410 C   0  0  0  0  0  1  0  0  0  0  0  0
  -30.3350  -25.5640   20.9240 C   0  0  0  0  0  3  0  0  0  0  0  0
  -29.2230  -26.6120   21.1790 C   0  0  0  0  0  2  0  0  0  0  0  0
  -28.3710  -26.6740   20.0370 O   0  0  0  0  0  0  0  0  0  0  0  0
  -24.5990  -31.8680   23.2120 C   0  0  0  0  0  0  0  0  0  0  0  0
  -27.2350  -27.4460   20.1210 C   0  0  0  0  0  0  0  0  0  0  0  0
  -23.3830  -30.4710   21.5680 C   0  0  0  0  0  3  0  0  0  0  0  0
  -24.8320  -28.9340   20.1400 C   0  0  0  0  0  0  0  0  0  0  0  0
  -25.9040  -30.8310   21.3630 C   0  0  0  0  0  2  0  0  0  0  0  0
  -25.9860  -29.4580   20.7330 C   0  0  0  0  0  0  0  0  0  0  0  0
  -27.1890  -28.7190   20.7380 C   0  0  0  0  0  3  0  0  0  0  0  0
  -26.0700  -26.9360   19.5170 C   0  0  0  0  0  3  0  0  0  0  0  0
  -24.8650  -27.6650   19.5340 C   0  0  0  0  0  3  0  0  0  0  0  0
  -23.5890  -29.7920   20.1860 C   0  0  0  0  0  2  0  0  0  0  0  0
  -24.6470  -31.0710   22.1060 N   0  0  0  0  0  0  0  0  0  0  0  0
  -23.5220  -32.1400   23.7570 O   0  0  0  0  0  0  0  0  0  0  0  0
  -22.7340  -29.4490   22.5280 C   0  0  0  0  0  0  0  0  0  0  0  0
  -21.4090  -29.2700   22.4050 N   0  0  0  0  0  0  0  0  0  0  0  0
  -23.4190  -28.8240   23.3420 O   0  0  0  0  0  0  0  0  0  0  0  0
  -20.9180  -29.8280   21.7210 H   0  0  0  0  0  0  0  0  0  0  0  0
  -18.0370  -28.0740   22.8990 C   0  0  0  0  0  0  0  0  0  0  0  0
  -20.5940  -28.3320   23.1750 C   0  0  0  0  0  3  0  0  0  0  0  0
  -20.6980  -26.9010   22.6000 C   0  0  0  0  0  2  0  0  0  0  0  0
  -19.5970  -26.5760   21.5840 C   0  0  0  0  0  2  0  0  0  0  0  0
  -18.2150  -26.7220   22.2270 C   0  0  0  0  0  2  0  0  0  0  0  0
  -19.1550  -28.8350   23.3310 C   0  0  0  0  0  0  0  0  0  0  0  0
  -18.9360  -30.0990   23.9190 C   0  0  0  0  0  3  0  0  0  0  0  0
  -17.6310  -30.6020   24.0810 C   0  0  0  0  0  3  0  0  0  0  0  0
  -16.5270  -29.8370   23.6670 C   0  0  0  0  0  3  0  0  0  0  0  0
  -16.7310  -28.5760   23.0810 C   0  0  0  0  0  3  0  0  0  0  0  0
  -25.8920  -32.4910   23.8270 C   0  0  0  0  0  3  0  0  0  0  0  0
  -26.4240  -31.7060   25.0880 C   0  0  1  0  0  0  0  0  0  0  0  0
  -25.3440  -31.4580   26.1660 C   0  0  0  0  0  1  0  0  0  0  0  0
  -27.0000  -30.3310   24.6730 C   0  0  0  0  0  1  0  0  0  0  0  0
  -27.5830  -32.4910   25.7450 C   0  0  0  0  0  1  0  0  0  0  0  0
  -25.5890  -33.8860   24.1710 N   0  0  0  0  0  0  0  0  0  0  0  0
  -25.9160  -34.9440   23.4140 C   0  0  0  0  0  0  0  0  0  0  0  0
  -26.5790  -34.8470   22.3780 O   0  0  0  0  0  0  0  0  0  0  0  0
  -25.0020  -34.0360   24.9780 H   0  0  0  0  0  0  0  0  0  0  0  0
  -24.1850  -36.7370   23.0830 C   0  0  0  0  0  1  0  0  0  0  0  0
  -25.4320  -36.3280   23.8840 C   0  0  0  0  0  3  0  0  0  0  0  0
  -27.5740  -37.2040   24.7040 C   0  0  0  0  0  1  0  0  0  0  0  0
  -26.4650  -37.3820   23.7710 N   0  0  0  0  0  0  0  0  0  0  0  0
  -26.0600  -38.3000   23.9310 H   0  0  0  0  0  0  0  0  0  0  0  0
  1  6  1  0
  1 51  1  0
  1  2  1  0
  2  4  1  0
  2  3  1  0
  5  2  1  0
  6  7  1  0
  7  9  2  0
  8  7  1  0
  8 11  1  0
 10  8  1  0
 12 21  1  0
 12 11  1  0
 13 21  1  0
 14 19  1  0
 15 16  1  0
 15 14  1  0
 17 16  1  0
 17 26  1  0
 17 18  1  0
 19 13  1  0
 19 18  1  0
 20 13  2  0
 21 22  1  0
 23 24  2  0
 24 43  1  0
 25 24  1  0
 25 28  1  0
 26 23  1  0
 26 27  1  0
 27 25  2  0
 28 29  1  0
 29 30  2  0
 31 34  1  0
 31 30  1  0
 32 31  2  0
 33 32  1  0
 33 28  2  0
 34 35  1  0
 35 36  1  0
 36 37  2  0
 38 37  1  0
 38 42  1  0
 39 38  2  0
 40 35  2  0
 40 39  1  0
 41 40  1  0
 43 44  1  0
 44 47  1  0
 44 46  1  0
 45 43  2  0
 48 49  1  0
 48 23  1  0
 50 48  1  0
 51 53  1  0
 53 52  1  0
 53 54  1  0
 55 57  1  0
 55 54  1  0
 56 67  2  0
 57 62  1  0
 58 66  1  0
 58 68  1  0
 59 65  1  0
 59 61  1  0
 60 66  1  0
 61 62  2  0
 61 60  1  0
 63 64  1  0
 63 57  2  0
 64 59  2  0
 65 58  1  0
 66 56  1  0
 68 70  2  0
 69 68  1  0
 71 69  1  0
 72 81  2  0
 72 77  1  0
 73 69  1  0
 73 77  1  0
 74 73  1  0
 75 76  1  0
 75 74  1  0
 76 72  1  0
 77 78  2  0
 78 79  1  0
 80 79  2  0
 81 80  1  0
 82 56  1  0
 82 87  1  0
 82 83  1  0
 83 86  1  1
 83 84  1  0
 85 83  1  0
 87 90  1  0
 88 92  1  0
 88 87  1  0
 89 88  2  0
 92 91  1  0
 94 92  1  0
 94 95  1  0
 94 93  1  0
M  ISO  4  13 100  21 100  54 101  55 101
M  END
>  <TORSDO>  (91) 
F 24

>  <SCORE>  (91) 
-12.520

>  <name>  (91) 
91

>  <ligand_id>  (91) 
91

>  <original_smiles>  (91) 
[H]c1c([H])c([H])c2c(c1[H])C([H])([H])C([H])([H])C([H])([H])C2([H])N([H])C(=O)C1([H])N(C(=O)C([H])(N([H])C(=O)C([H])(N([H])C([H])([H])[H])C([H])([H])[H])C(C([H])([H])[H])(C([H])([H])[H])C([H])([H])[H])C([H])([H])c2c([H])c(OC([H])([H])C([H])(C([H])([H])[H])C([H])([H])C([H])(C([H])([H])C(=O)N([H])C([H])([H])C([H])([H])N([H])C(=O)N3C([H])([H])C([H])([H])C([H])([H])C([H])(n4nc(-c5c([H])c([H])c(Oc6c([H])c([H])c(F)c([H])c6F)c([H])c5[H])c(C(=O)N([H])[H])c4N([H])[H])C3([H])[H])[N+]([H])([H])[H])c([H])c([H])c2C1([H])[H]

>  <smiles>  (91) 
[H]c1c([H])c([H])c2c(c1[H])C([H])([H])C([H])([H])C([H])([H])C2([H])N([H])C(=O)C1([H])N(C(=O)C([H])(N([H])C(=O)C([H])(N([H])C([H])([H])[H])C([H])([H])[H])C(C([H])([H])[H])(C([H])([H])[H])C([H])([H])[H])C([H])([H])c2c([H])c(OC([H])([H])C([H])(C([H])([H])[H])C([H])([H])C([H])(C([H])([H])C(=O)N([H])C([H])([H])C([H])([H])N([H])C(=O)N3C([H])([H])C([H])([H])C([H])([H])C([H])(n4nc(-c5c([H])c([H])c(Oc6c([H])c([H])c(F)c([H])c6F)c([H])c5[H])c(C(=O)N([H])[H])c4N([H])[H])C3([H])[H])[N+]([H])([H])[H])c([H])c([H])c2C1([H])[H]

$$$$
92:0:0
     RDKit          3D

 96104  0  0  1  0  0  0  0  0999 V2000
  -28.4220  -21.0270   20.8970 C   0  0  0  0  0  0  0  0  0  0  0  0
  -27.8920  -20.1300   20.2310 O   0  0  0  0  0  0  0  0  0  0  0  0
  -27.6950  -22.3150   21.2630 C   0  0  0  0  0  2  0  0  0  0  0  0
  -26.6660  -22.8190   20.2280 C   0  0  0  0  0  2  0  0  0  0  0  0
  -27.3210  -22.3760   17.7670 C   0  0  0  0  0  1  0  0  0  0  0  0
  -27.1900  -23.4240   18.8910 C   0  0  0  0  0  3  0  0  0  0  0  0
  -29.7780  -23.7580   18.8470 C   0  0  0  0  0  1  0  0  0  0  0  0
  -28.3900  -24.4230   18.9650 C   0  0  0  0  0  3  0  0  0  0  0  0
  -28.3650  -25.4020   20.1710 C   0  0  0  0  0  2  0  0  0  0  0  0
  -28.4520  -26.7730   19.7800 O   0  0  0  0  0  0  0  0  0  0  0  0
  -24.6140  -31.6980   23.1740 C   0  0  0  0  0  0  0  0  0  0  0  0
  -27.2720  -27.4780   19.8260 C   0  0  0  0  0  0  0  0  0  0  0  0
  -23.4000  -30.3510   21.4950 C   0  0  0  0  0  3  0  0  0  0  0  0
  -24.8500  -28.9180   19.9670 C   0  0  0  0  0  0  0  0  0  0  0  0
  -25.9110  -30.7800   21.2580 C   0  0  0  0  0  2  0  0  0  0  0  0
  -26.0090  -29.4440   20.5480 C   0  0  0  0  0  0  0  0  0  0  0  0
  -27.2270  -28.7310   20.4750 C   0  0  0  0  0  3  0  0  0  0  0  0
  -26.0980  -26.9690   19.2340 C   0  0  0  0  0  3  0  0  0  0  0  0
  -24.8850  -27.6780   19.3050 C   0  0  0  0  0  3  0  0  0  0  0  0
  -23.5910  -29.7420   20.0800 C   0  0  0  0  0  2  0  0  0  0  0  0
  -24.6610  -30.9540   22.0340 N   0  0  0  0  0  0  0  0  0  0  0  0
  -23.5400  -31.9230   23.7510 O   0  0  0  0  0  0  0  0  0  0  0  0
  -22.7900  -29.2720   22.4200 C   0  0  0  0  0  0  0  0  0  0  0  0
  -21.4770  -29.0290   22.2720 N   0  0  0  0  0  0  0  0  0  0  0  0
  -23.4930  -28.6570   23.2270 O   0  0  0  0  0  0  0  0  0  0  0  0
  -20.9710  -29.5780   21.5920 H   0  0  0  0  0  0  0  0  0  0  0  0
  -18.1740  -27.6180   22.6530 C   0  0  0  0  0  0  0  0  0  0  0  0
  -20.7000  -28.0300   23.0070 C   0  0  0  0  0  3  0  0  0  0  0  0
  -20.9100  -26.6150   22.4200 C   0  0  0  0  0  2  0  0  0  0  0  0
  -19.8620  -26.2380   21.3680 C   0  0  0  0  0  2  0  0  0  0  0  0
  -18.4550  -26.2900   21.9710 C   0  0  0  0  0  2  0  0  0  0  0  0
  -19.2290  -28.4410   23.1290 C   0  0  0  0  0  0  0  0  0  0  0  0
  -18.9140  -29.6820   23.7260 C   0  0  0  0  0  3  0  0  0  0  0  0
  -17.5760  -30.0990   23.8550 C   0  0  0  0  0  3  0  0  0  0  0  0
  -16.5350  -29.2730   23.3980 C   0  0  0  0  0  3  0  0  0  0  0  0
  -16.8350  -28.0340   22.8030 C   0  0  0  0  0  3  0  0  0  0  0  0
  -25.9020  -32.3230   23.7950 C   0  0  0  0  0  3  0  0  0  0  0  0
  -25.5890  -33.7160   24.1460 N   0  0  0  0  0  0  0  0  0  0  0  0
  -25.9170  -34.7790   23.4010 C   0  0  0  0  0  0  0  0  0  0  0  0
  -26.5840  -34.6930   22.3670 O   0  0  0  0  0  0  0  0  0  0  0  0
  -24.9840  -33.8510   24.9420 H   0  0  0  0  0  0  0  0  0  0  0  0
  -24.1810  -36.5710   23.0800 C   0  0  0  0  0  1  0  0  0  0  0  0
  -25.4280  -36.1590   23.8790 C   0  0  0  0  0  3  0  0  0  0  0  0
  -27.5680  -37.0400   24.7020 C   0  0  0  0  0  1  0  0  0  0  0  0
  -26.4570  -37.2160   23.7720 N   0  0  0  0  0  0  0  0  0  0  0  0
  -26.0490  -38.1340   23.9350 H   0  0  0  0  0  0  0  0  0  0  0  0
  -26.4380  -31.5320   25.0510 C   0  0  1  0  0  0  0  0  0  0  0  0
  -25.3580  -31.2610   26.1240 C   0  0  0  0  0  1  0  0  0  0  0  0
  -27.0280  -30.1670   24.6250 C   0  0  0  0  0  1  0  0  0  0  0  0
  -27.5900  -32.3220   25.7140 C   0  0  0  0  0  1  0  0  0  0  0  0
  -29.8500  -20.8750   21.4200 C   0  0  0  0  0  2  0  0  0  0  0  0
  -30.1230  -19.4860   22.0290 C   0  0  0  0  0  2  0  0  0  0  0  0
  -30.9480  -14.4710   19.6520 C   0  0  0  0  0  0  0  0  0  0  0  0
  -30.4030  -12.3650   18.4910 C   0  0  0  0  0  2  0  0  0  0  0  0
  -29.3630  -12.6460   17.3900 C   0  0  0  0  0  2  0  0  0  0  0  0
  -27.9290  -12.5620   17.9510 C   0  0  0  0  0  2  0  0  0  0  0  0
  -27.7640  -13.3600   19.2700 C   0  0  0  0  0  3  0  0  0  0  0  0
  -28.9120  -13.0010   20.2470 C   0  0  0  0  0  2  0  0  0  0  0  0
  -30.1790  -13.3390   19.5810 N   0  0  0  0  0  0  0  0  0  0  0  0
  -31.9810  -14.5370   18.9760 O   0  0  0  0  0  0  0  0  0  0  0  0
  -29.2300  -16.0340   20.6440 C   0  0  0  0  0  2  0  0  0  0  0  0
  -29.1120  -17.2750   21.5450 C   0  0  0  0  0  2  0  0  0  0  0  0
  -31.1610  -17.9900   20.3300 C   0  0  0  0  0  2  0  0  0  0  0  0
  -31.6540  -16.5770   20.7140 C   0  0  0  0  0  3  0  0  0  0  0  0
  -32.2540  -16.4740   22.1290 C   0  0  0  0  0  1  0  0  0  0  0  0
  -30.6160  -15.5240   20.4720 N   0  0  0  0  0  0  0  0  0  0  0  0
  -29.9260  -18.4000   21.0410 N   0  0  2  0  0  4  0  0  0  0  0  0
  -29.3410  -18.8400   20.3350 H   0  0  0  0  0  0  0  0  0  0  0  0
  -25.4780  -14.0920   20.1970 C   0  0  0  0  0  0  0  0  0  0  0  0
  -24.4100  -13.3700   20.6560 C   0  0  0  0  0  0  0  0  0  0  0  0
  -24.7930  -11.9970   20.5610 C   0  0  0  0  0  0  0  0  0  0  0  0
  -26.4470  -13.1590   19.8630 N   0  0  0  0  0  0  0  0  0  0  0  0
  -26.0430  -11.8940   20.1320 N   0  0  0  0  0  0  0  0  0  0  0  0
  -24.0240  -10.7680   20.7950 C   0  0  0  0  0  0  0  0  0  0  0  0
  -24.4660   -9.7880   21.7120 C   0  0  0  0  0  3  0  0  0  0  0  0
  -23.7040   -8.6200   21.9340 C   0  0  0  0  0  3  0  0  0  0  0  0
  -22.4840   -8.4280   21.2420 C   0  0  0  0  0  0  0  0  0  0  0  0
  -22.0610   -9.3950   20.3130 C   0  0  0  0  0  3  0  0  0  0  0  0
  -22.8240  -10.5540   20.0900 C   0  0  0  0  0  3  0  0  0  0  0  0
  -21.6870   -7.3160   21.3760 O   0  0  0  0  0  0  0  0  0  0  0  0
  -21.6390   -6.6050   22.5490 C   0  0  0  0  0  0  0  0  0  0  0  0
  -21.2760   -7.2090   23.7740 C   0  0  0  0  0  3  0  0  0  0  0  0
  -21.1750   -6.4260   24.9400 C   0  0  0  0  0  3  0  0  0  0  0  0
  -21.4200   -5.0390   24.8830 C   0  0  0  0  0  0  0  0  0  0  0  0
  -21.7760   -4.4380   23.6640 C   0  0  0  0  0  3  0  0  0  0  0  0
  -21.8820   -5.2190   22.5000 C   0  0  0  0  0  0  0  0  0  0  0  0
  -22.2030   -4.6300   21.3220 F   0  0  0  0  0  0  0  0  0  0  0  0
  -21.3140   -4.2850   26.0020 F   0  0  0  0  0  0  0  0  0  0  0  0
  -23.0710  -13.9110   21.0670 C   0  0  0  0  0  0  0  0  0  0  0  0
  -22.4040  -13.2480   22.0040 N   0  0  0  0  0  0  0  0  0  0  0  0
  -22.6300  -14.9580   20.5910 O   0  0  0  0  0  0  0  0  0  0  0  0
  -22.7720  -12.3930   22.3960 H   0  0  0  0  0  0  0  0  0  0  0  0
  -21.5110  -13.5930   22.3260 H   0  0  0  0  0  0  0  0  0  0  0  0
  -25.7020  -15.4540   20.0120 N   0  0  0  0  0  0  0  0  0  0  0  0
  -24.9540  -16.1290   20.1280 H   0  0  0  0  0  0  0  0  0  0  0  0
  -26.4770  -15.8160   19.4730 H   0  0  0  0  0  0  0  0  0  0  0  0
  1  3  1  0
  1 51  1  0
  2  1  2  0
  4  3  1  0
  6  5  1  0
  6  8  1  0
  6  4  1  0
  8  7  1  0
  8  9  1  0
 10 12  1  0
 10  9  1  0
 11 22  2  0
 12 17  1  0
 13 21  1  0
 13 23  1  0
 14 20  1  0
 14 16  1  0
 15 21  1  0
 16 15  1  0
 17 16  2  0
 18 19  1  0
 18 12  2  0
 19 14  2  0
 20 13  1  0
 21 11  1  0
 23 25  2  0
 24 23  1  0
 26 24  1  0
 27 36  2  0
 27 32  1  0
 28 24  1  0
 28 32  1  0
 29 28  1  0
 30 31  1  0
 30 29  1  0
 31 27  1  0
 32 33  2  0
 33 34  1  0
 35 34  2  0
 36 35  1  0
 37 11  1  0
 37 38  1  0
 37 47  1  0
 38 41  1  0
 39 43  1  0
 39 38  1  0
 40 39  2  0
 43 42  1  0
 45 43  1  0
 45 46  1  0
 45 44  1  0
 47 50  1  1
 47 48  1  0
 49 47  1  0
 51 52  1  0
 53 66  1  0
 54 59  1  0
 55 56  1  0
 55 54  1  0
 57 56  1  0
 57 72  1  0
 57 58  1  0
 59 53  1  0
 59 58  1  0
 60 53  2  0
 61 62  1  0
 63 64  1  0
 63 67  1  0
 64 65  1  0
 66 61  1  0
 66 64  1  0
 67 62  1  0
 67 52  1  0
 67 68  1  6
 69 70  2  0
 70 89  1  0
 71 70  1  0
 71 74  1  0
 72 73  1  0
 72 69  1  0
 73 71  2  0
 74 75  1  0
 75 76  2  0
 77 80  1  0
 77 76  1  0
 78 77  2  0
 79 78  1  0
 79 74  2  0
 80 81  1  0
 81 82  1  0
 82 83  2  0
 84 83  1  0
 84 88  1  0
 85 84  2  0
 86 81  2  0
 86 85  1  0
 87 86  1  0
 89 90  1  0
 90 93  1  0
 90 92  1  0
 91 89  2  0
 94 95  1  0
 94 69  1  0
 96 94  1  0
M  ISO  4   9 101  10 101  53 100  66 100
M  END
>  <TORSDO>  (92) 
F 23

>  <SCORE>  (92) 
-9.490

>  <name>  (92) 
92

>  <ligand_id>  (92) 
92

>  <original_smiles>  (92) 
[H]c1c([H])c([H])c2c(c1[H])C([H])([H])C([H])([H])C([H])([H])C2([H])N([H])C(=O)C1([H])N(C(=O)C([H])(N([H])C(=O)C([H])(N([H])C([H])([H])[H])C([H])([H])[H])C(C([H])([H])[H])(C([H])([H])[H])C([H])([H])[H])C([H])([H])c2c([H])c(OC([H])([H])C([H])(C([H])([H])[H])C([H])(C([H])([H])[H])C([H])([H])C([H])([H])C(=O)C([H])([H])C([H])([H])[N+]3([H])C([H])([H])C([H])([H])N(C(=O)N4C([H])([H])C([H])([H])C([H])([H])C([H])(n5nc(-c6c([H])c([H])c(Oc7c([H])c([H])c(F)c([H])c7F)c([H])c6[H])c(C(=O)N([H])[H])c5N([H])[H])C4([H])[H])C([H])(C([H])([H])[H])C3([H])[H])c([H])c([H])c2C1([H])[H]

>  <smiles>  (92) 
[H]c1c([H])c([H])c2c(c1[H])C([H])([H])C([H])([H])C([H])([H])C2([H])N([H])C(=O)C1([H])N(C(=O)C([H])(N([H])C(=O)C([H])(N([H])C([H])([H])[H])C([H])([H])[H])C(C([H])([H])[H])(C([H])([H])[H])C([H])([H])[H])C([H])([H])c2c([H])c(OC([H])([H])C([H])(C([H])([H])[H])C([H])(C([H])([H])[H])C([H])([H])C([H])([H])C(=O)C([H])([H])C([H])([H])[N+]3([H])C([H])([H])C([H])([H])N(C(=O)N4C([H])([H])C([H])([H])C([H])([H])C([H])(n5nc(-c6c([H])c([H])c(Oc7c([H])c([H])c(F)c([H])c7F)c([H])c6[H])c(C(=O)N([H])[H])c5N([H])[H])C4([H])[H])C([H])(C([H])([H])[H])C3([H])[H])c([H])c([H])c2C1([H])[H]

$$$$
93:0:0
     RDKit          3D

 96103  0  0  1  0  0  0  0  0999 V2000
  -29.0230  -22.9480   20.7340 C   0  0  0  0  0  3  0  0  0  0  0  0
  -29.0690  -24.0710   18.3980 C   0  0  0  0  0  1  0  0  0  0  0  0
  -29.2050  -24.2800   19.9200 C   0  0  0  0  0  3  0  0  0  0  0  0
  -28.1800  -25.3640   20.3540 C   0  0  0  0  0  2  0  0  0  0  0  0
  -28.3170  -26.6290   19.6870 O   0  0  0  0  0  0  0  0  0  0  0  0
  -24.4970  -31.5810   23.1000 C   0  0  0  0  0  0  0  0  0  0  0  0
  -27.1630  -27.3800   19.7250 C   0  0  0  0  0  0  0  0  0  0  0  0
  -23.2880  -30.2560   21.3990 C   0  0  0  0  0  3  0  0  0  0  0  0
  -24.7460  -28.8340   19.8610 C   0  0  0  0  0  0  0  0  0  0  0  0
  -25.8030  -30.6690   21.1870 C   0  0  0  0  0  2  0  0  0  0  0  0
  -25.9040  -29.3430   20.4630 C   0  0  0  0  0  0  0  0  0  0  0  0
  -27.1190  -28.6230   20.3960 C   0  0  0  0  0  3  0  0  0  0  0  0
  -25.9940  -26.8940   19.1000 C   0  0  0  0  0  3  0  0  0  0  0  0
  -24.7840  -27.6080   19.1770 C   0  0  0  0  0  3  0  0  0  0  0  0
  -23.4850  -29.6600   19.9800 C   0  0  0  0  0  2  0  0  0  0  0  0
  -24.5470  -30.8470   21.9540 N   0  0  0  0  0  0  0  0  0  0  0  0
  -23.4200  -31.8050   23.6710 O   0  0  0  0  0  0  0  0  0  0  0  0
  -22.6730  -29.1700   22.3090 C   0  0  0  0  0  0  0  0  0  0  0  0
  -21.3500  -28.9670   22.1890 N   0  0  0  0  0  0  0  0  0  0  0  0
  -23.3800  -28.5170   23.0800 O   0  0  0  0  0  0  0  0  0  0  0  0
  -20.8400  -29.5550   21.5440 H   0  0  0  0  0  0  0  0  0  0  0  0
  -18.0120  -27.6690   22.6550 C   0  0  0  0  0  0  0  0  0  0  0  0
  -20.5640  -27.9720   22.9160 C   0  0  0  0  0  3  0  0  0  0  0  0
  -20.6930  -26.5760   22.2640 C   0  0  0  0  0  2  0  0  0  0  0  0
  -19.5880  -26.2800   21.2460 C   0  0  0  0  0  2  0  0  0  0  0  0
  -18.2100  -26.3620   21.9080 C   0  0  0  0  0  2  0  0  0  0  0  0
  -19.1170  -28.4340   23.1140 C   0  0  0  0  0  0  0  0  0  0  0  0
  -18.8760  -29.6590   23.7710 C   0  0  0  0  0  3  0  0  0  0  0  0
  -17.5620  -30.1210   23.9730 C   0  0  0  0  0  3  0  0  0  0  0  0
  -16.4720  -29.3540   23.5310 C   0  0  0  0  0  3  0  0  0  0  0  0
  -16.6970  -28.1310   22.8770 C   0  0  0  0  0  3  0  0  0  0  0  0
  -25.7830  -32.2000   23.7320 C   0  0  0  0  0  3  0  0  0  0  0  0
  -26.3150  -31.3940   24.9800 C   0  0  1  0  0  0  0  0  0  0  0  0
  -25.2360  -31.1290   26.0560 C   0  0  0  0  0  1  0  0  0  0  0  0
  -26.8950  -30.0270   24.5440 C   0  0  0  0  0  1  0  0  0  0  0  0
  -27.4730  -32.1740   25.6510 C   0  0  0  0  0  1  0  0  0  0  0  0
  -25.4700  -33.5850   24.1030 N   0  0  0  0  0  0  0  0  0  0  0  0
  -25.7920  -34.6610   23.3710 C   0  0  0  0  0  0  0  0  0  0  0  0
  -26.4570  -34.5940   22.3330 O   0  0  0  0  0  0  0  0  0  0  0  0
  -24.8800  -33.7130   24.9110 H   0  0  0  0  0  0  0  0  0  0  0  0
  -24.0470  -36.4510   23.0870 C   0  0  0  0  0  1  0  0  0  0  0  0
  -25.3000  -36.0310   23.8720 C   0  0  0  0  0  3  0  0  0  0  0  0
  -27.4320  -36.9130   24.7130 C   0  0  0  0  0  1  0  0  0  0  0  0
  -26.3250  -37.0930   23.7780 N   0  0  0  0  0  0  0  0  0  0  0  0
  -25.9120  -38.0050   23.9490 H   0  0  0  0  0  0  0  0  0  0  0  0
  -29.8500  -21.7340   20.2110 C   0  0  0  0  0  2  0  0  0  0  0  0
  -29.3790  -20.3690   20.7800 C   0  0  0  0  0  2  0  0  0  0  0  0
  -30.4770  -19.2900   20.8410 C   0  0  0  0  0  2  0  0  0  0  0  0
  -29.9440  -17.8960   21.2460 C   0  0  0  0  0  2  0  0  0  0  0  0
  -30.5500  -14.0560   19.3340 C   0  0  0  0  0  0  0  0  0  0  0  0
  -29.8980  -11.9800   18.1720 C   0  0  0  0  0  2  0  0  0  0  0  0
  -28.7820  -12.1900   17.1330 C   0  0  0  0  0  2  0  0  0  0  0  0
  -27.3980  -12.0980   17.8000 C   0  0  0  0  0  2  0  0  0  0  0  0
  -27.2890  -12.9820   19.0700 C   0  0  0  0  0  3  0  0  0  0  0  0
  -28.4930  -12.7490   20.0080 C   0  0  0  0  0  2  0  0  0  0  0  0
  -29.7250  -12.9800   19.2370 N   0  0  0  0  0  0  0  0  0  0  0  0
  -31.5250  -14.2370   18.5960 O   0  0  0  0  0  0  0  0  0  0  0  0
  -31.2560  -15.7130   21.0050 C   0  0  0  0  0  3  0  0  0  0  0  0
  -30.2780  -15.0300   20.3520 N   0  0  0  0  0  0  0  0  0  0  0  0
  -31.0570  -16.9620   21.4990 N   0  0  0  0  0  0  0  0  0  0  0  0
  -29.3660  -15.0980   20.7700 H   0  0  0  0  0  0  0  0  0  0  0  0
  -31.7840  -17.3350   22.1000 H   0  0  0  0  0  0  0  0  0  0  0  0
  -25.0820  -13.6960   20.1850 C   0  0  0  0  0  0  0  0  0  0  0  0
  -24.0450  -12.9700   20.7070 C   0  0  0  0  0  0  0  0  0  0  0  0
  -24.4120  -11.5980   20.5620 C   0  0  0  0  0  0  0  0  0  0  0  0
  -26.0200  -12.7670   19.7590 N   0  0  0  0  0  0  0  0  0  0  0  0
  -25.6280  -11.4990   20.0420 N   0  0  0  0  0  0  0  0  0  0  0  0
  -23.6500  -10.3700   20.8320 C   0  0  0  0  0  0  0  0  0  0  0  0
  -24.1250   -9.3880   21.7300 C   0  0  0  0  0  3  0  0  0  0  0  0
  -23.3630   -8.2280   21.9870 C   0  0  0  0  0  3  0  0  0  0  0  0
  -22.1150   -8.0410   21.3460 C   0  0  0  0  0  0  0  0  0  0  0  0
  -21.6600   -9.0110   20.4360 C   0  0  0  0  0  3  0  0  0  0  0  0
  -22.4210  -10.1630   20.1770 C   0  0  0  0  0  3  0  0  0  0  0  0
  -21.3190   -6.9320   21.5160 O   0  0  0  0  0  0  0  0  0  0  0  0
  -21.3340   -6.2070   22.6800 C   0  0  0  0  0  0  0  0  0  0  0  0
  -21.0030   -6.7880   23.9240 C   0  0  0  0  0  3  0  0  0  0  0  0
  -20.9620   -5.9890   25.0840 C   0  0  0  0  0  3  0  0  0  0  0  0
  -21.2460   -4.6130   25.0030 C   0  0  0  0  0  0  0  0  0  0  0  0
  -21.5720   -4.0330   23.7650 C   0  0  0  0  0  3  0  0  0  0  0  0
  -21.6140   -4.8260   22.6060 C   0  0  0  0  0  0  0  0  0  0  0  0
  -21.9080   -4.2580   21.4110 F   0  0  0  0  0  0  0  0  0  0  0  0
  -21.2010   -3.8450   26.1170 F   0  0  0  0  0  0  0  0  0  0  0  0
  -22.7430  -13.5150   21.2190 C   0  0  0  0  0  0  0  0  0  0  0  0
  -22.1440  -12.8500   22.2010 N   0  0  0  0  0  0  0  0  0  0  0  0
  -22.2710  -14.5640   20.7810 O   0  0  0  0  0  0  0  0  0  0  0  0
  -22.5420  -12.0010   22.5760 H   0  0  0  0  0  0  0  0  0  0  0  0
  -21.2760  -13.1960   22.5850 H   0  0  0  0  0  0  0  0  0  0  0  0
  -25.3030  -15.0590   20.0200 N   0  0  0  0  0  0  0  0  0  0  0  0
  -24.6040  -15.7540   20.2600 H   0  0  0  0  0  0  0  0  0  0  0  0
  -26.0970  -15.4540   19.5310 H   0  0  0  0  0  0  0  0  0  0  0  0
  -32.4850  -13.6440   21.7690 C   0  0  0  0  0  1  0  0  0  0  0  0
  -32.6140  -15.1000   21.2850 C   0  0  0  0  0  2  0  0  0  0  0  0
  -29.3240  -23.1560   22.2510 C   0  0  0  0  0  2  0  0  0  0  0  0
  -28.2170  -23.8540   23.0670 C   0  0  0  0  0  2  0  0  0  0  0  0
  -26.9200  -25.9700   23.6320 C   0  0  0  0  0  1  0  0  0  0  0  0
  -27.9450  -25.3200   22.6980 C   0  0  0  0  0  2  0  0  0  0  0  0
  1 46  1  0
  1 93  1  0
  3  2  1  0
  3  4  1  0
  3  1  1  0
  5  7  1  0
  5  4  1  0
  6 17  2  0
  7 12  1  0
  8 16  1  0
  8 18  1  0
  9 15  1  0
  9 11  1  0
 10 16  1  0
 11 10  1  0
 12 11  2  0
 13 14  1  0
 13  7  2  0
 14  9  2  0
 15  8  1  0
 16  6  1  0
 18 20  2  0
 19 18  1  0
 21 19  1  0
 22 31  2  0
 22 27  1  0
 23 19  1  0
 23 27  1  0
 24 23  1  0
 25 26  1  0
 25 24  1  0
 26 22  1  0
 27 28  2  0
 28 29  1  0
 30 29  2  0
 31 30  1  0
 32  6  1  0
 32 37  1  0
 32 33  1  0
 33 36  1  1
 33 34  1  0
 35 33  1  0
 37 40  1  0
 38 42  1  0
 38 37  1  0
 39 38  2  0
 42 41  1  0
 44 42  1  0
 44 45  1  0
 44 43  1  0
 46 47  1  0
 47 48  1  0
 48 49  1  0
 49 60  1  0
 50 59  1  0
 51 56  1  0
 52 53  1  0
 52 51  1  0
 54 53  1  0
 54 66  1  0
 54 55  1  0
 56 50  1  0
 56 55  1  0
 57 50  2  0
 58 92  1  0
 58 60  1  0
 59 61  1  0
 59 58  1  0
 60 62  1  0
 63 64  2  0
 64 83  1  0
 65 64  1  0
 65 68  1  0
 66 67  1  0
 66 63  1  0
 67 65  2  0
 68 69  1  0
 69 70  2  0
 71 74  1  0
 71 70  1  0
 72 71  2  0
 73 72  1  0
 73 68  2  0
 74 75  1  0
 75 76  1  0
 76 77  2  0
 78 77  1  0
 78 82  1  0
 79 78  2  0
 80 75  2  0
 80 79  1  0
 81 80  1  0
 83 84  1  0
 84 86  1  0
 84 87  1  0
 85 83  2  0
 88 63  1  0
 88 89  1  0
 90 88  1  0
 92 91  1  0
 93 94  1  0
 96 94  1  0
 96 95  1  0
M  ISO  4   4 101   5 101  50 100  59 100
M  END
>  <TORSDO>  (93) 
F 26

>  <SCORE>  (93) 
-8.359

>  <name>  (93) 
93

>  <ligand_id>  (93) 
93

>  <original_smiles>  (93) 
[H]c1c([H])c([H])c2c(c1[H])C([H])([H])C([H])([H])C([H])([H])C2([H])N([H])C(=O)C1([H])N(C(=O)C([H])(N([H])C(=O)C([H])(N([H])C([H])([H])[H])C([H])([H])[H])C(C([H])([H])[H])(C([H])([H])[H])C([H])([H])[H])C([H])([H])c2c([H])c(OC([H])([H])C([H])(C([H])([H])[H])C([H])(C([H])([H])C([H])([H])C([H])([H])C([H])([H])[H])C([H])([H])C([H])([H])C([H])([H])C([H])([H])[N+]([H])=C(N([H])C(=O)N3C([H])([H])C([H])([H])C([H])([H])C([H])(n4nc(-c5c([H])c([H])c(Oc6c([H])c([H])c(F)c([H])c6F)c([H])c5[H])c(C(=O)N([H])[H])c4N([H])[H])C3([H])[H])C([H])([H])C([H])([H])[H])c([H])c([H])c2C1([H])[H]

>  <smiles>  (93) 
[H]c1c([H])c([H])c2c(c1[H])C([H])([H])C([H])([H])C([H])([H])C2([H])N([H])C(=O)C1([H])N(C(=O)C([H])(N([H])C(=O)C([H])(N([H])C([H])([H])[H])C([H])([H])[H])C(C([H])([H])[H])(C([H])([H])[H])C([H])([H])[H])C([H])([H])c2c([H])c(OC([H])([H])C([H])(C([H])([H])[H])C([H])(C([H])([H])C([H])([H])C([H])([H])C([H])([H])[H])C([H])([H])C([H])([H])C([H])([H])C([H])([H])[N+]([H])=C(N([H])C(=O)N3C([H])([H])C([H])([H])C([H])([H])C([H])(n4nc(-c5c([H])c([H])c(Oc6c([H])c([H])c(F)c([H])c6F)c([H])c5[H])c(C(=O)N([H])[H])c4N([H])[H])C3([H])[H])C([H])([H])C([H])([H])[H])c([H])c([H])c2C1([H])[H]

$$$$
94:0:0
     RDKit          3D

 88 95  0  0  1  0  0  0  0  0999 V2000
  -28.8890  -23.4560   20.3570 C   0  0  0  0  0  0  0  0  0  0  0  0
  -29.9670  -23.6960   20.9080 O   0  0  0  0  0  0  0  0  0  0  0  0
  -27.9120  -24.7270   19.9650 C   0  0  0  0  0  2  0  0  0  0  0  0
  -28.2330  -26.2120   20.2730 O   0  0  0  0  0  0  0  0  0  0  0  0
  -24.6340  -31.8920   23.2630 C   0  0  0  0  0  0  0  0  0  0  0  0
  -27.1870  -27.2000   20.2020 C   0  0  0  0  0  0  0  0  0  0  0  0
  -23.4230  -30.5060   21.6220 C   0  0  0  0  0  3  0  0  0  0  0  0
  -24.8620  -28.9400   20.1870 C   0  0  0  0  0  0  0  0  0  0  0  0
  -25.9780  -30.7680   21.4510 C   0  0  0  0  0  2  0  0  0  0  0  0
  -26.0430  -29.3820   20.7940 C   0  0  0  0  0  0  0  0  0  0  0  0
  -27.2060  -28.5250   20.7890 C   0  0  0  0  0  3  0  0  0  0  0  0
  -25.9790  -26.8610   19.5490 C   0  0  0  0  0  3  0  0  0  0  0  0
  -24.8400  -27.6910   19.5500 C   0  0  0  0  0  3  0  0  0  0  0  0
  -23.6360  -29.8360   20.2400 C   0  0  0  0  0  2  0  0  0  0  0  0
  -24.6990  -31.0760   22.1670 N   0  0  0  0  0  0  0  0  0  0  0  0
  -23.5510  -32.1780   23.7940 O   0  0  0  0  0  0  0  0  0  0  0  0
  -22.7450  -29.4960   22.5830 C   0  0  0  0  0  0  0  0  0  0  0  0
  -21.4170  -29.3260   22.4570 N   0  0  0  0  0  0  0  0  0  0  0  0
  -23.4180  -28.8690   23.4070 O   0  0  0  0  0  0  0  0  0  0  0  0
  -20.9320  -29.8850   21.7710 H   0  0  0  0  0  0  0  0  0  0  0  0
  -18.0370  -28.1180   22.9480 C   0  0  0  0  0  0  0  0  0  0  0  0
  -20.5950  -28.3890   23.2270 C   0  0  0  0  0  3  0  0  0  0  0  0
  -20.7030  -26.9540   22.6600 C   0  0  0  0  0  2  0  0  0  0  0  0
  -19.6070  -26.6220   21.6420 C   0  0  0  0  0  2  0  0  0  0  0  0
  -18.2220  -26.7670   22.2780 C   0  0  0  0  0  2  0  0  0  0  0  0
  -19.1520  -28.8860   23.3800 C   0  0  0  0  0  0  0  0  0  0  0  0
  -18.9260  -30.1500   23.9680 C   0  0  0  0  0  3  0  0  0  0  0  0
  -17.6170  -30.6450   24.1260 C   0  0  0  0  0  3  0  0  0  0  0  0
  -16.5190  -29.8740   23.7110 C   0  0  0  0  0  3  0  0  0  0  0  0
  -16.7290  -28.6130   23.1280 C   0  0  0  0  0  3  0  0  0  0  0  0
  -25.9160  -32.5210   23.8880 C   0  0  0  0  0  3  0  0  0  0  0  0
  -26.4250  -31.7520   25.1690 C   0  0  1  0  0  0  0  0  0  0  0  0
  -25.3280  -31.5280   26.2360 C   0  0  0  0  0  1  0  0  0  0  0  0
  -26.9980  -30.3670   24.7890 C   0  0  0  0  0  1  0  0  0  0  0  0
  -27.5800  -32.5420   25.8290 C   0  0  0  0  0  1  0  0  0  0  0  0
  -25.6130  -33.9220   24.2180 N   0  0  0  0  0  0  0  0  0  0  0  0
  -25.9290  -34.9750   23.4520 C   0  0  0  0  0  0  0  0  0  0  0  0
  -26.5750  -34.8690   22.4060 O   0  0  0  0  0  0  0  0  0  0  0  0
  -25.0400  -34.0810   25.0340 H   0  0  0  0  0  0  0  0  0  0  0  0
  -24.1870  -36.7650   23.1560 C   0  0  0  0  0  1  0  0  0  0  0  0
  -25.4570  -36.3640   23.9220 C   0  0  0  0  0  3  0  0  0  0  0  0
  -27.6170  -37.2610   24.6680 C   0  0  0  0  0  1  0  0  0  0  0  0
  -26.4810  -37.4190   23.7640 N   0  0  0  0  0  0  0  0  0  0  0  0
  -26.0780  -38.3400   23.9200 H   0  0  0  0  0  0  0  0  0  0  0  0
  -28.5090  -21.8630   20.0650 C   0  0  0  0  0  3  0  0  0  0  0  0
  -26.5420  -21.9670   18.3650 C   0  0  0  0  0  1  0  0  0  0  0  0
  -28.0430  -21.7210   18.5940 C   0  0  0  0  0  2  0  0  0  0  0  0
  -29.5190  -20.5610   20.4190 C   0  0  0  0  0  2  0  0  0  0  0  0
  -29.1120  -18.9270   20.3020 C   0  0  0  0  0  3  0  0  0  0  0  0
  -30.1720  -17.6380   20.4860 C   0  0  0  0  0  3  0  0  0  0  0  0
  -30.5340  -14.9390   20.3180 C   0  0  0  0  0  0  0  0  0  0  0  0
  -30.3880  -12.6120   19.3450 C   0  0  0  0  0  2  0  0  0  0  0  0
  -29.4390  -12.5950   18.1240 C   0  0  0  0  0  2  0  0  0  0  0  0
  -27.9790  -12.3900   18.5700 C   0  0  0  0  0  2  0  0  0  0  0  0
  -27.5910  -13.2980   19.7670 C   0  0  0  0  0  3  0  0  0  0  0  0
  -28.6600  -13.2850   20.8800 C   0  0  0  0  0  2  0  0  0  0  0  0
  -29.9260  -13.6920   20.2590 N   0  0  0  0  0  0  0  0  0  0  0  0
  -31.7340  -15.0090   20.0410 O   0  0  0  0  0  0  0  0  0  0  0  0
  -29.7650  -16.1180   20.4780 N   0  0  0  0  0  0  0  0  0  0  0  0
  -28.7810  -15.9430   20.6200 H   0  0  0  0  0  0  0  0  0  0  0  0
  -25.2120  -13.8560   20.5270 C   0  0  0  0  0  0  0  0  0  0  0  0
  -24.1570  -13.0710   20.9030 C   0  0  0  0  0  0  0  0  0  0  0  0
  -24.6330  -11.7250   20.8680 C   0  0  0  0  0  0  0  0  0  0  0  0
  -26.2610  -12.9880   20.2780 N   0  0  0  0  0  0  0  0  0  0  0  0
  -25.9220  -11.7020   20.5480 N   0  0  0  0  0  0  0  0  0  0  0  0
  -23.9210  -10.4560   21.0590 C   0  0  0  0  0  0  0  0  0  0  0  0
  -24.3710   -9.4860   21.9800 C   0  0  0  0  0  3  0  0  0  0  0  0
  -23.6550   -8.2830   22.1610 C   0  0  0  0  0  3  0  0  0  0  0  0
  -22.4740   -8.0430   21.4190 C   0  0  0  0  0  0  0  0  0  0  0  0
  -22.0430   -9.0010   20.4860 C   0  0  0  0  0  3  0  0  0  0  0  0
  -22.7590  -10.1960   20.3030 C   0  0  0  0  0  3  0  0  0  0  0  0
  -21.7280   -6.8920   21.5100 O   0  0  0  0  0  0  0  0  0  0  0  0
  -21.7040   -6.1390   22.6550 C   0  0  0  0  0  0  0  0  0  0  0  0
  -21.2910   -6.6780   23.8940 C   0  0  0  0  0  3  0  0  0  0  0  0
  -21.2170   -5.8490   25.0320 C   0  0  0  0  0  3  0  0  0  0  0  0
  -21.5430   -4.4840   24.9320 C   0  0  0  0  0  0  0  0  0  0  0  0
  -21.9480   -3.9440   23.6990 C   0  0  0  0  0  3  0  0  0  0  0  0
  -22.0250   -4.7690   22.5640 C   0  0  0  0  0  0  0  0  0  0  0  0
  -22.3960   -4.2400   21.3720 F   0  0  0  0  0  0  0  0  0  0  0  0
  -21.4640   -3.6850   26.0230 F   0  0  0  0  0  0  0  0  0  0  0  0
  -22.7580  -13.5370   21.1820 C   0  0  0  0  0  0  0  0  0  0  0  0
  -22.0440  -12.8350   22.0560 N   0  0  0  0  0  0  0  0  0  0  0  0
  -22.3070  -14.5560   20.6630 O   0  0  0  0  0  0  0  0  0  0  0  0
  -22.4240  -12.0090   22.4950 H   0  0  0  0  0  0  0  0  0  0  0  0
  -21.1050  -13.1260   22.2880 H   0  0  0  0  0  0  0  0  0  0  0  0
  -25.3600  -15.2290   20.3480 N   0  0  0  0  0  0  0  0  0  0  0  0
  -24.5870  -15.8730   20.4670 H   0  0  0  0  0  0  0  0  0  0  0  0
  -26.1890  -15.6740   19.9750 H   0  0  0  0  0  0  0  0  0  0  0  0
  1  2  2  0
  3  4  1  0
  3  1  1  0
  5 16  2  0
  6  4  1  0
  6 11  1  0
  7 15  1  0
  7 17  1  0
  8 14  1  0
  8 10  1  0
  9 15  1  0
 10  9  1  0
 11 10  2  0
 12 13  1  0
 12  6  2  0
 13  8  2  0
 14  7  1  0
 15  5  1  0
 17 19  2  0
 18 17  1  0
 20 18  1  0
 21 30  2  0
 21 26  1  0
 22 18  1  0
 22 26  1  0
 23 22  1  0
 24 25  1  0
 24 23  1  0
 25 21  1  0
 26 27  2  0
 27 28  1  0
 29 28  2  0
 30 29  1  0
 31  5  1  0
 31 36  1  0
 31 32  1  0
 32 35  1  1
 32 33  1  0
 34 32  1  0
 36 39  1  0
 37 41  1  0
 37 36  1  0
 38 37  2  0
 41 40  1  0
 43 44  1  0
 43 41  1  0
 43 42  1  0
 45 47  1  0
 45  1  1  0
 45 48  1  0
 46 47  1  0
 49 48  1  0
 49 50  2  0
 51 59  1  0
 52 57  1  0
 53 54  1  0
 53 52  1  0
 55 54  1  0
 55 64  1  0
 55 56  1  0
 57 51  1  0
 57 56  1  0
 58 51  2  0
 59 50  1  0
 59 60  1  0
 61 62  2  0
 62 81  1  0
 63 62  1  0
 63 66  1  0
 64 61  1  0
 64 65  1  0
 65 63  2  0
 66 67  1  0
 67 68  2  0
 69 72  1  0
 69 68  1  0
 70 69  2  0
 71 70  1  0
 71 66  2  0
 72 73  1  0
 73 74  1  0
 74 75  2  0
 76 75  1  0
 76 80  1  0
 77 76  2  0
 78 73  2  0
 78 77  1  0
 79 78  1  0
 81 82  1  0
 82 85  1  0
 82 84  1  0
 83 81  2  0
 86 87  1  0
 86 61  1  0
 88 86  1  0
M  ISO  4   3 101   4 101  51 100  59 100
M  END
>  <TORSDO>  (94) 
F 22

>  <SCORE>  (94) 
-13.057

>  <name>  (94) 
94

>  <ligand_id>  (94) 
94

>  <original_smiles>  (94) 
[H]c1c([H])c([H])c2c(c1[H])C([H])([H])C([H])([H])C([H])([H])C2([H])N([H])C(=O)C1([H])N(C(=O)C([H])(N([H])C(=O)C([H])(N([H])C([H])([H])[H])C([H])([H])[H])C(C([H])([H])[H])(C([H])([H])[H])C([H])([H])[H])C([H])([H])c2c([H])c(OC([H])([H])C(=O)C([H])(C([H])([H])C([H])([H])[H])C([H])([H])C([H])([H])C([H])([H])N([H])C(=O)N3C([H])([H])C([H])([H])C([H])([H])C([H])(n4nc(-c5c([H])c([H])c(Oc6c([H])c([H])c(F)c([H])c6F)c([H])c5[H])c(C(=O)N([H])[H])c4N([H])[H])C3([H])[H])c([H])c([H])c2C1([H])[H]

>  <smiles>  (94) 
[H]c1c([H])c([H])c2c(c1[H])C([H])([H])C([H])([H])C([H])([H])C2([H])N([H])C(=O)C1([H])N(C(=O)C([H])(N([H])C(=O)C([H])(N([H])C([H])([H])[H])C([H])([H])[H])C(C([H])([H])[H])(C([H])([H])[H])C([H])([H])[H])C([H])([H])c2c([H])c(OC([H])([H])C(=O)C([H])(C([H])([H])C([H])([H])[H])C([H])([H])C([H])([H])C([H])([H])N([H])C(=O)N3C([H])([H])C([H])([H])C([H])([H])C([H])(n4nc(-c5c([H])c([H])c(Oc6c([H])c([H])c(F)c([H])c6F)c([H])c5[H])c(C(=O)N([H])[H])c4N([H])[H])C3([H])[H])c([H])c([H])c2C1([H])[H]

$$$$
