0:0:0
     RDKit          3D

 87 94  0  0  1  0  0  0  0  0999 V2000
  -29.1600  -21.2490   19.4250 C   0  0  0  0  0  0  0  0  0  0  0  0
  -28.4620  -21.0630   18.4250 O   0  0  0  0  0  0  0  0  0  0  0  0
  -29.2010  -22.9060   19.9660 C   0  0  0  0  0  3  0  0  0  0  0  0
  -28.2240  -24.3530   19.5500 C   0  0  0  0  0  3  0  0  0  0  0  0
  -28.3660  -25.9720   19.7950 O   0  0  0  0  0  0  0  0  0  0  0  0
  -24.5360  -31.6110   22.9610 C   0  0  0  0  0  0  0  0  0  0  0  0
  -27.2980  -27.0030   19.7500 C   0  0  0  0  0  0  0  0  0  0  0  0
  -23.3900  -30.2040   21.2980 C   0  0  0  0  0  3  0  0  0  0  0  0
  -24.8960  -28.7380   19.7920 C   0  0  0  0  0  0  0  0  0  0  0  0
  -25.9360  -30.5690   21.1130 C   0  0  0  0  0  2  0  0  0  0  0  0
  -26.0700  -29.1930   20.4090 C   0  0  0  0  0  0  0  0  0  0  0  0
  -27.2620  -28.3430   20.3680 C   0  0  0  0  0  3  0  0  0  0  0  0
  -26.0910  -26.6980   19.0790 C   0  0  0  0  0  3  0  0  0  0  0  0
  -24.9310  -27.5130   19.1050 C   0  0  0  0  0  3  0  0  0  0  0  0
  -23.6320  -29.5860   19.8920 C   0  0  0  0  0  2  0  0  0  0  0  0
  -24.6420  -30.8200   21.8470 N   0  0  0  0  0  0  0  0  0  0  0  0
  -23.4420  -31.8210   23.5100 O   0  0  0  0  0  0  0  0  0  0  0  0
  -22.7730  -29.1390   22.2400 C   0  0  0  0  0  0  0  0  0  0  0  0
  -21.4520  -28.9030   22.1390 N   0  0  0  0  0  0  0  0  0  0  0  0
  -23.4910  -28.5240   23.0330 O   0  0  0  0  0  0  0  0  0  0  0  0
  -20.9230  -29.4510   21.4760 H   0  0  0  0  0  0  0  0  0  0  0  0
  -18.1510  -27.5000   22.6820 C   0  0  0  0  0  0  0  0  0  0  0  0
  -20.6990  -27.8970   22.8950 C   0  0  0  0  0  3  0  0  0  0  0  0
  -20.8660  -26.4930   22.2720 C   0  0  0  0  0  2  0  0  0  0  0  0
  -19.7600  -26.1430   21.2720 C   0  0  0  0  0  2  0  0  0  0  0  0
  -18.3870  -26.1900   21.9490 C   0  0  0  0  0  2  0  0  0  0  0  0
  -19.2370  -28.3080   23.1110 C   0  0  0  0  0  0  0  0  0  0  0  0
  -18.9630  -29.5330   23.7560 C   0  0  0  0  0  3  0  0  0  0  0  0
  -17.6380  -29.9500   23.9810 C   0  0  0  0  0  3  0  0  0  0  0  0
  -16.5670  -29.1400   23.5650 C   0  0  0  0  0  3  0  0  0  0  0  0
  -16.8240  -27.9170   22.9210 C   0  0  0  0  0  3  0  0  0  0  0  0
  -25.7840  -32.3040   23.5900 C   0  0  0  0  0  3  0  0  0  0  0  0
  -25.3870  -33.6620   24.0070 N   0  0  0  0  0  0  0  0  0  0  0  0
  -25.6430  -34.7820   23.3190 C   0  0  0  0  0  0  0  0  0  0  0  0
  -26.3010  -34.7870   22.2750 O   0  0  0  0  0  0  0  0  0  0  0  0
  -24.7960  -33.7250   24.8230 H   0  0  0  0  0  0  0  0  0  0  0  0
  -23.7990  -36.4850   23.1140 C   0  0  0  0  0  1  0  0  0  0  0  0
  -25.0810  -36.1060   23.8730 C   0  0  0  0  0  3  0  0  0  0  0  0
  -27.1660  -37.0800   24.7300 C   0  0  0  0  0  1  0  0  0  0  0  0
  -26.0420  -37.2320   23.8110 N   0  0  0  0  0  0  0  0  0  0  0  0
  -25.5780  -38.1110   24.0200 H   0  0  0  0  0  0  0  0  0  0  0  0
  -26.3800  -31.5130   24.8180 C   0  0  1  0  0  0  0  0  0  0  0  0
  -25.3330  -31.1480   25.8960 C   0  0  0  0  0  1  0  0  0  0  0  0
  -27.0520  -30.1980   24.3560 C   0  0  0  0  0  1  0  0  0  0  0  0
  -27.4910  -32.3540   25.4920 C   0  0  0  0  0  1  0  0  0  0  0  0
  -29.9380  -19.8010   20.0290 C   0  0  0  0  0  3  0  0  0  0  0  0
  -28.1160  -19.5810   21.9120 C   0  0  0  0  0  1  0  0  0  0  0  0
  -29.6050  -19.6250   21.5280 C   0  0  0  0  0  2  0  0  0  0  0  0
  -30.1200  -18.1820   19.2820 C   0  0  0  0  0  2  0  0  0  0  0  0
  -30.9180  -15.3730   19.5920 C   0  0  0  0  0  0  0  0  0  0  0  0
  -30.7740  -12.9280   18.7700 C   0  0  0  0  0  2  0  0  0  0  0  0
  -29.7520  -12.7700   17.6150 C   0  0  0  0  0  2  0  0  0  0  0  0
  -28.3370  -12.5480   18.1780 C   0  0  0  0  0  2  0  0  0  0  0  0
  -28.0140  -13.5270   19.3330 C   0  0  0  0  0  3  0  0  0  0  0  0
  -29.1520  -13.6180   20.3730 C   0  0  0  0  0  2  0  0  0  0  0  0
  -30.3490  -14.0740   19.6530 N   0  0  0  0  0  0  0  0  0  0  0  0
  -32.0700  -15.3840   19.1330 O   0  0  0  0  0  0  0  0  0  0  0  0
  -30.1870  -16.6220   19.8570 N   0  0  0  0  0  0  0  0  0  0  0  0
  -29.3550  -16.4060   20.3890 H   0  0  0  0  0  0  0  0  0  0  0  0
  -25.7670  -14.1630   20.3550 C   0  0  0  0  0  0  0  0  0  0  0  0
  -24.7000  -13.4210   20.7790 C   0  0  0  0  0  0  0  0  0  0  0  0
  -25.0740  -12.0540   20.6030 C   0  0  0  0  0  0  0  0  0  0  0  0
  -26.7220  -13.2510   19.9470 N   0  0  0  0  0  0  0  0  0  0  0  0
  -26.3230  -11.9710   20.1570 N   0  0  0  0  0  0  0  0  0  0  0  0
  -24.2920  -10.8240   20.7790 C   0  0  0  0  0  0  0  0  0  0  0  0
  -24.6710   -9.8310   21.7100 C   0  0  0  0  0  3  0  0  0  0  0  0
  -23.8890   -8.6670   21.8720 C   0  0  0  0  0  3  0  0  0  0  0  0
  -22.7140   -8.4900   21.1050 C   0  0  0  0  0  0  0  0  0  0  0  0
  -22.3510   -9.4720   20.1650 C   0  0  0  0  0  3  0  0  0  0  0  0
  -23.1330  -10.6280   20.0010 C   0  0  0  0  0  3  0  0  0  0  0  0
  -21.9040   -7.3810   21.1790 O   0  0  0  0  0  0  0  0  0  0  0  0
  -21.6980   -6.7200   22.3630 C   0  0  0  0  0  0  0  0  0  0  0  0
  -21.1310   -7.3620   23.4860 C   0  0  0  0  0  3  0  0  0  0  0  0
  -20.8690   -6.6260   24.6590 C   0  0  0  0  0  3  0  0  0  0  0  0
  -21.1670   -5.2490   24.7100 C   0  0  0  0  0  0  0  0  0  0  0  0
  -21.7260   -4.6090   23.5900 C   0  0  0  0  0  3  0  0  0  0  0  0
  -21.9880   -5.3430   22.4190 C   0  0  0  0  0  0  0  0  0  0  0  0
  -22.5060   -4.7130   21.3360 F   0  0  0  0  0  0  0  0  0  0  0  0
  -20.9110   -4.5420   25.8340 F   0  0  0  0  0  0  0  0  0  0  0  0
  -23.3710  -13.9560   21.2270 C   0  0  0  0  0  0  0  0  0  0  0  0
  -22.6920  -13.2450   22.1190 N   0  0  0  0  0  0  0  0  0  0  0  0
  -22.9530  -15.0400   20.8230 O   0  0  0  0  0  0  0  0  0  0  0  0
  -23.0480  -12.3660   22.4620 H   0  0  0  0  0  0  0  0  0  0  0  0
  -21.8090  -13.5900   22.4680 H   0  0  0  0  0  0  0  0  0  0  0  0
  -25.9990  -15.5310   20.2540 N   0  0  0  0  0  0  0  0  0  0  0  0
  -25.2700  -16.2140   20.4290 H   0  0  0  0  0  0  0  0  0  0  0  0
  -26.8310  -15.9370   19.8510 H   0  0  0  0  0  0  0  0  0  0  0  0
  1  3  1  0
  1 46  1  0
  2  1  2  0
  4  5  1  0
  4  3  2  0
  6 17  2  0
  7  5  1  0
  7 12  1  0
  8 16  1  0
  8 18  1  0
  9 15  1  0
  9 11  1  0
 10 16  1  0
 11 10  1  0
 12 11  2  0
 13 14  1  0
 13  7  2  0
 14  9  2  0
 15  8  1  0
 16  6  1  0
 18 20  2  0
 19 18  1  0
 21 19  1  0
 22 31  2  0
 22 27  1  0
 23 19  1  0
 23 27  1  0
 24 23  1  0
 25 26  1  0
 25 24  1  0
 26 22  1  0
 27 28  2  0
 28 29  1  0
 30 29  2  0
 31 30  1  0
 32  6  1  0
 32 33  1  0
 32 42  1  0
 33 36  1  0
 34 38  1  0
 34 33  1  0
 35 34  2  0
 38 37  1  0
 40 38  1  0
 40 41  1  0
 40 39  1  0
 42 45  1  1
 42 43  1  0
 44 42  1  0
 46 49  1  0
 46 48  1  0
 48 47  1  0
 49 58  1  0
 50 56  1  0
 50 58  1  0
 51 56  1  0
 52 53  1  0
 52 51  1  0
 54 53  1  0
 54 63  1  0
 54 55  1  0
 56 55  1  0
 57 50  2  0
 58 59  1  0
 60 61  2  0
 61 80  1  0
 62 61  1  0
 62 65  1  0
 63 64  1  0
 63 60  1  0
 64 62  2  0
 65 66  1  0
 66 67  2  0
 68 71  1  0
 68 67  1  0
 69 68  2  0
 70 69  1  0
 70 65  2  0
 71 72  1  0
 72 77  2  0
 72 73  1  0
 73 74  2  0
 74 75  1  0
 75 79  1  0
 76 75  2  0
 77 76  1  0
 78 77  1  0
 80 81  1  0
 81 83  1  0
 81 84  1  0
 82 80  2  0
 85 60  1  0
 85 86  1  0
 87 85  1  0
M  ISO  4   4 101   5 101  50 100  58 100
M  END
>  <TORSDO>  (1) 
F 21

>  <SCORE>  (1) 
-10.772

>  <name>  (1) 
0

>  <ligand_id>  (1) 
0

>  <original_smiles>  (1) 
[H]c1c([H])c([H])c2c(c1[H])C([H])([H])C([H])([H])C([H])([H])C2([H])N([H])C(=O)C1([H])N(C(=O)C([H])(N([H])C(=O)C([H])(N([H])C([H])([H])[H])C([H])([H])[H])C(C([H])([H])[H])(C([H])([H])[H])C([H])([H])[H])C([H])([H])c2c([H])c(OC([H])([H])C([H])([H])C(=O)C([H])(C([H])([H])N([H])C(=O)N3C([H])([H])C([H])([H])C([H])([H])C([H])(n4nc(-c5c([H])c([H])c(Oc6c([H])c([H])c(F)c([H])c6F)c([H])c5[H])c(C(=O)N([H])[H])c4N([H])[H])C3([H])[H])C([H])([H])C([H])([H])[H])c([H])c([H])c2C1([H])[H]

>  <smiles>  (1) 
[H]c1c([H])c([H])c2c(c1[H])C([H])([H])C([H])([H])C([H])([H])C2([H])N([H])C(=O)C1([H])N(C(=O)C([H])(N([H])C(=O)C([H])(N([H])C([H])([H])[H])C([H])([H])[H])C(C([H])([H])[H])(C([H])([H])[H])C([H])([H])[H])C([H])([H])c2c([H])c(OC([H])([H])C([H])([H])C(=O)C([H])(C([H])([H])N([H])C(=O)N3C([H])([H])C([H])([H])C([H])([H])C([H])(n4nc(-c5c([H])c([H])c(Oc6c([H])c([H])c(F)c([H])c6F)c([H])c5[H])c(C(=O)N([H])[H])c4N([H])[H])C3([H])[H])C([H])([H])C([H])([H])[H])c([H])c([H])c2C1([H])[H]

$$$$
1:0:0
     RDKit          3D

 89 97  0  0  1  0  0  0  0  0999 V2000
  -29.1830  -21.1130   19.1090 C   0  0  0  0  0  0  0  0  0  0  0  0
  -28.0640  -20.8750   18.6530 O   0  0  0  0  0  0  0  0  0  0  0  0
  -30.2970  -19.7670   19.0300 C   0  0  0  0  0  2  0  0  0  0  0  0
  -31.1730  -15.3170   19.3560 C   0  0  0  0  0  0  0  0  0  0  0  0
  -31.0740  -12.7850   18.7920 C   0  0  0  0  0  2  0  0  0  0  0  0
  -30.1150  -12.4550   17.6190 C   0  0  0  0  0  2  0  0  0  0  0  0
  -28.6860  -12.2370   18.1390 C   0  0  0  0  0  2  0  0  0  0  0  0
  -28.2750  -13.3340   19.1530 C   0  0  0  0  0  3  0  0  0  0  0  0
  -29.3590  -13.6170   20.2200 C   0  0  0  0  0  2  0  0  0  0  0  0
  -30.5850  -14.0250   19.5100 N   0  0  0  0  0  0  0  0  0  0  0  0
  -32.3160  -15.2650   18.8780 O   0  0  0  0  0  0  0  0  0  0  0  0
  -29.2550  -17.8210   21.4850 C   0  0  0  0  0  2  0  0  0  0  0  0
  -28.5000  -17.8270   18.9920 C   0  0  0  0  0  2  0  0  0  0  0  0
  -30.4420  -16.9120   21.0800 C   0  0  0  0  0  2  0  0  0  0  0  0
  -28.0730  -17.8650   20.4860 C   0  0  0  0  0  3  0  0  0  0  0  0
  -30.0180  -17.9960   18.8240 C   0  0  0  0  0  3  0  0  0  0  0  0
  -27.1330  -19.0460   20.7810 C   0  0  0  0  0  1  0  0  0  0  0  0
  -30.5330  -16.6320   19.6370 N   0  0  0  0  0  0  0  0  0  0  0  0
  -25.9570  -13.9900   19.9920 C   0  0  0  0  0  0  0  0  0  0  0  0
  -24.9040  -13.2710   20.4750 C   0  0  0  0  0  0  0  0  0  0  0  0
  -25.3310  -11.9090   20.4810 C   0  0  0  0  0  0  0  0  0  0  0  0
  -26.9680  -13.0790   19.7440 N   0  0  0  0  0  0  0  0  0  0  0  0
  -26.6030  -11.8200   20.1000 N   0  0  0  0  0  0  0  0  0  0  0  0
  -24.5760  -10.6820   20.7670 C   0  0  0  0  0  0  0  0  0  0  0  0
  -24.9700   -9.7950   21.7930 C   0  0  0  0  0  3  0  0  0  0  0  0
  -24.2140   -8.6350   22.0650 C   0  0  0  0  0  3  0  0  0  0  0  0
  -23.0510   -8.3530   21.3110 C   0  0  0  0  0  0  0  0  0  0  0  0
  -22.6750   -9.2280   20.2760 C   0  0  0  0  0  3  0  0  0  0  0  0
  -23.4300  -10.3800   20.0030 C   0  0  0  0  0  3  0  0  0  0  0  0
  -22.2700   -7.2370   21.4860 O   0  0  0  0  0  0  0  0  0  0  0  0
  -22.0550   -6.6980   22.7290 C   0  0  0  0  0  0  0  0  0  0  0  0
  -21.4970   -7.4540   23.7840 C   0  0  0  0  0  3  0  0  0  0  0  0
  -21.2290   -6.8430   25.0240 C   0  0  0  0  0  3  0  0  0  0  0  0
  -21.5060   -5.4750   25.2110 C   0  0  0  0  0  0  0  0  0  0  0  0
  -22.0560   -4.7190   24.1610 C   0  0  0  0  0  3  0  0  0  0  0  0
  -22.3250   -5.3280   22.9230 C   0  0  0  0  0  0  0  0  0  0  0  0
  -22.8360   -4.5900   21.9080 F   0  0  0  0  0  0  0  0  0  0  0  0
  -21.2410   -4.8860   26.3990 F   0  0  0  0  0  0  0  0  0  0  0  0
  -23.5430  -13.8100   20.8030 C   0  0  0  0  0  0  0  0  0  0  0  0
  -22.8570  -13.1990   21.7620 N   0  0  0  0  0  0  0  0  0  0  0  0
  -23.1010  -14.8120   20.2440 O   0  0  0  0  0  0  0  0  0  0  0  0
  -23.2320  -12.3890   22.2340 H   0  0  0  0  0  0  0  0  0  0  0  0
  -21.9460  -13.5450   22.0270 H   0  0  0  0  0  0  0  0  0  0  0  0
  -26.1230  -15.3360   19.7050 N   0  0  0  0  0  0  0  0  0  0  0  0
  -25.3740  -16.0070   19.8260 H   0  0  0  0  0  0  0  0  0  0  0  0
  -26.9620  -15.7400   19.3160 H   0  0  0  0  0  0  0  0  0  0  0  0
  -29.3610  -22.7450   19.6810 C   0  0  0  0  0  3  0  0  0  0  0  0
  -28.2670  -24.1630   19.6180 C   0  0  0  0  0  3  0  0  0  0  0  0
  -28.4030  -25.7500   20.0040 O   0  0  0  0  0  0  0  0  0  0  0  0
  -24.6200  -31.4170   23.1710 C   0  0  0  0  0  0  0  0  0  0  0  0
  -27.3490  -26.7960   19.9570 C   0  0  0  0  0  0  0  0  0  0  0  0
  -23.4810  -30.0750   21.4500 C   0  0  0  0  0  3  0  0  0  0  0  0
  -24.9890  -28.5850   19.9670 C   0  0  0  0  0  0  0  0  0  0  0  0
  -26.0380  -30.3710   21.3430 C   0  0  0  0  0  2  0  0  0  0  0  0
  -26.1540  -29.0010   20.6210 C   0  0  0  0  0  0  0  0  0  0  0  0
  -27.3280  -28.1270   20.5920 C   0  0  0  0  0  3  0  0  0  0  0  0
  -26.1500  -26.5230   19.2600 C   0  0  0  0  0  3  0  0  0  0  0  0
  -25.0090  -27.3680   19.2660 C   0  0  0  0  0  3  0  0  0  0  0  0
  -23.7410  -29.4640   20.0440 C   0  0  0  0  0  2  0  0  0  0  0  0
  -24.7330  -30.6450   22.0440 N   0  0  0  0  0  0  0  0  0  0  0  0
  -23.5170  -31.6500   23.6950 O   0  0  0  0  0  0  0  0  0  0  0  0
  -22.8050  -29.0140   22.3570 C   0  0  0  0  0  0  0  0  0  0  0  0
  -21.5000  -28.7590   22.1490 N   0  0  0  0  0  0  0  0  0  0  0  0
  -23.4640  -28.4200   23.2140 O   0  0  0  0  0  0  0  0  0  0  0  0
  -21.0210  -29.2910   21.4360 H   0  0  0  0  0  0  0  0  0  0  0  0
  -18.2050  -27.2610   22.3850 C   0  0  0  0  0  0  0  0  0  0  0  0
  -20.7010  -27.7520   22.8560 C   0  0  0  0  0  3  0  0  0  0  0  0
  -20.9770  -26.3360   22.3010 C   0  0  0  0  0  2  0  0  0  0  0  0
  -19.9950  -25.9170   21.2020 C   0  0  0  0  0  2  0  0  0  0  0  0
  -18.5570  -25.9340   21.7300 C   0  0  0  0  0  2  0  0  0  0  0  0
  -19.2120  -28.1200   22.9000 C   0  0  0  0  0  0  0  0  0  0  0  0
  -18.8300  -29.3530   23.4720 C   0  0  0  0  0  3  0  0  0  0  0  0
  -17.4760  -29.7300   23.5340 C   0  0  0  0  0  3  0  0  0  0  0  0
  -16.4830  -28.8700   23.0350 C   0  0  0  0  0  3  0  0  0  0  0  0
  -16.8480  -27.6360   22.4660 C   0  0  0  0  0  3  0  0  0  0  0  0
  -25.8670  -32.0590   23.8510 C   0  0  0  0  0  3  0  0  0  0  0  0
  -26.3080  -31.3100   25.1700 C   0  0  1  0  0  0  0  0  0  0  0  0
  -25.1570  -31.0970   26.1810 C   0  0  0  0  0  1  0  0  0  0  0  0
  -26.9050  -29.9230   24.8440 C   0  0  0  0  0  1  0  0  0  0  0  0
  -27.4240  -32.1130   25.8780 C   0  0  0  0  0  1  0  0  0  0  0  0
  -25.5440  -33.4650   24.1510 N   0  0  0  0  0  0  0  0  0  0  0  0
  -25.8940  -34.5130   23.3910 C   0  0  0  0  0  0  0  0  0  0  0  0
  -26.5830  -34.3960   22.3750 O   0  0  0  0  0  0  0  0  0  0  0  0
  -24.9330  -33.6290   24.9370 H   0  0  0  0  0  0  0  0  0  0  0  0
  -24.1770  -36.3120   22.9890 C   0  0  0  0  0  1  0  0  0  0  0  0
  -25.4030  -35.9090   23.8250 C   0  0  0  0  0  3  0  0  0  0  0  0
  -27.5200  -36.8090   24.6880 C   0  0  0  0  0  1  0  0  0  0  0  0
  -26.4400  -36.9590   23.7170 N   0  0  0  0  0  0  0  0  0  0  0  0
  -26.0330  -37.8830   23.8350 H   0  0  0  0  0  0  0  0  0  0  0  0
  1 47  1  0
  2  1  2  0
  3  1  1  0
  4 10  1  0
  4 18  1  0
  5 10  1  0
  6  7  1  0
  6  5  1  0
  8  7  1  0
  8 22  1  0
  8  9  1  0
 10  9  1  0
 11  4  2  0
 13 15  1  0
 14 12  1  0
 15 17  1  0
 15 12  1  0
 16 13  1  0
 16  3  1  0
 16 18  1  0
 18 14  1  0
 19 20  2  0
 20 21  1  0
 20 39  1  0
 21 24  1  0
 22 19  1  0
 22 23  1  0
 23 21  2  0
 24 25  1  0
 25 26  2  0
 27 30  1  0
 27 26  1  0
 28 27  2  0
 29 28  1  0
 29 24  2  0
 30 31  1  0
 31 36  2  0
 31 32  1  0
 32 33  2  0
 33 34  1  0
 34 38  1  0
 35 34  2  0
 36 35  1  0
 37 36  1  0
 39 40  1  0
 40 43  1  0
 40 42  1  0
 41 39  2  0
 44 45  1  0
 44 19  1  0
 46 44  1  0
 48 47  2  0
 48 49  1  0
 50 61  2  0
 51 49  1  0
 51 56  1  0
 52 60  1  0
 52 62  1  0
 53 59  1  0
 53 55  1  0
 54 60  1  0
 55 54  1  0
 56 55  2  0
 57 58  1  0
 57 51  2  0
 58 53  2  0
 59 52  1  0
 60 50  1  0
 62 64  2  0
 63 62  1  0
 65 63  1  0
 66 75  2  0
 66 71  1  0
 67 63  1  0
 67 71  1  0
 68 67  1  0
 69 70  1  0
 69 68  1  0
 70 66  1  0
 71 72  2  0
 72 73  1  0
 74 73  2  0
 75 74  1  0
 76 50  1  0
 76 81  1  0
 76 77  1  0
 77 80  1  1
 77 78  1  0
 79 77  1  0
 81 84  1  0
 82 86  1  0
 82 81  1  0
 83 82  2  0
 86 85  1  0
 88 86  1  0
 88 89  1  0
 88 87  1  0
M  ISO  4   4 100  18 100  48 101  49 101
M  END
>  <TORSDO>  (2) 
F 19

>  <SCORE>  (2) 
-12.024

>  <name>  (2) 
1

>  <ligand_id>  (2) 
1

>  <original_smiles>  (2) 
[H]c1c([H])c([H])c2c(c1[H])C([H])([H])C([H])([H])C([H])([H])C2([H])N([H])C(=O)C1([H])N(C(=O)C([H])(N([H])C(=O)C([H])(N([H])C([H])([H])[H])C([H])([H])[H])C(C([H])([H])[H])(C([H])([H])[H])C([H])([H])[H])C([H])([H])c2c([H])c(OC([H])([H])C([H])([H])C(=O)C([H])([H])C3([H])N(C(=O)N4C([H])([H])C([H])([H])C([H])([H])C([H])(n5nc(-c6c([H])c([H])c(Oc7c([H])c([H])c(F)c([H])c7F)c([H])c6[H])c(C(=O)N([H])[H])c5N([H])[H])C4([H])[H])C([H])([H])C([H])([H])C([H])(C([H])([H])[H])C3([H])[H])c([H])c([H])c2C1([H])[H]

>  <smiles>  (2) 
[H]c1c([H])c([H])c2c(c1[H])C([H])([H])C([H])([H])C([H])([H])C2([H])N([H])C(=O)C1([H])N(C(=O)C([H])(N([H])C(=O)C([H])(N([H])C([H])([H])[H])C([H])([H])[H])C(C([H])([H])[H])(C([H])([H])[H])C([H])([H])[H])C([H])([H])c2c([H])c(OC([H])([H])C([H])([H])C(=O)C([H])([H])C3([H])N(C(=O)N4C([H])([H])C([H])([H])C([H])([H])C([H])(n5nc(-c6c([H])c([H])c(Oc7c([H])c([H])c(F)c([H])c7F)c([H])c6[H])c(C(=O)N([H])[H])c5N([H])[H])C4([H])[H])C([H])([H])C([H])([H])C([H])(C([H])([H])[H])C3([H])[H])c([H])c([H])c2C1([H])[H]

$$$$
2:0:0
     RDKit          3D

 92100  0  0  1  0  0  0  0  0999 V2000
  -30.5650  -15.1410   20.3840 C   0  0  0  0  0  0  0  0  0  0  0  0
  -30.4000  -12.7480   19.4880 C   0  0  0  0  0  2  0  0  0  0  0  0
  -29.5040  -12.5960   18.2380 C   0  0  0  0  0  2  0  0  0  0  0  0
  -28.0430  -12.3650   18.6590 C   0  0  0  0  0  2  0  0  0  0  0  0
  -27.5910  -13.3460   19.7700 C   0  0  0  0  0  3  0  0  0  0  0  0
  -28.6220  -13.4860   20.9120 C   0  0  0  0  0  2  0  0  0  0  0  0
  -29.8870  -13.9080   20.2930 N   0  0  0  0  0  0  0  0  0  0  0  0
  -31.7900  -15.0440   20.2420 O   0  0  0  0  0  0  0  0  0  0  0  0
  -30.5570  -19.2080   20.4440 C   0  0  0  0  0  2  0  0  0  0  0  0
  -30.6990  -17.6980   21.0880 C   0  0  0  0  0  2  0  0  0  0  0  0
  -28.9050  -17.1390   19.6700 C   0  0  0  0  0  2  0  0  0  0  0  0
  -29.1450  -19.9540   20.4340 C   0  0  0  0  0  3  0  0  0  0  0  0
  -28.2580  -18.6500   19.9490 C   0  0  0  0  0  3  0  0  0  0  0  0
  -29.9700  -16.4760   20.5230 N   0  0  0  0  0  0  0  0  0  0  0  0
  -25.2080  -13.9420   20.4630 C   0  0  0  0  0  0  0  0  0  0  0  0
  -24.1300  -13.1790   20.8130 C   0  0  0  0  0  0  0  0  0  0  0  0
  -24.5870  -11.8250   20.8170 C   0  0  0  0  0  0  0  0  0  0  0  0
  -26.2500  -13.0540   20.2590 N   0  0  0  0  0  0  0  0  0  0  0  0
  -25.8860  -11.7770   20.5420 N   0  0  0  0  0  0  0  0  0  0  0  0
  -23.8460  -10.5710   21.0050 C   0  0  0  0  0  0  0  0  0  0  0  0
  -24.2610   -9.6010   21.9450 C   0  0  0  0  0  3  0  0  0  0  0  0
  -23.5190   -8.4130   22.1220 C   0  0  0  0  0  3  0  0  0  0  0  0
  -22.3500   -8.1860   21.3590 C   0  0  0  0  0  0  0  0  0  0  0  0
  -21.9530   -9.1450   20.4080 C   0  0  0  0  0  3  0  0  0  0  0  0
  -22.6960  -10.3250   20.2300 C   0  0  0  0  0  3  0  0  0  0  0  0
  -21.5840   -7.0490   21.4440 O   0  0  0  0  0  0  0  0  0  0  0  0
  -21.5360   -6.2960   22.5890 C   0  0  0  0  0  0  0  0  0  0  0  0
  -21.1510   -6.8520   23.8290 C   0  0  0  0  0  3  0  0  0  0  0  0
  -21.0480   -6.0290   24.9680 C   0  0  0  0  0  3  0  0  0  0  0  0
  -21.3210   -4.6520   24.8700 C   0  0  0  0  0  0  0  0  0  0  0  0
  -21.7000   -4.0950   23.6350 C   0  0  0  0  0  3  0  0  0  0  0  0
  -21.8050   -4.9160   22.4980 C   0  0  0  0  0  0  0  0  0  0  0  0
  -22.1490   -4.3710   21.3060 F   0  0  0  0  0  0  0  0  0  0  0  0
  -21.2160   -3.8590   25.9610 F   0  0  0  0  0  0  0  0  0  0  0  0
  -22.7300  -13.6710   21.0370 C   0  0  0  0  0  0  0  0  0  0  0  0
  -21.9730  -12.9990   21.8960 N   0  0  0  0  0  0  0  0  0  0  0  0
  -22.3150  -14.6880   20.4840 O   0  0  0  0  0  0  0  0  0  0  0  0
  -22.3250  -12.1770   22.3660 H   0  0  0  0  0  0  0  0  0  0  0  0
  -21.0330  -13.3140   22.0910 H   0  0  0  0  0  0  0  0  0  0  0  0
  -25.3880  -15.3090   20.2780 N   0  0  0  0  0  0  0  0  0  0  0  0
  -24.6310  -15.9730   20.4000 H   0  0  0  0  0  0  0  0  0  0  0  0
  -26.2690  -15.7380   20.0360 H   0  0  0  0  0  0  0  0  0  0  0  0
  -28.9230  -21.5350   19.7970 C   0  0  0  0  0  0  0  0  0  0  0  0
  -28.6820  -21.5690   18.5890 O   0  0  0  0  0  0  0  0  0  0  0  0
  -28.9370  -23.0730   20.5100 C   0  0  0  0  0  3  0  0  0  0  0  0
  -28.1140  -24.5110   19.9710 C   0  0  0  0  0  3  0  0  0  0  0  0
  -28.2980  -26.0640   20.3070 O   0  0  0  0  0  0  0  0  0  0  0  0
  -24.6460  -31.8680   23.2050 C   0  0  0  0  0  0  0  0  0  0  0  0
  -27.2570  -27.0880   20.2110 C   0  0  0  0  0  0  0  0  0  0  0  0
  -23.4630  -30.4550   21.5690 C   0  0  0  0  0  3  0  0  0  0  0  0
  -24.9270  -28.8720   20.1560 C   0  0  0  0  0  0  0  0  0  0  0  0
  -26.0200  -30.7150   21.4180 C   0  0  0  0  0  2  0  0  0  0  0  0
  -26.1050  -29.3130   20.7730 C   0  0  0  0  0  0  0  0  0  0  0  0
  -27.2660  -28.4370   20.7810 C   0  0  0  0  0  3  0  0  0  0  0  0
  -26.0530  -26.7730   19.5430 C   0  0  0  0  0  3  0  0  0  0  0  0
  -24.9200  -27.6200   19.5220 C   0  0  0  0  0  3  0  0  0  0  0  0
  -23.6970  -29.7710   20.1950 C   0  0  0  0  0  2  0  0  0  0  0  0
  -24.7300  -31.0370   22.1180 N   0  0  0  0  0  0  0  0  0  0  0  0
  -23.5560  -32.1480   23.7260 O   0  0  0  0  0  0  0  0  0  0  0  0
  -22.7830  -29.4530   22.5370 C   0  0  0  0  0  0  0  0  0  0  0  0
  -21.4520  -29.2890   22.4200 N   0  0  0  0  0  0  0  0  0  0  0  0
  -23.4560  -28.8240   23.3560 O   0  0  0  0  0  0  0  0  0  0  0  0
  -20.9640  -29.8490   21.7340 H   0  0  0  0  0  0  0  0  0  0  0  0
  -18.0700  -28.0950   22.9480 C   0  0  0  0  0  0  0  0  0  0  0  0
  -20.6320  -28.3540   23.1980 C   0  0  0  0  0  3  0  0  0  0  0  0
  -20.7280  -26.9220   22.6230 C   0  0  0  0  0  2  0  0  0  0  0  0
  -19.6180  -26.6010   21.6160 C   0  0  0  0  0  2  0  0  0  0  0  0
  -18.2410  -26.7470   22.2680 C   0  0  0  0  0  2  0  0  0  0  0  0
  -19.1930  -28.8560   23.3700 C   0  0  0  0  0  0  0  0  0  0  0  0
  -18.9790  -30.1170   23.9690 C   0  0  0  0  0  3  0  0  0  0  0  0
  -17.6750  -30.6170   24.1480 C   0  0  0  0  0  3  0  0  0  0  0  0
  -16.5680  -29.8540   23.7400 C   0  0  0  0  0  3  0  0  0  0  0  0
  -16.7660  -28.5950   23.1450 C   0  0  0  0  0  3  0  0  0  0  0  0
  -25.9150  -32.5190   23.8330 C   0  0  0  0  0  3  0  0  0  0  0  0
  -26.4340  -31.7540   25.1130 C   0  0  1  0  0  0  0  0  0  0  0  0
  -25.3410  -31.5120   26.1810 C   0  0  0  0  0  1  0  0  0  0  0  0
  -27.0270  -30.3780   24.7310 C   0  0  0  0  0  1  0  0  0  0  0  0
  -27.5780  -32.5570   25.7760 C   0  0  0  0  0  1  0  0  0  0  0  0
  -25.5860  -33.9140   24.1730 N   0  0  0  0  0  0  0  0  0  0  0  0
  -25.8970  -34.9780   23.4220 C   0  0  0  0  0  0  0  0  0  0  0  0
  -26.5580  -34.8920   22.3840 O   0  0  0  0  0  0  0  0  0  0  0  0
  -24.9990  -34.0530   24.9820 H   0  0  0  0  0  0  0  0  0  0  0  0
  -24.1370  -36.7510   23.1150 C   0  0  0  0  0  1  0  0  0  0  0  0
  -25.4000  -36.3590   23.8980 C   0  0  0  0  0  3  0  0  0  0  0  0
  -27.5390  -37.2720   24.6880 C   0  0  0  0  0  1  0  0  0  0  0  0
  -26.4130  -37.4290   23.7700 N   0  0  0  0  0  0  0  0  0  0  0  0
  -25.9960  -38.3410   23.9330 H   0  0  0  0  0  0  0  0  0  0  0  0
  -27.3350  -18.8960   18.7180 C   0  0  0  0  0  2  0  0  0  0  0  0
  -26.3140  -19.9420   18.8940 N   0  0  0  0  0  4  0  0  0  0  0  0
  -25.8080  -19.8440   19.7570 H   0  0  0  0  0  0  0  0  0  0  0  0
  -25.6580  -19.9010   18.1330 H   0  0  0  0  0  0  0  0  0  0  0  0
  -26.7700  -20.8400   18.8540 H   0  0  0  0  0  0  0  0  0  0  0  0
  1 14  1  0
  2  7  1  0
  3  4  1  0
  3  2  1  0
  5  4  1  0
  5 18  1  0
  5  6  1  0
  7  1  1  0
  7  6  1  0
  8  1  2  0
  9 10  1  0
 11 13  1  0
 11 14  1  0
 12 43  1  0
 12  9  1  0
 13 88  1  0
 13 12  1  0
 14 10  1  0
 15 16  2  0
 16 17  1  0
 16 35  1  0
 17 20  1  0
 18 15  1  0
 18 19  1  0
 19 17  2  0
 20 21  1  0
 21 22  2  0
 23 26  1  0
 23 22  1  0
 24 23  2  0
 25 24  1  0
 25 20  2  0
 26 27  1  0
 27 28  1  0
 28 29  2  0
 30 29  1  0
 30 34  1  0
 31 30  2  0
 32 27  2  0
 32 31  1  0
 33 32  1  0
 35 36  1  0
 36 39  1  0
 36 38  1  0
 37 35  2  0
 40 41  1  0
 40 15  1  0
 42 40  1  0
 43 45  1  0
 44 43  2  0
 46 47  1  0
 46 45  2  0
 48 59  2  0
 49 47  1  0
 49 54  1  0
 50 58  1  0
 50 60  1  0
 51 57  1  0
 51 53  1  0
 52 58  1  0
 53 54  2  0
 53 52  1  0
 55 49  2  0
 56 55  1  0
 56 51  2  0
 57 50  1  0
 58 48  1  0
 60 62  2  0
 61 60  1  0
 63 61  1  0
 64 73  2  0
 64 69  1  0
 65 61  1  0
 65 69  1  0
 66 65  1  0
 67 68  1  0
 67 66  1  0
 68 64  1  0
 69 70  2  0
 70 71  1  0
 72 71  2  0
 73 72  1  0
 74 48  1  0
 74 79  1  0
 74 75  1  0
 75 78  1  1
 75 76  1  0
 77 75  1  0
 79 82  1  0
 80 84  1  0
 80 79  1  0
 81 80  2  0
 84 83  1  0
 86 84  1  0
 86 87  1  0
 86 85  1  0
 88 89  1  0
 89 90  1  0
 91 89  1  0
 92 89  1  0
M  ISO  4   1 100  14 100  46 101  47 101
M  END
>  <TORSDO>  (3) 
F 20

>  <SCORE>  (3) 
-15.695

>  <name>  (3) 
2

>  <ligand_id>  (3) 
2

>  <original_smiles>  (3) 
[H]c1c([H])c([H])c2c(c1[H])C([H])([H])C([H])([H])C([H])([H])C2([H])N([H])C(=O)C1([H])N(C(=O)C([H])(N([H])C(=O)C([H])(N([H])C([H])([H])[H])C([H])([H])[H])C(C([H])([H])[H])(C([H])([H])[H])C([H])([H])[H])C([H])([H])c2c([H])c(OC([H])([H])C([H])([H])C(=O)C3([H])C([H])([H])C([H])([H])N(C(=O)N4C([H])([H])C([H])([H])C([H])([H])C([H])(n5nc(-c6c([H])c([H])c(Oc7c([H])c([H])c(F)c([H])c7F)c([H])c6[H])c(C(=O)N([H])[H])c5N([H])[H])C4([H])[H])C([H])([H])C3([H])C([H])([H])[N+]([H])([H])[H])c([H])c([H])c2C1([H])[H]

>  <smiles>  (3) 
[H]c1c([H])c([H])c2c(c1[H])C([H])([H])C([H])([H])C([H])([H])C2([H])N([H])C(=O)C1([H])N(C(=O)C([H])(N([H])C(=O)C([H])(N([H])C([H])([H])[H])C([H])([H])[H])C(C([H])([H])[H])(C([H])([H])[H])C([H])([H])[H])C([H])([H])c2c([H])c(OC([H])([H])C([H])([H])C(=O)C3([H])C([H])([H])C([H])([H])N(C(=O)N4C([H])([H])C([H])([H])C([H])([H])C([H])(n5nc(-c6c([H])c([H])c(Oc7c([H])c([H])c(F)c([H])c7F)c([H])c6[H])c(C(=O)N([H])[H])c5N([H])[H])C4([H])[H])C([H])([H])C3([H])C([H])([H])[N+]([H])([H])[H])c([H])c([H])c2C1([H])[H]

$$$$
3:0:0
     RDKit          3D

 96104  0  0  1  0  0  0  0  0999 V2000
  -28.4170  -20.2610   21.3560 C   0  0  0  0  0  3  0  0  0  0  0  0
  -28.7970  -18.9260   21.0330 C   0  0  0  0  0  3  0  0  0  0  0  0
  -30.4800  -21.0900   20.4440 C   0  0  0  0  0  3  0  0  0  0  0  0
  -29.2370  -21.3810   21.0520 C   0  0  0  0  0  0  0  0  0  0  0  0
  -30.0240  -18.6310   20.3880 C   0  0  0  0  0  0  0  0  0  0  0  0
  -30.8750  -19.7550   20.1200 C   0  0  0  0  0  0  0  0  0  0  0  0
  -32.2350  -19.5720   19.4620 C   0  0  0  0  0  1  0  0  0  0  0  0
  -28.8100  -22.8250   21.4870 C   0  0  0  0  0  2  0  0  0  0  0  0
  -28.9890  -24.0860   20.5370 C   0  0  0  0  0  2  0  0  0  0  0  0
  -28.4290  -25.4460   21.1430 C   0  0  0  0  0  2  0  0  0  0  0  0
  -28.5820  -26.7200   20.4190 O   0  0  0  0  0  0  0  0  0  0  0  0
  -24.6680  -31.9780   23.3840 C   0  0  0  0  0  0  0  0  0  0  0  0
  -27.4510  -27.5330   20.3690 C   0  0  0  0  0  0  0  0  0  0  0  0
  -23.5330  -30.5650   21.7040 C   0  0  0  0  0  3  0  0  0  0  0  0
  -25.0510  -29.0630   20.2980 C   0  0  0  0  0  0  0  0  0  0  0  0
  -26.0620  -30.9590   21.5740 C   0  0  0  0  0  2  0  0  0  0  0  0
  -26.1910  -29.5890   20.9220 C   0  0  0  0  0  0  0  0  0  0  0  0
  -27.3990  -28.8370   20.9420 C   0  0  0  0  0  3  0  0  0  0  0  0
  -26.2950  -27.0460   19.7250 C   0  0  0  0  0  3  0  0  0  0  0  0
  -25.1040  -27.7980   19.6880 C   0  0  0  0  0  3  0  0  0  0  0  0
  -23.7910  -29.9040   20.3240 C   0  0  0  0  0  2  0  0  0  0  0  0
  -24.7710  -31.1840   22.2790 N   0  0  0  0  0  0  0  0  0  0  0  0
  -23.5670  -32.2260   23.8970 O   0  0  0  0  0  0  0  0  0  0  0  0
  -22.8730  -29.5270   22.6450 C   0  0  0  0  0  0  0  0  0  0  0  0
  -21.5560  -29.3210   22.4850 N   0  0  0  0  0  0  0  0  0  0  0  0
  -23.5480  -28.9100   23.4740 O   0  0  0  0  0  0  0  0  0  0  0  0
  -21.0720  -29.8730   21.7910 H   0  0  0  0  0  0  0  0  0  0  0  0
  -18.1860  -28.0760   22.9200 C   0  0  0  0  0  0  0  0  0  0  0  0
  -20.7370  -28.3600   23.2270 C   0  0  0  0  0  3  0  0  0  0  0  0
  -20.8630  -26.9390   22.6270 C   0  0  0  0  0  2  0  0  0  0  0  0
  -19.7770  -26.6230   21.5950 C   0  0  0  0  0  2  0  0  0  0  0  0
  -18.3860  -26.7400   22.2240 C   0  0  0  0  0  2  0  0  0  0  0  0
  -19.2900  -28.8440   23.3770 C   0  0  0  0  0  0  0  0  0  0  0  0
  -19.0480  -30.0950   23.9850 C   0  0  0  0  0  3  0  0  0  0  0  0
  -17.7350  -30.5760   24.1440 C   0  0  0  0  0  3  0  0  0  0  0  0
  -16.6450  -29.8040   23.7040 C   0  0  0  0  0  3  0  0  0  0  0  0
  -16.8710  -28.5570   23.0950 C   0  0  0  0  0  3  0  0  0  0  0  0
  -25.9240  -32.6330   24.0380 C   0  0  0  0  0  3  0  0  0  0  0  0
  -26.4060  -31.8820   25.3400 C   0  0  1  0  0  0  0  0  0  0  0  0
  -25.2720  -31.6030   26.3540 C   0  0  0  0  0  1  0  0  0  0  0  0
  -27.0600  -30.5270   24.9810 C   0  0  0  0  0  1  0  0  0  0  0  0
  -27.4900  -32.7230   26.0560 C   0  0  0  0  0  1  0  0  0  0  0  0
  -25.5880  -34.0300   24.3420 N   0  0  0  0  0  0  0  0  0  0  0  0
  -25.9310  -35.0770   23.5820 C   0  0  0  0  0  0  0  0  0  0  0  0
  -26.6310  -34.9690   22.5710 O   0  0  0  0  0  0  0  0  0  0  0  0
  -24.9670  -34.1860   25.1220 H   0  0  0  0  0  0  0  0  0  0  0  0
  -24.1860  -36.8410   23.1630 C   0  0  0  0  0  1  0  0  0  0  0  0
  -25.4150  -36.4660   24.0070 C   0  0  0  0  0  3  0  0  0  0  0  0
  -27.5190  -37.3940   24.8690 C   0  0  0  0  0  1  0  0  0  0  0  0
  -26.4350  -37.5320   23.9000 N   0  0  0  0  0  0  0  0  0  0  0  0
  -26.0130  -38.4490   24.0220 H   0  0  0  0  0  0  0  0  0  0  0  0
  -30.3150  -17.1970   19.7990 C   0  0  0  0  0  3  0  0  0  0  0  0
  -31.0420  -14.8510   20.4580 C   0  0  0  0  0  0  0  0  0  0  0  0
  -30.7810  -12.6470   19.3660 C   0  0  0  0  0  2  0  0  0  0  0  0
  -29.8750  -12.8540   18.1310 C   0  0  0  0  0  2  0  0  0  0  0  0
  -28.3880  -12.7390   18.5220 C   0  0  0  0  0  2  0  0  0  0  0  0
  -28.0280  -13.5590   19.7890 C   0  0  0  0  0  3  0  0  0  0  0  0
  -29.0590  -13.3480   20.9220 C   0  0  0  0  0  2  0  0  0  0  0  0
  -30.3900  -13.6500   20.3760 N   0  0  0  0  0  0  0  0  0  0  0  0
  -32.2160  -14.9650   20.0930 O   0  0  0  0  0  0  0  0  0  0  0  0
  -30.2600  -15.9600   20.6560 N   0  0  0  0  0  0  0  0  0  0  0  0
  -29.3600  -15.7610   21.0640 H   0  0  0  0  0  0  0  0  0  0  0  0
  -25.6230  -14.1940   20.4250 C   0  0  0  0  0  0  0  0  0  0  0  0
  -24.5350  -13.4350   20.7650 C   0  0  0  0  0  0  0  0  0  0  0  0
  -24.9830  -12.0790   20.7610 C   0  0  0  0  0  0  0  0  0  0  0  0
  -26.6640  -13.2980   20.2320 N   0  0  0  0  0  0  0  0  0  0  0  0
  -26.2820  -12.0220   20.4930 N   0  0  0  0  0  0  0  0  0  0  0  0
  -24.2350  -10.8270   20.9400 C   0  0  0  0  0  0  0  0  0  0  0  0
  -24.6040   -9.8810   21.9220 C   0  0  0  0  0  3  0  0  0  0  0  0
  -23.8580   -8.6940   22.0840 C   0  0  0  0  0  3  0  0  0  0  0  0
  -22.7300   -8.4460   21.2670 C   0  0  0  0  0  0  0  0  0  0  0  0
  -22.3820   -9.3810   20.2770 C   0  0  0  0  0  3  0  0  0  0  0  0
  -23.1280  -10.5600   20.1110 C   0  0  0  0  0  3  0  0  0  0  0  0
  -21.9630   -7.3090   21.3380 O   0  0  0  0  0  0  0  0  0  0  0  0
  -21.8020   -6.6210   22.5140 C   0  0  0  0  0  0  0  0  0  0  0  0
  -21.2710   -7.2360   23.6680 C   0  0  0  0  0  3  0  0  0  0  0  0
  -21.0530   -6.4750   24.8340 C   0  0  0  0  0  3  0  0  0  0  0  0
  -21.3610   -5.1010   24.8480 C   0  0  0  0  0  0  0  0  0  0  0  0
  -21.8880   -4.4870   23.6980 C   0  0  0  0  0  3  0  0  0  0  0  0
  -22.1020   -5.2440   22.5330 C   0  0  0  0  0  0  0  0  0  0  0  0
  -22.5880   -4.6430   21.4200 F   0  0  0  0  0  0  0  0  0  0  0  0
  -21.1480   -4.3670   25.9660 F   0  0  0  0  0  0  0  0  0  0  0  0
  -23.1380  -13.9330   20.9920 C   0  0  0  0  0  0  0  0  0  0  0  0
  -22.3840  -13.2660   21.8600 N   0  0  0  0  0  0  0  0  0  0  0  0
  -22.7220  -14.9480   20.4360 O   0  0  0  0  0  0  0  0  0  0  0  0
  -22.7290  -12.4420   22.3270 H   0  0  0  0  0  0  0  0  0  0  0  0
  -21.4460  -13.5870   22.0600 H   0  0  0  0  0  0  0  0  0  0  0  0
  -25.8110  -15.5610   20.2450 N   0  0  0  0  0  0  0  0  0  0  0  0
  -25.0600  -16.2320   20.3580 H   0  0  0  0  0  0  0  0  0  0  0  0
  -26.6890  -15.9900   19.9920 H   0  0  0  0  0  0  0  0  0  0  0  0
  -29.3440  -16.9490   18.6120 C   0  0  0  0  0  2  0  0  0  0  0  0
  -29.0930  -18.1440   17.6680 C   0  0  0  0  0  2  0  0  0  0  0  0
  -28.1800  -17.7990   16.5600 N   0  0  0  0  0  4  0  0  0  0  0  0
  -28.5470  -17.0410   16.0110 H   0  0  0  0  0  0  0  0  0  0  0  0
  -28.0660  -18.5910   15.9530 H   0  0  0  0  0  0  0  0  0  0  0  0
  -27.2720  -17.5400   16.9050 H   0  0  0  0  0  0  0  0  0  0  0  0
  2  1  2  0
  3  4  2  0
  4  1  1  0
  4  8  1  0
  5  2  1  0
  6  5  2  0
  6  3  1  0
  7  6  1  0
  9 10  1  0
  9  8  1  0
 11 10  1  0
 12 23  2  0
 13 11  1  0
 13 18  1  0
 14 22  1  0
 14 24  1  0
 15 21  1  0
 15 17  1  0
 16 22  1  0
 17 18  2  0
 17 16  1  0
 19 13  2  0
 20 19  1  0
 20 15  2  0
 21 14  1  0
 22 12  1  0
 24 26  2  0
 25 24  1  0
 27 25  1  0
 28 37  2  0
 28 33  1  0
 29 25  1  0
 29 33  1  0
 30 29  1  0
 31 32  1  0
 31 30  1  0
 32 28  1  0
 33 34  2  0
 34 35  1  0
 36 35  2  0
 37 36  1  0
 38 12  1  0
 38 43  1  0
 38 39  1  0
 39 42  1  1
 39 40  1  0
 41 39  1  0
 43 46  1  0
 44 48  1  0
 44 43  1  0
 45 44  2  0
 48 47  1  0
 50 48  1  0
 50 51  1  0
 50 49  1  0
 52 91  1  0
 52  5  1  0
 52 61  1  0
 53 61  1  0
 54 59  1  0
 55 56  1  0
 55 54  1  0
 57 56  1  0
 57 66  1  0
 57 58  1  0
 59 53  1  0
 59 58  1  0
 60 53  2  0
 61 62  1  0
 63 64  2  0
 64 83  1  0
 65 64  1  0
 65 68  1  0
 66 63  1  0
 66 67  1  0
 67 65  2  0
 68 69  1  0
 69 70  2  0
 71 74  1  0
 71 70  1  0
 72 71  2  0
 73 72  1  0
 73 68  2  0
 74 75  1  0
 75 80  2  0
 75 76  1  0
 76 77  2  0
 77 78  1  0
 78 82  1  0
 79 78  2  0
 80 79  1  0
 81 80  1  0
 83 84  1  0
 84 87  1  0
 84 86  1  0
 85 83  2  0
 88 89  1  0
 88 63  1  0
 90 88  1  0
 92 91  1  0
 93 96  1  0
 93 92  1  0
 94 93  1  0
 95 93  1  0
M  ISO  4  10 101  11 101  53 100  61 100
M  END
>  <TORSDO>  (4) 
F 23

>  <SCORE>  (4) 
-11.303

>  <name>  (4) 
3

>  <ligand_id>  (4) 
3

>  <original_smiles>  (4) 
[H]c1c([H])c([H])c2c(c1[H])C([H])([H])C([H])([H])C([H])([H])C2([H])N([H])C(=O)C1([H])N(C(=O)C([H])(N([H])C(=O)C([H])(N([H])C([H])([H])[H])C([H])([H])[H])C(C([H])([H])[H])(C([H])([H])[H])C([H])([H])[H])C([H])([H])c2c([H])c(OC([H])([H])C([H])([H])C([H])([H])c3c([H])c([H])c(C([H])(N([H])C(=O)N4C([H])([H])C([H])([H])C([H])([H])C([H])(n5nc(-c6c([H])c([H])c(Oc7c([H])c([H])c(F)c([H])c7F)c([H])c6[H])c(C(=O)N([H])[H])c5N([H])[H])C4([H])[H])C([H])([H])C([H])([H])[N+]([H])([H])[H])c(C([H])([H])[H])c3[H])c([H])c([H])c2C1([H])[H]

>  <smiles>  (4) 
[H]c1c([H])c([H])c2c(c1[H])C([H])([H])C([H])([H])C([H])([H])C2([H])N([H])C(=O)C1([H])N(C(=O)C([H])(N([H])C(=O)C([H])(N([H])C([H])([H])[H])C([H])([H])[H])C(C([H])([H])[H])(C([H])([H])[H])C([H])([H])[H])C([H])([H])c2c([H])c(OC([H])([H])C([H])([H])C([H])([H])c3c([H])c([H])c(C([H])(N([H])C(=O)N4C([H])([H])C([H])([H])C([H])([H])C([H])(n5nc(-c6c([H])c([H])c(Oc7c([H])c([H])c(F)c([H])c7F)c([H])c6[H])c(C(=O)N([H])[H])c5N([H])[H])C4([H])[H])C([H])([H])C([H])([H])[N+]([H])([H])[H])c(C([H])([H])[H])c3[H])c([H])c([H])c2C1([H])[H]

$$$$
4:0:0
     RDKit          3D

 92100  0  0  1  0  0  0  0  0999 V2000
  -30.7390  -19.1520   21.0500 C   0  0  0  0  0  2  0  0  0  0  0  0
  -29.6420  -19.6260   18.9900 C   0  0  0  0  0  2  0  0  0  0  0  0
  -30.5280  -17.7540   20.3710 C   0  0  0  0  0  3  0  0  0  0  0  0
  -29.7550  -20.1730   20.4150 C   0  0  0  0  0  3  0  0  0  0  0  0
  -29.6080  -18.0870   19.1600 C   0  0  0  0  0  3  0  0  0  0  0  0
  -29.9680  -17.3730   17.9180 N   0  0  0  0  0  4  0  0  0  0  0  0
  -30.9050  -17.5920   17.6290 H   0  0  0  0  0  0  0  0  0  0  0  0
  -29.3460  -17.6430   17.1760 H   0  0  0  0  0  0  0  0  0  0  0  0
  -29.8940  -16.3780   18.0280 H   0  0  0  0  0  0  0  0  0  0  0  0
  -29.9300  -16.7030   21.3470 C   0  0  0  0  0  3  0  0  0  0  0  0
  -29.9810  -15.4150   21.4540 N   0  0  0  0  0  0  0  0  0  0  0  0
  -30.6770  -14.5440   20.6140 C   0  0  0  0  0  0  0  0  0  0  0  0
  -30.4200  -12.4070   19.3540 C   0  0  0  0  0  2  0  0  0  0  0  0
  -29.4770  -12.6090   18.1490 C   0  0  0  0  0  2  0  0  0  0  0  0
  -27.9990  -12.4560   18.5650 C   0  0  0  0  0  2  0  0  0  0  0  0
  -27.6520  -13.2720   19.8380 C   0  0  0  0  0  3  0  0  0  0  0  0
  -28.6950  -13.0040   20.9440 C   0  0  0  0  0  2  0  0  0  0  0  0
  -30.0240  -13.3600   20.4040 N   0  0  0  0  0  0  0  0  0  0  0  0
  -31.7410  -14.7950   20.0450 O   0  0  0  0  0  0  0  0  0  0  0  0
  -25.2380  -13.8900   20.4910 C   0  0  0  0  0  0  0  0  0  0  0  0
  -24.1630  -13.1230   20.8480 C   0  0  0  0  0  0  0  0  0  0  0  0
  -24.6240  -11.7700   20.8440 C   0  0  0  0  0  0  0  0  0  0  0  0
  -26.2880  -13.0060   20.2940 N   0  0  0  0  0  0  0  0  0  0  0  0
  -25.9180  -11.7270   20.5600 N   0  0  0  0  0  0  0  0  0  0  0  0
  -23.8930  -10.5120   21.0380 C   0  0  0  0  0  0  0  0  0  0  0  0
  -24.3220   -9.5470   21.9750 C   0  0  0  0  0  3  0  0  0  0  0  0
  -23.5930   -8.3510   22.1570 C   0  0  0  0  0  3  0  0  0  0  0  0
  -22.4210   -8.1130   21.3990 C   0  0  0  0  0  0  0  0  0  0  0  0
  -22.0110   -9.0660   20.4520 C   0  0  0  0  0  3  0  0  0  0  0  0
  -22.7410  -10.2530   20.2680 C   0  0  0  0  0  3  0  0  0  0  0  0
  -21.6650   -6.9700   21.4900 O   0  0  0  0  0  0  0  0  0  0  0  0
  -21.6250   -6.2230   22.6390 C   0  0  0  0  0  0  0  0  0  0  0  0
  -21.2260   -6.7790   23.8750 C   0  0  0  0  0  3  0  0  0  0  0  0
  -21.1310   -5.9590   25.0170 C   0  0  0  0  0  3  0  0  0  0  0  0
  -21.4250   -4.5850   24.9240 C   0  0  0  0  0  0  0  0  0  0  0  0
  -21.8160   -4.0290   23.6950 C   0  0  0  0  0  3  0  0  0  0  0  0
  -21.9130   -4.8460   22.5540 C   0  0  0  0  0  0  0  0  0  0  0  0
  -22.2710   -4.3010   21.3660 F   0  0  0  0  0  0  0  0  0  0  0  0
  -21.3250   -3.7950   26.0200 F   0  0  0  0  0  0  0  0  0  0  0  0
  -22.7610  -13.6040   21.0920 C   0  0  0  0  0  0  0  0  0  0  0  0
  -22.0180  -12.9190   21.9550 N   0  0  0  0  0  0  0  0  0  0  0  0
  -22.3300  -14.6220   20.5520 O   0  0  0  0  0  0  0  0  0  0  0  0
  -22.3780  -12.0950   22.4130 H   0  0  0  0  0  0  0  0  0  0  0  0
  -21.0780  -13.2240   22.1620 H   0  0  0  0  0  0  0  0  0  0  0  0
  -25.4060  -15.2580   20.3000 N   0  0  0  0  0  0  0  0  0  0  0  0
  -24.6410  -15.9180   20.3950 H   0  0  0  0  0  0  0  0  0  0  0  0
  -26.2750  -15.6920   20.0170 H   0  0  0  0  0  0  0  0  0  0  0  0
  -30.1460  -21.6890   20.5350 C   0  0  0  0  0  3  0  0  0  0  0  0
  -29.0510  -22.7180   20.0960 C   0  0  0  0  0  3  0  0  0  0  0  0
  -29.3490  -24.2360   20.3660 C   0  0  0  0  0  2  0  0  0  0  0  0
  -28.1790  -25.1870   19.9550 C   0  0  0  0  0  2  0  0  0  0  0  0
  -28.3480  -26.6120   20.2060 O   0  0  0  0  0  0  0  0  0  0  0  0
  -24.6010  -31.9190   23.2410 C   0  0  0  0  0  0  0  0  0  0  0  0
  -27.1990  -27.4020   20.1680 C   0  0  0  0  0  0  0  0  0  0  0  0
  -23.3810  -30.5170   21.6130 C   0  0  0  0  0  3  0  0  0  0  0  0
  -24.8190  -28.9680   20.1830 C   0  0  0  0  0  0  0  0  0  0  0  0
  -25.9140  -30.8470   21.4060 C   0  0  0  0  0  2  0  0  0  0  0  0
  -25.9880  -29.4710   20.7660 C   0  0  0  0  0  0  0  0  0  0  0  0
  -27.1810  -28.6990   20.7520 C   0  0  0  0  0  3  0  0  0  0  0  0
  -26.0030  -26.9390   19.5660 C   0  0  0  0  0  3  0  0  0  0  0  0
  -24.8240  -27.7030   19.5780 C   0  0  0  0  0  3  0  0  0  0  0  0
  -23.5820  -29.8360   20.2340 C   0  0  0  0  0  2  0  0  0  0  0  0
  -24.6510  -31.1100   22.1440 N   0  0  0  0  0  0  0  0  0  0  0  0
  -23.5220  -32.2000   23.7830 O   0  0  0  0  0  0  0  0  0  0  0  0
  -22.7270  -29.5030   22.5800 C   0  0  0  0  0  0  0  0  0  0  0  0
  -21.4000  -29.3270   22.4600 N   0  0  0  0  0  0  0  0  0  0  0  0
  -23.4100  -28.8760   23.3940 O   0  0  0  0  0  0  0  0  0  0  0  0
  -20.9100  -29.8850   21.7750 H   0  0  0  0  0  0  0  0  0  0  0  0
  -18.0220  -28.1470   22.9750 C   0  0  0  0  0  0  0  0  0  0  0  0
  -20.5820  -28.3970   23.2380 C   0  0  0  0  0  3  0  0  0  0  0  0
  -20.6760  -26.9620   22.6690 C   0  0  0  0  0  2  0  0  0  0  0  0
  -19.5700  -26.6380   21.6610 C   0  0  0  0  0  2  0  0  0  0  0  0
  -18.1900  -26.7930   22.3070 C   0  0  0  0  0  2  0  0  0  0  0  0
  -19.1450  -28.9080   23.3970 C   0  0  0  0  0  0  0  0  0  0  0  0
  -18.9330  -30.1750   23.9820 C   0  0  0  0  0  3  0  0  0  0  0  0
  -17.6310  -30.6840   24.1470 C   0  0  0  0  0  3  0  0  0  0  0  0
  -16.5230  -29.9210   23.7410 C   0  0  0  0  0  3  0  0  0  0  0  0
  -16.7190  -28.6540   23.1610 C   0  0  0  0  0  3  0  0  0  0  0  0
  -25.8920  -32.5470   23.8510 C   0  0  0  0  0  3  0  0  0  0  0  0
  -25.5870  -33.9440   24.1880 N   0  0  0  0  0  0  0  0  0  0  0  0
  -25.9110  -34.9980   23.4250 C   0  0  0  0  0  0  0  0  0  0  0  0
  -26.5700  -34.8950   22.3870 O   0  0  0  0  0  0  0  0  0  0  0  0
  -25.0010  -34.0980   24.9950 H   0  0  0  0  0  0  0  0  0  0  0  0
  -24.1790  -36.7910   23.0920 C   0  0  0  0  0  1  0  0  0  0  0  0
  -25.4290  -36.3860   23.8900 C   0  0  0  0  0  3  0  0  0  0  0  0
  -27.5740  -37.2680   24.6950 C   0  0  0  0  0  1  0  0  0  0  0  0
  -26.4600  -37.4390   23.7660 N   0  0  0  0  0  0  0  0  0  0  0  0
  -26.0570  -38.3580   23.9210 H   0  0  0  0  0  0  0  0  0  0  0  0
  -26.4200  -31.7710   25.1200 C   0  0  1  0  0  0  0  0  0  0  0  0
  -25.3370  -31.5310   26.1970 C   0  0  0  0  0  1  0  0  0  0  0  0
  -26.9970  -30.3930   24.7170 C   0  0  0  0  0  1  0  0  0  0  0  0
  -27.5780  -32.5620   25.7730 C   0  0  0  0  0  1  0  0  0  0  0  0
  2  5  1  0
  2  4  1  0
  3  1  1  0
  3 10  1  0
  4 48  1  0
  4  1  1  0
  5  6  1  0
  5  3  1  0
  6  9  1  0
  7  6  1  0
  8  6  1  0
 10 11  2  0
 12 11  1  0
 13 18  1  0
 14 15  1  0
 14 13  1  0
 16 15  1  0
 16 23  1  0
 16 17  1  0
 18 12  1  0
 18 17  1  0
 19 12  2  0
 20 21  2  0
 21 40  1  0
 22 21  1  0
 22 25  1  0
 23 20  1  0
 23 24  1  0
 24 22  2  0
 25 26  1  0
 26 27  2  0
 28 31  1  0
 28 27  1  0
 29 28  2  0
 30 29  1  0
 30 25  2  0
 31 32  1  0
 32 33  1  0
 33 34  2  0
 35 34  1  0
 35 39  1  0
 36 35  2  0
 37 32  2  0
 37 36  1  0
 38 37  1  0
 40 41  1  0
 41 44  1  0
 41 43  1  0
 42 40  2  0
 45 46  1  0
 45 20  1  0
 47 45  1  0
 49 50  1  0
 49 48  2  0
 51 52  1  0
 51 50  1  0
 53 64  2  0
 54 52  1  0
 54 59  1  0
 55 63  1  0
 55 65  1  0
 56 62  1  0
 56 58  1  0
 57 63  1  0
 58 57  1  0
 59 58  2  0
 60 61  1  0
 60 54  2  0
 61 56  2  0
 62 55  1  0
 63 53  1  0
 65 67  2  0
 66 65  1  0
 68 66  1  0
 69 78  2  0
 69 74  1  0
 70 66  1  0
 70 74  1  0
 71 70  1  0
 72 73  1  0
 72 71  1  0
 73 69  1  0
 74 75  2  0
 75 76  1  0
 77 76  2  0
 78 77  1  0
 79 53  1  0
 79 80  1  0
 79 89  1  0
 80 83  1  0
 81 85  1  0
 81 80  1  0
 82 81  2  0
 85 84  1  0
 87 85  1  0
 87 88  1  0
 87 86  1  0
 89 92  1  1
 89 90  1  0
 91 89  1  0
M  ISO  4  11 100  12 100  51 101  52 101
M  END
>  <TORSDO>  (5) 
F 22

>  <SCORE>  (5) 
-13.597

>  <name>  (5) 
4

>  <ligand_id>  (5) 
4

>  <original_smiles>  (5) 
[H]C(=NC(=O)N1C([H])([H])C([H])([H])C([H])([H])C([H])(n2nc(-c3c([H])c([H])c(Oc4c([H])c([H])c(F)c([H])c4F)c([H])c3[H])c(C(=O)N([H])[H])c2N([H])[H])C1([H])[H])C1([H])C([H])([H])C([H])(C([H])([H])C([H])([H])C([H])([H])C([H])([H])Oc2c([H])c([H])c3c(c2[H])C([H])([H])N(C(=O)C([H])(N([H])C(=O)C([H])(N([H])C([H])([H])[H])C([H])([H])[H])C(C([H])([H])[H])(C([H])([H])[H])C([H])([H])[H])C([H])(C(=O)N([H])C2([H])c4c([H])c([H])c([H])c([H])c4C([H])([H])C([H])([H])C2([H])[H])C3([H])[H])C([H])([H])C1([H])[N+]([H])([H])[H]

>  <smiles>  (5) 
[H]C(=NC(=O)N1C([H])([H])C([H])([H])C([H])([H])C([H])(n2nc(-c3c([H])c([H])c(Oc4c([H])c([H])c(F)c([H])c4F)c([H])c3[H])c(C(=O)N([H])[H])c2N([H])[H])C1([H])[H])C1([H])C([H])([H])C([H])(C([H])([H])C([H])([H])C([H])([H])C([H])([H])Oc2c([H])c([H])c3c(c2[H])C([H])([H])N(C(=O)C([H])(N([H])C(=O)C([H])(N([H])C([H])([H])[H])C([H])([H])[H])C(C([H])([H])[H])(C([H])([H])[H])C([H])([H])[H])C([H])(C(=O)N([H])C2([H])c4c([H])c([H])c([H])c([H])c4C([H])([H])C([H])([H])C2([H])[H])C3([H])[H])C([H])([H])C1([H])[N+]([H])([H])[H]

$$$$
5:0:0
     RDKit          3D

 91 99  0  0  1  0  0  0  0  0999 V2000
  -29.7170  -20.0180   19.3970 C   0  0  0  0  0  0  0  0  0  0  0  0
  -29.0380  -19.9180   18.3740 O   0  0  0  0  0  0  0  0  0  0  0  0
  -31.0810  -14.9130   19.4500 C   0  0  0  0  0  0  0  0  0  0  0  0
  -30.6910  -12.7130   18.3450 C   0  0  0  0  0  2  0  0  0  0  0  0
  -29.5620  -12.8630   17.3000 C   0  0  0  0  0  2  0  0  0  0  0  0
  -28.1770  -12.6670   17.9480 C   0  0  0  0  0  2  0  0  0  0  0  0
  -28.0200  -13.4790   19.2590 C   0  0  0  0  0  3  0  0  0  0  0  0
  -29.2410  -13.2670   20.1750 C   0  0  0  0  0  2  0  0  0  0  0  0
  -30.4380  -13.6930   19.4260 N   0  0  0  0  0  0  0  0  0  0  0  0
  -32.1060  -15.0790   18.7800 O   0  0  0  0  0  0  0  0  0  0  0  0
  -30.0130  -18.5890   21.4850 C   0  0  0  0  0  2  0  0  0  0  0  0
  -30.2000  -17.3300   19.2420 C   0  0  0  0  0  2  0  0  0  0  0  0
  -30.0580  -16.0630   21.3980 C   0  0  0  0  0  2  0  0  0  0  0  0
  -30.4150  -18.7250   20.0110 C   0  0  0  0  0  3  0  0  0  0  0  0
  -30.5770  -17.3120   22.1280 C   0  0  0  0  0  3  0  0  0  0  0  0
  -30.4160  -16.0160   19.9740 N   0  0  0  0  0  0  0  0  0  0  0  0
  -25.8110  -14.0390   20.4480 C   0  0  0  0  0  0  0  0  0  0  0  0
  -24.8100  -13.2480   20.9420 C   0  0  0  0  0  0  0  0  0  0  0  0
  -25.2260  -11.9000   20.7190 C   0  0  0  0  0  0  0  0  0  0  0  0
  -26.7720  -13.1710   19.9520 N   0  0  0  0  0  0  0  0  0  0  0  0
  -26.4370  -11.8740   20.1740 N   0  0  0  0  0  0  0  0  0  0  0  0
  -24.5170  -10.6330   20.9370 C   0  0  0  0  0  0  0  0  0  0  0  0
  -24.9980   -9.6630   21.8450 C   0  0  0  0  0  3  0  0  0  0  0  0
  -24.2880   -8.4600   22.0480 C   0  0  0  0  0  3  0  0  0  0  0  0
  -23.0840   -8.2190   21.3440 C   0  0  0  0  0  0  0  0  0  0  0  0
  -22.6220   -9.1770   20.4250 C   0  0  0  0  0  3  0  0  0  0  0  0
  -23.3330  -10.3720   20.2200 C   0  0  0  0  0  3  0  0  0  0  0  0
  -22.3430   -7.0680   21.4580 O   0  0  0  0  0  0  0  0  0  0  0  0
  -22.2080   -6.4140   22.6560 C   0  0  0  0  0  0  0  0  0  0  0  0
  -21.6770   -7.0520   23.7980 C   0  0  0  0  0  3  0  0  0  0  0  0
  -21.4880   -6.3230   24.9890 C   0  0  0  0  0  3  0  0  0  0  0  0
  -21.8260   -4.9560   25.0400 C   0  0  0  0  0  0  0  0  0  0  0  0
  -22.3510   -4.3190   23.9030 C   0  0  0  0  0  3  0  0  0  0  0  0
  -22.5400   -5.0450   22.7140 C   0  0  0  0  0  0  0  0  0  0  0  0
  -23.0250   -4.4210   21.6150 F   0  0  0  0  0  0  0  0  0  0  0  0
  -21.6390   -4.2530   26.1810 F   0  0  0  0  0  0  0  0  0  0  0  0
  -23.4980  -13.7150   21.5040 C   0  0  0  0  0  0  0  0  0  0  0  0
  -22.9430  -12.9770   22.4590 N   0  0  0  0  0  0  0  0  0  0  0  0
  -22.9790  -14.7660   21.1310 O   0  0  0  0  0  0  0  0  0  0  0  0
  -23.3770  -12.1230   22.7760 H   0  0  0  0  0  0  0  0  0  0  0  0
  -22.0730  -13.2700   22.8800 H   0  0  0  0  0  0  0  0  0  0  0  0
  -25.9800  -15.4180   20.3620 N   0  0  0  0  0  0  0  0  0  0  0  0
  -25.2760  -16.0740   20.6800 H   0  0  0  0  0  0  0  0  0  0  0  0
  -26.7860  -15.8710   19.9480 H   0  0  0  0  0  0  0  0  0  0  0  0
  -30.9210  -18.3110   24.4670 C   0  0  0  0  0  1  0  0  0  0  0  0
  -30.2170  -17.2420   23.6240 C   0  0  0  0  0  2  0  0  0  0  0  0
  -29.8670  -21.4370   20.0870 C   0  0  0  0  0  3  0  0  0  0  0  0
  -29.2940  -22.7290   19.3430 C   0  0  0  0  0  3  0  0  0  0  0  0
  -29.2840  -24.1350   20.1050 C   0  0  0  0  0  3  0  0  0  0  0  0
  -28.7450  -25.3990   19.3030 C   0  0  0  0  0  3  0  0  0  0  0  0
  -28.6210  -26.7110   19.9880 O   0  0  0  0  0  0  0  0  0  0  0  0
  -24.7710  -31.9140   23.1830 C   0  0  0  0  0  0  0  0  0  0  0  0
  -27.4400  -27.4800   19.9770 C   0  0  0  0  0  0  0  0  0  0  0  0
  -23.5610  -30.4860   21.5700 C   0  0  0  0  0  3  0  0  0  0  0  0
  -25.0150  -29.0050   20.0820 C   0  0  0  0  0  0  0  0  0  0  0  0
  -26.0800  -30.8950   21.3070 C   0  0  0  0  0  2  0  0  0  0  0  0
  -26.1850  -29.5270   20.6450 C   0  0  0  0  0  0  0  0  0  0  0  0
  -27.3940  -28.7710   20.5920 C   0  0  0  0  0  3  0  0  0  0  0  0
  -26.2360  -27.0130   19.3960 C   0  0  0  0  0  3  0  0  0  0  0  0
  -25.0420  -27.7530   19.4560 C   0  0  0  0  0  3  0  0  0  0  0  0
  -23.7500  -29.8320   20.1770 C   0  0  0  0  0  2  0  0  0  0  0  0
  -24.8240  -31.1160   22.0750 N   0  0  0  0  0  0  0  0  0  0  0  0
  -23.6970  -32.1490   23.7560 O   0  0  0  0  0  0  0  0  0  0  0  0
  -22.9700  -29.4360   22.5410 C   0  0  0  0  0  0  0  0  0  0  0  0
  -21.6520  -29.1910   22.4360 N   0  0  0  0  0  0  0  0  0  0  0  0
  -23.6940  -28.8470   23.3470 O   0  0  0  0  0  0  0  0  0  0  0  0
  -21.1260  -29.7200   21.7550 H   0  0  0  0  0  0  0  0  0  0  0  0
  -18.3540  -27.8170   22.9720 C   0  0  0  0  0  0  0  0  0  0  0  0
  -20.8960  -28.2120   23.2160 C   0  0  0  0  0  3  0  0  0  0  0  0
  -21.0700  -26.7880   22.6430 C   0  0  0  0  0  2  0  0  0  0  0  0
  -19.9790  -26.4020   21.6400 C   0  0  0  0  0  2  0  0  0  0  0  0
  -18.5970  -26.4780   22.2970 C   0  0  0  0  0  2  0  0  0  0  0  0
  -19.4330  -28.6390   23.3890 C   0  0  0  0  0  0  0  0  0  0  0  0
  -19.1540  -29.8890   23.9800 C   0  0  0  0  0  3  0  0  0  0  0  0
  -17.8260  -30.3200   24.1610 C   0  0  0  0  0  3  0  0  0  0  0  0
  -16.7610  -29.4960   23.7590 C   0  0  0  0  0  3  0  0  0  0  0  0
  -17.0250  -28.2480   23.1690 C   0  0  0  0  0  3  0  0  0  0  0  0
  -26.0530  -32.5840   23.7680 C   0  0  0  0  0  3  0  0  0  0  0  0
  -25.7090  -33.9700   24.1180 N   0  0  0  0  0  0  0  0  0  0  0  0
  -25.9780  -35.0370   23.3560 C   0  0  0  0  0  0  0  0  0  0  0  0
  -26.6140  -34.9630   22.3020 O   0  0  0  0  0  0  0  0  0  0  0  0
  -25.1420  -34.0990   24.9430 H   0  0  0  0  0  0  0  0  0  0  0  0
  -24.1840  -36.7750   23.0670 C   0  0  0  0  0  1  0  0  0  0  0  0
  -25.4590  -36.4050   23.8410 C   0  0  0  0  0  3  0  0  0  0  0  0
  -27.5830  -37.3530   24.6240 C   0  0  0  0  0  1  0  0  0  0  0  0
  -26.4540  -37.4910   23.7090 N   0  0  0  0  0  0  0  0  0  0  0  0
  -26.0210  -38.3970   23.8740 H   0  0  0  0  0  0  0  0  0  0  0  0
  -26.6350  -31.8220   25.0220 C   0  0  1  0  0  0  0  0  0  0  0  0
  -25.5800  -31.5250   26.1110 C   0  0  0  0  0  1  0  0  0  0  0  0
  -27.2690  -30.4760   24.6000 C   0  0  0  0  0  1  0  0  0  0  0  0
  -27.7660  -32.6590   25.6650 C   0  0  0  0  0  1  0  0  0  0  0  0
  1 47  1  0
  2  1  2  0
  3 16  1  0
  4  9  1  0
  5  6  1  0
  5  4  1  0
  7  6  1  0
  7 20  1  0
  7  8  1  0
  9  3  1  0
  9  8  1  0
 10  3  2  0
 11 15  1  0
 12 16  1  0
 12 14  1  0
 13 15  1  0
 14  1  1  0
 14 11  1  0
 15 46  1  0
 16 13  1  0
 17 18  2  0
 18 37  1  0
 19 22  1  0
 19 18  1  0
 20 21  1  0
 20 17  1  0
 21 19  2  0
 22 23  1  0
 23 24  2  0
 25 28  1  0
 25 24  1  0
 26 25  2  0
 27 26  1  0
 27 22  2  0
 28 29  1  0
 29 34  2  0
 29 30  1  0
 30 31  2  0
 31 32  1  0
 32 36  1  0
 33 32  2  0
 34 33  1  0
 35 34  1  0
 37 38  1  0
 38 40  1  0
 38 41  1  0
 39 37  2  0
 42 17  1  0
 42 43  1  0
 44 42  1  0
 46 45  1  0
 48 47  2  0
 48 49  1  0
 50 51  1  0
 50 49  2  0
 52 63  2  0
 53 51  1  0
 53 58  1  0
 54 62  1  0
 54 64  1  0
 55 61  1  0
 55 57  1  0
 56 62  1  0
 57 56  1  0
 58 57  2  0
 59 60  1  0
 59 53  2  0
 60 55  2  0
 61 54  1  0
 62 52  1  0
 64 66  2  0
 65 64  1  0
 67 65  1  0
 68 77  2  0
 68 73  1  0
 69 65  1  0
 69 73  1  0
 70 69  1  0
 71 72  1  0
 71 70  1  0
 72 68  1  0
 73 74  2  0
 74 75  1  0
 76 75  2  0
 77 76  1  0
 78 52  1  0
 78 79  1  0
 78 88  1  0
 79 82  1  0
 80 84  1  0
 80 79  1  0
 81 80  2  0
 84 83  1  0
 86 84  1  0
 86 87  1  0
 86 85  1  0
 88 91  1  1
 88 89  1  0
 90 88  1  0
M  ISO  4   3 100  16 100  50 101  51 101
M  END
>  <TORSDO>  (6) 
F 21

>  <SCORE>  (6) 
-8.874

>  <name>  (6) 
5

>  <ligand_id>  (6) 
5

>  <original_smiles>  (6) 
[H]c1c([H])c([H])c2c(c1[H])C([H])([H])C([H])([H])C([H])([H])C2([H])N([H])C(=O)C1([H])N(C(=O)C([H])(N([H])C(=O)C([H])(N([H])C([H])([H])[H])C([H])([H])[H])C(C([H])([H])[H])(C([H])([H])[H])C([H])([H])[H])C([H])([H])c2c([H])c(OC([H])([H])C([H])([H])C([H])([H])C([H])([H])C(=O)C3([H])C([H])([H])N(C(=O)N4C([H])([H])C([H])([H])C([H])([H])C([H])(n5nc(-c6c([H])c([H])c(Oc7c([H])c([H])c(F)c([H])c7F)c([H])c6[H])c(C(=O)N([H])[H])c5N([H])[H])C4([H])[H])C([H])([H])C([H])(C([H])([H])C([H])([H])[H])C3([H])[H])c([H])c([H])c2C1([H])[H]

>  <smiles>  (6) 
[H]c1c([H])c([H])c2c(c1[H])C([H])([H])C([H])([H])C([H])([H])C2([H])N([H])C(=O)C1([H])N(C(=O)C([H])(N([H])C(=O)C([H])(N([H])C([H])([H])[H])C([H])([H])[H])C(C([H])([H])[H])(C([H])([H])[H])C([H])([H])[H])C([H])([H])c2c([H])c(OC([H])([H])C([H])([H])C([H])([H])C([H])([H])C(=O)C3([H])C([H])([H])N(C(=O)N4C([H])([H])C([H])([H])C([H])([H])C([H])(n5nc(-c6c([H])c([H])c(Oc7c([H])c([H])c(F)c([H])c7F)c([H])c6[H])c(C(=O)N([H])[H])c5N([H])[H])C4([H])[H])C([H])([H])C([H])(C([H])([H])C([H])([H])[H])C3([H])[H])c([H])c([H])c2C1([H])[H]

$$$$
6:0:0
     RDKit          3D

 93101  0  0  1  0  0  0  0  0999 V2000
  -28.2760  -22.1300   21.0940 C   0  0  0  0  0  3  0  0  0  0  0  0
  -30.0700  -21.9630   19.4870 C   0  0  0  0  0  3  0  0  0  0  0  0
  -28.2230  -20.7130   21.1680 C   0  0  0  0  0  3  0  0  0  0  0  0
  -30.0160  -20.5420   19.5610 C   0  0  0  0  0  3  0  0  0  0  0  0
  -29.2130  -22.7900   20.2630 C   0  0  0  0  0  0  0  0  0  0  0  0
  -29.1030  -19.8860   20.4230 C   0  0  0  0  0  0  0  0  0  0  0  0
  -29.3930  -24.3390   20.3030 C   0  0  0  0  0  3  0  0  0  0  0  0
  -28.1780  -25.2550   19.9260 C   0  0  0  0  0  3  0  0  0  0  0  0
  -28.3520  -26.6870   20.1930 O   0  0  0  0  0  0  0  0  0  0  0  0
  -24.6230  -31.9700   23.3350 C   0  0  0  0  0  0  0  0  0  0  0  0
  -27.2110  -27.4930   20.1780 C   0  0  0  0  0  0  0  0  0  0  0  0
  -23.4050  -30.6030   21.6790 C   0  0  0  0  0  3  0  0  0  0  0  0
  -24.8410  -29.0770   20.2220 C   0  0  0  0  0  0  0  0  0  0  0  0
  -25.9410  -30.9270   21.4850 C   0  0  0  0  0  2  0  0  0  0  0  0
  -26.0130  -29.5630   20.8140 C   0  0  0  0  0  0  0  0  0  0  0  0
  -27.2010  -28.7810   20.7840 C   0  0  0  0  0  3  0  0  0  0  0  0
  -26.0130  -27.0470   19.5710 C   0  0  0  0  0  3  0  0  0  0  0  0
  -24.8420  -27.8230   19.5930 C   0  0  0  0  0  3  0  0  0  0  0  0
  -23.6070  -29.9490   20.2870 C   0  0  0  0  0  2  0  0  0  0  0  0
  -24.6760  -31.1830   22.2230 N   0  0  0  0  0  0  0  0  0  0  0  0
  -23.5450  -32.2420   23.8810 O   0  0  0  0  0  0  0  0  0  0  0  0
  -22.7480  -29.5700   22.6240 C   0  0  0  0  0  0  0  0  0  0  0  0
  -21.4240  -29.3810   22.4880 N   0  0  0  0  0  0  0  0  0  0  0  0
  -23.4280  -28.9410   23.4410 O   0  0  0  0  0  0  0  0  0  0  0  0
  -20.9370  -29.9390   21.8010 H   0  0  0  0  0  0  0  0  0  0  0  0
  -18.0530  -28.1580   22.9510 C   0  0  0  0  0  0  0  0  0  0  0  0
  -20.6070  -28.4330   23.2470 C   0  0  0  0  0  3  0  0  0  0  0  0
  -20.7260  -27.0060   22.6660 C   0  0  0  0  0  2  0  0  0  0  0  0
  -19.6360  -26.6790   21.6400 C   0  0  0  0  0  2  0  0  0  0  0  0
  -18.2460  -26.8120   22.2700 C   0  0  0  0  0  2  0  0  0  0  0  0
  -19.1630  -28.9250   23.3950 C   0  0  0  0  0  0  0  0  0  0  0  0
  -18.9310  -30.1840   23.9880 C   0  0  0  0  0  3  0  0  0  0  0  0
  -17.6220  -30.6760   24.1450 C   0  0  0  0  0  3  0  0  0  0  0  0
  -16.5260  -29.9060   23.7180 C   0  0  0  0  0  3  0  0  0  0  0  0
  -16.7420  -28.6500   23.1240 C   0  0  0  0  0  3  0  0  0  0  0  0
  -25.9130  -32.5890   23.9570 C   0  0  0  0  0  3  0  0  0  0  0  0
  -25.6220  -33.9940   24.2740 N   0  0  0  0  0  0  0  0  0  0  0  0
  -25.9470  -35.0340   23.4950 C   0  0  0  0  0  0  0  0  0  0  0  0
  -26.5970  -34.9120   22.4540 O   0  0  0  0  0  0  0  0  0  0  0  0
  -25.0450  -34.1620   25.0860 H   0  0  0  0  0  0  0  0  0  0  0  0
  -24.2140  -36.8240   23.1660 C   0  0  0  0  0  1  0  0  0  0  0  0
  -25.4800  -36.4320   23.9440 C   0  0  0  0  0  3  0  0  0  0  0  0
  -27.6400  -37.3280   24.6920 C   0  0  0  0  0  1  0  0  0  0  0  0
  -26.5110  -37.4790   23.7760 N   0  0  0  0  0  0  0  0  0  0  0  0
  -26.1130  -38.4040   23.9120 H   0  0  0  0  0  0  0  0  0  0  0  0
  -26.4090  -31.8210   25.2420 C   0  0  1  0  0  0  0  0  0  0  0  0
  -25.3050  -31.6060   26.3030 C   0  0  0  0  0  1  0  0  0  0  0  0
  -26.9810  -30.4350   24.8630 C   0  0  0  0  0  1  0  0  0  0  0  0
  -27.5630  -32.6080   25.9060 C   0  0  0  0  0  1  0  0  0  0  0  0
  -28.9760  -18.3370   20.5490 C   0  0  0  0  0  2  0  0  0  0  0  0
  -30.2310  -17.3740   20.4920 C   0  0  0  0  0  3  0  0  0  0  0  0
  -31.3900  -17.9140   21.3440 C   0  0  0  0  0  0  0  0  0  0  0  0
  -31.1980  -18.0600   22.6520 N   0  0  0  0  0  0  0  0  0  0  0  0
  -32.4670  -18.2020   20.8270 O   0  0  0  0  0  0  0  0  0  0  0  0
  -30.3150  -17.8220   23.0780 H   0  0  0  0  0  0  0  0  0  0  0  0
  -31.9380  -18.4270   23.2330 H   0  0  0  0  0  0  0  0  0  0  0  0
  -29.8840  -15.8860   20.9230 C   0  0  0  0  0  2  0  0  0  0  0  0
  -30.6250  -14.6910   20.2290 C   0  0  0  0  0  0  0  0  0  0  0  0
  -30.3800  -12.4970   19.0810 C   0  0  0  0  0  2  0  0  0  0  0  0
  -29.4000  -12.6610   17.8990 C   0  0  0  0  0  2  0  0  0  0  0  0
  -27.9380  -12.5070   18.3650 C   0  0  0  0  0  2  0  0  0  0  0  0
  -27.6200  -13.3510   19.6280 C   0  0  0  0  0  3  0  0  0  0  0  0
  -28.7030  -13.1360   20.7090 C   0  0  0  0  0  2  0  0  0  0  0  0
  -30.0030  -13.4790   20.1150 N   0  0  0  0  0  0  0  0  0  0  0  0
  -31.7340  -14.8880   19.7220 O   0  0  0  0  0  0  0  0  0  0  0  0
  -25.2460  -13.9650   20.4060 C   0  0  0  0  0  0  0  0  0  0  0  0
  -24.1830  -13.1960   20.7990 C   0  0  0  0  0  0  0  0  0  0  0  0
  -24.6370  -11.8420   20.7480 C   0  0  0  0  0  0  0  0  0  0  0  0
  -26.2800  -13.0810   20.1410 N   0  0  0  0  0  0  0  0  0  0  0  0
  -25.9190  -11.7990   20.4050 N   0  0  0  0  0  0  0  0  0  0  0  0
  -23.9120  -10.5820   20.9500 C   0  0  0  0  0  0  0  0  0  0  0  0
  -24.3330   -9.6310   21.9060 C   0  0  0  0  0  3  0  0  0  0  0  0
  -23.6080   -8.4350   22.0950 C   0  0  0  0  0  3  0  0  0  0  0  0
  -22.4470   -8.1810   21.3260 C   0  0  0  0  0  0  0  0  0  0  0  0
  -22.0450   -9.1200   20.3600 C   0  0  0  0  0  3  0  0  0  0  0  0
  -22.7700  -10.3080   20.1700 C   0  0  0  0  0  3  0  0  0  0  0  0
  -21.6970   -7.0350   21.4210 O   0  0  0  0  0  0  0  0  0  0  0  0
  -21.5970   -6.3340   22.5960 C   0  0  0  0  0  0  0  0  0  0  0  0
  -21.0980   -6.9270   23.7760 C   0  0  0  0  0  3  0  0  0  0  0  0
  -20.9470   -6.1520   24.9440 C   0  0  0  0  0  3  0  0  0  0  0  0
  -21.2880   -4.7860   24.9320 C   0  0  0  0  0  0  0  0  0  0  0  0
  -21.7810   -4.1920   23.7560 C   0  0  0  0  0  3  0  0  0  0  0  0
  -21.9330   -4.9650   22.5910 C   0  0  0  0  0  0  0  0  0  0  0  0
  -22.3880   -4.3840   21.4540 F   0  0  0  0  0  0  0  0  0  0  0  0
  -21.1380   -4.0380   26.0500 F   0  0  0  0  0  0  0  0  0  0  0  0
  -22.7960  -13.6780   21.1120 C   0  0  0  0  0  0  0  0  0  0  0  0
  -22.0850  -12.9760   21.9860 N   0  0  0  0  0  0  0  0  0  0  0  0
  -22.3510  -14.7120   20.6140 O   0  0  0  0  0  0  0  0  0  0  0  0
  -22.4590  -12.1380   22.4090 H   0  0  0  0  0  0  0  0  0  0  0  0
  -21.1550  -13.2800   22.2390 H   0  0  0  0  0  0  0  0  0  0  0  0
  -25.4140  -15.3360   20.2330 N   0  0  0  0  0  0  0  0  0  0  0  0
  -24.6550  -15.9930   20.3690 H   0  0  0  0  0  0  0  0  0  0  0  0
  -26.2580  -15.7680   19.8800 H   0  0  0  0  0  0  0  0  0  0  0  0
  1  3  1  0
  2  4  2  0
  2  5  1  0
  4  6  1  0
  5  7  1  0
  5  1  2  0
  6 50  1  0
  6  3  2  0
  8  9  1  0
  8  7  2  0
 10 21  2  0
 11  9  1  0
 11 16  1  0
 12 20  1  0
 12 22  1  0
 13 19  1  0
 13 15  1  0
 14 20  1  0
 15 14  1  0
 16 15  2  0
 17 18  1  0
 17 11  2  0
 18 13  2  0
 19 12  1  0
 20 10  1  0
 22 24  2  0
 23 22  1  0
 25 23  1  0
 26 35  2  0
 26 31  1  0
 27 23  1  0
 27 31  1  0
 28 27  1  0
 29 30  1  0
 29 28  1  0
 30 26  1  0
 31 32  2  0
 32 33  1  0
 34 33  2  0
 35 34  1  0
 36 10  1  0
 36 37  1  0
 36 46  1  0
 37 40  1  0
 38 42  1  0
 38 37  1  0
 39 38  2  0
 42 41  1  0
 44 45  1  0
 44 42  1  0
 44 43  1  0
 46 49  1  1
 46 47  1  0
 48 46  1  0
 51 50  1  0
 51 57  1  0
 51 52  1  0
 52 53  1  0
 53 55  1  0
 53 56  1  0
 54 52  2  0
 58 57  1  0
 59 64  1  0
 60 61  1  0
 60 59  1  0
 62 61  1  0
 62 69  1  0
 62 63  1  0
 64 58  1  0
 64 63  1  0
 65 58  2  0
 66 67  2  0
 67 86  1  0
 68 67  1  0
 68 71  1  0
 69 70  1  0
 69 66  1  0
 70 68  2  0
 71 72  1  0
 72 73  2  0
 74 77  1  0
 74 73  1  0
 75 74  2  0
 76 75  1  0
 76 71  2  0
 77 78  1  0
 78 79  1  0
 79 80  2  0
 81 80  1  0
 81 85  1  0
 82 81  2  0
 83 78  2  0
 83 82  1  0
 84 83  1  0
 86 87  1  0
 87 90  1  0
 87 89  1  0
 88 86  2  0
 91 92  1  0
 91 66  1  0
 93 91  1  0
M  ISO  4   8 101   9 101  57 100  58 100
M  END
>  <TORSDO>  (7) 
F 22

>  <SCORE>  (7) 
-13.136

>  <name>  (7) 
6

>  <ligand_id>  (7) 
6

>  <original_smiles>  (7) 
[H]c1c([H])c([H])c2c(c1[H])C([H])([H])C([H])([H])C([H])([H])C2([H])N([H])C(=O)C1([H])N(C(=O)C([H])(N([H])C(=O)C([H])(N([H])C([H])([H])[H])C([H])([H])[H])C(C([H])([H])[H])(C([H])([H])[H])C([H])([H])[H])C([H])([H])c2c([H])c(OC([H])([H])C([H])([H])c3c([H])c([H])c(C([H])([H])C([H])(C(=O)N([H])[H])C([H])([H])C(=O)N4C([H])([H])C([H])([H])C([H])([H])C([H])(n5nc(-c6c([H])c([H])c(Oc7c([H])c([H])c(F)c([H])c7F)c([H])c6[H])c(C(=O)N([H])[H])c5N([H])[H])C4([H])[H])c([H])c3[H])c([H])c([H])c2C1([H])[H]

>  <smiles>  (7) 
[H]c1c([H])c([H])c2c(c1[H])C([H])([H])C([H])([H])C([H])([H])C2([H])N([H])C(=O)C1([H])N(C(=O)C([H])(N([H])C(=O)C([H])(N([H])C([H])([H])[H])C([H])([H])[H])C(C([H])([H])[H])(C([H])([H])[H])C([H])([H])[H])C([H])([H])c2c([H])c(OC([H])([H])C([H])([H])c3c([H])c([H])c(C([H])([H])C([H])(C(=O)N([H])[H])C([H])([H])C(=O)N4C([H])([H])C([H])([H])C([H])([H])C([H])(n5nc(-c6c([H])c([H])c(Oc7c([H])c([H])c(F)c([H])c7F)c([H])c6[H])c(C(=O)N([H])[H])c5N([H])[H])C4([H])[H])c([H])c3[H])c([H])c([H])c2C1([H])[H]

$$$$
7:0:0
     RDKit          3D

 92100  0  0  1  0  0  0  0  0999 V2000
  -29.8900  -17.7510   17.6920 C   0  0  0  0  0  2  0  0  0  0  0  0
  -30.8640  -18.7050   18.3560 C   0  0  0  0  0  2  0  0  0  0  0  0
  -28.7820  -18.6480   18.2760 C   0  0  0  0  0  3  0  0  0  0  0  0
  -29.7920  -19.0980   19.4140 C   0  0  2  0  0  0  0  0  0  0  0  0
  -27.7250  -18.9840   15.9350 C   0  0  0  0  0  1  0  0  0  0  0  0
  -26.9190  -20.3730   17.8370 C   0  0  0  0  0  1  0  0  0  0  0  0
  -28.1420  -19.6430   17.2680 C   0  0  0  0  0  3  0  0  0  0  0  0
  -29.9660  -20.8070   19.6250 C   0  0  0  0  0  2  0  0  0  0  0  0
  -28.2900  -21.2610   21.5360 C   0  0  0  0  0  1  0  0  0  0  0  0
  -29.1950  -22.0000   20.5370 C   0  0  0  0  0  3  0  0  0  0  0  0
  -28.4240  -23.4810   20.0990 C   0  0  0  0  0  2  0  0  0  0  0  0
  -28.9630  -25.0370   19.6890 C   0  0  0  0  0  2  0  0  0  0  0  0
  -28.6550  -26.4860   20.1960 O   0  0  0  0  0  0  0  0  0  0  0  0
  -24.6210  -31.8620   23.1250 C   0  0  0  0  0  0  0  0  0  0  0  0
  -27.5100  -27.3530   20.0580 C   0  0  0  0  0  0  0  0  0  0  0  0
  -23.5110  -30.4020   21.4740 C   0  0  0  0  0  3  0  0  0  0  0  0
  -25.0610  -28.9310   20.0280 C   0  0  0  0  0  0  0  0  0  0  0  0
  -26.0370  -30.8360   21.3100 C   0  0  0  0  0  2  0  0  0  0  0  0
  -26.2010  -29.4600   20.6420 C   0  0  0  0  0  0  0  0  0  0  0  0
  -27.4190  -28.6840   20.6430 C   0  0  0  0  0  3  0  0  0  0  0  0
  -26.3410  -26.9150   19.4100 C   0  0  0  0  0  3  0  0  0  0  0  0
  -25.1400  -27.6730   19.4000 C   0  0  0  0  0  3  0  0  0  0  0  0
  -23.7720  -29.7450   20.0920 C   0  0  0  0  0  2  0  0  0  0  0  0
  -24.7400  -31.0580   22.0240 N   0  0  0  0  0  0  0  0  0  0  0  0
  -23.5180  -32.0770   23.6520 O   0  0  0  0  0  0  0  0  0  0  0  0
  -22.8940  -29.3520   22.4310 C   0  0  0  0  0  0  0  0  0  0  0  0
  -21.5820  -29.0930   22.2890 N   0  0  0  0  0  0  0  0  0  0  0  0
  -23.5980  -28.7730   23.2640 O   0  0  0  0  0  0  0  0  0  0  0  0
  -21.0670  -29.6190   21.5980 H   0  0  0  0  0  0  0  0  0  0  0  0
  -18.2890  -27.6530   22.7280 C   0  0  0  0  0  0  0  0  0  0  0  0
  -20.8170  -28.0970   23.0420 C   0  0  0  0  0  3  0  0  0  0  0  0
  -21.0360  -26.6810   22.4630 C   0  0  0  0  0  2  0  0  0  0  0  0
  -19.9760  -26.2840   21.4290 C   0  0  0  0  0  2  0  0  0  0  0  0
  -18.5750  -26.3240   22.0480 C   0  0  0  0  0  2  0  0  0  0  0  0
  -19.3430  -28.4930   23.1780 C   0  0  0  0  0  0  0  0  0  0  0  0
  -19.0250  -29.7330   23.7720 C   0  0  0  0  0  3  0  0  0  0  0  0
  -17.6860  -30.1390   23.9200 C   0  0  0  0  0  3  0  0  0  0  0  0
  -16.6460  -29.2940   23.4930 C   0  0  0  0  0  3  0  0  0  0  0  0
  -16.9480  -28.0550   22.9010 C   0  0  0  0  0  3  0  0  0  0  0  0
  -25.8570  -32.5640   23.7670 C   0  0  0  0  0  3  0  0  0  0  0  0
  -25.4590  -33.9390   24.1140 N   0  0  0  0  0  0  0  0  0  0  0  0
  -25.7290  -35.0230   23.3770 C   0  0  0  0  0  0  0  0  0  0  0  0
  -26.4060  -34.9770   22.3460 O   0  0  0  0  0  0  0  0  0  0  0  0
  -24.8430  -34.0450   24.9070 H   0  0  0  0  0  0  0  0  0  0  0  0
  -23.8930  -36.7190   23.0730 C   0  0  0  0  0  1  0  0  0  0  0  0
  -25.1640  -36.3750   23.8630 C   0  0  0  0  0  3  0  0  0  0  0  0
  -27.2480  -37.3790   24.6890 C   0  0  0  0  0  1  0  0  0  0  0  0
  -26.1300  -37.4890   23.7540 N   0  0  0  0  0  0  0  0  0  0  0  0
  -25.6720  -38.3830   23.9110 H   0  0  0  0  0  0  0  0  0  0  0  0
  -26.4070  -31.8140   25.0460 C   0  0  1  0  0  0  0  0  0  0  0  0
  -25.3160  -31.5130   26.1020 C   0  0  0  0  0  1  0  0  0  0  0  0
  -27.0750  -30.4730   24.6600 C   0  0  0  0  0  1  0  0  0  0  0  0
  -27.5080  -32.6690   25.7190 C   0  0  0  0  0  1  0  0  0  0  0  0
  -29.9730  -17.9420   20.6400 C   0  0  0  0  0  2  0  0  0  0  0  0
  -30.7160  -15.2200   20.4470 C   0  0  0  0  0  0  0  0  0  0  0  0
  -30.6850  -12.8460   19.5360 C   0  0  0  0  0  2  0  0  0  0  0  0
  -29.7900  -12.7910   18.2750 C   0  0  0  0  0  2  0  0  0  0  0  0
  -28.3090  -12.5860   18.6520 C   0  0  0  0  0  2  0  0  0  0  0  0
  -27.8620  -13.4970   19.8240 C   0  0  0  0  0  3  0  0  0  0  0  0
  -28.8830  -13.5110   20.9780 C   0  0  0  0  0  2  0  0  0  0  0  0
  -30.1620  -13.9420   20.3990 N   0  0  0  0  0  0  0  0  0  0  0  0
  -31.9350  -15.3200   20.2680 O   0  0  0  0  0  0  0  0  0  0  0  0
  -29.8640  -16.3610   20.4750 N   0  0  0  0  0  0  0  0  0  0  0  0
  -28.8970  -16.0710   20.4730 H   0  0  0  0  0  0  0  0  0  0  0  0
  -25.4590  -14.0750   20.4880 C   0  0  0  0  0  0  0  0  0  0  0  0
  -24.3880  -13.3030   20.8400 C   0  0  0  0  0  0  0  0  0  0  0  0
  -24.8580  -11.9520   20.8350 C   0  0  0  0  0  0  0  0  0  0  0  0
  -26.5110  -13.1980   20.2860 N   0  0  0  0  0  0  0  0  0  0  0  0
  -26.1580  -11.9150   20.5590 N   0  0  0  0  0  0  0  0  0  0  0  0
  -24.1280  -10.6910   21.0210 C   0  0  0  0  0  0  0  0  0  0  0  0
  -24.5300   -9.7390   21.9830 C   0  0  0  0  0  3  0  0  0  0  0  0
  -23.8020   -8.5400   22.1490 C   0  0  0  0  0  3  0  0  0  0  0  0
  -22.6560   -8.2890   21.3560 C   0  0  0  0  0  0  0  0  0  0  0  0
  -22.2720   -9.2320   20.3870 C   0  0  0  0  0  3  0  0  0  0  0  0
  -23.0020  -10.4210   20.2200 C   0  0  0  0  0  3  0  0  0  0  0  0
  -21.8990   -7.1440   21.4360 O   0  0  0  0  0  0  0  0  0  0  0  0
  -21.8120   -6.4170   22.5950 C   0  0  0  0  0  0  0  0  0  0  0  0
  -21.3340   -6.9840   23.7970 C   0  0  0  0  0  3  0  0  0  0  0  0
  -21.1950   -6.1810   24.9460 C   0  0  0  0  0  3  0  0  0  0  0  0
  -21.5230   -4.8140   24.8980 C   0  0  0  0  0  0  0  0  0  0  0  0
  -21.9890   -4.2450   23.6990 C   0  0  0  0  0  3  0  0  0  0  0  0
  -22.1330   -5.0450   22.5510 C   0  0  0  0  0  0  0  0  0  0  0  0
  -22.5640   -4.4880   21.3940 F   0  0  0  0  0  0  0  0  0  0  0  0
  -21.3800   -4.0410   26.0010 F   0  0  0  0  0  0  0  0  0  0  0  0
  -22.9830  -13.7790   21.0650 C   0  0  0  0  0  0  0  0  0  0  0  0
  -22.2310  -13.0960   21.9200 N   0  0  0  0  0  0  0  0  0  0  0  0
  -22.5600  -14.7950   20.5160 O   0  0  0  0  0  0  0  0  0  0  0  0
  -22.5800  -12.2740   22.3890 H   0  0  0  0  0  0  0  0  0  0  0  0
  -21.2870  -13.4010   22.1070 H   0  0  0  0  0  0  0  0  0  0  0  0
  -25.6210  -15.4450   20.2970 N   0  0  0  0  0  0  0  0  0  0  0  0
  -24.8390  -16.0880   20.3540 H   0  0  0  0  0  0  0  0  0  0  0  0
  -26.4560  -15.8780   19.9250 H   0  0  0  0  0  0  0  0  0  0  0  0
  1  3  1  0
  1  2  1  0
  2  4  1  0
  3  7  1  0
  3  4  1  0
  4  8  1  1
  4 54  1  0
  5  7  1  0
  7  6  1  0
  8 10  1  0
 10  9  1  0
 11 10  1  0
 12 11  1  0
 12 13  1  0
 14 25  2  0
 15 13  1  0
 15 20  1  0
 16 24  1  0
 16 26  1  0
 17 23  1  0
 17 19  1  0
 18 24  1  0
 19 20  2  0
 19 18  1  0
 21 15  2  0
 22 21  1  0
 22 17  2  0
 23 16  1  0
 24 14  1  0
 26 28  2  0
 27 26  1  0
 29 27  1  0
 30 39  2  0
 30 35  1  0
 31 27  1  0
 31 35  1  0
 32 31  1  0
 33 34  1  0
 33 32  1  0
 34 30  1  0
 35 36  2  0
 36 37  1  0
 38 37  2  0
 39 38  1  0
 40 14  1  0
 40 41  1  0
 40 50  1  0
 41 44  1  0
 42 46  1  0
 42 41  1  0
 43 42  2  0
 46 45  1  0
 48 46  1  0
 48 49  1  0
 48 47  1  0
 50 53  1  1
 50 51  1  0
 52 50  1  0
 55 63  1  0
 56 61  1  0
 57 58  1  0
 57 56  1  0
 59 58  1  0
 59 68  1  0
 59 60  1  0
 61 55  1  0
 61 60  1  0
 62 55  2  0
 63 54  1  0
 64 63  1  0
 65 66  2  0
 66 85  1  0
 67 66  1  0
 67 70  1  0
 68 65  1  0
 68 69  1  0
 69 67  2  0
 70 71  1  0
 71 72  2  0
 73 76  1  0
 73 72  1  0
 74 73  2  0
 75 74  1  0
 75 70  2  0
 76 77  1  0
 77 78  1  0
 78 79  2  0
 80 79  1  0
 80 84  1  0
 81 80  2  0
 82 77  2  0
 82 81  1  0
 83 82  1  0
 85 86  1  0
 86 89  1  0
 86 88  1  0
 87 85  2  0
 90 91  1  0
 90 65  1  0
 92 90  1  0
M  ISO  4  12 101  13 101  55 100  63 100
M  END
>  <TORSDO>  (8) 
F 22

>  <SCORE>  (8) 
-14.929

>  <name>  (8) 
7

>  <ligand_id>  (8) 
7

>  <original_smiles>  (8) 
[H]c1c([H])c([H])c2c(c1[H])C([H])([H])C([H])([H])C([H])([H])C2([H])N([H])C(=O)C1([H])N(C(=O)C([H])(N([H])C(=O)C([H])(N([H])C([H])([H])[H])C([H])([H])[H])C(C([H])([H])[H])(C([H])([H])[H])C([H])([H])[H])C([H])([H])c2c([H])c(OC([H])([H])C([H])([H])C([H])(C([H])([H])[H])C([H])([H])C3(C([H])([H])N([H])C(=O)N4C([H])([H])C([H])([H])C([H])([H])C([H])(n5nc(-c6c([H])c([H])c(Oc7c([H])c([H])c(F)c([H])c7F)c([H])c6[H])c(C(=O)N([H])[H])c5N([H])[H])C4([H])[H])C([H])([H])C([H])([H])C3([H])C([H])(C([H])([H])[H])C([H])([H])[H])c([H])c([H])c2C1([H])[H]

>  <smiles>  (8) 
[H]c1c([H])c([H])c2c(c1[H])C([H])([H])C([H])([H])C([H])([H])C2([H])N([H])C(=O)C1([H])N(C(=O)C([H])(N([H])C(=O)C([H])(N([H])C([H])([H])[H])C([H])([H])[H])C(C([H])([H])[H])(C([H])([H])[H])C([H])([H])[H])C([H])([H])c2c([H])c(OC([H])([H])C([H])([H])C([H])(C([H])([H])[H])C([H])([H])C3(C([H])([H])N([H])C(=O)N4C([H])([H])C([H])([H])C([H])([H])C([H])(n5nc(-c6c([H])c([H])c(Oc7c([H])c([H])c(F)c([H])c7F)c([H])c6[H])c(C(=O)N([H])[H])c5N([H])[H])C4([H])[H])C([H])([H])C([H])([H])C3([H])C([H])(C([H])([H])[H])C([H])([H])[H])c([H])c([H])c2C1([H])[H]

$$$$
8:0:0
     RDKit          3D

 90 98  0  0  1  0  0  0  0  0999 V2000
  -28.6080  -19.8530   19.9620 C   0  0  0  0  0  2  0  0  0  0  0  0
  -28.7820  -21.5840   19.5480 C   0  0  0  0  0  3  0  0  0  0  0  0
  -28.0170  -23.0920   20.1180 C   0  0  0  0  0  3  0  0  0  0  0  0
  -27.8980  -24.7350   19.4380 C   0  0  0  0  0  2  0  0  0  0  0  0
  -27.9130  -26.2690   19.9930 O   0  0  0  0  0  0  0  0  0  0  0  0
  -24.6090  -32.0270   23.4460 C   0  0  0  0  0  0  0  0  0  0  0  0
  -26.9030  -27.3480   19.9810 C   0  0  0  0  0  0  0  0  0  0  0  0
  -23.3040  -30.7610   21.7860 C   0  0  0  0  0  3  0  0  0  0  0  0
  -24.6420  -29.2410   20.1770 C   0  0  0  0  0  0  0  0  0  0  0  0
  -25.8620  -30.9400   21.5270 C   0  0  0  0  0  2  0  0  0  0  0  0
  -25.8620  -29.5870   20.7700 C   0  0  0  0  0  0  0  0  0  0  0  0
  -26.9840  -28.6600   20.6510 C   0  0  0  0  0  3  0  0  0  0  0  0
  -25.6550  -27.1470   19.3470 C   0  0  0  0  0  3  0  0  0  0  0  0
  -24.5610  -28.0430   19.4470 C   0  0  0  0  0  3  0  0  0  0  0  0
  -23.4440  -30.1710   20.3550 C   0  0  0  0  0  2  0  0  0  0  0  0
  -24.6160  -31.2650   22.3060 N   0  0  0  0  0  0  0  0  0  0  0  0
  -23.5540  -32.3050   24.0410 O   0  0  0  0  0  0  0  0  0  0  0  0
  -22.6440  -29.7120   22.7160 C   0  0  0  0  0  0  0  0  0  0  0  0
  -21.3200  -29.5050   22.5770 N   0  0  0  0  0  0  0  0  0  0  0  0
  -23.3270  -29.0850   23.5300 O   0  0  0  0  0  0  0  0  0  0  0  0
  -20.8230  -30.0650   21.8970 H   0  0  0  0  0  0  0  0  0  0  0  0
  -17.9990  -28.0970   22.9500 C   0  0  0  0  0  0  0  0  0  0  0  0
  -20.5240  -28.5220   23.3180 C   0  0  0  0  0  3  0  0  0  0  0  0
  -20.7390  -27.0970   22.7590 C   0  0  0  0  0  2  0  0  0  0  0  0
  -19.7050  -26.7020   21.7000 C   0  0  0  0  0  2  0  0  0  0  0  0
  -18.2900  -26.7630   22.2840 C   0  0  0  0  0  2  0  0  0  0  0  0
  -19.0500  -28.9320   23.4180 C   0  0  0  0  0  0  0  0  0  0  0  0
  -18.7260  -30.1770   24.0000 C   0  0  0  0  0  3  0  0  0  0  0  0
  -17.3860  -30.5930   24.1160 C   0  0  0  0  0  3  0  0  0  0  0  0
  -16.3500  -29.7570   23.6650 C   0  0  0  0  0  3  0  0  0  0  0  0
  -16.6560  -28.5120   23.0880 C   0  0  0  0  0  3  0  0  0  0  0  0
  -25.9270  -32.6030   24.0490 C   0  0  0  0  0  3  0  0  0  0  0  0
  -25.6740  -34.0060   24.4250 N   0  0  0  0  0  0  0  0  0  0  0  0
  -26.0350  -35.0710   23.6990 C   0  0  0  0  0  0  0  0  0  0  0  0
  -26.6790  -34.9750   22.6510 O   0  0  0  0  0  0  0  0  0  0  0  0
  -25.0940  -34.1530   25.2380 H   0  0  0  0  0  0  0  0  0  0  0  0
  -24.3690  -36.9480   23.4610 C   0  0  0  0  0  1  0  0  0  0  0  0
  -25.6200  -36.4660   24.2140 C   0  0  0  0  0  3  0  0  0  0  0  0
  -27.8080  -37.2440   25.0130 C   0  0  0  0  0  1  0  0  0  0  0  0
  -26.6920  -37.4790   24.1010 N   0  0  0  0  0  0  0  0  0  0  0  0
  -26.3280  -38.4100   24.2860 H   0  0  0  0  0  0  0  0  0  0  0  0
  -26.4430  -31.7950   25.3050 C   0  0  1  0  0  0  0  0  0  0  0  0
  -25.3580  -31.5600   26.3840 C   0  0  0  0  0  1  0  0  0  0  0  0
  -26.9910  -30.4110   24.8880 C   0  0  0  0  0  1  0  0  0  0  0  0
  -27.6240  -32.5480   25.9620 C   0  0  0  0  0  1  0  0  0  0  0  0
  -29.6970  -18.4570   19.7470 C   0  0  0  0  0  3  0  0  0  0  0  0
  -30.3450  -15.6460   20.1560 C   0  0  0  0  0  0  0  0  0  0  0  0
  -30.5060  -13.1250   19.6190 C   0  0  0  0  0  2  0  0  0  0  0  0
  -29.6430  -12.7190   18.3990 C   0  0  0  0  0  2  0  0  0  0  0  0
  -28.1930  -12.4240   18.8250 C   0  0  0  0  0  2  0  0  0  0  0  0
  -27.6520  -13.4820   19.8220 C   0  0  0  0  0  3  0  0  0  0  0  0
  -28.6500  -13.8300   20.9440 C   0  0  0  0  0  2  0  0  0  0  0  0
  -29.8660  -14.3180   20.2780 N   0  0  0  0  0  0  0  0  0  0  0  0
  -31.5670  -15.7080   19.9550 O   0  0  0  0  0  0  0  0  0  0  0  0
  -29.4890  -16.8440   20.0600 N   0  0  0  0  0  0  0  0  0  0  0  0
  -28.5150  -16.6050   20.1740 H   0  0  0  0  0  0  0  0  0  0  0  0
  -25.2790  -13.9900   20.6080 C   0  0  0  0  0  0  0  0  0  0  0  0
  -24.2330  -13.1890   20.9690 C   0  0  0  0  0  0  0  0  0  0  0  0
  -24.7190  -11.8480   20.9010 C   0  0  0  0  0  0  0  0  0  0  0  0
  -26.3330  -13.1370   20.3350 N   0  0  0  0  0  0  0  0  0  0  0  0
  -26.0080  -11.8400   20.5800 N   0  0  0  0  0  0  0  0  0  0  0  0
  -24.0100  -10.5700   21.0670 C   0  0  0  0  0  0  0  0  0  0  0  0
  -24.4330   -9.6050   22.0070 C   0  0  0  0  0  3  0  0  0  0  0  0
  -23.7190   -8.3980   22.1620 C   0  0  0  0  0  3  0  0  0  0  0  0
  -22.5680   -8.1440   21.3760 C   0  0  0  0  0  0  0  0  0  0  0  0
  -22.1670   -9.1000   20.4240 C   0  0  0  0  0  3  0  0  0  0  0  0
  -22.8800  -10.2990   20.2680 C   0  0  0  0  0  3  0  0  0  0  0  0
  -21.8300   -6.9880   21.4390 O   0  0  0  0  0  0  0  0  0  0  0  0
  -21.7140   -6.2720   22.6030 C   0  0  0  0  0  0  0  0  0  0  0  0
  -21.1460   -6.8310   23.7680 C   0  0  0  0  0  3  0  0  0  0  0  0
  -20.9810   -6.0380   24.9210 C   0  0  0  0  0  3  0  0  0  0  0  0
  -21.3740   -4.6860   24.9090 C   0  0  0  0  0  0  0  0  0  0  0  0
  -21.9330   -4.1250   23.7470 C   0  0  0  0  0  3  0  0  0  0  0  0
  -22.1000   -4.9160   22.5970 C   0  0  0  0  0  0  0  0  0  0  0  0
  -22.6210   -4.3660   21.4740 F   0  0  0  0  0  0  0  0  0  0  0  0
  -21.2080   -3.9210   26.0140 F   0  0  0  0  0  0  0  0  0  0  0  0
  -22.8320  -13.6410   21.2590 C   0  0  0  0  0  0  0  0  0  0  0  0
  -22.1230  -12.9220   22.1210 N   0  0  0  0  0  0  0  0  0  0  0  0
  -22.3770  -14.6690   20.7590 O   0  0  0  0  0  0  0  0  0  0  0  0
  -22.5050  -12.0890   22.5470 H   0  0  0  0  0  0  0  0  0  0  0  0
  -21.1870  -13.2110   22.3650 H   0  0  0  0  0  0  0  0  0  0  0  0
  -25.4090  -15.3680   20.4580 N   0  0  0  0  0  0  0  0  0  0  0  0
  -24.6130  -15.9860   20.5700 H   0  0  0  0  0  0  0  0  0  0  0  0
  -26.2200  -15.8400   20.0810 H   0  0  0  0  0  0  0  0  0  0  0  0
  -33.3900  -19.6440   21.6980 C   0  0  0  0  0  3  0  0  0  0  0  0
  -33.3020  -19.6630   20.2920 C   0  0  0  0  0  3  0  0  0  0  0  0
  -32.2820  -19.2420   22.4690 C   0  0  0  0  0  3  0  0  0  0  0  0
  -32.1080  -19.2790   19.6510 C   0  0  0  0  0  3  0  0  0  0  0  0
  -31.0880  -18.8560   21.8270 C   0  0  0  0  0  3  0  0  0  0  0  0
  -30.9960  -18.8700   20.4170 C   0  0  0  0  0  0  0  0  0  0  0  0
  2  1  1  0
  2  3  2  0
  4  5  1  0
  4  3  1  0
  6 17  2  0
  7  5  1  0
  7 12  1  0
  8 16  1  0
  8 18  1  0
  9 15  1  0
  9 11  1  0
 10 16  1  0
 11 10  1  0
 12 11  2  0
 13 14  1  0
 13  7  2  0
 14  9  2  0
 15  8  1  0
 16  6  1  0
 18 20  2  0
 19 18  1  0
 21 19  1  0
 22 31  2  0
 22 27  1  0
 23 19  1  0
 23 27  1  0
 24 23  1  0
 25 26  1  0
 25 24  1  0
 26 22  1  0
 27 28  2  0
 28 29  1  0
 30 29  2  0
 31 30  1  0
 32  6  1  0
 32 33  1  0
 32 42  1  0
 33 36  1  0
 34 38  1  0
 34 33  1  0
 35 34  2  0
 38 37  1  0
 40 38  1  0
 40 41  1  0
 40 39  1  0
 42 45  1  1
 42 43  1  0
 44 42  1  0
 46  1  1  0
 46 55  1  0
 46 90  1  0
 47 53  1  0
 48 53  1  0
 49 50  1  0
 49 48  1  0
 51 50  1  0
 51 60  1  0
 51 52  1  0
 53 52  1  0
 54 47  2  0
 55 47  1  0
 55 56  1  0
 57 58  2  0
 58 77  1  0
 59 58  1  0
 59 62  1  0
 60 61  1  0
 60 57  1  0
 61 59  2  0
 62 63  1  0
 63 64  2  0
 65 68  1  0
 65 64  1  0
 66 65  2  0
 67 66  1  0
 67 62  2  0
 68 69  1  0
 69 70  1  0
 70 71  2  0
 72 71  1  0
 72 76  1  0
 73 72  2  0
 74 69  2  0
 74 73  1  0
 75 74  1  0
 77 78  1  0
 78 81  1  0
 78 80  1  0
 79 77  2  0
 82 83  1  0
 82 57  1  0
 84 82  1  0
 85 87  1  0
 86 85  2  0
 88 86  1  0
 88 90  2  0
 89 87  2  0
 90 89  1  0
M  ISO  4   4 101   5 101  47 100  55 100
M  END
>  <TORSDO>  (9) 
F 21

>  <SCORE>  (9) 
-14.803

>  <name>  (9) 
8

>  <ligand_id>  (9) 
8

>  <original_smiles>  (9) 
[H]c1c([H])c([H])c(C([H])(N([H])C(=O)N2C([H])([H])C([H])([H])C([H])([H])C([H])(n3nc(-c4c([H])c([H])c(Oc5c([H])c([H])c(F)c([H])c5F)c([H])c4[H])c(C(=O)N([H])[H])c3N([H])[H])C2([H])[H])C([H])([H])C([H])([H])C([H])([H])C([H])([H])Oc2c([H])c([H])c3c(c2[H])C([H])([H])N(C(=O)C([H])(N([H])C(=O)C([H])(N([H])C([H])([H])[H])C([H])([H])[H])C(C([H])([H])[H])(C([H])([H])[H])C([H])([H])[H])C([H])(C(=O)N([H])C2([H])c4c([H])c([H])c([H])c([H])c4C([H])([H])C([H])([H])C2([H])[H])C3([H])[H])c([H])c1[H]

>  <smiles>  (9) 
[H]c1c([H])c([H])c(C([H])(N([H])C(=O)N2C([H])([H])C([H])([H])C([H])([H])C([H])(n3nc(-c4c([H])c([H])c(Oc5c([H])c([H])c(F)c([H])c5F)c([H])c4[H])c(C(=O)N([H])[H])c3N([H])[H])C2([H])[H])C([H])([H])C([H])([H])C([H])([H])C([H])([H])Oc2c([H])c([H])c3c(c2[H])C([H])([H])N(C(=O)C([H])(N([H])C(=O)C([H])(N([H])C([H])([H])[H])C([H])([H])[H])C(C([H])([H])[H])(C([H])([H])[H])C([H])([H])[H])C([H])(C(=O)N([H])C2([H])c4c([H])c([H])c([H])c([H])c4C([H])([H])C([H])([H])C2([H])[H])C3([H])[H])c([H])c1[H]

$$$$
9:0:0
     RDKit          3D

 93101  0  0  1  0  0  0  0  0999 V2000
  -29.3490  -20.0620   21.7290 C   0  0  0  0  0  2  0  0  0  0  0  0
  -28.3120  -20.3220   20.6350 C   0  0  0  0  0  2  0  0  0  0  0  0
  -30.2560  -19.2190   19.6480 C   0  0  0  0  0  3  0  0  0  0  0  0
  -30.0800  -18.8460   21.1660 C   0  0  0  0  0  3  0  0  0  0  0  0
  -28.9460  -20.1150   19.2960 N   0  0  2  0  0  4  0  0  0  0  0  0
  -28.3170  -19.4750   18.8370 H   0  0  0  0  0  0  0  0  0  0  0  0
  -31.5470  -15.3480   18.9450 C   0  0  0  0  0  0  0  0  0  0  0  0
  -31.4170  -12.8640   18.4070 C   0  0  0  0  0  2  0  0  0  0  0  0
  -30.3260  -12.6010   17.3410 C   0  0  0  0  0  2  0  0  0  0  0  0
  -28.9530  -12.4230   18.0200 C   0  0  0  0  0  2  0  0  0  0  0  0
  -28.6760  -13.5190   19.0850 C   0  0  0  0  0  3  0  0  0  0  0  0
  -29.8730  -13.7350   20.0330 C   0  0  0  0  0  2  0  0  0  0  0  0
  -31.0330  -14.0730   19.2020 N   0  0  0  0  0  0  0  0  0  0  0  0
  -32.6420  -15.3780   18.3670 O   0  0  0  0  0  0  0  0  0  0  0  0
  -30.8840  -17.9010   18.8290 C   0  0  0  0  0  0  0  0  0  0  0  0
  -30.7890  -16.5290   19.2320 N   0  0  0  0  0  0  0  0  0  0  0  0
  -31.5790  -18.1890   17.8520 O   0  0  0  0  0  0  0  0  0  0  0  0
  -30.0610  -16.3820   19.9100 H   0  0  0  0  0  0  0  0  0  0  0  0
  -26.6020  -14.2020   20.4120 C   0  0  0  0  0  0  0  0  0  0  0  0
  -25.5450  -13.4830   20.9130 C   0  0  0  0  0  0  0  0  0  0  0  0
  -25.8070  -12.1170   20.5880 C   0  0  0  0  0  0  0  0  0  0  0  0
  -27.4420  -13.2740   19.8220 N   0  0  0  0  0  0  0  0  0  0  0  0
  -26.9880  -12.0030   19.9850 N   0  0  0  0  0  0  0  0  0  0  0  0
  -24.9760  -10.9200   20.7710 C   0  0  0  0  0  0  0  0  0  0  0  0
  -25.3390   -9.8930   21.6710 C   0  0  0  0  0  3  0  0  0  0  0  0
  -24.5110   -8.7620   21.8390 C   0  0  0  0  0  3  0  0  0  0  0  0
  -23.3030   -8.6540   21.1140 C   0  0  0  0  0  0  0  0  0  0  0  0
  -22.9600   -9.6660   20.1980 C   0  0  0  0  0  3  0  0  0  0  0  0
  -23.7880  -10.7870   20.0260 C   0  0  0  0  0  3  0  0  0  0  0  0
  -22.4460   -7.5800   21.2010 O   0  0  0  0  0  0  0  0  0  0  0  0
  -22.1330   -7.0020   22.4050 C   0  0  0  0  0  0  0  0  0  0  0  0
  -21.5170   -7.7320   23.4460 C   0  0  0  0  0  3  0  0  0  0  0  0
  -21.1470   -7.0800   24.6380 C   0  0  0  0  0  3  0  0  0  0  0  0
  -21.3830   -5.7010   24.7920 C   0  0  0  0  0  0  0  0  0  0  0  0
  -21.9930   -4.9720   23.7570 C   0  0  0  0  0  3  0  0  0  0  0  0
  -22.3630   -5.6210   22.5640 C   0  0  0  0  0  0  0  0  0  0  0  0
  -22.9280   -4.9050   21.5620 F   0  0  0  0  0  0  0  0  0  0  0  0
  -21.0210   -5.0760   25.9360 F   0  0  0  0  0  0  0  0  0  0  0  0
  -24.3150  -14.0500   21.5570 C   0  0  0  0  0  0  0  0  0  0  0  0
  -23.7140  -13.3150   22.4930 N   0  0  0  0  0  0  0  0  0  0  0  0
  -23.9040  -15.1690   21.2690 O   0  0  0  0  0  0  0  0  0  0  0  0
  -24.0670  -12.4070   22.7520 H   0  0  0  0  0  0  0  0  0  0  0  0
  -22.8860  -13.6700   22.9480 H   0  0  0  0  0  0  0  0  0  0  0  0
  -26.8990  -15.5610   20.3970 N   0  0  0  0  0  0  0  0  0  0  0  0
  -26.2270  -16.2460   20.7220 H   0  0  0  0  0  0  0  0  0  0  0  0
  -27.6970  -15.9760   19.9360 H   0  0  0  0  0  0  0  0  0  0  0  0
  -32.6540  -18.3770   21.2790 C   0  0  0  0  0  1  0  0  0  0  0  0
  -31.3640  -18.9690   23.4160 C   0  0  0  0  0  1  0  0  0  0  0  0
  -31.3020  -18.3370   22.0100 C   0  0  0  0  0  3  0  0  0  0  0  0
  -28.8550  -21.4740   18.4250 C   0  0  0  0  0  3  0  0  0  0  0  0
  -27.8190  -22.8480   18.7040 C   0  0  0  0  0  3  0  0  0  0  0  0
  -27.6220  -24.2880   17.7750 C   0  0  0  0  0  2  0  0  0  0  0  0
  -27.6930  -25.8490   18.0680 O   0  0  0  0  0  0  0  0  0  0  0  0
  -24.8870  -30.8310   22.6370 C   0  0  0  0  0  0  0  0  0  0  0  0
  -26.6650  -26.8520   18.2800 C   0  0  0  0  0  0  0  0  0  0  0  0
  -23.3530  -29.8660   20.9580 C   0  0  0  0  0  3  0  0  0  0  0  0
  -24.4580  -28.6340   18.9790 C   0  0  0  0  0  0  0  0  0  0  0  0
  -25.8520  -30.1310   20.4110 C   0  0  0  0  0  2  0  0  0  0  0  0
  -25.7400  -28.9170   19.4650 C   0  0  0  0  0  0  0  0  0  0  0  0
  -26.8360  -28.0520   19.0930 C   0  0  0  0  0  3  0  0  0  0  0  0
  -25.3650  -26.6850   17.7660 C   0  0  0  0  0  3  0  0  0  0  0  0
  -24.2850  -27.5450   18.1030 C   0  0  0  0  0  3  0  0  0  0  0  0
  -23.3040  -29.5090   19.4440 C   0  0  0  0  0  2  0  0  0  0  0  0
  -24.7260  -30.2890   21.3890 N   0  0  0  0  0  0  0  0  0  0  0  0
  -23.9250  -30.9930   23.4030 O   0  0  0  0  0  0  0  0  0  0  0  0
  -22.7910  -28.6790   21.7810 C   0  0  0  0  0  0  0  0  0  0  0  0
  -21.4640  -28.4680   21.7320 N   0  0  0  0  0  0  0  0  0  0  0  0
  -23.5540  -27.9550   22.4270 O   0  0  0  0  0  0  0  0  0  0  0  0
  -20.9030  -29.1100   21.1910 H   0  0  0  0  0  0  0  0  0  0  0  0
  -18.2120  -26.9130   22.1070 C   0  0  0  0  0  0  0  0  0  0  0  0
  -20.7420  -27.3700   22.3830 C   0  0  0  0  0  3  0  0  0  0  0  0
  -20.9590  -26.0360   21.6290 C   0  0  0  0  0  2  0  0  0  0  0  0
  -19.8710  -25.7490   20.5910 C   0  0  0  0  0  2  0  0  0  0  0  0
  -18.4940  -25.6830   21.2590 C   0  0  0  0  0  2  0  0  0  0  0  0
  -19.2660  -27.7140   22.6200 C   0  0  0  0  0  0  0  0  0  0  0  0
  -18.9470  -28.8640   23.3720 C   0  0  0  0  0  3  0  0  0  0  0  0
  -17.6040  -29.2140   23.6180 C   0  0  0  0  0  3  0  0  0  0  0  0
  -16.5660  -28.4080   23.1230 C   0  0  0  0  0  3  0  0  0  0  0  0
  -16.8700  -27.2590   22.3700 C   0  0  0  0  0  3  0  0  0  0  0  0
  -26.2860  -31.2890   23.1570 C   0  0  0  0  0  3  0  0  0  0  0  0
  -26.9700  -30.2310   24.1090 C   0  0  1  0  0  0  0  0  0  0  0  0
  -26.0680  -29.7610   25.2730 C   0  0  0  0  0  1  0  0  0  0  0  0
  -27.4060  -28.9750   23.3200 C   0  0  0  0  0  1  0  0  0  0  0  0
  -28.2530  -30.8350   24.7250 C   0  0  0  0  0  1  0  0  0  0  0  0
  -26.1080  -32.5700   23.8600 N   0  0  0  0  0  0  0  0  0  0  0  0
  -26.4690  -33.7680   23.3750 C   0  0  0  0  0  0  0  0  0  0  0  0
  -27.0490  -33.9000   22.2940 O   0  0  0  0  0  0  0  0  0  0  0  0
  -25.5960  -32.5410   24.7290 H   0  0  0  0  0  0  0  0  0  0  0  0
  -24.8970  -35.7170   23.6380 C   0  0  0  0  0  1  0  0  0  0  0  0
  -26.1340  -35.0130   24.2190 C   0  0  0  0  0  3  0  0  0  0  0  0
  -28.3750  -35.4920   25.1070 C   0  0  0  0  0  1  0  0  0  0  0  0
  -27.2510  -35.9800   24.3130 N   0  0  0  0  0  0  0  0  0  0  0  0
  -26.9360  -36.8570   24.7180 H   0  0  0  0  0  0  0  0  0  0  0  0
  2  1  1  0
  3 15  1  0
  3  4  1  0
  4  1  1  0
  4 49  1  0
  5  3  1  0
  5  2  1  0
  5  6  1  6
  7 13  1  0
  7 16  1  0
  8 13  1  0
  9 10  1  0
  9  8  1  0
 11 10  1  0
 11 22  1  0
 11 12  1  0
 13 12  1  0
 14  7  2  0
 15 16  1  0
 16 18  1  0
 17 15  2  0
 19 20  2  0
 20 39  1  0
 21 24  1  0
 21 20  1  0
 22 23  1  0
 22 19  1  0
 23 21  2  0
 24 25  1  0
 25 26  2  0
 27 30  1  0
 27 26  1  0
 28 27  2  0
 29 28  1  0
 29 24  2  0
 30 31  1  0
 31 36  2  0
 31 32  1  0
 32 33  2  0
 33 34  1  0
 34 38  1  0
 35 34  2  0
 36 35  1  0
 37 36  1  0
 39 40  1  0
 40 42  1  0
 40 43  1  0
 41 39  2  0
 44 19  1  0
 44 45  1  0
 46 44  1  0
 47 49  1  0
 49 48  1  0
 50 51  2  0
 50  5  1  0
 52 53  1  0
 52 51  1  0
 53 55  1  0
 54 65  2  0
 55 60  1  0
 56 64  1  0
 56 66  1  0
 57 63  1  0
 57 59  1  0
 58 64  1  0
 59 58  1  0
 60 59  2  0
 61 62  1  0
 61 55  2  0
 62 57  2  0
 63 56  1  0
 64 54  1  0
 66 68  2  0
 67 66  1  0
 69 67  1  0
 70 79  2  0
 70 75  1  0
 71 67  1  0
 71 75  1  0
 72 71  1  0
 73 74  1  0
 73 72  1  0
 74 70  1  0
 75 76  2  0
 76 77  1  0
 78 77  2  0
 79 78  1  0
 80 54  1  0
 80 85  1  0
 80 81  1  0
 81 84  1  1
 81 82  1  0
 83 81  1  0
 85 88  1  0
 86 85  1  0
 86 90  1  0
 87 86  2  0
 90 89  1  0
 90 92  1  0
 92 93  1  0
 92 91  1  0
M  ISO  4   7 100  16 100  52 101  53 101
M  END
>  <TORSDO>  (10) 
F 20

>  <SCORE>  (10) 
-9.040

>  <name>  (10) 
9

>  <ligand_id>  (10) 
9

>  <original_smiles>  (10) 
[H]c1c([H])c([H])c2c(c1[H])C([H])([H])C([H])([H])C([H])([H])C2([H])N([H])C(=O)C1([H])N(C(=O)C([H])(N([H])C(=O)C([H])(N([H])C([H])([H])[H])C([H])([H])[H])C(C([H])([H])[H])(C([H])([H])[H])C([H])([H])[H])C([H])([H])c2c([H])c(OC([H])([H])C([H])([H])C([H])([H])[N+]3([H])C([H])([H])C([H])([H])C([H])(C([H])(C([H])([H])[H])C([H])([H])[H])C3([H])C(=O)N([H])C(=O)N3C([H])([H])C([H])([H])C([H])([H])C([H])(n4nc(-c5c([H])c([H])c(Oc6c([H])c([H])c(F)c([H])c6F)c([H])c5[H])c(C(=O)N([H])[H])c4N([H])[H])C3([H])[H])c([H])c([H])c2C1([H])[H]

>  <smiles>  (10) 
[H]c1c([H])c([H])c2c(c1[H])C([H])([H])C([H])([H])C([H])([H])C2([H])N([H])C(=O)C1([H])N(C(=O)C([H])(N([H])C(=O)C([H])(N([H])C([H])([H])[H])C([H])([H])[H])C(C([H])([H])[H])(C([H])([H])[H])C([H])([H])[H])C([H])([H])c2c([H])c(OC([H])([H])C([H])([H])C([H])([H])[N+]3([H])C([H])([H])C([H])([H])C([H])(C([H])(C([H])([H])[H])C([H])([H])[H])C3([H])C(=O)N([H])C(=O)N3C([H])([H])C([H])([H])C([H])([H])C([H])(n4nc(-c5c([H])c([H])c(Oc6c([H])c([H])c(F)c([H])c6F)c([H])c5[H])c(C(=O)N([H])[H])c4N([H])[H])C3([H])[H])c([H])c([H])c2C1([H])[H]

$$$$
10:0:0
     RDKit          3D

 91 99  0  0  1  0  0  0  0  0999 V2000
  -29.7470  -20.5280   21.0090 N   0  0  0  0  0  4  0  0  0  0  0  0
  -30.6300  -20.8710   21.3540 H   0  0  0  0  0  0  0  0  0  0  0  0
  -29.1820  -20.4030   21.8320 H   0  0  0  0  0  0  0  0  0  0  0  0
  -30.9120  -15.4420   20.6310 C   0  0  0  0  0  0  0  0  0  0  0  0
  -30.7680  -13.0630   19.7170 C   0  0  0  0  0  2  0  0  0  0  0  0
  -29.9180  -12.9090   18.4390 C   0  0  0  0  0  2  0  0  0  0  0  0
  -28.4480  -12.6550   18.8130 C   0  0  0  0  0  2  0  0  0  0  0  0
  -27.9530  -13.6240   19.9150 C   0  0  0  0  0  3  0  0  0  0  0  0
  -28.9450  -13.7930   21.0860 C   0  0  0  0  0  2  0  0  0  0  0  0
  -30.2200  -14.2230   20.4970 N   0  0  0  0  0  0  0  0  0  0  0  0
  -32.1400  -15.3280   20.5550 O   0  0  0  0  0  0  0  0  0  0  0  0
  -31.0720  -18.0580   21.2400 C   0  0  0  0  0  2  0  0  0  0  0  0
  -30.1150  -19.0510   20.4440 C   0  0  0  0  0  3  0  0  0  0  0  0
  -29.1840  -17.7420   20.4600 C   0  0  0  0  0  3  0  0  0  0  0  0
  -30.3820  -16.8020   20.7210 N   0  0  0  0  0  0  0  0  0  0  0  0
  -25.5550  -14.2280   20.5600 C   0  0  0  0  0  0  0  0  0  0  0  0
  -24.4620  -13.4620   20.8490 C   0  0  0  0  0  0  0  0  0  0  0  0
  -24.9130  -12.1060   20.8190 C   0  0  0  0  0  0  0  0  0  0  0  0
  -26.5970  -13.3380   20.3550 N   0  0  0  0  0  0  0  0  0  0  0  0
  -26.2180  -12.0570   20.5830 N   0  0  0  0  0  0  0  0  0  0  0  0
  -24.1630  -10.8520   20.9430 C   0  0  0  0  0  0  0  0  0  0  0  0
  -24.5080   -9.8790   21.9060 C   0  0  0  0  0  3  0  0  0  0  0  0
  -23.7570   -8.6900   22.0190 C   0  0  0  0  0  3  0  0  0  0  0  0
  -22.6500   -8.4650   21.1670 C   0  0  0  0  0  0  0  0  0  0  0  0
  -22.3260   -9.4280   20.1940 C   0  0  0  0  0  3  0  0  0  0  0  0
  -23.0770  -10.6090   20.0790 C   0  0  0  0  0  3  0  0  0  0  0  0
  -21.8790   -7.3290   21.1880 O   0  0  0  0  0  0  0  0  0  0  0  0
  -21.7110   -6.5950   22.3350 C   0  0  0  0  0  0  0  0  0  0  0  0
  -21.1650   -7.1600   23.5080 C   0  0  0  0  0  3  0  0  0  0  0  0
  -20.9450   -6.3540   24.6420 C   0  0  0  0  0  3  0  0  0  0  0  0
  -21.2610   -4.9820   24.6020 C   0  0  0  0  0  0  0  0  0  0  0  0
  -21.8010   -4.4160   23.4330 C   0  0  0  0  0  3  0  0  0  0  0  0
  -22.0220   -5.2210   22.3020 C   0  0  0  0  0  0  0  0  0  0  0  0
  -22.5230   -4.6660   21.1720 F   0  0  0  0  0  0  0  0  0  0  0  0
  -21.0420   -4.2050   25.6890 F   0  0  0  0  0  0  0  0  0  0  0  0
  -23.0590  -13.9560   21.0420 C   0  0  0  0  0  0  0  0  0  0  0  0
  -22.2740  -13.2660   21.8610 N   0  0  0  0  0  0  0  0  0  0  0  0
  -22.6650  -14.9900   20.5040 O   0  0  0  0  0  0  0  0  0  0  0  0
  -22.6040  -12.4290   22.3190 H   0  0  0  0  0  0  0  0  0  0  0  0
  -21.3290  -13.5800   22.0340 H   0  0  0  0  0  0  0  0  0  0  0  0
  -25.7390  -15.6000   20.4320 N   0  0  0  0  0  0  0  0  0  0  0  0
  -24.9730  -16.2570   20.5260 H   0  0  0  0  0  0  0  0  0  0  0  0
  -26.6180  -16.0420   20.2060 H   0  0  0  0  0  0  0  0  0  0  0  0
  -28.4530  -17.4450   19.1540 C   0  0  0  0  0  2  0  0  0  0  0  0
  -28.1470  -18.7170   18.3490 C   0  0  0  0  0  2  0  0  0  0  0  0
  -27.4570  -19.6920   16.0990 C   0  0  0  0  0  1  0  0  0  0  0  0
  -27.6400  -18.4180   16.9310 C   0  0  0  0  0  2  0  0  0  0  0  0
  -29.1540  -21.8100   20.2290 C   0  0  0  0  0  2  0  0  0  0  0  0
  -29.1380  -23.4420   20.8170 C   0  0  0  0  0  3  0  0  0  0  0  0
  -28.3010  -24.8240   20.2010 C   0  0  0  0  0  3  0  0  0  0  0  0
  -28.4150  -26.3680   20.5610 O   0  0  0  0  0  0  0  0  0  0  0  0
  -24.5460  -32.0670   23.3260 C   0  0  0  0  0  0  0  0  0  0  0  0
  -27.3450  -27.3520   20.4250 C   0  0  0  0  0  0  0  0  0  0  0  0
  -23.4370  -30.6160   21.6720 C   0  0  0  0  0  3  0  0  0  0  0  0
  -24.9710  -29.0630   20.3030 C   0  0  0  0  0  0  0  0  0  0  0  0
  -25.9870  -30.9430   21.5790 C   0  0  0  0  0  2  0  0  0  0  0  0
  -26.1210  -29.5400   20.9460 C   0  0  0  0  0  0  0  0  0  0  0  0
  -27.3040  -28.7000   20.9890 C   0  0  0  0  0  3  0  0  0  0  0  0
  -26.1700  -26.9970   19.7250 C   0  0  0  0  0  3  0  0  0  0  0  0
  -25.0130  -27.8080   19.6770 C   0  0  0  0  0  3  0  0  0  0  0  0
  -23.7190  -29.9300   20.3080 C   0  0  0  0  0  2  0  0  0  0  0  0
  -24.6740  -31.2340   22.2470 N   0  0  0  0  0  0  0  0  0  0  0  0
  -23.4370  -32.3250   23.8200 O   0  0  0  0  0  0  0  0  0  0  0  0
  -22.7590  -29.6020   22.6290 C   0  0  0  0  0  0  0  0  0  0  0  0
  -21.4510  -29.3510   22.4350 N   0  0  0  0  0  0  0  0  0  0  0  0
  -23.4150  -29.0420   23.5110 O   0  0  0  0  0  0  0  0  0  0  0  0
  -20.9740  -29.8570   21.7020 H   0  0  0  0  0  0  0  0  0  0  0  0
  -18.1260  -27.9540   22.7840 C   0  0  0  0  0  0  0  0  0  0  0  0
  -20.6430  -28.3900   23.1910 C   0  0  0  0  0  3  0  0  0  0  0  0
  -20.8670  -26.9480   22.6800 C   0  0  0  0  0  2  0  0  0  0  0  0
  -19.8530  -26.5210   21.6150 C   0  0  0  0  0  2  0  0  0  0  0  0
  -18.4270  -26.5970   22.1700 C   0  0  0  0  0  2  0  0  0  0  0  0
  -19.1660  -28.8010   23.2500 C   0  0  0  0  0  0  0  0  0  0  0  0
  -18.8310  -30.0650   23.7840 C   0  0  0  0  0  3  0  0  0  0  0  0
  -17.4880  -30.4830   23.8570 C   0  0  0  0  0  3  0  0  0  0  0  0
  -16.4620  -29.6350   23.4070 C   0  0  0  0  0  3  0  0  0  0  0  0
  -16.7820  -28.3710   22.8770 C   0  0  0  0  0  3  0  0  0  0  0  0
  -25.7840  -32.7510   23.9800 C   0  0  0  0  0  3  0  0  0  0  0  0
  -26.2270  -32.0690   25.3330 C   0  0  1  0  0  0  0  0  0  0  0  0
  -25.0660  -31.8560   26.3330 C   0  0  0  0  0  1  0  0  0  0  0  0
  -26.8740  -30.6910   25.0690 C   0  0  0  0  0  1  0  0  0  0  0  0
  -27.3040  -32.9330   26.0280 C   0  0  0  0  0  1  0  0  0  0  0  0
  -25.4470  -34.1660   24.2100 N   0  0  0  0  0  0  0  0  0  0  0  0
  -25.8000  -35.1780   23.4050 C   0  0  0  0  0  0  0  0  0  0  0  0
  -26.5070  -35.0190   22.4060 O   0  0  0  0  0  0  0  0  0  0  0  0
  -24.8220  -34.3620   24.9770 H   0  0  0  0  0  0  0  0  0  0  0  0
  -24.0580  -36.9250   22.9050 C   0  0  0  0  0  1  0  0  0  0  0  0
  -25.2880  -36.5880   23.7620 C   0  0  0  0  0  3  0  0  0  0  0  0
  -27.3920  -37.5610   24.5760 C   0  0  0  0  0  1  0  0  0  0  0  0
  -26.3100  -37.6450   23.5980 N   0  0  0  0  0  0  0  0  0  0  0  0
  -25.8890  -38.5680   23.6700 H   0  0  0  0  0  0  0  0  0  0  0  0
  1  2  1  0
  1  3  1  0
  4 15  1  0
  5 10  1  0
  6  7  1  0
  6  5  1  0
  8  7  1  0
  8 19  1  0
  8  9  1  0
 10  4  1  0
 10  9  1  0
 11  4  2  0
 13 14  1  0
 13  1  1  0
 13 12  1  0
 14 44  1  0
 14 15  1  0
 15 12  1  0
 16 17  2  0
 17 36  1  0
 18 17  1  0
 18 21  1  0
 19 16  1  0
 19 20  1  0
 20 18  2  0
 21 22  1  0
 22 23  2  0
 24 27  1  0
 24 23  1  0
 25 24  2  0
 26 25  1  0
 26 21  2  0
 27 28  1  0
 28 29  1  0
 29 30  2  0
 31 30  1  0
 31 35  1  0
 32 31  2  0
 33 28  2  0
 33 32  1  0
 34 33  1  0
 36 37  1  0
 37 40  1  0
 37 39  1  0
 38 36  2  0
 41 42  1  0
 41 16  1  0
 43 41  1  0
 45 44  1  0
 46 47  1  0
 47 45  1  0
 48 49  1  0
 48  1  1  0
 50 51  1  0
 50 49  2  0
 52 63  2  0
 53 51  1  0
 53 58  1  0
 54 62  1  0
 54 64  1  0
 55 61  1  0
 55 57  1  0
 56 62  1  0
 57 58  2  0
 57 56  1  0
 59 53  2  0
 60 59  1  0
 60 55  2  0
 61 54  1  0
 62 52  1  0
 64 66  2  0
 65 64  1  0
 67 65  1  0
 68 77  2  0
 68 73  1  0
 69 65  1  0
 69 73  1  0
 70 69  1  0
 71 72  1  0
 71 70  1  0
 72 68  1  0
 73 74  2  0
 74 75  1  0
 76 75  2  0
 77 76  1  0
 78 52  1  0
 78 83  1  0
 78 79  1  0
 79 82  1  1
 79 80  1  0
 81 79  1  0
 83 86  1  0
 84 88  1  0
 84 83  1  0
 85 84  2  0
 88 87  1  0
 90 91  1  0
 90 88  1  0
 90 89  1  0
M  ISO  4   4 100  15 100  50 101  51 101
M  END
>  <TORSDO>  (11) 
F 22

>  <SCORE>  (11) 
-13.178

>  <name>  (11) 
10

>  <ligand_id>  (11) 
10

>  <original_smiles>  (11) 
[H]c1c([H])c([H])c2c(c1[H])C([H])([H])C([H])([H])C([H])([H])C2([H])N([H])C(=O)C1([H])N(C(=O)C([H])(N([H])C(=O)C([H])(N([H])C([H])([H])[H])C([H])([H])[H])C(C([H])([H])[H])(C([H])([H])[H])C([H])([H])[H])C([H])([H])c2c([H])c(OC([H])([H])C([H])([H])C([H])([H])[N+]([H])([H])C3([H])C([H])([H])N(C(=O)N4C([H])([H])C([H])([H])C([H])([H])C([H])(n5nc(-c6c([H])c([H])c(Oc7c([H])c([H])c(F)c([H])c7F)c([H])c6[H])c(C(=O)N([H])[H])c5N([H])[H])C4([H])[H])C3([H])C([H])([H])C([H])([H])C([H])([H])C([H])([H])[H])c([H])c([H])c2C1([H])[H]

>  <smiles>  (11) 
[H]c1c([H])c([H])c2c(c1[H])C([H])([H])C([H])([H])C([H])([H])C2([H])N([H])C(=O)C1([H])N(C(=O)C([H])(N([H])C(=O)C([H])(N([H])C([H])([H])[H])C([H])([H])[H])C(C([H])([H])[H])(C([H])([H])[H])C([H])([H])[H])C([H])([H])c2c([H])c(OC([H])([H])C([H])([H])C([H])([H])[N+]([H])([H])C3([H])C([H])([H])N(C(=O)N4C([H])([H])C([H])([H])C([H])([H])C([H])(n5nc(-c6c([H])c([H])c(Oc7c([H])c([H])c(F)c([H])c7F)c([H])c6[H])c(C(=O)N([H])[H])c5N([H])[H])C4([H])[H])C3([H])C([H])([H])C([H])([H])C([H])([H])C([H])([H])[H])c([H])c([H])c2C1([H])[H]

$$$$
11:0:0
     RDKit          3D

 92100  0  0  1  0  0  0  0  0999 V2000
  -28.8840  -22.9100   21.2580 C   0  0  0  0  0  2  0  0  0  0  0  0
  -28.0270  -23.7620   19.1990 C   0  0  0  0  0  2  0  0  0  0  0  0
  -28.4190  -21.6910   20.4070 C   0  0  0  0  0  3  0  0  0  0  0  0
  -28.0830  -24.1230   20.6930 C   0  0  0  0  0  3  0  0  0  0  0  0
  -28.1530  -22.2860   19.0830 N   0  0  0  0  0  4  0  0  0  0  0  0
  -28.9540  -22.0240   18.5220 H   0  0  0  0  0  0  0  0  0  0  0  0
  -27.3350  -21.8680   18.6700 H   0  0  0  0  0  0  0  0  0  0  0  0
  -29.4810  -20.5640   20.1480 C   0  0  0  0  0  0  0  0  0  0  0  0
  -30.0590  -20.4810   19.0570 O   0  0  0  0  0  0  0  0  0  0  0  0
  -29.8200  -19.4880   21.2190 C   0  0  0  0  0  2  0  0  0  0  0  0
  -29.4860  -18.0100   20.8070 C   0  0  0  0  0  2  0  0  0  0  0  0
  -30.5190  -16.9240   21.2430 C   0  0  0  0  0  2  0  0  0  0  0  0
  -30.7350  -14.5330   20.3740 C   0  0  0  0  0  0  0  0  0  0  0  0
  -30.4180  -12.3620   19.2170 C   0  0  0  0  0  2  0  0  0  0  0  0
  -29.4830  -12.5540   18.0090 C   0  0  0  0  0  2  0  0  0  0  0  0
  -28.0130  -12.4180   18.4460 C   0  0  0  0  0  2  0  0  0  0  0  0
  -27.6820  -13.2640   19.7010 C   0  0  0  0  0  3  0  0  0  0  0  0
  -28.7330  -13.0610   20.8130 C   0  0  0  0  0  2  0  0  0  0  0  0
  -30.0550  -13.3570   20.2400 N   0  0  0  0  0  0  0  0  0  0  0  0
  -31.8480  -14.7200   19.8720 O   0  0  0  0  0  0  0  0  0  0  0  0
  -30.0640  -15.5360   20.9880 N   0  0  0  0  0  0  0  0  0  0  0  0
  -29.1510  -15.2930   21.3410 H   0  0  0  0  0  0  0  0  0  0  0  0
  -25.2920  -13.8790   20.4130 C   0  0  0  0  0  0  0  0  0  0  0  0
  -24.2220  -13.1150   20.7940 C   0  0  0  0  0  0  0  0  0  0  0  0
  -24.6800  -11.7610   20.7720 C   0  0  0  0  0  0  0  0  0  0  0  0
  -26.3330  -12.9950   20.1860 N   0  0  0  0  0  0  0  0  0  0  0  0
  -25.9690  -11.7150   20.4620 N   0  0  0  0  0  0  0  0  0  0  0  0
  -23.9500  -10.5040   20.9810 C   0  0  0  0  0  0  0  0  0  0  0  0
  -24.3880   -9.5380   21.9160 C   0  0  0  0  0  3  0  0  0  0  0  0
  -23.6560   -8.3470   22.1090 C   0  0  0  0  0  3  0  0  0  0  0  0
  -22.4770   -8.1100   21.3660 C   0  0  0  0  0  0  0  0  0  0  0  0
  -22.0550   -9.0650   20.4230 C   0  0  0  0  0  3  0  0  0  0  0  0
  -22.7860  -10.2480   20.2280 C   0  0  0  0  0  3  0  0  0  0  0  0
  -21.7190   -6.9670   21.4670 O   0  0  0  0  0  0  0  0  0  0  0  0
  -21.6820   -6.2280   22.6230 C   0  0  0  0  0  0  0  0  0  0  0  0
  -21.2760   -6.7900   23.8530 C   0  0  0  0  0  3  0  0  0  0  0  0
  -21.1900   -5.9810   25.0020 C   0  0  0  0  0  3  0  0  0  0  0  0
  -21.4960   -4.6070   24.9210 C   0  0  0  0  0  0  0  0  0  0  0  0
  -21.8900   -4.0440   23.6960 C   0  0  0  0  0  3  0  0  0  0  0  0
  -21.9830   -4.8530   22.5480 C   0  0  0  0  0  0  0  0  0  0  0  0
  -22.3510   -4.3020   21.3650 F   0  0  0  0  0  0  0  0  0  0  0  0
  -21.4010   -3.8260   26.0200 F   0  0  0  0  0  0  0  0  0  0  0  0
  -22.8320  -13.6010   21.0810 C   0  0  0  0  0  0  0  0  0  0  0  0
  -22.1140  -12.9200   21.9630 N   0  0  0  0  0  0  0  0  0  0  0  0
  -22.3930  -14.6270   20.5560 O   0  0  0  0  0  0  0  0  0  0  0  0
  -22.4930  -12.1010   22.4160 H   0  0  0  0  0  0  0  0  0  0  0  0
  -21.1850  -13.2380   22.1950 H   0  0  0  0  0  0  0  0  0  0  0  0
  -25.4630  -15.2480   20.2250 N   0  0  0  0  0  0  0  0  0  0  0  0
  -26.3300  -15.6800   19.9290 H   0  0  0  0  0  0  0  0  0  0  0  0
  -24.6940  -15.9040   20.3020 H   0  0  0  0  0  0  0  0  0  0  0  0
  -28.6080  -25.5650   21.0520 C   0  0  0  0  0  2  0  0  0  0  0  0
  -28.3780  -26.6490   20.1180 O   0  0  0  0  0  0  0  0  0  0  0  0
  -24.5860  -31.8990   23.2380 C   0  0  0  0  0  0  0  0  0  0  0  0
  -27.2180  -27.3960   20.2100 C   0  0  0  0  0  0  0  0  0  0  0  0
  -23.3830  -30.4940   21.5950 C   0  0  0  0  0  3  0  0  0  0  0  0
  -24.8380  -28.9400   20.1890 C   0  0  0  0  0  0  0  0  0  0  0  0
  -25.9160  -30.8360   21.4140 C   0  0  0  0  0  2  0  0  0  0  0  0
  -25.9980  -29.4550   20.7880 C   0  0  0  0  0  0  0  0  0  0  0  0
  -27.1910  -28.6890   20.7920 C   0  0  0  0  0  3  0  0  0  0  0  0
  -26.0470  -26.9090   19.6010 C   0  0  0  0  0  3  0  0  0  0  0  0
  -24.8610  -27.6670   19.5930 C   0  0  0  0  0  3  0  0  0  0  0  0
  -23.5980  -29.8080   20.2210 C   0  0  0  0  0  2  0  0  0  0  0  0
  -24.6460  -31.0960   22.1370 N   0  0  0  0  0  0  0  0  0  0  0  0
  -23.5020  -32.1740   23.7750 O   0  0  0  0  0  0  0  0  0  0  0  0
  -22.7280  -29.4770   22.5580 C   0  0  0  0  0  0  0  0  0  0  0  0
  -21.4030  -29.2970   22.4330 N   0  0  0  0  0  0  0  0  0  0  0  0
  -23.4100  -28.8560   23.3780 O   0  0  0  0  0  0  0  0  0  0  0  0
  -20.9120  -29.8520   21.7440 H   0  0  0  0  0  0  0  0  0  0  0  0
  -18.0290  -28.1040   22.9330 C   0  0  0  0  0  0  0  0  0  0  0  0
  -20.5870  -28.3600   23.2040 C   0  0  0  0  0  3  0  0  0  0  0  0
  -20.6870  -26.9270   22.6320 C   0  0  0  0  0  2  0  0  0  0  0  0
  -19.5850  -26.6060   21.6170 C   0  0  0  0  0  2  0  0  0  0  0  0
  -18.2030  -26.7540   22.2600 C   0  0  0  0  0  2  0  0  0  0  0  0
  -19.1490  -28.8660   23.3630 C   0  0  0  0  0  0  0  0  0  0  0  0
  -18.9310  -30.1330   23.9490 C   0  0  0  0  0  3  0  0  0  0  0  0
  -17.6260  -30.6350   24.1150 C   0  0  0  0  0  3  0  0  0  0  0  0
  -16.5220  -29.8700   23.7010 C   0  0  0  0  0  3  0  0  0  0  0  0
  -16.7240  -28.6080   23.1160 C   0  0  0  0  0  3  0  0  0  0  0  0
  -25.8700  -32.5330   23.8560 C   0  0  0  0  0  3  0  0  0  0  0  0
  -25.5610  -33.9340   24.1750 N   0  0  0  0  0  0  0  0  0  0  0  0
  -25.9050  -34.9820   23.4160 C   0  0  0  0  0  0  0  0  0  0  0  0
  -26.5840  -34.8710   22.3900 O   0  0  0  0  0  0  0  0  0  0  0  0
  -24.9550  -34.0910   24.9660 H   0  0  0  0  0  0  0  0  0  0  0  0
  -24.1840  -36.7820   23.0440 C   0  0  0  0  0  1  0  0  0  0  0  0
  -25.4180  -36.3730   23.8640 C   0  0  0  0  0  3  0  0  0  0  0  0
  -27.5440  -37.2580   24.7100 C   0  0  0  0  0  1  0  0  0  0  0  0
  -26.4530  -37.4230   23.7570 N   0  0  0  0  0  0  0  0  0  0  0  0
  -26.0460  -38.3450   23.8930 H   0  0  0  0  0  0  0  0  0  0  0  0
  -26.3880  -31.7720   25.1410 C   0  0  1  0  0  0  0  0  0  0  0  0
  -25.2970  -31.5450   26.2120 C   0  0  0  0  0  1  0  0  0  0  0  0
  -26.9760  -30.3910   24.7630 C   0  0  0  0  0  1  0  0  0  0  0  0
  -27.5320  -32.5780   25.8000 C   0  0  0  0  0  1  0  0  0  0  0  0
  2  4  1  0
  3  8  1  0
  3  1  1  0
  4 51  1  0
  4  1  1  0
  5  2  1  0
  5  3  1  0
  6  5  1  0
  7  5  1  0
  8 10  1  0
  9  8  2  0
 11 10  1  0
 11 12  1  0
 13 21  1  0
 14 19  1  0
 15 16  1  0
 15 14  1  0
 17 16  1  0
 17 26  1  0
 17 18  1  0
 19 13  1  0
 19 18  1  0
 20 13  2  0
 21 12  1  0
 21 22  1  0
 23 24  2  0
 24 43  1  0
 25 24  1  0
 25 28  1  0
 26 23  1  0
 26 27  1  0
 27 25  2  0
 28 29  1  0
 29 30  2  0
 31 34  1  0
 31 30  1  0
 32 31  2  0
 33 32  1  0
 33 28  2  0
 34 35  1  0
 35 36  1  0
 36 37  2  0
 38 37  1  0
 38 42  1  0
 39 38  2  0
 40 35  2  0
 40 39  1  0
 41 40  1  0
 43 44  1  0
 44 47  1  0
 44 46  1  0
 45 43  2  0
 48 50  1  0
 48 23  1  0
 49 48  1  0
 52 54  1  0
 52 51  1  0
 53 64  2  0
 54 59  1  0
 55 63  1  0
 55 65  1  0
 56 62  1  0
 56 58  1  0
 57 63  1  0
 58 59  2  0
 58 57  1  0
 60 54  2  0
 61 60  1  0
 61 56  2  0
 62 55  1  0
 63 53  1  0
 65 67  2  0
 66 65  1  0
 68 66  1  0
 69 78  2  0
 69 74  1  0
 70 66  1  0
 70 74  1  0
 71 70  1  0
 72 73  1  0
 72 71  1  0
 73 69  1  0
 74 75  2  0
 75 76  1  0
 77 76  2  0
 78 77  1  0
 79 53  1  0
 79 80  1  0
 79 89  1  0
 80 83  1  0
 81 85  1  0
 81 80  1  0
 82 81  2  0
 85 84  1  0
 87 85  1  0
 87 88  1  0
 87 86  1  0
 89 92  1  1
 89 90  1  0
 91 89  1  0
M  ISO  4  13 100  21 100  51 101  52 101
M  END
>  <TORSDO>  (12) 
F 21

>  <SCORE>  (12) 
-13.435

>  <name>  (12) 
11

>  <ligand_id>  (12) 
11

>  <original_smiles>  (12) 
[H]c1c([H])c([H])c2c(c1[H])C([H])([H])C([H])([H])C([H])([H])C2([H])N([H])C(=O)C1([H])N(C(=O)C([H])(N([H])C(=O)C([H])(N([H])C([H])([H])[H])C([H])([H])[H])C(C([H])([H])[H])(C([H])([H])[H])C([H])([H])[H])C([H])([H])c2c([H])c(OC([H])([H])C3([H])C([H])([H])C([H])(C(=O)C([H])([H])C([H])([H])C([H])([H])N([H])C(=O)N4C([H])([H])C([H])([H])C([H])([H])C([H])(n5nc(-c6c([H])c([H])c(Oc7c([H])c([H])c(F)c([H])c7F)c([H])c6[H])c(C(=O)N([H])[H])c5N([H])[H])C4([H])[H])[N+]([H])([H])C3([H])[H])c([H])c([H])c2C1([H])[H]

>  <smiles>  (12) 
[H]c1c([H])c([H])c2c(c1[H])C([H])([H])C([H])([H])C([H])([H])C2([H])N([H])C(=O)C1([H])N(C(=O)C([H])(N([H])C(=O)C([H])(N([H])C([H])([H])[H])C([H])([H])[H])C(C([H])([H])[H])(C([H])([H])[H])C([H])([H])[H])C([H])([H])c2c([H])c(OC([H])([H])C3([H])C([H])([H])C([H])(C(=O)C([H])([H])C([H])([H])C([H])([H])N([H])C(=O)N4C([H])([H])C([H])([H])C([H])([H])C([H])(n5nc(-c6c([H])c([H])c(Oc7c([H])c([H])c(F)c([H])c7F)c([H])c6[H])c(C(=O)N([H])[H])c5N([H])[H])C4([H])[H])[N+]([H])([H])C3([H])[H])c([H])c([H])c2C1([H])[H]

$$$$
12:0:0
     RDKit          3D

 88 95  0  0  1  0  0  0  0  0999 V2000
  -29.2520  -24.0060   18.7950 C   0  0  0  0  0  1  0  0  0  0  0  0
  -28.3810  -23.7400   20.0310 C   0  0  0  0  0  3  0  0  0  0  0  0
  -29.2190  -25.1790   22.0310 C   0  0  0  0  0  1  0  0  0  0  0  0
  -28.2140  -25.1100   20.8740 C   0  0  0  0  0  3  0  0  0  0  0  0
  -28.3250  -26.4330   20.1940 O   0  0  0  0  0  0  0  0  0  0  0  0
  -24.6420  -31.8670   23.2110 C   0  0  0  0  0  0  0  0  0  0  0  0
  -27.2180  -27.2890   20.1840 C   0  0  0  0  0  0  0  0  0  0  0  0
  -23.4250  -30.4630   21.5870 C   0  0  0  0  0  3  0  0  0  0  0  0
  -24.8620  -28.9020   20.1600 C   0  0  0  0  0  0  0  0  0  0  0  0
  -25.9610  -30.7880   21.3720 C   0  0  0  0  0  2  0  0  0  0  0  0
  -26.0370  -29.4030   20.7350 C   0  0  0  0  0  0  0  0  0  0  0  0
  -27.2240  -28.6120   20.7240 C   0  0  0  0  0  3  0  0  0  0  0  0
  -26.0240  -26.8340   19.5900 C   0  0  0  0  0  3  0  0  0  0  0  0
  -24.8580  -27.6240   19.5750 C   0  0  0  0  0  3  0  0  0  0  0  0
  -23.6270  -29.7800   20.2090 C   0  0  0  0  0  2  0  0  0  0  0  0
  -24.6970  -31.0570   22.1150 N   0  0  0  0  0  0  0  0  0  0  0  0
  -23.5630  -32.1460   23.7550 O   0  0  0  0  0  0  0  0  0  0  0  0
  -22.7690  -29.4520   22.5570 C   0  0  0  0  0  0  0  0  0  0  0  0
  -21.4410  -29.2760   22.4410 N   0  0  0  0  0  0  0  0  0  0  0  0
  -23.4540  -28.8260   23.3690 O   0  0  0  0  0  0  0  0  0  0  0  0
  -20.9470  -29.8340   21.7590 H   0  0  0  0  0  0  0  0  0  0  0  0
  -18.0700  -28.0750   22.9660 C   0  0  0  0  0  0  0  0  0  0  0  0
  -20.6280  -28.3400   23.2200 C   0  0  0  0  0  3  0  0  0  0  0  0
  -20.7320  -26.9070   22.6520 C   0  0  0  0  0  2  0  0  0  0  0  0
  -19.6240  -26.5750   21.6460 C   0  0  0  0  0  2  0  0  0  0  0  0
  -18.2440  -26.7220   22.2950 C   0  0  0  0  0  2  0  0  0  0  0  0
  -19.1890  -28.8410   23.3860 C   0  0  0  0  0  0  0  0  0  0  0  0
  -18.9730  -30.1060   23.9740 C   0  0  0  0  0  3  0  0  0  0  0  0
  -17.6690  -30.6070   24.1460 C   0  0  0  0  0  3  0  0  0  0  0  0
  -16.5640  -29.8390   23.7400 C   0  0  0  0  0  3  0  0  0  0  0  0
  -16.7640  -28.5760   23.1580 C   0  0  0  0  0  3  0  0  0  0  0  0
  -25.9300  -32.5010   23.8240 C   0  0  0  0  0  3  0  0  0  0  0  0
  -25.6170  -33.8950   24.1730 N   0  0  0  0  0  0  0  0  0  0  0  0
  -25.9320  -34.9560   23.4190 C   0  0  0  0  0  0  0  0  0  0  0  0
  -26.5880  -34.8640   22.3770 O   0  0  0  0  0  0  0  0  0  0  0  0
  -25.0360  -34.0390   24.9850 H   0  0  0  0  0  0  0  0  0  0  0  0
  -24.1870  -36.7400   23.1120 C   0  0  0  0  0  1  0  0  0  0  0  0
  -25.4470  -36.3390   23.8960 C   0  0  0  0  0  3  0  0  0  0  0  0
  -27.5950  -37.2270   24.6860 C   0  0  0  0  0  1  0  0  0  0  0  0
  -26.4700  -37.4000   23.7710 N   0  0  0  0  0  0  0  0  0  0  0  0
  -26.0620  -38.3160   23.9380 H   0  0  0  0  0  0  0  0  0  0  0  0
  -26.4620  -31.7180   25.0880 C   0  0  1  0  0  0  0  0  0  0  0  0
  -25.3820  -31.4720   26.1670 C   0  0  0  0  0  1  0  0  0  0  0  0
  -27.0410  -30.3450   24.6760 C   0  0  0  0  0  1  0  0  0  0  0  0
  -27.6180  -32.5080   25.7430 C   0  0  0  0  0  1  0  0  0  0  0  0
  -28.8700  -22.3950   20.7930 C   0  0  0  0  0  3  0  0  0  0  0  0
  -28.7300  -20.9500   20.1030 C   0  0  0  0  0  3  0  0  0  0  0  0
  -29.4020  -19.6460   20.7720 C   0  0  0  0  0  2  0  0  0  0  0  0
  -28.8610  -18.1830   20.3740 C   0  0  0  0  0  2  0  0  0  0  0  0
  -29.8310  -16.9470   20.1160 C   0  0  0  0  0  0  0  0  0  0  0  0
  -30.7800  -17.2500   18.9550 C   0  0  0  0  0  1  0  0  0  0  0  0
  -29.7400  -15.7800   20.7280 N   0  0  0  0  0  0  0  0  0  0  0  0
  -30.5680  -14.6530   20.4010 C   0  0  0  0  0  0  0  0  0  0  0  0
  -30.3470  -12.3960   19.3580 C   0  0  0  0  0  2  0  0  0  0  0  0
  -29.4160  -12.5470   18.1370 C   0  0  0  0  0  2  0  0  0  0  0  0
  -27.9400  -12.3960   18.5550 C   0  0  0  0  0  2  0  0  0  0  0  0
  -27.5860  -13.2470   19.8030 C   0  0  0  0  0  3  0  0  0  0  0  0
  -28.6390  -13.0950   20.9170 C   0  0  0  0  0  2  0  0  0  0  0  0
  -29.9490  -13.4280   20.3410 N   0  0  0  0  0  0  0  0  0  0  0  0
  -31.7400  -14.7370   20.0250 O   0  0  0  0  0  0  0  0  0  0  0  0
  -25.2000  -13.8510   20.5260 C   0  0  0  0  0  0  0  0  0  0  0  0
  -24.1320  -13.0810   20.9000 C   0  0  0  0  0  0  0  0  0  0  0  0
  -24.5910  -11.7290   20.8780 C   0  0  0  0  0  0  0  0  0  0  0  0
  -26.2400  -12.9660   20.2930 N   0  0  0  0  0  0  0  0  0  0  0  0
  -25.8800  -11.6840   20.5630 N   0  0  0  0  0  0  0  0  0  0  0  0
  -23.8610  -10.4710   21.0790 C   0  0  0  0  0  0  0  0  0  0  0  0
  -24.3090   -9.4910   21.9890 C   0  0  0  0  0  3  0  0  0  0  0  0
  -23.5770   -8.2980   22.1750 C   0  0  0  0  0  3  0  0  0  0  0  0
  -22.3850   -8.0770   21.4480 C   0  0  0  0  0  0  0  0  0  0  0  0
  -21.9550   -9.0450   20.5230 C   0  0  0  0  0  3  0  0  0  0  0  0
  -22.6860  -10.2300   20.3370 C   0  0  0  0  0  3  0  0  0  0  0  0
  -21.6220   -6.9370   21.5450 O   0  0  0  0  0  0  0  0  0  0  0  0
  -21.6210   -6.1680   22.6810 C   0  0  0  0  0  0  0  0  0  0  0  0
  -21.2830   -6.7030   23.9420 C   0  0  0  0  0  3  0  0  0  0  0  0
  -21.2250   -5.8610   25.0710 C   0  0  0  0  0  3  0  0  0  0  0  0
  -21.4960   -4.4860   24.9410 C   0  0  0  0  0  0  0  0  0  0  0  0
  -21.8250   -3.9500   23.6830 C   0  0  0  0  0  3  0  0  0  0  0  0
  -21.8830   -4.7880   22.5570 C   0  0  0  0  0  0  0  0  0  0  0  0
  -22.1810   -4.2630   21.3440 F   0  0  0  0  0  0  0  0  0  0  0  0
  -21.4350   -3.6760   26.0240 F   0  0  0  0  0  0  0  0  0  0  0  0
  -22.7380  -13.5640   21.1750 C   0  0  0  0  0  0  0  0  0  0  0  0
  -22.0110  -12.8750   22.0500 N   0  0  0  0  0  0  0  0  0  0  0  0
  -22.3000  -14.5860   20.6470 O   0  0  0  0  0  0  0  0  0  0  0  0
  -22.3770  -12.0460   22.4940 H   0  0  0  0  0  0  0  0  0  0  0  0
  -21.0760  -13.1780   22.2750 H   0  0  0  0  0  0  0  0  0  0  0  0
  -25.3740  -15.2180   20.3450 N   0  0  0  0  0  0  0  0  0  0  0  0
  -24.6280  -15.8940   20.4590 H   0  0  0  0  0  0  0  0  0  0  0  0
  -26.2520  -15.6400   20.0690 H   0  0  0  0  0  0  0  0  0  0  0  0
  2  1  1  0
  2 46  1  0
  2  4  1  0
  4  3  1  0
  5  4  1  0
  6 17  2  0
  7  5  1  0
  7 12  1  0
  8 16  1  0
  8 18  1  0
  9 15  1  0
  9 11  1  0
 10 16  1  0
 11 10  1  0
 12 11  2  0
 13  7  2  0
 14 13  1  0
 14  9  2  0
 15  8  1  0
 16  6  1  0
 18 20  2  0
 19 18  1  0
 21 19  1  0
 22 31  2  0
 22 27  1  0
 23 19  1  0
 23 27  1  0
 24 23  1  0
 25 26  1  0
 25 24  1  0
 26 22  1  0
 27 28  2  0
 28 29  1  0
 30 29  2  0
 31 30  1  0
 32  6  1  0
 32 33  1  0
 32 42  1  0
 33 36  1  0
 34 38  1  0
 34 33  1  0
 35 34  2  0
 38 37  1  0
 40 38  1  0
 40 41  1  0
 40 39  1  0
 42 45  1  1
 42 43  1  0
 44 42  1  0
 47 48  1  0
 47 46  2  0
 49 48  1  0
 50 49  1  0
 50 52  2  0
 51 50  1  0
 53 52  1  0
 54 59  1  0
 55 56  1  0
 55 54  1  0
 57 56  1  0
 57 64  1  0
 57 58  1  0
 59 53  1  0
 59 58  1  0
 60 53  2  0
 61 62  2  0
 62 81  1  0
 63 62  1  0
 63 66  1  0
 64 61  1  0
 64 65  1  0
 65 63  2  0
 66 67  1  0
 67 68  2  0
 69 72  1  0
 69 68  1  0
 70 69  2  0
 71 70  1  0
 71 66  2  0
 72 73  1  0
 73 74  1  0
 74 75  2  0
 76 75  1  0
 76 80  1  0
 77 76  2  0
 78 73  2  0
 78 77  1  0
 79 78  1  0
 81 82  1  0
 82 85  1  0
 82 84  1  0
 83 81  2  0
 86 87  1  0
 86 61  1  0
 88 86  1  0
M  ISO  4   4 101   5 101  52 100  53 100
M  END
>  <TORSDO>  (13) 
F 22

>  <SCORE>  (13) 
-13.036

>  <name>  (13) 
12

>  <ligand_id>  (13) 
12

>  <original_smiles>  (13) 
[H]c1c([H])c([H])c2c(c1[H])C([H])([H])C([H])([H])C([H])([H])C2([H])N([H])C(=O)C1([H])N(C(=O)C([H])(N([H])C(=O)C([H])(N([H])C([H])([H])[H])C([H])([H])[H])C(C([H])([H])[H])(C([H])([H])[H])C([H])([H])[H])C([H])([H])c2c([H])c(OC([H])(C([H])([H])[H])C([H])(C([H])([H])[H])C([H])([H])C([H])([H])C([H])([H])C([H])([H])C(=NC(=O)N3C([H])([H])C([H])([H])C([H])([H])C([H])(n4nc(-c5c([H])c([H])c(Oc6c([H])c([H])c(F)c([H])c6F)c([H])c5[H])c(C(=O)N([H])[H])c4N([H])[H])C3([H])[H])C([H])([H])[H])c([H])c([H])c2C1([H])[H]

>  <smiles>  (13) 
[H]c1c([H])c([H])c2c(c1[H])C([H])([H])C([H])([H])C([H])([H])C2([H])N([H])C(=O)C1([H])N(C(=O)C([H])(N([H])C(=O)C([H])(N([H])C([H])([H])[H])C([H])([H])[H])C(C([H])([H])[H])(C([H])([H])[H])C([H])([H])[H])C([H])([H])c2c([H])c(OC([H])(C([H])([H])[H])C([H])(C([H])([H])[H])C([H])([H])C([H])([H])C([H])([H])C([H])([H])C(=NC(=O)N3C([H])([H])C([H])([H])C([H])([H])C([H])(n4nc(-c5c([H])c([H])c(Oc6c([H])c([H])c(F)c([H])c6F)c([H])c5[H])c(C(=O)N([H])[H])c4N([H])[H])C3([H])[H])C([H])([H])[H])c([H])c([H])c2C1([H])[H]

$$$$
13:0:0
     RDKit          3D

 91 98  0  0  1  0  0  0  0  0999 V2000
  -29.4670  -21.1260   20.7070 C   0  0  0  0  0  3  0  0  0  0  0  0
  -30.9800  -21.3520   20.5730 C   0  0  0  0  0  0  0  0  0  0  0  0
  -31.5520  -21.0560   19.4130 N   0  0  0  0  0  0  0  0  0  0  0  0
  -31.6370  -21.7890   21.5150 O   0  0  0  0  0  0  0  0  0  0  0  0
  -30.9970  -20.6890   18.6500 H   0  0  0  0  0  0  0  0  0  0  0  0
  -32.5510  -21.1580   19.2950 H   0  0  0  0  0  0  0  0  0  0  0  0
  -29.0720  -19.6720   20.1610 C   0  0  0  0  0  2  0  0  0  0  0  0
  -29.6250  -18.3550   20.8810 C   0  0  0  0  0  2  0  0  0  0  0  0
  -29.7510  -17.0520   19.9840 C   0  0  0  0  0  2  0  0  0  0  0  0
  -30.5890  -14.6360   20.3380 C   0  0  0  0  0  0  0  0  0  0  0  0
  -30.3710  -12.3990   19.2930 C   0  0  0  0  0  2  0  0  0  0  0  0
  -29.4260  -12.5540   18.0800 C   0  0  0  0  0  2  0  0  0  0  0  0
  -27.9530  -12.4130   18.5090 C   0  0  0  0  0  2  0  0  0  0  0  0
  -27.6090  -13.2630   19.7620 C   0  0  0  0  0  3  0  0  0  0  0  0
  -28.6690  -13.0850   20.8750 C   0  0  0  0  0  2  0  0  0  0  0  0
  -29.9790  -13.4120   20.2960 N   0  0  0  0  0  0  0  0  0  0  0  0
  -31.7340  -14.8000   19.9040 O   0  0  0  0  0  0  0  0  0  0  0  0
  -29.7800  -15.6980   20.6400 N   0  0  0  0  0  0  0  0  0  0  0  0
  -28.9060  -15.4210   21.0620 H   0  0  0  0  0  0  0  0  0  0  0  0
  -25.2210  -13.8810   20.4840 C   0  0  0  0  0  0  0  0  0  0  0  0
  -24.1510  -13.1150   20.8610 C   0  0  0  0  0  0  0  0  0  0  0  0
  -24.6040  -11.7610   20.8360 C   0  0  0  0  0  0  0  0  0  0  0  0
  -26.2590  -12.9920   20.2500 N   0  0  0  0  0  0  0  0  0  0  0  0
  -25.8930  -11.7130   20.5210 N   0  0  0  0  0  0  0  0  0  0  0  0
  -23.8720  -10.5050   21.0360 C   0  0  0  0  0  0  0  0  0  0  0  0
  -24.3150   -9.5300   21.9580 C   0  0  0  0  0  3  0  0  0  0  0  0
  -23.5820   -8.3380   22.1460 C   0  0  0  0  0  3  0  0  0  0  0  0
  -22.3930   -8.1120   21.4120 C   0  0  0  0  0  0  0  0  0  0  0  0
  -21.9700   -9.0760   20.4790 C   0  0  0  0  0  3  0  0  0  0  0  0
  -22.7030  -10.2590   20.2890 C   0  0  0  0  0  3  0  0  0  0  0  0
  -21.6320   -6.9730   21.5090 O   0  0  0  0  0  0  0  0  0  0  0  0
  -21.6110   -6.2170   22.6530 C   0  0  0  0  0  0  0  0  0  0  0  0
  -21.2360   -6.7640   23.9000 C   0  0  0  0  0  3  0  0  0  0  0  0
  -21.1600   -5.9370   25.0380 C   0  0  0  0  0  3  0  0  0  0  0  0
  -21.4480   -4.5620   24.9310 C   0  0  0  0  0  0  0  0  0  0  0  0
  -21.8140   -4.0140   23.6890 C   0  0  0  0  0  3  0  0  0  0  0  0
  -21.8920   -4.8400   22.5530 C   0  0  0  0  0  0  0  0  0  0  0  0
  -22.2250   -4.3030   21.3550 F   0  0  0  0  0  0  0  0  0  0  0  0
  -21.3670   -3.7650   26.0210 F   0  0  0  0  0  0  0  0  0  0  0  0
  -22.7570  -13.6030   21.1370 C   0  0  0  0  0  0  0  0  0  0  0  0
  -22.0290  -12.9190   22.0120 N   0  0  0  0  0  0  0  0  0  0  0  0
  -22.3240  -14.6270   20.6100 O   0  0  0  0  0  0  0  0  0  0  0  0
  -22.3920  -12.0920   22.4620 H   0  0  0  0  0  0  0  0  0  0  0  0
  -21.0950  -13.2300   22.2370 H   0  0  0  0  0  0  0  0  0  0  0  0
  -25.3930  -15.2500   20.3020 N   0  0  0  0  0  0  0  0  0  0  0  0
  -24.6290  -15.9070   20.4130 H   0  0  0  0  0  0  0  0  0  0  0  0
  -26.2410  -15.6840   19.9610 H   0  0  0  0  0  0  0  0  0  0  0  0
  -28.6530  -22.3780   20.1270 C   0  0  0  0  0  2  0  0  0  0  0  0
  -29.0320  -23.8820   20.5250 C   0  0  0  0  0  3  0  0  0  0  0  0
  -28.0560  -25.0110   19.9830 C   0  0  0  0  0  3  0  0  0  0  0  0
  -28.2900  -26.4500   20.2520 O   0  0  0  0  0  0  0  0  0  0  0  0
  -24.6040  -31.8890   23.2420 C   0  0  0  0  0  0  0  0  0  0  0  0
  -27.1840  -27.3170   20.1760 C   0  0  0  0  0  0  0  0  0  0  0  0
  -23.3930  -30.4940   21.6080 C   0  0  0  0  0  3  0  0  0  0  0  0
  -24.8310  -28.9430   20.1740 C   0  0  0  0  0  0  0  0  0  0  0  0
  -25.9340  -30.8010   21.4170 C   0  0  0  0  0  2  0  0  0  0  0  0
  -26.0030  -29.4220   20.7710 C   0  0  0  0  0  0  0  0  0  0  0  0
  -27.1820  -28.6190   20.7650 C   0  0  0  0  0  3  0  0  0  0  0  0
  -25.9900  -26.9060   19.5330 C   0  0  0  0  0  3  0  0  0  0  0  0
  -24.8270  -27.6920   19.5450 C   0  0  0  0  0  3  0  0  0  0  0  0
  -23.5980  -29.8190   20.2270 C   0  0  0  0  0  2  0  0  0  0  0  0
  -24.6640  -31.0780   22.1460 N   0  0  0  0  0  0  0  0  0  0  0  0
  -23.5220  -32.1720   23.7780 O   0  0  0  0  0  0  0  0  0  0  0  0
  -22.7280  -29.4800   22.5680 C   0  0  0  0  0  0  0  0  0  0  0  0
  -21.4000  -29.3080   22.4430 N   0  0  0  0  0  0  0  0  0  0  0  0
  -23.4040  -28.8510   23.3850 O   0  0  0  0  0  0  0  0  0  0  0  0
  -20.9150  -29.8660   21.7550 H   0  0  0  0  0  0  0  0  0  0  0  0
  -18.0170  -28.1290   22.9510 C   0  0  0  0  0  0  0  0  0  0  0  0
  -20.5770  -28.3770   23.2180 C   0  0  0  0  0  3  0  0  0  0  0  0
  -20.6700  -26.9430   22.6450 C   0  0  0  0  0  2  0  0  0  0  0  0
  -19.5660  -26.6230   21.6340 C   0  0  0  0  0  2  0  0  0  0  0  0
  -18.1860  -26.7780   22.2790 C   0  0  0  0  0  2  0  0  0  0  0  0
  -19.1400  -28.8870   23.3780 C   0  0  0  0  0  0  0  0  0  0  0  0
  -18.9280  -30.1520   23.9660 C   0  0  0  0  0  3  0  0  0  0  0  0
  -17.6260  -30.6600   24.1330 C   0  0  0  0  0  3  0  0  0  0  0  0
  -16.5170  -29.9000   23.7210 C   0  0  0  0  0  3  0  0  0  0  0  0
  -16.7130  -28.6360   23.1370 C   0  0  0  0  0  3  0  0  0  0  0  0
  -25.8900  -32.5170   23.8600 C   0  0  0  0  0  3  0  0  0  0  0  0
  -25.5860  -33.9150   24.1970 N   0  0  0  0  0  0  0  0  0  0  0  0
  -25.9110  -34.9690   23.4370 C   0  0  0  0  0  0  0  0  0  0  0  0
  -26.5710  -34.8670   22.3990 O   0  0  0  0  0  0  0  0  0  0  0  0
  -25.0010  -34.0690   25.0060 H   0  0  0  0  0  0  0  0  0  0  0  0
  -24.1780  -36.7620   23.1070 C   0  0  0  0  0  1  0  0  0  0  0  0
  -25.4310  -36.3590   23.9020 C   0  0  0  0  0  3  0  0  0  0  0  0
  -27.5790  -37.2390   24.7010 C   0  0  0  0  0  1  0  0  0  0  0  0
  -26.4630  -37.4110   23.7740 N   0  0  0  0  0  0  0  0  0  0  0  0
  -26.0620  -38.3320   23.9290 H   0  0  0  0  0  0  0  0  0  0  0  0
  -26.4090  -31.7410   25.1320 C   0  0  1  0  0  0  0  0  0  0  0  0
  -25.3210  -31.5050   26.2050 C   0  0  0  0  0  1  0  0  0  0  0  0
  -26.9840  -30.3630   24.7330 C   0  0  0  0  0  1  0  0  0  0  0  0
  -27.5670  -32.5290   25.7890 C   0  0  0  0  0  1  0  0  0  0  0  0
  1 48  1  0
  2  1  1  0
  2  4  2  0
  3  2  1  0
  5  3  1  0
  6  3  1  0
  7  1  1  0
  7  8  1  0
  9 18  1  0
  9  8  1  0
 10 18  1  0
 11 16  1  0
 12 13  1  0
 12 11  1  0
 14 13  1  0
 14 23  1  0
 14 15  1  0
 16 10  1  0
 16 15  1  0
 17 10  2  0
 18 19  1  0
 20 21  2  0
 21 40  1  0
 22 21  1  0
 22 25  1  0
 23 20  1  0
 23 24  1  0
 24 22  2  0
 25 26  1  0
 26 27  2  0
 28 31  1  0
 28 27  1  0
 29 28  2  0
 30 29  1  0
 30 25  2  0
 31 32  1  0
 32 33  1  0
 33 34  2  0
 35 34  1  0
 35 39  1  0
 36 35  2  0
 37 32  2  0
 37 36  1  0
 38 37  1  0
 40 41  1  0
 41 44  1  0
 41 43  1  0
 42 40  2  0
 45 46  1  0
 45 20  1  0
 47 45  1  0
 48 49  1  0
 50 51  1  0
 50 49  2  0
 52 63  2  0
 53 51  1  0
 53 58  1  0
 54 62  1  0
 54 64  1  0
 55 61  1  0
 55 57  1  0
 56 62  1  0
 57 56  1  0
 58 57  2  0
 59 60  1  0
 59 53  2  0
 60 55  2  0
 61 54  1  0
 62 52  1  0
 64 66  2  0
 65 64  1  0
 67 65  1  0
 68 77  2  0
 68 73  1  0
 69 65  1  0
 69 73  1  0
 70 69  1  0
 71 72  1  0
 71 70  1  0
 72 68  1  0
 73 74  2  0
 74 75  1  0
 76 75  2  0
 77 76  1  0
 78 52  1  0
 78 79  1  0
 78 88  1  0
 79 82  1  0
 80 84  1  0
 80 79  1  0
 81 80  2  0
 84 83  1  0
 86 84  1  0
 86 87  1  0
 86 85  1  0
 88 91  1  1
 88 89  1  0
 90 88  1  0
M  ISO  4  10 100  18 100  50 101  51 101
M  END
>  <TORSDO>  (14) 
F 23

>  <SCORE>  (14) 
-12.745

>  <name>  (14) 
13

>  <ligand_id>  (14) 
13

>  <original_smiles>  (14) 
[H]c1c([H])c([H])c2c(c1[H])C([H])([H])C([H])([H])C([H])([H])C2([H])N([H])C(=O)C1([H])N(C(=O)C([H])(N([H])C(=O)C([H])(N([H])C([H])([H])[H])C([H])([H])[H])C(C([H])([H])[H])(C([H])([H])[H])C([H])([H])[H])C([H])([H])c2c([H])c(OC([H])([H])C([H])([H])C([H])([H])C([H])(C(=O)N([H])[H])C([H])([H])C([H])([H])C([H])([H])N([H])C(=O)N3C([H])([H])C([H])([H])C([H])([H])C([H])(n4nc(-c5c([H])c([H])c(Oc6c([H])c([H])c(F)c([H])c6F)c([H])c5[H])c(C(=O)N([H])[H])c4N([H])[H])C3([H])[H])c([H])c([H])c2C1([H])[H]

>  <smiles>  (14) 
[H]c1c([H])c([H])c2c(c1[H])C([H])([H])C([H])([H])C([H])([H])C2([H])N([H])C(=O)C1([H])N(C(=O)C([H])(N([H])C(=O)C([H])(N([H])C([H])([H])[H])C([H])([H])[H])C(C([H])([H])[H])(C([H])([H])[H])C([H])([H])[H])C([H])([H])c2c([H])c(OC([H])([H])C([H])([H])C([H])([H])C([H])(C(=O)N([H])[H])C([H])([H])C([H])([H])C([H])([H])N([H])C(=O)N3C([H])([H])C([H])([H])C([H])([H])C([H])(n4nc(-c5c([H])c([H])c(Oc6c([H])c([H])c(F)c([H])c6F)c([H])c5[H])c(C(=O)N([H])[H])c4N([H])[H])C3([H])[H])c([H])c([H])c2C1([H])[H]

$$$$
14:0:0
     RDKit          3D

 94102  0  0  1  0  0  0  0  0999 V2000
  -29.0870  -19.0250   19.0450 C   0  0  0  0  0  2  0  0  0  0  0  0
  -29.6810  -19.8170   21.2400 C   0  0  0  0  0  2  0  0  0  0  0  0
  -29.3350  -18.4570   20.4630 C   0  0  0  0  0  3  0  0  0  0  0  0
  -28.5830  -20.4890   19.2140 C   0  0  0  0  0  3  0  0  0  0  0  0
  -29.4760  -21.1050   20.3140 C   0  0  0  0  0  3  0  0  0  0  0  0
  -30.6860  -14.7420   20.2470 C   0  0  0  0  0  0  0  0  0  0  0  0
  -30.4050  -12.5170   19.1530 C   0  0  0  0  0  2  0  0  0  0  0  0
  -29.4300  -12.6330   17.9610 C   0  0  0  0  0  2  0  0  0  0  0  0
  -27.9740  -12.4630   18.4350 C   0  0  0  0  0  2  0  0  0  0  0  0
  -27.6440  -13.3130   19.6910 C   0  0  0  0  0  3  0  0  0  0  0  0
  -28.7380  -13.1810   20.7730 C   0  0  0  0  0  2  0  0  0  0  0  0
  -30.0160  -13.5440   20.1460 N   0  0  0  0  0  0  0  0  0  0  0  0
  -31.8780  -14.7780   19.9280 O   0  0  0  0  0  0  0  0  0  0  0  0
  -30.3640  -17.2300   20.4770 C   0  0  0  0  0  0  0  0  0  0  0  0
  -29.9480  -15.9010   20.4680 N   0  0  0  0  0  0  0  0  0  0  0  0
  -31.5580  -17.5400   20.4780 O   0  0  0  0  0  0  0  0  0  0  0  0
  -28.9560  -15.7620   20.5640 H   0  0  0  0  0  0  0  0  0  0  0  0
  -25.2700  -13.8920   20.4770 C   0  0  0  0  0  0  0  0  0  0  0  0
  -24.2140  -13.1110   20.8600 C   0  0  0  0  0  0  0  0  0  0  0  0
  -24.6780  -11.7610   20.8020 C   0  0  0  0  0  0  0  0  0  0  0  0
  -26.3110  -13.0180   20.2100 N   0  0  0  0  0  0  0  0  0  0  0  0
  -25.9640  -11.7300   20.4690 N   0  0  0  0  0  0  0  0  0  0  0  0
  -23.9570  -10.4960   20.9900 C   0  0  0  0  0  0  0  0  0  0  0  0
  -24.3840   -9.5330   21.9310 C   0  0  0  0  0  3  0  0  0  0  0  0
  -23.6630   -8.3320   22.1070 C   0  0  0  0  0  3  0  0  0  0  0  0
  -22.4990   -8.0840   21.3420 C   0  0  0  0  0  0  0  0  0  0  0  0
  -22.0890   -9.0350   20.3890 C   0  0  0  0  0  3  0  0  0  0  0  0
  -22.8110  -10.2280   20.2110 C   0  0  0  0  0  3  0  0  0  0  0  0
  -21.7490   -6.9360   21.4260 O   0  0  0  0  0  0  0  0  0  0  0  0
  -21.6610   -6.2180   22.5930 C   0  0  0  0  0  0  0  0  0  0  0  0
  -21.1350   -6.7820   23.7760 C   0  0  0  0  0  3  0  0  0  0  0  0
  -20.9990   -5.9890   24.9320 C   0  0  0  0  0  3  0  0  0  0  0  0
  -21.3780   -4.6330   24.9080 C   0  0  0  0  0  0  0  0  0  0  0  0
  -21.8970   -4.0700   23.7290 C   0  0  0  0  0  3  0  0  0  0  0  0
  -22.0370   -4.8600   22.5750 C   0  0  0  0  0  0  0  0  0  0  0  0
  -22.5170   -4.3060   21.4350 F   0  0  0  0  0  0  0  0  0  0  0  0
  -21.2400   -3.8700   26.0170 F   0  0  0  0  0  0  0  0  0  0  0  0
  -22.8200  -13.5820   21.1630 C   0  0  0  0  0  0  0  0  0  0  0  0
  -22.1080  -12.8740   22.0330 N   0  0  0  0  0  0  0  0  0  0  0  0
  -22.3710  -14.6130   20.6630 O   0  0  0  0  0  0  0  0  0  0  0  0
  -22.4820  -12.0420   22.4640 H   0  0  0  0  0  0  0  0  0  0  0  0
  -21.1750  -13.1730   22.2750 H   0  0  0  0  0  0  0  0  0  0  0  0
  -25.4280  -15.2650   20.3100 N   0  0  0  0  0  0  0  0  0  0  0  0
  -24.6540  -15.9120   20.4220 H   0  0  0  0  0  0  0  0  0  0  0  0
  -26.2490  -15.7040   19.9180 H   0  0  0  0  0  0  0  0  0  0  0  0
  -29.7770  -21.5510   17.1580 C   0  0  0  0  0  1  0  0  0  0  0  0
  -27.3950  -20.7230   16.9630 C   0  0  0  0  0  1  0  0  0  0  0  0
  -28.4530  -21.3110   17.9050 C   0  0  0  0  0  3  0  0  0  0  0  0
  -28.8920  -22.3840   20.9410 N   0  0  0  0  0  4  0  0  0  0  0  0
  -29.1690  -22.3900   21.9100 H   0  0  0  0  0  0  0  0  0  0  0  0
  -27.8890  -22.2740   20.9440 H   0  0  0  0  0  0  0  0  0  0  0  0
  -29.2340  -23.7820   20.3890 C   0  0  0  0  0  3  0  0  0  0  0  0
  -28.2100  -24.9830   20.7310 C   0  0  0  0  0  3  0  0  0  0  0  0
  -28.4830  -26.4130   20.3610 O   0  0  0  0  0  0  0  0  0  0  0  0
  -24.6510  -31.8630   23.2300 C   0  0  0  0  0  0  0  0  0  0  0  0
  -27.3820  -27.2930   20.2780 C   0  0  0  0  0  0  0  0  0  0  0  0
  -23.5090  -30.4510   21.5570 C   0  0  0  0  0  3  0  0  0  0  0  0
  -25.0160  -28.9130   20.1740 C   0  0  0  0  0  0  0  0  0  0  0  0
  -26.0520  -30.7800   21.4590 C   0  0  0  0  0  2  0  0  0  0  0  0
  -26.1620  -29.4010   20.8170 C   0  0  0  0  0  0  0  0  0  0  0  0
  -27.3500  -28.6020   20.8610 C   0  0  0  0  0  3  0  0  0  0  0  0
  -26.2260  -26.8840   19.5770 C   0  0  0  0  0  3  0  0  0  0  0  0
  -25.0550  -27.6630   19.5390 C   0  0  0  0  0  3  0  0  0  0  0  0
  -23.7710  -29.7780   20.1840 C   0  0  0  0  0  2  0  0  0  0  0  0
  -24.7540  -31.0510   22.1370 N   0  0  0  0  0  0  0  0  0  0  0  0
  -23.5510  -32.1330   23.7310 O   0  0  0  0  0  0  0  0  0  0  0  0
  -22.8270  -29.4310   22.4990 C   0  0  0  0  0  0  0  0  0  0  0  0
  -21.5020  -29.2600   22.3490 N   0  0  0  0  0  0  0  0  0  0  0  0
  -23.4880  -28.7980   23.3260 O   0  0  0  0  0  0  0  0  0  0  0  0
  -21.0260  -29.8200   21.6570 H   0  0  0  0  0  0  0  0  0  0  0  0
  -18.1050  -28.1130   22.8220 C   0  0  0  0  0  0  0  0  0  0  0  0
  -20.6680  -28.3230   23.1030 C   0  0  0  0  0  3  0  0  0  0  0  0
  -20.7440  -26.8990   22.5040 C   0  0  0  0  0  2  0  0  0  0  0  0
  -19.6410  -26.6170   21.4790 C   0  0  0  0  0  2  0  0  0  0  0  0
  -18.2610  -26.7730   22.1220 C   0  0  0  0  0  2  0  0  0  0  0  0
  -19.2360  -28.8470   23.2680 C   0  0  0  0  0  0  0  0  0  0  0  0
  -19.0370  -30.1020   23.8840 C   0  0  0  0  0  3  0  0  0  0  0  0
  -17.7400  -30.6220   24.0580 C   0  0  0  0  0  3  0  0  0  0  0  0
  -16.6240  -29.8830   23.6270 C   0  0  0  0  0  3  0  0  0  0  0  0
  -16.8060  -28.6310   23.0140 C   0  0  0  0  0  3  0  0  0  0  0  0
  -25.9100  -32.5070   23.8860 C   0  0  0  0  0  3  0  0  0  0  0  0
  -26.3900  -31.7520   25.1880 C   0  0  1  0  0  0  0  0  0  0  0  0
  -25.2640  -31.5160   26.2220 C   0  0  0  0  0  1  0  0  0  0  0  0
  -26.9940  -30.3730   24.8330 C   0  0  0  0  0  1  0  0  0  0  0  0
  -27.5090  -32.5610   25.8820 C   0  0  0  0  0  1  0  0  0  0  0  0
  -25.5820  -33.9070   24.1930 N   0  0  0  0  0  0  0  0  0  0  0  0
  -25.9240  -34.9540   23.4310 C   0  0  0  0  0  0  0  0  0  0  0  0
  -26.6150  -34.8450   22.4150 O   0  0  0  0  0  0  0  0  0  0  0  0
  -24.9660  -34.0660   24.9770 H   0  0  0  0  0  0  0  0  0  0  0  0
  -24.1910  -36.7300   23.0220 C   0  0  0  0  0  1  0  0  0  0  0  0
  -25.4170  -36.3430   23.8630 C   0  0  0  0  0  3  0  0  0  0  0  0
  -27.5220  -37.2580   24.7390 C   0  0  0  0  0  1  0  0  0  0  0  0
  -26.4440  -37.4040   23.7640 N   0  0  0  0  0  0  0  0  0  0  0  0
  -26.0270  -38.3200   23.8930 H   0  0  0  0  0  0  0  0  0  0  0  0
  1  4  1  0
  1  3  1  0
  3 14  1  0
  3  2  1  0
  4 48  1  0
  4  5  1  0
  5 49  1  0
  5  2  1  0
  6 15  1  0
  7 12  1  0
  8  9  1  0
  8  7  1  0
 10  9  1  0
 10 21  1  0
 10 11  1  0
 12  6  1  0
 12 11  1  0
 13  6  2  0
 14 16  2  0
 15 14  1  0
 15 17  1  0
 18 19  2  0
 19 38  1  0
 20 19  1  0
 20 23  1  0
 21 22  1  0
 21 18  1  0
 22 20  2  0
 23 24  1  0
 24 25  2  0
 26 29  1  0
 26 25  1  0
 27 26  2  0
 28 27  1  0
 28 23  2  0
 29 30  1  0
 30 31  1  0
 31 32  2  0
 33 32  1  0
 33 37  1  0
 34 33  2  0
 35 30  2  0
 35 34  1  0
 36 35  1  0
 38 39  1  0
 39 42  1  0
 39 41  1  0
 40 38  2  0
 43 44  1  0
 43 18  1  0
 45 43  1  0
 46 48  1  0
 47 48  1  0
 49 51  1  0
 49 50  1  0
 52 53  2  0
 52 49  1  0
 54 53  1  0
 55 66  2  0
 56 54  1  0
 56 61  1  0
 57 65  1  0
 57 67  1  0
 58 64  1  0
 58 60  1  0
 59 65  1  0
 60 61  2  0
 60 59  1  0
 62 56  2  0
 63 62  1  0
 63 58  2  0
 64 57  1  0
 65 55  1  0
 67 69  2  0
 68 67  1  0
 70 68  1  0
 71 80  2  0
 71 76  1  0
 72 68  1  0
 72 76  1  0
 73 72  1  0
 74 75  1  0
 74 73  1  0
 75 71  1  0
 76 77  2  0
 77 78  1  0
 79 78  2  0
 80 79  1  0
 81 55  1  0
 81 86  1  0
 81 82  1  0
 82 85  1  1
 82 83  1  0
 84 82  1  0
 86 89  1  0
 87 91  1  0
 87 86  1  0
 88 87  2  0
 91 90  1  0
 93 91  1  0
 93 94  1  0
 93 92  1  0
M  ISO  4   6 100  15 100  53 101  54 101
M  END
>  <TORSDO>  (15) 
F 20

>  <SCORE>  (15) 
-13.688

>  <name>  (15) 
14

>  <ligand_id>  (15) 
14

>  <original_smiles>  (15) 
[H]c1c([H])c([H])c2c(c1[H])C([H])([H])C([H])([H])C([H])([H])C2([H])N([H])C(=O)C1([H])N(C(=O)C([H])(N([H])C(=O)C([H])(N([H])C([H])([H])[H])C([H])([H])[H])C(C([H])([H])[H])(C([H])([H])[H])C([H])([H])[H])C([H])([H])c2c([H])c(OC([H])([H])C([H])([H])[N+]([H])([H])C3([H])C([H])([H])C([H])(C(=O)N([H])C(=O)N4C([H])([H])C([H])([H])C([H])([H])C([H])(n5nc(-c6c([H])c([H])c(Oc7c([H])c([H])c(F)c([H])c7F)c([H])c6[H])c(C(=O)N([H])[H])c5N([H])[H])C4([H])[H])C([H])([H])C3([H])C([H])(C([H])([H])[H])C([H])([H])[H])c([H])c([H])c2C1([H])[H]

>  <smiles>  (15) 
[H]c1c([H])c([H])c2c(c1[H])C([H])([H])C([H])([H])C([H])([H])C2([H])N([H])C(=O)C1([H])N(C(=O)C([H])(N([H])C(=O)C([H])(N([H])C([H])([H])[H])C([H])([H])[H])C(C([H])([H])[H])(C([H])([H])[H])C([H])([H])[H])C([H])([H])c2c([H])c(OC([H])([H])C([H])([H])[N+]([H])([H])C3([H])C([H])([H])C([H])(C(=O)N([H])C(=O)N4C([H])([H])C([H])([H])C([H])([H])C([H])(n5nc(-c6c([H])c([H])c(Oc7c([H])c([H])c(F)c([H])c7F)c([H])c6[H])c(C(=O)N([H])[H])c5N([H])[H])C4([H])[H])C([H])([H])C3([H])C([H])(C([H])([H])[H])C([H])([H])[H])c([H])c([H])c2C1([H])[H]

$$$$
15:0:0
     RDKit          3D

 91 98  0  0  1  0  0  0  0  0999 V2000
  -29.7040  -20.5330   20.0560 C   0  0  0  0  0  3  0  0  0  0  0  0
  -31.2260  -20.7140   20.0180 C   0  0  0  0  0  0  0  0  0  0  0  0
  -31.8870  -21.2520   21.2710 C   0  0  0  0  0  1  0  0  0  0  0  0
  -31.9080  -20.4260   18.9930 N   0  0  0  0  0  0  0  0  0  0  0  0
  -32.8980  -20.5990   19.1340 H   0  0  0  0  0  0  0  0  0  0  0  0
  -28.9410  -21.8730   20.3770 C   0  0  0  0  0  2  0  0  0  0  0  0
  -29.3100  -23.0770   19.4510 C   0  0  0  0  0  2  0  0  0  0  0  0
  -28.3430  -24.3000   19.3750 C   0  0  0  0  0  2  0  0  0  0  0  0
  -28.3780  -25.3150   20.5490 C   0  0  0  0  0  2  0  0  0  0  0  0
  -28.4090  -26.7020   20.1430 O   0  0  0  0  0  0  0  0  0  0  0  0
  -24.5920  -31.8800   23.2330 C   0  0  0  0  0  0  0  0  0  0  0  0
  -27.2300  -27.4210   20.1590 C   0  0  0  0  0  0  0  0  0  0  0  0
  -23.3820  -30.4800   21.5920 C   0  0  0  0  0  3  0  0  0  0  0  0
  -24.8340  -28.9350   20.1670 C   0  0  0  0  0  0  0  0  0  0  0  0
  -25.9070  -30.8360   21.3880 C   0  0  0  0  0  2  0  0  0  0  0  0
  -25.9930  -29.4620   20.7500 C   0  0  0  0  0  0  0  0  0  0  0  0
  -27.1950  -28.7150   20.7330 C   0  0  0  0  0  3  0  0  0  0  0  0
  -26.0500  -26.9080   19.5770 C   0  0  0  0  0  3  0  0  0  0  0  0
  -24.8580  -27.6590   19.5760 C   0  0  0  0  0  3  0  0  0  0  0  0
  -23.5890  -29.7960   20.2130 C   0  0  0  0  0  2  0  0  0  0  0  0
  -24.6460  -31.0800   22.1290 N   0  0  0  0  0  0  0  0  0  0  0  0
  -23.5110  -32.1520   23.7750 O   0  0  0  0  0  0  0  0  0  0  0  0
  -22.7290  -29.4610   22.5530 C   0  0  0  0  0  0  0  0  0  0  0  0
  -21.4050  -29.2760   22.4230 N   0  0  0  0  0  0  0  0  0  0  0  0
  -23.4120  -28.8370   23.3710 O   0  0  0  0  0  0  0  0  0  0  0  0
  -20.9160  -29.8300   21.7340 H   0  0  0  0  0  0  0  0  0  0  0  0
  -18.0340  -28.0670   22.9010 C   0  0  0  0  0  0  0  0  0  0  0  0
  -20.5880  -28.3380   23.1920 C   0  0  0  0  0  3  0  0  0  0  0  0
  -20.7020  -26.9060   22.6220 C   0  0  0  0  0  2  0  0  0  0  0  0
  -19.6100  -26.5740   21.6010 C   0  0  0  0  0  2  0  0  0  0  0  0
  -18.2220  -26.7150   22.2320 C   0  0  0  0  0  2  0  0  0  0  0  0
  -19.1460  -28.8360   23.3360 C   0  0  0  0  0  0  0  0  0  0  0  0
  -18.9170  -30.1020   23.9190 C   0  0  0  0  0  3  0  0  0  0  0  0
  -17.6090  -30.5990   24.0700 C   0  0  0  0  0  3  0  0  0  0  0  0
  -16.5110  -29.8260   23.6530 C   0  0  0  0  0  3  0  0  0  0  0  0
  -16.7250  -28.5630   23.0740 C   0  0  0  0  0  3  0  0  0  0  0  0
  -25.8780  -32.5100   23.8530 C   0  0  0  0  0  3  0  0  0  0  0  0
  -25.5740  -33.9070   24.1850 N   0  0  0  0  0  0  0  0  0  0  0  0
  -25.9080  -34.9590   23.4250 C   0  0  0  0  0  0  0  0  0  0  0  0
  -26.5790  -34.8540   22.3950 O   0  0  0  0  0  0  0  0  0  0  0  0
  -24.9790  -34.0640   24.9860 H   0  0  0  0  0  0  0  0  0  0  0  0
  -24.1840  -36.7540   23.0700 C   0  0  0  0  0  1  0  0  0  0  0  0
  -25.4240  -36.3480   23.8830 C   0  0  0  0  0  3  0  0  0  0  0  0
  -27.5610  -37.2260   24.7130 C   0  0  0  0  0  1  0  0  0  0  0  0
  -26.4590  -37.3990   23.7700 N   0  0  0  0  0  0  0  0  0  0  0  0
  -26.0550  -38.3200   23.9200 H   0  0  0  0  0  0  0  0  0  0  0  0
  -26.3990  -31.7330   25.1240 C   0  0  1  0  0  0  0  0  0  0  0  0
  -25.3100  -31.4950   26.1960 C   0  0  0  0  0  1  0  0  0  0  0  0
  -26.9760  -30.3560   24.7240 C   0  0  0  0  0  1  0  0  0  0  0  0
  -27.5550  -32.5230   25.7830 C   0  0  0  0  0  1  0  0  0  0  0  0
  -29.3260  -19.3220   20.9720 C   0  0  0  0  0  2  0  0  0  0  0  0
  -29.5860  -17.8930   20.3820 C   0  0  0  0  0  2  0  0  0  0  0  0
  -30.2180  -16.8670   21.3700 C   0  0  0  0  0  2  0  0  0  0  0  0
  -30.6280  -14.4980   20.4830 C   0  0  0  0  0  0  0  0  0  0  0  0
  -30.3660  -12.3450   19.2870 C   0  0  0  0  0  2  0  0  0  0  0  0
  -29.4110  -12.5470   18.0920 C   0  0  0  0  0  2  0  0  0  0  0  0
  -27.9390  -12.4010   18.5280 C   0  0  0  0  0  2  0  0  0  0  0  0
  -27.6060  -13.2300   19.7970 C   0  0  0  0  0  3  0  0  0  0  0  0
  -28.6620  -12.9790   20.8960 C   0  0  0  0  0  2  0  0  0  0  0  0
  -29.9830  -13.3080   20.3300 N   0  0  0  0  0  0  0  0  0  0  0  0
  -31.7490  -14.7200   20.0150 O   0  0  0  0  0  0  0  0  0  0  0  0
  -29.8890  -15.4610   21.0720 N   0  0  0  0  0  0  0  0  0  0  0  0
  -28.9800  -15.1510   21.3830 H   0  0  0  0  0  0  0  0  0  0  0  0
  -25.2090  -13.8510   20.5000 C   0  0  0  0  0  0  0  0  0  0  0  0
  -24.1390  -13.0830   20.8750 C   0  0  0  0  0  0  0  0  0  0  0  0
  -24.5970  -11.7300   20.8520 C   0  0  0  0  0  0  0  0  0  0  0  0
  -26.2520  -12.9650   20.2750 N   0  0  0  0  0  0  0  0  0  0  0  0
  -25.8860  -11.6850   20.5430 N   0  0  0  0  0  0  0  0  0  0  0  0
  -23.8690  -10.4700   21.0490 C   0  0  0  0  0  0  0  0  0  0  0  0
  -24.3130   -9.4970   21.9710 C   0  0  0  0  0  3  0  0  0  0  0  0
  -23.5860   -8.3020   22.1550 C   0  0  0  0  0  3  0  0  0  0  0  0
  -22.4020   -8.0710   21.4170 C   0  0  0  0  0  0  0  0  0  0  0  0
  -21.9760   -9.0330   20.4830 C   0  0  0  0  0  3  0  0  0  0  0  0
  -22.7040  -10.2200   20.2970 C   0  0  0  0  0  3  0  0  0  0  0  0
  -21.6450   -6.9270   21.5120 O   0  0  0  0  0  0  0  0  0  0  0  0
  -21.6260   -6.1690   22.6550 C   0  0  0  0  0  0  0  0  0  0  0  0
  -21.2520   -6.7120   23.9030 C   0  0  0  0  0  3  0  0  0  0  0  0
  -21.1790   -5.8820   25.0400 C   0  0  0  0  0  3  0  0  0  0  0  0
  -21.4710   -4.5090   24.9270 C   0  0  0  0  0  0  0  0  0  0  0  0
  -21.8370   -3.9650   23.6850 C   0  0  0  0  0  3  0  0  0  0  0  0
  -21.9120   -4.7930   22.5500 C   0  0  0  0  0  0  0  0  0  0  0  0
  -22.2460   -4.2600   21.3510 F   0  0  0  0  0  0  0  0  0  0  0  0
  -21.3920   -3.7090   26.0170 F   0  0  0  0  0  0  0  0  0  0  0  0
  -22.7430  -13.5650   21.1460 C   0  0  0  0  0  0  0  0  0  0  0  0
  -22.0140  -12.8740   22.0170 N   0  0  0  0  0  0  0  0  0  0  0  0
  -22.3060  -14.5880   20.6220 O   0  0  0  0  0  0  0  0  0  0  0  0
  -22.3800  -12.0440   22.4610 H   0  0  0  0  0  0  0  0  0  0  0  0
  -21.0770  -13.1780   22.2400 H   0  0  0  0  0  0  0  0  0  0  0  0
  -25.3780  -15.2200   20.3160 N   0  0  0  0  0  0  0  0  0  0  0  0
  -24.6150  -15.8790   20.4210 H   0  0  0  0  0  0  0  0  0  0  0  0
  -26.2300  -15.6520   19.9810 H   0  0  0  0  0  0  0  0  0  0  0  0
  1  6  1  0
  1 51  1  0
  2  1  1  0
  2  3  1  0
  4  5  1  0
  4  2  2  0
  7  6  1  0
  8  7  1  0
  8  9  1  0
 10 12  1  0
 10  9  1  0
 11 22  2  0
 12 17  1  0
 13 21  1  0
 13 23  1  0
 14 20  1  0
 14 16  1  0
 15 21  1  0
 16 15  1  0
 17 16  2  0
 18 12  2  0
 19 18  1  0
 19 14  2  0
 20 13  1  0
 21 11  1  0
 23 25  2  0
 24 23  1  0
 26 24  1  0
 27 36  2  0
 27 32  1  0
 28 24  1  0
 28 32  1  0
 29 28  1  0
 30 31  1  0
 30 29  1  0
 31 27  1  0
 32 33  2  0
 33 34  1  0
 35 34  2  0
 36 35  1  0
 37 11  1  0
 37 38  1  0
 37 47  1  0
 38 41  1  0
 39 43  1  0
 39 38  1  0
 40 39  2  0
 43 42  1  0
 45 43  1  0
 45 46  1  0
 45 44  1  0
 47 50  1  1
 47 48  1  0
 49 47  1  0
 52 51  1  0
 52 53  1  0
 54 62  1  0
 55 60  1  0
 56 57  1  0
 56 55  1  0
 58 57  1  0
 58 67  1  0
 58 59  1  0
 60 54  1  0
 60 59  1  0
 61 54  2  0
 62 53  1  0
 62 63  1  0
 64 65  2  0
 65 84  1  0
 66 65  1  0
 66 69  1  0
 67 64  1  0
 67 68  1  0
 68 66  2  0
 69 70  1  0
 70 71  2  0
 72 75  1  0
 72 71  1  0
 73 72  2  0
 74 73  1  0
 74 69  2  0
 75 76  1  0
 76 77  1  0
 77 78  2  0
 79 78  1  0
 79 83  1  0
 80 79  2  0
 81 76  2  0
 81 80  1  0
 82 81  1  0
 84 85  1  0
 85 88  1  0
 85 87  1  0
 86 84  2  0
 89 90  1  0
 89 64  1  0
 91 89  1  0
M  ISO  4   9 101  10 101  54 100  62 100
M  END
>  <TORSDO>  (16) 
F 24

>  <SCORE>  (16) 
-12.426

>  <name>  (16) 
15

>  <ligand_id>  (16) 
15

>  <original_smiles>  (16) 
[H]N=C(C([H])([H])[H])C([H])(C([H])([H])C([H])([H])C([H])([H])N([H])C(=O)N1C([H])([H])C([H])([H])C([H])([H])C([H])(n2nc(-c3c([H])c([H])c(Oc4c([H])c([H])c(F)c([H])c4F)c([H])c3[H])c(C(=O)N([H])[H])c2N([H])[H])C1([H])[H])C([H])([H])C([H])([H])C([H])([H])C([H])([H])Oc1c([H])c([H])c2c(c1[H])C([H])([H])N(C(=O)C([H])(N([H])C(=O)C([H])(N([H])C([H])([H])[H])C([H])([H])[H])C(C([H])([H])[H])(C([H])([H])[H])C([H])([H])[H])C([H])(C(=O)N([H])C1([H])c3c([H])c([H])c([H])c([H])c3C([H])([H])C([H])([H])C1([H])[H])C2([H])[H]

>  <smiles>  (16) 
[H]N=C(C([H])([H])[H])C([H])(C([H])([H])C([H])([H])C([H])([H])N([H])C(=O)N1C([H])([H])C([H])([H])C([H])([H])C([H])(n2nc(-c3c([H])c([H])c(Oc4c([H])c([H])c(F)c([H])c4F)c([H])c3[H])c(C(=O)N([H])[H])c2N([H])[H])C1([H])[H])C([H])([H])C([H])([H])C([H])([H])C([H])([H])Oc1c([H])c([H])c2c(c1[H])C([H])([H])N(C(=O)C([H])(N([H])C(=O)C([H])(N([H])C([H])([H])[H])C([H])([H])[H])C(C([H])([H])[H])(C([H])([H])[H])C([H])([H])[H])C([H])(C(=O)N([H])C1([H])c3c([H])c([H])c([H])c([H])c3C([H])([H])C([H])([H])C1([H])[H])C2([H])[H]

$$$$
16:0:0
     RDKit          3D

 95103  0  0  1  0  0  0  0  0999 V2000
  -29.5470  -20.9240   21.6640 N   0  0  0  0  0  4  0  0  0  0  0  0
  -29.3000  -20.9900   22.6390 H   0  0  0  0  0  0  0  0  0  0  0  0
  -28.6970  -20.7450   21.1530 H   0  0  0  0  0  0  0  0  0  0  0  0
  -31.5540  -17.8640   22.5720 C   0  0  0  0  0  2  0  0  0  0  0  0
  -31.1340  -19.3270   22.7880 C   0  0  0  0  0  2  0  0  0  0  0  0
  -29.7790  -18.4710   20.9840 C   0  0  0  0  0  3  0  0  0  0  0  0
  -30.8520  -17.3900   21.2850 C   0  0  0  0  0  3  0  0  0  0  0  0
  -30.4620  -19.7660   21.4810 C   0  0  0  0  0  3  0  0  0  0  0  0
  -31.0380  -14.9140   21.0610 C   0  0  0  0  0  0  0  0  0  0  0  0
  -30.7820  -12.7140   19.9910 C   0  0  0  0  0  2  0  0  0  0  0  0
  -29.9900  -12.8910   18.6790 C   0  0  0  0  0  2  0  0  0  0  0  0
  -28.4760  -12.8050   18.9470 C   0  0  0  0  0  2  0  0  0  0  0  0
  -28.0210  -13.7010   20.1300 C   0  0  0  0  0  3  0  0  0  0  0  0
  -28.9450  -13.5300   21.3580 C   0  0  0  0  0  2  0  0  0  0  0  0
  -30.3310  -13.7620   20.9210 N   0  0  0  0  0  0  0  0  0  0  0  0
  -32.2200  -15.0110   20.7300 O   0  0  0  0  0  0  0  0  0  0  0  0
  -30.3340  -16.0120   21.4020 N   0  0  0  0  0  0  0  0  0  0  0  0
  -29.3620  -15.8840   21.6390 H   0  0  0  0  0  0  0  0  0  0  0  0
  -25.6080  -14.3920   20.6940 C   0  0  0  0  0  0  0  0  0  0  0  0
  -24.4700  -13.6590   20.8960 C   0  0  0  0  0  0  0  0  0  0  0  0
  -24.8560  -12.2890   20.7730 C   0  0  0  0  0  0  0  0  0  0  0  0
  -26.6190  -13.4720   20.4670 N   0  0  0  0  0  0  0  0  0  0  0  0
  -26.1640  -12.1960   20.5710 N   0  0  0  0  0  0  0  0  0  0  0  0
  -24.0470  -11.0640   20.7770 C   0  0  0  0  0  0  0  0  0  0  0  0
  -24.3630   -9.9740   21.6170 C   0  0  0  0  0  3  0  0  0  0  0  0
  -23.5570   -8.8140   21.6170 C   0  0  0  0  0  3  0  0  0  0  0  0
  -22.4230   -8.7370   20.7750 C   0  0  0  0  0  0  0  0  0  0  0  0
  -22.1270   -9.8170   19.9240 C   0  0  0  0  0  3  0  0  0  0  0  0
  -22.9320  -10.9680   19.9210 C   0  0  0  0  0  3  0  0  0  0  0  0
  -21.5990   -7.6420   20.6890 O   0  0  0  0  0  0  0  0  0  0  0  0
  -21.4190   -6.7920   21.7510 C   0  0  0  0  0  0  0  0  0  0  0  0
  -20.8890   -7.2390   22.9810 C   0  0  0  0  0  3  0  0  0  0  0  0
  -20.6550   -6.3180   24.0230 C   0  0  0  0  0  3  0  0  0  0  0  0
  -20.9420   -4.9540   23.8340 C   0  0  0  0  0  0  0  0  0  0  0  0
  -21.4630   -4.5060   22.6090 C   0  0  0  0  0  3  0  0  0  0  0  0
  -21.6990   -5.4230   21.5690 C   0  0  0  0  0  0  0  0  0  0  0  0
  -22.1820   -4.9830   20.3820 F   0  0  0  0  0  0  0  0  0  0  0  0
  -20.7090   -4.0680   24.8320 F   0  0  0  0  0  0  0  0  0  0  0  0
  -23.0840  -14.1980   21.0970 C   0  0  0  0  0  0  0  0  0  0  0  0
  -22.2480  -13.4770   21.8370 N   0  0  0  0  0  0  0  0  0  0  0  0
  -22.7480  -15.2890   20.6380 O   0  0  0  0  0  0  0  0  0  0  0  0
  -22.5290  -12.5900   22.2280 H   0  0  0  0  0  0  0  0  0  0  0  0
  -21.3120  -13.8160   22.0110 H   0  0  0  0  0  0  0  0  0  0  0  0
  -25.8620  -15.7590   20.6660 N   0  0  0  0  0  0  0  0  0  0  0  0
  -25.1220  -16.4460   20.7600 H   0  0  0  0  0  0  0  0  0  0  0  0
  -26.7550  -16.1700   20.4320 H   0  0  0  0  0  0  0  0  0  0  0  0
  -29.3620  -18.5630   19.4970 C   0  0  0  0  0  2  0  0  0  0  0  0
  -28.1980  -17.6430   19.1060 C   0  0  0  0  0  2  0  0  0  0  0  0
  -26.1420  -17.3280   17.6360 C   0  0  0  0  0  1  0  0  0  0  0  0
  -27.3850  -18.1790   17.9200 C   0  0  0  0  0  2  0  0  0  0  0  0
  -30.0870  -22.2280   21.1960 C   0  0  0  0  0  2  0  0  0  0  0  0
  -29.1490  -23.4190   21.5140 C   0  0  0  0  0  2  0  0  0  0  0  0
  -29.5160  -24.7460   20.8020 C   0  0  0  0  0  2  0  0  0  0  0  0
  -28.6450  -25.9240   21.2850 C   0  0  0  0  0  2  0  0  0  0  0  0
  -28.7390  -27.0870   20.4450 O   0  0  0  0  0  0  0  0  0  0  0  0
  -24.8370  -32.1740   23.5350 C   0  0  0  0  0  0  0  0  0  0  0  0
  -27.5800  -27.8300   20.4160 C   0  0  0  0  0  0  0  0  0  0  0  0
  -23.6640  -30.7600   21.8780 C   0  0  0  0  0  3  0  0  0  0  0  0
  -25.1540  -29.2770   20.4330 C   0  0  0  0  0  0  0  0  0  0  0  0
  -26.1800  -31.1840   21.6820 C   0  0  0  0  0  2  0  0  0  0  0  0
  -26.3000  -29.8240   21.0270 C   0  0  0  0  0  0  0  0  0  0  0  0
  -27.5200  -29.1080   21.0140 C   0  0  0  0  0  3  0  0  0  0  0  0
  -26.4240  -27.3050   19.8000 C   0  0  0  0  0  3  0  0  0  0  0  0
  -25.2110  -28.0170   19.8150 C   0  0  0  0  0  3  0  0  0  0  0  0
  -23.8890  -30.1020   20.4910 C   0  0  0  0  0  2  0  0  0  0  0  0
  -24.9120  -31.3870   22.4240 N   0  0  0  0  0  0  0  0  0  0  0  0
  -23.7500  -32.4140   24.0770 O   0  0  0  0  0  0  0  0  0  0  0  0
  -23.0380  -29.7130   22.8270 C   0  0  0  0  0  0  0  0  0  0  0  0
  -21.7300  -29.4610   22.6600 N   0  0  0  0  0  0  0  0  0  0  0  0
  -23.7280  -29.1310   23.6680 O   0  0  0  0  0  0  0  0  0  0  0  0
  -21.2330  -29.9860   21.9540 H   0  0  0  0  0  0  0  0  0  0  0  0
  -18.4030  -28.1150   23.0780 C   0  0  0  0  0  0  0  0  0  0  0  0
  -20.9380  -28.4890   23.4130 C   0  0  0  0  0  3  0  0  0  0  0  0
  -21.1200  -27.0630   22.8450 C   0  0  0  0  0  2  0  0  0  0  0  0
  -20.0590  -26.6880   21.8050 C   0  0  0  0  0  2  0  0  0  0  0  0
  -18.6570  -26.7730   22.4130 C   0  0  0  0  0  2  0  0  0  0  0  0
  -19.4740  -28.9280   23.5340 C   0  0  0  0  0  0  0  0  0  0  0  0
  -19.1840  -30.1820   24.1120 C   0  0  0  0  0  3  0  0  0  0  0  0
  -17.8540  -30.6250   24.2420 C   0  0  0  0  0  3  0  0  0  0  0  0
  -16.7960  -29.8090   23.8050 C   0  0  0  0  0  3  0  0  0  0  0  0
  -17.0710  -28.5570   23.2280 C   0  0  0  0  0  3  0  0  0  0  0  0
  -26.1090  -32.8280   24.1600 C   0  0  0  0  0  3  0  0  0  0  0  0
  -25.8110  -34.2480   24.3800 N   0  0  0  0  0  0  0  0  0  0  0  0
  -26.1940  -35.2410   23.5640 C   0  0  0  0  0  0  0  0  0  0  0  0
  -26.9060  -35.0560   22.5730 O   0  0  0  0  0  0  0  0  0  0  0  0
  -25.1880  -34.4680   25.1430 H   0  0  0  0  0  0  0  0  0  0  0  0
  -24.5190  -37.0300   23.0040 C   0  0  0  0  0  1  0  0  0  0  0  0
  -25.7100  -36.6630   23.9020 C   0  0  0  0  0  3  0  0  0  0  0  0
  -27.8150  -37.5720   24.7830 C   0  0  0  0  0  1  0  0  0  0  0  0
  -26.7670  -37.6910   23.7730 N   0  0  0  0  0  0  0  0  0  0  0  0
  -26.3700  -38.6240   23.8360 H   0  0  0  0  0  0  0  0  0  0  0  0
  -26.5670  -32.1370   25.5040 C   0  0  1  0  0  0  0  0  0  0  0  0
  -25.4140  -31.9090   26.5090 C   0  0  0  0  0  1  0  0  0  0  0  0
  -27.2220  -30.7660   25.2160 C   0  0  0  0  0  1  0  0  0  0  0  0
  -27.6430  -33.0030   26.1990 C   0  0  0  0  0  1  0  0  0  0  0  0
  1  2  1  0
  3  1  1  0
  4  5  1  0
  6 47  1  0
  6  7  1  0
  6  8  1  0
  7 17  1  0
  7  4  1  0
  8  1  1  0
  8  5  1  0
  9 17  1  0
 10 15  1  0
 11 12  1  0
 11 10  1  0
 13 12  1  0
 13 22  1  0
 13 14  1  0
 15  9  1  0
 15 14  1  0
 16  9  2  0
 17 18  1  0
 19 20  2  0
 20 39  1  0
 21 24  1  0
 21 20  1  0
 22 23  1  0
 22 19  1  0
 23 21  2  0
 24 25  1  0
 25 26  2  0
 27 26  1  0
 28 27  2  0
 29 28  1  0
 29 24  2  0
 30 27  1  0
 30 31  1  0
 31 32  1  0
 32 33  2  0
 34 33  1  0
 34 38  1  0
 35 34  2  0
 36 31  2  0
 36 35  1  0
 37 36  1  0
 39 40  1  0
 40 43  1  0
 40 42  1  0
 41 39  2  0
 44 19  1  0
 44 45  1  0
 46 44  1  0
 48 47  1  0
 49 50  1  0
 50 48  1  0
 51 52  1  0
 51  1  1  0
 53 54  1  0
 53 52  1  0
 55 54  1  0
 56 67  2  0
 57 55  1  0
 57 62  1  0
 58 66  1  0
 58 68  1  0
 59 65  1  0
 59 61  1  0
 60 66  1  0
 61 60  1  0
 62 61  2  0
 63 64  1  0
 63 57  2  0
 64 59  2  0
 65 58  1  0
 66 56  1  0
 68 70  2  0
 69 68  1  0
 71 69  1  0
 72 81  2  0
 72 77  1  0
 73 69  1  0
 73 77  1  0
 74 73  1  0
 75 76  1  0
 75 74  1  0
 76 72  1  0
 77 78  2  0
 78 79  1  0
 80 79  2  0
 81 80  1  0
 82 56  1  0
 82 83  1  0
 82 92  1  0
 83 86  1  0
 84 88  1  0
 84 83  1  0
 85 84  2  0
 88 87  1  0
 90 91  1  0
 90 88  1  0
 90 89  1  0
 92 95  1  1
 92 93  1  0
 94 92  1  0
M  ISO  4   9 100  17 100  54 101  55 101
M  END
>  <TORSDO>  (17) 
F 24

>  <SCORE>  (17) 
-6.883

>  <name>  (17) 
16

>  <ligand_id>  (17) 
16

>  <original_smiles>  (17) 
[H]c1c([H])c([H])c2c(c1[H])C([H])([H])C([H])([H])C([H])([H])C2([H])N([H])C(=O)C1([H])N(C(=O)C([H])(N([H])C(=O)C([H])(N([H])C([H])([H])[H])C([H])([H])[H])C(C([H])([H])[H])(C([H])([H])[H])C([H])([H])[H])C([H])([H])c2c([H])c(OC([H])([H])C([H])([H])C([H])([H])C([H])([H])[N+]([H])([H])C3([H])C([H])([H])C([H])([H])C([H])(N([H])C(=O)N4C([H])([H])C([H])([H])C([H])([H])C([H])(n5nc(-c6c([H])c([H])c(Oc7c([H])c([H])c(F)c([H])c7F)c([H])c6[H])c(C(=O)N([H])[H])c5N([H])[H])C4([H])[H])C3([H])C([H])([H])C([H])([H])C([H])([H])C([H])([H])[H])c([H])c([H])c2C1([H])[H]

>  <smiles>  (17) 
[H]c1c([H])c([H])c2c(c1[H])C([H])([H])C([H])([H])C([H])([H])C2([H])N([H])C(=O)C1([H])N(C(=O)C([H])(N([H])C(=O)C([H])(N([H])C([H])([H])[H])C([H])([H])[H])C(C([H])([H])[H])(C([H])([H])[H])C([H])([H])[H])C([H])([H])c2c([H])c(OC([H])([H])C([H])([H])C([H])([H])C([H])([H])[N+]([H])([H])C3([H])C([H])([H])C([H])([H])C([H])(N([H])C(=O)N4C([H])([H])C([H])([H])C([H])([H])C([H])(n5nc(-c6c([H])c([H])c(Oc7c([H])c([H])c(F)c([H])c7F)c([H])c6[H])c(C(=O)N([H])[H])c5N([H])[H])C4([H])[H])C3([H])C([H])([H])C([H])([H])C([H])([H])C([H])([H])[H])c([H])c([H])c2C1([H])[H]

$$$$
17:0:0
     RDKit          3D

 90 97  0  0  1  0  0  0  0  0999 V2000
  -28.1510  -23.4570   20.6110 C   0  0  0  0  0  3  0  0  0  0  0  0
  -25.9100  -22.9860   21.8930 C   0  0  0  0  0  1  0  0  0  0  0  0
  -26.6070  -23.6120   20.6710 C   0  0  0  0  0  2  0  0  0  0  0  0
  -28.5840  -22.1390   19.9270 C   0  0  0  0  0  0  0  0  0  0  0  0
  -28.7540  -22.0890   18.7050 O   0  0  0  0  0  0  0  0  0  0  0  0
  -28.7690  -20.8840   20.8040 C   0  0  0  0  0  2  0  0  0  0  0  0
  -29.6470  -19.7660   20.1850 C   0  0  0  0  0  2  0  0  0  0  0  0
  -29.4370  -18.3930   20.8670 C   0  0  0  0  0  2  0  0  0  0  0  0
  -30.4220  -17.3360   20.3340 C   0  0  0  0  0  2  0  0  0  0  0  0
  -30.8920  -14.9220   20.4710 C   0  0  0  0  0  0  0  0  0  0  0  0
  -30.7100  -12.6860   19.4730 C   0  0  0  0  0  2  0  0  0  0  0  0
  -29.8060  -12.7750   18.2290 C   0  0  0  0  0  2  0  0  0  0  0  0
  -28.3230  -12.6120   18.6170 C   0  0  0  0  0  2  0  0  0  0  0  0
  -27.9090  -13.5200   19.8070 C   0  0  0  0  0  3  0  0  0  0  0  0
  -28.9300  -13.4180   20.9640 C   0  0  0  0  0  2  0  0  0  0  0  0
  -30.2630  -13.7200   20.4200 N   0  0  0  0  0  0  0  0  0  0  0  0
  -32.0380  -15.1010   20.0550 O   0  0  0  0  0  0  0  0  0  0  0  0
  -30.1120  -15.9720   20.7770 N   0  0  0  0  0  0  0  0  0  0  0  0
  -29.1720  -15.7740   21.0790 H   0  0  0  0  0  0  0  0  0  0  0  0
  -25.4820  -14.0910   20.4450 C   0  0  0  0  0  0  0  0  0  0  0  0
  -24.4160  -13.3030   20.7930 C   0  0  0  0  0  0  0  0  0  0  0  0
  -24.9010  -11.9620   20.7890 C   0  0  0  0  0  0  0  0  0  0  0  0
  -26.5480  -13.2270   20.2530 N   0  0  0  0  0  0  0  0  0  0  0  0
  -26.2000  -11.9420   20.5130 N   0  0  0  0  0  0  0  0  0  0  0  0
  -24.1910  -10.6880   20.9670 C   0  0  0  0  0  0  0  0  0  0  0  0
  -24.5450   -9.7850   21.9920 C   0  0  0  0  0  3  0  0  0  0  0  0
  -23.8400   -8.5720   22.1540 C   0  0  0  0  0  3  0  0  0  0  0  0
  -22.7670   -8.2530   21.2880 C   0  0  0  0  0  0  0  0  0  0  0  0
  -22.4330   -9.1450   20.2540 C   0  0  0  0  0  3  0  0  0  0  0  0
  -23.1410  -10.3480   20.0920 C   0  0  0  0  0  3  0  0  0  0  0  0
  -22.0400   -7.0890   21.3570 O   0  0  0  0  0  0  0  0  0  0  0  0
  -21.8110   -6.4520   22.5500 C   0  0  0  0  0  0  0  0  0  0  0  0
  -21.1070   -7.0730   23.6070 C   0  0  0  0  0  3  0  0  0  0  0  0
  -20.8390   -6.3560   24.7900 C   0  0  0  0  0  3  0  0  0  0  0  0
  -21.2610   -5.0180   24.9150 C   0  0  0  0  0  0  0  0  0  0  0  0
  -21.9570   -4.3980   23.8630 C   0  0  0  0  0  3  0  0  0  0  0  0
  -22.2300   -5.1120   22.6840 C   0  0  0  0  0  0  0  0  0  0  0  0
  -22.8810   -4.5040   21.6640 F   0  0  0  0  0  0  0  0  0  0  0  0
  -20.9940   -4.3280   26.0470 F   0  0  0  0  0  0  0  0  0  0  0  0
  -23.0040  -13.7580   21.0230 C   0  0  0  0  0  0  0  0  0  0  0  0
  -22.2580  -13.0560   21.8700 N   0  0  0  0  0  0  0  0  0  0  0  0
  -22.5650  -14.7740   20.4850 O   0  0  0  0  0  0  0  0  0  0  0  0
  -22.6210  -12.2370   22.3360 H   0  0  0  0  0  0  0  0  0  0  0  0
  -21.3090  -13.3450   22.0590 H   0  0  0  0  0  0  0  0  0  0  0  0
  -25.6290  -15.4610   20.2560 N   0  0  0  0  0  0  0  0  0  0  0  0
  -24.8480  -16.1020   20.3320 H   0  0  0  0  0  0  0  0  0  0  0  0
  -26.4690  -15.9010   19.8990 H   0  0  0  0  0  0  0  0  0  0  0  0
  -28.7910  -24.6960   19.9120 C   0  0  0  0  0  2  0  0  0  0  0  0
  -28.8550  -25.9610   20.7960 C   0  0  0  0  0  2  0  0  0  0  0  0
  -28.8630  -27.1790   20.0400 O   0  0  0  0  0  0  0  0  0  0  0  0
  -24.7040  -31.9450   23.2910 C   0  0  0  0  0  0  0  0  0  0  0  0
  -27.6620  -27.8470   20.0400 C   0  0  0  0  0  0  0  0  0  0  0  0
  -23.6070  -30.5530   21.5610 C   0  0  0  0  0  3  0  0  0  0  0  0
  -25.1760  -29.1810   20.0880 C   0  0  0  0  0  0  0  0  0  0  0  0
  -26.1060  -31.0840   21.4210 C   0  0  0  0  0  2  0  0  0  0  0  0
  -26.2890  -29.7560   20.7180 C   0  0  0  0  0  0  0  0  0  0  0  0
  -27.5370  -29.0930   20.6910 C   0  0  0  0  0  3  0  0  0  0  0  0
  -26.5340  -27.2860   19.4030 C   0  0  0  0  0  3  0  0  0  0  0  0
  -25.2920  -27.9460   19.4310 C   0  0  0  0  0  3  0  0  0  0  0  0
  -23.8780  -29.9520   20.1550 C   0  0  0  0  0  2  0  0  0  0  0  0
  -24.8220  -31.2060   22.1530 N   0  0  0  0  0  0  0  0  0  0  0  0
  -23.6020  -32.1240   23.8260 O   0  0  0  0  0  0  0  0  0  0  0  0
  -23.0110  -29.4480   22.4630 C   0  0  0  0  0  0  0  0  0  0  0  0
  -21.7070  -29.1800   22.2940 N   0  0  0  0  0  0  0  0  0  0  0  0
  -23.7200  -28.8360   23.2670 O   0  0  0  0  0  0  0  0  0  0  0  0
  -21.1920  -29.7320   21.6220 H   0  0  0  0  0  0  0  0  0  0  0  0
  -18.4120  -27.7550   22.6680 C   0  0  0  0  0  0  0  0  0  0  0  0
  -20.9430  -28.1540   23.0010 C   0  0  0  0  0  3  0  0  0  0  0  0
  -21.1450  -26.7650   22.3530 C   0  0  0  0  0  2  0  0  0  0  0  0
  -20.0820  -26.4290   21.3030 C   0  0  0  0  0  2  0  0  0  0  0  0
  -18.6840  -26.4560   21.9280 C   0  0  0  0  0  2  0  0  0  0  0  0
  -19.4740  -28.5600   23.1600 C   0  0  0  0  0  0  0  0  0  0  0  0
  -19.1670  -29.7750   23.8130 C   0  0  0  0  0  3  0  0  0  0  0  0
  -17.8310  -30.1850   23.9780 C   0  0  0  0  0  3  0  0  0  0  0  0
  -16.7840  -29.3770   23.5030 C   0  0  0  0  0  3  0  0  0  0  0  0
  -17.0750  -28.1650   22.8520 C   0  0  0  0  0  3  0  0  0  0  0  0
  -25.9430  -32.6210   23.9620 C   0  0  0  0  0  3  0  0  0  0  0  0
  -25.5800  -34.0100   24.2690 N   0  0  0  0  0  0  0  0  0  0  0  0
  -25.8900  -35.0640   23.5030 C   0  0  0  0  0  0  0  0  0  0  0  0
  -26.5860  -34.9750   22.4870 O   0  0  0  0  0  0  0  0  0  0  0  0
  -24.9670  -34.1550   25.0580 H   0  0  0  0  0  0  0  0  0  0  0  0
  -24.1010  -36.7830   23.0870 C   0  0  0  0  0  1  0  0  0  0  0  0
  -25.3400  -36.4380   23.9310 C   0  0  0  0  0  3  0  0  0  0  0  0
  -27.4110  -37.4220   24.8060 C   0  0  0  0  0  1  0  0  0  0  0  0
  -26.3330  -37.5300   23.8270 N   0  0  0  0  0  0  0  0  0  0  0  0
  -25.8850  -38.4350   23.9450 H   0  0  0  0  0  0  0  0  0  0  0  0
  -26.4330  -31.8730   25.2610 C   0  0  1  0  0  0  0  0  0  0  0  0
  -25.3040  -31.5870   26.2760 C   0  0  0  0  0  1  0  0  0  0  0  0
  -27.0980  -30.5240   24.8970 C   0  0  0  0  0  1  0  0  0  0  0  0
  -27.5140  -32.7170   25.9760 C   0  0  0  0  0  1  0  0  0  0  0  0
  1 48  1  0
  1  3  1  0
  3  2  1  0
  4  1  1  0
  4  6  1  0
  5  4  2  0
  7  6  1  0
  7  8  1  0
  9 18  1  0
  9  8  1  0
 10 18  1  0
 11 16  1  0
 12 13  1  0
 12 11  1  0
 14 13  1  0
 14 23  1  0
 14 15  1  0
 16 10  1  0
 16 15  1  0
 17 10  2  0
 18 19  1  0
 20 21  2  0
 21 40  1  0
 22 21  1  0
 22 25  1  0
 23 20  1  0
 23 24  1  0
 24 22  2  0
 25 26  1  0
 26 27  2  0
 28 31  1  0
 28 27  1  0
 29 28  2  0
 30 29  1  0
 30 25  2  0
 31 32  1  0
 32 37  2  0
 32 33  1  0
 33 34  2  0
 34 35  1  0
 35 39  1  0
 36 35  2  0
 37 36  1  0
 38 37  1  0
 40 41  1  0
 41 44  1  0
 41 43  1  0
 42 40  2  0
 45 46  1  0
 45 20  1  0
 47 45  1  0
 48 49  1  0
 50 52  1  0
 50 49  1  0
 51 62  2  0
 52 57  1  0
 53 61  1  0
 53 63  1  0
 54 60  1  0
 54 56  1  0
 55 61  1  0
 56 55  1  0
 57 56  2  0
 58 59  1  0
 58 52  2  0
 59 54  2  0
 60 53  1  0
 61 51  1  0
 63 65  2  0
 64 63  1  0
 66 64  1  0
 67 76  2  0
 67 72  1  0
 68 64  1  0
 68 72  1  0
 69 68  1  0
 70 71  1  0
 70 69  1  0
 71 67  1  0
 72 73  2  0
 73 74  1  0
 75 74  2  0
 76 75  1  0
 77 51  1  0
 77 78  1  0
 77 87  1  0
 78 81  1  0
 79 83  1  0
 79 78  1  0
 80 79  2  0
 83 82  1  0
 85 83  1  0
 85 86  1  0
 85 84  1  0
 87 90  1  1
 87 88  1  0
 89 87  1  0
M  ISO  4  10 100  18 100  49 101  50 101
M  END
>  <TORSDO>  (18) 
F 24

>  <SCORE>  (18) 
-11.461

>  <name>  (18) 
17

>  <ligand_id>  (18) 
17

>  <original_smiles>  (18) 
[H]c1c([H])c([H])c2c(c1[H])C([H])([H])C([H])([H])C([H])([H])C2([H])N([H])C(=O)C1([H])N(C(=O)C([H])(N([H])C(=O)C([H])(N([H])C([H])([H])[H])C([H])([H])[H])C(C([H])([H])[H])(C([H])([H])[H])C([H])([H])[H])C([H])([H])c2c([H])c(OC([H])([H])C([H])([H])C([H])(C(=O)C([H])([H])C([H])([H])C([H])([H])C([H])([H])N([H])C(=O)N3C([H])([H])C([H])([H])C([H])([H])C([H])(n4nc(-c5c([H])c([H])c(Oc6c([H])c([H])c(F)c([H])c6F)c([H])c5[H])c(C(=O)N([H])[H])c4N([H])[H])C3([H])[H])C([H])([H])C([H])([H])[H])c([H])c([H])c2C1([H])[H]

>  <smiles>  (18) 
[H]c1c([H])c([H])c2c(c1[H])C([H])([H])C([H])([H])C([H])([H])C2([H])N([H])C(=O)C1([H])N(C(=O)C([H])(N([H])C(=O)C([H])(N([H])C([H])([H])[H])C([H])([H])[H])C(C([H])([H])[H])(C([H])([H])[H])C([H])([H])[H])C([H])([H])c2c([H])c(OC([H])([H])C([H])([H])C([H])(C(=O)C([H])([H])C([H])([H])C([H])([H])C([H])([H])N([H])C(=O)N3C([H])([H])C([H])([H])C([H])([H])C([H])(n4nc(-c5c([H])c([H])c(Oc6c([H])c([H])c(F)c([H])c6F)c([H])c5[H])c(C(=O)N([H])[H])c4N([H])[H])C3([H])[H])C([H])([H])C([H])([H])[H])c([H])c([H])c2C1([H])[H]

$$$$
18:0:0
     RDKit          3D

 91 99  0  0  1  0  0  0  0  0999 V2000
  -30.1430  -22.7680   21.7010 C   0  0  0  0  0  2  0  0  0  0  0  0
  -28.7850  -22.4710   19.7830 C   0  0  0  0  0  2  0  0  0  0  0  0
  -29.9270  -21.7110   20.5740 C   0  0  0  0  0  3  0  0  0  0  0  0
  -29.4660  -24.1250   21.3650 C   0  0  0  0  0  3  0  0  0  0  0  0
  -29.0680  -24.0430   19.8900 C   0  0  0  0  0  3  0  0  0  0  0  0
  -30.0760  -25.8760   23.1410 C   0  0  0  0  0  1  0  0  0  0  0  0
  -30.3400  -25.3440   21.7250 C   0  0  0  0  0  2  0  0  0  0  0  0
  -31.1640  -19.9900   22.0380 C   0  0  0  0  0  1  0  0  0  0  0  0
  -29.8880  -20.1800   21.1660 C   0  0  0  0  0  3  0  0  0  0  0  0
  -29.7590  -18.8340   20.2650 C   0  0  0  0  0  2  0  0  0  0  0  0
  -30.2330  -17.4350   20.9450 C   0  0  0  0  0  2  0  0  0  0  0  0
  -30.5710  -14.9660   20.1560 C   0  0  0  0  0  0  0  0  0  0  0  0
  -30.3750  -12.7090   19.1080 C   0  0  0  0  0  2  0  0  0  0  0  0
  -29.3830  -12.7660   17.9270 C   0  0  0  0  0  2  0  0  0  0  0  0
  -27.9360  -12.5580   18.4160 C   0  0  0  0  0  2  0  0  0  0  0  0
  -27.5900  -13.4340   19.6500 C   0  0  0  0  0  3  0  0  0  0  0  0
  -28.6950  -13.3600   20.7260 C   0  0  0  0  0  2  0  0  0  0  0  0
  -29.9580  -13.7400   20.0800 N   0  0  0  0  0  0  0  0  0  0  0  0
  -31.7440  -15.1040   19.8000 O   0  0  0  0  0  0  0  0  0  0  0  0
  -29.7960  -16.0610   20.4740 N   0  0  0  0  0  0  0  0  0  0  0  0
  -28.8210  -15.8460   20.6260 H   0  0  0  0  0  0  0  0  0  0  0  0
  -25.2250  -13.9700   20.4900 C   0  0  0  0  0  0  0  0  0  0  0  0
  -24.1900  -13.1700   20.8910 C   0  0  0  0  0  0  0  0  0  0  0  0
  -24.6760  -11.8280   20.8130 C   0  0  0  0  0  0  0  0  0  0  0  0
  -26.2730  -13.1140   20.1920 N   0  0  0  0  0  0  0  0  0  0  0  0
  -25.9520  -11.8200   20.4480 N   0  0  0  0  0  0  0  0  0  0  0  0
  -23.9800  -10.5500   21.0090 C   0  0  0  0  0  0  0  0  0  0  0  0
  -24.4430   -9.5910   21.9370 C   0  0  0  0  0  3  0  0  0  0  0  0
  -23.7470   -8.3770   22.1200 C   0  0  0  0  0  3  0  0  0  0  0  0
  -22.5740   -8.1120   21.3730 C   0  0  0  0  0  0  0  0  0  0  0  0
  -22.1320   -9.0580   20.4340 C   0  0  0  0  0  3  0  0  0  0  0  0
  -22.8280  -10.2640   20.2490 C   0  0  0  0  0  3  0  0  0  0  0  0
  -21.8480   -6.9490   21.4660 O   0  0  0  0  0  0  0  0  0  0  0  0
  -21.7800   -6.2330   22.6350 C   0  0  0  0  0  0  0  0  0  0  0  0
  -21.2490   -6.7900   23.8190 C   0  0  0  0  0  3  0  0  0  0  0  0
  -21.1350   -5.9970   24.9790 C   0  0  0  0  0  3  0  0  0  0  0  0
  -21.5400   -4.6490   24.9540 C   0  0  0  0  0  0  0  0  0  0  0  0
  -22.0630   -4.0930   23.7740 C   0  0  0  0  0  3  0  0  0  0  0  0
  -22.1800   -4.8820   22.6170 C   0  0  0  0  0  0  0  0  0  0  0  0
  -22.6650   -4.3350   21.4770 F   0  0  0  0  0  0  0  0  0  0  0  0
  -21.4230   -3.8860   26.0660 F   0  0  0  0  0  0  0  0  0  0  0  0
  -22.7980  -13.6150   21.2290 C   0  0  0  0  0  0  0  0  0  0  0  0
  -22.1170  -12.8870   22.1070 N   0  0  0  0  0  0  0  0  0  0  0  0
  -22.3220  -14.6450   20.7510 O   0  0  0  0  0  0  0  0  0  0  0  0
  -22.5160  -12.0530   22.5140 H   0  0  0  0  0  0  0  0  0  0  0  0
  -21.1860  -13.1660   22.3770 H   0  0  0  0  0  0  0  0  0  0  0  0
  -25.3570  -15.3470   20.3330 N   0  0  0  0  0  0  0  0  0  0  0  0
  -24.5800  -15.9820   20.4840 H   0  0  0  0  0  0  0  0  0  0  0  0
  -26.1760  -15.8070   19.9560 H   0  0  0  0  0  0  0  0  0  0  0  0
  -27.9470  -25.0980   19.4230 C   0  0  0  0  0  2  0  0  0  0  0  0
  -28.1660  -26.5780   19.4370 O   0  0  0  0  0  0  0  0  0  0  0  0
  -24.4110  -31.7460   22.8500 C   0  0  0  0  0  0  0  0  0  0  0  0
  -27.0310  -27.4180   19.4660 C   0  0  0  0  0  0  0  0  0  0  0  0
  -23.1860  -30.4000   21.1840 C   0  0  0  0  0  3  0  0  0  0  0  0
  -24.6250  -28.9740   19.6230 C   0  0  0  0  0  0  0  0  0  0  0  0
  -25.7090  -30.8020   20.9240 C   0  0  0  0  0  2  0  0  0  0  0  0
  -25.8040  -29.4620   20.2000 C   0  0  0  0  0  0  0  0  0  0  0  0
  -27.0110  -28.6990   20.1080 C   0  0  0  0  0  3  0  0  0  0  0  0
  -25.8210  -26.9930   18.8680 C   0  0  0  0  0  3  0  0  0  0  0  0
  -24.6370  -27.7460   18.9460 C   0  0  0  0  0  3  0  0  0  0  0  0
  -23.3660  -29.8050   19.7620 C   0  0  0  0  0  2  0  0  0  0  0  0
  -24.4560  -30.9980   21.7090 N   0  0  0  0  0  0  0  0  0  0  0  0
  -23.3410  -31.9630   23.4370 O   0  0  0  0  0  0  0  0  0  0  0  0
  -22.5900  -29.3150   22.1110 C   0  0  0  0  0  0  0  0  0  0  0  0
  -21.2580  -29.1380   22.0590 N   0  0  0  0  0  0  0  0  0  0  0  0
  -23.3210  -28.6370   22.8370 O   0  0  0  0  0  0  0  0  0  0  0  0
  -20.7250  -29.7380   21.4460 H   0  0  0  0  0  0  0  0  0  0  0  0
  -17.9190  -27.9120   22.7200 C   0  0  0  0  0  0  0  0  0  0  0  0
  -20.4920  -28.1450   22.8150 C   0  0  0  0  0  3  0  0  0  0  0  0
  -20.5390  -26.7620   22.1240 C   0  0  0  0  0  2  0  0  0  0  0  0
  -19.3620  -26.5210   21.1750 C   0  0  0  0  0  2  0  0  0  0  0  0
  -18.0340  -26.6190   21.9300 C   0  0  0  0  0  2  0  0  0  0  0  0
  -19.0720  -28.6370   23.1210 C   0  0  0  0  0  0  0  0  0  0  0  0
  -18.9080  -29.8500   23.8250 C   0  0  0  0  0  3  0  0  0  0  0  0
  -17.6230  -30.3380   24.1260 C   0  0  0  0  0  3  0  0  0  0  0  0
  -16.4850  -29.6100   23.7390 C   0  0  0  0  0  3  0  0  0  0  0  0
  -16.6340  -28.3970   23.0410 C   0  0  0  0  0  3  0  0  0  0  0  0
  -25.6970  -32.3850   23.4580 C   0  0  0  0  0  3  0  0  0  0  0  0
  -25.3560  -33.7500   23.8830 N   0  0  0  0  0  0  0  0  0  0  0  0
  -25.7380  -34.8640   23.2450 C   0  0  0  0  0  0  0  0  0  0  0  0
  -26.4820  -34.8490   22.2610 O   0  0  0  0  0  0  0  0  0  0  0  0
  -24.7010  -33.8350   24.6470 H   0  0  0  0  0  0  0  0  0  0  0  0
  -24.0720  -36.7160   22.8860 C   0  0  0  0  0  1  0  0  0  0  0  0
  -25.2120  -36.2090   23.7830 C   0  0  0  0  0  3  0  0  0  0  0  0
  -27.2390  -36.9770   24.9390 C   0  0  0  0  0  1  0  0  0  0  0  0
  -26.2580  -37.2500   23.8920 N   0  0  0  0  0  0  0  0  0  0  0  0
  -25.8430  -38.1590   24.0750 H   0  0  0  0  0  0  0  0  0  0  0  0
  -26.2870  -31.5580   24.6670 C   0  0  1  0  0  0  0  0  0  0  0  0
  -25.2450  -31.2260   25.7620 C   0  0  0  0  0  1  0  0  0  0  0  0
  -26.8940  -30.2240   24.1750 C   0  0  0  0  0  1  0  0  0  0  0  0
  -27.4390  -32.3500   25.3290 C   0  0  0  0  0  1  0  0  0  0  0  0
  2  5  1  0
  2  3  1  0
  3  9  1  0
  3  1  1  0
  4  1  1  0
  4  7  1  0
  5 50  1  0
  5  4  1  0
  7  6  1  0
  9  8  1  0
 10 11  1  0
 10  9  1  0
 12 20  1  0
 13 18  1  0
 14 15  1  0
 14 13  1  0
 16 15  1  0
 16 25  1  0
 16 17  1  0
 18 12  1  0
 18 17  1  0
 19 12  2  0
 20 21  1  0
 20 11  1  0
 22 23  2  0
 23 42  1  0
 24 23  1  0
 24 27  1  0
 25 26  1  0
 25 22  1  0
 26 24  2  0
 27 28  1  0
 28 29  2  0
 30 33  1  0
 30 29  1  0
 31 30  2  0
 32 31  1  0
 32 27  2  0
 33 34  1  0
 34 35  1  0
 35 36  2  0
 37 36  1  0
 37 41  1  0
 38 37  2  0
 39 34  2  0
 39 38  1  0
 40 39  1  0
 42 43  1  0
 43 46  1  0
 43 45  1  0
 44 42  2  0
 47 48  1  0
 47 22  1  0
 49 47  1  0
 50 51  1  0
 51 53  1  0
 52 63  2  0
 53 58  1  0
 54 62  1  0
 54 64  1  0
 55 61  1  0
 55 57  1  0
 56 62  1  0
 57 56  1  0
 58 57  2  0
 59 60  1  0
 59 53  2  0
 60 55  2  0
 61 54  1  0
 62 52  1  0
 64 66  2  0
 65 64  1  0
 67 65  1  0
 68 77  2  0
 68 73  1  0
 69 65  1  0
 69 73  1  0
 70 69  1  0
 71 72  1  0
 71 70  1  0
 72 68  1  0
 73 74  2  0
 74 75  1  0
 76 75  2  0
 77 76  1  0
 78 52  1  0
 78 79  1  0
 78 88  1  0
 79 82  1  0
 80 84  1  0
 80 79  1  0
 81 80  2  0
 84 83  1  0
 84 86  1  0
 86 87  1  0
 86 85  1  0
 88 91  1  1
 88 89  1  0
 90 88  1  0
M  ISO  4  12 100  20 100  50 101  51 101
M  END
>  <TORSDO>  (19) 
F 21

>  <SCORE>  (19) 
-12.811

>  <name>  (19) 
18

>  <ligand_id>  (19) 
18

>  <original_smiles>  (19) 
[H]c1c([H])c([H])c2c(c1[H])C([H])([H])C([H])([H])C([H])([H])C2([H])N([H])C(=O)C1([H])N(C(=O)C([H])(N([H])C(=O)C([H])(N([H])C([H])([H])[H])C([H])([H])[H])C(C([H])([H])[H])(C([H])([H])[H])C([H])([H])[H])C([H])([H])c2c([H])c(OC([H])([H])C3([H])C([H])([H])C([H])(C([H])(C([H])([H])[H])C([H])([H])C([H])([H])N([H])C(=O)N4C([H])([H])C([H])([H])C([H])([H])C([H])(n5nc(-c6c([H])c([H])c(Oc7c([H])c([H])c(F)c([H])c7F)c([H])c6[H])c(C(=O)N([H])[H])c5N([H])[H])C4([H])[H])C([H])([H])C3([H])C([H])([H])C([H])([H])[H])c([H])c([H])c2C1([H])[H]

>  <smiles>  (19) 
[H]c1c([H])c([H])c2c(c1[H])C([H])([H])C([H])([H])C([H])([H])C2([H])N([H])C(=O)C1([H])N(C(=O)C([H])(N([H])C(=O)C([H])(N([H])C([H])([H])[H])C([H])([H])[H])C(C([H])([H])[H])(C([H])([H])[H])C([H])([H])[H])C([H])([H])c2c([H])c(OC([H])([H])C3([H])C([H])([H])C([H])(C([H])(C([H])([H])[H])C([H])([H])C([H])([H])N([H])C(=O)N4C([H])([H])C([H])([H])C([H])([H])C([H])(n5nc(-c6c([H])c([H])c(Oc7c([H])c([H])c(F)c([H])c7F)c([H])c6[H])c(C(=O)N([H])[H])c5N([H])[H])C4([H])[H])C([H])([H])C3([H])C([H])([H])C([H])([H])[H])c([H])c([H])c2C1([H])[H]

$$$$
19:0:0
     RDKit          3D

 89 96  0  0  1  0  0  0  0  0999 V2000
  -27.8640  -23.2410   20.3090 C   0  0  0  0  0  3  0  0  0  0  0  0
  -25.6320  -22.2220   19.4400 C   0  0  0  0  0  1  0  0  0  0  0  0
  -26.4460  -22.6950   20.6560 C   0  0  0  0  0  2  0  0  0  0  0  0
  -29.0130  -22.3250   20.8740 C   0  0  0  0  0  3  0  0  0  0  0  0
  -28.8780  -20.7900   20.5990 C   0  0  0  0  0  3  0  0  0  0  0  0
  -30.0390  -19.8400   21.0160 C   0  0  0  0  0  2  0  0  0  0  0  0
  -29.6880  -18.3250   20.8200 C   0  0  0  0  0  2  0  0  0  0  0  0
  -30.6270  -17.2600   21.4350 C   0  0  0  0  0  2  0  0  0  0  0  0
  -30.8160  -14.8660   20.5830 C   0  0  0  0  0  0  0  0  0  0  0  0
  -30.5160  -12.7490   19.3360 C   0  0  0  0  0  2  0  0  0  0  0  0
  -29.5740  -12.9660   18.1370 C   0  0  0  0  0  2  0  0  0  0  0  0
  -28.1010  -12.7880   18.5600 C   0  0  0  0  0  2  0  0  0  0  0  0
  -27.7510  -13.5730   19.8550 C   0  0  0  0  0  3  0  0  0  0  0  0
  -28.8160  -13.3450   20.9540 C   0  0  0  0  0  2  0  0  0  0  0  0
  -30.1300  -13.7000   20.3930 N   0  0  0  0  0  0  0  0  0  0  0  0
  -31.9380  -15.0530   20.1120 O   0  0  0  0  0  0  0  0  0  0  0  0
  -30.1520  -15.8710   21.1980 N   0  0  0  0  0  0  0  0  0  0  0  0
  -29.2210  -15.6530   21.5080 H   0  0  0  0  0  0  0  0  0  0  0  0
  -25.3330  -14.1040   20.5500 C   0  0  0  0  0  0  0  0  0  0  0  0
  -24.2800  -13.3010   20.9020 C   0  0  0  0  0  0  0  0  0  0  0  0
  -24.7780  -11.9630   20.8650 C   0  0  0  0  0  0  0  0  0  0  0  0
  -26.4030  -13.2530   20.3210 N   0  0  0  0  0  0  0  0  0  0  0  0
  -26.0720  -11.9590   20.5680 N   0  0  0  0  0  0  0  0  0  0  0  0
  -24.0820  -10.6800   21.0340 C   0  0  0  0  0  0  0  0  0  0  0  0
  -24.4880   -9.7430   22.0090 C   0  0  0  0  0  3  0  0  0  0  0  0
  -23.7900   -8.5240   22.1680 C   0  0  0  0  0  3  0  0  0  0  0  0
  -22.6710   -8.2370   21.3530 C   0  0  0  0  0  0  0  0  0  0  0  0
  -22.2840   -9.1640   20.3680 C   0  0  0  0  0  3  0  0  0  0  0  0
  -22.9820  -10.3730   20.2070 C   0  0  0  0  0  3  0  0  0  0  0  0
  -21.9510   -7.0680   21.4160 O   0  0  0  0  0  0  0  0  0  0  0  0
  -21.8250   -6.3640   22.5870 C   0  0  0  0  0  0  0  0  0  0  0  0
  -21.2410   -6.9330   23.7400 C   0  0  0  0  0  3  0  0  0  0  0  0
  -21.0660   -6.1510   24.8990 C   0  0  0  0  0  3  0  0  0  0  0  0
  -21.4690   -4.8030   24.9080 C   0  0  0  0  0  0  0  0  0  0  0  0
  -22.0470   -4.2330   23.7600 C   0  0  0  0  0  3  0  0  0  0  0  0
  -22.2240   -5.0120   22.6020 C   0  0  0  0  0  0  0  0  0  0  0  0
  -22.7590   -4.4520   21.4910 F   0  0  0  0  0  0  0  0  0  0  0  0
  -21.2970   -4.0500   26.0190 F   0  0  0  0  0  0  0  0  0  0  0  0
  -22.8710  -13.7420   21.1670 C   0  0  0  0  0  0  0  0  0  0  0  0
  -22.1460  -13.0060   22.0050 N   0  0  0  0  0  0  0  0  0  0  0  0
  -22.4190  -14.7670   20.6660 O   0  0  0  0  0  0  0  0  0  0  0  0
  -22.5240  -12.1750   22.4320 H   0  0  0  0  0  0  0  0  0  0  0  0
  -21.2010  -13.2830   22.2220 H   0  0  0  0  0  0  0  0  0  0  0  0
  -25.4670  -15.4790   20.3850 N   0  0  0  0  0  0  0  0  0  0  0  0
  -24.6880  -16.1180   20.4960 H   0  0  0  0  0  0  0  0  0  0  0  0
  -26.3100  -15.9400   20.0680 H   0  0  0  0  0  0  0  0  0  0  0  0
  -27.9780  -24.7320   20.7880 C   0  0  0  0  0  2  0  0  0  0  0  0
  -28.8260  -25.6940   19.9120 C   0  0  0  0  0  2  0  0  0  0  0  0
  -28.7530  -27.0720   20.3460 O   0  0  0  0  0  0  0  0  0  0  0  0
  -24.7170  -32.0770   23.4340 C   0  0  0  0  0  0  0  0  0  0  0  0
  -27.5460  -27.7550   20.3160 C   0  0  0  0  0  0  0  0  0  0  0  0
  -23.5830  -30.6690   21.7480 C   0  0  0  0  0  3  0  0  0  0  0  0
  -25.1050  -29.2050   20.3180 C   0  0  0  0  0  0  0  0  0  0  0  0
  -26.1030  -31.1020   21.6030 C   0  0  0  0  0  2  0  0  0  0  0  0
  -26.2400  -29.7460   20.9340 C   0  0  0  0  0  0  0  0  0  0  0  0
  -27.4610  -29.0300   20.9250 C   0  0  0  0  0  3  0  0  0  0  0  0
  -26.3840  -27.2310   19.6980 C   0  0  0  0  0  3  0  0  0  0  0  0
  -25.1740  -27.9450   19.6980 C   0  0  0  0  0  3  0  0  0  0  0  0
  -23.8340  -30.0240   20.3600 C   0  0  0  0  0  2  0  0  0  0  0  0
  -24.8190  -31.2980   22.3200 N   0  0  0  0  0  0  0  0  0  0  0  0
  -23.6200  -32.3070   23.9580 O   0  0  0  0  0  0  0  0  0  0  0  0
  -22.9470  -29.6100   22.6780 C   0  0  0  0  0  0  0  0  0  0  0  0
  -21.6370  -29.3700   22.5020 N   0  0  0  0  0  0  0  0  0  0  0  0
  -23.6290  -29.0090   23.5110 O   0  0  0  0  0  0  0  0  0  0  0  0
  -21.1450  -29.9100   21.8050 H   0  0  0  0  0  0  0  0  0  0  0  0
  -18.3050  -28.0240   22.8790 C   0  0  0  0  0  0  0  0  0  0  0  0
  -20.8390  -28.3900   23.2370 C   0  0  0  0  0  3  0  0  0  0  0  0
  -21.0230  -26.9700   22.6510 C   0  0  0  0  0  2  0  0  0  0  0  0
  -19.9700  -26.6130   21.5970 C   0  0  0  0  0  2  0  0  0  0  0  0
  -18.5630  -26.6900   22.1970 C   0  0  0  0  0  2  0  0  0  0  0  0
  -19.3740  -28.8300   23.3540 C   0  0  0  0  0  0  0  0  0  0  0  0
  -19.0820  -30.0770   23.9480 C   0  0  0  0  0  3  0  0  0  0  0  0
  -17.7520  -30.5190   24.0740 C   0  0  0  0  0  3  0  0  0  0  0  0
  -16.6960  -29.7110   23.6180 C   0  0  0  0  0  3  0  0  0  0  0  0
  -16.9740  -28.4650   23.0260 C   0  0  0  0  0  3  0  0  0  0  0  0
  -25.9700  -32.7350   24.0900 C   0  0  0  0  0  3  0  0  0  0  0  0
  -25.6420  -34.1410   24.3580 N   0  0  0  0  0  0  0  0  0  0  0  0
  -25.9990  -35.1680   23.5750 C   0  0  0  0  0  0  0  0  0  0  0  0
  -26.7080  -35.0340   22.5740 O   0  0  0  0  0  0  0  0  0  0  0  0
  -25.0150  -34.3220   25.1290 H   0  0  0  0  0  0  0  0  0  0  0  0
  -24.2660  -36.9290   23.1040 C   0  0  0  0  0  1  0  0  0  0  0  0
  -25.4870  -36.5680   23.9660 C   0  0  0  0  0  3  0  0  0  0  0  0
  -27.5820  -37.5110   24.8310 C   0  0  0  0  0  1  0  0  0  0  0  0
  -26.5130  -37.6260   23.8430 N   0  0  0  0  0  0  0  0  0  0  0  0
  -26.0930  -38.5470   23.9350 H   0  0  0  0  0  0  0  0  0  0  0  0
  -26.4390  -32.0080   25.4110 C   0  0  1  0  0  0  0  0  0  0  0  0
  -25.2980  -31.7700   26.4270 C   0  0  0  0  0  1  0  0  0  0  0  0
  -27.0720  -30.6340   25.0820 C   0  0  0  0  0  1  0  0  0  0  0  0
  -27.5370  -32.8450   26.1080 C   0  0  0  0  0  1  0  0  0  0  0  0
  1  3  1  0
  1 47  1  0
  1  4  1  0
  2  3  1  0
  5  4  2  0
  5  6  1  0
  7  6  1  0
  7  8  1  0
  9 17  1  0
 10 15  1  0
 11 12  1  0
 11 10  1  0
 13 12  1  0
 13 22  1  0
 13 14  1  0
 15  9  1  0
 15 14  1  0
 16  9  2  0
 17  8  1  0
 17 18  1  0
 19 20  2  0
 20 39  1  0
 21 20  1  0
 21 24  1  0
 22 19  1  0
 22 23  1  0
 23 21  2  0
 24 25  1  0
 25 26  2  0
 27 30  1  0
 27 26  1  0
 28 27  2  0
 29 28  1  0
 29 24  2  0
 30 31  1  0
 31 36  2  0
 31 32  1  0
 32 33  2  0
 33 34  1  0
 34 38  1  0
 35 34  2  0
 36 35  1  0
 37 36  1  0
 39 40  1  0
 40 43  1  0
 40 42  1  0
 41 39  2  0
 44 45  1  0
 44 19  1  0
 46 44  1  0
 48 49  1  0
 48 47  1  0
 50 61  2  0
 51 49  1  0
 51 56  1  0
 52 60  1  0
 52 62  1  0
 53 59  1  0
 53 55  1  0
 54 60  1  0
 55 54  1  0
 56 55  2  0
 57 58  1  0
 57 51  2  0
 58 53  2  0
 59 52  1  0
 60 50  1  0
 62 64  2  0
 63 62  1  0
 65 63  1  0
 66 75  2  0
 66 71  1  0
 67 63  1  0
 67 71  1  0
 68 67  1  0
 69 70  1  0
 69 68  1  0
 70 66  1  0
 71 72  2  0
 72 73  1  0
 74 73  2  0
 75 74  1  0
 76 50  1  0
 76 77  1  0
 76 86  1  0
 77 80  1  0
 78 82  1  0
 78 77  1  0
 79 78  2  0
 82 81  1  0
 84 85  1  0
 84 82  1  0
 84 83  1  0
 86 89  1  1
 86 87  1  0
 88 86  1  0
M  ISO  4   9 100  17 100  48 101  49 101
M  END
>  <TORSDO>  (20) 
F 24

>  <SCORE>  (20) 
-11.949

>  <name>  (20) 
19

>  <ligand_id>  (20) 
19

>  <original_smiles>  (20) 
[H]c1c([H])c([H])c2c(c1[H])C([H])([H])C([H])([H])C([H])([H])C2([H])N([H])C(=O)C1([H])N(C(=O)C([H])(N([H])C(=O)C([H])(N([H])C([H])([H])[H])C([H])([H])[H])C(C([H])([H])[H])(C([H])([H])[H])C([H])([H])[H])C([H])([H])c2c([H])c(OC([H])([H])C([H])([H])C([H])(C([H])([H])C([H])([H])[H])C([H])([H])C([H])([H])C([H])([H])C([H])([H])C([H])([H])N([H])C(=O)N3C([H])([H])C([H])([H])C([H])([H])C([H])(n4nc(-c5c([H])c([H])c(Oc6c([H])c([H])c(F)c([H])c6F)c([H])c5[H])c(C(=O)N([H])[H])c4N([H])[H])C3([H])[H])c([H])c([H])c2C1([H])[H]

>  <smiles>  (20) 
[H]c1c([H])c([H])c2c(c1[H])C([H])([H])C([H])([H])C([H])([H])C2([H])N([H])C(=O)C1([H])N(C(=O)C([H])(N([H])C(=O)C([H])(N([H])C([H])([H])[H])C([H])([H])[H])C(C([H])([H])[H])(C([H])([H])[H])C([H])([H])[H])C([H])([H])c2c([H])c(OC([H])([H])C([H])([H])C([H])(C([H])([H])C([H])([H])[H])C([H])([H])C([H])([H])C([H])([H])C([H])([H])C([H])([H])N([H])C(=O)N3C([H])([H])C([H])([H])C([H])([H])C([H])(n4nc(-c5c([H])c([H])c(Oc6c([H])c([H])c(F)c([H])c6F)c([H])c5[H])c(C(=O)N([H])[H])c4N([H])[H])C3([H])[H])c([H])c([H])c2C1([H])[H]

$$$$
20:0:0
     RDKit          3D

 90 93  0  0  1  0  0  0  0  0999 V2000
  -29.2310  -17.2560   18.8930 C   0  0  0  0  0  1  0  0  0  0  0  0
  -28.1070  -18.0020   20.6810 C   0  0  0  0  0  2  0  0  0  0  0  0
  -28.8000  -19.0230   19.6700 C   0  0  0  0  0  1  0  0  0  0  0  0
  -28.9830  -15.4260   19.5680 C   0  0  0  0  0  2  0  0  0  0  0  0
  -28.8500  -16.5040   20.8900 C   0  0  0  0  0  3  0  0  0  0  0  0
  -29.5910  -11.3470   18.3480 C   0  0  0  0  0  1  0  0  0  0  0  0
  -29.3340  -12.4200   19.5040 C   0  0  0  0  0  1  0  0  0  0  0  0
  -29.7580  -21.4530   18.6070 C   0  0  0  0  0  1  0  0  0  0  0  0
  -28.4380  -21.1050   19.3050 C   0  0  0  0  0  1  0  0  0  0  0  0
  -27.8560  -23.0640   19.9350 C   0  0  0  0  0 15  0  0  0  0  0  0
  -27.9730  -24.9830   19.8240 O   0  0  0  0  0  1  0  0  0  0  0  0
  -24.6570  -31.7260   22.9620 C   0  0  0  0  0  0  0  0  0  0  0  0
  -27.0770  -26.3500   19.9310 C   0  0  0  0  0  0  0  0  0  0  0  0
  -23.4660  -30.3090   21.3590 C   0  0  0  0  0  3  0  0  0  0  0  0
  -24.8820  -28.5970   19.9540 C   0  0  0  0  0  0  0  0  0  0  0  0
  -26.0600  -30.3470   21.2420 C   0  0  0  0  0  2  0  0  0  0  0  0
  -26.1010  -28.8810   20.5780 C   0  0  0  0  0  0  0  0  0  0  0  0
  -27.1770  -27.7950   20.5230 C   0  0  0  0  0  3  0  0  0  0  0  0
  -25.8170  -26.3570   19.2760 C   0  0  0  0  0  3  0  0  0  0  0  0
  -24.7960  -27.3640   19.2830 C   0  0  0  0  0  3  0  0  0  0  0  0
  -23.7010  -29.5920   19.9980 C   0  0  0  0  0  2  0  0  0  0  0  0
  -24.7590  -30.8350   21.9050 N   0  0  0  0  0  0  0  0  0  0  0  0
  -23.5600  -32.0410   23.4600 O   0  0  0  0  0  0  0  0  0  0  0  0
  -22.7370  -29.3580   22.3480 C   0  0  0  0  0  0  0  0  0  0  0  0
  -21.3960  -29.2450   22.2640 N   0  0  0  0  0  0  0  0  0  0  0  0
  -23.3940  -28.7160   23.1720 O   0  0  0  0  0  0  0  0  0  0  0  0
  -20.9130  -29.8100   21.5800 H   0  0  0  0  0  0  0  0  0  0  0  0
  -17.9940  -28.1130   22.8920 C   0  0  0  0  0  0  0  0  0  0  0  0
  -20.5690  -28.3230   23.0570 C   0  0  0  0  0  3  0  0  0  0  0  0
  -20.6130  -26.8940   22.4660 C   0  0  0  0  0  2  0  0  0  0  0  0
  -19.4670  -26.6100   21.4880 C   0  0  0  0  0  2  0  0  0  0  0  0
  -18.1140  -26.7730   22.1860 C   0  0  0  0  0  2  0  0  0  0  0  0
  -19.1440  -28.8490   23.2860 C   0  0  0  0  0  0  0  0  0  0  0  0
  -18.9710  -30.0990   23.9170 C   0  0  0  0  0  3  0  0  0  0  0  0
  -17.6830  -30.6170   24.1510 C   0  0  0  0  0  3  0  0  0  0  0  0
  -16.5490  -29.8800   23.7680 C   0  0  0  0  0  3  0  0  0  0  0  0
  -16.7050  -28.6300   23.1450 C   0  0  0  0  0  3  0  0  0  0  0  0
  -25.9070  -32.4050   23.5990 C   0  0  0  0  0  3  0  0  0  0  0  0
  -26.4440  -31.6340   24.8690 C   0  0  1  0  0  0  0  0  0  0  0  0
  -25.3640  -31.3690   25.9460 C   0  0  0  0  0  1  0  0  0  0  0  0
  -27.0480  -30.2680   24.4770 C   0  0  0  0  0  1  0  0  0  0  0  0
  -27.5880  -32.4410   25.5260 C   0  0  0  0  0  1  0  0  0  0  0  0
  -25.5470  -33.7890   23.9840 N   0  0  0  0  0  0  0  0  0  0  0  0
  -25.8630  -34.8960   23.3000 C   0  0  0  0  0  0  0  0  0  0  0  0
  -26.5400  -34.8650   22.2710 O   0  0  0  0  0  0  0  0  0  0  0  0
  -24.9410  -33.8830   24.7860 H   0  0  0  0  0  0  0  0  0  0  0  0
  -24.1130  -36.6970   23.0520 C   0  0  0  0  0  1  0  0  0  0  0  0
  -25.3560  -36.2550   23.8390 C   0  0  0  0  0  3  0  0  0  0  0  0
  -27.4750  -37.1300   24.7280 C   0  0  0  0  0  1  0  0  0  0  0  0
  -26.3740  -37.3290   23.7900 N   0  0  0  0  0  0  0  0  0  0  0  0
  -25.9520  -38.2340   23.9830 H   0  0  0  0  0  0  0  0  0  0  0  0
  -30.1950  -16.8030   21.6480 C   0  0  0  0  0  2  0  0  0  0  0  0
  -31.4460  -14.7880   21.3280 C   0  0  0  0  0  0  0  0  0  0  0  0
  -31.0200  -13.8690   19.1160 C   0  0  0  0  0  2  0  0  0  0  0  0
  -29.6440  -13.7640   17.8120 C   0  0  0  0  0  3  0  0  0  0  0  0
  -27.8470  -13.5390   18.4020 C   0  0  0  0  0  3  0  0  0  0  0  0
  -27.5610  -13.6620   20.2740 C   0  0  0  0  0  0  0  0  0  0  0  0
  -28.9890  -13.7270   21.4790 C   0  0  0  0  0  3  0  0  0  0  0  0
  -30.5890  -13.9700   20.8140 N   0  0  0  0  0  0  0  0  0  0  0  0
  -32.5750  -14.8800   20.8670 O   0  0  0  0  0  0  0  0  0  0  0  0
  -30.9320  -15.6600   22.1890 N   0  0  0  0  0  0  0  0  0  0  0  0
  -31.6190  -15.9660   22.8640 H   0  0  0  0  0  0  0  0  0  0  0  0
  -25.2320  -13.8850   20.7230 C   0  0  0  0  0  0  0  0  0  0  0  0
  -24.2470  -13.0430   21.0590 C   0  0  0  0  0  0  0  0  0  0  0  0
  -24.7920  -11.7210   21.0190 C   0  0  0  0  0  0  0  0  0  0  0  0
  -26.3370  -13.0870   20.6230 N   0  0  0  0  0  0  0  0  0  0  0  0
  -26.1020  -11.7580   20.7710 N   0  0  0  0  0  0  0  0  0  0  0  0
  -24.0910  -10.4460   21.1600 C   0  0  0  0  0  0  0  0  0  0  0  0
  -24.4970   -9.4630   22.0870 C   0  0  0  0  0  3  0  0  0  0  0  0
  -23.7460   -8.2770   22.2390 C   0  0  0  0  0  3  0  0  0  0  0  0
  -22.5800   -8.0730   21.4640 C   0  0  0  0  0  0  0  0  0  0  0  0
  -22.1980   -9.0440   20.5220 C   0  0  0  0  0  3  0  0  0  0  0  0
  -22.9490  -10.2180   20.3670 C   0  0  0  0  0  3  0  0  0  0  0  0
  -21.7970   -6.9470   21.5280 O   0  0  0  0  0  0  0  0  0  0  0  0
  -21.7180   -6.1920   22.6700 C   0  0  0  0  0  0  0  0  0  0  0  0
  -21.2900   -6.7420   23.8980 C   0  0  0  0  0  3  0  0  0  0  0  0
  -21.1560   -5.9130   25.0300 C   0  0  0  0  0  3  0  0  0  0  0  0
  -21.4420   -4.5370   24.9340 C   0  0  0  0  0  0  0  0  0  0  0  0
  -21.8640   -3.9890   23.7100 C   0  0  0  0  0  3  0  0  0  0  0  0
  -21.9990   -4.8150   22.5810 C   0  0  0  0  0  0  0  0  0  0  0  0
  -22.3860   -4.2790   21.3970 F   0  0  0  0  0  0  0  0  0  0  0  0
  -21.3060   -3.7400   26.0190 F   0  0  0  0  0  0  0  0  0  0  0  0
  -22.8580  -13.5040   21.3060 C   0  0  0  0  0  0  0  0  0  0  0  0
  -22.1510  -12.8210   22.1890 N   0  0  0  0  0  0  0  0  0  0  0  0
  -22.4320  -14.5320   20.7790 O   0  0  0  0  0  0  0  0  0  0  0  0
  -22.5310  -12.0030   22.6420 H   0  0  0  0  0  0  0  0  0  0  0  0
  -21.2130  -13.1190   22.4200 H   0  0  0  0  0  0  0  0  0  0  0  0
  -25.2540  -15.2700   20.5010 N   0  0  0  0  0  0  0  0  0  0  0  0
  -24.4010  -15.8190   20.5220 H   0  0  0  0  0  0  0  0  0  0  0  0
  -26.0600  -15.7910   20.1820 H   0  0  0  0  0  0  0  0  0  0  0  0
  1  4  1  0
  2  5  1  0
  3  2  1  0
  4  5  1  0
  5 52  1  0
  6  7  1  0
  8  9  1  0
 11 13  1  0
 12 23  2  0
 13 18  1  0
 14 22  1  0
 14 24  1  0
 15 21  1  0
 15 17  1  0
 16 22  1  0
 17 16  1  0
 18 17  2  0
 19 20  1  0
 19 13  2  0
 20 15  2  0
 21 14  1  0
 22 12  1  0
 24 26  2  0
 25 24  1  0
 27 25  1  0
 28 37  2  0
 28 33  1  0
 29 25  1  0
 29 33  1  0
 30 29  1  0
 31 32  1  0
 31 30  1  0
 32 28  1  0
 33 34  2  0
 34 35  1  0
 36 35  2  0
 37 36  1  0
 38 12  1  0
 38 43  1  0
 38 39  1  0
 39 42  1  1
 39 40  1  0
 41 39  1  0
 43 46  1  0
 44 48  1  0
 44 43  1  0
 45 44  2  0
 48 47  1  0
 50 48  1  0
 50 51  1  0
 50 49  1  0
 52 61  1  0
 53 61  1  0
 54 59  1  0
 55 56  2  0
 55 54  1  0
 56 57  1  0
 57 66  1  0
 57 58  2  0
 59 53  1  0
 59 58  1  0
 60 53  2  0
 61 62  1  0
 63 64  2  0
 64 83  1  0
 65 64  1  0
 65 68  1  0
 66 63  1  0
 66 67  1  0
 67 65  2  0
 68 69  1  0
 69 70  2  0
 71 74  1  0
 71 70  1  0
 72 71  2  0
 73 72  1  0
 73 68  2  0
 74 75  1  0
 75 76  1  0
 76 77  2  0
 78 77  1  0
 78 82  1  0
 79 78  2  0
 80 75  2  0
 80 79  1  0
 81 80  1  0
 83 84  1  0
 84 87  1  0
 84 86  1  0
 85 83  2  0
 88 89  1  0
 88 63  1  0
 90 88  1  0
M  ISO  4  10 101  11 101  53 100  61 100
M  END
>  <TORSDO>  (21) 
F 20

>  <SCORE>  (21) 
-14.729

>  <name>  (21) 
20

>  <ligand_id>  (21) 
20

>  <original_smiles>  (21) 
[H]c1c([H])c([H])c2c(c1[H])C([H])([H])C([H])([H])C([H])([H])C2([H])N([H])C(=O)C1([H])N(C(=O)C([H])(N([H])C(=O)C([H])(N([H])C([H])([H])[H])C([H])([H])[H])C(C([H])([H])[H])(C([H])([H])[H])C([H])([H])[H])C([H])([H])c2c([H])c(OC([H])([H])C([H])(C([H])([H])[H])C3([H])C([H])([H])C([H])(C([H])([H])N([H])C(=O)N4C([H])([H])C([H])([H])C([H])([H])C([H])(n5nc(-c6c([H])c([H])c(Oc7c([H])c([H])c(F)c([H])c7F)c([H])c6[H])c(C(=O)N([H])[H])c5N([H])[H])C4([H])[H])C([H])(C([H])([H])C([H])([H])[H])C3([H])[H])c([H])c([H])c2C1([H])[H]

>  <smiles>  (21) 
[H]c1c([H])c([H])c2c(c1[H])C([H])([H])C([H])([H])C([H])([H])C2([H])N([H])C(=O)C1([H])N(C(=O)C([H])(N([H])C(=O)C([H])(N([H])C([H])([H])[H])C([H])([H])[H])C(C([H])([H])[H])(C([H])([H])[H])C([H])([H])[H])C([H])([H])c2c([H])c(OC([H])([H])C([H])(C([H])([H])[H])C3([H])C([H])([H])C([H])(C([H])([H])N([H])C(=O)N4C([H])([H])C([H])([H])C([H])([H])C([H])(n5nc(-c6c([H])c([H])c(Oc7c([H])c([H])c(F)c([H])c7F)c([H])c6[H])c(C(=O)N([H])[H])c5N([H])[H])C4([H])[H])C([H])(C([H])([H])C([H])([H])[H])C3([H])[H])c([H])c([H])c2C1([H])[H]

$$$$
21:0:0
     RDKit          3D

 91 99  0  0  1  0  0  0  0  0999 V2000
  -30.1880  -20.3820   21.5980 C   0  0  0  0  0  0  0  0  0  0  0  0
  -30.2110  -20.4150   22.8310 O   0  0  0  0  0  0  0  0  0  0  0  0
  -31.0800  -15.2310   20.8360 C   0  0  0  0  0  0  0  0  0  0  0  0
  -30.8860  -12.9680   19.7810 C   0  0  0  0  0  2  0  0  0  0  0  0
  -30.0270  -12.9500   18.4980 C   0  0  0  0  0  2  0  0  0  0  0  0
  -28.5320  -12.7890   18.8410 C   0  0  0  0  0  2  0  0  0  0  0  0
  -28.0700  -13.7060   19.9970 C   0  0  0  0  0  3  0  0  0  0  0  0
  -29.0600  -13.7060   21.1870 C   0  0  0  0  0  2  0  0  0  0  0  0
  -30.3870  -14.0500   20.6630 N   0  0  0  0  0  0  0  0  0  0  0  0
  -32.3070  -15.2300   20.7060 O   0  0  0  0  0  0  0  0  0  0  0  0
  -28.9570  -18.3790   20.5920 C   0  0  0  0  0  2  0  0  0  0  0  0
  -31.0310  -17.7370   21.4970 C   0  0  0  0  0  2  0  0  0  0  0  0
  -30.3180  -18.9950   20.8440 C   0  0  0  0  0  3  0  0  0  0  0  0
  -29.2410  -16.9120   20.2150 C   0  0  0  0  0  3  0  0  0  0  0  0
  -30.4140  -16.4540   20.9930 N   0  0  0  0  0  0  0  0  0  0  0  0
  -25.6570  -14.3340   20.6250 C   0  0  0  0  0  0  0  0  0  0  0  0
  -24.5620  -13.5660   20.9090 C   0  0  0  0  0  0  0  0  0  0  0  0
  -25.0140  -12.2120   20.8700 C   0  0  0  0  0  0  0  0  0  0  0  0
  -26.7020  -13.4450   20.4200 N   0  0  0  0  0  0  0  0  0  0  0  0
  -26.3190  -12.1640   20.6400 N   0  0  0  0  0  0  0  0  0  0  0  0
  -24.2710  -10.9540   20.9760 C   0  0  0  0  0  0  0  0  0  0  0  0
  -24.6220   -9.9670   21.9220 C   0  0  0  0  0  3  0  0  0  0  0  0
  -23.8810   -8.7710   22.0150 C   0  0  0  0  0  3  0  0  0  0  0  0
  -22.7760   -8.5550   21.1580 C   0  0  0  0  0  0  0  0  0  0  0  0
  -22.4460   -9.5310   20.2000 C   0  0  0  0  0  3  0  0  0  0  0  0
  -23.1880  -10.7190   20.1070 C   0  0  0  0  0  3  0  0  0  0  0  0
  -22.0130   -7.4130   21.1560 O   0  0  0  0  0  0  0  0  0  0  0  0
  -21.8220   -6.6770   22.2970 C   0  0  0  0  0  0  0  0  0  0  0  0
  -21.2290   -7.2320   23.4530 C   0  0  0  0  0  3  0  0  0  0  0  0
  -20.9910   -6.4220   24.5810 C   0  0  0  0  0  3  0  0  0  0  0  0
  -21.3350   -5.0570   24.5520 C   0  0  0  0  0  0  0  0  0  0  0  0
  -21.9190   -4.5010   23.4010 C   0  0  0  0  0  3  0  0  0  0  0  0
  -22.1600   -5.3090   22.2760 C   0  0  0  0  0  0  0  0  0  0  0  0
  -22.7060   -4.7640   21.1610 F   0  0  0  0  0  0  0  0  0  0  0  0
  -21.0970   -4.2770   25.6320 F   0  0  0  0  0  0  0  0  0  0  0  0
  -23.1560  -14.0530   21.1030 C   0  0  0  0  0  0  0  0  0  0  0  0
  -22.3690  -13.3470   21.9070 N   0  0  0  0  0  0  0  0  0  0  0  0
  -22.7600  -15.0950   20.5790 O   0  0  0  0  0  0  0  0  0  0  0  0
  -22.6980  -12.5020   22.3500 H   0  0  0  0  0  0  0  0  0  0  0  0
  -21.4260  -13.6600   22.0850 H   0  0  0  0  0  0  0  0  0  0  0  0
  -25.8350  -15.7080   20.4950 N   0  0  0  0  0  0  0  0  0  0  0  0
  -25.0620  -16.3580   20.5870 H   0  0  0  0  0  0  0  0  0  0  0  0
  -26.6940  -16.1540   20.2030 H   0  0  0  0  0  0  0  0  0  0  0  0
  -29.4920  -16.7940   18.6860 C   0  0  0  0  0  2  0  0  0  0  0  0
  -29.5030  -18.0320   16.4700 C   0  0  0  0  0  1  0  0  0  0  0  0
  -28.7830  -17.8390   17.8100 C   0  0  0  0  0  2  0  0  0  0  0  0
  -30.0220  -21.7210   20.7730 C   0  0  0  0  0  3  0  0  0  0  0  0
  -29.4870  -23.0410   21.5010 C   0  0  0  0  0  3  0  0  0  0  0  0
  -29.5050  -24.4270   20.7020 C   0  0  0  0  0  3  0  0  0  0  0  0
  -28.7670  -25.6840   21.3460 C   0  0  0  0  0  3  0  0  0  0  0  0
  -28.8610  -27.0010   20.6800 O   0  0  0  0  0  0  0  0  0  0  0  0
  -24.8060  -32.2130   23.5690 C   0  0  0  0  0  0  0  0  0  0  0  0
  -27.7020  -27.7800   20.6260 C   0  0  0  0  0  0  0  0  0  0  0  0
  -23.7090  -30.7560   21.9020 C   0  0  0  0  0  3  0  0  0  0  0  0
  -25.2660  -29.2630   20.5270 C   0  0  0  0  0  0  0  0  0  0  0  0
  -26.2320  -31.1930   21.7820 C   0  0  0  0  0  2  0  0  0  0  0  0
  -26.3910  -29.8170   21.1500 C   0  0  0  0  0  0  0  0  0  0  0  0
  -27.6160  -29.0910   21.1840 C   0  0  0  0  0  3  0  0  0  0  0  0
  -26.5570  -27.2690   19.9790 C   0  0  0  0  0  3  0  0  0  0  0  0
  -25.3500  -27.9950   19.9280 C   0  0  0  0  0  3  0  0  0  0  0  0
  -23.9900  -30.0810   20.5330 C   0  0  0  0  0  2  0  0  0  0  0  0
  -24.9320  -31.4050   22.4760 N   0  0  0  0  0  0  0  0  0  0  0  0
  -23.6990  -32.4460   24.0740 O   0  0  0  0  0  0  0  0  0  0  0  0
  -23.0650  -29.7180   22.8500 C   0  0  0  0  0  0  0  0  0  0  0  0
  -21.7720  -29.4220   22.6330 N   0  0  0  0  0  0  0  0  0  0  0  0
  -23.7290  -29.1800   23.7390 O   0  0  0  0  0  0  0  0  0  0  0  0
  -21.2930  -29.9110   21.8900 H   0  0  0  0  0  0  0  0  0  0  0  0
  -18.4840  -27.9450   22.9150 C   0  0  0  0  0  0  0  0  0  0  0  0
  -20.9790  -28.4420   23.3760 C   0  0  0  0  0  3  0  0  0  0  0  0
  -21.2520  -27.0070   22.8690 C   0  0  0  0  0  2  0  0  0  0  0  0
  -20.2680  -26.5510   21.7860 C   0  0  0  0  0  2  0  0  0  0  0  0
  -18.8310  -26.5940   22.3120 C   0  0  0  0  0  2  0  0  0  0  0  0
  -19.4930  -28.8180   23.4000 C   0  0  0  0  0  0  0  0  0  0  0  0
  -19.1170  -30.0770   23.9200 C   0  0  0  0  0  3  0  0  0  0  0  0
  -17.7640  -30.4630   23.9630 C   0  0  0  0  0  3  0  0  0  0  0  0
  -16.7680  -29.5880   23.4960 C   0  0  0  0  0  3  0  0  0  0  0  0
  -17.1290  -28.3320   22.9760 C   0  0  0  0  0  3  0  0  0  0  0  0
  -26.0460  -32.9000   24.2230 C   0  0  0  0  0  3  0  0  0  0  0  0
  -26.5290  -32.1820   25.5430 C   0  0  1  0  0  0  0  0  0  0  0  0
  -25.3830  -31.8720   26.5350 C   0  0  0  0  0  1  0  0  0  0  0  0
  -27.2380  -30.8490   25.2120 C   0  0  0  0  0  1  0  0  0  0  0  0
  -27.5650  -33.0680   26.2720 C   0  0  0  0  0  1  0  0  0  0  0  0
  -25.6860  -34.2980   24.4980 N   0  0  0  0  0  0  0  0  0  0  0  0
  -25.9990  -35.3350   23.7080 C   0  0  0  0  0  0  0  0  0  0  0  0
  -26.6910  -35.2160   22.6920 O   0  0  0  0  0  0  0  0  0  0  0  0
  -25.0780  -34.4630   25.2860 H   0  0  0  0  0  0  0  0  0  0  0  0
  -24.2070  -37.0440   23.2720 C   0  0  0  0  0  1  0  0  0  0  0  0
  -25.4590  -36.7210   24.1050 C   0  0  0  0  0  3  0  0  0  0  0  0
  -27.5600  -37.7120   24.8990 C   0  0  0  0  0  1  0  0  0  0  0  0
  -26.4530  -37.8060   23.9520 N   0  0  0  0  0  0  0  0  0  0  0  0
  -26.0150  -38.7160   24.0660 H   0  0  0  0  0  0  0  0  0  0  0  0
  1  2  2  0
  3 15  1  0
  4  9  1  0
  5  6  1  0
  5  4  1  0
  7  6  1  0
  7 19  1  0
  7  8  1  0
  9  3  1  0
  9  8  1  0
 10  3  2  0
 11 13  1  0
 13 12  1  0
 13  1  1  0
 14 44  1  0
 14 11  1  0
 14 15  1  0
 15 12  1  0
 16 17  2  0
 17 36  1  0
 18 17  1  0
 18 21  1  0
 19 16  1  0
 19 20  1  0
 20 18  2  0
 21 22  1  0
 22 23  2  0
 24 23  1  0
 25 24  2  0
 26 25  1  0
 26 21  2  0
 27 24  1  0
 27 28  1  0
 28 29  1  0
 29 30  2  0
 31 30  1  0
 31 35  1  0
 32 31  2  0
 33 28  2  0
 33 32  1  0
 34 33  1  0
 36 37  1  0
 37 40  1  0
 37 39  1  0
 38 36  2  0
 41 42  1  0
 41 16  1  0
 43 41  1  0
 45 46  1  0
 46 44  1  0
 47 48  2  0
 47  1  1  0
 49 50  2  0
 49 48  1  0
 51 50  1  0
 52 63  2  0
 53 51  1  0
 53 58  1  0
 54 62  1  0
 54 64  1  0
 55 61  1  0
 55 57  1  0
 56 62  1  0
 57 58  2  0
 57 56  1  0
 59 53  2  0
 60 59  1  0
 60 55  2  0
 61 54  1  0
 62 52  1  0
 64 66  2  0
 65 64  1  0
 67 65  1  0
 68 77  2  0
 68 73  1  0
 69 65  1  0
 69 73  1  0
 70 69  1  0
 71 72  1  0
 71 70  1  0
 72 68  1  0
 73 74  2  0
 74 75  1  0
 76 75  2  0
 77 76  1  0
 78 52  1  0
 78 83  1  0
 78 79  1  0
 79 82  1  1
 79 80  1  0
 81 79  1  0
 83 86  1  0
 84 88  1  0
 84 83  1  0
 85 84  2  0
 88 87  1  0
 90 91  1  0
 90 88  1  0
 90 89  1  0
M  ISO  4   3 100  15 100  50 101  51 101
M  END
>  <TORSDO>  (22) 
F 22

>  <SCORE>  (22) 
-11.402

>  <name>  (22) 
21

>  <ligand_id>  (22) 
21

>  <original_smiles>  (22) 
[H]c1c([H])c([H])c2c(c1[H])C([H])([H])C([H])([H])C([H])([H])C2([H])N([H])C(=O)C1([H])N(C(=O)C([H])(N([H])C(=O)C([H])(N([H])C([H])([H])[H])C([H])([H])[H])C(C([H])([H])[H])(C([H])([H])[H])C([H])([H])[H])C([H])([H])c2c([H])c(OC([H])([H])C([H])([H])C([H])([H])C([H])([H])C(=O)C3([H])C([H])([H])N(C(=O)N4C([H])([H])C([H])([H])C([H])([H])C([H])(n5nc(-c6c([H])c([H])c(Oc7c([H])c([H])c(F)c([H])c7F)c([H])c6[H])c(C(=O)N([H])[H])c5N([H])[H])C4([H])[H])C([H])(C([H])([H])C([H])([H])C([H])([H])[H])C3([H])[H])c([H])c([H])c2C1([H])[H]

>  <smiles>  (22) 
[H]c1c([H])c([H])c2c(c1[H])C([H])([H])C([H])([H])C([H])([H])C2([H])N([H])C(=O)C1([H])N(C(=O)C([H])(N([H])C(=O)C([H])(N([H])C([H])([H])[H])C([H])([H])[H])C(C([H])([H])[H])(C([H])([H])[H])C([H])([H])[H])C([H])([H])c2c([H])c(OC([H])([H])C([H])([H])C([H])([H])C([H])([H])C(=O)C3([H])C([H])([H])N(C(=O)N4C([H])([H])C([H])([H])C([H])([H])C([H])(n5nc(-c6c([H])c([H])c(Oc7c([H])c([H])c(F)c([H])c7F)c([H])c6[H])c(C(=O)N([H])[H])c5N([H])[H])C4([H])[H])C([H])(C([H])([H])C([H])([H])C([H])([H])[H])C3([H])[H])c([H])c([H])c2C1([H])[H]

$$$$
22:0:0
     RDKit          3D

 93100  0  0  1  0  0  0  0  0999 V2000
  -29.2330  -23.8570   20.1520 C   0  0  0  0  0  3  0  0  0  0  0  0
  -29.9350  -23.9410   18.7890 C   0  0  0  0  0  0  0  0  0  0  0  0
  -31.1660  -24.4390   18.7410 N   0  0  0  0  0  0  0  0  0  0  0  0
  -29.3770  -23.5290   17.7730 O   0  0  0  0  0  0  0  0  0  0  0  0
  -31.6290  -24.7690   19.5770 H   0  0  0  0  0  0  0  0  0  0  0  0
  -31.6580  -24.4960   17.8600 H   0  0  0  0  0  0  0  0  0  0  0  0
  -28.7820  -22.4120   20.4380 N   0  0  0  0  0  4  0  0  0  0  0  0
  -28.5620  -22.3570   21.4180 H   0  0  0  0  0  0  0  0  0  0  0  0
  -27.9180  -22.2740   19.9360 H   0  0  0  0  0  0  0  0  0  0  0  0
  -29.6570  -21.2060   20.0760 C   0  0  0  0  0  2  0  0  0  0  0  0
  -29.4060  -19.8230   20.8560 C   0  0  0  0  0  2  0  0  0  0  0  0
  -29.7980  -18.4140   20.1850 C   0  0  0  0  0  2  0  0  0  0  0  0
  -30.1950  -17.1800   21.1300 C   0  0  0  0  0  2  0  0  0  0  0  0
  -30.6010  -14.6710   20.4350 C   0  0  0  0  0  0  0  0  0  0  0  0
  -30.3700  -12.4310   19.3660 C   0  0  0  0  0  2  0  0  0  0  0  0
  -29.4280  -12.5430   18.1470 C   0  0  0  0  0  2  0  0  0  0  0  0
  -27.9540  -12.3900   18.5750 C   0  0  0  0  0  2  0  0  0  0  0  0
  -27.5940  -13.2650   19.8060 C   0  0  0  0  0  3  0  0  0  0  0  0
  -28.6520  -13.1300   20.9230 C   0  0  0  0  0  2  0  0  0  0  0  0
  -29.9570  -13.4640   20.3350 N   0  0  0  0  0  0  0  0  0  0  0  0
  -31.7830  -14.7950   20.1050 O   0  0  0  0  0  0  0  0  0  0  0  0
  -29.8260  -15.7620   20.7450 N   0  0  0  0  0  0  0  0  0  0  0  0
  -28.8570  -15.5290   20.8970 H   0  0  0  0  0  0  0  0  0  0  0  0
  -25.2060  -13.8790   20.5220 C   0  0  0  0  0  0  0  0  0  0  0  0
  -24.1340  -13.1130   20.8940 C   0  0  0  0  0  0  0  0  0  0  0  0
  -24.5890  -11.7590   20.8710 C   0  0  0  0  0  0  0  0  0  0  0  0
  -26.2450  -12.9910   20.2930 N   0  0  0  0  0  0  0  0  0  0  0  0
  -25.8800  -11.7120   20.5660 N   0  0  0  0  0  0  0  0  0  0  0  0
  -23.8540  -10.5020   21.0650 C   0  0  0  0  0  0  0  0  0  0  0  0
  -24.2930   -9.5260   21.9870 C   0  0  0  0  0  3  0  0  0  0  0  0
  -23.5590   -8.3340   22.1700 C   0  0  0  0  0  3  0  0  0  0  0  0
  -22.3720   -8.1100   21.4330 C   0  0  0  0  0  0  0  0  0  0  0  0
  -21.9530   -9.0750   20.5000 C   0  0  0  0  0  3  0  0  0  0  0  0
  -22.6860  -10.2580   20.3140 C   0  0  0  0  0  3  0  0  0  0  0  0
  -21.6090   -6.9710   21.5260 O   0  0  0  0  0  0  0  0  0  0  0  0
  -21.5910   -6.2090   22.6660 C   0  0  0  0  0  0  0  0  0  0  0  0
  -21.2220   -6.7490   23.9180 C   0  0  0  0  0  3  0  0  0  0  0  0
  -21.1480   -5.9160   25.0510 C   0  0  0  0  0  3  0  0  0  0  0  0
  -21.4320   -4.5420   24.9350 C   0  0  0  0  0  0  0  0  0  0  0  0
  -21.7940   -4.0000   23.6880 C   0  0  0  0  0  3  0  0  0  0  0  0
  -21.8710   -4.8320   22.5580 C   0  0  0  0  0  0  0  0  0  0  0  0
  -22.1990   -4.3020   21.3540 F   0  0  0  0  0  0  0  0  0  0  0  0
  -21.3540   -3.7380   26.0210 F   0  0  0  0  0  0  0  0  0  0  0  0
  -22.7390  -13.6000   21.1580 C   0  0  0  0  0  0  0  0  0  0  0  0
  -22.0050  -12.9150   22.0280 N   0  0  0  0  0  0  0  0  0  0  0  0
  -22.3070  -14.6230   20.6280 O   0  0  0  0  0  0  0  0  0  0  0  0
  -22.3660  -12.0880   22.4790 H   0  0  0  0  0  0  0  0  0  0  0  0
  -21.0670  -13.2220   22.2460 H   0  0  0  0  0  0  0  0  0  0  0  0
  -25.3760  -15.2480   20.3340 N   0  0  0  0  0  0  0  0  0  0  0  0
  -24.6070  -15.9020   20.4290 H   0  0  0  0  0  0  0  0  0  0  0  0
  -26.2170  -15.6800   19.9730 H   0  0  0  0  0  0  0  0  0  0  0  0
  -28.0560  -24.9530   20.1920 C   0  0  0  0  0  2  0  0  0  0  0  0
  -28.3070  -26.4310   20.1640 O   0  0  0  0  0  0  0  0  0  0  0  0
  -24.6200  -31.8680   23.2280 C   0  0  0  0  0  0  0  0  0  0  0  0
  -27.1920  -27.2950   20.1360 C   0  0  0  0  0  0  0  0  0  0  0  0
  -23.3990  -30.4750   21.6020 C   0  0  0  0  0  3  0  0  0  0  0  0
  -24.8320  -28.9290   20.1580 C   0  0  0  0  0  0  0  0  0  0  0  0
  -25.9400  -30.7860   21.3930 C   0  0  0  0  0  2  0  0  0  0  0  0
  -26.0100  -29.4080   20.7430 C   0  0  0  0  0  0  0  0  0  0  0  0
  -27.1940  -28.6040   20.7210 C   0  0  0  0  0  3  0  0  0  0  0  0
  -25.9850  -26.8830   19.5230 C   0  0  0  0  0  3  0  0  0  0  0  0
  -24.8220  -27.6730   19.5390 C   0  0  0  0  0  3  0  0  0  0  0  0
  -23.5980  -29.8050   20.2180 C   0  0  0  0  0  2  0  0  0  0  0  0
  -24.6740  -31.0590   22.1310 N   0  0  0  0  0  0  0  0  0  0  0  0
  -23.5420  -32.1470   23.7740 O   0  0  0  0  0  0  0  0  0  0  0  0
  -22.7440  -29.4560   22.5650 C   0  0  0  0  0  0  0  0  0  0  0  0
  -21.4170  -29.2770   22.4460 N   0  0  0  0  0  0  0  0  0  0  0  0
  -23.4290  -28.8300   23.3780 O   0  0  0  0  0  0  0  0  0  0  0  0
  -20.9240  -29.8330   21.7620 H   0  0  0  0  0  0  0  0  0  0  0  0
  -18.0470  -28.0690   22.9610 C   0  0  0  0  0  0  0  0  0  0  0  0
  -20.6040  -28.3390   23.2240 C   0  0  0  0  0  3  0  0  0  0  0  0
  -20.7110  -26.9050   22.6550 C   0  0  0  0  0  2  0  0  0  0  0  0
  -19.6080  -26.5730   21.6460 C   0  0  0  0  0  2  0  0  0  0  0  0
  -18.2270  -26.7160   22.2920 C   0  0  0  0  0  2  0  0  0  0  0  0
  -19.1630  -28.8370   23.3840 C   0  0  0  0  0  0  0  0  0  0  0  0
  -18.9400  -30.1020   23.9710 C   0  0  0  0  0  3  0  0  0  0  0  0
  -17.6340  -30.5980   24.1380 C   0  0  0  0  0  3  0  0  0  0  0  0
  -16.5320  -29.8270   23.7280 C   0  0  0  0  0  3  0  0  0  0  0  0
  -16.7390  -28.5640   23.1470 C   0  0  0  0  0  3  0  0  0  0  0  0
  -25.9100  -32.4970   23.8400 C   0  0  0  0  0  3  0  0  0  0  0  0
  -25.6020  -33.8930   24.1820 N   0  0  0  0  0  0  0  0  0  0  0  0
  -25.9230  -34.9520   23.4270 C   0  0  0  0  0  0  0  0  0  0  0  0
  -26.5810  -34.8560   22.3880 O   0  0  0  0  0  0  0  0  0  0  0  0
  -25.0130  -34.0410   24.9890 H   0  0  0  0  0  0  0  0  0  0  0  0
  -24.1890  -36.7460   23.1090 C   0  0  0  0  0  1  0  0  0  0  0  0
  -25.4400  -36.3370   23.9010 C   0  0  0  0  0  3  0  0  0  0  0  0
  -27.5870  -37.2170   24.7070 C   0  0  0  0  0  1  0  0  0  0  0  0
  -26.4710  -37.3920   23.7820 N   0  0  0  0  0  0  0  0  0  0  0  0
  -26.0660  -38.3110   23.9420 H   0  0  0  0  0  0  0  0  0  0  0  0
  -26.4400  -31.7180   25.1060 C   0  0  1  0  0  0  0  0  0  0  0  0
  -25.3600  -31.4780   26.1860 C   0  0  0  0  0  1  0  0  0  0  0  0
  -27.0160  -30.3420   24.7010 C   0  0  0  0  0  1  0  0  0  0  0  0
  -27.5990  -32.5080   25.7590 C   0  0  0  0  0  1  0  0  0  0  0  0
  1 52  1  0
  1  7  1  0
  2  1  1  0
  3  2  1  0
  3  5  1  0
  4  2  2  0
  6  3  1  0
  7  8  1  0
  9  7  1  0
 10  7  1  0
 10 11  1  0
 12 11  1  0
 12 13  1  0
 14 22  1  0
 15 20  1  0
 16 17  1  0
 16 15  1  0
 18 17  1  0
 18 27  1  0
 18 19  1  0
 20 14  1  0
 20 19  1  0
 21 14  2  0
 22 23  1  0
 22 13  1  0
 24 25  2  0
 25 44  1  0
 26 25  1  0
 26 29  1  0
 27 24  1  0
 27 28  1  0
 28 26  2  0
 29 30  1  0
 30 31  2  0
 32 35  1  0
 32 31  1  0
 33 32  2  0
 34 33  1  0
 34 29  2  0
 35 36  1  0
 36 37  1  0
 37 38  2  0
 39 38  1  0
 39 43  1  0
 40 39  2  0
 41 36  2  0
 41 40  1  0
 42 41  1  0
 44 45  1  0
 45 48  1  0
 45 47  1  0
 46 44  2  0
 49 50  1  0
 49 24  1  0
 51 49  1  0
 53 52  1  0
 54 65  2  0
 55 53  1  0
 55 60  1  0
 56 64  1  0
 56 66  1  0
 57 63  1  0
 57 59  1  0
 58 64  1  0
 59 58  1  0
 60 59  2  0
 61 62  1  0
 61 55  2  0
 62 57  2  0
 63 56  1  0
 64 54  1  0
 66 68  2  0
 67 66  1  0
 69 67  1  0
 70 79  2  0
 70 75  1  0
 71 67  1  0
 71 75  1  0
 72 71  1  0
 73 74  1  0
 73 72  1  0
 74 70  1  0
 75 76  2  0
 76 77  1  0
 78 77  2  0
 79 78  1  0
 80 54  1  0
 80 81  1  0
 80 90  1  0
 81 84  1  0
 82 86  1  0
 82 81  1  0
 83 82  2  0
 86 85  1  0
 88 86  1  0
 88 89  1  0
 88 87  1  0
 90 93  1  1
 90 91  1  0
 92 90  1  0
M  ISO  4  14 100  22 100  52 101  53 101
M  END
>  <TORSDO>  (23) 
F 23

>  <SCORE>  (23) 
-12.584

>  <name>  (23) 
22

>  <ligand_id>  (23) 
22

>  <original_smiles>  (23) 
[H]c1c([H])c([H])c2c(c1[H])C([H])([H])C([H])([H])C([H])([H])C2([H])N([H])C(=O)C1([H])N(C(=O)C([H])(N([H])C(=O)C([H])(N([H])C([H])([H])[H])C([H])([H])[H])C(C([H])([H])[H])(C([H])([H])[H])C([H])([H])[H])C([H])([H])c2c([H])c(OC([H])([H])C([H])(C(=O)N([H])[H])[N+]([H])([H])C([H])([H])C([H])([H])C([H])([H])C([H])([H])N([H])C(=O)N3C([H])([H])C([H])([H])C([H])([H])C([H])(n4nc(-c5c([H])c([H])c(Oc6c([H])c([H])c(F)c([H])c6F)c([H])c5[H])c(C(=O)N([H])[H])c4N([H])[H])C3([H])[H])c([H])c([H])c2C1([H])[H]

>  <smiles>  (23) 
[H]c1c([H])c([H])c2c(c1[H])C([H])([H])C([H])([H])C([H])([H])C2([H])N([H])C(=O)C1([H])N(C(=O)C([H])(N([H])C(=O)C([H])(N([H])C([H])([H])[H])C([H])([H])[H])C(C([H])([H])[H])(C([H])([H])[H])C([H])([H])[H])C([H])([H])c2c([H])c(OC([H])([H])C([H])(C(=O)N([H])[H])[N+]([H])([H])C([H])([H])C([H])([H])C([H])([H])C([H])([H])N([H])C(=O)N3C([H])([H])C([H])([H])C([H])([H])C([H])(n4nc(-c5c([H])c([H])c(Oc6c([H])c([H])c(F)c([H])c6F)c([H])c5[H])c(C(=O)N([H])[H])c4N([H])[H])C3([H])[H])c([H])c([H])c2C1([H])[H]

$$$$
23:0:0
     RDKit          3D

 93101  0  0  1  0  0  0  0  0999 V2000
  -27.6600  -20.4340   18.2470 C   0  0  0  0  0  2  0  0  0  0  0  0
  -29.0630  -20.0360   17.7470 C   0  0  0  0  0  2  0  0  0  0  0  0
  -27.4760  -20.2060   19.7610 C   0  0  0  0  0  2  0  0  0  0  0  0
  -29.6430  -18.8440   18.5390 C   0  0  0  0  0  3  0  0  0  0  0  0
  -29.7360  -19.1510   20.0660 C   0  0  0  0  0  3  0  0  0  0  0  0
  -28.7560  -20.3560   20.4890 N   0  0  1  0  0  4  0  0  0  0  0  0
  -28.5200  -20.1150   21.4420 H   0  0  0  0  0  0  0  0  0  0  0  0
  -31.0160  -18.4000   17.9810 C   0  0  0  0  0  2  0  0  0  0  0  0
  -32.3510  -17.3620   16.0770 C   0  0  0  0  0  1  0  0  0  0  0  0
  -30.9990  -17.9400   16.5130 C   0  0  0  0  0  2  0  0  0  0  0  0
  -29.8060  -17.6890   20.9270 C   0  0  0  0  0  2  0  0  0  0  0  0
  -30.6000  -15.0460   20.2640 C   0  0  0  0  0  0  0  0  0  0  0  0
  -30.4900  -12.7300   19.2160 C   0  0  0  0  0  2  0  0  0  0  0  0
  -29.5160  -12.7130   18.0130 C   0  0  0  0  0  2  0  0  0  0  0  0
  -28.0630  -12.4850   18.4810 C   0  0  0  0  0  2  0  0  0  0  0  0
  -27.6870  -13.3770   19.6920 C   0  0  0  0  0  3  0  0  0  0  0  0
  -28.7710  -13.3420   20.7870 C   0  0  0  0  0  2  0  0  0  0  0  0
  -30.0210  -13.7850   20.1550 N   0  0  0  0  0  0  0  0  0  0  0  0
  -31.8110  -15.1430   20.0480 O   0  0  0  0  0  0  0  0  0  0  0  0
  -29.7570  -16.1830   20.4090 N   0  0  0  0  0  0  0  0  0  0  0  0
  -28.7990  -15.8730   20.3610 H   0  0  0  0  0  0  0  0  0  0  0  0
  -25.3180  -13.9410   20.4800 C   0  0  0  0  0  0  0  0  0  0  0  0
  -24.2650  -13.1580   20.8630 C   0  0  0  0  0  0  0  0  0  0  0  0
  -24.7370  -11.8100   20.8160 C   0  0  0  0  0  0  0  0  0  0  0  0
  -26.3620  -13.0700   20.2150 N   0  0  0  0  0  0  0  0  0  0  0  0
  -26.0230  -11.7830   20.4840 N   0  0  0  0  0  0  0  0  0  0  0  0
  -24.0200  -10.5420   21.0070 C   0  0  0  0  0  0  0  0  0  0  0  0
  -24.4600   -9.5780   21.9400 C   0  0  0  0  0  3  0  0  0  0  0  0
  -23.7410   -8.3770   22.1200 C   0  0  0  0  0  3  0  0  0  0  0  0
  -22.5690   -8.1310   21.3670 C   0  0  0  0  0  0  0  0  0  0  0  0
  -22.1480   -9.0830   20.4220 C   0  0  0  0  0  3  0  0  0  0  0  0
  -22.8670  -10.2770   20.2400 C   0  0  0  0  0  3  0  0  0  0  0  0
  -21.8210   -6.9810   21.4560 O   0  0  0  0  0  0  0  0  0  0  0  0
  -21.7600   -6.2510   22.6160 C   0  0  0  0  0  0  0  0  0  0  0  0
  -21.2960   -6.8120   23.8260 C   0  0  0  0  0  3  0  0  0  0  0  0
  -21.1850   -6.0070   24.9770 C   0  0  0  0  0  3  0  0  0  0  0  0
  -21.5250   -4.6430   24.9190 C   0  0  0  0  0  0  0  0  0  0  0  0
  -21.9830   -4.0810   23.7130 C   0  0  0  0  0  3  0  0  0  0  0  0
  -22.0960   -4.8840   22.5640 C   0  0  0  0  0  0  0  0  0  0  0  0
  -22.5170   -4.3330   21.4000 F   0  0  0  0  0  0  0  0  0  0  0  0
  -21.4100   -3.8670   26.0230 F   0  0  0  0  0  0  0  0  0  0  0  0
  -22.8690  -13.6250   21.1580 C   0  0  0  0  0  0  0  0  0  0  0  0
  -22.1580  -12.9180   22.0280 N   0  0  0  0  0  0  0  0  0  0  0  0
  -22.4190  -14.6520   20.6510 O   0  0  0  0  0  0  0  0  0  0  0  0
  -22.5350  -12.0860   22.4570 H   0  0  0  0  0  0  0  0  0  0  0  0
  -21.2220  -13.2130   22.2710 H   0  0  0  0  0  0  0  0  0  0  0  0
  -25.4660  -15.3150   20.3050 N   0  0  0  0  0  0  0  0  0  0  0  0
  -24.6810  -15.9480   20.4160 H   0  0  0  0  0  0  0  0  0  0  0  0
  -26.2740  -15.7570   19.8900 H   0  0  0  0  0  0  0  0  0  0  0  0
  -29.1590  -21.8970   20.6680 C   0  0  0  0  0  2  0  0  0  0  0  0
  -28.3190  -23.2690   20.0870 C   0  0  0  0  0  2  0  0  0  0  0  0
  -28.2020  -24.7910   20.8260 C   0  0  0  0  0  2  0  0  0  0  0  0
  -28.2110  -26.2380   20.2490 O   0  0  0  0  0  0  0  0  0  0  0  0
  -24.5550  -31.9430   23.2340 C   0  0  0  0  0  0  0  0  0  0  0  0
  -27.1180  -27.1730   20.2890 C   0  0  0  0  0  0  0  0  0  0  0  0
  -23.3500  -30.5320   21.6090 C   0  0  0  0  0  3  0  0  0  0  0  0
  -24.7930  -28.9170   20.2220 C   0  0  0  0  0  0  0  0  0  0  0  0
  -25.9040  -30.7820   21.4460 C   0  0  0  0  0  2  0  0  0  0  0  0
  -25.9740  -29.3760   20.8230 C   0  0  0  0  0  0  0  0  0  0  0  0
  -27.1390  -28.5210   20.8320 C   0  0  0  0  0  3  0  0  0  0  0  0
  -25.9090  -26.8010   19.6680 C   0  0  0  0  0  3  0  0  0  0  0  0
  -24.7720  -27.6410   19.6320 C   0  0  0  0  0  3  0  0  0  0  0  0
  -23.5730  -29.8260   20.2450 C   0  0  0  0  0  2  0  0  0  0  0  0
  -24.6230  -31.1080   22.1510 N   0  0  0  0  0  0  0  0  0  0  0  0
  -23.4710  -32.2410   23.7560 O   0  0  0  0  0  0  0  0  0  0  0  0
  -22.6620  -29.5460   22.5860 C   0  0  0  0  0  0  0  0  0  0  0  0
  -21.3350  -29.3770   22.4520 N   0  0  0  0  0  0  0  0  0  0  0  0
  -23.3260  -28.9310   23.4250 O   0  0  0  0  0  0  0  0  0  0  0  0
  -20.8580  -29.9230   21.7500 H   0  0  0  0  0  0  0  0  0  0  0  0
  -17.9460  -28.2050   22.9570 C   0  0  0  0  0  0  0  0  0  0  0  0
  -20.5040  -28.4550   23.2330 C   0  0  0  0  0  3  0  0  0  0  0  0
  -20.6010  -27.0140   22.6800 C   0  0  0  0  0  2  0  0  0  0  0  0
  -19.5030  -26.6840   21.6650 C   0  0  0  0  0  2  0  0  0  0  0  0
  -18.1180  -26.8460   22.2990 C   0  0  0  0  0  2  0  0  0  0  0  0
  -19.0660  -28.9670   23.3790 C   0  0  0  0  0  0  0  0  0  0  0  0
  -18.8500  -30.2380   23.9560 C   0  0  0  0  0  3  0  0  0  0  0  0
  -17.5470  -30.7470   24.1130 C   0  0  0  0  0  3  0  0  0  0  0  0
  -16.4410  -29.9820   23.7050 C   0  0  0  0  0  3  0  0  0  0  0  0
  -16.6410  -28.7130   23.1320 C   0  0  0  0  0  3  0  0  0  0  0  0
  -25.8360  -32.5790   23.8550 C   0  0  0  0  0  3  0  0  0  0  0  0
  -25.5310  -33.9830   24.1740 N   0  0  0  0  0  0  0  0  0  0  0  0
  -25.8860  -35.0320   23.4190 C   0  0  0  0  0  0  0  0  0  0  0  0
  -26.5690  -34.9180   22.3990 O   0  0  0  0  0  0  0  0  0  0  0  0
  -24.9230  -34.1430   24.9630 H   0  0  0  0  0  0  0  0  0  0  0  0
  -24.1920  -36.8530   23.0290 C   0  0  0  0  0  1  0  0  0  0  0  0
  -25.4090  -36.4280   23.8670 C   0  0  0  0  0  3  0  0  0  0  0  0
  -27.5340  -37.2870   24.7490 C   0  0  0  0  0  1  0  0  0  0  0  0
  -26.4590  -37.4670   23.7770 N   0  0  0  0  0  0  0  0  0  0  0  0
  -26.0620  -38.3930   23.9130 H   0  0  0  0  0  0  0  0  0  0  0  0
  -26.3410  -31.8220   25.1470 C   0  0  1  0  0  0  0  0  0  0  0  0
  -25.2380  -31.6040   26.2090 C   0  0  0  0  0  1  0  0  0  0  0  0
  -26.9200  -30.4370   24.7800 C   0  0  0  0  0  1  0  0  0  0  0  0
  -27.4910  -32.6180   25.8040 C   0  0  0  0  0  1  0  0  0  0  0  0
  1  3  1  0
  2  1  1  0
  2  4  1  0
  3  6  1  0
  4  8  1  0
  4  5  1  0
  5  6  1  0
  5 11  1  0
  6 50  1  0
  6  7  1  1
  9 10  1  0
 10  8  1  0
 12 20  1  0
 13 18  1  0
 14 15  1  0
 14 13  1  0
 16 15  1  0
 16 25  1  0
 16 17  1  0
 18 12  1  0
 18 17  1  0
 19 12  2  0
 20 11  1  0
 21 20  1  0
 22 23  2  0
 23 42  1  0
 24 23  1  0
 24 27  1  0
 25 22  1  0
 25 26  1  0
 26 24  2  0
 27 28  1  0
 28 29  2  0
 30 33  1  0
 30 29  1  0
 31 30  2  0
 32 31  1  0
 32 27  2  0
 33 34  1  0
 34 35  1  0
 35 36  2  0
 37 36  1  0
 37 41  1  0
 38 37  2  0
 39 34  2  0
 39 38  1  0
 40 39  1  0
 42 43  1  0
 43 46  1  0
 43 45  1  0
 44 42  2  0
 47 48  1  0
 47 22  1  0
 49 47  1  0
 51 50  1  0
 51 52  1  0
 53 55  1  0
 53 52  1  0
 54 65  2  0
 55 60  1  0
 56 64  1  0
 56 66  1  0
 57 63  1  0
 57 59  1  0
 58 64  1  0
 59 60  2  0
 59 58  1  0
 61 55  2  0
 62 61  1  0
 62 57  2  0
 63 56  1  0
 64 54  1  0
 66 68  2  0
 67 66  1  0
 69 67  1  0
 70 79  2  0
 70 75  1  0
 71 67  1  0
 71 75  1  0
 72 71  1  0
 73 74  1  0
 73 72  1  0
 74 70  1  0
 75 76  2  0
 76 77  1  0
 78 77  2  0
 79 78  1  0
 80 54  1  0
 80 81  1  0
 80 90  1  0
 81 84  1  0
 82 86  1  0
 82 81  1  0
 83 82  2  0
 86 85  1  0
 88 86  1  0
 88 89  1  0
 88 87  1  0
 90 93  1  1
 90 91  1  0
 92 90  1  0
M  ISO  4  12 100  20 100  52 101  53 101
M  END
>  <TORSDO>  (24) 
F 22

>  <SCORE>  (24) 
-14.804

>  <name>  (24) 
23

>  <ligand_id>  (24) 
23

>  <original_smiles>  (24) 
[H]c1c([H])c([H])c2c(c1[H])C([H])([H])C([H])([H])C([H])([H])C2([H])N([H])C(=O)C1([H])N(C(=O)C([H])(N([H])C(=O)C([H])(N([H])C([H])([H])[H])C([H])([H])[H])C(C([H])([H])[H])(C([H])([H])[H])C([H])([H])[H])C([H])([H])c2c([H])c(OC([H])([H])C([H])([H])C([H])([H])[N+]3([H])C([H])([H])C([H])([H])C([H])([H])C([H])(C([H])([H])C([H])([H])C([H])([H])[H])C3([H])C([H])([H])N([H])C(=O)N3C([H])([H])C([H])([H])C([H])([H])C([H])(n4nc(-c5c([H])c([H])c(Oc6c([H])c([H])c(F)c([H])c6F)c([H])c5[H])c(C(=O)N([H])[H])c4N([H])[H])C3([H])[H])c([H])c([H])c2C1([H])[H]

>  <smiles>  (24) 
[H]c1c([H])c([H])c2c(c1[H])C([H])([H])C([H])([H])C([H])([H])C2([H])N([H])C(=O)C1([H])N(C(=O)C([H])(N([H])C(=O)C([H])(N([H])C([H])([H])[H])C([H])([H])[H])C(C([H])([H])[H])(C([H])([H])[H])C([H])([H])[H])C([H])([H])c2c([H])c(OC([H])([H])C([H])([H])C([H])([H])[N+]3([H])C([H])([H])C([H])([H])C([H])([H])C([H])(C([H])([H])C([H])([H])C([H])([H])[H])C3([H])C([H])([H])N([H])C(=O)N3C([H])([H])C([H])([H])C([H])([H])C([H])(n4nc(-c5c([H])c([H])c(Oc6c([H])c([H])c(F)c([H])c6F)c([H])c5[H])c(C(=O)N([H])[H])c4N([H])[H])C3([H])[H])c([H])c([H])c2C1([H])[H]

$$$$
24:0:0
     RDKit          3D

 92100  0  0  1  0  0  0  0  0999 V2000
  -29.5650  -19.9550   20.8880 C   0  0  0  0  0  2  0  0  0  0  0  0
  -30.6230  -20.7850   18.9010 C   0  0  0  0  0  2  0  0  0  0  0  0
  -29.5010  -21.2010   19.8930 C   0  0  0  0  0  3  0  0  0  0  0  0
  -29.9790  -18.6400   20.0760 C   0  0  0  0  0  3  0  0  0  0  0  0
  -31.0690  -19.3130   19.2000 C   0  0  0  0  0  3  0  0  0  0  0  0
  -30.5900  -18.5080   16.7730 C   0  0  0  0  0  1  0  0  0  0  0  0
  -32.9760  -18.9390   17.5310 C   0  0  0  0  0  1  0  0  0  0  0  0
  -31.5640  -18.5010   17.9660 C   0  0  0  0  0  3  0  0  0  0  0  0
  -29.6550  -22.7140   20.4080 C   0  0  0  0  0  0  0  0  0  0  0  0
  -30.7590  -23.0930   20.8110 O   0  0  0  0  0  0  0  0  0  0  0  0
  -28.4610  -23.7680   20.4250 C   0  0  0  0  0  2  0  0  0  0  0  0
  -28.5750  -25.1820   19.6460 C   0  0  0  0  0  2  0  0  0  0  0  0
  -28.4040  -26.5200   20.2910 O   0  0  0  0  0  0  0  0  0  0  0  0
  -24.6000  -31.9080   23.2430 C   0  0  0  0  0  0  0  0  0  0  0  0
  -27.2510  -27.3310   20.1990 C   0  0  0  0  0  0  0  0  0  0  0  0
  -23.4100  -30.4990   21.6000 C   0  0  0  0  0  3  0  0  0  0  0  0
  -24.8690  -28.9420   20.1830 C   0  0  0  0  0  0  0  0  0  0  0  0
  -25.9510  -30.8130   21.4370 C   0  0  0  0  0  2  0  0  0  0  0  0
  -26.0320  -29.4360   20.7830 C   0  0  0  0  0  0  0  0  0  0  0  0
  -27.2200  -28.6420   20.7770 C   0  0  0  0  0  3  0  0  0  0  0  0
  -26.0580  -26.8880   19.5850 C   0  0  0  0  0  3  0  0  0  0  0  0
  -24.8860  -27.6760   19.5730 C   0  0  0  0  0  3  0  0  0  0  0  0
  -23.6290  -29.8170   20.2240 C   0  0  0  0  0  2  0  0  0  0  0  0
  -24.6700  -31.0950   22.1470 N   0  0  0  0  0  0  0  0  0  0  0  0
  -23.5130  -32.1870   23.7710 O   0  0  0  0  0  0  0  0  0  0  0  0
  -22.7420  -29.4880   22.5630 C   0  0  0  0  0  0  0  0  0  0  0  0
  -21.4160  -29.3130   22.4300 N   0  0  0  0  0  0  0  0  0  0  0  0
  -23.4150  -28.8660   23.3870 O   0  0  0  0  0  0  0  0  0  0  0  0
  -20.9320  -29.8640   21.7360 H   0  0  0  0  0  0  0  0  0  0  0  0
  -18.0330  -28.1280   22.9280 C   0  0  0  0  0  0  0  0  0  0  0  0
  -20.5930  -28.3770   23.1980 C   0  0  0  0  0  3  0  0  0  0  0  0
  -20.6880  -26.9470   22.6170 C   0  0  0  0  0  2  0  0  0  0  0  0
  -19.5840  -26.6320   21.6030 C   0  0  0  0  0  2  0  0  0  0  0  0
  -18.2020  -26.7810   22.2460 C   0  0  0  0  0  2  0  0  0  0  0  0
  -19.1550  -28.8850   23.3600 C   0  0  0  0  0  0  0  0  0  0  0  0
  -18.9410  -30.1460   23.9570 C   0  0  0  0  0  3  0  0  0  0  0  0
  -17.6380  -30.6520   24.1240 C   0  0  0  0  0  3  0  0  0  0  0  0
  -16.5320  -29.8930   23.7090 C   0  0  0  0  0  3  0  0  0  0  0  0
  -16.7300  -28.6310   23.1200 C   0  0  0  0  0  3  0  0  0  0  0  0
  -25.8760  -32.5440   23.8710 C   0  0  0  0  0  3  0  0  0  0  0  0
  -25.5650  -33.9450   24.1920 N   0  0  0  0  0  0  0  0  0  0  0  0
  -25.9040  -34.9960   23.4330 C   0  0  0  0  0  0  0  0  0  0  0  0
  -26.5810  -34.8860   22.4060 O   0  0  0  0  0  0  0  0  0  0  0  0
  -24.9690  -34.1030   24.9910 H   0  0  0  0  0  0  0  0  0  0  0  0
  -24.1810  -36.7890   23.0570 C   0  0  0  0  0  1  0  0  0  0  0  0
  -25.4130  -36.3860   23.8810 C   0  0  0  0  0  3  0  0  0  0  0  0
  -27.5430  -37.2690   24.7300 C   0  0  0  0  0  1  0  0  0  0  0  0
  -26.4490  -37.4370   23.7730 N   0  0  0  0  0  0  0  0  0  0  0  0
  -26.0460  -38.3590   23.9110 H   0  0  0  0  0  0  0  0  0  0  0  0
  -26.3790  -31.7840   25.1620 C   0  0  1  0  0  0  0  0  0  0  0  0
  -25.2760  -31.5630   26.2220 C   0  0  0  0  0  1  0  0  0  0  0  0
  -26.9610  -30.4000   24.7910 C   0  0  0  0  0  1  0  0  0  0  0  0
  -27.5230  -32.5860   25.8260 C   0  0  0  0  0  1  0  0  0  0  0  0
  -30.5210  -17.3360   20.8810 C   0  0  0  0  0  2  0  0  0  0  0  0
  -30.6640  -14.7670   20.3620 C   0  0  0  0  0  0  0  0  0  0  0  0
  -30.3860  -12.5160   19.3240 C   0  0  0  0  0  2  0  0  0  0  0  0
  -29.4390  -12.5980   18.1110 C   0  0  0  0  0  2  0  0  0  0  0  0
  -27.9830  -12.4050   18.5670 C   0  0  0  0  0  2  0  0  0  0  0  0
  -27.6070  -13.3130   19.7690 C   0  0  0  0  0  3  0  0  0  0  0  0
  -28.6760  -13.2470   20.8830 C   0  0  0  0  0  2  0  0  0  0  0  0
  -29.9790  -13.5750   20.2740 N   0  0  0  0  0  0  0  0  0  0  0  0
  -31.8510  -14.8230   20.0330 O   0  0  0  0  0  0  0  0  0  0  0  0
  -29.9750  -15.9320   20.6320 N   0  0  0  0  0  0  0  0  0  0  0  0
  -28.9860  -15.8130   20.8140 H   0  0  0  0  0  0  0  0  0  0  0  0
  -25.2170  -13.9030   20.4960 C   0  0  0  0  0  0  0  0  0  0  0  0
  -24.1500  -13.1280   20.8680 C   0  0  0  0  0  0  0  0  0  0  0  0
  -24.6140  -11.7790   20.8440 C   0  0  0  0  0  0  0  0  0  0  0  0
  -26.2630  -13.0240   20.2650 N   0  0  0  0  0  0  0  0  0  0  0  0
  -25.9060  -11.7400   20.5320 N   0  0  0  0  0  0  0  0  0  0  0  0
  -23.8900  -10.5160   21.0400 C   0  0  0  0  0  0  0  0  0  0  0  0
  -24.3270   -9.5490   21.9700 C   0  0  0  0  0  3  0  0  0  0  0  0
  -23.6030   -8.3490   22.1490 C   0  0  0  0  0  3  0  0  0  0  0  0
  -22.4270   -8.1090   21.4010 C   0  0  0  0  0  0  0  0  0  0  0  0
  -22.0090   -9.0660   20.4600 C   0  0  0  0  0  3  0  0  0  0  0  0
  -22.7320  -10.2540   20.2770 C   0  0  0  0  0  3  0  0  0  0  0  0
  -21.6800   -6.9610   21.4880 O   0  0  0  0  0  0  0  0  0  0  0  0
  -21.6440   -6.2150   22.6390 C   0  0  0  0  0  0  0  0  0  0  0  0
  -21.2290   -6.7630   23.8720 C   0  0  0  0  0  3  0  0  0  0  0  0
  -21.1380   -5.9440   25.0150 C   0  0  0  0  0  3  0  0  0  0  0  0
  -21.4480   -4.5740   24.9250 C   0  0  0  0  0  0  0  0  0  0  0  0
  -21.8580   -4.0230   23.6980 C   0  0  0  0  0  3  0  0  0  0  0  0
  -21.9470   -4.8410   22.5590 C   0  0  0  0  0  0  0  0  0  0  0  0
  -22.3220   -4.3020   21.3730 F   0  0  0  0  0  0  0  0  0  0  0  0
  -21.3530   -3.7840   26.0210 F   0  0  0  0  0  0  0  0  0  0  0  0
  -22.7510  -13.6080   21.1350 C   0  0  0  0  0  0  0  0  0  0  0  0
  -22.0180  -12.9190   22.0010 N   0  0  0  0  0  0  0  0  0  0  0  0
  -22.3160  -14.6350   20.6150 O   0  0  0  0  0  0  0  0  0  0  0  0
  -22.3790  -12.0950   22.4560 H   0  0  0  0  0  0  0  0  0  0  0  0
  -21.0830  -13.2320   22.2230 H   0  0  0  0  0  0  0  0  0  0  0  0
  -25.3830  -15.2710   20.3150 N   0  0  0  0  0  0  0  0  0  0  0  0
  -24.6160  -15.9300   20.4180 H   0  0  0  0  0  0  0  0  0  0  0  0
  -26.2280  -15.7030   19.9610 H   0  0  0  0  0  0  0  0  0  0  0  0
  2  5  1  0
  2  3  1  0
  3  9  1  0
  3  1  1  0
  4 54  1  0
  4  1  1  0
  5  8  1  0
  5  4  1  0
  6  8  1  0
  7  8  1  0
  9 11  1  0
  9 10  2  0
 12 13  1  0
 12 11  1  0
 14 25  2  0
 15 13  1  0
 15 20  1  0
 16 24  1  0
 16 26  1  0
 17 23  1  0
 17 19  1  0
 18 24  1  0
 19 18  1  0
 20 19  2  0
 21 15  2  0
 22 21  1  0
 22 17  2  0
 23 16  1  0
 24 14  1  0
 26 28  2  0
 27 26  1  0
 29 27  1  0
 30 39  2  0
 30 35  1  0
 31 27  1  0
 31 35  1  0
 32 31  1  0
 33 34  1  0
 33 32  1  0
 34 30  1  0
 35 36  2  0
 36 37  1  0
 38 37  2  0
 39 38  1  0
 40 14  1  0
 40 41  1  0
 40 50  1  0
 41 44  1  0
 42 46  1  0
 42 41  1  0
 43 42  2  0
 46 45  1  0
 48 46  1  0
 48 49  1  0
 48 47  1  0
 50 53  1  1
 50 51  1  0
 52 50  1  0
 55 63  1  0
 56 61  1  0
 57 58  1  0
 57 56  1  0
 59 58  1  0
 59 68  1  0
 59 60  1  0
 61 55  1  0
 61 60  1  0
 62 55  2  0
 63 64  1  0
 63 54  1  0
 65 66  2  0
 66 85  1  0
 67 66  1  0
 67 70  1  0
 68 65  1  0
 68 69  1  0
 69 67  2  0
 70 71  1  0
 71 72  2  0
 73 76  1  0
 73 72  1  0
 74 73  2  0
 75 74  1  0
 75 70  2  0
 76 77  1  0
 77 78  1  0
 78 79  2  0
 80 79  1  0
 80 84  1  0
 81 80  2  0
 82 77  2  0
 82 81  1  0
 83 82  1  0
 85 86  1  0
 86 89  1  0
 86 88  1  0
 87 85  2  0
 90 91  1  0
 90 65  1  0
 92 90  1  0
M  ISO  4  12 101  13 101  55 100  63 100
M  END
>  <TORSDO>  (25) 
F 21

>  <SCORE>  (25) 
-13.541

>  <name>  (25) 
24

>  <ligand_id>  (25) 
24

>  <original_smiles>  (25) 
[H]c1c([H])c([H])c2c(c1[H])C([H])([H])C([H])([H])C([H])([H])C2([H])N([H])C(=O)C1([H])N(C(=O)C([H])(N([H])C(=O)C([H])(N([H])C([H])([H])[H])C([H])([H])[H])C(C([H])([H])[H])(C([H])([H])[H])C([H])([H])[H])C([H])([H])c2c([H])c(OC([H])([H])C([H])([H])C(=O)C3([H])C([H])([H])C([H])(C([H])([H])N([H])C(=O)N4C([H])([H])C([H])([H])C([H])([H])C([H])(n5nc(-c6c([H])c([H])c(Oc7c([H])c([H])c(F)c([H])c7F)c([H])c6[H])c(C(=O)N([H])[H])c5N([H])[H])C4([H])[H])C([H])(C([H])(C([H])([H])[H])C([H])([H])[H])C3([H])[H])c([H])c([H])c2C1([H])[H]

>  <smiles>  (25) 
[H]c1c([H])c([H])c2c(c1[H])C([H])([H])C([H])([H])C([H])([H])C2([H])N([H])C(=O)C1([H])N(C(=O)C([H])(N([H])C(=O)C([H])(N([H])C([H])([H])[H])C([H])([H])[H])C(C([H])([H])[H])(C([H])([H])[H])C([H])([H])[H])C([H])([H])c2c([H])c(OC([H])([H])C([H])([H])C(=O)C3([H])C([H])([H])C([H])(C([H])([H])N([H])C(=O)N4C([H])([H])C([H])([H])C([H])([H])C([H])(n5nc(-c6c([H])c([H])c(Oc7c([H])c([H])c(F)c([H])c7F)c([H])c6[H])c(C(=O)N([H])[H])c5N([H])[H])C4([H])[H])C([H])(C([H])(C([H])([H])[H])C([H])([H])[H])C3([H])[H])c([H])c([H])c2C1([H])[H]

$$$$
25:0:0
     RDKit          3D

 92 99  0  0  1  0  0  0  0  0999 V2000
  -29.2480  -22.0080   20.1300 C   0  0  0  0  0  0  0  0  0  0  0  0
  -30.4020  -22.2120   19.6570 N   0  0  0  0  0  0  0  0  0  0  0  0
  -30.5070  -23.1530   19.2910 H   0  0  0  0  0  0  0  0  0  0  0  0
  -28.1830  -23.2900   20.0500 C   0  0  0  0  0  2  0  0  0  0  0  0
  -28.3730  -24.8150   20.7430 C   0  0  0  0  0  2  0  0  0  0  0  0
  -28.3190  -26.2540   20.1570 O   0  0  0  0  0  0  0  0  0  0  0  0
  -24.6320  -31.8750   23.2270 C   0  0  0  0  0  0  0  0  0  0  0  0
  -27.2120  -27.1640   20.2220 C   0  0  0  0  0  0  0  0  0  0  0  0
  -23.4260  -30.4690   21.5980 C   0  0  0  0  0  3  0  0  0  0  0  0
  -24.8710  -28.8790   20.1880 C   0  0  0  0  0  0  0  0  0  0  0  0
  -25.9760  -30.7440   21.4180 C   0  0  0  0  0  2  0  0  0  0  0  0
  -26.0510  -29.3460   20.7820 C   0  0  0  0  0  0  0  0  0  0  0  0
  -27.2250  -28.5060   20.7730 C   0  0  0  0  0  3  0  0  0  0  0  0
  -26.0030  -26.7800   19.6110 C   0  0  0  0  0  3  0  0  0  0  0  0
  -24.8570  -27.6070   19.5890 C   0  0  0  0  0  3  0  0  0  0  0  0
  -23.6430  -29.7770   20.2260 C   0  0  0  0  0  2  0  0  0  0  0  0
  -24.6980  -31.0510   22.1360 N   0  0  0  0  0  0  0  0  0  0  0  0
  -23.5470  -32.1590   23.7590 O   0  0  0  0  0  0  0  0  0  0  0  0
  -22.7540  -29.4680   22.5690 C   0  0  0  0  0  0  0  0  0  0  0  0
  -21.4260  -29.2960   22.4480 N   0  0  0  0  0  0  0  0  0  0  0  0
  -23.4290  -28.8460   23.3920 O   0  0  0  0  0  0  0  0  0  0  0  0
  -20.9360  -29.8480   21.7580 H   0  0  0  0  0  0  0  0  0  0  0  0
  -18.0490  -28.0950   22.9640 C   0  0  0  0  0  0  0  0  0  0  0  0
  -20.6080  -28.3630   23.2270 C   0  0  0  0  0  3  0  0  0  0  0  0
  -20.7110  -26.9270   22.6620 C   0  0  0  0  0  2  0  0  0  0  0  0
  -19.6090  -26.5960   21.6500 C   0  0  0  0  0  2  0  0  0  0  0  0
  -18.2270  -26.7420   22.2950 C   0  0  0  0  0  2  0  0  0  0  0  0
  -19.1660  -28.8620   23.3880 C   0  0  0  0  0  0  0  0  0  0  0  0
  -18.9440  -30.1270   23.9740 C   0  0  0  0  0  3  0  0  0  0  0  0
  -17.6380  -30.6240   24.1410 C   0  0  0  0  0  3  0  0  0  0  0  0
  -16.5350  -29.8550   23.7330 C   0  0  0  0  0  3  0  0  0  0  0  0
  -16.7410  -28.5910   23.1510 C   0  0  0  0  0  3  0  0  0  0  0  0
  -25.9110  -32.5140   23.8470 C   0  0  0  0  0  3  0  0  0  0  0  0
  -25.5980  -33.9120   24.1820 N   0  0  0  0  0  0  0  0  0  0  0  0
  -25.9220  -34.9710   23.4280 C   0  0  0  0  0  0  0  0  0  0  0  0
  -26.5860  -34.8740   22.3920 O   0  0  0  0  0  0  0  0  0  0  0  0
  -25.0080  -34.0610   24.9880 H   0  0  0  0  0  0  0  0  0  0  0  0
  -24.1870  -36.7630   23.0990 C   0  0  0  0  0  1  0  0  0  0  0  0
  -25.4370  -36.3570   23.8960 C   0  0  0  0  0  3  0  0  0  0  0  0
  -27.5790  -37.2440   24.7070 C   0  0  0  0  0  1  0  0  0  0  0  0
  -26.4670  -37.4140   23.7760 N   0  0  0  0  0  0  0  0  0  0  0  0
  -26.0610  -38.3330   23.9320 H   0  0  0  0  0  0  0  0  0  0  0  0
  -26.4310  -31.7470   25.1250 C   0  0  1  0  0  0  0  0  0  0  0  0
  -25.3410  -31.5150   26.1980 C   0  0  0  0  0  1  0  0  0  0  0  0
  -27.0110  -30.3670   24.7400 C   0  0  0  0  0  1  0  0  0  0  0  0
  -27.5840  -32.5430   25.7810 C   0  0  0  0  0  1  0  0  0  0  0  0
  -28.9920  -20.4810   20.7380 C   0  0  0  0  0  2  0  0  0  0  0  0
  -29.4350  -19.0290   19.9900 C   0  0  0  0  0  3  0  0  0  0  0  0
  -28.3530  -18.6950   18.9590 C   0  0  0  0  0  0  0  0  0  0  0  0
  -28.6090  -18.9340   17.6770 N   0  0  0  0  0  0  0  0  0  0  0  0
  -27.2770  -18.2180   19.3130 O   0  0  0  0  0  0  0  0  0  0  0  0
  -29.4990  -19.3230   17.3960 H   0  0  0  0  0  0  0  0  0  0  0  0
  -27.9170  -18.7300   16.9710 H   0  0  0  0  0  0  0  0  0  0  0  0
  -29.9340  -17.6280   20.8060 C   0  0  0  0  0  2  0  0  0  0  0  0
  -30.4960  -14.9470   20.2980 C   0  0  0  0  0  0  0  0  0  0  0  0
  -30.3750  -12.6110   19.3160 C   0  0  0  0  0  2  0  0  0  0  0  0
  -29.4250  -12.5790   18.0970 C   0  0  0  0  0  2  0  0  0  0  0  0
  -27.9640  -12.3710   18.5430 C   0  0  0  0  0  2  0  0  0  0  0  0
  -27.5720  -13.2870   19.7330 C   0  0  0  0  0  3  0  0  0  0  0  0
  -28.6380  -13.2780   20.8460 C   0  0  0  0  0  2  0  0  0  0  0  0
  -29.9010  -13.6920   20.2220 N   0  0  0  0  0  0  0  0  0  0  0  0
  -31.7070  -15.0240   20.0690 O   0  0  0  0  0  0  0  0  0  0  0  0
  -29.6900  -16.1070   20.4340 N   0  0  0  0  0  0  0  0  0  0  0  0
  -28.7090  -15.8680   20.4520 H   0  0  0  0  0  0  0  0  0  0  0  0
  -25.1950  -13.8660   20.4860 C   0  0  0  0  0  0  0  0  0  0  0  0
  -24.1350  -13.0890   20.8660 C   0  0  0  0  0  0  0  0  0  0  0  0
  -24.6030  -11.7390   20.8380 C   0  0  0  0  0  0  0  0  0  0  0  0
  -26.2380  -12.9900   20.2430 N   0  0  0  0  0  0  0  0  0  0  0  0
  -25.8930  -11.7060   20.5210 N   0  0  0  0  0  0  0  0  0  0  0  0
  -23.8810  -10.4750   21.0360 C   0  0  0  0  0  0  0  0  0  0  0  0
  -24.3260   -9.5070   21.9610 C   0  0  0  0  0  3  0  0  0  0  0  0
  -23.6030   -8.3090   22.1480 C   0  0  0  0  0  3  0  0  0  0  0  0
  -22.4190   -8.0720   21.4090 C   0  0  0  0  0  0  0  0  0  0  0  0
  -21.9930   -9.0290   20.4720 C   0  0  0  0  0  3  0  0  0  0  0  0
  -22.7180  -10.2180   20.2830 C   0  0  0  0  0  3  0  0  0  0  0  0
  -21.6660   -6.9270   21.5050 O   0  0  0  0  0  0  0  0  0  0  0  0
  -21.6450   -6.1750   22.6520 C   0  0  0  0  0  0  0  0  0  0  0  0
  -21.2580   -6.7210   23.8950 C   0  0  0  0  0  3  0  0  0  0  0  0
  -21.1820   -5.8960   25.0340 C   0  0  0  0  0  3  0  0  0  0  0  0
  -21.4820   -4.5240   24.9320 C   0  0  0  0  0  0  0  0  0  0  0  0
  -21.8630   -3.9760   23.6950 C   0  0  0  0  0  3  0  0  0  0  0  0
  -21.9410   -4.7990   22.5580 C   0  0  0  0  0  0  0  0  0  0  0  0
  -22.2870   -4.2620   21.3630 F   0  0  0  0  0  0  0  0  0  0  0  0
  -21.4030   -3.7280   26.0250 F   0  0  0  0  0  0  0  0  0  0  0  0
  -22.7370  -13.5630   21.1390 C   0  0  0  0  0  0  0  0  0  0  0  0
  -22.0140  -12.8690   22.0100 N   0  0  0  0  0  0  0  0  0  0  0  0
  -22.2950  -14.5850   20.6130 O   0  0  0  0  0  0  0  0  0  0  0  0
  -22.3850  -12.0440   22.4570 H   0  0  0  0  0  0  0  0  0  0  0  0
  -21.0750  -13.1690   22.2360 H   0  0  0  0  0  0  0  0  0  0  0  0
  -25.3480  -15.2370   20.3010 N   0  0  0  0  0  0  0  0  0  0  0  0
  -24.5710  -15.8780   20.4170 H   0  0  0  0  0  0  0  0  0  0  0  0
  -26.1690  -15.6920   19.9210 H   0  0  0  0  0  0  0  0  0  0  0  0
  1 47  1  0
  2  1  2  0
  3  2  1  0
  4  1  1  0
  4  5  1  0
  6  8  1  0
  6  5  1  0
  7 18  2  0
  8 13  1  0
  9 17  1  0
  9 19  1  0
 10 16  1  0
 10 12  1  0
 11 17  1  0
 12 11  1  0
 13 12  2  0
 14  8  2  0
 15 14  1  0
 15 10  2  0
 16  9  1  0
 17  7  1  0
 19 21  2  0
 20 19  1  0
 22 20  1  0
 23 32  2  0
 23 28  1  0
 24 20  1  0
 24 28  1  0
 25 24  1  0
 26 27  1  0
 26 25  1  0
 27 23  1  0
 28 29  2  0
 29 30  1  0
 31 30  2  0
 32 31  1  0
 33  7  1  0
 33 34  1  0
 33 43  1  0
 34 37  1  0
 35 39  1  0
 35 34  1  0
 36 35  2  0
 39 38  1  0
 41 39  1  0
 41 42  1  0
 41 40  1  0
 43 46  1  1
 43 44  1  0
 45 43  1  0
 48 47  1  0
 48 54  1  0
 49 51  2  0
 49 48  1  0
 50 49  1  0
 52 50  1  0
 53 50  1  0
 55 63  1  0
 56 61  1  0
 57 58  1  0
 57 56  1  0
 59 58  1  0
 59 68  1  0
 59 60  1  0
 61 55  1  0
 61 60  1  0
 62 55  2  0
 63 64  1  0
 63 54  1  0
 65 66  2  0
 66 85  1  0
 67 66  1  0
 67 70  1  0
 68 65  1  0
 68 69  1  0
 69 67  2  0
 70 71  1  0
 71 72  2  0
 73 76  1  0
 73 72  1  0
 74 73  2  0
 75 74  1  0
 75 70  2  0
 76 77  1  0
 77 78  1  0
 78 79  2  0
 80 79  1  0
 80 84  1  0
 81 80  2  0
 82 77  2  0
 82 81  1  0
 83 82  1  0
 85 86  1  0
 86 89  1  0
 86 88  1  0
 87 85  2  0
 90 91  1  0
 90 65  1  0
 92 90  1  0
M  ISO  4   5 101   6 101  55 100  63 100
M  END
>  <TORSDO>  (26) 
F 22

>  <SCORE>  (26) 
-13.694

>  <name>  (26) 
25

>  <ligand_id>  (26) 
25

>  <original_smiles>  (26) 
[H]N=C(C([H])([H])C([H])([H])Oc1c([H])c([H])c2c(c1[H])C([H])([H])N(C(=O)C([H])(N([H])C(=O)C([H])(N([H])C([H])([H])[H])C([H])([H])[H])C(C([H])([H])[H])(C([H])([H])[H])C([H])([H])[H])C([H])(C(=O)N([H])C1([H])c3c([H])c([H])c([H])c([H])c3C([H])([H])C([H])([H])C1([H])[H])C2([H])[H])C([H])([H])C([H])(C(=O)N([H])[H])C([H])([H])N([H])C(=O)N1C([H])([H])C([H])([H])C([H])([H])C([H])(n2nc(-c3c([H])c([H])c(Oc4c([H])c([H])c(F)c([H])c4F)c([H])c3[H])c(C(=O)N([H])[H])c2N([H])[H])C1([H])[H]

>  <smiles>  (26) 
[H]N=C(C([H])([H])C([H])([H])Oc1c([H])c([H])c2c(c1[H])C([H])([H])N(C(=O)C([H])(N([H])C(=O)C([H])(N([H])C([H])([H])[H])C([H])([H])[H])C(C([H])([H])[H])(C([H])([H])[H])C([H])([H])[H])C([H])(C(=O)N([H])C1([H])c3c([H])c([H])c([H])c([H])c3C([H])([H])C([H])([H])C1([H])[H])C2([H])[H])C([H])([H])C([H])(C(=O)N([H])[H])C([H])([H])N([H])C(=O)N1C([H])([H])C([H])([H])C([H])([H])C([H])(n2nc(-c3c([H])c([H])c(Oc4c([H])c([H])c(F)c([H])c4F)c([H])c3[H])c(C(=O)N([H])[H])c2N([H])[H])C1([H])[H]

$$$$
26:0:0
     RDKit          3D

 92100  0  0  1  0  0  0  0  0999 V2000
  -30.0710  -21.9250   20.3370 C   0  0  0  0  0  0  0  0  0  0  0  0
  -30.1670  -20.7610   19.5080 N   0  0  0  0  0  0  0  0  0  0  0  0
  -30.4940  -21.8270   21.4880 O   0  0  0  0  0  0  0  0  0  0  0  0
  -29.8020  -20.8960   18.5720 H   0  0  0  0  0  0  0  0  0  0  0  0
  -31.2520  -15.2190   18.7270 C   0  0  0  0  0  0  0  0  0  0  0  0
  -30.7400  -12.9600   17.6640 C   0  0  0  0  0  2  0  0  0  0  0  0
  -29.4210  -13.0070   16.8520 C   0  0  0  0  0  2  0  0  0  0  0  0
  -28.1930  -12.7620   17.7530 C   0  0  0  0  0  2  0  0  0  0  0  0
  -28.2780  -13.5480   19.0880 C   0  0  0  0  0  3  0  0  0  0  0  0
  -29.6650  -13.3960   19.7410 C   0  0  0  0  0  2  0  0  0  0  0  0
  -30.6440  -13.9510   18.7860 N   0  0  0  0  0  0  0  0  0  0  0  0
  -32.2000  -15.3170   17.9370 O   0  0  0  0  0  0  0  0  0  0  0  0
  -31.4400  -17.4950   21.4090 C   0  0  0  0  0  2  0  0  0  0  0  0
  -30.5040  -16.4500   20.7730 C   0  0  0  0  0  2  0  0  0  0  0  0
  -30.5330  -17.9150   18.8060 C   0  0  0  0  0  2  0  0  0  0  0  0
  -30.9330  -18.9470   21.2520 C   0  0  0  0  0  3  0  0  0  0  0  0
  -30.8080  -19.3120   19.7450 C   0  0  0  0  0  3  0  0  0  0  0  0
  -30.6850  -16.4120   19.3220 N   0  0  0  0  0  0  0  0  0  0  0  0
  -26.6680  -13.9610   21.0320 C   0  0  0  0  0  0  0  0  0  0  0  0
  -25.6220  -13.2390   21.5320 C   0  0  0  0  0  0  0  0  0  0  0  0
  -25.5700  -12.0340   20.7640 C   0  0  0  0  0  0  0  0  0  0  0  0
  -27.1980  -13.2010   20.0050 N   0  0  0  0  0  0  0  0  0  0  0  0
  -26.5690  -12.0030   19.8890 N   0  0  0  0  0  0  0  0  0  0  0  0
  -24.5900  -10.9410   20.7740 C   0  0  0  0  0  0  0  0  0  0  0  0
  -24.9290   -9.6520   21.2410 C   0  0  0  0  0  3  0  0  0  0  0  0
  -23.9650   -8.6230   21.2600 C   0  0  0  0  0  3  0  0  0  0  0  0
  -22.6470   -8.8740   20.8150 C   0  0  0  0  0  0  0  0  0  0  0  0
  -22.3200  -10.1500   20.3260 C   0  0  0  0  0  3  0  0  0  0  0  0
  -23.2820  -11.1740   20.3040 C   0  0  0  0  0  3  0  0  0  0  0  0
  -21.6550   -7.9260   20.7720 O   0  0  0  0  0  0  0  0  0  0  0  0
  -21.4770   -7.0190   21.7870 C   0  0  0  0  0  0  0  0  0  0  0  0
  -21.2110   -7.4250   23.1120 C   0  0  0  0  0  3  0  0  0  0  0  0
  -20.9710   -6.4600   24.1100 C   0  0  0  0  0  3  0  0  0  0  0  0
  -20.9840   -5.0910   23.7840 C   0  0  0  0  0  0  0  0  0  0  0  0
  -21.2450   -4.6830   22.4630 C   0  0  0  0  0  3  0  0  0  0  0  0
  -21.4880   -5.6460   21.4660 C   0  0  0  0  0  0  0  0  0  0  0  0
  -21.7160   -5.2490   20.1910 F   0  0  0  0  0  0  0  0  0  0  0  0
  -20.7450   -4.1640   24.7410 F   0  0  0  0  0  0  0  0  0  0  0  0
  -24.6590  -13.6820   22.5940 C   0  0  0  0  0  0  0  0  0  0  0  0
  -24.1000  -12.7410   23.3440 N   0  0  0  0  0  0  0  0  0  0  0  0
  -24.4370  -14.8770   22.7980 O   0  0  0  0  0  0  0  0  0  0  0  0
  -24.2990  -11.7630   23.1890 H   0  0  0  0  0  0  0  0  0  0  0  0
  -23.4610  -13.0010   24.0830 H   0  0  0  0  0  0  0  0  0  0  0  0
  -27.2010  -15.2110   21.3440 N   0  0  0  0  0  0  0  0  0  0  0  0
  -26.8060  -15.8110   22.0600 H   0  0  0  0  0  0  0  0  0  0  0  0
  -27.9670  -15.6440   20.8440 H   0  0  0  0  0  0  0  0  0  0  0  0
  -29.7100  -19.2720   22.1570 C   0  0  0  0  0  2  0  0  0  0  0  0
  -29.1840  -20.2350   24.5180 C   0  0  0  0  0  1  0  0  0  0  0  0
  -30.0660  -19.3090   23.6670 C   0  0  0  0  0  2  0  0  0  0  0  0
  -29.5350  -23.4480   19.9200 C   0  0  0  0  0  2  0  0  0  0  0  0
  -28.8880  -24.6340   20.9520 C   0  0  0  0  0  2  0  0  0  0  0  0
  -28.9640  -26.1920   20.8510 O   0  0  0  0  0  0  0  0  0  0  0  0
  -24.5880  -31.6470   23.2360 C   0  0  0  0  0  0  0  0  0  0  0  0
  -27.8090  -27.0470   20.7040 C   0  0  0  0  0  0  0  0  0  0  0  0
  -23.6520  -30.0800   21.5800 C   0  0  0  0  0  3  0  0  0  0  0  0
  -25.3450  -28.5660   20.3710 C   0  0  0  0  0  0  0  0  0  0  0  0
  -26.1750  -30.5640   21.6010 C   0  0  0  0  0  2  0  0  0  0  0  0
  -26.4260  -29.1480   21.0460 C   0  0  0  0  0  0  0  0  0  0  0  0
  -27.6580  -28.4070   21.1920 C   0  0  0  0  0  3  0  0  0  0  0  0
  -26.6970  -26.5560   19.9830 C   0  0  0  0  0  3  0  0  0  0  0  0
  -25.4960  -27.2810   19.8240 C   0  0  0  0  0  3  0  0  0  0  0  0
  -24.0470  -29.3520   20.2630 C   0  0  0  0  0  2  0  0  0  0  0  0
  -24.8190  -30.7880   22.1960 N   0  0  0  0  0  0  0  0  0  0  0  0
  -23.4410  -31.8610   23.6580 O   0  0  0  0  0  0  0  0  0  0  0  0
  -22.9760  -29.0680   22.5340 C   0  0  0  0  0  0  0  0  0  0  0  0
  -21.6990  -28.7360   22.2720 N   0  0  0  0  0  0  0  0  0  0  0  0
  -23.6100  -28.5750   23.4720 O   0  0  0  0  0  0  0  0  0  0  0  0
  -21.2420  -29.1870   21.4920 H   0  0  0  0  0  0  0  0  0  0  0  0
  -18.4420  -27.1620   22.4660 C   0  0  0  0  0  0  0  0  0  0  0  0
  -20.9000  -27.7610   23.0160 C   0  0  0  0  0  3  0  0  0  0  0  0
  -21.2380  -26.3160   22.5830 C   0  0  0  0  0  2  0  0  0  0  0  0
  -20.3240  -25.7860   21.4740 C   0  0  0  0  0  2  0  0  0  0  0  0
  -18.8610  -25.8030   21.9300 C   0  0  0  0  0  2  0  0  0  0  0  0
  -19.4010  -28.0880   22.9610 C   0  0  0  0  0  0  0  0  0  0  0  0
  -18.9630  -29.3490   23.4160 C   0  0  0  0  0  3  0  0  0  0  0  0
  -17.5980  -29.6920   23.3850 C   0  0  0  0  0  3  0  0  0  0  0  0
  -16.6520  -28.7690   22.9070 C   0  0  0  0  0  3  0  0  0  0  0  0
  -17.0740  -27.5080   22.4520 C   0  0  0  0  0  3  0  0  0  0  0  0
  -25.7520  -32.4150   23.9330 C   0  0  0  0  0  3  0  0  0  0  0  0
  -26.1600  -31.7900   25.3260 C   0  0  1  0  0  0  0  0  0  0  0  0
  -24.9600  -31.5390   26.2700 C   0  0  0  0  0  1  0  0  0  0  0  0
  -26.8920  -30.4420   25.1300 C   0  0  0  0  0  1  0  0  0  0  0  0
  -27.1510  -32.7310   26.0520 C   0  0  0  0  0  1  0  0  0  0  0  0
  -25.3310  -33.8140   24.0970 N   0  0  0  0  0  0  0  0  0  0  0  0
  -25.6650  -34.8150   23.2710 C   0  0  0  0  0  0  0  0  0  0  0  0
  -26.4250  -34.6620   22.3110 O   0  0  0  0  0  0  0  0  0  0  0  0
  -24.6640  -34.0000   24.8310 H   0  0  0  0  0  0  0  0  0  0  0  0
  -23.8550  -36.4440   22.6270 C   0  0  0  0  0  1  0  0  0  0  0  0
  -25.0600  -36.2040   23.5520 C   0  0  0  0  0  3  0  0  0  0  0  0
  -27.0750  -37.3130   24.4150 C   0  0  0  0  0  1  0  0  0  0  0  0
  -26.0290  -37.3110   23.3960 N   0  0  0  0  0  0  0  0  0  0  0  0
  -25.5560  -38.2090   23.4240 H   0  0  0  0  0  0  0  0  0  0  0  0
  1  3  2  0
  2  1  1  0
  4  2  1  0
  5 11  1  0
  5 18  1  0
  6 11  1  0
  7  6  1  0
  7  8  1  0
  9  8  1  0
  9 10  1  0
  9 22  1  0
 11 10  1  0
 12  5  2  0
 14 13  1  0
 15 18  1  0
 15 17  1  0
 16 13  1  0
 16 47  1  0
 17  2  1  0
 17 16  1  0
 18 14  1  0
 19 44  1  0
 19 20  2  0
 20 39  1  0
 21 24  1  0
 21 20  1  0
 22 19  1  0
 23 22  1  0
 23 21  2  0
 24 25  1  0
 25 26  2  0
 27 26  1  0
 28 27  2  0
 29 28  1  0
 29 24  2  0
 30 27  1  0
 30 31  1  0
 31 32  1  0
 32 33  2  0
 34 33  1  0
 34 38  1  0
 35 34  2  0
 36 31  2  0
 36 35  1  0
 37 36  1  0
 39 41  2  0
 39 40  1  0
 40 43  1  0
 42 40  1  0
 44 45  1  0
 46 44  1  0
 47 49  1  0
 49 48  1  0
 50  1  1  0
 50 51  1  0
 52 51  1  0
 53 64  2  0
 54 52  1  0
 54 59  1  0
 55 63  1  0
 55 65  1  0
 56 58  1  0
 57 63  1  0
 58 59  2  0
 58 57  1  0
 60 54  2  0
 61 60  1  0
 61 56  2  0
 62 56  1  0
 62 55  1  0
 63 53  1  0
 65 67  2  0
 66 65  1  0
 68 66  1  0
 69 74  1  0
 70 66  1  0
 71 70  1  0
 72 73  1  0
 72 71  1  0
 73 69  1  0
 74 70  1  0
 74 75  2  0
 76 75  1  0
 77 76  2  0
 78 69  2  0
 78 77  1  0
 79 53  1  0
 79 84  1  0
 79 80  1  0
 80 83  1  1
 80 81  1  0
 82 80  1  0
 84 87  1  0
 85 89  1  0
 85 84  1  0
 86 85  2  0
 89 88  1  0
 91 92  1  0
 91 89  1  0
 91 90  1  0
M  ISO  4   5 100  18 100  51 101  52 101
M  END
>  <TORSDO>  (27) 
F 20

>  <SCORE>  (27) 
-0.602

>  <name>  (27) 
26

>  <ligand_id>  (27) 
26

>  <original_smiles>  (27) 
[H]c1c([H])c([H])c2c(c1[H])C([H])([H])C([H])([H])C([H])([H])C2([H])N([H])C(=O)C1([H])N(C(=O)C([H])(N([H])C(=O)C([H])(N([H])C([H])([H])[H])C([H])([H])[H])C(C([H])([H])[H])(C([H])([H])[H])C([H])([H])[H])C([H])([H])c2c([H])c(OC([H])([H])C([H])([H])C(=O)N([H])C3([H])C([H])([H])N(C(=O)N4C([H])([H])C([H])([H])C([H])([H])C([H])(n5nc(-c6c([H])c([H])c(Oc7c([H])c([H])c(F)c([H])c7F)c([H])c6[H])c(C(=O)N([H])[H])c5N([H])[H])C4([H])[H])C([H])([H])C([H])([H])C3([H])C([H])([H])C([H])([H])C([H])([H])[H])c([H])c([H])c2C1([H])[H]

>  <smiles>  (27) 
[H]c1c([H])c([H])c2c(c1[H])C([H])([H])C([H])([H])C([H])([H])C2([H])N([H])C(=O)C1([H])N(C(=O)C([H])(N([H])C(=O)C([H])(N([H])C([H])([H])[H])C([H])([H])[H])C(C([H])([H])[H])(C([H])([H])[H])C([H])([H])[H])C([H])([H])c2c([H])c(OC([H])([H])C([H])([H])C(=O)N([H])C3([H])C([H])([H])N(C(=O)N4C([H])([H])C([H])([H])C([H])([H])C([H])(n5nc(-c6c([H])c([H])c(Oc7c([H])c([H])c(F)c([H])c7F)c([H])c6[H])c(C(=O)N([H])[H])c5N([H])[H])C4([H])[H])C([H])([H])C([H])([H])C3([H])C([H])([H])C([H])([H])C([H])([H])[H])c([H])c([H])c2C1([H])[H]

$$$$
27:0:0
     RDKit          3D

 95103  0  0  1  0  0  0  0  0999 V2000
  -31.5220  -14.7400   19.2940 C   0  0  0  0  0  0  0  0  0  0  0  0
  -31.4570  -12.2090   19.4600 C   0  0  0  0  0  2  0  0  0  0  0  0
  -30.5840  -11.5870   18.3420 C   0  0  0  0  0  2  0  0  0  0  0  0
  -29.1010  -11.5360   18.7620 C   0  0  0  0  0  2  0  0  0  0  0  0
  -28.6280  -12.8680   19.3940 C   0  0  0  0  0  3  0  0  0  0  0  0
  -29.6250  -13.3710   20.4500 C   0  0  0  0  0  2  0  0  0  0  0  0
  -30.9220  -13.5690   19.7750 N   0  0  0  0  0  0  0  0  0  0  0  0
  -32.6930  -14.6400   18.9080 O   0  0  0  0  0  0  0  0  0  0  0  0
  -31.0750  -16.9600   17.8460 C   0  0  0  0  0  2  0  0  0  0  0  0
  -30.3080  -16.7040   20.1790 C   0  0  0  0  0  2  0  0  0  0  0  0
  -30.1340  -18.3230   17.5710 C   0  0  0  0  0  3  0  0  0  0  0  0
  -29.1840  -17.7140   19.8320 C   0  0  0  0  0  3  0  0  0  0  0  0
  -29.7130  -18.8880   18.9510 C   0  0  0  0  0  3  0  0  0  0  0  0
  -30.7930  -15.9390   19.0120 N   0  0  0  0  0  0  0  0  0  0  0  0
  -26.3900  -13.8050   20.2120 C   0  0  0  0  0  0  0  0  0  0  0  0
  -25.2310  -13.2000   20.6140 C   0  0  0  0  0  0  0  0  0  0  0  0
  -25.4830  -11.7940   20.5720 C   0  0  0  0  0  0  0  0  0  0  0  0
  -27.2740  -12.7780   19.9300 N   0  0  0  0  0  0  0  0  0  0  0  0
  -26.7420  -11.5630   20.2180 N   0  0  0  0  0  0  0  0  0  0  0  0
  -24.5810  -10.6570   20.7920 C   0  0  0  0  0  0  0  0  0  0  0  0
  -24.8350   -9.6940   21.7950 C   0  0  0  0  0  3  0  0  0  0  0  0
  -23.9420   -8.6210   21.9990 C   0  0  0  0  0  3  0  0  0  0  0  0
  -22.7800   -8.5030   21.2010 C   0  0  0  0  0  0  0  0  0  0  0  0
  -22.5430   -9.4510   20.1900 C   0  0  0  0  0  3  0  0  0  0  0  0
  -23.4350  -10.5160   19.9840 C   0  0  0  0  0  3  0  0  0  0  0  0
  -21.8690   -7.4790   21.3100 O   0  0  0  0  0  0  0  0  0  0  0  0
  -21.5600   -6.9170   22.5220 C   0  0  0  0  0  0  0  0  0  0  0  0
  -21.0110   -7.6760   23.5790 C   0  0  0  0  0  3  0  0  0  0  0  0
  -20.6450   -7.0430   24.7840 C   0  0  0  0  0  3  0  0  0  0  0  0
  -20.8170   -5.6540   24.9320 C   0  0  0  0  0  0  0  0  0  0  0  0
  -21.3580   -4.8960   23.8790 C   0  0  0  0  0  3  0  0  0  0  0  0
  -21.7260   -5.5260   22.6760 C   0  0  0  0  0  0  0  0  0  0  0  0
  -22.2280   -4.7860   21.6570 F   0  0  0  0  0  0  0  0  0  0  0  0
  -20.4570   -5.0450   26.0850 F   0  0  0  0  0  0  0  0  0  0  0  0
  -23.9310  -13.8840   20.9230 C   0  0  0  0  0  0  0  0  0  0  0  0
  -23.1320  -13.3070   21.8130 N   0  0  0  0  0  0  0  0  0  0  0  0
  -23.6410  -14.9640   20.4090 O   0  0  0  0  0  0  0  0  0  0  0  0
  -23.3790  -12.4300   22.2460 H   0  0  0  0  0  0  0  0  0  0  0  0
  -22.2590  -13.7490   22.0640 H   0  0  0  0  0  0  0  0  0  0  0  0
  -26.7620  -15.1370   20.0490 N   0  0  0  0  0  0  0  0  0  0  0  0
  -26.0450  -15.8550   20.0350 H   0  0  0  0  0  0  0  0  0  0  0  0
  -27.5840  -15.3990   19.5190 H   0  0  0  0  0  0  0  0  0  0  0  0
  -32.2320  -19.5270   19.5760 C   0  0  0  0  0  1  0  0  0  0  0  0
  -30.4900  -21.3320   19.3140 C   0  0  0  0  0  1  0  0  0  0  0  0
  -30.7250  -19.8540   19.6770 C   0  0  0  0  0  3  0  0  0  0  0  0
  -30.4700  -19.5410   16.4600 C   0  0  0  0  0  2  0  0  0  0  0  0
  -29.4410  -20.7860   16.0120 C   0  0  0  0  0  3  0  0  0  0  0  0
  -29.8940  -22.3550   15.6400 C   0  0  0  0  0  3  0  0  0  0  0  0
  -28.8520  -23.6600   15.6220 C   0  0  0  0  0  2  0  0  0  0  0  0
  -29.1160  -25.1080   16.1040 O   0  0  0  0  0  0  0  0  0  0  0  0
  -25.3230  -28.0170   21.6960 C   0  0  0  0  0  0  0  0  0  0  0  0
  -28.0410  -25.9350   16.5860 C   0  0  0  0  0  0  0  0  0  0  0  0
  -24.1900  -27.8530   19.5150 C   0  0  0  0  0  3  0  0  0  0  0  0
  -25.6960  -27.3860   17.4920 C   0  0  0  0  0  0  0  0  0  0  0  0
  -26.7450  -28.1360   19.6200 C   0  0  0  0  0  2  0  0  0  0  0  0
  -26.8520  -27.3860   18.2850 C   0  0  0  0  0  0  0  0  0  0  0  0
  -28.0260  -26.6850   17.8260 C   0  0  0  0  0  3  0  0  0  0  0  0
  -26.8580  -26.0310   15.8210 C   0  0  0  0  0  3  0  0  0  0  0  0
  -25.7120  -26.7260   16.2560 C   0  0  0  0  0  3  0  0  0  0  0  0
  -24.4620  -28.1030   18.0090 C   0  0  0  0  0  2  0  0  0  0  0  0
  -25.4370  -27.9870   20.3350 N   0  0  0  0  0  0  0  0  0  0  0  0
  -24.2170  -27.9560   22.2560 O   0  0  0  0  0  0  0  0  0  0  0  0
  -23.4870  -26.4830   19.6860 C   0  0  0  0  0  0  0  0  0  0  0  0
  -22.1700  -26.4330   19.4210 N   0  0  0  0  0  0  0  0  0  0  0  0
  -24.1310  -25.4880   20.0290 O   0  0  0  0  0  0  0  0  0  0  0  0
  -21.7060  -27.2920   19.1580 H   0  0  0  0  0  0  0  0  0  0  0  0
  -18.7750  -25.2230   19.0580 C   0  0  0  0  0  0  0  0  0  0  0  0
  -21.3290  -25.2350   19.4740 C   0  0  0  0  0  3  0  0  0  0  0  0
  -21.4400  -24.4170   18.1650 C   0  0  0  0  0  2  0  0  0  0  0  0
  -20.3610  -24.7750   17.1370 C   0  0  0  0  0  2  0  0  0  0  0  0
  -18.9650  -24.5330   17.7170 C   0  0  0  0  0  2  0  0  0  0  0  0
  -19.8850  -25.5660   19.8740 C   0  0  0  0  0  0  0  0  0  0  0  0
  -19.6540  -26.2350   21.0960 C   0  0  0  0  0  3  0  0  0  0  0  0
  -18.3450  -26.5580   21.5040 C   0  0  0  0  0  3  0  0  0  0  0  0
  -17.2500  -26.2040   20.6980 C   0  0  0  0  0  3  0  0  0  0  0  0
  -17.4660  -25.5350   19.4800 C   0  0  0  0  0  3  0  0  0  0  0  0
  -26.5740  -28.1500   22.6160 C   0  0  0  0  0  3  0  0  0  0  0  0
  -26.2450  -29.1070   23.6850 N   0  0  0  0  0  0  0  0  0  0  0  0
  -26.5630  -30.4080   23.6700 C   0  0  0  0  0  0  0  0  0  0  0  0
  -27.2330  -30.9200   22.7690 O   0  0  0  0  0  0  0  0  0  0  0  0
  -25.6480  -28.7670   24.4250 H   0  0  0  0  0  0  0  0  0  0  0  0
  -24.7910  -32.0320   24.4140 C   0  0  0  0  0  1  0  0  0  0  0  0
  -26.0620  -31.2780   24.8390 C   0  0  0  0  0  3  0  0  0  0  0  0
  -28.1910  -31.6090   26.0170 C   0  0  0  0  0  1  0  0  0  0  0  0
  -27.0700  -32.2430   25.3290 N   0  0  0  0  0  0  0  0  0  0  0  0
  -26.6470  -32.9150   25.9640 H   0  0  0  0  0  0  0  0  0  0  0  0
  -27.0380  -26.7730   23.2350 C   0  0  1  0  0  0  0  0  0  0  0  0
  -25.9040  -25.9970   23.9470 C   0  0  0  0  0  1  0  0  0  0  0  0
  -27.6230  -25.8490   22.1430 C   0  0  0  0  0  1  0  0  0  0  0  0
  -28.1700  -27.0150   24.2600 C   0  0  0  0  0  1  0  0  0  0  0  0
  -28.4040  -18.2050   21.0790 C   0  0  0  0  0  2  0  0  0  0  0  0
  -27.3100  -17.2910   21.4630 N   0  0  0  0  0  4  0  0  0  0  0  0
  -26.6890  -17.1280   20.6910 H   0  0  0  0  0  0  0  0  0  0  0  0
  -26.7780  -17.7030   22.2100 H   0  0  0  0  0  0  0  0  0  0  0  0
  -27.6650  -16.4110   21.7910 H   0  0  0  0  0  0  0  0  0  0  0  0
  1  7  1  0
  2  7  1  0
  3  4  1  0
  3  2  1  0
  5  4  1  0
  5 18  1  0
  5  6  1  0
  7  6  1  0
  8  1  2  0
  9 14  1  0
 11 46  1  0
 11  9  1  0
 11 13  1  0
 12 10  1  0
 12 91  1  0
 13 45  1  0
 13 12  1  0
 14  1  1  0
 14 10  1  0
 15 16  2  0
 16 35  1  0
 17 16  1  0
 17 20  1  0
 18 15  1  0
 18 19  1  0
 19 17  2  0
 20 21  1  0
 21 22  2  0
 23 26  1  0
 23 22  1  0
 24 23  2  0
 25 24  1  0
 25 20  2  0
 26 27  1  0
 27 32  2  0
 27 28  1  0
 28 29  2  0
 29 30  1  0
 30 34  1  0
 31 30  2  0
 32 31  1  0
 33 32  1  0
 35 36  1  0
 36 39  1  0
 36 38  1  0
 37 35  2  0
 40 15  1  0
 41 40  1  0
 42 40  1  0
 43 45  1  0
 44 45  1  0
 47 46  1  0
 48 47  2  0
 49 48  1  0
 49 50  1  0
 50 52  1  0
 51 62  2  0
 52 57  1  0
 53 63  1  0
 53 61  1  0
 54 60  1  0
 54 56  1  0
 55 61  1  0
 56 55  1  0
 57 56  2  0
 58 59  1  0
 58 52  2  0
 59 54  2  0
 60 53  1  0
 61 51  1  0
 63 65  2  0
 64 63  1  0
 66 64  1  0
 67 76  2  0
 67 72  1  0
 68 64  1  0
 68 72  1  0
 69 68  1  0
 70 71  1  0
 70 69  1  0
 71 67  1  0
 72 73  2  0
 73 74  1  0
 75 74  2  0
 76 75  1  0
 77 51  1  0
 77 87  1  0
 77 78  1  0
 78 81  1  0
 79 78  1  0
 79 83  1  0
 80 79  2  0
 83 82  1  0
 83 85  1  0
 85 86  1  0
 85 84  1  0
 87 88  1  1
 87 90  1  0
 89 87  1  0
 91 92  1  0
 92 95  1  0
 92 94  1  0
 93 92  1  0
M  ISO  4   1 100  14 100  49 101  50 101
M  END
>  <TORSDO>  (28) 
F 22

>  <SCORE>  (28) 
-6.203

>  <name>  (28) 
27

>  <ligand_id>  (28) 
27

>  <original_smiles>  (28) 
[H]c1c([H])c([H])c2c(c1[H])C([H])([H])C([H])([H])C([H])([H])C2([H])N([H])C(=O)C1([H])N(C(=O)C([H])(N([H])C(=O)C([H])(N([H])C([H])([H])[H])C([H])([H])[H])C(C([H])([H])[H])(C([H])([H])[H])C([H])([H])[H])C([H])([H])c2c([H])c(OC([H])([H])C([H])([H])C([H])([H])C([H])([H])C3([H])C([H])([H])N(C(=O)N4C([H])([H])C([H])([H])C([H])([H])C([H])(n5nc(-c6c([H])c([H])c(Oc7c([H])c([H])c(F)c([H])c7F)c([H])c6[H])c(C(=O)N([H])[H])c5N([H])[H])C4([H])[H])C([H])([H])C([H])(C([H])([H])[N+]([H])([H])[H])C3([H])C([H])(C([H])([H])[H])C([H])([H])[H])c([H])c([H])c2C1([H])[H]

>  <smiles>  (28) 
[H]c1c([H])c([H])c2c(c1[H])C([H])([H])C([H])([H])C([H])([H])C2([H])N([H])C(=O)C1([H])N(C(=O)C([H])(N([H])C(=O)C([H])(N([H])C([H])([H])[H])C([H])([H])[H])C(C([H])([H])[H])(C([H])([H])[H])C([H])([H])[H])C([H])([H])c2c([H])c(OC([H])([H])C([H])([H])C([H])([H])C([H])([H])C3([H])C([H])([H])N(C(=O)N4C([H])([H])C([H])([H])C([H])([H])C([H])(n5nc(-c6c([H])c([H])c(Oc7c([H])c([H])c(F)c([H])c7F)c([H])c6[H])c(C(=O)N([H])[H])c5N([H])[H])C4([H])[H])C([H])([H])C([H])(C([H])([H])[N+]([H])([H])[H])C3([H])C([H])(C([H])([H])[H])C([H])([H])[H])c([H])c([H])c2C1([H])[H]

$$$$
28:0:0
     RDKit          3D

 92100  0  0  1  0  0  0  0  0999 V2000
  -27.8950  -19.7760   20.3510 C   0  0  0  0  0  2  0  0  0  0  0  0
  -30.2570  -19.6440   20.5830 C   0  0  0  0  0  2  0  0  0  0  0  0
  -29.1300  -20.7070   20.2120 C   0  0  0  0  0  3  0  0  0  0  0  0
  -28.2680  -18.3150   20.0180 C   0  0  0  0  0  3  0  0  0  0  0  0
  -29.6910  -18.1390   20.5720 C   0  0  0  0  0  3  0  0  0  0  0  0
  -25.9840  -17.0870   19.8380 C   0  0  0  0  0  1  0  0  0  0  0  0
  -27.2740  -17.3000   20.6390 C   0  0  0  0  0  2  0  0  0  0  0  0
  -27.4690  -22.4230   21.3030 C   0  0  0  0  0  1  0  0  0  0  0  0
  -28.9640  -22.1630   20.9580 C   0  0  0  0  0  3  0  0  0  0  0  0
  -31.0500  -23.5250   20.2470 C   0  0  0  0  0  1  0  0  0  0  0  0
  -29.5170  -23.5500   20.3110 C   0  0  0  0  0  3  0  0  0  0  0  0
  -29.0110  -24.9320   21.0010 C   0  0  0  0  0  2  0  0  0  0  0  0
  -29.2280  -26.3070   20.4690 O   0  0  0  0  0  0  0  0  0  0  0  0
  -25.0310  -31.5520   23.1930 C   0  0  0  0  0  0  0  0  0  0  0  0
  -28.0970  -27.1280   20.3650 C   0  0  0  0  0  0  0  0  0  0  0  0
  -24.0300  -30.0890   21.4750 C   0  0  0  0  0  3  0  0  0  0  0  0
  -25.6640  -28.6130   20.1710 C   0  0  0  0  0  0  0  0  0  0  0  0
  -26.5570  -30.5380   21.4820 C   0  0  0  0  0  2  0  0  0  0  0  0
  -26.7580  -29.1640   20.8510 C   0  0  0  0  0  0  0  0  0  0  0  0
  -27.9830  -28.4340   20.9400 C   0  0  0  0  0  3  0  0  0  0  0  0
  -26.9850  -26.6300   19.6570 C   0  0  0  0  0  3  0  0  0  0  0  0
  -25.7800  -27.3510   19.5620 C   0  0  0  0  0  3  0  0  0  0  0  0
  -24.3850  -29.4250   20.1190 C   0  0  0  0  0  2  0  0  0  0  0  0
  -25.2210  -30.7440   22.1090 N   0  0  0  0  0  0  0  0  0  0  0  0
  -23.8970  -31.7740   23.6410 O   0  0  0  0  0  0  0  0  0  0  0  0
  -23.3510  -29.0410   22.3900 C   0  0  0  0  0  0  0  0  0  0  0  0
  -22.0360  -28.8330   22.2010 N   0  0  0  0  0  0  0  0  0  0  0  0
  -24.0060  -28.4200   23.2300 O   0  0  0  0  0  0  0  0  0  0  0  0
  -21.5670  -29.3900   21.5010 H   0  0  0  0  0  0  0  0  0  0  0  0
  -18.6490  -27.6330   22.6230 C   0  0  0  0  0  0  0  0  0  0  0  0
  -21.2060  -27.8650   22.9210 C   0  0  0  0  0  3  0  0  0  0  0  0
  -21.3030  -26.4610   22.2780 C   0  0  0  0  0  2  0  0  0  0  0  0
  -20.2070  -26.1970   21.2410 C   0  0  0  0  0  2  0  0  0  0  0  0
  -18.8220  -26.3180   21.8840 C   0  0  0  0  0  2  0  0  0  0  0  0
  -19.7680  -28.3680   23.0950 C   0  0  0  0  0  0  0  0  0  0  0  0
  -19.5510  -29.6020   23.7470 C   0  0  0  0  0  3  0  0  0  0  0  0
  -18.2480  -30.1020   23.9260 C   0  0  0  0  0  3  0  0  0  0  0  0
  -17.1430  -29.3640   23.4690 C   0  0  0  0  0  3  0  0  0  0  0  0
  -17.3440  -28.1310   22.8230 C   0  0  0  0  0  3  0  0  0  0  0  0
  -26.2280  -32.2550   23.9050 C   0  0  0  0  0  3  0  0  0  0  0  0
  -25.8300  -33.6440   24.1790 N   0  0  0  0  0  0  0  0  0  0  0  0
  -26.1780  -34.6970   23.4280 C   0  0  0  0  0  0  0  0  0  0  0  0
  -26.9330  -34.6050   22.4570 O   0  0  0  0  0  0  0  0  0  0  0  0
  -25.1650  -33.7860   24.9250 H   0  0  0  0  0  0  0  0  0  0  0  0
  -24.4060  -36.4030   22.9010 C   0  0  0  0  0  1  0  0  0  0  0  0
  -25.5960  -36.0710   23.8150 C   0  0  0  0  0  3  0  0  0  0  0  0
  -27.6130  -37.0720   24.7930 C   0  0  0  0  0  1  0  0  0  0  0  0
  -26.5880  -37.1660   23.7590 N   0  0  0  0  0  0  0  0  0  0  0  0
  -26.1310  -38.0700   23.8460 H   0  0  0  0  0  0  0  0  0  0  0  0
  -26.6680  -31.5310   25.2370 C   0  0  1  0  0  0  0  0  0  0  0  0
  -25.4960  -31.2360   26.2020 C   0  0  0  0  0  1  0  0  0  0  0  0
  -27.3680  -30.1870   24.9230 C   0  0  0  0  0  1  0  0  0  0  0  0
  -27.7020  -32.4030   25.9890 C   0  0  0  0  0  1  0  0  0  0  0  0
  -30.5490  -16.9380   19.9280 C   0  0  0  0  0  2  0  0  0  0  0  0
  -30.9980  -14.3740   19.9580 C   0  0  0  0  0  0  0  0  0  0  0  0
  -30.6510  -12.1430   18.9080 C   0  0  0  0  0  2  0  0  0  0  0  0
  -29.6440  -12.3140   17.7500 C   0  0  0  0  0  2  0  0  0  0  0  0
  -28.2020  -12.1600   18.2690 C   0  0  0  0  0  2  0  0  0  0  0  0
  -27.9350  -13.0090   19.5420 C   0  0  0  0  0  3  0  0  0  0  0  0
  -29.0630  -12.8540   20.5900 C   0  0  0  0  0  2  0  0  0  0  0  0
  -30.3350  -13.1710   19.9260 N   0  0  0  0  0  0  0  0  0  0  0  0
  -32.1250  -14.4820   19.4670 O   0  0  0  0  0  0  0  0  0  0  0  0
  -30.2910  -15.4940   20.3340 N   0  0  0  0  0  0  0  0  0  0  0  0
  -29.3950  -15.3150   20.7550 H   0  0  0  0  0  0  0  0  0  0  0  0
  -25.5960  -13.6180   20.4020 C   0  0  0  0  0  0  0  0  0  0  0  0
  -24.5470  -12.8570   20.8410 C   0  0  0  0  0  0  0  0  0  0  0  0
  -24.9940  -11.5010   20.7810 C   0  0  0  0  0  0  0  0  0  0  0  0
  -26.6180  -12.7320   20.1080 N   0  0  0  0  0  0  0  0  0  0  0  0
  -26.2640  -11.4510   20.3930 N   0  0  0  0  0  0  0  0  0  0  0  0
  -24.2670  -10.2460   21.0100 C   0  0  0  0  0  0  0  0  0  0  0  0
  -24.6700   -9.3260   22.0030 C   0  0  0  0  0  3  0  0  0  0  0  0
  -23.9410   -8.1370   22.2180 C   0  0  0  0  0  3  0  0  0  0  0  0
  -22.7950   -7.8580   21.4370 C   0  0  0  0  0  0  0  0  0  0  0  0
  -22.4080   -8.7660   20.4350 C   0  0  0  0  0  3  0  0  0  0  0  0
  -23.1380   -9.9460   20.2200 C   0  0  0  0  0  3  0  0  0  0  0  0
  -22.0400   -6.7150   21.5570 O   0  0  0  0  0  0  0  0  0  0  0  0
  -21.8630   -6.0930   22.7670 C   0  0  0  0  0  0  0  0  0  0  0  0
  -21.2770   -6.7570   23.8670 C   0  0  0  0  0  3  0  0  0  0  0  0
  -21.0490   -6.0610   25.0700 C   0  0  0  0  0  3  0  0  0  0  0  0
  -21.3990   -4.7020   25.1750 C   0  0  0  0  0  0  0  0  0  0  0  0
  -21.9790   -4.0370   24.0800 C   0  0  0  0  0  3  0  0  0  0  0  0
  -22.2080   -4.7320   22.8780 C   0  0  0  0  0  0  0  0  0  0  0  0
  -22.7470   -4.0790   21.8200 F   0  0  0  0  0  0  0  0  0  0  0  0
  -21.1750   -4.0310   26.3300 F   0  0  0  0  0  0  0  0  0  0  0  0
  -23.1780  -13.3510   21.2030 C   0  0  0  0  0  0  0  0  0  0  0  0
  -22.5120  -12.6760   22.1330 N   0  0  0  0  0  0  0  0  0  0  0  0
  -22.7090  -14.3700   20.6980 O   0  0  0  0  0  0  0  0  0  0  0  0
  -22.9090  -11.8530   22.5590 H   0  0  0  0  0  0  0  0  0  0  0  0
  -21.5980  -12.9920   22.4260 H   0  0  0  0  0  0  0  0  0  0  0  0
  -25.7560  -14.9850   20.2040 N   0  0  0  0  0  0  0  0  0  0  0  0
  -24.9940  -15.6380   20.3440 H   0  0  0  0  0  0  0  0  0  0  0  0
  -26.5780  -15.4150   19.8030 H   0  0  0  0  0  0  0  0  0  0  0  0
  3  1  1  0
  3  2  1  0
  3  9  1  0
  4  1  1  0
  4  5  1  0
  4  7  1  0
  5 54  1  0
  5  2  1  0
  6  7  1  0
  9  8  1  0
 11 10  1  0
 11  9  1  0
 11 12  1  0
 13 12  1  0
 14 25  2  0
 15 13  1  0
 15 20  1  0
 16 24  1  0
 16 26  1  0
 17 19  1  0
 18 24  1  0
 19 20  2  0
 19 18  1  0
 21 15  2  0
 22 21  1  0
 22 17  2  0
 23 17  1  0
 23 16  1  0
 24 14  1  0
 26 28  2  0
 27 26  1  0
 29 27  1  0
 30 39  2  0
 30 35  1  0
 31 27  1  0
 31 35  1  0
 32 31  1  0
 33 34  1  0
 33 32  1  0
 34 30  1  0
 35 36  2  0
 36 37  1  0
 38 37  2  0
 39 38  1  0
 40 14  1  0
 40 41  1  0
 40 50  1  0
 41 44  1  0
 42 46  1  0
 42 41  1  0
 43 42  2  0
 46 45  1  0
 48 46  1  0
 48 49  1  0
 48 47  1  0
 50 53  1  1
 50 51  1  0
 52 50  1  0
 54 63  1  0
 55 63  1  0
 56 61  1  0
 57 58  1  0
 57 56  1  0
 59 58  1  0
 59 68  1  0
 59 60  1  0
 61 55  1  0
 61 60  1  0
 62 55  2  0
 63 64  1  0
 65 66  2  0
 66 85  1  0
 67 66  1  0
 67 70  1  0
 68 69  1  0
 68 65  1  0
 69 67  2  0
 70 71  1  0
 71 72  2  0
 73 76  1  0
 73 72  1  0
 74 73  2  0
 75 74  1  0
 75 70  2  0
 76 77  1  0
 77 82  2  0
 77 78  1  0
 78 79  2  0
 79 80  1  0
 80 84  1  0
 81 80  2  0
 82 81  1  0
 83 82  1  0
 85 86  1  0
 86 89  1  0
 86 88  1  0
 87 85  2  0
 90 91  1  0
 90 65  1  0
 92 90  1  0
M  ISO  4  12 101  13 101  55 100  63 100
M  END
>  <TORSDO>  (29) 
F 21

>  <SCORE>  (29) 
-11.895

>  <name>  (29) 
28

>  <ligand_id>  (29) 
28

>  <original_smiles>  (29) 
[H]c1c([H])c([H])c2c(c1[H])C([H])([H])C([H])([H])C([H])([H])C2([H])N([H])C(=O)C1([H])N(C(=O)C([H])(N([H])C(=O)C([H])(N([H])C([H])([H])[H])C([H])([H])[H])C(C([H])([H])[H])(C([H])([H])[H])C([H])([H])[H])C([H])([H])c2c([H])c(OC([H])([H])C([H])(C([H])([H])[H])C([H])(C([H])([H])[H])C3([H])C([H])([H])C([H])(C([H])([H])N([H])C(=O)N4C([H])([H])C([H])([H])C([H])([H])C([H])(n5nc(-c6c([H])c([H])c(Oc7c([H])c([H])c(F)c([H])c7F)c([H])c6[H])c(C(=O)N([H])[H])c5N([H])[H])C4([H])[H])C([H])(C([H])([H])C([H])([H])[H])C3([H])[H])c([H])c([H])c2C1([H])[H]

>  <smiles>  (29) 
[H]c1c([H])c([H])c2c(c1[H])C([H])([H])C([H])([H])C([H])([H])C2([H])N([H])C(=O)C1([H])N(C(=O)C([H])(N([H])C(=O)C([H])(N([H])C([H])([H])[H])C([H])([H])[H])C(C([H])([H])[H])(C([H])([H])[H])C([H])([H])[H])C([H])([H])c2c([H])c(OC([H])([H])C([H])(C([H])([H])[H])C([H])(C([H])([H])[H])C3([H])C([H])([H])C([H])(C([H])([H])N([H])C(=O)N4C([H])([H])C([H])([H])C([H])([H])C([H])(n5nc(-c6c([H])c([H])c(Oc7c([H])c([H])c(F)c([H])c7F)c([H])c6[H])c(C(=O)N([H])[H])c5N([H])[H])C4([H])[H])C([H])(C([H])([H])C([H])([H])[H])C3([H])[H])c([H])c([H])c2C1([H])[H]

$$$$
29:0:0
     RDKit          3D

 91 99  0  0  1  0  0  0  0  0999 V2000
  -29.1380  -19.5650   19.7830 N   0  0  0  0  0  4  0  0  0  0  0  0
  -28.3350  -19.5930   19.1760 H   0  0  0  0  0  0  0  0  0  0  0  0
  -29.9370  -19.6570   19.1770 H   0  0  0  0  0  0  0  0  0  0  0  0
  -30.4170  -14.8940   19.9580 C   0  0  0  0  0  0  0  0  0  0  0  0
  -30.1350  -12.6360   18.9210 C   0  0  0  0  0  2  0  0  0  0  0  0
  -29.1150  -12.7210   17.7660 C   0  0  0  0  0  2  0  0  0  0  0  0
  -27.6850  -12.5160   18.2990 C   0  0  0  0  0  2  0  0  0  0  0  0
  -27.3890  -13.3770   19.5550 C   0  0  0  0  0  3  0  0  0  0  0  0
  -28.5260  -13.3030   20.5970 C   0  0  0  0  0  2  0  0  0  0  0  0
  -29.7710  -13.6760   19.9160 N   0  0  0  0  0  0  0  0  0  0  0  0
  -31.5660  -14.9770   19.5180 O   0  0  0  0  0  0  0  0  0  0  0  0
  -28.9940  -16.9280   19.3980 C   0  0  0  0  0  2  0  0  0  0  0  0
  -29.1250  -18.1290   20.3840 C   0  0  0  0  0  3  0  0  0  0  0  0
  -30.4160  -17.3480   20.7810 C   0  0  0  0  0  3  0  0  0  0  0  0
  -29.7400  -16.0530   20.3610 N   0  0  0  0  0  0  0  0  0  0  0  0
  -25.0500  -13.9180   20.4530 C   0  0  0  0  0  0  0  0  0  0  0  0
  -24.0240  -13.1200   20.8840 C   0  0  0  0  0  0  0  0  0  0  0  0
  -24.5070  -11.7790   20.8060 C   0  0  0  0  0  0  0  0  0  0  0  0
  -26.0900  -13.0590   20.1360 N   0  0  0  0  0  0  0  0  0  0  0  0
  -25.7750  -11.7670   20.4120 N   0  0  0  0  0  0  0  0  0  0  0  0
  -23.8160  -10.5020   21.0310 C   0  0  0  0  0  0  0  0  0  0  0  0
  -24.2990   -9.5520   21.9580 C   0  0  0  0  0  3  0  0  0  0  0  0
  -23.6050   -8.3410   22.1700 C   0  0  0  0  0  3  0  0  0  0  0  0
  -22.4150   -8.0720   21.4550 C   0  0  0  0  0  0  0  0  0  0  0  0
  -21.9500   -9.0100   20.5170 C   0  0  0  0  0  3  0  0  0  0  0  0
  -22.6440  -10.2120   20.3030 C   0  0  0  0  0  3  0  0  0  0  0  0
  -21.6880   -6.9120   21.5770 O   0  0  0  0  0  0  0  0  0  0  0  0
  -21.6890   -6.1800   22.7370 C   0  0  0  0  0  0  0  0  0  0  0  0
  -21.2510   -6.7260   23.9630 C   0  0  0  0  0  3  0  0  0  0  0  0
  -21.2050   -5.9180   25.1160 C   0  0  0  0  0  3  0  0  0  0  0  0
  -21.5860   -4.5650   25.0450 C   0  0  0  0  0  0  0  0  0  0  0  0
  -22.0170   -4.0180   23.8240 C   0  0  0  0  0  3  0  0  0  0  0  0
  -22.0650   -4.8240   22.6730 C   0  0  0  0  0  0  0  0  0  0  0  0
  -22.4620   -4.2860   21.4940 F   0  0  0  0  0  0  0  0  0  0  0  0
  -21.5330   -3.7860   26.1520 F   0  0  0  0  0  0  0  0  0  0  0  0
  -22.6410  -13.5710   21.2540 C   0  0  0  0  0  0  0  0  0  0  0  0
  -21.9910  -12.8640   22.1710 N   0  0  0  0  0  0  0  0  0  0  0  0
  -22.1470  -14.5870   20.7640 O   0  0  0  0  0  0  0  0  0  0  0  0
  -22.4050  -12.0430   22.5870 H   0  0  0  0  0  0  0  0  0  0  0  0
  -21.0670  -13.1500   22.4630 H   0  0  0  0  0  0  0  0  0  0  0  0
  -25.1780  -15.2930   20.2840 N   0  0  0  0  0  0  0  0  0  0  0  0
  -24.4120  -15.9330   20.4630 H   0  0  0  0  0  0  0  0  0  0  0  0
  -26.0090  -15.7530   19.9370 H   0  0  0  0  0  0  0  0  0  0  0  0
  -31.8290  -16.1480   22.5570 C   0  0  0  0  0  1  0  0  0  0  0  0
  -31.4990  -18.6340   22.6840 C   0  0  0  0  0  1  0  0  0  0  0  0
  -30.8620  -17.3060   22.2550 C   0  0  0  0  0  3  0  0  0  0  0  0
  -29.0290  -20.8640   20.6150 C   0  0  0  0  0  3  0  0  0  0  0  0
  -28.5160  -22.2380   19.8820 C   0  0  0  0  0  3  0  0  0  0  0  0
  -28.6900  -23.7360   20.5210 C   0  0  0  0  0  3  0  0  0  0  0  0
  -27.8380  -24.9950   19.9330 C   0  0  0  0  0  3  0  0  0  0  0  0
  -28.0740  -26.4480   20.2910 O   0  0  0  0  0  0  0  0  0  0  0  0
  -24.5250  -32.0070   23.3580 C   0  0  0  0  0  0  0  0  0  0  0  0
  -27.0080  -27.3860   20.2210 C   0  0  0  0  0  0  0  0  0  0  0  0
  -23.2840  -30.6590   21.7080 C   0  0  0  0  0  3  0  0  0  0  0  0
  -24.6920  -29.1010   20.2430 C   0  0  0  0  0  0  0  0  0  0  0  0
  -25.8340  -30.9100   21.5180 C   0  0  0  0  0  2  0  0  0  0  0  0
  -25.8780  -29.5360   20.8460 C   0  0  0  0  0  0  0  0  0  0  0  0
  -27.0370  -28.6910   20.8270 C   0  0  0  0  0  3  0  0  0  0  0  0
  -25.8030  -27.0380   19.5650 C   0  0  0  0  0  3  0  0  0  0  0  0
  -24.6610  -27.8610   19.5890 C   0  0  0  0  0  3  0  0  0  0  0  0
  -23.4760  -30.0030   20.3160 C   0  0  0  0  0  2  0  0  0  0  0  0
  -24.5680  -31.2100   22.2500 N   0  0  0  0  0  0  0  0  0  0  0  0
  -23.4500  -32.2990   23.9040 O   0  0  0  0  0  0  0  0  0  0  0  0
  -22.6050  -29.6420   22.6580 C   0  0  0  0  0  0  0  0  0  0  0  0
  -21.2800  -29.4640   22.5120 N   0  0  0  0  0  0  0  0  0  0  0  0
  -23.2700  -29.0170   23.4870 O   0  0  0  0  0  0  0  0  0  0  0  0
  -20.8020  -30.0210   21.8170 H   0  0  0  0  0  0  0  0  0  0  0  0
  -17.8970  -28.2570   22.9600 C   0  0  0  0  0  0  0  0  0  0  0  0
  -20.4500  -28.5260   23.2710 C   0  0  0  0  0  3  0  0  0  0  0  0
  -20.5660  -27.0930   22.7010 C   0  0  0  0  0  2  0  0  0  0  0  0
  -19.4810  -26.7650   21.6690 C   0  0  0  0  0  2  0  0  0  0  0  0
  -18.0880  -26.9070   22.2890 C   0  0  0  0  0  2  0  0  0  0  0  0
  -19.0060  -29.0240   23.4060 C   0  0  0  0  0  0  0  0  0  0  0  0
  -18.7730  -30.2870   23.9930 C   0  0  0  0  0  3  0  0  0  0  0  0
  -17.4640  -30.7830   24.1370 C   0  0  0  0  0  3  0  0  0  0  0  0
  -16.3690  -30.0130   23.7070 C   0  0  0  0  0  3  0  0  0  0  0  0
  -16.5860  -28.7530   23.1230 C   0  0  0  0  0  3  0  0  0  0  0  0
  -25.8230  -32.6070   23.9810 C   0  0  0  0  0  3  0  0  0  0  0  0
  -25.5600  -34.0240   24.2780 N   0  0  0  0  0  0  0  0  0  0  0  0
  -25.9350  -35.0480   23.5010 C   0  0  0  0  0  0  0  0  0  0  0  0
  -26.6060  -34.8990   22.4760 O   0  0  0  0  0  0  0  0  0  0  0  0
  -24.9650  -34.2160   25.0720 H   0  0  0  0  0  0  0  0  0  0  0  0
  -24.2860  -36.9050   23.0870 C   0  0  0  0  0  1  0  0  0  0  0  0
  -25.4970  -36.4630   23.9270 C   0  0  0  0  0  3  0  0  0  0  0  0
  -27.6420  -37.2850   24.7930 C   0  0  0  0  0  1  0  0  0  0  0  0
  -26.5730  -37.4710   23.8160 N   0  0  0  0  0  0  0  0  0  0  0  0
  -26.2000  -38.4100   23.9290 H   0  0  0  0  0  0  0  0  0  0  0  0
  -26.2940  -31.8480   25.2820 C   0  0  1  0  0  0  0  0  0  0  0  0
  -25.1780  -31.6680   26.3370 C   0  0  0  0  0  1  0  0  0  0  0  0
  -26.8410  -30.4450   24.9320 C   0  0  0  0  0  1  0  0  0  0  0  0
  -27.4590  -32.6220   25.9450 C   0  0  0  0  0  1  0  0  0  0  0  0
  1 47  1  0
  2  1  1  0
  3  1  1  0
  4 15  1  0
  5 10  1  0
  6  7  1  0
  6  5  1  0
  8  7  1  0
  8 19  1  0
  8  9  1  0
 10  4  1  0
 10  9  1  0
 11  4  2  0
 12 15  1  0
 12 13  1  0
 13  1  1  0
 13 14  1  0
 14 46  1  0
 15 14  1  0
 16 17  2  0
 17 36  1  0
 18 17  1  0
 18 21  1  0
 19 20  1  0
 19 16  1  0
 20 18  2  0
 21 22  1  0
 22 23  2  0
 24 27  1  0
 24 23  1  0
 25 24  2  0
 26 25  1  0
 26 21  2  0
 27 28  1  0
 28 29  1  0
 29 30  2  0
 31 30  1  0
 31 35  1  0
 32 31  2  0
 33 28  2  0
 33 32  1  0
 34 33  1  0
 36 37  1  0
 37 40  1  0
 37 39  1  0
 38 36  2  0
 41 16  1  0
 41 42  1  0
 43 41  1  0
 46 44  1  0
 46 45  1  0
 48 49  1  0
 48 47  2  0
 50 51  1  0
 50 49  2  0
 52 63  2  0
 53 51  1  0
 53 58  1  0
 54 62  1  0
 54 64  1  0
 55 61  1  0
 55 57  1  0
 56 62  1  0
 57 56  1  0
 58 57  2  0
 59 60  1  0
 59 53  2  0
 60 55  2  0
 61 54  1  0
 62 52  1  0
 64 66  2  0
 65 64  1  0
 67 65  1  0
 68 77  2  0
 68 73  1  0
 69 65  1  0
 69 73  1  0
 70 69  1  0
 71 72  1  0
 71 70  1  0
 72 68  1  0
 73 74  2  0
 74 75  1  0
 76 75  2  0
 77 76  1  0
 78 52  1  0
 78 79  1  0
 78 88  1  0
 79 82  1  0
 80 84  1  0
 80 79  1  0
 81 80  2  0
 84 83  1  0
 86 84  1  0
 86 87  1  0
 86 85  1  0
 88 91  1  1
 88 89  1  0
 90 88  1  0
M  ISO  4   4 100  15 100  50 101  51 101
M  END
>  <TORSDO>  (30) 
F 21

>  <SCORE>  (30) 
-11.453

>  <name>  (30) 
29

>  <ligand_id>  (30) 
29

>  <original_smiles>  (30) 
[H]c1c([H])c([H])c2c(c1[H])C([H])([H])C([H])([H])C([H])([H])C2([H])N([H])C(=O)C1([H])N(C(=O)C([H])(N([H])C(=O)C([H])(N([H])C([H])([H])[H])C([H])([H])[H])C(C([H])([H])[H])(C([H])([H])[H])C([H])([H])[H])C([H])([H])c2c([H])c(OC([H])([H])C([H])([H])C([H])([H])C([H])([H])[N+]([H])([H])C3([H])C([H])([H])N(C(=O)N4C([H])([H])C([H])([H])C([H])([H])C([H])(n5nc(-c6c([H])c([H])c(Oc7c([H])c([H])c(F)c([H])c7F)c([H])c6[H])c(C(=O)N([H])[H])c5N([H])[H])C4([H])[H])C3([H])C([H])(C([H])([H])[H])C([H])([H])[H])c([H])c([H])c2C1([H])[H]

>  <smiles>  (30) 
[H]c1c([H])c([H])c2c(c1[H])C([H])([H])C([H])([H])C([H])([H])C2([H])N([H])C(=O)C1([H])N(C(=O)C([H])(N([H])C(=O)C([H])(N([H])C([H])([H])[H])C([H])([H])[H])C(C([H])([H])[H])(C([H])([H])[H])C([H])([H])[H])C([H])([H])c2c([H])c(OC([H])([H])C([H])([H])C([H])([H])C([H])([H])[N+]([H])([H])C3([H])C([H])([H])N(C(=O)N4C([H])([H])C([H])([H])C([H])([H])C([H])(n5nc(-c6c([H])c([H])c(Oc7c([H])c([H])c(F)c([H])c7F)c([H])c6[H])c(C(=O)N([H])[H])c5N([H])[H])C4([H])[H])C3([H])C([H])(C([H])([H])[H])C([H])([H])[H])c([H])c([H])c2C1([H])[H]

$$$$
30:0:0
     RDKit          3D

 90 98  0  0  1  0  0  0  0  0999 V2000
  -29.8470  -21.3010   22.8700 C   0  0  0  0  0  3  0  0  0  0  0  0
  -30.1350  -20.0800   22.2300 C   0  0  0  0  0  3  0  0  0  0  0  0
  -29.4800  -22.4510   22.1430 C   0  0  0  0  0  3  0  0  0  0  0  0
  -29.7110  -21.1510   20.0930 C   0  0  0  0  0  3  0  0  0  0  0  0
  -30.0620  -19.9330   20.8250 C   0  0  0  0  0  0  0  0  0  0  0  0
  -29.4100  -22.4390   20.7310 C   0  0  0  0  0  0  0  0  0  0  0  0
  -30.4520  -18.4820   20.2210 C   0  0  0  0  0  2  0  0  0  0  0  0
  -30.7460  -14.8970   20.1200 C   0  0  0  0  0  0  0  0  0  0  0  0
  -30.5850  -12.6610   18.9720 C   0  0  0  0  0  2  0  0  0  0  0  0
  -29.5880  -12.7800   17.7960 C   0  0  0  0  0  2  0  0  0  0  0  0
  -28.1340  -12.5830   18.2650 C   0  0  0  0  0  2  0  0  0  0  0  0
  -27.8120  -13.4030   19.5450 C   0  0  0  0  0  3  0  0  0  0  0  0
  -28.9110  -13.2170   20.6180 C   0  0  0  0  0  2  0  0  0  0  0  0
  -30.1950  -13.6330   20.0190 N   0  0  0  0  0  0  0  0  0  0  0  0
  -31.8610  -15.1360   19.6430 O   0  0  0  0  0  0  0  0  0  0  0  0
  -29.7120  -17.2020   20.8380 C   0  0  0  0  0  0  0  0  0  0  0  0
  -29.9020  -15.8330   20.6810 N   0  0  0  0  0  0  0  0  0  0  0  0
  -28.7470  -17.4730   21.5600 O   0  0  0  0  0  0  0  0  0  0  0  0
  -29.1390  -15.3530   21.1270 H   0  0  0  0  0  0  0  0  0  0  0  0
  -25.4310  -13.9810   20.3250 C   0  0  0  0  0  0  0  0  0  0  0  0
  -24.3810  -13.1980   20.7210 C   0  0  0  0  0  0  0  0  0  0  0  0
  -24.8520  -11.8510   20.6730 C   0  0  0  0  0  0  0  0  0  0  0  0
  -26.4790  -13.1090   20.0620 N   0  0  0  0  0  0  0  0  0  0  0  0
  -26.1360  -11.8230   20.3290 N   0  0  0  0  0  0  0  0  0  0  0  0
  -24.1390  -10.5830   20.8690 C   0  0  0  0  0  0  0  0  0  0  0  0
  -24.5600   -9.6470   21.8390 C   0  0  0  0  0  3  0  0  0  0  0  0
  -23.8510   -8.4430   22.0310 C   0  0  0  0  0  3  0  0  0  0  0  0
  -22.7010   -8.1650   21.2530 C   0  0  0  0  0  0  0  0  0  0  0  0
  -22.2990   -9.0870   20.2720 C   0  0  0  0  0  3  0  0  0  0  0  0
  -23.0090  -10.2830   20.0800 C   0  0  0  0  0  3  0  0  0  0  0  0
  -21.9640   -7.0080   21.3520 O   0  0  0  0  0  0  0  0  0  0  0  0
  -21.8310   -6.3380   22.5410 C   0  0  0  0  0  0  0  0  0  0  0  0
  -21.2810   -6.9530   23.6870 C   0  0  0  0  0  3  0  0  0  0  0  0
  -21.1010   -6.2080   24.8690 C   0  0  0  0  0  3  0  0  0  0  0  0
  -21.4540   -4.8460   24.9030 C   0  0  0  0  0  0  0  0  0  0  0  0
  -21.9970   -4.2290   23.7620 C   0  0  0  0  0  3  0  0  0  0  0  0
  -22.1800   -4.9740   22.5840 C   0  0  0  0  0  0  0  0  0  0  0  0
  -22.6820   -4.3690   21.4800 F   0  0  0  0  0  0  0  0  0  0  0  0
  -21.2730   -4.1260   26.0360 F   0  0  0  0  0  0  0  0  0  0  0  0
  -22.9880  -13.6610   21.0330 C   0  0  0  0  0  0  0  0  0  0  0  0
  -22.2970  -12.9610   21.9260 N   0  0  0  0  0  0  0  0  0  0  0  0
  -22.5210  -14.6770   20.5210 O   0  0  0  0  0  0  0  0  0  0  0  0
  -22.6960  -12.1440   22.3670 H   0  0  0  0  0  0  0  0  0  0  0  0
  -21.3590  -13.2400   22.1740 H   0  0  0  0  0  0  0  0  0  0  0  0
  -25.5780  -15.3510   20.1470 N   0  0  0  0  0  0  0  0  0  0  0  0
  -24.8040  -15.9940   20.2680 H   0  0  0  0  0  0  0  0  0  0  0  0
  -26.4240  -15.8030   19.8170 H   0  0  0  0  0  0  0  0  0  0  0  0
  -29.1070  -23.8220   19.9640 C   0  0  0  0  0  3  0  0  0  0  0  0
  -28.4620  -25.1350   20.7000 C   0  0  0  0  0  3  0  0  0  0  0  0
  -28.5170  -26.5280   20.1250 O   0  0  0  0  0  0  0  0  0  0  0  0
  -24.6470  -31.8710   23.2060 C   0  0  0  0  0  0  0  0  0  0  0  0
  -27.3740  -27.3630   20.1410 C   0  0  0  0  0  0  0  0  0  0  0  0
  -23.4830  -30.4720   21.5380 C   0  0  0  0  0  3  0  0  0  0  0  0
  -24.9770  -28.9510   20.1110 C   0  0  0  0  0  0  0  0  0  0  0  0
  -26.0190  -30.8310   21.3780 C   0  0  0  0  0  2  0  0  0  0  0  0
  -26.1310  -29.4550   20.7220 C   0  0  0  0  0  0  0  0  0  0  0  0
  -27.3370  -28.6790   20.7150 C   0  0  0  0  0  3  0  0  0  0  0  0
  -26.1930  -26.9130   19.5170 C   0  0  0  0  0  3  0  0  0  0  0  0
  -25.0120  -27.6870   19.4940 C   0  0  0  0  0  3  0  0  0  0  0  0
  -23.7200  -29.8020   20.1560 C   0  0  0  0  0  2  0  0  0  0  0  0
  -24.7350  -31.0780   22.0970 N   0  0  0  0  0  0  0  0  0  0  0  0
  -23.5550  -32.1200   23.7400 O   0  0  0  0  0  0  0  0  0  0  0  0
  -22.8280  -29.4400   22.4870 C   0  0  0  0  0  0  0  0  0  0  0  0
  -21.5040  -29.2450   22.3590 N   0  0  0  0  0  0  0  0  0  0  0  0
  -23.5150  -28.8120   23.3000 O   0  0  0  0  0  0  0  0  0  0  0  0
  -21.0120  -29.7860   21.6600 H   0  0  0  0  0  0  0  0  0  0  0  0
  -18.1430  -28.0260   22.8850 C   0  0  0  0  0  0  0  0  0  0  0  0
  -20.7030  -28.2890   23.1230 C   0  0  0  0  0  3  0  0  0  0  0  0
  -20.8050  -26.8720   22.5110 C   0  0  0  0  0  2  0  0  0  0  0  0
  -19.6890  -26.5710   21.5060 C   0  0  0  0  0  2  0  0  0  0  0  0
  -18.3140  -26.6970   22.1690 C   0  0  0  0  0  2  0  0  0  0  0  0
  -19.2640  -28.7810   23.3200 C   0  0  0  0  0  0  0  0  0  0  0  0
  -19.0470  -30.0280   23.9460 C   0  0  0  0  0  3  0  0  0  0  0  0
  -17.7420  -30.5160   24.1460 C   0  0  0  0  0  3  0  0  0  0  0  0
  -16.6360  -29.7580   23.7260 C   0  0  0  0  0  3  0  0  0  0  0  0
  -16.8370  -28.5140   23.1000 C   0  0  0  0  0  3  0  0  0  0  0  0
  -25.9100  -32.5230   23.8460 C   0  0  0  0  0  3  0  0  0  0  0  0
  -26.4170  -31.7630   25.1330 C   0  0  1  0  0  0  0  0  0  0  0  0
  -25.3100  -31.5110   26.1850 C   0  0  0  0  0  1  0  0  0  0  0  0
  -27.0270  -30.3920   24.7590 C   0  0  0  0  0  1  0  0  0  0  0  0
  -27.5450  -32.5770   25.8090 C   0  0  0  0  0  1  0  0  0  0  0  0
  -25.5780  -33.9170   24.1710 N   0  0  0  0  0  0  0  0  0  0  0  0
  -25.9190  -34.9770   23.4230 C   0  0  0  0  0  0  0  0  0  0  0  0
  -26.6170  -34.8830   22.4100 O   0  0  0  0  0  0  0  0  0  0  0  0
  -24.9610  -34.0640   24.9570 H   0  0  0  0  0  0  0  0  0  0  0  0
  -24.1970  -36.7620   23.0210 C   0  0  0  0  0  1  0  0  0  0  0  0
  -25.4090  -36.3590   23.8730 C   0  0  0  0  0  3  0  0  0  0  0  0
  -27.5080  -37.2520   24.7840 C   0  0  0  0  0  1  0  0  0  0  0  0
  -26.4400  -37.4180   23.8030 N   0  0  0  0  0  0  0  0  0  0  0  0
  -26.0230  -38.3360   23.9400 H   0  0  0  0  0  0  0  0  0  0  0  0
  2  1  1  0
  3  1  2  0
  4  6  2  0
  4  5  1  0
  5  2  2  0
  6  3  1  0
  7  5  1  0
  7 16  1  0
  8 17  1  0
  9 14  1  0
 10 11  1  0
 10  9  1  0
 12 11  1  0
 12 23  1  0
 12 13  1  0
 14  8  1  0
 14 13  1  0
 15  8  2  0
 16 18  2  0
 17 16  1  0
 17 19  1  0
 20 21  2  0
 21 40  1  0
 22 21  1  0
 22 25  1  0
 23 20  1  0
 23 24  1  0
 24 22  2  0
 25 26  1  0
 26 27  2  0
 28 31  1  0
 28 27  1  0
 29 28  2  0
 30 29  1  0
 30 25  2  0
 31 32  1  0
 32 37  2  0
 32 33  1  0
 33 34  2  0
 34 35  1  0
 35 39  1  0
 36 35  2  0
 37 36  1  0
 38 37  1  0
 40 41  1  0
 41 44  1  0
 41 43  1  0
 42 40  2  0
 45 46  1  0
 45 20  1  0
 47 45  1  0
 48 49  2  0
 48  6  1  0
 50 52  1  0
 50 49  1  0
 51 62  2  0
 52 57  1  0
 53 61  1  0
 53 63  1  0
 54 60  1  0
 54 56  1  0
 55 61  1  0
 56 55  1  0
 57 56  2  0
 58 52  2  0
 59 58  1  0
 59 54  2  0
 60 53  1  0
 61 51  1  0
 63 65  2  0
 64 63  1  0
 66 64  1  0
 67 76  2  0
 67 72  1  0
 68 64  1  0
 68 72  1  0
 69 68  1  0
 70 71  1  0
 70 69  1  0
 71 67  1  0
 72 73  2  0
 73 74  1  0
 75 74  2  0
 76 75  1  0
 77 51  1  0
 77 82  1  0
 77 78  1  0
 78 81  1  1
 78 79  1  0
 80 78  1  0
 82 85  1  0
 83 87  1  0
 83 82  1  0
 84 83  2  0
 87 86  1  0
 89 87  1  0
 89 90  1  0
 89 88  1  0
M  ISO  4   8 100  17 100  49 101  50 101
M  END
>  <TORSDO>  (31) 
F 19

>  <SCORE>  (31) 
-13.432

>  <name>  (31) 
30

>  <ligand_id>  (31) 
30

>  <original_smiles>  (31) 
[H]c1c([H])c(C([H])([H])C(=O)N([H])C(=O)N2C([H])([H])C([H])([H])C([H])([H])C([H])(n3nc(-c4c([H])c([H])c(Oc5c([H])c([H])c(F)c([H])c5F)c([H])c4[H])c(C(=O)N([H])[H])c3N([H])[H])C2([H])[H])c([H])c(C([H])([H])C([H])([H])Oc2c([H])c([H])c3c(c2[H])C([H])([H])N(C(=O)C([H])(N([H])C(=O)C([H])(N([H])C([H])([H])[H])C([H])([H])[H])C(C([H])([H])[H])(C([H])([H])[H])C([H])([H])[H])C([H])(C(=O)N([H])C2([H])c4c([H])c([H])c([H])c([H])c4C([H])([H])C([H])([H])C2([H])[H])C3([H])[H])c1[H]

>  <smiles>  (31) 
[H]c1c([H])c(C([H])([H])C(=O)N([H])C(=O)N2C([H])([H])C([H])([H])C([H])([H])C([H])(n3nc(-c4c([H])c([H])c(Oc5c([H])c([H])c(F)c([H])c5F)c([H])c4[H])c(C(=O)N([H])[H])c3N([H])[H])C2([H])[H])c([H])c(C([H])([H])C([H])([H])Oc2c([H])c([H])c3c(c2[H])C([H])([H])N(C(=O)C([H])(N([H])C(=O)C([H])(N([H])C([H])([H])[H])C([H])([H])[H])C(C([H])([H])[H])(C([H])([H])[H])C([H])([H])[H])C([H])(C(=O)N([H])C2([H])c4c([H])c([H])c([H])c([H])c4C([H])([H])C([H])([H])C2([H])[H])C3([H])[H])c1[H]

$$$$
31:0:0
     RDKit          3D

 94102  0  0  1  0  0  0  0  0999 V2000
  -30.3190  -20.8100   20.2870 C   0  0  0  0  0  2  0  0  0  0  0  0
  -30.9590  -20.4970   22.4460 C   0  0  0  0  0  2  0  0  0  0  0  0
  -30.5570  -19.5070   21.2520 C   0  0  0  0  0  3  0  0  0  0  0  0
  -29.6230  -22.0900   21.1130 C   0  0  0  0  0  3  0  0  0  0  0  0
  -29.7830  -21.4790   22.5850 C   0  0  0  0  0  3  0  0  0  0  0  0
  -29.8950  -23.7230   20.7710 C   0  0  0  0  0  3  0  0  0  0  0  0
  -28.7610  -24.7860   20.1230 C   0  0  0  0  0  3  0  0  0  0  0  0
  -28.8870  -26.2850   19.7490 O   0  0  0  0  0  0  0  0  0  0  0  0
  -24.7680  -31.4230   22.7740 C   0  0  0  0  0  0  0  0  0  0  0  0
  -27.7430  -27.1430   19.5940 C   0  0  0  0  0  0  0  0  0  0  0  0
  -23.6700  -29.9660   21.1150 C   0  0  0  0  0  3  0  0  0  0  0  0
  -25.2360  -28.6180   19.5750 C   0  0  0  0  0  0  0  0  0  0  0  0
  -26.1590  -30.5340   20.8720 C   0  0  0  0  0  2  0  0  0  0  0  0
  -26.3660  -29.1790   20.1820 C   0  0  0  0  0  0  0  0  0  0  0  0
  -27.6160  -28.4620   20.1710 C   0  0  0  0  0  3  0  0  0  0  0  0
  -26.5920  -26.6790   18.9170 C   0  0  0  0  0  3  0  0  0  0  0  0
  -25.3640  -27.3850   18.9110 C   0  0  0  0  0  3  0  0  0  0  0  0
  -23.9140  -29.3640   19.7030 C   0  0  0  0  0  2  0  0  0  0  0  0
  -24.8840  -30.6640   21.6430 N   0  0  0  0  0  0  0  0  0  0  0  0
  -23.6800  -31.5590   23.3550 O   0  0  0  0  0  0  0  0  0  0  0  0
  -23.1500  -28.8520   22.0590 C   0  0  0  0  0  0  0  0  0  0  0  0
  -21.8590  -28.4940   21.9340 N   0  0  0  0  0  0  0  0  0  0  0  0
  -23.9100  -28.3050   22.8650 O   0  0  0  0  0  0  0  0  0  0  0  0
  -21.2920  -28.9940   21.2610 H   0  0  0  0  0  0  0  0  0  0  0  0
  -18.7070  -26.7630   22.3610 C   0  0  0  0  0  0  0  0  0  0  0  0
  -21.1810  -27.4340   22.6880 C   0  0  0  0  0  3  0  0  0  0  0  0
  -21.5290  -26.0410   22.1150 C   0  0  0  0  0  2  0  0  0  0  0  0
  -20.5170  -25.5480   21.0780 C   0  0  0  0  0  2  0  0  0  0  0  0
  -19.1160  -25.4640   21.6910 C   0  0  0  0  0  2  0  0  0  0  0  0
  -19.6740  -27.6970   22.8160 C   0  0  0  0  0  0  0  0  0  0  0  0
  -19.2410  -28.9070   23.4040 C   0  0  0  0  0  3  0  0  0  0  0  0
  -17.8690  -29.1830   23.5440 C   0  0  0  0  0  3  0  0  0  0  0  0
  -16.9140  -28.2500   23.1020 C   0  0  0  0  0  3  0  0  0  0  0  0
  -17.3350  -27.0410   22.5190 C   0  0  0  0  0  3  0  0  0  0  0  0
  -25.9900  -32.1760   23.3840 C   0  0  0  0  0  3  0  0  0  0  0  0
  -25.5180  -33.4800   23.8730 N   0  0  0  0  0  0  0  0  0  0  0  0
  -25.7430  -34.6520   23.2610 C   0  0  0  0  0  0  0  0  0  0  0  0
  -26.4390  -34.7540   22.2470 O   0  0  0  0  0  0  0  0  0  0  0  0
  -24.9000  -33.4680   24.6720 H   0  0  0  0  0  0  0  0  0  0  0  0
  -23.8550  -36.3050   23.0580 C   0  0  0  0  0  1  0  0  0  0  0  0
  -25.0970  -35.9110   23.8730 C   0  0  0  0  0  3  0  0  0  0  0  0
  -27.1000  -36.8750   24.9200 C   0  0  0  0  0  1  0  0  0  0  0  0
  -26.0190  -37.0680   23.9560 N   0  0  0  0  0  0  0  0  0  0  0  0
  -25.5150  -37.9130   24.2110 H   0  0  0  0  0  0  0  0  0  0  0  0
  -26.6920  -31.3760   24.5490 C   0  0  1  0  0  0  0  0  0  0  0  0
  -25.7210  -30.8900   25.6510 C   0  0  0  0  0  1  0  0  0  0  0  0
  -27.4290  -30.1370   23.9910 C   0  0  0  0  0  1  0  0  0  0  0  0
  -27.7690  -32.2640   25.2230 C   0  0  0  0  0  1  0  0  0  0  0  0
  -29.7660  -22.2630   23.9530 C   0  0  0  0  0  2  0  0  0  0  0  0
  -29.8370  -21.3890   25.1740 N   0  0  0  0  0  4  0  0  0  0  0  0
  -29.0260  -20.7990   25.2720 H   0  0  0  0  0  0  0  0  0  0  0  0
  -29.8890  -21.9610   26.0010 H   0  0  0  0  0  0  0  0  0  0  0  0
  -30.6470  -20.7870   25.2030 H   0  0  0  0  0  0  0  0  0  0  0  0
  -31.2780  -17.9220   21.1150 C   0  0  0  0  0  3  0  0  0  0  0  0
  -31.6550  -15.4920   19.6240 C   0  0  0  0  0  0  0  0  0  0  0  0
  -31.2510  -13.2310   18.4370 C   0  0  0  0  0  2  0  0  0  0  0  0
  -30.0900  -13.0920   17.3860 C   0  0  0  0  0  2  0  0  0  0  0  0
  -28.7760  -12.8060   18.1160 C   0  0  0  0  0  2  0  0  0  0  0  0
  -28.5080  -13.8770   19.1810 C   0  0  0  0  0  3  0  0  0  0  0  0
  -29.7120  -13.8840   20.1720 C   0  0  0  0  0  2  0  0  0  0  0  0
  -30.9160  -14.3160   19.4300 N   0  0  0  0  0  0  0  0  0  0  0  0
  -32.8260  -15.4280   19.1610 O   0  0  0  0  0  0  0  0  0  0  0  0
  -31.1030  -16.7950   19.9590 N   0  0  0  0  0  0  0  0  0  0  0  0
  -31.0620  -17.3160   19.0690 H   0  0  0  0  0  0  0  0  0  0  0  0
  -26.3650  -14.6160   20.3820 C   0  0  0  0  0  0  0  0  0  0  0  0
  -25.2700  -13.9100   20.7990 C   0  0  0  0  0  0  0  0  0  0  0  0
  -25.5300  -12.5480   20.4850 C   0  0  0  0  0  0  0  0  0  0  0  0
  -27.2220  -13.6780   19.8330 N   0  0  0  0  0  0  0  0  0  0  0  0
  -26.7230  -12.4260   19.9510 N   0  0  0  0  0  0  0  0  0  0  0  0
  -24.6940  -11.3550   20.6340 C   0  0  0  0  0  0  0  0  0  0  0  0
  -25.0710  -10.2570   21.4450 C   0  0  0  0  0  3  0  0  0  0  0  0
  -24.2170   -9.1240   21.5740 C   0  0  0  0  0  3  0  0  0  0  0  0
  -22.9740   -9.0900   20.9080 C   0  0  0  0  0  0  0  0  0  0  0  0
  -22.6130  -10.1730   20.0940 C   0  0  0  0  0  3  0  0  0  0  0  0
  -23.4630  -11.2990   19.9580 C   0  0  0  0  0  3  0  0  0  0  0  0
  -22.1060   -8.0330   20.9350 O   0  0  0  0  0  0  0  0  0  0  0  0
  -21.9560   -7.2710   22.0690 C   0  0  0  0  0  0  0  0  0  0  0  0
  -21.5660   -7.8400   23.3000 C   0  0  0  0  0  3  0  0  0  0  0  0
  -21.3520   -7.0190   24.4200 C   0  0  0  0  0  3  0  0  0  0  0  0
  -21.5110   -5.6250   24.3150 C   0  0  0  0  0  0  0  0  0  0  0  0
  -21.8850   -5.0510   23.0860 C   0  0  0  0  0  3  0  0  0  0  0  0
  -22.0930   -5.8740   21.9590 C   0  0  0  0  0  0  0  0  0  0  0  0
  -22.4380   -5.3120   20.7800 F   0  0  0  0  0  0  0  0  0  0  0  0
  -21.2860   -4.8260   25.3930 F   0  0  0  0  0  0  0  0  0  0  0  0
  -24.0040  -14.4820   21.3730 C   0  0  0  0  0  0  0  0  0  0  0  0
  -23.3710  -13.7700   22.3080 N   0  0  0  0  0  0  0  0  0  0  0  0
  -23.6050  -15.6070   21.0590 O   0  0  0  0  0  0  0  0  0  0  0  0
  -23.7120  -12.8550   22.6070 H   0  0  0  0  0  0  0  0  0  0  0  0
  -22.5410  -14.1650   22.7420 H   0  0  0  0  0  0  0  0  0  0  0  0
  -26.6450  -15.9800   20.3620 N   0  0  0  0  0  0  0  0  0  0  0  0
  -25.8430  -16.6090   20.5000 H   0  0  0  0  0  0  0  0  0  0  0  0
  -27.3990  -16.3870   19.8440 H   0  0  0  0  0  0  0  0  0  0  0  0
  -31.0570  -16.0590   23.1520 C   0  0  0  0  0  1  0  0  0  0  0  0
  -30.6160  -17.3030   22.3920 C   0  0  0  0  0  2  0  0  0  0  0  0
  1  4  1  0
  1  3  1  0
  2  5  1  0
  3 54  1  0
  3  2  1  0
  4  6  1  0
  4  5  1  0
  5 49  1  0
  7  6  2  0
  8  7  1  0
  9 20  2  0
 10  8  1  0
 10 15  1  0
 11 19  1  0
 11 21  1  0
 12 18  1  0
 12 14  1  0
 13 19  1  0
 14 13  1  0
 15 14  2  0
 16 10  2  0
 17 16  1  0
 17 12  2  0
 18 11  1  0
 19  9  1  0
 21 23  2  0
 22 21  1  0
 24 22  1  0
 25 34  2  0
 25 30  1  0
 26 22  1  0
 26 30  1  0
 27 26  1  0
 28 29  1  0
 28 27  1  0
 29 25  1  0
 30 31  2  0
 31 32  1  0
 33 32  2  0
 34 33  1  0
 35  9  1  0
 35 36  1  0
 35 45  1  0
 36 39  1  0
 37 41  1  0
 37 36  1  0
 38 37  2  0
 41 40  1  0
 41 43  1  0
 43 44  1  0
 43 42  1  0
 45 48  1  1
 45 46  1  0
 47 45  1  0
 49 50  1  0
 50 53  1  0
 50 51  1  0
 50 52  1  0
 54 94  1  0
 55 63  1  0
 56 61  1  0
 57 58  1  0
 57 56  1  0
 59 58  1  0
 59 68  1  0
 59 60  1  0
 61 55  1  0
 61 60  1  0
 62 55  2  0
 63 54  1  0
 64 63  1  0
 65 66  2  0
 66 85  1  0
 67 70  1  0
 67 66  1  0
 68 69  1  0
 68 65  1  0
 69 67  2  0
 70 71  1  0
 71 72  2  0
 73 76  1  0
 73 72  1  0
 74 73  2  0
 75 74  1  0
 75 70  2  0
 76 77  1  0
 77 78  1  0
 78 79  2  0
 80 79  1  0
 80 84  1  0
 81 80  2  0
 82 77  2  0
 82 81  1  0
 83 82  1  0
 85 86  1  0
 86 88  1  0
 86 89  1  0
 87 85  2  0
 90 65  1  0
 90 91  1  0
 92 90  1  0
 94 93  1  0
M  ISO  4   7 101   8 101  55 100  63 100
M  END
>  <TORSDO>  (32) 
F 22

>  <SCORE>  (32) 
-8.102

>  <name>  (32) 
31

>  <ligand_id>  (32) 
31

>  <original_smiles>  (32) 
[H]c1c([H])c([H])c2c(c1[H])C([H])([H])C([H])([H])C([H])([H])C2([H])N([H])C(=O)C1([H])N(C(=O)C([H])(N([H])C(=O)C([H])(N([H])C([H])([H])[H])C([H])([H])[H])C(C([H])([H])[H])(C([H])([H])[H])C([H])([H])[H])C([H])([H])c2c([H])c(OC([H])([H])C([H])([H])C3([H])C([H])([H])C([H])(C([H])(N([H])C(=O)N4C([H])([H])C([H])([H])C([H])([H])C([H])(n5nc(-c6c([H])c([H])c(Oc7c([H])c([H])c(F)c([H])c7F)c([H])c6[H])c(C(=O)N([H])[H])c5N([H])[H])C4([H])[H])C([H])([H])C([H])([H])[H])C([H])([H])C3([H])C([H])([H])[N+]([H])([H])[H])c([H])c([H])c2C1([H])[H]

>  <smiles>  (32) 
[H]c1c([H])c([H])c2c(c1[H])C([H])([H])C([H])([H])C([H])([H])C2([H])N([H])C(=O)C1([H])N(C(=O)C([H])(N([H])C(=O)C([H])(N([H])C([H])([H])[H])C([H])([H])[H])C(C([H])([H])[H])(C([H])([H])[H])C([H])([H])[H])C([H])([H])c2c([H])c(OC([H])([H])C([H])([H])C3([H])C([H])([H])C([H])(C([H])(N([H])C(=O)N4C([H])([H])C([H])([H])C([H])([H])C([H])(n5nc(-c6c([H])c([H])c(Oc7c([H])c([H])c(F)c([H])c7F)c([H])c6[H])c(C(=O)N([H])[H])c5N([H])[H])C4([H])[H])C([H])([H])C([H])([H])[H])C([H])([H])C3([H])C([H])([H])[N+]([H])([H])[H])c([H])c([H])c2C1([H])[H]

$$$$
32:0:0
     RDKit          3D

 86 93  0  0  1  0  0  0  0  0999 V2000
  -28.7430  -22.7780   19.9400 C   0  0  0  0  0  2  0  0  0  0  0  0
  -30.2460  -21.3380   21.6100 C   0  0  0  0  0  1  0  0  0  0  0  0
  -29.0370  -21.1670   20.6780 C   0  0  0  0  0  3  0  0  0  0  0  0
  -29.1070  -19.5460   20.0200 C   0  0  0  0  0  0  0  0  0  0  0  0
  -28.4590  -19.3830   18.9840 O   0  0  0  0  0  0  0  0  0  0  0  0
  -29.9230  -18.1160   20.5880 C   0  0  0  0  0  2  0  0  0  0  0  0
  -30.4000  -15.2450   20.2540 C   0  0  0  0  0  0  0  0  0  0  0  0
  -30.3680  -12.8190   19.3500 C   0  0  0  0  0  2  0  0  0  0  0  0
  -29.4340  -12.6160   18.1320 C   0  0  0  0  0  2  0  0  0  0  0  0
  -27.9890  -12.3490   18.5880 C   0  0  0  0  0  2  0  0  0  0  0  0
  -27.5460  -13.3100   19.7190 C   0  0  0  0  0  3  0  0  0  0  0  0
  -28.6050  -13.4490   20.8320 C   0  0  0  0  0  2  0  0  0  0  0  0
  -29.8270  -13.9500   20.1810 N   0  0  0  0  0  0  0  0  0  0  0  0
  -31.6260  -15.2510   20.0750 O   0  0  0  0  0  0  0  0  0  0  0  0
  -29.6330  -16.5020   20.3280 N   0  0  0  0  0  0  0  0  0  0  0  0
  -28.6410  -16.3140   20.3160 H   0  0  0  0  0  0  0  0  0  0  0  0
  -25.1800  -13.8620   20.4940 C   0  0  0  0  0  0  0  0  0  0  0  0
  -24.1240  -13.0810   20.8710 C   0  0  0  0  0  0  0  0  0  0  0  0
  -24.5960  -11.7330   20.8360 C   0  0  0  0  0  0  0  0  0  0  0  0
  -26.2240  -12.9910   20.2420 N   0  0  0  0  0  0  0  0  0  0  0  0
  -25.8860  -11.7040   20.5170 N   0  0  0  0  0  0  0  0  0  0  0  0
  -23.8750  -10.4670   21.0280 C   0  0  0  0  0  0  0  0  0  0  0  0
  -24.3230   -9.4940   21.9480 C   0  0  0  0  0  3  0  0  0  0  0  0
  -23.6000   -8.2960   22.1310 C   0  0  0  0  0  3  0  0  0  0  0  0
  -22.4150   -8.0620   21.3930 C   0  0  0  0  0  0  0  0  0  0  0  0
  -21.9860   -9.0230   20.4630 C   0  0  0  0  0  3  0  0  0  0  0  0
  -22.7090  -10.2140   20.2780 C   0  0  0  0  0  3  0  0  0  0  0  0
  -21.6630   -6.9160   21.4870 O   0  0  0  0  0  0  0  0  0  0  0  0
  -21.6430   -6.1570   22.6290 C   0  0  0  0  0  0  0  0  0  0  0  0
  -21.2560   -6.6980   23.8750 C   0  0  0  0  0  3  0  0  0  0  0  0
  -21.1830   -5.8670   25.0110 C   0  0  0  0  0  3  0  0  0  0  0  0
  -21.4870   -4.4960   24.9020 C   0  0  0  0  0  0  0  0  0  0  0  0
  -21.8670   -3.9550   23.6610 C   0  0  0  0  0  3  0  0  0  0  0  0
  -21.9420   -4.7840   22.5280 C   0  0  0  0  0  0  0  0  0  0  0  0
  -22.2870   -4.2540   21.3300 F   0  0  0  0  0  0  0  0  0  0  0  0
  -21.4100   -3.6950   25.9910 F   0  0  0  0  0  0  0  0  0  0  0  0
  -22.7250  -13.5520   21.1450 C   0  0  0  0  0  0  0  0  0  0  0  0
  -22.0030  -12.8560   22.0150 N   0  0  0  0  0  0  0  0  0  0  0  0
  -22.2820  -14.5740   20.6210 O   0  0  0  0  0  0  0  0  0  0  0  0
  -22.3760  -12.0310   22.4610 H   0  0  0  0  0  0  0  0  0  0  0  0
  -21.0650  -13.1540   22.2390 H   0  0  0  0  0  0  0  0  0  0  0  0
  -25.3320  -15.2350   20.3140 N   0  0  0  0  0  0  0  0  0  0  0  0
  -24.5550  -15.8780   20.4260 H   0  0  0  0  0  0  0  0  0  0  0  0
  -26.1580  -15.6760   19.9320 H   0  0  0  0  0  0  0  0  0  0  0  0
  -28.0720  -24.3240   20.5550 C   0  0  0  0  0  2  0  0  0  0  0  0
  -28.2390  -25.9220   20.2210 O   0  0  0  0  0  0  0  0  0  0  0  0
  -24.6320  -31.8530   23.2020 C   0  0  0  0  0  0  0  0  0  0  0  0
  -27.1970  -26.9790   20.2280 C   0  0  0  0  0  0  0  0  0  0  0  0
  -23.4380  -30.4420   21.5760 C   0  0  0  0  0  3  0  0  0  0  0  0
  -24.8870  -28.8290   20.1710 C   0  0  0  0  0  0  0  0  0  0  0  0
  -26.0020  -30.6680   21.4190 C   0  0  0  0  0  2  0  0  0  0  0  0
  -26.0760  -29.2530   20.7790 C   0  0  0  0  0  0  0  0  0  0  0  0
  -27.2290  -28.3500   20.7760 C   0  0  0  0  0  3  0  0  0  0  0  0
  -25.9760  -26.6940   19.5810 C   0  0  0  0  0  3  0  0  0  0  0  0
  -24.8590  -27.5690   19.5520 C   0  0  0  0  0  3  0  0  0  0  0  0
  -23.6670  -29.7470   20.2060 C   0  0  0  0  0  2  0  0  0  0  0  0
  -24.7130  -31.0140   22.1200 N   0  0  0  0  0  0  0  0  0  0  0  0
  -23.5440  -32.1440   23.7230 O   0  0  0  0  0  0  0  0  0  0  0  0
  -22.7490  -29.4520   22.5500 C   0  0  0  0  0  0  0  0  0  0  0  0
  -21.4180  -29.2860   22.4300 N   0  0  0  0  0  0  0  0  0  0  0  0
  -23.4170  -28.8320   23.3810 O   0  0  0  0  0  0  0  0  0  0  0  0
  -20.9320  -29.8370   21.7360 H   0  0  0  0  0  0  0  0  0  0  0  0
  -18.0380  -28.0800   22.9560 C   0  0  0  0  0  0  0  0  0  0  0  0
  -20.5980  -28.3540   23.2100 C   0  0  0  0  0  3  0  0  0  0  0  0
  -20.7010  -26.9170   22.6480 C   0  0  0  0  0  2  0  0  0  0  0  0
  -19.5970  -26.5840   21.6380 C   0  0  0  0  0  2  0  0  0  0  0  0
  -18.2170  -26.7280   22.2850 C   0  0  0  0  0  2  0  0  0  0  0  0
  -19.1560  -28.8500   23.3750 C   0  0  0  0  0  0  0  0  0  0  0  0
  -18.9320  -30.1130   23.9660 C   0  0  0  0  0  3  0  0  0  0  0  0
  -17.6250  -30.6080   24.1360 C   0  0  0  0  0  3  0  0  0  0  0  0
  -16.5230  -29.8360   23.7300 C   0  0  0  0  0  3  0  0  0  0  0  0
  -16.7300  -28.5740   23.1460 C   0  0  0  0  0  3  0  0  0  0  0  0
  -25.9040  -32.5020   23.8280 C   0  0  0  0  0  3  0  0  0  0  0  0
  -26.4200  -31.7400   25.1110 C   0  0  1  0  0  0  0  0  0  0  0  0
  -25.3260  -31.5080   26.1810 C   0  0  0  0  0  1  0  0  0  0  0  0
  -27.0050  -30.3600   24.7360 C   0  0  0  0  0  1  0  0  0  0  0  0
  -27.5680  -32.5410   25.7690 C   0  0  0  0  0  1  0  0  0  0  0  0
  -25.5800  -33.9000   24.1640 N   0  0  0  0  0  0  0  0  0  0  0  0
  -25.9010  -34.9640   23.4170 C   0  0  0  0  0  0  0  0  0  0  0  0
  -26.5640  -34.8730   22.3800 O   0  0  0  0  0  0  0  0  0  0  0  0
  -24.9890  -34.0430   24.9700 H   0  0  0  0  0  0  0  0  0  0  0  0
  -24.1590  -36.7550   23.1000 C   0  0  0  0  0  1  0  0  0  0  0  0
  -25.4120  -36.3490   23.8910 C   0  0  0  0  0  3  0  0  0  0  0  0
  -27.5530  -37.2430   24.6990 C   0  0  0  0  0  1  0  0  0  0  0  0
  -26.4370  -37.4090   23.7720 N   0  0  0  0  0  0  0  0  0  0  0  0
  -26.0280  -38.3260   23.9290 H   0  0  0  0  0  0  0  0  0  0  0  0
  1 45  1  0
  1  3  1  0
  3  2  1  0
  4  6  1  0
  4  3  1  0
  5  4  2  0
  7 15  1  0
  8 13  1  0
  9 10  1  0
  9  8  1  0
 11 10  1  0
 11 20  1  0
 11 12  1  0
 13  7  1  0
 13 12  1  0
 14  7  2  0
 15  6  1  0
 16 15  1  0
 17 18  2  0
 18 37  1  0
 19 18  1  0
 19 22  1  0
 20 17  1  0
 20 21  1  0
 21 19  2  0
 22 23  1  0
 23 24  2  0
 25 28  1  0
 25 24  1  0
 26 25  2  0
 27 26  1  0
 27 22  2  0
 28 29  1  0
 29 30  1  0
 30 31  2  0
 32 31  1  0
 32 36  1  0
 33 32  2  0
 34 29  2  0
 34 33  1  0
 35 34  1  0
 37 38  1  0
 38 41  1  0
 38 40  1  0
 39 37  2  0
 42 43  1  0
 42 17  1  0
 44 42  1  0
 46 48  1  0
 46 45  1  0
 47 58  2  0
 48 53  1  0
 49 57  1  0
 49 59  1  0
 50 56  1  0
 50 52  1  0
 51 57  1  0
 52 51  1  0
 53 52  2  0
 54 48  2  0
 55 54  1  0
 55 50  2  0
 56 49  1  0
 57 47  1  0
 59 61  2  0
 60 59  1  0
 62 60  1  0
 63 72  2  0
 63 68  1  0
 64 60  1  0
 64 68  1  0
 65 64  1  0
 66 67  1  0
 66 65  1  0
 67 63  1  0
 68 69  2  0
 69 70  1  0
 71 70  2  0
 72 71  1  0
 73 47  1  0
 73 78  1  0
 73 74  1  0
 74 77  1  1
 74 75  1  0
 76 74  1  0
 78 81  1  0
 79 83  1  0
 79 78  1  0
 80 79  2  0
 83 82  1  0
 85 83  1  0
 85 86  1  0
 85 84  1  0
M  ISO  4   7 100  15 100  45 101  46 101
M  END
>  <TORSDO>  (33) 
F 20

>  <SCORE>  (33) 
-15.790

>  <name>  (33) 
32

>  <ligand_id>  (33) 
32

>  <original_smiles>  (33) 
[H]c1c([H])c([H])c2c(c1[H])C([H])([H])C([H])([H])C([H])([H])C2([H])N([H])C(=O)C1([H])N(C(=O)C([H])(N([H])C(=O)C([H])(N([H])C([H])([H])[H])C([H])([H])[H])C(C([H])([H])[H])(C([H])([H])[H])C([H])([H])[H])C([H])([H])c2c([H])c(OC([H])([H])C([H])([H])C([H])(C(=O)C([H])([H])N([H])C(=O)N3C([H])([H])C([H])([H])C([H])([H])C([H])(n4nc(-c5c([H])c([H])c(Oc6c([H])c([H])c(F)c([H])c6F)c([H])c5[H])c(C(=O)N([H])[H])c4N([H])[H])C3([H])[H])C([H])([H])[H])c([H])c([H])c2C1([H])[H]

>  <smiles>  (33) 
[H]c1c([H])c([H])c2c(c1[H])C([H])([H])C([H])([H])C([H])([H])C2([H])N([H])C(=O)C1([H])N(C(=O)C([H])(N([H])C(=O)C([H])(N([H])C([H])([H])[H])C([H])([H])[H])C(C([H])([H])[H])(C([H])([H])[H])C([H])([H])[H])C([H])([H])c2c([H])c(OC([H])([H])C([H])([H])C([H])(C(=O)C([H])([H])N([H])C(=O)N3C([H])([H])C([H])([H])C([H])([H])C([H])(n4nc(-c5c([H])c([H])c(Oc6c([H])c([H])c(F)c([H])c6F)c([H])c5[H])c(C(=O)N([H])[H])c4N([H])[H])C3([H])[H])C([H])([H])[H])c([H])c([H])c2C1([H])[H]

$$$$
33:0:0
     RDKit          3D

 91 99  0  0  1  0  0  0  0  0999 V2000
  -31.1010  -20.7740   20.5630 C   0  0  0  0  0  2  0  0  0  0  0  0
  -31.5910  -17.9610   20.0880 C   0  0  0  0  0  3  0  0  0  0  0  0
  -30.2300  -19.0580   18.3960 C   0  0  0  0  0  2  0  0  0  0  0  0
  -30.6850  -17.6770   17.8010 C   0  0  0  0  0  2  0  0  0  0  0  0
  -31.3090  -19.4410   19.5320 C   0  0  0  0  0  3  0  0  0  0  0  0
  -31.4960  -16.9140   18.9290 C   0  0  0  0  0  3  0  0  0  0  0  0
  -32.0840  -17.5770   21.1990 N   0  0  0  0  0  2  0  0  0  0  0  0
  -32.2800  -16.5710   21.0930 H   0  0  0  0  0  0  0  0  0  0  0  0
  -31.1720  -14.5890   20.3130 C   0  0  0  0  0  0  0  0  0  0  0  0
  -28.9630  -14.5750   19.9590 C   0  0  0  0  0  2  0  0  0  0  0  0
  -28.5220  -13.9530   18.5230 C   0  0  0  0  0  2  0  0  0  0  0  0
  -28.1510  -12.4700   18.7070 C   0  0  0  0  0  2  0  0  0  0  0  0
  -27.8690  -12.3700   20.3050 C   0  0  0  0  0  3  0  0  0  0  0  0
  -29.3280  -12.5530   21.0830 C   0  0  0  0  0  2  0  0  0  0  0  0
  -30.0010  -13.8510   20.5440 N   0  0  0  0  0  0  0  0  0  0  0  0
  -32.2290  -14.5200   20.9170 O   0  0  0  0  0  0  0  0  0  0  0  0
  -31.1560  -15.4410   19.1940 N   0  0  0  0  0  0  0  0  0  0  0  0
  -30.4430  -15.0900   18.5630 H   0  0  0  0  0  0  0  0  0  0  0  0
  -25.3950  -13.6060   20.7090 C   0  0  0  0  0  0  0  0  0  0  0  0
  -24.2340  -12.8920   21.0090 C   0  0  0  0  0  0  0  0  0  0  0  0
  -24.6070  -11.5360   20.9690 C   0  0  0  0  0  0  0  0  0  0  0  0
  -26.4120  -12.5690   20.6010 N   0  0  0  0  0  0  0  0  0  0  0  0
  -25.8700  -11.3720   20.7200 N   0  0  0  0  0  0  0  0  0  0  0  0
  -23.8540  -10.2970   21.0960 C   0  0  0  0  0  0  0  0  0  0  0  0
  -24.2930   -9.3470   22.0290 C   0  0  0  0  0  3  0  0  0  0  0  0
  -23.5790   -8.1420   22.2180 C   0  0  0  0  0  3  0  0  0  0  0  0
  -22.4280   -7.9080   21.4330 C   0  0  0  0  0  0  0  0  0  0  0  0
  -22.0070   -8.8390   20.4540 C   0  0  0  0  0  3  0  0  0  0  0  0
  -22.7100  -10.0360   20.3090 C   0  0  0  0  0  3  0  0  0  0  0  0
  -21.7000   -6.7490   21.5120 O   0  0  0  0  0  0  0  0  0  0  0  0
  -21.6040   -6.0320   22.6640 C   0  0  0  0  0  0  0  0  0  0  0  0
  -21.1650   -6.5750   23.8880 C   0  0  0  0  0  3  0  0  0  0  0  0
  -21.0880   -5.7500   25.0230 C   0  0  0  0  0  3  0  0  0  0  0  0
  -21.4330   -4.3860   24.9430 C   0  0  0  0  0  0  0  0  0  0  0  0
  -21.8740   -3.8570   23.7260 C   0  0  0  0  0  3  0  0  0  0  0  0
  -21.9690   -4.6800   22.5950 C   0  0  0  0  0  0  0  0  0  0  0  0
  -22.4050   -4.1750   21.4170 F   0  0  0  0  0  0  0  0  0  0  0  0
  -21.3080   -3.5870   26.0210 F   0  0  0  0  0  0  0  0  0  0  0  0
  -22.8450  -13.4370   21.1660 C   0  0  0  0  0  0  0  0  0  0  0  0
  -22.0120  -12.8000   22.0270 N   0  0  0  0  0  0  0  0  0  0  0  0
  -22.4950  -14.4280   20.5410 O   0  0  0  0  0  0  0  0  0  0  0  0
  -22.3240  -12.0920   22.6560 H   0  0  0  0  0  0  0  0  0  0  0  0
  -21.0490  -13.1110   22.1140 H   0  0  0  0  0  0  0  0  0  0  0  0
  -25.4670  -14.9730   20.4860 N   0  0  0  0  0  0  0  0  0  0  0  0
  -24.5590  -15.3680   20.2590 H   0  0  0  0  0  0  0  0  0  0  0  0
  -26.1990  -15.5600   20.1260 H   0  0  0  0  0  0  0  0  0  0  0  0
  -28.8520  -21.5540   20.4130 C   0  0  0  0  0  1  0  0  0  0  0  0
  -30.2040  -22.0880   19.9290 C   0  0  0  0  0  3  0  0  0  0  0  0
  -30.0910  -23.8120   20.1460 C   0  0  0  0  0  3  0  0  0  0  0  0
  -28.6710  -24.7670   19.8240 C   0  0  0  0  0  3  0  0  0  0  0  0
  -28.4980  -26.3060   20.0840 O   0  0  0  0  0  0  0  0  0  0  0  0
  -24.6320  -31.8360   23.1940 C   0  0  0  0  0  0  0  0  0  0  0  0
  -27.2930  -27.1400   20.0660 C   0  0  0  0  0  0  0  0  0  0  0  0
  -23.4310  -30.4320   21.5730 C   0  0  0  0  0  3  0  0  0  0  0  0
  -24.8870  -28.8410   20.1400 C   0  0  0  0  0  0  0  0  0  0  0  0
  -25.9810  -30.7090   21.3670 C   0  0  0  0  0  2  0  0  0  0  0  0
  -26.0820  -29.3090   20.7140 C   0  0  0  0  0  0  0  0  0  0  0  0
  -27.2640  -28.4740   20.6500 C   0  0  0  0  0  3  0  0  0  0  0  0
  -26.0620  -26.7650   19.4700 C   0  0  0  0  0  3  0  0  0  0  0  0
  -24.8830  -27.5830   19.5130 C   0  0  0  0  0  3  0  0  0  0  0  0
  -23.6710  -29.7540   20.1870 C   0  0  0  0  0  2  0  0  0  0  0  0
  -24.7050  -31.0040   22.1050 N   0  0  0  0  0  0  0  0  0  0  0  0
  -23.5450  -32.1230   23.7340 O   0  0  0  0  0  0  0  0  0  0  0  0
  -22.7480  -29.4330   22.5430 C   0  0  0  0  0  0  0  0  0  0  0  0
  -21.4140  -29.2630   22.4340 N   0  0  0  0  0  0  0  0  0  0  0  0
  -23.4280  -28.7830   23.3420 O   0  0  0  0  0  0  0  0  0  0  0  0
  -20.9180  -29.8600   21.7830 H   0  0  0  0  0  0  0  0  0  0  0  0
  -18.0280  -28.0810   22.9610 C   0  0  0  0  0  0  0  0  0  0  0  0
  -20.5860  -28.3340   23.2170 C   0  0  0  0  0  3  0  0  0  0  0  0
  -20.6810  -26.8990   22.6410 C   0  0  0  0  0  2  0  0  0  0  0  0
  -19.5750  -26.5790   21.6320 C   0  0  0  0  0  2  0  0  0  0  0  0
  -18.1960  -26.7310   22.2840 C   0  0  0  0  0  2  0  0  0  0  0  0
  -19.1480  -28.8460   23.3790 C   0  0  0  0  0  0  0  0  0  0  0  0
  -18.9350  -30.1130   23.9650 C   0  0  0  0  0  3  0  0  0  0  0  0
  -17.6330  -30.6100   24.1410 C   0  0  0  0  0  3  0  0  0  0  0  0
  -16.5270  -29.8440   23.7340 C   0  0  0  0  0  3  0  0  0  0  0  0
  -16.7260  -28.5820   23.1480 C   0  0  0  0  0  3  0  0  0  0  0  0
  -25.9080  -32.4880   23.8140 C   0  0  0  0  0  3  0  0  0  0  0  0
  -26.4450  -31.7280   25.0940 C   0  0  1  0  0  0  0  0  0  0  0  0
  -25.3690  -31.4880   26.1830 C   0  0  0  0  0  1  0  0  0  0  0  0
  -27.0240  -30.3500   24.6880 C   0  0  0  0  0  1  0  0  0  0  0  0
  -27.5940  -32.5260   25.7590 C   0  0  0  0  0  1  0  0  0  0  0  0
  -25.5900  -33.8870   24.1580 N   0  0  0  0  0  0  0  0  0  0  0  0
  -25.9180  -34.9430   23.4110 C   0  0  0  0  0  0  0  0  0  0  0  0
  -26.5710  -34.8440   22.3710 O   0  0  0  0  0  0  0  0  0  0  0  0
  -25.0250  -34.0420   24.9770 H   0  0  0  0  0  0  0  0  0  0  0  0
  -24.1910  -36.7510   23.0870 C   0  0  0  0  0  1  0  0  0  0  0  0
  -25.4360  -36.3330   23.8860 C   0  0  0  0  0  3  0  0  0  0  0  0
  -27.5780  -37.2090   24.7090 C   0  0  0  0  0  1  0  0  0  0  0  0
  -26.4700  -37.3860   23.7770 N   0  0  0  0  0  0  0  0  0  0  0  0
  -26.0580  -38.3000   23.9510 H   0  0  0  0  0  0  0  0  0  0  0  0
  2  7  1  0
  3  5  1  0
  4  3  1  0
  4  6  1  0
  5  2  1  0
  5  1  1  0
  6 17  1  0
  6  2  1  0
  8  7  1  0
  9 15  1  0
  9 16  2  0
 10 15  1  0
 11 12  1  0
 11 10  1  0
 13 12  1  0
 13 22  1  0
 13 14  1  0
 15 14  1  0
 17  9  1  0
 18 17  1  0
 19 20  2  0
 20 39  1  0
 21 20  1  0
 21 24  1  0
 22 19  1  0
 22 23  1  0
 23 21  2  0
 24 25  1  0
 25 26  2  0
 27 30  1  0
 27 26  1  0
 28 27  2  0
 29 28  1  0
 29 24  2  0
 30 31  1  0
 31 32  1  0
 32 33  2  0
 34 33  1  0
 34 38  1  0
 35 34  2  0
 36 31  2  0
 36 35  1  0
 37 36  1  0
 39 40  1  0
 40 43  1  0
 40 42  1  0
 41 39  2  0
 44 19  1  0
 45 44  1  0
 46 44  1  0
 48 49  1  0
 48 47  1  0
 48  1  1  0
 50 51  1  0
 50 49  2  0
 52 63  2  0
 53 51  1  0
 53 58  1  0
 54 62  1  0
 54 64  1  0
 55 61  1  0
 55 57  1  0
 56 62  1  0
 57 56  1  0
 58 57  2  0
 59 60  1  0
 59 53  2  0
 60 55  2  0
 61 54  1  0
 62 52  1  0
 64 66  2  0
 65 64  1  0
 67 65  1  0
 68 77  2  0
 68 73  1  0
 69 65  1  0
 69 73  1  0
 70 69  1  0
 71 72  1  0
 71 70  1  0
 72 68  1  0
 73 74  2  0
 74 75  1  0
 76 75  2  0
 77 76  1  0
 78 52  1  0
 78 83  1  0
 78 79  1  0
 79 82  1  1
 79 80  1  0
 81 79  1  0
 83 86  1  0
 84 88  1  0
 84 83  1  0
 85 84  2  0
 88 87  1  0
 90 88  1  0
 90 91  1  0
 90 89  1  0
M  ISO  4   9 100  17 100  50 101  51 101
M  END
>  <TORSDO>  (34) 
F 20

>  <SCORE>  (34) 
-15.133

>  <name>  (34) 
33

>  <ligand_id>  (34) 
33

>  <original_smiles>  (34) 
[H]N=C1C([H])(N([H])C(=O)N2C([H])([H])C([H])([H])C([H])([H])C([H])(n3nc(-c4c([H])c([H])c(Oc5c([H])c([H])c(F)c([H])c5F)c([H])c4[H])c(C(=O)N([H])[H])c3N([H])[H])C2([H])[H])C([H])([H])C([H])([H])C1([H])C([H])([H])C([H])(C([H])([H])[H])C([H])([H])C([H])([H])Oc1c([H])c([H])c2c(c1[H])C([H])([H])N(C(=O)C([H])(N([H])C(=O)C([H])(N([H])C([H])([H])[H])C([H])([H])[H])C(C([H])([H])[H])(C([H])([H])[H])C([H])([H])[H])C([H])(C(=O)N([H])C1([H])c3c([H])c([H])c([H])c([H])c3C([H])([H])C([H])([H])C1([H])[H])C2([H])[H]

>  <smiles>  (34) 
[H]N=C1C([H])(N([H])C(=O)N2C([H])([H])C([H])([H])C([H])([H])C([H])(n3nc(-c4c([H])c([H])c(Oc5c([H])c([H])c(F)c([H])c5F)c([H])c4[H])c(C(=O)N([H])[H])c3N([H])[H])C2([H])[H])C([H])([H])C([H])([H])C1([H])C([H])([H])C([H])(C([H])([H])[H])C([H])([H])C([H])([H])Oc1c([H])c([H])c2c(c1[H])C([H])([H])N(C(=O)C([H])(N([H])C(=O)C([H])(N([H])C([H])([H])[H])C([H])([H])[H])C(C([H])([H])[H])(C([H])([H])[H])C([H])([H])[H])C([H])(C(=O)N([H])C1([H])c3c([H])c([H])c([H])c([H])c3C([H])([H])C([H])([H])C1([H])[H])C2([H])[H]

$$$$
34:0:0
     RDKit          3D

 85 92  0  0  1  0  0  0  0  0999 V2000
  -28.6580  -22.8200   20.6240 C   0  0  0  0  0  2  0  0  0  0  0  0
  -29.0490  -21.2170   19.9500 C   0  0  0  0  0  3  0  0  0  0  0  0
  -29.1370  -19.5660   20.6180 C   0  0  0  0  0  3  0  0  0  0  0  0
  -31.4550  -18.4110   20.1470 C   0  0  0  0  0  1  0  0  0  0  0  0
  -29.9530  -18.0940   20.0420 C   0  0  0  0  0  0  0  0  0  0  0  0
  -30.4550  -15.2160   20.2470 C   0  0  0  0  0  0  0  0  0  0  0  0
  -30.3670  -12.7970   19.3560 C   0  0  0  0  0  2  0  0  0  0  0  0
  -29.4370  -12.6330   18.1270 C   0  0  0  0  0  2  0  0  0  0  0  0
  -27.9900  -12.3780   18.5800 C   0  0  0  0  0  2  0  0  0  0  0  0
  -27.5590  -13.3410   19.7140 C   0  0  0  0  0  3  0  0  0  0  0  0
  -28.6150  -13.4610   20.8360 C   0  0  0  0  0  2  0  0  0  0  0  0
  -29.8580  -13.9320   20.2060 N   0  0  0  0  0  0  0  0  0  0  0  0
  -31.6600  -15.1990   19.9620 O   0  0  0  0  0  0  0  0  0  0  0  0
  -29.7250  -16.4890   20.4020 N   0  0  0  0  0  4  0  0  0  0  0  0
  -28.7690  -16.3050   20.6690 H   0  0  0  0  0  0  0  0  0  0  0  0
  -25.1870  -13.9060   20.4610 C   0  0  0  0  0  0  0  0  0  0  0  0
  -24.1270  -13.1310   20.8370 C   0  0  0  0  0  0  0  0  0  0  0  0
  -24.5960  -11.7820   20.8190 C   0  0  0  0  0  0  0  0  0  0  0  0
  -26.2320  -13.0310   20.2260 N   0  0  0  0  0  0  0  0  0  0  0  0
  -25.8880  -11.7480   20.5100 N   0  0  0  0  0  0  0  0  0  0  0  0
  -23.8710  -10.5190   21.0190 C   0  0  0  0  0  0  0  0  0  0  0  0
  -24.3140   -9.5510   21.9470 C   0  0  0  0  0  3  0  0  0  0  0  0
  -23.5870   -8.3570   22.1370 C   0  0  0  0  0  3  0  0  0  0  0  0
  -22.4030   -8.1200   21.3970 C   0  0  0  0  0  0  0  0  0  0  0  0
  -21.9790   -9.0760   20.4570 C   0  0  0  0  0  3  0  0  0  0  0  0
  -22.7070  -10.2630   20.2660 C   0  0  0  0  0  3  0  0  0  0  0  0
  -21.6460   -6.9780   21.4970 O   0  0  0  0  0  0  0  0  0  0  0  0
  -21.6230   -6.2280   22.6440 C   0  0  0  0  0  0  0  0  0  0  0  0
  -21.2480   -6.7790   23.8880 C   0  0  0  0  0  3  0  0  0  0  0  0
  -21.1700   -5.9570   25.0280 C   0  0  0  0  0  3  0  0  0  0  0  0
  -21.4600   -4.5830   24.9280 C   0  0  0  0  0  0  0  0  0  0  0  0
  -21.8300   -4.0300   23.6890 C   0  0  0  0  0  3  0  0  0  0  0  0
  -21.9080   -4.8510   22.5500 C   0  0  0  0  0  0  0  0  0  0  0  0
  -22.2450   -4.3090   21.3550 F   0  0  0  0  0  0  0  0  0  0  0  0
  -21.3790   -3.7890   26.0220 F   0  0  0  0  0  0  0  0  0  0  0  0
  -22.7290  -13.6090   21.1010 C   0  0  0  0  0  0  0  0  0  0  0  0
  -22.0040  -12.9210   21.9750 N   0  0  0  0  0  0  0  0  0  0  0  0
  -22.2890  -14.6260   20.5650 O   0  0  0  0  0  0  0  0  0  0  0  0
  -22.3750  -12.0980   22.4250 H   0  0  0  0  0  0  0  0  0  0  0  0
  -21.0650  -13.2230   22.1980 H   0  0  0  0  0  0  0  0  0  0  0  0
  -25.3490  -15.2760   20.2710 N   0  0  0  0  0  0  0  0  0  0  0  0
  -24.5800  -15.9310   20.3690 H   0  0  0  0  0  0  0  0  0  0  0  0
  -26.1870  -15.7020   19.8970 H   0  0  0  0  0  0  0  0  0  0  0  0
  -28.1390  -24.3590   19.8920 C   0  0  0  0  0  2  0  0  0  0  0  0
  -28.2040  -25.9310   20.3240 O   0  0  0  0  0  0  0  0  0  0  0  0
  -24.6370  -31.8590   23.1920 C   0  0  0  0  0  0  0  0  0  0  0  0
  -27.1830  -26.9980   20.1980 C   0  0  0  0  0  0  0  0  0  0  0  0
  -23.4360  -30.4530   21.5650 C   0  0  0  0  0  3  0  0  0  0  0  0
  -24.8780  -28.8490   20.1420 C   0  0  0  0  0  0  0  0  0  0  0  0
  -25.9970  -30.6740   21.4060 C   0  0  0  0  0  2  0  0  0  0  0  0
  -26.0630  -29.2650   20.7590 C   0  0  0  0  0  0  0  0  0  0  0  0
  -27.2060  -28.3570   20.7700 C   0  0  0  0  0  3  0  0  0  0  0  0
  -25.9740  -26.7280   19.5160 C   0  0  0  0  0  3  0  0  0  0  0  0
  -24.8570  -27.6010   19.4980 C   0  0  0  0  0  3  0  0  0  0  0  0
  -23.6580  -29.7640   20.1910 C   0  0  0  0  0  2  0  0  0  0  0  0
  -24.7110  -31.0210   22.1080 N   0  0  0  0  0  0  0  0  0  0  0  0
  -23.5510  -32.1520   23.7170 O   0  0  0  0  0  0  0  0  0  0  0  0
  -22.7480  -29.4590   22.5400 C   0  0  0  0  0  0  0  0  0  0  0  0
  -21.4170  -29.3010   22.4280 N   0  0  0  0  0  0  0  0  0  0  0  0
  -23.4190  -28.8350   23.3650 O   0  0  0  0  0  0  0  0  0  0  0  0
  -20.9280  -29.8590   21.7420 H   0  0  0  0  0  0  0  0  0  0  0  0
  -18.0350  -28.1010   22.9580 C   0  0  0  0  0  0  0  0  0  0  0  0
  -20.5960  -28.3690   23.2100 C   0  0  0  0  0  3  0  0  0  0  0  0
  -20.6950  -26.9330   22.6480 C   0  0  0  0  0  2  0  0  0  0  0  0
  -19.5910  -26.6010   21.6410 C   0  0  0  0  0  2  0  0  0  0  0  0
  -18.2110  -26.7480   22.2880 C   0  0  0  0  0  2  0  0  0  0  0  0
  -19.1550  -28.8680   23.3770 C   0  0  0  0  0  0  0  0  0  0  0  0
  -18.9360  -30.1310   23.9670 C   0  0  0  0  0  3  0  0  0  0  0  0
  -17.6320  -30.6290   24.1410 C   0  0  0  0  0  3  0  0  0  0  0  0
  -16.5270  -29.8600   23.7380 C   0  0  0  0  0  3  0  0  0  0  0  0
  -16.7290  -28.5970   23.1530 C   0  0  0  0  0  3  0  0  0  0  0  0
  -25.9120  -32.5050   23.8140 C   0  0  0  0  0  3  0  0  0  0  0  0
  -26.4350  -31.7390   25.0920 C   0  0  1  0  0  0  0  0  0  0  0  0
  -25.3450  -31.5060   26.1650 C   0  0  0  0  0  1  0  0  0  0  0  0
  -27.0170  -30.3600   24.7090 C   0  0  0  0  0  1  0  0  0  0  0  0
  -27.5870  -32.5360   25.7460 C   0  0  0  0  0  1  0  0  0  0  0  0
  -25.5910  -33.9020   24.1590 N   0  0  0  0  0  0  0  0  0  0  0  0
  -25.9050  -34.9680   23.4110 C   0  0  0  0  0  0  0  0  0  0  0  0
  -26.5600  -34.8810   22.3690 O   0  0  0  0  0  0  0  0  0  0  0  0
  -25.0120  -34.0430   24.9720 H   0  0  0  0  0  0  0  0  0  0  0  0
  -24.1550  -36.7550   23.1170 C   0  0  0  0  0  1  0  0  0  0  0  0
  -25.4180  -36.3490   23.8940 C   0  0  0  0  0  3  0  0  0  0  0  0
  -27.5650  -37.2450   24.6830 C   0  0  0  0  0  1  0  0  0  0  0  0
  -26.4380  -37.4140   23.7680 N   0  0  0  0  0  0  0  0  0  0  0  0
  -26.0280  -38.3270   23.9390 H   0  0  0  0  0  0  0  0  0  0  0  0
  2  3  2  0
  2  1  1  0
  5  4  1  0
  5 14  2  0
  5  3  1  0
  6 14  1  0
  7 12  1  0
  8  9  1  0
  8  7  1  0
 10  9  1  0
 10 19  1  0
 10 11  1  0
 12  6  1  0
 12 11  1  0
 13  6  2  0
 14 15  1  0
 16 17  2  0
 17 36  1  0
 18 17  1  0
 18 21  1  0
 19 16  1  0
 19 20  1  0
 20 18  2  0
 21 22  1  0
 22 23  2  0
 24 27  1  0
 24 23  1  0
 25 24  2  0
 26 25  1  0
 26 21  2  0
 27 28  1  0
 28 29  1  0
 29 30  2  0
 31 30  1  0
 31 35  1  0
 32 31  2  0
 33 28  2  0
 33 32  1  0
 34 33  1  0
 36 37  1  0
 37 40  1  0
 37 39  1  0
 38 36  2  0
 41 42  1  0
 41 16  1  0
 43 41  1  0
 44 45  1  0
 44  1  1  0
 46 57  2  0
 47 45  1  0
 47 52  1  0
 48 56  1  0
 48 58  1  0
 49 55  1  0
 49 51  1  0
 50 56  1  0
 51 52  2  0
 51 50  1  0
 53 47  2  0
 54 53  1  0
 54 49  2  0
 55 48  1  0
 56 46  1  0
 58 60  2  0
 59 58  1  0
 61 59  1  0
 62 71  2  0
 62 67  1  0
 63 59  1  0
 63 67  1  0
 64 63  1  0
 65 66  1  0
 65 64  1  0
 66 62  1  0
 67 68  2  0
 68 69  1  0
 70 69  2  0
 71 70  1  0
 72 46  1  0
 72 77  1  0
 72 73  1  0
 73 76  1  1
 73 74  1  0
 75 73  1  0
 77 80  1  0
 78 82  1  0
 78 77  1  0
 79 78  2  0
 82 81  1  0
 84 82  1  0
 84 85  1  0
 84 83  1  0
M  ISO  4   6 100  14 100  44 101  45 101
M  END
>  <TORSDO>  (35) 
F 20

>  <SCORE>  (35) 
-15.358

>  <name>  (35) 
34

>  <ligand_id>  (35) 
34

>  <original_smiles>  (35) 
[H]c1c([H])c([H])c2c(c1[H])C([H])([H])C([H])([H])C([H])([H])C2([H])N([H])C(=O)C1([H])N(C(=O)C([H])(N([H])C(=O)C([H])(N([H])C([H])([H])[H])C([H])([H])[H])C(C([H])([H])[H])(C([H])([H])[H])C([H])([H])[H])C([H])([H])c2c([H])c(OC([H])([H])C([H])([H])C([H])([H])C([H])([H])C([H])(N([H])C(=O)N3C([H])([H])C([H])([H])C([H])([H])C([H])(n4nc(-c5c([H])c([H])c(Oc6c([H])c([H])c(F)c([H])c6F)c([H])c5[H])c(C(=O)N([H])[H])c4N([H])[H])C3([H])[H])C([H])([H])[H])c([H])c([H])c2C1([H])[H]

>  <smiles>  (35) 
[H]c1c([H])c([H])c2c(c1[H])C([H])([H])C([H])([H])C([H])([H])C2([H])N([H])C(=O)C1([H])N(C(=O)C([H])(N([H])C(=O)C([H])(N([H])C([H])([H])[H])C([H])([H])[H])C(C([H])([H])[H])(C([H])([H])[H])C([H])([H])[H])C([H])([H])c2c([H])c(OC([H])([H])C([H])([H])C([H])([H])C([H])([H])C([H])(N([H])C(=O)N3C([H])([H])C([H])([H])C([H])([H])C([H])(n4nc(-c5c([H])c([H])c(Oc6c([H])c([H])c(F)c([H])c6F)c([H])c5[H])c(C(=O)N([H])[H])c4N([H])[H])C3([H])[H])C([H])([H])[H])c([H])c([H])c2C1([H])[H]

$$$$
35:0:0
     RDKit          3D

 90 97  0  0  1  0  0  0  0  0999 V2000
  -29.2150  -20.2990   19.5590 C   0  0  0  0  0  3  0  0  0  0  0  0
  -27.7370  -20.0100   19.2600 C   0  0  0  0  0  0  0  0  0  0  0  0
  -25.7860  -18.5150   19.6180 C   0  0  0  0  0  1  0  0  0  0  0  0
  -27.1950  -18.8850   19.7420 N   0  0  0  0  0  0  0  0  0  0  0  0
  -27.0720  -20.8400   18.6360 O   0  0  0  0  0  0  0  0  0  0  0  0
  -27.7920  -18.2490   20.2540 H   0  0  0  0  0  0  0  0  0  0  0  0
  -29.1630  -22.1290   20.1440 C   0  0  0  0  0  3  0  0  0  0  0  0
  -28.2330  -23.7780   19.8120 C   0  0  0  0  0  3  0  0  0  0  0  0
  -28.3320  -25.4910   20.1180 O   0  0  0  0  0  0  0  0  0  0  0  0
  -24.5900  -31.6210   22.9620 C   0  0  0  0  0  0  0  0  0  0  0  0
  -27.3160  -26.6520   20.0330 C   0  0  0  0  0  0  0  0  0  0  0  0
  -23.4730  -30.1910   21.3050 C   0  0  0  0  0  3  0  0  0  0  0  0
  -24.9910  -28.5910   19.9210 C   0  0  0  0  0  0  0  0  0  0  0  0
  -26.0460  -30.4170   21.2310 C   0  0  0  0  0  2  0  0  0  0  0  0
  -26.1600  -28.9910   20.5760 C   0  0  0  0  0  0  0  0  0  0  0  0
  -27.3100  -28.0480   20.5990 C   0  0  0  0  0  3  0  0  0  0  0  0
  -26.1090  -26.4470   19.3210 C   0  0  0  0  0  3  0  0  0  0  0  0
  -25.0000  -27.3450   19.2700 C   0  0  0  0  0  3  0  0  0  0  0  0
  -23.7550  -29.5020   19.9380 C   0  0  0  0  0  2  0  0  0  0  0  0
  -24.7240  -30.7760   21.8840 N   0  0  0  0  0  0  0  0  0  0  0  0
  -23.4800  -31.8900   23.4540 O   0  0  0  0  0  0  0  0  0  0  0  0
  -22.7680  -29.1920   22.2630 C   0  0  0  0  0  0  0  0  0  0  0  0
  -21.4380  -29.0270   22.1370 N   0  0  0  0  0  0  0  0  0  0  0  0
  -23.4320  -28.5630   23.0920 O   0  0  0  0  0  0  0  0  0  0  0  0
  -20.9520  -29.5820   21.4450 H   0  0  0  0  0  0  0  0  0  0  0  0
  -18.0490  -27.8450   22.7020 C   0  0  0  0  0  0  0  0  0  0  0  0
  -20.6210  -28.0760   22.8990 C   0  0  0  0  0  3  0  0  0  0  0  0
  -20.6870  -26.6630   22.2720 C   0  0  0  0  0  2  0  0  0  0  0  0
  -19.5520  -26.3900   21.2790 C   0  0  0  0  0  2  0  0  0  0  0  0
  -18.1910  -26.5240   21.9660 C   0  0  0  0  0  2  0  0  0  0  0  0
  -19.1890  -28.5820   23.1260 C   0  0  0  0  0  0  0  0  0  0  0  0
  -18.9980  -29.8190   23.7780 C   0  0  0  0  0  3  0  0  0  0  0  0
  -17.7030  -30.3200   24.0080 C   0  0  0  0  0  3  0  0  0  0  0  0
  -16.5800  -29.5820   23.5970 C   0  0  0  0  0  3  0  0  0  0  0  0
  -16.7540  -28.3460   22.9500 C   0  0  0  0  0  3  0  0  0  0  0  0
  -25.8240  -32.3050   23.6250 C   0  0  0  0  0  3  0  0  0  0  0  0
  -25.4380  -33.6780   24.0090 N   0  0  0  0  0  0  0  0  0  0  0  0
  -25.7410  -34.7870   23.3200 C   0  0  0  0  0  0  0  0  0  0  0  0
  -26.4330  -34.7650   22.3000 O   0  0  0  0  0  0  0  0  0  0  0  0
  -24.8200  -33.7630   24.8010 H   0  0  0  0  0  0  0  0  0  0  0  0
  -23.9410  -36.5300   23.0430 C   0  0  0  0  0  1  0  0  0  0  0  0
  -25.1930  -36.1320   23.8430 C   0  0  0  0  0  3  0  0  0  0  0  0
  -27.2730  -37.0780   24.7470 C   0  0  0  0  0  1  0  0  0  0  0  0
  -26.1810  -37.2330   23.7890 N   0  0  0  0  0  0  0  0  0  0  0  0
  -25.7330  -38.1280   23.9610 H   0  0  0  0  0  0  0  0  0  0  0  0
  -26.3560  -31.5270   24.8930 C   0  0  1  0  0  0  0  0  0  0  0  0
  -25.2580  -31.2090   25.9360 C   0  0  0  0  0  1  0  0  0  0  0  0
  -27.0140  -30.1890   24.4890 C   0  0  0  0  0  1  0  0  0  0  0  0
  -27.4540  -32.3590   25.5960 C   0  0  0  0  0  1  0  0  0  0  0  0
  -30.1190  -18.6520   20.0060 C   0  0  0  0  0  0  0  0  0  0  0  0
  -30.5750  -15.5370   19.8080 C   0  0  0  0  0  0  0  0  0  0  0  0
  -30.5450  -13.0230   18.9430 C   0  0  0  0  0  2  0  0  0  0  0  0
  -29.5700  -12.6990   17.7780 C   0  0  0  0  0  2  0  0  0  0  0  0
  -28.1610  -12.3900   18.3100 C   0  0  0  0  0  2  0  0  0  0  0  0
  -27.7520  -13.3750   19.4310 C   0  0  0  0  0  3  0  0  0  0  0  0
  -28.8560  -13.6170   20.4830 C   0  0  0  0  0  2  0  0  0  0  0  0
  -30.0080  -14.1980   19.7600 N   0  0  0  0  0  0  0  0  0  0  0  0
  -31.7940  -15.4530   19.5660 O   0  0  0  0  0  0  0  0  0  0  0  0
  -29.8540  -16.9030   19.9310 N   0  0  0  0  0  4  0  0  0  0  0  0
  -28.8680  -16.7110   20.0440 H   0  0  0  0  0  0  0  0  0  0  0  0
  -25.4570  -13.9430   20.3550 C   0  0  0  0  0  0  0  0  0  0  0  0
  -24.4080  -13.1790   20.7790 C   0  0  0  0  0  0  0  0  0  0  0  0
  -24.8490  -11.8220   20.6970 C   0  0  0  0  0  0  0  0  0  0  0  0
  -26.4640  -13.0570   20.0270 N   0  0  0  0  0  0  0  0  0  0  0  0
  -26.1180  -11.7720   20.3000 N   0  0  0  0  0  0  0  0  0  0  0  0
  -24.1090  -10.5700   20.9130 C   0  0  0  0  0  0  0  0  0  0  0  0
  -24.5540   -9.5960   21.8330 C   0  0  0  0  0  3  0  0  0  0  0  0
  -23.8120   -8.4120   22.0380 C   0  0  0  0  0  3  0  0  0  0  0  0
  -22.6110   -8.1950   21.3230 C   0  0  0  0  0  0  0  0  0  0  0  0
  -22.1830   -9.1570   20.3920 C   0  0  0  0  0  3  0  0  0  0  0  0
  -22.9260  -10.3320   20.1850 C   0  0  0  0  0  3  0  0  0  0  0  0
  -21.8360   -7.0650   21.4410 O   0  0  0  0  0  0  0  0  0  0  0  0
  -21.7830   -6.3470   22.6080 C   0  0  0  0  0  0  0  0  0  0  0  0
  -21.3500   -6.9270   23.8210 C   0  0  0  0  0  3  0  0  0  0  0  0
  -21.2450   -6.1350   24.9820 C   0  0  0  0  0  3  0  0  0  0  0  0
  -21.5610   -4.7630   24.9300 C   0  0  0  0  0  0  0  0  0  0  0  0
  -21.9840   -4.1820   23.7230 C   0  0  0  0  0  3  0  0  0  0  0  0
  -22.0930   -4.9720   22.5650 C   0  0  0  0  0  0  0  0  0  0  0  0
  -22.4830   -4.4030   21.3980 F   0  0  0  0  0  0  0  0  0  0  0  0
  -21.4520   -4.0000   26.0440 F   0  0  0  0  0  0  0  0  0  0  0  0
  -23.0390  -13.6780   21.1370 C   0  0  0  0  0  0  0  0  0  0  0  0
  -22.3580  -12.9970   22.0530 N   0  0  0  0  0  0  0  0  0  0  0  0
  -22.5880  -14.7090   20.6420 O   0  0  0  0  0  0  0  0  0  0  0  0
  -22.7400  -12.1640   22.4750 H   0  0  0  0  0  0  0  0  0  0  0  0
  -21.4430  -13.3170   22.3370 H   0  0  0  0  0  0  0  0  0  0  0  0
  -25.6310  -15.3140   20.1880 N   0  0  0  0  0  0  0  0  0  0  0  0
  -24.8760  -15.9740   20.3440 H   0  0  0  0  0  0  0  0  0  0  0  0
  -26.4500  -15.7410   19.7800 H   0  0  0  0  0  0  0  0  0  0  0  0
  -32.4950  -19.3960   20.6430 C   0  0  0  0  0  1  0  0  0  0  0  0
  -31.5750  -18.8610   19.5370 C   0  0  0  0  0  2  0  0  0  0  0  0
  1 50  1  0
  1  7  1  0
  2  1  1  0
  2  4  1  0
  3  4  1  0
  4  6  1  0
  5  2  2  0
  8  9  1  0
  8  7  2  0
 10 21  2  0
 11  9  1  0
 11 16  1  0
 12 20  1  0
 12 22  1  0
 13 19  1  0
 13 15  1  0
 14 20  1  0
 15 16  2  0
 15 14  1  0
 17 11  2  0
 18 17  1  0
 18 13  2  0
 19 12  1  0
 20 10  1  0
 22 24  2  0
 23 22  1  0
 25 23  1  0
 26 35  2  0
 26 31  1  0
 27 23  1  0
 27 31  1  0
 28 27  1  0
 29 30  1  0
 29 28  1  0
 30 26  1  0
 31 32  2  0
 32 33  1  0
 34 33  2  0
 35 34  1  0
 36 10  1  0
 36 37  1  0
 36 46  1  0
 37 40  1  0
 38 42  1  0
 38 37  1  0
 39 38  2  0
 42 41  1  0
 44 42  1  0
 44 45  1  0
 44 43  1  0
 46 49  1  1
 46 47  1  0
 48 46  1  0
 51 59  1  0
 52 57  1  0
 53 54  1  0
 53 52  1  0
 55 54  1  0
 55 64  1  0
 55 56  1  0
 57 51  1  0
 57 56  1  0
 58 51  2  0
 59 50  2  0
 59 60  1  0
 61 62  2  0
 62 81  1  0
 63 62  1  0
 63 66  1  0
 64 65  1  0
 64 61  1  0
 65 63  2  0
 66 67  1  0
 67 68  2  0
 69 72  1  0
 69 68  1  0
 70 69  2  0
 71 70  1  0
 71 66  2  0
 72 73  1  0
 73 74  1  0
 74 75  2  0
 76 75  1  0
 76 80  1  0
 77 76  2  0
 78 73  2  0
 78 77  1  0
 79 78  1  0
 81 82  1  0
 82 85  1  0
 82 84  1  0
 83 81  2  0
 86 87  1  0
 86 61  1  0
 88 86  1  0
 90 50  1  0
 90 89  1  0
M  ISO  4   8 101   9 101  51 100  59 100
M  END
>  <TORSDO>  (36) 
F 21

>  <SCORE>  (36) 
-15.274

>  <name>  (36) 
35

>  <ligand_id>  (36) 
35

>  <original_smiles>  (36) 
[H]c1c([H])c([H])c2c(c1[H])C([H])([H])C([H])([H])C([H])([H])C2([H])N([H])C(=O)C1([H])N(C(=O)C([H])(N([H])C(=O)C([H])(N([H])C([H])([H])[H])C([H])([H])[H])C(C([H])([H])[H])(C([H])([H])[H])C([H])([H])[H])C([H])([H])c2c([H])c(OC([H])([H])C([H])([H])C([H])(C(=O)N([H])C([H])([H])[H])C([H])(N([H])C(=O)N3C([H])([H])C([H])([H])C([H])([H])C([H])(n4nc(-c5c([H])c([H])c(Oc6c([H])c([H])c(F)c([H])c6F)c([H])c5[H])c(C(=O)N([H])[H])c4N([H])[H])C3([H])[H])C([H])([H])C([H])([H])[H])c([H])c([H])c2C1([H])[H]

>  <smiles>  (36) 
[H]c1c([H])c([H])c2c(c1[H])C([H])([H])C([H])([H])C([H])([H])C2([H])N([H])C(=O)C1([H])N(C(=O)C([H])(N([H])C(=O)C([H])(N([H])C([H])([H])[H])C([H])([H])[H])C(C([H])([H])[H])(C([H])([H])[H])C([H])([H])[H])C([H])([H])c2c([H])c(OC([H])([H])C([H])([H])C([H])(C(=O)N([H])C([H])([H])[H])C([H])(N([H])C(=O)N3C([H])([H])C([H])([H])C([H])([H])C([H])(n4nc(-c5c([H])c([H])c(Oc6c([H])c([H])c(F)c([H])c6F)c([H])c5[H])c(C(=O)N([H])[H])c4N([H])[H])C3([H])[H])C([H])([H])C([H])([H])[H])c([H])c([H])c2C1([H])[H]

$$$$
36:0:0
     RDKit          3D

 90 98  0  0  1  0  0  0  0  0999 V2000
  -30.4640  -15.2570   20.2950 C   0  0  0  0  0  0  0  0  0  0  0  0
  -30.4140  -12.8040   19.4820 C   0  0  0  0  0  2  0  0  0  0  0  0
  -29.5090  -12.5710   18.2490 C   0  0  0  0  0  2  0  0  0  0  0  0
  -28.0530  -12.3150   18.6830 C   0  0  0  0  0  2  0  0  0  0  0  0
  -27.5800  -13.3030   19.7780 C   0  0  0  0  0  3  0  0  0  0  0  0
  -28.6230  -13.5020   20.9000 C   0  0  0  0  0  2  0  0  0  0  0  0
  -29.8590  -13.9730   20.2490 N   0  0  0  0  0  0  0  0  0  0  0  0
  -31.7040  -15.2100   20.2630 O   0  0  0  0  0  0  0  0  0  0  0  0
  -27.6080  -17.5770   19.3480 C   0  0  0  0  0  2  0  0  0  0  0  0
  -28.8400  -16.6980   19.0180 C   0  0  0  0  0  2  0  0  0  0  0  0
  -30.1390  -18.1400   20.3600 C   0  0  0  0  0  2  0  0  0  0  0  0
  -29.0470  -19.5330   20.3010 C   0  0  0  0  0  3  0  0  0  0  0  0
  -27.9040  -19.1020   19.3360 C   0  0  0  0  0  3  0  0  0  0  0  0
  -29.7500  -16.5590   20.1630 N   0  0  0  0  0  0  0  0  0  0  0  0
  -25.2060  -13.9070   20.4770 C   0  0  0  0  0  0  0  0  0  0  0  0
  -24.1300  -13.1470   20.8330 C   0  0  0  0  0  0  0  0  0  0  0  0
  -24.5910  -11.7960   20.8400 C   0  0  0  0  0  0  0  0  0  0  0  0
  -26.2470  -13.0170   20.2770 N   0  0  0  0  0  0  0  0  0  0  0  0
  -25.8890  -11.7440   20.5650 N   0  0  0  0  0  0  0  0  0  0  0  0
  -23.8560  -10.5430   21.0280 C   0  0  0  0  0  0  0  0  0  0  0  0
  -24.2770   -9.5810   21.9710 C   0  0  0  0  0  3  0  0  0  0  0  0
  -23.5450   -8.3900   22.1520 C   0  0  0  0  0  3  0  0  0  0  0  0
  -22.3750   -8.1540   21.3910 C   0  0  0  0  0  0  0  0  0  0  0  0
  -21.9750   -9.1050   20.4340 C   0  0  0  0  0  3  0  0  0  0  0  0
  -22.7090  -10.2870   20.2500 C   0  0  0  0  0  3  0  0  0  0  0  0
  -21.6090   -7.0180   21.4830 O   0  0  0  0  0  0  0  0  0  0  0  0
  -21.5590   -6.2760   22.6350 C   0  0  0  0  0  0  0  0  0  0  0  0
  -21.1630   -6.8380   23.8680 C   0  0  0  0  0  3  0  0  0  0  0  0
  -21.0550   -6.0210   25.0120 C   0  0  0  0  0  3  0  0  0  0  0  0
  -21.3380   -4.6440   24.9240 C   0  0  0  0  0  0  0  0  0  0  0  0
  -21.7290   -4.0830   23.6960 C   0  0  0  0  0  3  0  0  0  0  0  0
  -21.8350   -4.8960   22.5550 C   0  0  0  0  0  0  0  0  0  0  0  0
  -22.1900   -4.3460   21.3690 F   0  0  0  0  0  0  0  0  0  0  0  0
  -21.2280   -3.8570   26.0210 F   0  0  0  0  0  0  0  0  0  0  0  0
  -22.7280  -13.6380   21.0500 C   0  0  0  0  0  0  0  0  0  0  0  0
  -21.9680  -12.9710   21.9100 N   0  0  0  0  0  0  0  0  0  0  0  0
  -22.3150  -14.6490   20.4850 O   0  0  0  0  0  0  0  0  0  0  0  0
  -22.3170  -12.1610   22.4030 H   0  0  0  0  0  0  0  0  0  0  0  0
  -21.0240  -13.2830   22.0890 H   0  0  0  0  0  0  0  0  0  0  0  0
  -25.3750  -15.2720   20.2740 N   0  0  0  0  0  0  0  0  0  0  0  0
  -24.6050  -15.9260   20.3690 H   0  0  0  0  0  0  0  0  0  0  0  0
  -26.2390  -15.6980   19.9730 H   0  0  0  0  0  0  0  0  0  0  0  0
  -26.6660  -19.8580   19.6140 N   0  0  0  0  0  4  0  0  0  0  0  0
  -26.3430  -19.6820   20.5470 H   0  0  0  0  0  0  0  0  0  0  0  0
  -25.9420  -19.5960   18.9660 H   0  0  0  0  0  0  0  0  0  0  0  0
  -26.8240  -20.8430   19.5130 H   0  0  0  0  0  0  0  0  0  0  0  0
  -29.3810  -21.2630   20.0070 C   0  0  0  0  0  2  0  0  0  0  0  0
  -28.6400  -22.8080   20.5210 C   0  0  0  0  0  2  0  0  0  0  0  0
  -28.4720  -24.4100   19.7560 C   0  0  0  0  0  2  0  0  0  0  0  0
  -28.3650  -25.9670   20.2510 O   0  0  0  0  0  0  0  0  0  0  0  0
  -24.6740  -31.8320   23.1030 C   0  0  0  0  0  0  0  0  0  0  0  0
  -27.3130  -27.0030   20.1170 C   0  0  0  0  0  0  0  0  0  0  0  0
  -23.5010  -30.4170   21.4600 C   0  0  0  0  0  3  0  0  0  0  0  0
  -24.9760  -28.8200   20.0520 C   0  0  0  0  0  0  0  0  0  0  0  0
  -26.0610  -30.6650   21.3220 C   0  0  0  0  0  2  0  0  0  0  0  0
  -26.1510  -29.2550   20.6780 C   0  0  0  0  0  0  0  0  0  0  0  0
  -27.3080  -28.3630   20.6890 C   0  0  0  0  0  3  0  0  0  0  0  0
  -26.1060  -26.7050   19.4440 C   0  0  0  0  0  3  0  0  0  0  0  0
  -24.9770  -27.5660   19.4180 C   0  0  0  0  0  3  0  0  0  0  0  0
  -23.7420  -29.7200   20.0890 C   0  0  0  0  0  2  0  0  0  0  0  0
  -24.7660  -30.9990   22.0160 N   0  0  0  0  0  0  0  0  0  0  0  0
  -23.5810  -32.1120   23.6190 O   0  0  0  0  0  0  0  0  0  0  0  0
  -22.8110  -29.4230   22.4300 C   0  0  0  0  0  0  0  0  0  0  0  0
  -21.4780  -29.2700   22.3200 N   0  0  0  0  0  0  0  0  0  0  0  0
  -23.4820  -28.7880   23.2460 O   0  0  0  0  0  0  0  0  0  0  0  0
  -20.9890  -29.8310   21.6360 H   0  0  0  0  0  0  0  0  0  0  0  0
  -18.0930  -28.0980   22.8770 C   0  0  0  0  0  0  0  0  0  0  0  0
  -20.6600  -28.3340   23.0970 C   0  0  0  0  0  3  0  0  0  0  0  0
  -20.7350  -26.9070   22.5070 C   0  0  0  0  0  2  0  0  0  0  0  0
  -19.6130  -26.6070   21.5080 C   0  0  0  0  0  2  0  0  0  0  0  0
  -18.2450  -26.7570   22.1780 C   0  0  0  0  0  2  0  0  0  0  0  0
  -19.2260  -28.8440   23.2950 C   0  0  0  0  0  0  0  0  0  0  0  0
  -19.0270  -30.0980   23.9140 C   0  0  0  0  0  3  0  0  0  0  0  0
  -17.7290  -30.6060   24.1130 C   0  0  0  0  0  3  0  0  0  0  0  0
  -16.6120  -29.8560   23.7090 C   0  0  0  0  0  3  0  0  0  0  0  0
  -16.7930  -28.6030   23.0970 C   0  0  0  0  0  3  0  0  0  0  0  0
  -25.9380  -32.4890   23.7380 C   0  0  0  0  0  3  0  0  0  0  0  0
  -26.4650  -31.7150   25.0090 C   0  0  1  0  0  0  0  0  0  0  0  0
  -25.3770  -31.4550   26.0770 C   0  0  0  0  0  1  0  0  0  0  0  0
  -27.0660  -30.3460   24.6140 C   0  0  0  0  0  1  0  0  0  0  0  0
  -27.6040  -32.5180   25.6810 C   0  0  0  0  0  1  0  0  0  0  0  0
  -25.5930  -33.8750   24.0970 N   0  0  0  0  0  0  0  0  0  0  0  0
  -25.9010  -34.9570   23.3700 C   0  0  0  0  0  0  0  0  0  0  0  0
  -26.5660  -34.8960   22.3330 O   0  0  0  0  0  0  0  0  0  0  0  0
  -24.9930  -33.9930   24.8990 H   0  0  0  0  0  0  0  0  0  0  0  0
  -24.1360  -36.7340   23.0850 C   0  0  0  0  0  1  0  0  0  0  0  0
  -25.3930  -36.3270   23.8690 C   0  0  0  0  0  3  0  0  0  0  0  0
  -27.5200  -37.2380   24.6920 C   0  0  0  0  0  1  0  0  0  0  0  0
  -26.4020  -37.4040   23.7690 N   0  0  0  0  0  0  0  0  0  0  0  0
  -25.9770  -38.3100   23.9440 H   0  0  0  0  0  0  0  0  0  0  0  0
  2  7  1  0
  3  4  1  0
  3  2  1  0
  5  4  1  0
  5 18  1  0
  5  6  1  0
  7  1  1  0
  7  6  1  0
  8  1  2  0
 10  9  1  0
 10 14  1  0
 12 47  1  0
 12 11  1  0
 13  9  1  0
 13 43  1  0
 13 12  1  0
 14  1  1  0
 14 11  1  0
 15 16  2  0
 16 17  1  0
 16 35  1  0
 17 20  1  0
 18 15  1  0
 18 19  1  0
 19 17  2  0
 20 21  1  0
 21 22  2  0
 23 26  1  0
 23 22  1  0
 24 23  2  0
 25 24  1  0
 25 20  2  0
 26 27  1  0
 27 28  1  0
 28 29  2  0
 30 29  1  0
 30 34  1  0
 31 30  2  0
 32 27  2  0
 32 31  1  0
 33 32  1  0
 35 36  1  0
 36 39  1  0
 36 38  1  0
 37 35  2  0
 40 41  1  0
 40 15  1  0
 42 40  1  0
 43 44  1  0
 45 43  1  0
 46 43  1  0
 47 48  1  0
 49 50  1  0
 49 48  1  0
 51 62  2  0
 52 50  1  0
 52 57  1  0
 53 61  1  0
 53 63  1  0
 54 60  1  0
 54 56  1  0
 55 61  1  0
 56 57  2  0
 56 55  1  0
 58 52  2  0
 59 58  1  0
 59 54  2  0
 60 53  1  0
 61 51  1  0
 63 65  2  0
 64 63  1  0
 66 64  1  0
 67 76  2  0
 67 72  1  0
 68 64  1  0
 68 72  1  0
 69 68  1  0
 70 71  1  0
 70 69  1  0
 71 67  1  0
 72 73  2  0
 73 74  1  0
 75 74  2  0
 76 75  1  0
 77 51  1  0
 77 82  1  0
 77 78  1  0
 78 81  1  1
 78 79  1  0
 80 78  1  0
 82 85  1  0
 83 87  1  0
 83 82  1  0
 84 83  2  0
 87 86  1  0
 89 87  1  0
 89 90  1  0
 89 88  1  0
M  ISO  4   1 100  14 100  49 101  50 101
M  END
>  <TORSDO>  (37) 
F 19

>  <SCORE>  (37) 
-15.691

>  <name>  (37) 
36

>  <ligand_id>  (37) 
36

>  <original_smiles>  (37) 
[H]c1c([H])c([H])c2c(c1[H])C([H])([H])C([H])([H])C([H])([H])C2([H])N([H])C(=O)C1([H])N(C(=O)C([H])(N([H])C(=O)C([H])(N([H])C([H])([H])[H])C([H])([H])[H])C(C([H])([H])[H])(C([H])([H])[H])C([H])([H])[H])C([H])([H])c2c([H])c(OC([H])([H])C([H])([H])C([H])([H])C3([H])C([H])([H])N(C(=O)N4C([H])([H])C([H])([H])C([H])([H])C([H])(n5nc(-c6c([H])c([H])c(Oc7c([H])c([H])c(F)c([H])c7F)c([H])c6[H])c(C(=O)N([H])[H])c5N([H])[H])C4([H])[H])C([H])([H])C([H])([H])C3([H])[N+]([H])([H])[H])c([H])c([H])c2C1([H])[H]

>  <smiles>  (37) 
[H]c1c([H])c([H])c2c(c1[H])C([H])([H])C([H])([H])C([H])([H])C2([H])N([H])C(=O)C1([H])N(C(=O)C([H])(N([H])C(=O)C([H])(N([H])C([H])([H])[H])C([H])([H])[H])C(C([H])([H])[H])(C([H])([H])[H])C([H])([H])[H])C([H])([H])c2c([H])c(OC([H])([H])C([H])([H])C([H])([H])C3([H])C([H])([H])N(C(=O)N4C([H])([H])C([H])([H])C([H])([H])C([H])(n5nc(-c6c([H])c([H])c(Oc7c([H])c([H])c(F)c([H])c7F)c([H])c6[H])c(C(=O)N([H])[H])c5N([H])[H])C4([H])[H])C([H])([H])C([H])([H])C3([H])[N+]([H])([H])[H])c([H])c([H])c2C1([H])[H]

$$$$
37:0:0
     RDKit          3D

 97105  0  0  1  0  0  0  0  0999 V2000
  -30.3730  -21.4600   21.0750 C   0  0  0  0  0  2  0  0  0  0  0  0
  -27.9920  -22.1870   19.6360 C   0  0  0  0  0  2  0  0  0  0  0  0
  -29.6940  -20.3330   20.2050 C   0  0  0  0  0  3  0  0  0  0  0  0
  -28.6250  -23.4210   20.4290 C   0  0  0  0  0  3  0  0  0  0  0  0
  -30.1330  -22.9780   20.6220 C   0  0  0  0  0  3  0  0  0  0  0  0
  -28.2590  -20.7670   20.1330 N   0  0  0  0  0  4  0  0  0  0  0  0
  -27.7780  -20.1330   19.5140 H   0  0  0  0  0  0  0  0  0  0  0  0
  -27.8380  -20.6410   21.0410 H   0  0  0  0  0  0  0  0  0  0  0  0
  -30.8290  -23.9030   21.5420 N   0  0  0  0  0  4  0  0  0  0  0  0
  -30.4210  -23.8900   22.4610 H   0  0  0  0  0  0  0  0  0  0  0  0
  -30.7920  -24.8470   21.1990 H   0  0  0  0  0  0  0  0  0  0  0  0
  -31.8000  -23.6550   21.6290 H   0  0  0  0  0  0  0  0  0  0  0  0
  -29.9000  -18.7710   20.7490 C   0  0  0  0  0  0  0  0  0  0  0  0
  -29.8350  -18.5610   21.9620 O   0  0  0  0  0  0  0  0  0  0  0  0
  -30.1450  -17.4730   19.7680 C   0  0  0  0  0  0  0  0  0  0  0  0
  -30.8750  -14.8650   20.1900 C   0  0  0  0  0  0  0  0  0  0  0  0
  -30.6600  -12.5860   19.1720 C   0  0  0  0  0  2  0  0  0  0  0  0
  -29.7030  -12.6720   17.9620 C   0  0  0  0  0  2  0  0  0  0  0  0
  -28.2410  -12.4920   18.4130 C   0  0  0  0  0  2  0  0  0  0  0  0
  -27.8880  -13.3720   19.6440 C   0  0  0  0  0  3  0  0  0  0  0  0
  -28.9640  -13.2710   20.7480 C   0  0  0  0  0  2  0  0  0  0  0  0
  -30.2520  -13.6310   20.1420 N   0  0  0  0  0  0  0  0  0  0  0  0
  -32.0690  -14.9390   19.8870 O   0  0  0  0  0  0  0  0  0  0  0  0
  -30.0660  -16.0010   20.2890 N   0  0  0  0  0  4  0  0  0  0  0  0
  -29.1460  -15.7730   20.6330 H   0  0  0  0  0  0  0  0  0  0  0  0
  -25.5150  -13.9790   20.4010 C   0  0  0  0  0  0  0  0  0  0  0  0
  -24.4500  -13.2120   20.7880 C   0  0  0  0  0  0  0  0  0  0  0  0
  -24.9050  -11.8570   20.7540 C   0  0  0  0  0  0  0  0  0  0  0  0
  -26.5510  -13.0920   20.1520 N   0  0  0  0  0  0  0  0  0  0  0  0
  -26.1920  -11.8110   20.4310 N   0  0  0  0  0  0  0  0  0  0  0  0
  -24.1720  -10.6000   20.9530 C   0  0  0  0  0  0  0  0  0  0  0  0
  -24.5870   -9.6470   21.9100 C   0  0  0  0  0  3  0  0  0  0  0  0
  -23.8550   -8.4540   22.0960 C   0  0  0  0  0  3  0  0  0  0  0  0
  -22.6970   -8.2060   21.3230 C   0  0  0  0  0  0  0  0  0  0  0  0
  -22.3010   -9.1460   20.3560 C   0  0  0  0  0  3  0  0  0  0  0  0
  -23.0330  -10.3320   20.1680 C   0  0  0  0  0  3  0  0  0  0  0  0
  -21.9390   -7.0620   21.4160 O   0  0  0  0  0  0  0  0  0  0  0  0
  -21.8400   -6.3580   22.5890 C   0  0  0  0  0  0  0  0  0  0  0  0
  -21.3340   -6.9460   23.7690 C   0  0  0  0  0  3  0  0  0  0  0  0
  -21.1830   -6.1660   24.9340 C   0  0  0  0  0  3  0  0  0  0  0  0
  -21.5280   -4.8020   24.9200 C   0  0  0  0  0  0  0  0  0  0  0  0
  -22.0270   -4.2140   23.7450 C   0  0  0  0  0  3  0  0  0  0  0  0
  -22.1790   -4.9900   22.5810 C   0  0  0  0  0  0  0  0  0  0  0  0
  -22.6410   -4.4140   21.4460 F   0  0  0  0  0  0  0  0  0  0  0  0
  -21.3760   -4.0510   26.0360 F   0  0  0  0  0  0  0  0  0  0  0  0
  -23.0580  -13.6960   21.0720 C   0  0  0  0  0  0  0  0  0  0  0  0
  -22.3360  -13.0090   21.9510 N   0  0  0  0  0  0  0  0  0  0  0  0
  -22.6210  -14.7220   20.5520 O   0  0  0  0  0  0  0  0  0  0  0  0
  -22.7040  -12.1810   22.3960 H   0  0  0  0  0  0  0  0  0  0  0  0
  -21.4020  -13.3150   22.1830 H   0  0  0  0  0  0  0  0  0  0  0  0
  -25.6820  -15.3480   20.2110 N   0  0  0  0  0  0  0  0  0  0  0  0
  -24.9030  -15.9930   20.2910 H   0  0  0  0  0  0  0  0  0  0  0  0
  -26.4950  -15.7660   19.7790 H   0  0  0  0  0  0  0  0  0  0  0  0
  -31.1870  -16.9740   17.4430 C   0  0  0  0  0  1  0  0  0  0  0  0
  -31.3380  -17.6900   18.7980 C   0  0  0  0  0  2  0  0  0  0  0  0
  -28.3350  -24.8830   19.6960 C   0  0  0  0  0  2  0  0  0  0  0  0
  -28.3080  -26.2920   20.2950 O   0  0  0  0  0  0  0  0  0  0  0  0
  -24.6500  -31.9160   23.1720 C   0  0  0  0  0  0  0  0  0  0  0  0
  -27.2210  -27.2160   20.1800 C   0  0  0  0  0  0  0  0  0  0  0  0
  -23.4480  -30.5180   21.5350 C   0  0  0  0  0  3  0  0  0  0  0  0
  -24.8920  -28.9380   20.1270 C   0  0  0  0  0  0  0  0  0  0  0  0
  -26.0010  -30.7780   21.3820 C   0  0  0  0  0  2  0  0  0  0  0  0
  -26.0670  -29.3890   20.7410 C   0  0  0  0  0  0  0  0  0  0  0  0
  -27.2290  -28.5410   20.7570 C   0  0  0  0  0  3  0  0  0  0  0  0
  -26.0160  -26.8550   19.5290 C   0  0  0  0  0  3  0  0  0  0  0  0
  -24.8770  -27.6830   19.5080 C   0  0  0  0  0  3  0  0  0  0  0  0
  -23.6690  -29.8340   20.1610 C   0  0  0  0  0  2  0  0  0  0  0  0
  -24.7190  -31.0920   22.0840 N   0  0  0  0  0  0  0  0  0  0  0  0
  -23.5630  -32.2120   23.6920 O   0  0  0  0  0  0  0  0  0  0  0  0
  -22.7640  -29.5160   22.4990 C   0  0  0  0  0  0  0  0  0  0  0  0
  -21.4330  -29.3640   22.3770 N   0  0  0  0  0  0  0  0  0  0  0  0
  -23.4310  -28.8800   23.3200 O   0  0  0  0  0  0  0  0  0  0  0  0
  -20.9540  -29.9280   21.6900 H   0  0  0  0  0  0  0  0  0  0  0  0
  -18.0320  -28.2430   22.9080 C   0  0  0  0  0  0  0  0  0  0  0  0
  -20.5990  -28.4430   23.1530 C   0  0  0  0  0  3  0  0  0  0  0  0
  -20.6610  -27.0110   22.5700 C   0  0  0  0  0  2  0  0  0  0  0  0
  -19.5410  -26.7180   21.5660 C   0  0  0  0  0  2  0  0  0  0  0  0
  -18.1700  -26.8930   22.2260 C   0  0  0  0  0  2  0  0  0  0  0  0
  -19.1730  -28.9770   23.3300 C   0  0  0  0  0  0  0  0  0  0  0  0
  -18.9860  -30.2410   23.9320 C   0  0  0  0  0  3  0  0  0  0  0  0
  -17.6950  -30.7710   24.1110 C   0  0  0  0  0  3  0  0  0  0  0  0
  -16.5710  -30.0330   23.7040 C   0  0  0  0  0  3  0  0  0  0  0  0
  -16.7400  -28.7700   23.1100 C   0  0  0  0  0  3  0  0  0  0  0  0
  -25.9310  -32.5450   23.8000 C   0  0  0  0  0  3  0  0  0  0  0  0
  -25.6170  -33.9370   24.1560 N   0  0  0  0  0  0  0  0  0  0  0  0
  -25.9410  -35.0050   23.4150 C   0  0  0  0  0  0  0  0  0  0  0  0
  -26.6040  -34.9220   22.3780 O   0  0  0  0  0  0  0  0  0  0  0  0
  -25.0270  -34.0750   24.9620 H   0  0  0  0  0  0  0  0  0  0  0  0
  -24.2100  -36.8040   23.1000 C   0  0  0  0  0  1  0  0  0  0  0  0
  -25.4530  -36.3840   23.9020 C   0  0  0  0  0  3  0  0  0  0  0  0
  -27.5860  -37.2580   24.7520 C   0  0  0  0  0  1  0  0  0  0  0  0
  -26.4850  -37.4410   23.8100 N   0  0  0  0  0  0  0  0  0  0  0  0
  -26.0760  -38.3570   23.9720 H   0  0  0  0  0  0  0  0  0  0  0  0
  -26.4520  -31.7560   25.0630 C   0  0  1  0  0  0  0  0  0  0  0  0
  -25.3600  -31.4960   26.1280 C   0  0  0  0  0  1  0  0  0  0  0  0
  -27.0390  -30.3850   24.6510 C   0  0  0  0  0  1  0  0  0  0  0  0
  -27.6020  -32.5430   25.7350 C   0  0  0  0  0  1  0  0  0  0  0  0
  2  6  1  0
  2  4  1  0
  3 13  1  0
  3  1  1  0
  4 56  1  0
  4  5  1  0
  5  1  1  0
  5  9  1  0
  6  3  1  0
  6  8  1  0
  7  6  1  0
  9 12  1  0
  9 10  1  0
 11  9  1  0
 13 14  2  0
 15 24  2  0
 15 13  1  0
 16 24  1  0
 17 22  1  0
 18 19  1  0
 18 17  1  0
 20 19  1  0
 20 29  1  0
 20 21  1  0
 22 16  1  0
 22 21  1  0
 23 16  2  0
 24 25  1  0
 26 27  2  0
 27 46  1  0
 28 27  1  0
 28 31  1  0
 29 26  1  0
 29 30  1  0
 30 28  2  0
 31 32  1  0
 32 33  2  0
 34 37  1  0
 34 33  1  0
 35 34  2  0
 36 35  1  0
 36 31  2  0
 37 38  1  0
 38 39  1  0
 39 40  2  0
 41 40  1  0
 41 45  1  0
 42 41  2  0
 43 38  2  0
 43 42  1  0
 44 43  1  0
 46 47  1  0
 47 50  1  0
 47 49  1  0
 48 46  2  0
 51 52  1  0
 51 26  1  0
 53 51  1  0
 54 55  1  0
 55 15  1  0
 56 57  1  0
 58 69  2  0
 59 57  1  0
 59 64  1  0
 60 68  1  0
 60 70  1  0
 61 67  1  0
 61 63  1  0
 62 68  1  0
 63 64  2  0
 63 62  1  0
 65 59  2  0
 66 65  1  0
 66 61  2  0
 67 60  1  0
 68 58  1  0
 70 72  2  0
 71 70  1  0
 73 71  1  0
 74 83  2  0
 74 79  1  0
 75 71  1  0
 75 79  1  0
 76 75  1  0
 77 78  1  0
 77 76  1  0
 78 74  1  0
 79 80  2  0
 80 81  1  0
 82 81  2  0
 83 82  1  0
 84 58  1  0
 84 85  1  0
 84 94  1  0
 85 88  1  0
 86 90  1  0
 86 85  1  0
 87 86  2  0
 90 89  1  0
 92 90  1  0
 92 93  1  0
 92 91  1  0
 94 97  1  1
 94 95  1  0
 96 94  1  0
M  ISO  4  16 100  24 100  56 101  57 101
M  END
>  <TORSDO>  (38) 
F 21

>  <SCORE>  (38) 
-13.318

>  <name>  (38) 
37

>  <ligand_id>  (38) 
37

>  <original_smiles>  (38) 
[H]c1c([H])c([H])c2c(c1[H])C([H])([H])C([H])([H])C([H])([H])C2([H])N([H])C(=O)C1([H])N(C(=O)C([H])(N([H])C(=O)C([H])(N([H])C([H])([H])[H])C([H])([H])[H])C(C([H])([H])[H])(C([H])([H])[H])C([H])([H])[H])C([H])([H])c2c([H])c(OC([H])([H])C3([H])C([H])([N+]([H])([H])[H])C([H])([H])C([H])(C(=O)C([H])(N([H])C(=O)N4C([H])([H])C([H])([H])C([H])([H])C([H])(n5nc(-c6c([H])c([H])c(Oc7c([H])c([H])c(F)c([H])c7F)c([H])c6[H])c(C(=O)N([H])[H])c5N([H])[H])C4([H])[H])C([H])([H])C([H])([H])[H])[N+]([H])([H])C3([H])[H])c([H])c([H])c2C1([H])[H]

>  <smiles>  (38) 
[H]c1c([H])c([H])c2c(c1[H])C([H])([H])C([H])([H])C([H])([H])C2([H])N([H])C(=O)C1([H])N(C(=O)C([H])(N([H])C(=O)C([H])(N([H])C([H])([H])[H])C([H])([H])[H])C(C([H])([H])[H])(C([H])([H])[H])C([H])([H])[H])C([H])([H])c2c([H])c(OC([H])([H])C3([H])C([H])([N+]([H])([H])[H])C([H])([H])C([H])(C(=O)C([H])(N([H])C(=O)N4C([H])([H])C([H])([H])C([H])([H])C([H])(n5nc(-c6c([H])c([H])c(Oc7c([H])c([H])c(F)c([H])c7F)c([H])c6[H])c(C(=O)N([H])[H])c5N([H])[H])C4([H])[H])C([H])([H])C([H])([H])[H])[N+]([H])([H])C3([H])[H])c([H])c([H])c2C1([H])[H]

$$$$
38:0:0
     RDKit          3D

101109  0  0  1  0  0  0  0  0999 V2000
  -28.7110  -21.6780   19.8300 C   0  0  0  0  0  3  0  0  0  0  0  0
  -29.2610  -20.6360   22.1480 C   0  0  0  0  0  2  0  0  0  0  0  0
  -29.5570  -22.9750   22.0000 C   0  0  0  0  0  2  0  0  0  0  0  0
  -30.0150  -21.0190   23.4360 C   0  0  0  0  0  3  0  0  0  0  0  0
  -29.5970  -21.7240   21.1120 C   0  0  0  0  0  3  0  0  0  0  0  0
  -30.2850  -22.5450   23.2900 C   0  0  0  0  0  3  0  0  0  0  0  0
  -31.3010  -20.1770   23.5850 C   0  0  0  0  0  0  0  0  0  0  0  0
  -31.1960  -18.9730   24.1350 N   0  0  0  0  0  0  0  0  0  0  0  0
  -32.3870  -20.5930   23.1880 O   0  0  0  0  0  0  0  0  0  0  0  0
  -30.3010  -18.6130   24.4410 H   0  0  0  0  0  0  0  0  0  0  0  0
  -32.0150  -18.3870   24.2330 H   0  0  0  0  0  0  0  0  0  0  0  0
  -29.8800  -23.3350   24.4700 N   0  0  0  0  0  4  0  0  0  0  0  0
  -28.8950  -23.2550   24.6490 H   0  0  0  0  0  0  0  0  0  0  0  0
  -30.0960  -24.3070   24.3320 H   0  0  0  0  0  0  0  0  0  0  0  0
  -30.3750  -23.0300   25.2900 H   0  0  0  0  0  0  0  0  0  0  0  0
  -28.5250  -23.2850   19.1240 C   0  0  0  0  0  2  0  0  0  0  0  0
  -27.6890  -24.7280   19.6840 C   0  0  0  0  0  2  0  0  0  0  0  0
  -27.8490  -26.3020   19.3900 O   0  0  0  0  0  0  0  0  0  0  0  0
  -24.5470  -31.8980   23.1130 C   0  0  0  0  0  0  0  0  0  0  0  0
  -26.8020  -27.3180   19.5580 C   0  0  0  0  0  0  0  0  0  0  0  0
  -23.1900  -30.5920   21.5260 C   0  0  0  0  0  3  0  0  0  0  0  0
  -24.4880  -29.1010   19.8700 C   0  0  0  0  0  0  0  0  0  0  0  0
  -25.7180  -30.8680   21.1170 C   0  0  0  0  0  2  0  0  0  0  0  0
  -25.7290  -29.5080   20.3770 C   0  0  0  0  0  0  0  0  0  0  0  0
  -26.8830  -28.6370   20.1960 C   0  0  0  0  0  3  0  0  0  0  0  0
  -25.5270  -27.0390   19.0230 C   0  0  0  0  0  3  0  0  0  0  0  0
  -24.4030  -27.8850   19.1760 C   0  0  0  0  0  3  0  0  0  0  0  0
  -23.2730  -29.9950   20.0950 C   0  0  0  0  0  2  0  0  0  0  0  0
  -24.5120  -31.1400   21.9730 N   0  0  0  0  0  0  0  0  0  0  0  0
  -23.5190  -32.1430   23.7650 O   0  0  0  0  0  0  0  0  0  0  0  0
  -22.6130  -29.5280   22.4950 C   0  0  0  0  0  0  0  0  0  0  0  0
  -21.3080  -29.2250   22.3740 N   0  0  0  0  0  0  0  0  0  0  0  0
  -23.3440  -28.9760   23.3210 O   0  0  0  0  0  0  0  0  0  0  0  0
  -20.7680  -29.7290   21.6850 H   0  0  0  0  0  0  0  0  0  0  0  0
  -18.1120  -27.5590   22.7730 C   0  0  0  0  0  0  0  0  0  0  0  0
  -20.5880  -28.2080   23.1480 C   0  0  0  0  0  3  0  0  0  0  0  0
  -20.9270  -26.7830   22.6500 C   0  0  0  0  0  2  0  0  0  0  0  0
  -19.9410  -26.2610   21.6010 C   0  0  0  0  0  2  0  0  0  0  0  0
  -18.5190  -26.2250   22.1700 C   0  0  0  0  0  2  0  0  0  0  0  0
  -19.0830  -28.4960   23.2180 C   0  0  0  0  0  0  0  0  0  0  0  0
  -18.6490  -29.7330   23.7430 C   0  0  0  0  0  3  0  0  0  0  0  0
  -17.2770  -30.0380   23.8270 C   0  0  0  0  0  3  0  0  0  0  0  0
  -16.3210  -29.1000   23.3990 C   0  0  0  0  0  3  0  0  0  0  0  0
  -16.7390  -27.8650   22.8760 C   0  0  0  0  0  3  0  0  0  0  0  0
  -25.8780  -32.5120   23.6450 C   0  0  0  0  0  3  0  0  0  0  0  0
  -26.5370  -31.6570   24.7970 C   0  0  1  0  0  0  0  0  0  0  0  0
  -25.5600  -31.2950   25.9410 C   0  0  0  0  0  1  0  0  0  0  0  0
  -27.1180  -30.3370   24.2410 C   0  0  0  0  0  1  0  0  0  0  0  0
  -27.7260  -32.4340   25.4100 C   0  0  0  0  0  1  0  0  0  0  0  0
  -25.5860  -33.8730   24.1250 N   0  0  0  0  0  0  0  0  0  0  0  0
  -25.8640  -34.9990   23.4540 C   0  0  0  0  0  0  0  0  0  0  0  0
  -26.4570  -35.0000   22.3720 O   0  0  0  0  0  0  0  0  0  0  0  0
  -25.0510  -33.9450   24.9780 H   0  0  0  0  0  0  0  0  0  0  0  0
  -24.1530  -36.8450   23.3670 C   0  0  0  0  0  1  0  0  0  0  0  0
  -25.4150  -36.3340   24.0810 C   0  0  0  0  0  3  0  0  0  0  0  0
  -27.5780  -37.1140   24.9430 C   0  0  0  0  0  1  0  0  0  0  0  0
  -26.4600  -37.3820   24.0460 N   0  0  0  0  0  0  0  0  0  0  0  0
  -26.0680  -38.2890   24.2900 H   0  0  0  0  0  0  0  0  0  0  0  0
  -29.0070  -20.1000   19.0830 C   0  0  0  0  0  3  0  0  0  0  0  0
  -29.2480  -20.3280   17.6500 N   0  0  0  0  0  4  0  0  0  0  0  0
  -30.1370  -20.7720   17.5040 H   0  0  0  0  0  0  0  0  0  0  0  0
  -28.5300  -20.9090   17.2580 H   0  0  0  0  0  0  0  0  0  0  0  0
  -29.2410  -19.4570   17.1500 H   0  0  0  0  0  0  0  0  0  0  0  0
  -29.9950  -18.7180   19.5690 C   0  0  0  0  0  3  0  0  0  0  0  0
  -29.6810  -16.9930   19.4920 C   0  0  0  0  0  3  0  0  0  0  0  0
  -30.6780  -15.5970   19.6110 C   0  0  0  0  0  0  0  0  0  0  0  0
  -30.7780  -13.0860   19.0630 C   0  0  0  0  0  2  0  0  0  0  0  0
  -29.8190  -12.7560   17.8900 C   0  0  0  0  0  2  0  0  0  0  0  0
  -28.3890  -12.4970   18.4000 C   0  0  0  0  0  2  0  0  0  0  0  0
  -27.9410  -13.5580   19.4360 C   0  0  0  0  0  3  0  0  0  0  0  0
  -29.0180  -13.8320   20.5020 C   0  0  0  0  0  2  0  0  0  0  0  0
  -30.2310  -14.2730   19.7990 N   0  0  0  0  0  0  0  0  0  0  0  0
  -31.8800  -15.6850   19.3240 O   0  0  0  0  0  0  0  0  0  0  0  0
  -25.6430  -14.1290   20.3950 C   0  0  0  0  0  0  0  0  0  0  0  0
  -24.5950  -13.3550   20.8100 C   0  0  0  0  0  0  0  0  0  0  0  0
  -25.0290  -11.9990   20.6790 C   0  0  0  0  0  0  0  0  0  0  0  0
  -26.6440  -13.2480   20.0280 N   0  0  0  0  0  0  0  0  0  0  0  0
  -26.2920  -11.9580   20.2670 N   0  0  0  0  0  0  0  0  0  0  0  0
  -24.2930  -10.7420   20.8670 C   0  0  0  0  0  0  0  0  0  0  0  0
  -24.6480   -9.8190   21.8740 C   0  0  0  0  0  3  0  0  0  0  0  0
  -23.9110   -8.6280   22.0470 C   0  0  0  0  0  3  0  0  0  0  0  0
  -22.8040   -8.3510   21.2100 C   0  0  0  0  0  0  0  0  0  0  0  0
  -22.4690   -9.2620   20.1930 C   0  0  0  0  0  3  0  0  0  0  0  0
  -23.2070  -10.4440   20.0190 C   0  0  0  0  0  3  0  0  0  0  0  0
  -22.0470   -7.2060   21.2860 O   0  0  0  0  0  0  0  0  0  0  0  0
  -21.7560   -6.6150   22.4890 C   0  0  0  0  0  0  0  0  0  0  0  0
  -20.9920   -7.2720   23.4780 C   0  0  0  0  0  3  0  0  0  0  0  0
  -20.6580   -6.6020   24.6720 C   0  0  0  0  0  3  0  0  0  0  0  0
  -21.0780   -5.2740   24.8750 C   0  0  0  0  0  0  0  0  0  0  0  0
  -21.8330   -4.6150   23.8890 C   0  0  0  0  0  3  0  0  0  0  0  0
  -22.1690   -5.2830   22.6980 C   0  0  0  0  0  0  0  0  0  0  0  0
  -22.8790   -4.6370   21.7430 F   0  0  0  0  0  0  0  0  0  0  0  0
  -20.7510   -4.6260   26.0170 F   0  0  0  0  0  0  0  0  0  0  0  0
  -23.2320  -13.8430   21.2070 C   0  0  0  0  0  0  0  0  0  0  0  0
  -22.5520  -13.1130   22.0820 N   0  0  0  0  0  0  0  0  0  0  0  0
  -22.7840  -14.9050   20.7770 O   0  0  0  0  0  0  0  0  0  0  0  0
  -22.9280  -12.2520   22.4490 H   0  0  0  0  0  0  0  0  0  0  0  0
  -21.6400  -13.4200   22.3900 H   0  0  0  0  0  0  0  0  0  0  0  0
  -25.8210  -15.5050   20.2750 N   0  0  0  0  0  0  0  0  0  0  0  0
  -25.0820  -16.1660   20.4860 H   0  0  0  0  0  0  0  0  0  0  0  0
  -26.6580  -15.9470   19.9170 H   0  0  0  0  0  0  0  0  0  0  0  0
  1 16  1  0
  2  4  1  0
  3  6  1  0
  4  7  1  0
  5  1  1  0
  5  3  1  0
  5  2  1  0
  6  4  1  0
  6 12  1  0
  7  8  1  0
  8 11  1  0
  8 10  1  0
  9  7  2  0
 12 13  1  0
 12 15  1  0
 14 12  1  0
 16 17  1  0
 18 20  1  0
 18 17  1  0
 19 30  2  0
 20 25  1  0
 21 29  1  0
 21 31  1  0
 22 28  1  0
 22 24  1  0
 23 29  1  0
 24 23  1  0
 25 24  2  0
 26 27  1  0
 26 20  2  0
 27 22  2  0
 28 21  1  0
 29 19  1  0
 31 33  2  0
 32 31  1  0
 34 32  1  0
 35 44  2  0
 35 40  1  0
 36 32  1  0
 36 40  1  0
 37 36  1  0
 38 39  1  0
 38 37  1  0
 39 35  1  0
 40 41  2  0
 41 42  1  0
 43 42  2  0
 44 43  1  0
 45 19  1  0
 45 50  1  0
 45 46  1  0
 46 49  1  1
 46 47  1  0
 48 46  1  0
 50 53  1  0
 51 55  1  0
 51 50  1  0
 52 51  2  0
 55 54  1  0
 57 55  1  0
 57 58  1  0
 57 56  1  0
 59 64  1  0
 59  1  1  0
 60 59  1  0
 61 60  1  0
 62 60  1  0
 63 60  1  0
 65 64  2  0
 65 66  1  0
 66 72  1  0
 67 72  1  0
 68 69  1  0
 68 67  1  0
 70 69  1  0
 70 77  1  0
 70 71  1  0
 72 71  1  0
 73 66  2  0
 74 75  2  0
 75 94  1  0
 76 75  1  0
 76 79  1  0
 77 78  1  0
 77 74  1  0
 78 76  2  0
 79 80  1  0
 80 81  2  0
 82 85  1  0
 82 81  1  0
 83 82  2  0
 84 83  1  0
 84 79  2  0
 85 86  1  0
 86 91  2  0
 86 87  1  0
 87 88  2  0
 88 89  1  0
 89 93  1  0
 90 89  2  0
 91 90  1  0
 92 91  1  0
 94 95  1  0
 95 98  1  0
 95 97  1  0
 96 94  2  0
 99 74  1  0
 99100  1  0
101 99  1  0
M  ISO  4  17 101  18 101  65 100  66 100
M  END
>  <TORSDO>  (39) 
F 25

>  <SCORE>  (39) 
-13.970

>  <name>  (39) 
38

>  <ligand_id>  (39) 
38

>  <original_smiles>  (39) 
[H]c1c([H])c([H])c2c(c1[H])C([H])([H])C([H])([H])C([H])([H])C2([H])N([H])C(=O)C1([H])N(C(=O)C([H])(N([H])C(=O)C([H])(N([H])C([H])([H])[H])C([H])([H])[H])C(C([H])([H])[H])(C([H])([H])[H])C([H])([H])[H])C([H])([H])c2c([H])c(OC([H])([H])C([H])([H])C([H])(C3([H])C([H])([H])C([H])(C(=O)N([H])[H])C([H])([N+]([H])([H])[H])C3([H])[H])C([H])(C([H])([H])C([H])([H])C(=O)N3C([H])([H])C([H])([H])C([H])([H])C([H])(n4nc(-c5c([H])c([H])c(Oc6c([H])c([H])c(F)c([H])c6F)c([H])c5[H])c(C(=O)N([H])[H])c4N([H])[H])C3([H])[H])[N+]([H])([H])[H])c([H])c([H])c2C1([H])[H]

>  <smiles>  (39) 
[H]c1c([H])c([H])c2c(c1[H])C([H])([H])C([H])([H])C([H])([H])C2([H])N([H])C(=O)C1([H])N(C(=O)C([H])(N([H])C(=O)C([H])(N([H])C([H])([H])[H])C([H])([H])[H])C(C([H])([H])[H])(C([H])([H])[H])C([H])([H])[H])C([H])([H])c2c([H])c(OC([H])([H])C([H])([H])C([H])(C3([H])C([H])([H])C([H])(C(=O)N([H])[H])C([H])([N+]([H])([H])[H])C3([H])[H])C([H])(C([H])([H])C([H])([H])C(=O)N3C([H])([H])C([H])([H])C([H])([H])C([H])(n4nc(-c5c([H])c([H])c(Oc6c([H])c([H])c(F)c([H])c6F)c([H])c5[H])c(C(=O)N([H])[H])c4N([H])[H])C3([H])[H])[N+]([H])([H])[H])c([H])c([H])c2C1([H])[H]

$$$$
39:0:0
     RDKit          3D

 88 95  0  0  1  0  0  0  0  0999 V2000
  -28.8050  -21.9050   20.6350 C   0  0  0  0  0  0  0  0  0  0  0  0
  -27.6940  -21.6700   21.1150 O   0  0  0  0  0  0  0  0  0  0  0  0
  -29.1750  -23.4870   20.3490 C   0  0  0  0  0  3  0  0  0  0  0  0
  -28.0460  -24.7310   20.3590 C   0  0  0  0  0  3  0  0  0  0  0  0
  -28.2980  -26.2600   20.2590 O   0  0  0  0  0  0  0  0  0  0  0  0
  -24.6400  -31.9040   23.2340 C   0  0  0  0  0  0  0  0  0  0  0  0
  -27.2170  -27.2100   20.2030 C   0  0  0  0  0  0  0  0  0  0  0  0
  -23.4290  -30.5090   21.6010 C   0  0  0  0  0  3  0  0  0  0  0  0
  -24.8750  -28.9350   20.1730 C   0  0  0  0  0  0  0  0  0  0  0  0
  -25.9820  -30.7790   21.4240 C   0  0  0  0  0  2  0  0  0  0  0  0
  -26.0550  -29.3910   20.7730 C   0  0  0  0  0  0  0  0  0  0  0  0
  -27.2270  -28.5450   20.7710 C   0  0  0  0  0  3  0  0  0  0  0  0
  -26.0080  -26.8520   19.5650 C   0  0  0  0  0  3  0  0  0  0  0  0
  -24.8620  -27.6770   19.5550 C   0  0  0  0  0  3  0  0  0  0  0  0
  -23.6450  -29.8290   20.2220 C   0  0  0  0  0  2  0  0  0  0  0  0
  -24.7030  -31.0860   22.1410 N   0  0  0  0  0  0  0  0  0  0  0  0
  -23.5560  -32.1920   23.7690 O   0  0  0  0  0  0  0  0  0  0  0  0
  -22.7540  -29.5030   22.5660 C   0  0  0  0  0  0  0  0  0  0  0  0
  -21.4270  -29.3300   22.4440 N   0  0  0  0  0  0  0  0  0  0  0  0
  -23.4290  -28.8770   23.3900 O   0  0  0  0  0  0  0  0  0  0  0  0
  -20.9440  -29.8860   21.7540 H   0  0  0  0  0  0  0  0  0  0  0  0
  -18.0450  -28.1260   22.9440 C   0  0  0  0  0  0  0  0  0  0  0  0
  -20.6040  -28.3950   23.2170 C   0  0  0  0  0  3  0  0  0  0  0  0
  -20.7080  -26.9600   22.6480 C   0  0  0  0  0  2  0  0  0  0  0  0
  -19.6100  -26.6290   21.6330 C   0  0  0  0  0  2  0  0  0  0  0  0
  -18.2250  -26.7740   22.2730 C   0  0  0  0  0  2  0  0  0  0  0  0
  -19.1610  -28.8920   23.3710 C   0  0  0  0  0  0  0  0  0  0  0  0
  -18.9390  -30.1560   23.9590 C   0  0  0  0  0  3  0  0  0  0  0  0
  -17.6330  -30.6570   24.1190 C   0  0  0  0  0  3  0  0  0  0  0  0
  -16.5310  -29.8870   23.7080 C   0  0  0  0  0  3  0  0  0  0  0  0
  -16.7360  -28.6210   23.1300 C   0  0  0  0  0  3  0  0  0  0  0  0
  -25.9220  -32.5360   23.8560 C   0  0  0  0  0  3  0  0  0  0  0  0
  -26.4400  -31.7620   25.1310 C   0  0  1  0  0  0  0  0  0  0  0  0
  -25.3480  -31.5200   26.2020 C   0  0  0  0  0  1  0  0  0  0  0  0
  -27.0220  -30.3850   24.7370 C   0  0  0  0  0  1  0  0  0  0  0  0
  -27.5970  -32.5520   25.7880 C   0  0  0  0  0  1  0  0  0  0  0  0
  -25.6110  -33.9330   24.1980 N   0  0  0  0  0  0  0  0  0  0  0  0
  -25.9190  -34.9940   23.4380 C   0  0  0  0  0  0  0  0  0  0  0  0
  -26.5600  -34.8980   22.3890 O   0  0  0  0  0  0  0  0  0  0  0  0
  -25.0390  -34.0830   25.0170 H   0  0  0  0  0  0  0  0  0  0  0  0
  -24.1630  -36.7750   23.1580 C   0  0  0  0  0  1  0  0  0  0  0  0
  -25.4390  -36.3780   23.9170 C   0  0  0  0  0  3  0  0  0  0  0  0
  -27.5970  -37.2770   24.6650 C   0  0  0  0  0  1  0  0  0  0  0  0
  -26.4580  -37.4390   23.7670 N   0  0  0  0  0  0  0  0  0  0  0  0
  -26.0510  -38.3550   23.9390 H   0  0  0  0  0  0  0  0  0  0  0  0
  -29.7790  -20.5990   20.3550 C   0  0  0  0  0  3  0  0  0  0  0  0
  -31.3800  -20.8610   22.4070 C   0  0  0  0  0  1  0  0  0  0  0  0
  -31.2150  -20.8570   20.8810 C   0  0  0  0  0  2  0  0  0  0  0  0
  -29.3190  -19.0050   20.6590 C   0  0  0  0  0  3  0  0  0  0  0  0
  -30.2820  -17.6560   20.3950 C   0  0  0  0  0  3  0  0  0  0  0  0
  -30.5540  -14.9530   20.3060 C   0  0  0  0  0  0  0  0  0  0  0  0
  -30.3580  -12.6360   19.3150 C   0  0  0  0  0  2  0  0  0  0  0  0
  -29.4020  -12.6200   18.1000 C   0  0  0  0  0  2  0  0  0  0  0  0
  -27.9500  -12.4140   18.5660 C   0  0  0  0  0  2  0  0  0  0  0  0
  -27.5700  -13.3320   19.7550 C   0  0  0  0  0  3  0  0  0  0  0  0
  -28.6460  -13.3220   20.8630 C   0  0  0  0  0  2  0  0  0  0  0  0
  -29.9170  -13.7180   20.2410 N   0  0  0  0  0  0  0  0  0  0  0  0
  -31.7380  -15.0040   19.9690 O   0  0  0  0  0  0  0  0  0  0  0  0
  -29.8380  -16.1540   20.5430 N   0  0  0  0  0  0  0  0  0  0  0  0
  -28.8700  -16.0120   20.7980 H   0  0  0  0  0  0  0  0  0  0  0  0
  -25.2050  -13.9040   20.5480 C   0  0  0  0  0  0  0  0  0  0  0  0
  -24.1450  -13.1240   20.9220 C   0  0  0  0  0  0  0  0  0  0  0  0
  -24.6070  -11.7730   20.8630 C   0  0  0  0  0  0  0  0  0  0  0  0
  -26.2420  -13.0290   20.2730 N   0  0  0  0  0  0  0  0  0  0  0  0
  -25.8920  -11.7410   20.5280 N   0  0  0  0  0  0  0  0  0  0  0  0
  -23.8820  -10.5080   21.0410 C   0  0  0  0  0  0  0  0  0  0  0  0
  -24.3100   -9.5340   21.9700 C   0  0  0  0  0  3  0  0  0  0  0  0
  -23.5810   -8.3350   22.1360 C   0  0  0  0  0  3  0  0  0  0  0  0
  -22.4130   -8.1040   21.3730 C   0  0  0  0  0  0  0  0  0  0  0  0
  -22.0050   -9.0670   20.4330 C   0  0  0  0  0  3  0  0  0  0  0  0
  -22.7340  -10.2560   20.2650 C   0  0  0  0  0  3  0  0  0  0  0  0
  -21.6550   -6.9610   21.4510 O   0  0  0  0  0  0  0  0  0  0  0  0
  -21.5740   -6.2300   22.6090 C   0  0  0  0  0  0  0  0  0  0  0  0
  -21.0970   -6.7910   23.8140 C   0  0  0  0  0  3  0  0  0  0  0  0
  -20.9630   -5.9840   24.9620 C   0  0  0  0  0  3  0  0  0  0  0  0
  -21.2970   -4.6180   24.9050 C   0  0  0  0  0  0  0  0  0  0  0  0
  -21.7670   -4.0570   23.7050 C   0  0  0  0  0  3  0  0  0  0  0  0
  -21.9020   -4.8600   22.5600 C   0  0  0  0  0  0  0  0  0  0  0  0
  -22.3340   -4.3080   21.4000 F   0  0  0  0  0  0  0  0  0  0  0  0
  -21.1630   -3.8410   26.0060 F   0  0  0  0  0  0  0  0  0  0  0  0
  -22.7540  -13.5990   21.2230 C   0  0  0  0  0  0  0  0  0  0  0  0
  -22.0340  -12.8890   22.0850 N   0  0  0  0  0  0  0  0  0  0  0  0
  -22.3120  -14.6360   20.7300 O   0  0  0  0  0  0  0  0  0  0  0  0
  -22.4030  -12.0490   22.5030 H   0  0  0  0  0  0  0  0  0  0  0  0
  -21.1010  -13.1910   22.3300 H   0  0  0  0  0  0  0  0  0  0  0  0
  -25.3710  -15.2780   20.3980 N   0  0  0  0  0  0  0  0  0  0  0  0
  -24.6080  -15.9300   20.5490 H   0  0  0  0  0  0  0  0  0  0  0  0
  -26.2170  -15.7230   20.0690 H   0  0  0  0  0  0  0  0  0  0  0  0
  1  2  2  0
  3  4  2  0
  3  1  1  0
  5  4  1  0
  6 17  2  0
  7  5  1  0
  7 12  1  0
  8 16  1  0
  8 18  1  0
  9 15  1  0
  9 11  1  0
 10 16  1  0
 11 10  1  0
 12 11  2  0
 13  7  2  0
 14 13  1  0
 14  9  2  0
 15  8  1  0
 16  6  1  0
 18 20  2  0
 19 18  1  0
 21 19  1  0
 22 31  2  0
 22 27  1  0
 23 19  1  0
 23 27  1  0
 24 23  1  0
 25 26  1  0
 25 24  1  0
 26 22  1  0
 27 28  2  0
 28 29  1  0
 30 29  2  0
 31 30  1  0
 32  6  1  0
 32 37  1  0
 32 33  1  0
 33 36  1  1
 33 34  1  0
 35 33  1  0
 37 40  1  0
 38 42  1  0
 38 37  1  0
 39 38  2  0
 42 41  1  0
 44 42  1  0
 44 45  1  0
 44 43  1  0
 46  1  1  0
 46 49  1  0
 46 48  1  0
 48 47  1  0
 50 59  1  0
 50 49  2  0
 51 59  1  0
 52 57  1  0
 53 54  1  0
 53 52  1  0
 55 54  1  0
 55 64  1  0
 55 56  1  0
 57 51  1  0
 57 56  1  0
 58 51  2  0
 59 60  1  0
 61 62  2  0
 62 81  1  0
 63 62  1  0
 63 66  1  0
 64 65  1  0
 64 61  1  0
 65 63  2  0
 66 67  1  0
 67 68  2  0
 69 72  1  0
 69 68  1  0
 70 69  2  0
 71 70  1  0
 71 66  2  0
 72 73  1  0
 73 74  1  0
 74 75  2  0
 76 75  1  0
 76 80  1  0
 77 76  2  0
 78 73  2  0
 78 77  1  0
 79 78  1  0
 81 82  1  0
 82 85  1  0
 82 84  1  0
 83 81  2  0
 86 61  1  0
 86 87  1  0
 88 86  1  0
M  ISO  4   4 101   5 101  51 100  59 100
M  END
>  <TORSDO>  (40) 
F 22

>  <SCORE>  (40) 
-13.052

>  <name>  (40) 
39

>  <ligand_id>  (40) 
39

>  <original_smiles>  (40) 
[H]c1c([H])c([H])c2c(c1[H])C([H])([H])C([H])([H])C([H])([H])C2([H])N([H])C(=O)C1([H])N(C(=O)C([H])(N([H])C(=O)C([H])(N([H])C([H])([H])[H])C([H])([H])[H])C(C([H])([H])[H])(C([H])([H])[H])C([H])([H])[H])C([H])([H])c2c([H])c(OC([H])([H])C([H])([H])C(=O)C([H])(C([H])([H])C([H])([H])[H])C([H])([H])C([H])([H])N([H])C(=O)N3C([H])([H])C([H])([H])C([H])([H])C([H])(n4nc(-c5c([H])c([H])c(Oc6c([H])c([H])c(F)c([H])c6F)c([H])c5[H])c(C(=O)N([H])[H])c4N([H])[H])C3([H])[H])c([H])c([H])c2C1([H])[H]

>  <smiles>  (40) 
[H]c1c([H])c([H])c2c(c1[H])C([H])([H])C([H])([H])C([H])([H])C2([H])N([H])C(=O)C1([H])N(C(=O)C([H])(N([H])C(=O)C([H])(N([H])C([H])([H])[H])C([H])([H])[H])C(C([H])([H])[H])(C([H])([H])[H])C([H])([H])[H])C([H])([H])c2c([H])c(OC([H])([H])C([H])([H])C(=O)C([H])(C([H])([H])C([H])([H])[H])C([H])([H])C([H])([H])N([H])C(=O)N3C([H])([H])C([H])([H])C([H])([H])C([H])(n4nc(-c5c([H])c([H])c(Oc6c([H])c([H])c(F)c([H])c6F)c([H])c5[H])c(C(=O)N([H])[H])c4N([H])[H])C3([H])[H])c([H])c([H])c2C1([H])[H]

$$$$
40:0:0
     RDKit          3D

 95103  0  0  1  0  0  0  0  0999 V2000
  -30.1500  -20.8450   19.0300 C   0  0  0  0  0  2  0  0  0  0  0  0
  -27.9360  -21.6350   19.9800 C   0  0  0  0  0  2  0  0  0  0  0  0
  -28.5960  -19.1040   20.0240 C   0  0  0  0  0  2  0  0  0  0  0  0
  -29.3520  -22.1530   19.6680 C   0  0  0  0  0  3  0  0  0  0  0  0
  -30.0880  -19.3160   19.7010 C   0  0  0  0  0  3  0  0  0  0  0  0
  -27.9570  -20.3030   20.7900 C   0  0  0  0  0  3  0  0  0  0  0  0
  -26.6020  -19.9550   21.2550 N   0  0  0  0  0  4  0  0  0  0  0  0
  -25.9800  -19.7750   20.4870 H   0  0  0  0  0  0  0  0  0  0  0  0
  -26.2180  -20.7040   21.8040 H   0  0  0  0  0  0  0  0  0  0  0  0
  -26.6330  -19.1400   21.8400 H   0  0  0  0  0  0  0  0  0  0  0  0
  -30.8240  -24.0800   18.7460 C   0  0  0  0  0  1  0  0  0  0  0  0
  -29.3570  -23.6820   18.9580 C   0  0  0  0  0  3  0  0  0  0  0  0
  -28.5440  -25.0240   19.5530 C   0  0  0  0  0  2  0  0  0  0  0  0
  -28.5450  -26.4650   18.9900 O   0  0  0  0  0  0  0  0  0  0  0  0
  -24.8300  -31.5560   22.8010 C   0  0  0  0  0  0  0  0  0  0  0  0
  -27.4320  -27.3540   19.1480 C   0  0  0  0  0  0  0  0  0  0  0  0
  -23.6020  -30.3040   21.0660 C   0  0  0  0  0  3  0  0  0  0  0  0
  -25.0350  -28.9590   19.4150 C   0  0  0  0  0  0  0  0  0  0  0  0
  -26.1290  -30.7040   20.8180 C   0  0  0  0  0  2  0  0  0  0  0  0
  -26.2230  -29.3980   20.0130 C   0  0  0  0  0  0  0  0  0  0  0  0
  -27.4240  -28.6150   19.8590 C   0  0  0  0  0  3  0  0  0  0  0  0
  -26.2160  -27.0030   18.5280 C   0  0  0  0  0  3  0  0  0  0  0  0
  -25.0410  -27.7750   18.6590 C   0  0  0  0  0  3  0  0  0  0  0  0
  -23.7780  -29.7900   19.6130 C   0  0  0  0  0  2  0  0  0  0  0  0
  -24.8750  -30.8700   21.6190 N   0  0  0  0  0  0  0  0  0  0  0  0
  -23.7620  -31.7320   23.4080 O   0  0  0  0  0  0  0  0  0  0  0  0
  -23.0120  -29.1680   21.9380 C   0  0  0  0  0  0  0  0  0  0  0  0
  -21.6800  -28.9830   21.8820 N   0  0  0  0  0  0  0  0  0  0  0  0
  -23.7500  -28.4570   22.6250 O   0  0  0  0  0  0  0  0  0  0  0  0
  -21.1380  -29.6120   21.3050 H   0  0  0  0  0  0  0  0  0  0  0  0
  -18.3540  -27.7140   22.5430 C   0  0  0  0  0  0  0  0  0  0  0  0
  -20.9300  -27.9370   22.5810 C   0  0  0  0  0  3  0  0  0  0  0  0
  -20.9520  -26.6100   21.7890 C   0  0  0  0  0  2  0  0  0  0  0  0
  -19.7490  -26.4430   20.8560 C   0  0  0  0  0  2  0  0  0  0  0  0
  -18.4420  -26.4850   21.6530 C   0  0  0  0  0  2  0  0  0  0  0  0
  -19.5200  -28.4040   22.9660 C   0  0  0  0  0  0  0  0  0  0  0  0
  -19.3800  -29.5600   23.7650 C   0  0  0  0  0  3  0  0  0  0  0  0
  -18.1060  -30.0250   24.1400 C   0  0  0  0  0  3  0  0  0  0  0  0
  -16.9550  -29.3310   23.7300 C   0  0  0  0  0  3  0  0  0  0  0  0
  -17.0800  -28.1750   22.9370 C   0  0  0  0  0  3  0  0  0  0  0  0
  -26.1150  -32.1690   23.4390 C   0  0  0  0  0  3  0  0  0  0  0  0
  -25.7730  -33.5150   23.9230 N   0  0  0  0  0  0  0  0  0  0  0  0
  -26.0670  -34.6550   23.2820 C   0  0  0  0  0  0  0  0  0  0  0  0
  -26.7200  -34.6830   22.2350 O   0  0  0  0  0  0  0  0  0  0  0  0
  -25.1880  -33.5660   24.7430 H   0  0  0  0  0  0  0  0  0  0  0  0
  -24.2940  -36.4380   23.1570 C   0  0  0  0  0  1  0  0  0  0  0  0
  -25.5580  -35.9740   23.8980 C   0  0  0  0  0  3  0  0  0  0  0  0
  -27.6790  -36.8230   24.8020 C   0  0  0  0  0  1  0  0  0  0  0  0
  -26.5650  -37.0580   23.8860 N   0  0  0  0  0  0  0  0  0  0  0  0
  -26.1390  -37.9490   24.1290 H   0  0  0  0  0  0  0  0  0  0  0  0
  -26.7020  -31.2940   24.6150 C   0  0  1  0  0  0  0  0  0  0  0  0
  -25.6610  -30.9250   25.6970 C   0  0  0  0  0  1  0  0  0  0  0  0
  -27.3030  -29.9750   24.0750 C   0  0  0  0  0  1  0  0  0  0  0  0
  -27.8590  -32.0550   25.3050 C   0  0  0  0  0  1  0  0  0  0  0  0
  -30.7710  -17.9370   18.9950 C   0  0  0  0  0  0  0  0  0  0  0  0
  -31.4220  -15.2630   19.3990 C   0  0  0  0  0  0  0  0  0  0  0  0
  -31.1360  -12.9230   18.5020 C   0  0  0  0  0  2  0  0  0  0  0  0
  -30.0550  -12.9120   17.3980 C   0  0  0  0  0  2  0  0  0  0  0  0
  -28.6570  -12.7170   18.0130 C   0  0  0  0  0  2  0  0  0  0  0  0
  -28.4190  -13.6260   19.2490 C   0  0  0  0  0  3  0  0  0  0  0  0
  -29.6150  -13.6290   20.2270 C   0  0  0  0  0  2  0  0  0  0  0  0
  -30.8000  -14.0180   19.4550 N   0  0  0  0  0  0  0  0  0  0  0  0
  -32.5770  -15.2820   18.9630 O   0  0  0  0  0  0  0  0  0  0  0  0
  -30.6900  -16.4690   19.6030 N   0  0  0  0  0  4  0  0  0  0  0  0
  -29.7980  -16.2830   20.0350 H   0  0  0  0  0  0  0  0  0  0  0  0
  -26.2230  -14.2060   20.4280 C   0  0  0  0  0  0  0  0  0  0  0  0
  -25.1820  -13.4350   20.8700 C   0  0  0  0  0  0  0  0  0  0  0  0
  -25.5500  -12.0810   20.6000 C   0  0  0  0  0  0  0  0  0  0  0  0
  -27.1580  -13.3220   19.9170 N   0  0  0  0  0  0  0  0  0  0  0  0
  -26.7730  -12.0300   20.0840 N   0  0  0  0  0  0  0  0  0  0  0  0
  -24.7810  -10.8370   20.7510 C   0  0  0  0  0  0  0  0  0  0  0  0
  -25.1890   -9.8200   21.6420 C   0  0  0  0  0  3  0  0  0  0  0  0
  -24.4230   -8.6430   21.7840 C   0  0  0  0  0  3  0  0  0  0  0  0
  -23.2330   -8.4750   21.0360 C   0  0  0  0  0  0  0  0  0  0  0  0
  -22.8430   -9.4810   20.1340 C   0  0  0  0  0  3  0  0  0  0  0  0
  -23.6100  -10.6490   19.9890 C   0  0  0  0  0  3  0  0  0  0  0  0
  -22.4390   -7.3550   21.0910 O   0  0  0  0  0  0  0  0  0  0  0  0
  -22.2090   -6.6910   22.2690 C   0  0  0  0  0  0  0  0  0  0  0  0
  -21.5980   -7.3240   23.3730 C   0  0  0  0  0  3  0  0  0  0  0  0
  -21.3170   -6.5860   24.5400 C   0  0  0  0  0  3  0  0  0  0  0  0
  -21.6390   -5.2160   24.6020 C   0  0  0  0  0  0  0  0  0  0  0  0
  -22.2430   -4.5840   23.5020 C   0  0  0  0  0  3  0  0  0  0  0  0
  -22.5250   -5.3190   22.3370 C   0  0  0  0  0  0  0  0  0  0  0  0
  -23.0880   -4.7000   21.2710 F   0  0  0  0  0  0  0  0  0  0  0  0
  -21.3640   -4.5050   25.7210 F   0  0  0  0  0  0  0  0  0  0  0  0
  -23.8770  -13.9330   21.4180 C   0  0  0  0  0  0  0  0  0  0  0  0
  -23.2570  -13.1720   22.3110 N   0  0  0  0  0  0  0  0  0  0  0  0
  -23.4240  -15.0300   21.0920 O   0  0  0  0  0  0  0  0  0  0  0  0
  -23.6410  -12.2850   22.6000 H   0  0  0  0  0  0  0  0  0  0  0  0
  -22.3830  -13.4840   22.7130 H   0  0  0  0  0  0  0  0  0  0  0  0
  -26.4400  -15.5800   20.3890 N   0  0  0  0  0  0  0  0  0  0  0  0
  -25.7250  -16.2400   20.6720 H   0  0  0  0  0  0  0  0  0  0  0  0
  -27.2240  -16.0210   19.9280 H   0  0  0  0  0  0  0  0  0  0  0  0
  -32.3910  -19.3150   17.4120 C   0  0  0  0  0  1  0  0  0  0  0  0
  -32.2020  -18.1900   18.4400 C   0  0  0  0  0  2  0  0  0  0  0  0
  1  4  1  0
  1  5  1  0
  2  6  1  0
  3  6  1  0
  4 12  1  0
  4  2  1  0
  5 55  1  0
  5  3  1  0
  6  7  1  0
  7  9  1  0
  7 10  1  0
  8  7  1  0
 12 11  1  0
 12 13  1  0
 14 16  1  0
 14 13  1  0
 15 26  2  0
 16 21  1  0
 17 25  1  0
 17 27  1  0
 18 24  1  0
 18 20  1  0
 19 25  1  0
 20 19  1  0
 21 20  2  0
 22 23  1  0
 22 16  2  0
 23 18  2  0
 24 17  1  0
 25 15  1  0
 27 29  2  0
 28 27  1  0
 30 28  1  0
 31 40  2  0
 31 36  1  0
 32 28  1  0
 32 36  1  0
 33 32  1  0
 34 35  1  0
 34 33  1  0
 35 31  1  0
 36 37  2  0
 37 38  1  0
 39 38  2  0
 40 39  1  0
 41 15  1  0
 41 42  1  0
 41 51  1  0
 42 45  1  0
 43 47  1  0
 43 42  1  0
 44 43  2  0
 47 46  1  0
 49 47  1  0
 49 50  1  0
 49 48  1  0
 51 54  1  1
 51 52  1  0
 53 51  1  0
 55 64  2  0
 56 62  1  0
 56 64  1  0
 57 62  1  0
 58 59  1  0
 58 57  1  0
 60 59  1  0
 60 69  1  0
 60 61  1  0
 62 61  1  0
 63 56  2  0
 64 65  1  0
 66 67  2  0
 67 86  1  0
 68 71  1  0
 68 67  1  0
 69 70  1  0
 69 66  1  0
 70 68  2  0
 71 72  1  0
 72 73  2  0
 74 77  1  0
 74 73  1  0
 75 74  2  0
 76 75  1  0
 76 71  2  0
 77 78  1  0
 78 83  2  0
 78 79  1  0
 79 80  2  0
 80 81  1  0
 81 85  1  0
 82 81  2  0
 83 82  1  0
 84 83  1  0
 86 87  1  0
 87 89  1  0
 87 90  1  0
 88 86  2  0
 91 66  1  0
 91 92  1  0
 93 91  1  0
 94 95  1  0
 95 55  1  0
M  ISO  4  13 101  14 101  56 100  64 100
M  END
>  <TORSDO>  (41) 
F 21

>  <SCORE>  (41) 
-7.133

>  <name>  (41) 
40

>  <ligand_id>  (41) 
40

>  <original_smiles>  (41) 
[H]c1c([H])c([H])c2c(c1[H])C([H])([H])C([H])([H])C([H])([H])C2([H])N([H])C(=O)C1([H])N(C(=O)C([H])(N([H])C(=O)C([H])(N([H])C([H])([H])[H])C([H])([H])[H])C(C([H])([H])[H])(C([H])([H])[H])C([H])([H])[H])C([H])([H])c2c([H])c(OC([H])([H])C([H])(C([H])([H])[H])C3([H])C([H])([H])C([H])(C([H])(N([H])C(=O)N4C([H])([H])C([H])([H])C([H])([H])C([H])(n5nc(-c6c([H])c([H])c(Oc7c([H])c([H])c(F)c([H])c7F)c([H])c6[H])c(C(=O)N([H])[H])c5N([H])[H])C4([H])[H])C([H])([H])C([H])([H])[H])C([H])([H])C([H])([N+]([H])([H])[H])C3([H])[H])c([H])c([H])c2C1([H])[H]

>  <smiles>  (41) 
[H]c1c([H])c([H])c2c(c1[H])C([H])([H])C([H])([H])C([H])([H])C2([H])N([H])C(=O)C1([H])N(C(=O)C([H])(N([H])C(=O)C([H])(N([H])C([H])([H])[H])C([H])([H])[H])C(C([H])([H])[H])(C([H])([H])[H])C([H])([H])[H])C([H])([H])c2c([H])c(OC([H])([H])C([H])(C([H])([H])[H])C3([H])C([H])([H])C([H])(C([H])(N([H])C(=O)N4C([H])([H])C([H])([H])C([H])([H])C([H])(n5nc(-c6c([H])c([H])c(Oc7c([H])c([H])c(F)c([H])c7F)c([H])c6[H])c(C(=O)N([H])[H])c5N([H])[H])C4([H])[H])C([H])([H])C([H])([H])[H])C([H])([H])C([H])([N+]([H])([H])[H])C3([H])[H])c([H])c([H])c2C1([H])[H]

$$$$
41:0:0
     RDKit          3D

 89 97  0  0  1  0  0  0  0  0999 V2000
  -27.6320  -23.4630   18.5530 C   0  0  0  0  0  1  0  0  0  0  0  0
  -29.9870  -23.9130   19.1860 C   0  0  0  0  0  1  0  0  0  0  0  0
  -28.5950  -23.5950   19.7550 C   0  0  2  0  0  0  0  0  0  0  0  0
  -28.7080  -22.1250   20.5190 C   0  0  0  0  0  3  0  0  0  0  0  0
  -29.2870  -20.8060   19.7420 C   0  0  0  0  0  3  0  0  0  0  0  0
  -28.8600  -16.8410   19.9610 C   0  0  0  0  0  3  0  0  0  0  0  0
  -30.8700  -17.3710   21.1080 C   0  0  0  0  0  3  0  0  0  0  0  0
  -28.5650  -18.2480   19.8470 C   0  0  0  0  0  3  0  0  0  0  0  0
  -30.5850  -18.7850   20.9720 C   0  0  0  0  0  3  0  0  0  0  0  0
  -30.0510  -16.3220   20.5680 C   0  0  0  0  0  0  0  0  0  0  0  0
  -29.4390  -19.2880   20.2850 C   0  0  0  0  0  0  0  0  0  0  0  0
  -30.6200  -14.8480   20.3880 C   0  0  0  0  0  0  0  0  0  0  0  0
  -30.3710  -12.5330   19.4480 C   0  0  0  0  0  2  0  0  0  0  0  0
  -29.4690  -12.5190   18.1970 C   0  0  0  0  0  2  0  0  0  0  0  0
  -27.9980  -12.3230   18.6060 C   0  0  0  0  0  2  0  0  0  0  0  0
  -27.5830  -13.2590   19.7730 C   0  0  0  0  0  3  0  0  0  0  0  0
  -28.6250  -13.3110   20.9100 C   0  0  0  0  0  2  0  0  0  0  0  0
  -29.9250  -13.6500   20.3260 N   0  0  0  0  0  0  0  0  0  0  0  0
  -31.8260  -14.8050   20.1200 O   0  0  0  0  0  0  0  0  0  0  0  0
  -25.2040  -13.8520   20.5000 C   0  0  0  0  0  0  0  0  0  0  0  0
  -24.1390  -13.0820   20.8760 C   0  0  0  0  0  0  0  0  0  0  0  0
  -24.6060  -11.7320   20.8630 C   0  0  0  0  0  0  0  0  0  0  0  0
  -26.2480  -12.9710   20.2750 N   0  0  0  0  0  0  0  0  0  0  0  0
  -25.8970  -11.6930   20.5600 N   0  0  0  0  0  0  0  0  0  0  0  0
  -23.8810  -10.4720   21.0530 C   0  0  0  0  0  0  0  0  0  0  0  0
  -24.3140   -9.5060   21.9860 C   0  0  0  0  0  3  0  0  0  0  0  0
  -23.5890   -8.3070   22.1660 C   0  0  0  0  0  3  0  0  0  0  0  0
  -22.4150   -8.0680   21.4120 C   0  0  0  0  0  0  0  0  0  0  0  0
  -22.0000   -9.0230   20.4670 C   0  0  0  0  0  3  0  0  0  0  0  0
  -22.7270  -10.2120   20.2850 C   0  0  0  0  0  3  0  0  0  0  0  0
  -21.6580   -6.9250   21.5030 O   0  0  0  0  0  0  0  0  0  0  0  0
  -21.6210   -6.1740   22.6510 C   0  0  0  0  0  0  0  0  0  0  0  0
  -21.2170   -6.7200   23.8890 C   0  0  0  0  0  3  0  0  0  0  0  0
  -21.1310   -5.8960   25.0280 C   0  0  0  0  0  3  0  0  0  0  0  0
  -21.4380   -4.5270   24.9300 C   0  0  0  0  0  0  0  0  0  0  0  0
  -21.8330   -3.9780   23.6980 C   0  0  0  0  0  3  0  0  0  0  0  0
  -21.9220   -4.8000   22.5610 C   0  0  0  0  0  0  0  0  0  0  0  0
  -22.2840   -4.2620   21.3710 F   0  0  0  0  0  0  0  0  0  0  0  0
  -21.3440   -3.7310   26.0220 F   0  0  0  0  0  0  0  0  0  0  0  0
  -22.7380  -13.5620   21.1250 C   0  0  0  0  0  0  0  0  0  0  0  0
  -21.9970  -12.8730   21.9870 N   0  0  0  0  0  0  0  0  0  0  0  0
  -22.3080  -14.5830   20.5900 O   0  0  0  0  0  0  0  0  0  0  0  0
  -22.3590  -12.0560   22.4560 H   0  0  0  0  0  0  0  0  0  0  0  0
  -21.0540  -13.1750   22.1870 H   0  0  0  0  0  0  0  0  0  0  0  0
  -25.3600  -15.2200   20.3020 N   0  0  0  0  0  0  0  0  0  0  0  0
  -24.5700  -15.8540   20.3800 H   0  0  0  0  0  0  0  0  0  0  0  0
  -26.1820  -15.6520   19.9010 H   0  0  0  0  0  0  0  0  0  0  0  0
  -28.0860  -24.9060   20.6040 C   0  0  0  0  0  2  0  0  0  0  0  0
  -28.2770  -26.3480   20.1680 O   0  0  0  0  0  0  0  0  0  0  0  0
  -24.6150  -31.8710   23.2420 C   0  0  0  0  0  0  0  0  0  0  0  0
  -27.1840  -27.2530   20.1730 C   0  0  0  0  0  0  0  0  0  0  0  0
  -23.4020  -30.4810   21.6040 C   0  0  0  0  0  3  0  0  0  0  0  0
  -24.8410  -28.9210   20.1650 C   0  0  0  0  0  0  0  0  0  0  0  0
  -25.9440  -30.7770   21.4140 C   0  0  0  0  0  2  0  0  0  0  0  0
  -26.0170  -29.3920   20.7640 C   0  0  0  0  0  0  0  0  0  0  0  0
  -27.1950  -28.5720   20.7530 C   0  0  0  0  0  3  0  0  0  0  0  0
  -25.9880  -26.8560   19.5480 C   0  0  0  0  0  3  0  0  0  0  0  0
  -24.8310  -27.6630   19.5450 C   0  0  0  0  0  3  0  0  0  0  0  0
  -23.6120  -29.8130   20.2190 C   0  0  0  0  0  2  0  0  0  0  0  0
  -24.6740  -31.0610   22.1440 N   0  0  0  0  0  0  0  0  0  0  0  0
  -23.5340  -32.1500   23.7820 O   0  0  0  0  0  0  0  0  0  0  0  0
  -22.7400  -29.4610   22.5640 C   0  0  0  0  0  0  0  0  0  0  0  0
  -21.4120  -29.2850   22.4440 N   0  0  0  0  0  0  0  0  0  0  0  0
  -23.4210  -28.8340   23.3780 O   0  0  0  0  0  0  0  0  0  0  0  0
  -20.9220  -29.8460   21.7610 H   0  0  0  0  0  0  0  0  0  0  0  0
  -18.0390  -28.0770   22.9500 C   0  0  0  0  0  0  0  0  0  0  0  0
  -20.5960  -28.3450   23.2160 C   0  0  0  0  0  3  0  0  0  0  0  0
  -20.7010  -26.9140   22.6420 C   0  0  0  0  0  2  0  0  0  0  0  0
  -19.5990  -26.5850   21.6310 C   0  0  0  0  0  2  0  0  0  0  0  0
  -18.2180  -26.7270   22.2750 C   0  0  0  0  0  2  0  0  0  0  0  0
  -19.1540  -28.8420   23.3780 C   0  0  0  0  0  0  0  0  0  0  0  0
  -18.9340  -30.1050   23.9690 C   0  0  0  0  0  3  0  0  0  0  0  0
  -17.6270  -30.6030   24.1350 C   0  0  0  0  0  3  0  0  0  0  0  0
  -16.5250  -29.8360   23.7200 C   0  0  0  0  0  3  0  0  0  0  0  0
  -16.7320  -28.5730   23.1360 C   0  0  0  0  0  3  0  0  0  0  0  0
  -25.9020  -32.5000   23.8600 C   0  0  0  0  0  3  0  0  0  0  0  0
  -26.4120  -31.7300   25.1400 C   0  0  1  0  0  0  0  0  0  0  0  0
  -25.3190  -31.5070   26.2090 C   0  0  0  0  0  1  0  0  0  0  0  0
  -26.9850  -30.3480   24.7530 C   0  0  0  0  0  1  0  0  0  0  0  0
  -27.5690  -32.5210   25.7980 C   0  0  0  0  0  1  0  0  0  0  0  0
  -25.5990  -33.9000   24.1890 N   0  0  0  0  0  0  0  0  0  0  0  0
  -25.9320  -34.9530   23.4290 C   0  0  0  0  0  0  0  0  0  0  0  0
  -26.5980  -34.8450   22.3960 O   0  0  0  0  0  0  0  0  0  0  0  0
  -25.0130  -34.0550   24.9960 H   0  0  0  0  0  0  0  0  0  0  0  0
  -24.2120  -36.7540   23.0770 C   0  0  0  0  0  1  0  0  0  0  0  0
  -25.4520  -36.3420   23.8890 C   0  0  0  0  0  3  0  0  0  0  0  0
  -27.5930  -37.2140   24.7200 C   0  0  0  0  0  1  0  0  0  0  0  0
  -26.4890  -37.3920   23.7780 N   0  0  0  0  0  0  0  0  0  0  0  0
  -26.0890  -38.3130   23.9290 H   0  0  0  0  0  0  0  0  0  0  0  0
  3  1  1  6
  2  3  1  0
  3  4  1  0
  3 48  1  0
  5 11  1  0
  5  4  2  0
  6 10  1  0
  8  6  2  0
  8 11  1  0
  9  7  1  0
 10  7  2  0
 11  9  2  0
 12 10  1  0
 13 18  1  0
 14 15  1  0
 14 13  1  0
 16 15  1  0
 16 23  1  0
 16 17  1  0
 18 12  1  0
 18 17  1  0
 19 12  2  0
 20 21  2  0
 21 40  1  0
 22 21  1  0
 22 25  1  0
 23 20  1  0
 23 24  1  0
 24 22  2  0
 25 26  1  0
 26 27  2  0
 28 31  1  0
 28 27  1  0
 29 28  2  0
 30 29  1  0
 30 25  2  0
 31 32  1  0
 32 33  1  0
 33 34  2  0
 35 34  1  0
 35 39  1  0
 36 35  2  0
 37 32  2  0
 37 36  1  0
 38 37  1  0
 40 41  1  0
 41 44  1  0
 41 43  1  0
 42 40  2  0
 45 46  1  0
 45 20  1  0
 47 45  1  0
 49 51  1  0
 49 48  1  0
 50 61  2  0
 51 56  1  0
 52 60  1  0
 52 62  1  0
 53 59  1  0
 53 55  1  0
 54 60  1  0
 55 54  1  0
 56 55  2  0
 57 51  2  0
 58 57  1  0
 58 53  2  0
 59 52  1  0
 60 50  1  0
 62 64  2  0
 63 62  1  0
 65 63  1  0
 66 75  2  0
 66 71  1  0
 67 63  1  0
 67 71  1  0
 68 67  1  0
 69 70  1  0
 69 68  1  0
 70 66  1  0
 71 72  2  0
 72 73  1  0
 74 73  2  0
 75 74  1  0
 76 50  1  0
 76 81  1  0
 76 77  1  0
 77 80  1  1
 77 78  1  0
 79 77  1  0
 81 84  1  0
 82 86  1  0
 82 81  1  0
 83 82  2  0
 86 85  1  0
 88 86  1  0
 88 89  1  0
 88 87  1  0
M  ISO  4  10 100  12 100  48 101  49 101
M  END
>  <TORSDO>  (42) 
F 20

>  <SCORE>  (42) 
-13.909

>  <name>  (42) 
41

>  <ligand_id>  (42) 
41

>  <original_smiles>  (42) 
[H]c1c([H])c([H])c2c(c1[H])C([H])([H])C([H])([H])C([H])([H])C2([H])N([H])C(=O)C1([H])N(C(=O)C([H])(N([H])C(=O)C([H])(N([H])C([H])([H])[H])C([H])([H])[H])C(C([H])([H])[H])(C([H])([H])[H])C([H])([H])[H])C([H])([H])c2c([H])c(OC([H])([H])C(C([H])([H])[H])(C([H])([H])[H])C([H])([H])C([H])([H])c3c([H])c([H])c(C(=O)N4C([H])([H])C([H])([H])C([H])([H])C([H])(n5nc(-c6c([H])c([H])c(Oc7c([H])c([H])c(F)c([H])c7F)c([H])c6[H])c(C(=O)N([H])[H])c5N([H])[H])C4([H])[H])c([H])c3[H])c([H])c([H])c2C1([H])[H]

>  <smiles>  (42) 
[H]c1c([H])c([H])c2c(c1[H])C([H])([H])C([H])([H])C([H])([H])C2([H])N([H])C(=O)C1([H])N(C(=O)C([H])(N([H])C(=O)C([H])(N([H])C([H])([H])[H])C([H])([H])[H])C(C([H])([H])[H])(C([H])([H])[H])C([H])([H])[H])C([H])([H])c2c([H])c(OC([H])([H])C(C([H])([H])[H])(C([H])([H])[H])C([H])([H])C([H])([H])c3c([H])c([H])c(C(=O)N4C([H])([H])C([H])([H])C([H])([H])C([H])(n5nc(-c6c([H])c([H])c(Oc7c([H])c([H])c(F)c([H])c7F)c([H])c6[H])c(C(=O)N([H])[H])c5N([H])[H])C4([H])[H])c([H])c3[H])c([H])c([H])c2C1([H])[H]

$$$$
42:0:0
     RDKit          3D

 92 99  0  0  1  0  0  0  0  0999 V2000
  -28.8420  -22.4400   19.5940 C   0  0  0  0  0  3  0  0  0  0  0  0
  -27.4960  -21.9750   19.2060 N   0  0  0  0  0  4  0  0  0  0  0  0
  -27.0090  -21.5400   19.9670 H   0  0  0  0  0  0  0  0  0  0  0  0
  -27.5950  -21.3070   18.4610 H   0  0  0  0  0  0  0  0  0  0  0  0
  -26.9340  -22.7210   18.8390 H   0  0  0  0  0  0  0  0  0  0  0  0
  -29.7100  -21.1980   20.1970 C   0  0  0  0  0  0  0  0  0  0  0  0
  -30.9290  -21.3400   20.3230 O   0  0  0  0  0  0  0  0  0  0  0  0
  -29.1500  -19.7830   20.6890 C   0  0  0  0  0  2  0  0  0  0  0  0
  -29.4780  -18.4240   19.8830 C   0  0  0  0  0  2  0  0  0  0  0  0
  -30.6120  -14.7360   20.3870 C   0  0  0  0  0  0  0  0  0  0  0  0
  -30.3730  -12.4560   19.3850 C   0  0  0  0  0  2  0  0  0  0  0  0
  -29.4630  -12.5490   18.1420 C   0  0  0  0  0  2  0  0  0  0  0  0
  -27.9790  -12.4120   18.5420 C   0  0  0  0  0  2  0  0  0  0  0  0
  -27.5990  -13.2910   19.7660 C   0  0  0  0  0  3  0  0  0  0  0  0
  -28.6490  -13.2080   20.8940 C   0  0  0  0  0  2  0  0  0  0  0  0
  -29.9490  -13.5350   20.3000 N   0  0  0  0  0  0  0  0  0  0  0  0
  -31.8240  -14.7710   20.1590 O   0  0  0  0  0  0  0  0  0  0  0  0
  -30.2760  -17.2150   20.5440 C   0  0  0  0  0  0  0  0  0  0  0  0
  -29.8550  -15.9000   20.4390 N   0  0  0  0  0  0  0  0  0  0  0  0
  -31.3300  -17.5080   21.1160 O   0  0  0  0  0  0  0  0  0  0  0  0
  -28.8730  -15.7730   20.2620 H   0  0  0  0  0  0  0  0  0  0  0  0
  -25.2140  -13.8900   20.4970 C   0  0  0  0  0  0  0  0  0  0  0  0
  -24.1430  -13.1150   20.8640 C   0  0  0  0  0  0  0  0  0  0  0  0
  -24.6070  -11.7650   20.8430 C   0  0  0  0  0  0  0  0  0  0  0  0
  -26.2540  -13.0060   20.2610 N   0  0  0  0  0  0  0  0  0  0  0  0
  -25.8990  -11.7250   20.5370 N   0  0  0  0  0  0  0  0  0  0  0  0
  -23.8770  -10.5020   21.0380 C   0  0  0  0  0  0  0  0  0  0  0  0
  -24.3040   -9.5390   21.9790 C   0  0  0  0  0  3  0  0  0  0  0  0
  -23.5720   -8.3460   22.1590 C   0  0  0  0  0  3  0  0  0  0  0  0
  -22.4000   -8.1080   21.4000 C   0  0  0  0  0  0  0  0  0  0  0  0
  -21.9930   -9.0620   20.4500 C   0  0  0  0  0  3  0  0  0  0  0  0
  -22.7270  -10.2470   20.2660 C   0  0  0  0  0  3  0  0  0  0  0  0
  -21.6420   -6.9660   21.4870 O   0  0  0  0  0  0  0  0  0  0  0  0
  -21.5930   -6.2250   22.6410 C   0  0  0  0  0  0  0  0  0  0  0  0
  -21.1640   -6.7810   23.8670 C   0  0  0  0  0  3  0  0  0  0  0  0
  -21.0540   -5.9650   25.0100 C   0  0  0  0  0  3  0  0  0  0  0  0
  -21.3660   -4.5940   24.9310 C   0  0  0  0  0  0  0  0  0  0  0  0
  -21.7900   -4.0390   23.7100 C   0  0  0  0  0  3  0  0  0  0  0  0
  -21.8980   -4.8520   22.5690 C   0  0  0  0  0  0  0  0  0  0  0  0
  -22.2860   -4.3060   21.3900 F   0  0  0  0  0  0  0  0  0  0  0  0
  -21.2540   -3.8070   26.0270 F   0  0  0  0  0  0  0  0  0  0  0  0
  -22.7460  -13.5990   21.1130 C   0  0  0  0  0  0  0  0  0  0  0  0
  -22.0090  -12.9110   21.9790 N   0  0  0  0  0  0  0  0  0  0  0  0
  -22.3150  -14.6240   20.5830 O   0  0  0  0  0  0  0  0  0  0  0  0
  -22.3750  -12.0880   22.4320 H   0  0  0  0  0  0  0  0  0  0  0  0
  -21.0690  -13.2120   22.1880 H   0  0  0  0  0  0  0  0  0  0  0  0
  -25.3770  -15.2580   20.3180 N   0  0  0  0  0  0  0  0  0  0  0  0
  -24.6020  -15.9030   20.4080 H   0  0  0  0  0  0  0  0  0  0  0  0
  -26.2180  -15.6930   19.9620 H   0  0  0  0  0  0  0  0  0  0  0  0
  -28.8420  -23.8620   20.3710 C   0  0  0  0  0  3  0  0  0  0  0  0
  -28.5770  -25.2160   19.5330 C   0  0  0  0  0  3  0  0  0  0  0  0
  -28.3910  -26.5250   20.2160 O   0  0  0  0  0  0  0  0  0  0  0  0
  -24.6070  -31.8860   23.2230 C   0  0  0  0  0  0  0  0  0  0  0  0
  -27.2260  -27.3200   20.1420 C   0  0  0  0  0  0  0  0  0  0  0  0
  -23.3930  -30.4780   21.5930 C   0  0  0  0  0  3  0  0  0  0  0  0
  -24.8380  -28.9190   20.1580 C   0  0  0  0  0  0  0  0  0  0  0  0
  -25.9250  -30.7970   21.3810 C   0  0  0  0  0  2  0  0  0  0  0  0
  -26.0040  -29.4100   20.7510 C   0  0  0  0  0  0  0  0  0  0  0  0
  -27.1910  -28.6180   20.7410 C   0  0  0  0  0  3  0  0  0  0  0  0
  -26.0280  -26.8790   19.5270 C   0  0  0  0  0  3  0  0  0  0  0  0
  -24.8520  -27.6600   19.5400 C   0  0  0  0  0  3  0  0  0  0  0  0
  -23.5950  -29.7820   20.2180 C   0  0  0  0  0  2  0  0  0  0  0  0
  -24.6610  -31.0760   22.1210 N   0  0  0  0  0  0  0  0  0  0  0  0
  -23.5270  -32.1640   23.7660 O   0  0  0  0  0  0  0  0  0  0  0  0
  -22.7410  -29.4670   22.5690 C   0  0  0  0  0  0  0  0  0  0  0  0
  -21.4160  -29.2850   22.4480 N   0  0  0  0  0  0  0  0  0  0  0  0
  -23.4220  -28.8470   23.3890 O   0  0  0  0  0  0  0  0  0  0  0  0
  -20.9290  -29.8430   21.7630 H   0  0  0  0  0  0  0  0  0  0  0  0
  -18.0440  -28.0840   22.9680 C   0  0  0  0  0  0  0  0  0  0  0  0
  -20.6000  -28.3490   23.2260 C   0  0  0  0  0  3  0  0  0  0  0  0
  -20.7040  -26.9190   22.6550 C   0  0  0  0  0  2  0  0  0  0  0  0
  -19.5990  -26.5910   21.6440 C   0  0  0  0  0  2  0  0  0  0  0  0
  -18.2200  -26.7340   22.2950 C   0  0  0  0  0  2  0  0  0  0  0  0
  -19.1630  -28.8490   23.3900 C   0  0  0  0  0  0  0  0  0  0  0  0
  -18.9450  -30.1100   23.9860 C   0  0  0  0  0  3  0  0  0  0  0  0
  -17.6400  -30.6130   24.1540 C   0  0  0  0  0  3  0  0  0  0  0  0
  -16.5360  -29.8460   23.7460 C   0  0  0  0  0  3  0  0  0  0  0  0
  -16.7380  -28.5820   23.1660 C   0  0  0  0  0  3  0  0  0  0  0  0
  -25.8930  -32.5190   23.8420 C   0  0  0  0  0  3  0  0  0  0  0  0
  -26.4230  -31.7440   25.1140 C   0  0  1  0  0  0  0  0  0  0  0  0
  -25.3430  -31.5060   26.1930 C   0  0  0  0  0  1  0  0  0  0  0  0
  -26.9990  -30.3660   24.7120 C   0  0  0  0  0  1  0  0  0  0  0  0
  -27.5800  -32.5370   25.7680 C   0  0  0  0  0  1  0  0  0  0  0  0
  -25.5820  -33.9160   24.1790 N   0  0  0  0  0  0  0  0  0  0  0  0
  -25.9090  -34.9740   23.4250 C   0  0  0  0  0  0  0  0  0  0  0  0
  -26.5750  -34.8770   22.3900 O   0  0  0  0  0  0  0  0  0  0  0  0
  -24.9980  -34.0630   24.9900 H   0  0  0  0  0  0  0  0  0  0  0  0
  -24.1780  -36.7650   23.0850 C   0  0  0  0  0  1  0  0  0  0  0  0
  -25.4250  -36.3620   23.8880 C   0  0  0  0  0  3  0  0  0  0  0  0
  -27.5710  -37.2440   24.7030 C   0  0  0  0  0  1  0  0  0  0  0  0
  -26.4600  -37.4150   23.7690 N   0  0  0  0  0  0  0  0  0  0  0  0
  -26.0610  -38.3390   23.9170 H   0  0  0  0  0  0  0  0  0  0  0  0
  1  6  1  0
  1 50  1  0
  2  1  1  0
  2  3  1  0
  4  2  1  0
  5  2  1  0
  6  7  2  0
  6  8  1  0
  9 18  1  0
  9  8  1  0
 10 19  1  0
 11 16  1  0
 12 13  1  0
 12 11  1  0
 14 13  1  0
 14 25  1  0
 14 15  1  0
 16 10  1  0
 16 15  1  0
 17 10  2  0
 18 20  2  0
 19 18  1  0
 21 19  1  0
 22 23  2  0
 23 42  1  0
 24 23  1  0
 24 27  1  0
 25 22  1  0
 25 26  1  0
 26 24  2  0
 27 28  1  0
 28 29  2  0
 30 33  1  0
 30 29  1  0
 31 30  2  0
 32 31  1  0
 32 27  2  0
 33 34  1  0
 34 35  1  0
 35 36  2  0
 37 36  1  0
 37 41  1  0
 38 37  2  0
 39 34  2  0
 39 38  1  0
 40 39  1  0
 42 43  1  0
 43 46  1  0
 43 45  1  0
 44 42  2  0
 47 48  1  0
 47 22  1  0
 49 47  1  0
 51 52  1  0
 51 50  2  0
 53 64  2  0
 54 52  1  0
 54 59  1  0
 55 63  1  0
 55 65  1  0
 56 62  1  0
 56 58  1  0
 57 63  1  0
 58 57  1  0
 59 58  2  0
 60 61  1  0
 60 54  2  0
 61 56  2  0
 62 55  1  0
 63 53  1  0
 65 67  2  0
 66 65  1  0
 68 66  1  0
 69 78  2  0
 69 74  1  0
 70 66  1  0
 70 74  1  0
 71 70  1  0
 72 73  1  0
 72 71  1  0
 73 69  1  0
 74 75  2  0
 75 76  1  0
 77 76  2  0
 78 77  1  0
 79 53  1  0
 79 84  1  0
 79 80  1  0
 80 83  1  1
 80 81  1  0
 82 80  1  0
 84 87  1  0
 85 89  1  0
 85 84  1  0
 86 85  2  0
 89 88  1  0
 91 89  1  0
 91 92  1  0
 91 90  1  0
M  ISO  4  10 100  19 100  51 101  52 101
M  END
>  <TORSDO>  (43) 
F 22

>  <SCORE>  (43) 
-13.200

>  <name>  (43) 
42

>  <ligand_id>  (43) 
42

>  <original_smiles>  (43) 
[H]c1c([H])c([H])c2c(c1[H])C([H])([H])C([H])([H])C([H])([H])C2([H])N([H])C(=O)C1([H])N(C(=O)C([H])(N([H])C(=O)C([H])(N([H])C([H])([H])[H])C([H])([H])[H])C(C([H])([H])[H])(C([H])([H])[H])C([H])([H])[H])C([H])([H])c2c([H])c(OC([H])([H])C([H])([H])C([H])(C(=O)C([H])([H])C([H])([H])C(=O)N([H])C(=O)N3C([H])([H])C([H])([H])C([H])([H])C([H])(n4nc(-c5c([H])c([H])c(Oc6c([H])c([H])c(F)c([H])c6F)c([H])c5[H])c(C(=O)N([H])[H])c4N([H])[H])C3([H])[H])[N+]([H])([H])[H])c([H])c([H])c2C1([H])[H]

>  <smiles>  (43) 
[H]c1c([H])c([H])c2c(c1[H])C([H])([H])C([H])([H])C([H])([H])C2([H])N([H])C(=O)C1([H])N(C(=O)C([H])(N([H])C(=O)C([H])(N([H])C([H])([H])[H])C([H])([H])[H])C(C([H])([H])[H])(C([H])([H])[H])C([H])([H])[H])C([H])([H])c2c([H])c(OC([H])([H])C([H])([H])C([H])(C(=O)C([H])([H])C([H])([H])C(=O)N([H])C(=O)N3C([H])([H])C([H])([H])C([H])([H])C([H])(n4nc(-c5c([H])c([H])c(Oc6c([H])c([H])c(F)c([H])c6F)c([H])c5[H])c(C(=O)N([H])[H])c4N([H])[H])C3([H])[H])[N+]([H])([H])[H])c([H])c([H])c2C1([H])[H]

$$$$
43:0:0
     RDKit          3D

 91 99  0  0  1  0  0  0  0  0999 V2000
  -29.4650  -21.1700   20.5930 C   0  0  0  0  0  3  0  0  0  0  0  0
  -30.1650  -22.7000   18.6350 C   0  0  0  0  0  1  0  0  0  0  0  0
  -29.1410  -22.4990   19.7650 C   0  0  0  0  0  3  0  0  0  0  0  0
  -28.9860  -23.8710   20.5750 C   0  0  0  0  0  3  0  0  0  0  0  0
  -28.1240  -25.0220   19.8980 C   0  0  0  0  0  3  0  0  0  0  0  0
  -28.2300  -26.4260   20.3640 O   0  0  0  0  0  0  0  0  0  0  0  0
  -24.4980  -31.8540   23.2880 C   0  0  0  0  0  0  0  0  0  0  0  0
  -27.1150  -27.2770   20.2680 C   0  0  0  0  0  0  0  0  0  0  0  0
  -23.2990  -30.4470   21.6530 C   0  0  0  0  0  3  0  0  0  0  0  0
  -24.7540  -28.8950   20.2370 C   0  0  0  0  0  0  0  0  0  0  0  0
  -25.8400  -30.7610   21.4800 C   0  0  0  0  0  2  0  0  0  0  0  0
  -25.9190  -29.3800   20.8440 C   0  0  0  0  0  0  0  0  0  0  0  0
  -27.1000  -28.5800   20.8570 C   0  0  0  0  0  3  0  0  0  0  0  0
  -25.9330  -26.8630   19.6080 C   0  0  0  0  0  3  0  0  0  0  0  0
  -24.7630  -27.6420   19.6110 C   0  0  0  0  0  3  0  0  0  0  0  0
  -23.5170  -29.7670   20.2760 C   0  0  0  0  0  2  0  0  0  0  0  0
  -24.5650  -31.0380   22.1960 N   0  0  0  0  0  0  0  0  0  0  0  0
  -23.4120  -32.1370   23.8160 O   0  0  0  0  0  0  0  0  0  0  0  0
  -22.6350  -29.4330   22.6150 C   0  0  0  0  0  0  0  0  0  0  0  0
  -21.3210  -29.2100   22.4440 N   0  0  0  0  0  0  0  0  0  0  0  0
  -23.3010  -28.8510   23.4740 O   0  0  0  0  0  0  0  0  0  0  0  0
  -20.8420  -29.7330   21.7240 H   0  0  0  0  0  0  0  0  0  0  0  0
  -17.9710  -27.8970   22.8240 C   0  0  0  0  0  0  0  0  0  0  0  0
  -20.5010  -28.2720   23.2120 C   0  0  0  0  0  3  0  0  0  0  0  0
  -20.6890  -26.8240   22.7020 C   0  0  0  0  0  2  0  0  0  0  0  0
  -19.6530  -26.4170   21.6480 C   0  0  0  0  0  2  0  0  0  0  0  0
  -18.2360  -26.5300   22.2160 C   0  0  0  0  0  2  0  0  0  0  0  0
  -19.0360  -28.7210   23.2770 C   0  0  0  0  0  0  0  0  0  0  0  0
  -18.7370  -29.9960   23.8040 C   0  0  0  0  0  3  0  0  0  0  0  0
  -17.4070  -30.4500   23.8830 C   0  0  0  0  0  3  0  0  0  0  0  0
  -16.3560  -29.6240   23.4460 C   0  0  0  0  0  3  0  0  0  0  0  0
  -16.6390  -28.3490   22.9230 C   0  0  0  0  0  3  0  0  0  0  0  0
  -25.7790  -32.4890   23.9100 C   0  0  0  0  0  3  0  0  0  0  0  0
  -25.4630  -33.8870   24.2420 N   0  0  0  0  0  0  0  0  0  0  0  0
  -25.7790  -34.9410   23.4760 C   0  0  0  0  0  0  0  0  0  0  0  0
  -26.4360  -34.8390   22.4360 O   0  0  0  0  0  0  0  0  0  0  0  0
  -24.8770  -34.0380   25.0480 H   0  0  0  0  0  0  0  0  0  0  0  0
  -24.0300  -36.7180   23.1480 C   0  0  0  0  0  1  0  0  0  0  0  0
  -25.2890  -36.3260   23.9370 C   0  0  0  0  0  3  0  0  0  0  0  0
  -27.4300  -37.2320   24.7270 C   0  0  0  0  0  1  0  0  0  0  0  0
  -26.3110  -37.3870   23.8020 N   0  0  0  0  0  0  0  0  0  0  0  0
  -25.8990  -38.3050   23.9520 H   0  0  0  0  0  0  0  0  0  0  0  0
  -26.2970  -31.7190   25.1860 C   0  0  1  0  0  0  0  0  0  0  0  0
  -25.1970  -31.4520   26.2400 C   0  0  0  0  0  1  0  0  0  0  0  0
  -26.9100  -30.3550   24.7910 C   0  0  0  0  0  1  0  0  0  0  0  0
  -27.4260  -32.5300   25.8650 C   0  0  0  0  0  1  0  0  0  0  0  0
  -29.8640  -19.8300   19.8070 C   0  0  0  0  0  3  0  0  0  0  0  0
  -30.9590  -18.4900   21.7260 C   0  0  0  0  0  0  0  0  0  0  0  0
  -32.2970  -17.8550   21.4080 C   0  0  0  0  0  2  0  0  0  0  0  0
  -32.1480  -17.3860   19.9550 C   0  0  0  0  0  2  0  0  0  0  0  0
  -30.0010  -18.4080   20.5410 C   0  0  0  0  0  3  0  0  0  0  0  0
  -30.6330  -17.2100   19.6880 C   0  0  0  0  0  3  0  0  0  0  0  0
  -30.6800  -18.9940   22.8160 O   0  0  0  0  0  0  0  0  0  0  0  0
  -30.8960  -14.6410   19.6450 C   0  0  0  0  0  0  0  0  0  0  0  0
  -30.5710  -12.3390   18.7730 C   0  0  0  0  0  2  0  0  0  0  0  0
  -29.5380  -12.3780   17.6260 C   0  0  0  0  0  2  0  0  0  0  0  0
  -28.1100  -12.2400   18.1850 C   0  0  0  0  0  2  0  0  0  0  0  0
  -27.8410  -13.1940   19.3810 C   0  0  0  0  0  3  0  0  0  0  0  0
  -28.9890  -13.1530   20.4160 C   0  0  0  0  0  2  0  0  0  0  0  0
  -30.2410  -13.4390   19.7060 N   0  0  0  0  0  0  0  0  0  0  0  0
  -32.0100  -14.7210   19.1220 O   0  0  0  0  0  0  0  0  0  0  0  0
  -30.2150  -15.7830   19.9940 N   0  0  0  0  0  0  0  0  0  0  0  0
  -29.2940  -15.6430   20.3820 H   0  0  0  0  0  0  0  0  0  0  0  0
  -25.5640  -13.8350   20.3790 C   0  0  0  0  0  0  0  0  0  0  0  0
  -24.5130  -13.0810   20.8230 C   0  0  0  0  0  0  0  0  0  0  0  0
  -24.9150  -11.7170   20.6800 C   0  0  0  0  0  0  0  0  0  0  0  0
  -26.5420  -12.9320   19.9940 N   0  0  0  0  0  0  0  0  0  0  0  0
  -26.1640  -11.6500   20.2350 N   0  0  0  0  0  0  0  0  0  0  0  0
  -24.1620  -10.4730   20.8870 C   0  0  0  0  0  0  0  0  0  0  0  0
  -24.5860   -9.4970   21.8170 C   0  0  0  0  0  3  0  0  0  0  0  0
  -23.8350   -8.3190   22.0110 C   0  0  0  0  0  3  0  0  0  0  0  0
  -22.6450   -8.1070   21.2760 C   0  0  0  0  0  0  0  0  0  0  0  0
  -22.2390   -9.0690   20.3350 C   0  0  0  0  0  3  0  0  0  0  0  0
  -22.9910  -10.2400   20.1390 C   0  0  0  0  0  3  0  0  0  0  0  0
  -21.8640   -6.9800   21.3790 O   0  0  0  0  0  0  0  0  0  0  0  0
  -21.7260   -6.3070   22.5670 C   0  0  0  0  0  0  0  0  0  0  0  0
  -21.2170   -6.9340   23.7250 C   0  0  0  0  0  3  0  0  0  0  0  0
  -21.0270   -6.1880   24.9050 C   0  0  0  0  0  3  0  0  0  0  0  0
  -21.3360   -4.8140   24.9270 C   0  0  0  0  0  0  0  0  0  0  0  0
  -21.8390   -4.1860   23.7740 C   0  0  0  0  0  3  0  0  0  0  0  0
  -22.0300   -4.9310   22.5960 C   0  0  0  0  0  0  0  0  0  0  0  0
  -22.4940   -4.3160   21.4810 F   0  0  0  0  0  0  0  0  0  0  0  0
  -21.1470   -4.0940   26.0580 F   0  0  0  0  0  0  0  0  0  0  0  0
  -23.1710  -13.5910   21.2640 C   0  0  0  0  0  0  0  0  0  0  0  0
  -22.5170  -12.8860   22.1800 N   0  0  0  0  0  0  0  0  0  0  0  0
  -22.7170  -14.6500   20.8320 O   0  0  0  0  0  0  0  0  0  0  0  0
  -22.8990  -12.0290   22.5500 H   0  0  0  0  0  0  0  0  0  0  0  0
  -21.6210  -13.2100   22.5170 H   0  0  0  0  0  0  0  0  0  0  0  0
  -25.7640  -15.2060   20.2480 N   0  0  0  0  0  0  0  0  0  0  0  0
  -25.0370  -15.8790   20.4660 H   0  0  0  0  0  0  0  0  0  0  0  0
  -26.5810  -15.6300   19.8290 H   0  0  0  0  0  0  0  0  0  0  0  0
  3  2  1  0
  3  4  1  0
  3  1  1  0
  5  6  1  0
  5  4  2  0
  7 18  2  0
  8  6  1  0
  8 13  1  0
  9 17  1  0
  9 19  1  0
 10 16  1  0
 10 12  1  0
 11 17  1  0
 12 13  2  0
 12 11  1  0
 14 15  1  0
 14  8  2  0
 15 10  2  0
 16  9  1  0
 17  7  1  0
 19 21  2  0
 20 19  1  0
 22 20  1  0
 23 32  2  0
 23 28  1  0
 24 20  1  0
 24 28  1  0
 25 24  1  0
 26 27  1  0
 26 25  1  0
 27 23  1  0
 28 29  2  0
 29 30  1  0
 31 30  2  0
 32 31  1  0
 33  7  1  0
 33 34  1  0
 33 43  1  0
 34 37  1  0
 35 39  1  0
 35 34  1  0
 36 35  2  0
 39 38  1  0
 41 39  1  0
 41 42  1  0
 41 40  1  0
 43 46  1  1
 43 44  1  0
 45 43  1  0
 47  1  2  0
 48 53  2  0
 49 48  1  0
 50 49  1  0
 51 47  1  0
 51 48  1  0
 52 50  1  0
 52 62  1  0
 52 51  1  0
 54 60  1  0
 54 62  1  0
 55 60  1  0
 56 57  1  0
 56 55  1  0
 58 57  1  0
 58 67  1  0
 58 59  1  0
 60 59  1  0
 61 54  2  0
 62 63  1  0
 64 65  2  0
 65 84  1  0
 66 65  1  0
 66 69  1  0
 67 68  1  0
 67 64  1  0
 68 66  2  0
 69 70  1  0
 70 71  2  0
 72 75  1  0
 72 71  1  0
 73 72  2  0
 74 73  1  0
 74 69  2  0
 75 76  1  0
 76 81  2  0
 76 77  1  0
 77 78  2  0
 78 79  1  0
 79 83  1  0
 80 79  2  0
 81 80  1  0
 82 81  1  0
 84 85  1  0
 85 88  1  0
 85 87  1  0
 86 84  2  0
 89 64  1  0
 89 90  1  0
 91 89  1  0
M  ISO  4   5 101   6 101  54 100  62 100
M  END
>  <TORSDO>  (44) 
F 21

>  <SCORE>  (44) 
-12.538

>  <name>  (44) 
43

>  <ligand_id>  (44) 
43

>  <original_smiles>  (44) 
[H]c1c([H])c([H])c2c(c1[H])C([H])([H])C([H])([H])C([H])([H])C2([H])N([H])C(=O)C1([H])N(C(=O)C([H])(N([H])C(=O)C([H])(N([H])C([H])([H])[H])C([H])([H])[H])C(C([H])([H])[H])(C([H])([H])[H])C([H])([H])[H])C([H])([H])c2c([H])c(OC([H])([H])C([H])([H])C([H])(C([H])([H])[H])C([H])([H])C([H])([H])C3([H])C(=O)C([H])([H])C([H])([H])C3([H])N([H])C(=O)N3C([H])([H])C([H])([H])C([H])([H])C([H])(n4nc(-c5c([H])c([H])c(Oc6c([H])c([H])c(F)c([H])c6F)c([H])c5[H])c(C(=O)N([H])[H])c4N([H])[H])C3([H])[H])c([H])c([H])c2C1([H])[H]

>  <smiles>  (44) 
[H]c1c([H])c([H])c2c(c1[H])C([H])([H])C([H])([H])C([H])([H])C2([H])N([H])C(=O)C1([H])N(C(=O)C([H])(N([H])C(=O)C([H])(N([H])C([H])([H])[H])C([H])([H])[H])C(C([H])([H])[H])(C([H])([H])[H])C([H])([H])[H])C([H])([H])c2c([H])c(OC([H])([H])C([H])([H])C([H])(C([H])([H])[H])C([H])([H])C([H])([H])C3([H])C(=O)C([H])([H])C([H])([H])C3([H])N([H])C(=O)N3C([H])([H])C([H])([H])C([H])([H])C([H])(n4nc(-c5c([H])c([H])c(Oc6c([H])c([H])c(F)c([H])c6F)c([H])c5[H])c(C(=O)N([H])[H])c4N([H])[H])C3([H])[H])c([H])c([H])c2C1([H])[H]

$$$$
44:0:0
     RDKit          3D

 95102  0  0  1  0  0  0  0  0999 V2000
  -29.6560  -20.1130   20.3440 C   0  0  0  0  0  3  0  0  0  0  0  0
  -31.0750  -20.4450   20.1130 N   0  0  0  0  0  4  0  0  0  0  0  0
  -31.2890  -20.3300   19.1380 H   0  0  0  0  0  0  0  0  0  0  0  0
  -31.6830  -19.8360   20.6340 H   0  0  0  0  0  0  0  0  0  0  0  0
  -31.2800  -21.3920   20.3800 H   0  0  0  0  0  0  0  0  0  0  0  0
  -29.5320  -18.5470   19.9320 C   0  0  0  0  0  0  0  0  0  0  0  0
  -29.2450  -18.2500   18.7700 O   0  0  0  0  0  0  0  0  0  0  0  0
  -29.8540  -17.3480   20.9740 C   0  0  0  0  0  0  0  0  0  0  0  0
  -30.7460  -14.9030   20.2670 C   0  0  0  0  0  0  0  0  0  0  0  0
  -30.7020  -12.5840   19.3300 C   0  0  0  0  0  2  0  0  0  0  0  0
  -29.7340  -12.5580   18.1250 C   0  0  0  0  0  2  0  0  0  0  0  0
  -28.2790  -12.3390   18.5910 C   0  0  0  0  0  2  0  0  0  0  0  0
  -27.8830  -13.2670   19.7690 C   0  0  0  0  0  3  0  0  0  0  0  0
  -28.9580  -13.2310   20.8750 C   0  0  0  0  0  2  0  0  0  0  0  0
  -30.2290  -13.6330   20.2540 N   0  0  0  0  0  0  0  0  0  0  0  0
  -31.9170  -15.1260   19.9400 O   0  0  0  0  0  0  0  0  0  0  0  0
  -29.8300  -15.9000   20.5000 N   0  0  0  0  0  4  0  0  0  0  0  0
  -28.9020  -15.5110   20.5390 H   0  0  0  0  0  0  0  0  0  0  0  0
  -25.5010  -13.8330   20.5570 C   0  0  0  0  0  0  0  0  0  0  0  0
  -24.4490  -13.0430   20.9380 C   0  0  0  0  0  0  0  0  0  0  0  0
  -24.9240  -11.6980   20.8640 C   0  0  0  0  0  0  0  0  0  0  0  0
  -26.5480  -12.9670   20.2770 N   0  0  0  0  0  0  0  0  0  0  0  0
  -26.2070  -11.6770   20.5230 N   0  0  0  0  0  0  0  0  0  0  0  0
  -24.2160  -10.4230   21.0460 C   0  0  0  0  0  0  0  0  0  0  0  0
  -24.5860   -9.5100   22.0580 C   0  0  0  0  0  3  0  0  0  0  0  0
  -23.8790   -8.2990   22.2220 C   0  0  0  0  0  3  0  0  0  0  0  0
  -22.7890   -7.9930   21.3720 C   0  0  0  0  0  0  0  0  0  0  0  0
  -22.4390   -8.8960   20.3520 C   0  0  0  0  0  3  0  0  0  0  0  0
  -23.1480  -10.0980   20.1880 C   0  0  0  0  0  3  0  0  0  0  0  0
  -22.0620   -6.8300   21.4400 O   0  0  0  0  0  0  0  0  0  0  0  0
  -21.7960   -6.2170   22.6380 C   0  0  0  0  0  0  0  0  0  0  0  0
  -21.0500   -6.8580   23.6500 C   0  0  0  0  0  3  0  0  0  0  0  0
  -20.7410   -6.1690   24.8390 C   0  0  0  0  0  3  0  0  0  0  0  0
  -21.1660   -4.8390   25.0150 C   0  0  0  0  0  0  0  0  0  0  0  0
  -21.9050   -4.1970   24.0060 C   0  0  0  0  0  3  0  0  0  0  0  0
  -22.2160   -4.8830   22.8190 C   0  0  0  0  0  0  0  0  0  0  0  0
  -22.9100   -4.2540   21.8390 F   0  0  0  0  0  0  0  0  0  0  0  0
  -20.8630   -4.1730   26.1540 F   0  0  0  0  0  0  0  0  0  0  0  0
  -23.0550  -13.5000   21.2560 C   0  0  0  0  0  0  0  0  0  0  0  0
  -22.3760  -12.8030   22.1620 N   0  0  0  0  0  0  0  0  0  0  0  0
  -22.5740  -14.5060   20.7370 O   0  0  0  0  0  0  0  0  0  0  0  0
  -22.7800  -11.9850   22.5940 H   0  0  0  0  0  0  0  0  0  0  0  0
  -21.4420  -13.0880   22.4260 H   0  0  0  0  0  0  0  0  0  0  0  0
  -25.6420  -15.2090   20.4050 N   0  0  0  0  0  0  0  0  0  0  0  0
  -24.8610  -15.8370   20.5560 H   0  0  0  0  0  0  0  0  0  0  0  0
  -26.4350  -15.6680   19.9760 H   0  0  0  0  0  0  0  0  0  0  0  0
  -30.9460  -17.5520   22.0720 C   0  0  0  0  0  2  0  0  0  0  0  0
  -32.0630  -18.9560   23.8800 C   0  0  0  0  0  1  0  0  0  0  0  0
  -30.0240  -19.8910   22.7750 C   0  0  0  0  0  1  0  0  0  0  0  0
  -31.2640  -18.9970   22.5680 C   0  0  0  0  0  3  0  0  0  0  0  0
  -28.7040  -21.2140   19.6370 C   0  0  0  0  0  2  0  0  0  0  0  0
  -29.0960  -22.7850   19.7220 C   0  0  0  0  0  2  0  0  0  0  0  0
  -28.0010  -23.9600   19.5510 C   0  0  0  0  0  2  0  0  0  0  0  0
  -28.4120  -25.3640   18.8880 C   0  0  0  0  0  2  0  0  0  0  0  0
  -28.2570  -26.6740   19.5540 O   0  0  0  0  0  0  0  0  0  0  0  0
  -24.5640  -31.7170   23.0900 C   0  0  0  0  0  0  0  0  0  0  0  0
  -27.0960  -27.4600   19.5600 C   0  0  0  0  0  0  0  0  0  0  0  0
  -23.3070  -30.4550   21.3720 C   0  0  0  0  0  3  0  0  0  0  0  0
  -24.7130  -29.0330   19.7660 C   0  0  0  0  0  0  0  0  0  0  0  0
  -25.8330  -30.8010   21.1360 C   0  0  0  0  0  2  0  0  0  0  0  0
  -25.8930  -29.4830   20.3700 C   0  0  0  0  0  0  0  0  0  0  0  0
  -27.0780  -28.7040   20.2660 C   0  0  0  0  0  3  0  0  0  0  0  0
  -25.8970  -27.0560   18.9330 C   0  0  0  0  0  3  0  0  0  0  0  0
  -24.7170  -27.8260   19.0380 C   0  0  0  0  0  3  0  0  0  0  0  0
  -23.4720  -29.8860   19.9360 C   0  0  0  0  0  2  0  0  0  0  0  0
  -24.5890  -31.0070   21.9230 N   0  0  0  0  0  0  0  0  0  0  0  0
  -23.5000  -31.9440   23.6800 O   0  0  0  0  0  0  0  0  0  0  0  0
  -22.6780  -29.3650   22.2680 C   0  0  0  0  0  0  0  0  0  0  0  0
  -21.3580  -29.1590   22.1290 N   0  0  0  0  0  0  0  0  0  0  0  0
  -23.3780  -28.7110   23.0490 O   0  0  0  0  0  0  0  0  0  0  0  0
  -20.8510  -29.7370   21.4730 H   0  0  0  0  0  0  0  0  0  0  0  0
  -18.0170  -27.8460   22.5610 C   0  0  0  0  0  0  0  0  0  0  0  0
  -20.5700  -28.1480   22.8350 C   0  0  0  0  0  3  0  0  0  0  0  0
  -20.7020  -26.7660   22.1560 C   0  0  0  0  0  2  0  0  0  0  0  0
  -19.6010  -26.4900   21.1280 C   0  0  0  0  0  2  0  0  0  0  0  0
  -18.2220  -26.5560   21.7860 C   0  0  0  0  0  2  0  0  0  0  0  0
  -19.1200  -28.6040   23.0370 C   0  0  0  0  0  0  0  0  0  0  0  0
  -18.8730  -29.8140   23.7200 C   0  0  0  0  0  3  0  0  0  0  0  0
  -17.5570  -30.2680   23.9310 C   0  0  0  0  0  3  0  0  0  0  0  0
  -16.4690  -29.5060   23.4690 C   0  0  0  0  0  3  0  0  0  0  0  0
  -16.7010  -28.2960   22.7930 C   0  0  0  0  0  3  0  0  0  0  0  0
  -25.8690  -32.2940   23.7240 C   0  0  0  0  0  3  0  0  0  0  0  0
  -26.4480  -31.3930   24.8850 C   0  0  1  0  0  0  0  0  0  0  0  0
  -25.4000  -31.0130   25.9550 C   0  0  0  0  0  1  0  0  0  0  0  0
  -27.0340  -30.0800   24.3120 C   0  0  0  0  0  1  0  0  0  0  0  0
  -27.6150  -32.1270   25.5860 C   0  0  0  0  0  1  0  0  0  0  0  0
  -25.5640  -33.6450   24.2190 N   0  0  0  0  0  0  0  0  0  0  0  0
  -25.8920  -34.7790   23.5850 C   0  0  0  0  0  0  0  0  0  0  0  0
  -26.5510  -34.7930   22.5420 O   0  0  0  0  0  0  0  0  0  0  0  0
  -24.9700  -33.7080   25.0330 H   0  0  0  0  0  0  0  0  0  0  0  0
  -24.2130  -36.6420   23.4080 C   0  0  0  0  0  1  0  0  0  0  0  0
  -25.4130  -36.1040   24.2030 C   0  0  0  0  0  3  0  0  0  0  0  0
  -27.5220  -36.8250   25.2360 C   0  0  0  0  0  1  0  0  0  0  0  0
  -26.4710  -37.1370   24.2710 N   0  0  0  0  0  0  0  0  0  0  0  0
  -26.0760  -38.0430   24.5090 H   0  0  0  0  0  0  0  0  0  0  0  0
  1 51  1  0
  2  1  1  0
  2  5  1  0
  2  4  1  0
  3  2  1  0
  6  1  1  0
  6  8  1  0
  7  6  2  0
  8 47  1  0
  9 17  1  0
 10 15  1  0
 11 12  1  0
 11 10  1  0
 13 12  1  0
 13 22  1  0
 13 14  1  0
 15  9  1  0
 15 14  1  0
 16  9  2  0
 17 18  1  0
 17  8  2  0
 19 20  2  0
 20 39  1  0
 21 20  1  0
 21 24  1  0
 22 23  1  0
 22 19  1  0
 23 21  2  0
 24 25  1  0
 25 26  2  0
 27 30  1  0
 27 26  1  0
 28 27  2  0
 29 28  1  0
 29 24  2  0
 30 31  1  0
 31 36  2  0
 31 32  1  0
 32 33  2  0
 33 34  1  0
 34 38  1  0
 35 34  2  0
 36 35  1  0
 37 36  1  0
 39 40  1  0
 40 43  1  0
 40 42  1  0
 41 39  2  0
 44 45  1  0
 44 19  1  0
 46 44  1  0
 47 50  1  0
 50 49  1  0
 50 48  1  0
 51 52  1  0
 53 52  1  0
 54 53  1  0
 54 55  1  0
 55 57  1  0
 56 67  2  0
 57 62  1  0
 58 66  1  0
 58 68  1  0
 59 65  1  0
 59 61  1  0
 60 66  1  0
 61 60  1  0
 62 61  2  0
 63 64  1  0
 63 57  2  0
 64 59  2  0
 65 58  1  0
 66 56  1  0
 68 70  2  0
 69 68  1  0
 71 69  1  0
 72 81  2  0
 72 77  1  0
 73 69  1  0
 73 77  1  0
 74 73  1  0
 75 76  1  0
 75 74  1  0
 76 72  1  0
 77 78  2  0
 78 79  1  0
 80 79  2  0
 81 80  1  0
 82 56  1  0
 82 87  1  0
 82 83  1  0
 83 86  1  1
 83 84  1  0
 85 83  1  0
 87 90  1  0
 88 92  1  0
 88 87  1  0
 89 88  2  0
 92 91  1  0
 92 94  1  0
 94 95  1  0
 94 93  1  0
M  ISO  4   9 100  17 100  54 101  55 101
M  END
>  <TORSDO>  (45) 
F 25

>  <SCORE>  (45) 
-9.545

>  <name>  (45) 
44

>  <ligand_id>  (45) 
44

>  <original_smiles>  (45) 
[H]c1c([H])c([H])c2c(c1[H])C([H])([H])C([H])([H])C([H])([H])C2([H])N([H])C(=O)C1([H])N(C(=O)C([H])(N([H])C(=O)C([H])(N([H])C([H])([H])[H])C([H])([H])[H])C(C([H])([H])[H])(C([H])([H])[H])C([H])([H])[H])C([H])([H])c2c([H])c(OC([H])([H])C([H])([H])C([H])([H])C([H])([H])C([H])(C(=O)C([H])(N([H])C(=O)N3C([H])([H])C([H])([H])C([H])([H])C([H])(n4nc(-c5c([H])c([H])c(Oc6c([H])c([H])c(F)c([H])c6F)c([H])c5[H])c(C(=O)N([H])[H])c4N([H])[H])C3([H])[H])C([H])([H])C([H])(C([H])([H])[H])C([H])([H])[H])[N+]([H])([H])[H])c([H])c([H])c2C1([H])[H]

>  <smiles>  (45) 
[H]c1c([H])c([H])c2c(c1[H])C([H])([H])C([H])([H])C([H])([H])C2([H])N([H])C(=O)C1([H])N(C(=O)C([H])(N([H])C(=O)C([H])(N([H])C([H])([H])[H])C([H])([H])[H])C(C([H])([H])[H])(C([H])([H])[H])C([H])([H])[H])C([H])([H])c2c([H])c(OC([H])([H])C([H])([H])C([H])([H])C([H])([H])C([H])(C(=O)C([H])(N([H])C(=O)N3C([H])([H])C([H])([H])C([H])([H])C([H])(n4nc(-c5c([H])c([H])c(Oc6c([H])c([H])c(F)c([H])c6F)c([H])c5[H])c(C(=O)N([H])[H])c4N([H])[H])C3([H])[H])C([H])([H])C([H])(C([H])([H])[H])C([H])([H])[H])[N+]([H])([H])[H])c([H])c([H])c2C1([H])[H]

$$$$
45:0:0
     RDKit          3D

 95102  0  0  1  0  0  0  0  0999 V2000
  -29.4240  -20.4190   19.7540 C   0  0  0  0  0  2  0  0  0  0  0  0
  -28.7700  -21.7330   19.4200 N   0  0  0  0  0  4  0  0  0  0  0  0
  -27.7980  -21.5790   19.2070 H   0  0  0  0  0  0  0  0  0  0  0  0
  -29.2020  -22.0340   18.5600 H   0  0  0  0  0  0  0  0  0  0  0  0
  -28.9060  -22.8870   20.3630 C   0  0  0  0  0  2  0  0  0  0  0  0
  -28.4980  -24.2720   19.7330 C   0  0  0  0  0  3  0  0  0  0  0  0
  -28.4800  -25.4770   20.7290 C   0  0  0  0  0  3  0  0  0  0  0  0
  -28.4410  -26.7930   20.1320 O   0  0  0  0  0  0  0  0  0  0  0  0
  -24.5840  -31.9470   23.2630 C   0  0  0  0  0  0  0  0  0  0  0  0
  -27.2560  -27.5010   20.1850 C   0  0  0  0  0  0  0  0  0  0  0  0
  -23.3860  -30.5390   21.6180 C   0  0  0  0  0  3  0  0  0  0  0  0
  -24.8500  -29.0000   20.1990 C   0  0  0  0  0  0  0  0  0  0  0  0
  -25.9100  -30.9060   21.4230 C   0  0  0  0  0  2  0  0  0  0  0  0
  -26.0040  -29.5310   20.7850 C   0  0  0  0  0  0  0  0  0  0  0  0
  -27.2120  -28.7920   20.7670 C   0  0  0  0  0  3  0  0  0  0  0  0
  -26.0830  -26.9860   19.5960 C   0  0  0  0  0  3  0  0  0  0  0  0
  -24.8840  -27.7260   19.6010 C   0  0  0  0  0  3  0  0  0  0  0  0
  -23.6020  -29.8530   20.2410 C   0  0  0  0  0  2  0  0  0  0  0  0
  -24.6450  -31.1470   22.1600 N   0  0  0  0  0  0  0  0  0  0  0  0
  -23.5000  -32.2150   23.8020 O   0  0  0  0  0  0  0  0  0  0  0  0
  -22.7380  -29.5190   22.5810 C   0  0  0  0  0  0  0  0  0  0  0  0
  -21.4150  -29.3290   22.4510 N   0  0  0  0  0  0  0  0  0  0  0  0
  -23.4250  -28.9000   23.3980 O   0  0  0  0  0  0  0  0  0  0  0  0
  -20.9230  -29.8910   21.7700 H   0  0  0  0  0  0  0  0  0  0  0  0
  -18.0440  -28.1230   22.9450 C   0  0  0  0  0  0  0  0  0  0  0  0
  -20.6010  -28.3830   23.2140 C   0  0  0  0  0  3  0  0  0  0  0  0
  -20.7060  -26.9560   22.6270 C   0  0  0  0  0  2  0  0  0  0  0  0
  -19.6010  -26.6370   21.6150 C   0  0  0  0  0  2  0  0  0  0  0  0
  -18.2210  -26.7770   22.2630 C   0  0  0  0  0  2  0  0  0  0  0  0
  -19.1620  -28.8840   23.3780 C   0  0  0  0  0  0  0  0  0  0  0  0
  -18.9410  -30.1440   23.9780 C   0  0  0  0  0  3  0  0  0  0  0  0
  -17.6370  -30.6410   24.1480 C   0  0  0  0  0  3  0  0  0  0  0  0
  -16.5330  -29.8780   23.7290 C   0  0  0  0  0  3  0  0  0  0  0  0
  -16.7390  -28.6200   23.1340 C   0  0  0  0  0  3  0  0  0  0  0  0
  -25.8670  -32.5820   23.8860 C   0  0  0  0  0  3  0  0  0  0  0  0
  -26.3810  -31.8190   25.1680 C   0  0  1  0  0  0  0  0  0  0  0  0
  -25.2810  -31.5840   26.2310 C   0  0  0  0  0  1  0  0  0  0  0  0
  -26.9670  -30.4410   24.7800 C   0  0  0  0  0  1  0  0  0  0  0  0
  -27.5260  -32.6190   25.8310 C   0  0  0  0  0  1  0  0  0  0  0  0
  -25.5600  -33.9830   24.2020 N   0  0  0  0  0  0  0  0  0  0  0  0
  -25.8940  -35.0280   23.4330 C   0  0  0  0  0  0  0  0  0  0  0  0
  -26.5630  -34.9140   22.4020 O   0  0  0  0  0  0  0  0  0  0  0  0
  -24.9680  -34.1450   25.0040 H   0  0  0  0  0  0  0  0  0  0  0  0
  -24.1690  -36.8180   23.0580 C   0  0  0  0  0  1  0  0  0  0  0  0
  -25.4080  -36.4210   23.8770 C   0  0  0  0  0  3  0  0  0  0  0  0
  -27.5390  -37.3130   24.7110 C   0  0  0  0  0  1  0  0  0  0  0  0
  -26.4420  -37.4710   23.7580 N   0  0  0  0  0  0  0  0  0  0  0  0
  -26.0360  -38.3940   23.8920 H   0  0  0  0  0  0  0  0  0  0  0  0
  -28.5720  -19.4080   20.5910 C   0  0  0  0  0  2  0  0  0  0  0  0
  -28.7370  -17.8630   20.3080 C   0  0  0  0  0  2  0  0  0  0  0  0
  -30.0510  -17.0630   20.6520 C   0  0  0  0  0  3  0  0  0  0  0  0
  -30.5620  -14.5910   20.1090 C   0  0  0  0  0  0  0  0  0  0  0  0
  -30.3320  -12.3560   19.0660 C   0  0  0  0  0  2  0  0  0  0  0  0
  -29.3350  -12.4620   17.8910 C   0  0  0  0  0  2  0  0  0  0  0  0
  -27.8820  -12.3020   18.3840 C   0  0  0  0  0  2  0  0  0  0  0  0
  -27.5670  -13.1920   19.6160 C   0  0  0  0  0  3  0  0  0  0  0  0
  -28.6660  -13.0370   20.6900 C   0  0  0  0  0  2  0  0  0  0  0  0
  -29.9540  -13.3730   20.0610 N   0  0  0  0  0  0  0  0  0  0  0  0
  -31.6750  -14.7960   19.6140 O   0  0  0  0  0  0  0  0  0  0  0  0
  -29.7890  -15.5960   20.5950 N   0  0  0  0  0  0  0  0  0  0  0  0
  -28.8900  -15.2950   20.9400 H   0  0  0  0  0  0  0  0  0  0  0  0
  -25.2210  -13.8100   20.4740 C   0  0  0  0  0  0  0  0  0  0  0  0
  -24.1660  -13.0400   20.8830 C   0  0  0  0  0  0  0  0  0  0  0  0
  -24.6100  -11.6860   20.7990 C   0  0  0  0  0  0  0  0  0  0  0  0
  -26.2400  -12.9230   20.1620 N   0  0  0  0  0  0  0  0  0  0  0  0
  -25.8800  -11.6400   20.4150 N   0  0  0  0  0  0  0  0  0  0  0  0
  -23.8830  -10.4280   21.0040 C   0  0  0  0  0  0  0  0  0  0  0  0
  -24.3420   -9.4500   21.9130 C   0  0  0  0  0  3  0  0  0  0  0  0
  -23.6160   -8.2550   22.1060 C   0  0  0  0  0  3  0  0  0  0  0  0
  -22.4190   -8.0290   21.3850 C   0  0  0  0  0  0  0  0  0  0  0  0
  -21.9800   -8.9930   20.4620 C   0  0  0  0  0  3  0  0  0  0  0  0
  -22.7070  -10.1800   20.2680 C   0  0  0  0  0  3  0  0  0  0  0  0
  -21.6600   -6.8870   21.4900 O   0  0  0  0  0  0  0  0  0  0  0  0
  -21.6330   -6.1430   22.6420 C   0  0  0  0  0  0  0  0  0  0  0  0
  -21.1860   -6.6840   23.8680 C   0  0  0  0  0  3  0  0  0  0  0  0
  -21.1070   -5.8650   25.0110 C   0  0  0  0  0  3  0  0  0  0  0  0
  -21.4630   -4.5050   24.9300 C   0  0  0  0  0  0  0  0  0  0  0  0
  -21.9000   -3.9630   23.7090 C   0  0  0  0  0  3  0  0  0  0  0  0
  -21.9830   -4.7800   22.5680 C   0  0  0  0  0  0  0  0  0  0  0  0
  -22.3860   -4.2470   21.3890 F   0  0  0  0  0  0  0  0  0  0  0  0
  -21.3780   -3.7160   26.0260 F   0  0  0  0  0  0  0  0  0  0  0  0
  -22.7900  -13.5260   21.2380 C   0  0  0  0  0  0  0  0  0  0  0  0
  -22.0980  -12.8180   22.1240 N   0  0  0  0  0  0  0  0  0  0  0  0
  -22.3380  -14.5650   20.7620 O   0  0  0  0  0  0  0  0  0  0  0  0
  -22.4730  -11.9740   22.5300 H   0  0  0  0  0  0  0  0  0  0  0  0
  -21.1780  -13.1280   22.4020 H   0  0  0  0  0  0  0  0  0  0  0  0
  -25.3880  -15.1830   20.3210 N   0  0  0  0  0  0  0  0  0  0  0  0
  -24.6290  -15.8310   20.4980 H   0  0  0  0  0  0  0  0  0  0  0  0
  -26.2130  -15.6340   19.9460 H   0  0  0  0  0  0  0  0  0  0  0  0
  -30.6380  -17.4150   22.0480 C   0  0  0  0  0  2  0  0  0  0  0  0
  -31.3450  -18.7750   22.1290 C   0  0  0  0  0  0  0  0  0  0  0  0
  -31.1080  -19.5300   23.1930 N   0  0  0  0  0  0  0  0  0  0  0  0
  -32.1100  -19.1540   21.2460 O   0  0  0  0  0  0  0  0  0  0  0  0
  -30.4880  -19.2130   23.9270 H   0  0  0  0  0  0  0  0  0  0  0  0
  -31.5600  -20.4280   23.2850 H   0  0  0  0  0  0  0  0  0  0  0  0
  1 49  1  0
  2  1  1  0
  2  5  1  0
  3  2  1  0
  4  2  1  0
  6  5  1  0
  6  7  2  0
  8 10  1  0
  8  7  1  0
  9 20  2  0
 10 15  1  0
 11 19  1  0
 11 21  1  0
 12 18  1  0
 12 14  1  0
 13 19  1  0
 14 13  1  0
 15 14  2  0
 16 17  1  0
 16 10  2  0
 17 12  2  0
 18 11  1  0
 19  9  1  0
 21 23  2  0
 22 21  1  0
 24 22  1  0
 25 34  2  0
 25 30  1  0
 26 22  1  0
 26 30  1  0
 27 26  1  0
 28 29  1  0
 28 27  1  0
 29 25  1  0
 30 31  2  0
 31 32  1  0
 33 32  2  0
 34 33  1  0
 35  9  1  0
 35 40  1  0
 35 36  1  0
 36 39  1  1
 36 37  1  0
 38 36  1  0
 40 43  1  0
 41 45  1  0
 41 40  1  0
 42 41  2  0
 45 44  1  0
 47 45  1  0
 47 48  1  0
 47 46  1  0
 50 49  1  0
 51 50  1  0
 51 90  1  0
 52 60  1  0
 53 58  1  0
 54 55  1  0
 54 53  1  0
 56 55  1  0
 56 65  1  0
 56 57  1  0
 58 52  1  0
 58 57  1  0
 59 52  2  0
 60 51  1  0
 60 61  1  0
 62 63  2  0
 63 82  1  0
 64 63  1  0
 64 67  1  0
 65 66  1  0
 65 62  1  0
 66 64  2  0
 67 68  1  0
 68 69  2  0
 70 73  1  0
 70 69  1  0
 71 70  2  0
 72 71  1  0
 72 67  2  0
 73 74  1  0
 74 75  1  0
 75 76  2  0
 77 76  1  0
 77 81  1  0
 78 77  2  0
 79 74  2  0
 79 78  1  0
 80 79  1  0
 82 83  1  0
 83 86  1  0
 83 85  1  0
 84 82  2  0
 87 62  1  0
 87 88  1  0
 89 87  1  0
 90 91  1  0
 91 92  1  0
 92 95  1  0
 92 94  1  0
 93 91  2  0
M  ISO  4   7 101   8 101  52 100  60 100
M  END
>  <TORSDO>  (46) 
F 25

>  <SCORE>  (46) 
-12.407

>  <name>  (46) 
45

>  <ligand_id>  (46) 
45

>  <original_smiles>  (46) 
[H]c1c([H])c([H])c2c(c1[H])C([H])([H])C([H])([H])C([H])([H])C2([H])N([H])C(=O)C1([H])N(C(=O)C([H])(N([H])C(=O)C([H])(N([H])C([H])([H])[H])C([H])([H])[H])C(C([H])([H])[H])(C([H])([H])[H])C([H])([H])[H])C([H])([H])c2c([H])c(OC([H])([H])C([H])([H])C([H])([H])[N+]([H])([H])C([H])([H])C([H])([H])C([H])([H])C([H])(N([H])C(=O)N3C([H])([H])C([H])([H])C([H])([H])C([H])(n4nc(-c5c([H])c([H])c(Oc6c([H])c([H])c(F)c([H])c6F)c([H])c5[H])c(C(=O)N([H])[H])c4N([H])[H])C3([H])[H])C([H])([H])C(=O)N([H])[H])c([H])c([H])c2C1([H])[H]

>  <smiles>  (46) 
[H]c1c([H])c([H])c2c(c1[H])C([H])([H])C([H])([H])C([H])([H])C2([H])N([H])C(=O)C1([H])N(C(=O)C([H])(N([H])C(=O)C([H])(N([H])C([H])([H])[H])C([H])([H])[H])C(C([H])([H])[H])(C([H])([H])[H])C([H])([H])[H])C([H])([H])c2c([H])c(OC([H])([H])C([H])([H])C([H])([H])[N+]([H])([H])C([H])([H])C([H])([H])C([H])([H])C([H])(N([H])C(=O)N3C([H])([H])C([H])([H])C([H])([H])C([H])(n4nc(-c5c([H])c([H])c(Oc6c([H])c([H])c(F)c([H])c6F)c([H])c5[H])c(C(=O)N([H])[H])c4N([H])[H])C3([H])[H])C([H])([H])C(=O)N([H])[H])c([H])c([H])c2C1([H])[H]

$$$$
46:0:0
     RDKit          3D

 86 93  0  0  1  0  0  0  0  0999 V2000
  -28.5790  -21.8820   20.4000 C   0  0  0  0  0  0  0  0  0  0  0  0
  -27.3740  -21.6380   20.4990 O   0  0  0  0  0  0  0  0  0  0  0  0
  -29.5990  -20.5910   20.3650 C   0  0  0  0  0  2  0  0  0  0  0  0
  -29.1370  -18.9780   20.4710 C   0  0  0  0  0  3  0  0  0  0  0  0
  -30.1930  -17.6770   20.3920 C   0  0  0  0  0  3  0  0  0  0  0  0
  -30.5550  -14.9810   20.3340 C   0  0  0  0  0  0  0  0  0  0  0  0
  -30.4100  -12.6520   19.3660 C   0  0  0  0  0  2  0  0  0  0  0  0
  -29.4680  -12.6370   18.1410 C   0  0  0  0  0  2  0  0  0  0  0  0
  -28.0080  -12.4250   18.5830 C   0  0  0  0  0  2  0  0  0  0  0  0
  -27.6130  -13.3360   19.7740 C   0  0  0  0  0  3  0  0  0  0  0  0
  -28.6760  -13.3290   20.8940 C   0  0  0  0  0  2  0  0  0  0  0  0
  -29.9470  -13.7320   20.2810 N   0  0  0  0  0  0  0  0  0  0  0  0
  -31.7500  -15.0520   20.0340 O   0  0  0  0  0  0  0  0  0  0  0  0
  -29.7920  -16.1610   20.5130 N   0  0  0  0  0  0  0  0  0  0  0  0
  -28.8180  -15.9920   20.7130 H   0  0  0  0  0  0  0  0  0  0  0  0
  -25.2360  -13.9020   20.5390 C   0  0  0  0  0  0  0  0  0  0  0  0
  -24.1760  -13.1190   20.9070 C   0  0  0  0  0  0  0  0  0  0  0  0
  -24.6450  -11.7700   20.8540 C   0  0  0  0  0  0  0  0  0  0  0  0
  -26.2800  -13.0300   20.2790 N   0  0  0  0  0  0  0  0  0  0  0  0
  -25.9340  -11.7420   20.5360 N   0  0  0  0  0  0  0  0  0  0  0  0
  -23.9230  -10.5030   21.0340 C   0  0  0  0  0  0  0  0  0  0  0  0
  -24.3500   -9.5350   21.9680 C   0  0  0  0  0  3  0  0  0  0  0  0
  -23.6270   -8.3330   22.1360 C   0  0  0  0  0  3  0  0  0  0  0  0
  -22.4640   -8.0920   21.3670 C   0  0  0  0  0  0  0  0  0  0  0  0
  -22.0580   -9.0490   20.4210 C   0  0  0  0  0  3  0  0  0  0  0  0
  -22.7800  -10.2420   20.2510 C   0  0  0  0  0  3  0  0  0  0  0  0
  -21.7140   -6.9440   21.4420 O   0  0  0  0  0  0  0  0  0  0  0  0
  -21.6340   -6.2120   22.6000 C   0  0  0  0  0  0  0  0  0  0  0  0
  -21.1380   -6.7680   23.8000 C   0  0  0  0  0  3  0  0  0  0  0  0
  -21.0070   -5.9610   24.9470 C   0  0  0  0  0  3  0  0  0  0  0  0
  -21.3610   -4.6000   24.8970 C   0  0  0  0  0  0  0  0  0  0  0  0
  -21.8480   -4.0430   23.7000 C   0  0  0  0  0  3  0  0  0  0  0  0
  -21.9810   -4.8460   22.5550 C   0  0  0  0  0  0  0  0  0  0  0  0
  -22.4310   -4.3010   21.4000 F   0  0  0  0  0  0  0  0  0  0  0  0
  -21.2280   -3.8220   25.9970 F   0  0  0  0  0  0  0  0  0  0  0  0
  -22.7800  -13.5880   21.1920 C   0  0  0  0  0  0  0  0  0  0  0  0
  -22.0620  -12.8810   22.0580 N   0  0  0  0  0  0  0  0  0  0  0  0
  -22.3350  -14.6170   20.6840 O   0  0  0  0  0  0  0  0  0  0  0  0
  -22.4370  -12.0490   22.4880 H   0  0  0  0  0  0  0  0  0  0  0  0
  -21.1260  -13.1760   22.2930 H   0  0  0  0  0  0  0  0  0  0  0  0
  -25.3930  -15.2750   20.3770 N   0  0  0  0  0  0  0  0  0  0  0  0
  -24.6210  -15.9220   20.4940 H   0  0  0  0  0  0  0  0  0  0  0  0
  -26.2270  -15.7200   20.0160 H   0  0  0  0  0  0  0  0  0  0  0  0
  -29.0270  -23.4680   20.3270 C   0  0  0  0  0  3  0  0  0  0  0  0
  -27.9550  -24.7460   20.1800 C   0  0  0  0  0  3  0  0  0  0  0  0
  -28.2500  -26.2690   20.2510 O   0  0  0  0  0  0  0  0  0  0  0  0
  -24.6260  -31.9180   23.2540 C   0  0  0  0  0  0  0  0  0  0  0  0
  -27.1880  -27.2390   20.1930 C   0  0  0  0  0  0  0  0  0  0  0  0
  -23.4180  -30.5370   21.6080 C   0  0  0  0  0  3  0  0  0  0  0  0
  -24.8610  -28.9730   20.1710 C   0  0  0  0  0  0  0  0  0  0  0  0
  -25.9700  -30.8070   21.4340 C   0  0  0  0  0  2  0  0  0  0  0  0
  -26.0410  -29.4190   20.7780 C   0  0  0  0  0  0  0  0  0  0  0  0
  -27.2070  -28.5690   20.7700 C   0  0  0  0  0  3  0  0  0  0  0  0
  -25.9800  -26.8900   19.5500 C   0  0  0  0  0  3  0  0  0  0  0  0
  -24.8420  -27.7220   19.5410 C   0  0  0  0  0  3  0  0  0  0  0  0
  -23.6350  -29.8690   20.2250 C   0  0  0  0  0  2  0  0  0  0  0  0
  -24.6920  -31.1080   22.1540 N   0  0  0  0  0  0  0  0  0  0  0  0
  -23.5410  -32.2000   23.7860 O   0  0  0  0  0  0  0  0  0  0  0  0
  -22.7410  -29.5230   22.5640 C   0  0  0  0  0  0  0  0  0  0  0  0
  -21.4120  -29.3530   22.4370 N   0  0  0  0  0  0  0  0  0  0  0  0
  -23.4130  -28.8930   23.3850 O   0  0  0  0  0  0  0  0  0  0  0  0
  -20.9270  -29.9170   21.7530 H   0  0  0  0  0  0  0  0  0  0  0  0
  -18.0290  -28.1650   22.9400 C   0  0  0  0  0  0  0  0  0  0  0  0
  -20.5890  -28.4150   23.2040 C   0  0  0  0  0  3  0  0  0  0  0  0
  -20.6840  -26.9850   22.6220 C   0  0  0  0  0  2  0  0  0  0  0  0
  -19.5780  -26.6740   21.6080 C   0  0  0  0  0  2  0  0  0  0  0  0
  -18.1980  -26.8190   22.2550 C   0  0  0  0  0  2  0  0  0  0  0  0
  -19.1510  -28.9210   23.3710 C   0  0  0  0  0  0  0  0  0  0  0  0
  -18.9360  -30.1800   23.9740 C   0  0  0  0  0  3  0  0  0  0  0  0
  -17.6330  -30.6820   24.1480 C   0  0  0  0  0  3  0  0  0  0  0  0
  -16.5260  -29.9240   23.7310 C   0  0  0  0  0  3  0  0  0  0  0  0
  -16.7240  -28.6670   23.1320 C   0  0  0  0  0  3  0  0  0  0  0  0
  -25.9070  -32.5470   23.8820 C   0  0  0  0  0  3  0  0  0  0  0  0
  -25.6020  -33.9470   24.2170 N   0  0  0  0  0  0  0  0  0  0  0  0
  -25.9110  -35.0010   23.4510 C   0  0  0  0  0  0  0  0  0  0  0  0
  -26.5530  -34.8990   22.4020 O   0  0  0  0  0  0  0  0  0  0  0  0
  -25.0300  -34.1010   25.0350 H   0  0  0  0  0  0  0  0  0  0  0  0
  -24.1620  -36.7870   23.1620 C   0  0  0  0  0  1  0  0  0  0  0  0
  -25.4370  -36.3900   23.9230 C   0  0  0  0  0  3  0  0  0  0  0  0
  -27.5950  -37.2940   24.6680 C   0  0  0  0  0  1  0  0  0  0  0  0
  -26.4590  -37.4480   23.7640 N   0  0  0  0  0  0  0  0  0  0  0  0
  -26.0530  -38.3670   23.9180 H   0  0  0  0  0  0  0  0  0  0  0  0
  -26.4130  -31.7730   25.1600 C   0  0  1  0  0  0  0  0  0  0  0  0
  -25.3130  -31.5400   26.2230 C   0  0  0  0  0  1  0  0  0  0  0  0
  -26.9920  -30.3930   24.7730 C   0  0  0  0  0  1  0  0  0  0  0  0
  -27.5640  -32.5620   25.8280 C   0  0  0  0  0  1  0  0  0  0  0  0
  1  2  2  0
  3  1  1  0
  3  4  1  0
  5  4  2  0
  5 14  1  0
  6 14  1  0
  7 12  1  0
  8  9  1  0
  8  7  1  0
 10  9  1  0
 10 19  1  0
 10 11  1  0
 12  6  1  0
 12 11  1  0
 13  6  2  0
 14 15  1  0
 16 17  2  0
 17 36  1  0
 18 17  1  0
 18 21  1  0
 19 20  1  0
 19 16  1  0
 20 18  2  0
 21 22  1  0
 22 23  2  0
 24 27  1  0
 24 23  1  0
 25 24  2  0
 26 25  1  0
 26 21  2  0
 27 28  1  0
 28 29  1  0
 29 30  2  0
 31 30  1  0
 31 35  1  0
 32 31  2  0
 33 28  2  0
 33 32  1  0
 34 33  1  0
 36 37  1  0
 37 40  1  0
 37 39  1  0
 38 36  2  0
 41 42  1  0
 41 16  1  0
 43 41  1  0
 44  1  1  0
 45 46  1  0
 45 44  2  0
 47 58  2  0
 48 46  1  0
 48 53  1  0
 49 57  1  0
 49 59  1  0
 50 56  1  0
 50 52  1  0
 51 57  1  0
 52 51  1  0
 53 52  2  0
 54 48  2  0
 55 54  1  0
 55 50  2  0
 56 49  1  0
 57 47  1  0
 59 61  2  0
 60 59  1  0
 62 60  1  0
 63 72  2  0
 63 68  1  0
 64 60  1  0
 64 68  1  0
 65 64  1  0
 66 67  1  0
 66 65  1  0
 67 63  1  0
 68 69  2  0
 69 70  1  0
 71 70  2  0
 72 71  1  0
 73 47  1  0
 73 74  1  0
 73 83  1  0
 74 77  1  0
 75 79  1  0
 75 74  1  0
 76 75  2  0
 79 78  1  0
 81 82  1  0
 81 79  1  0
 81 80  1  0
 83 86  1  1
 83 84  1  0
 85 83  1  0
M  ISO  4   6 100  14 100  45 101  46 101
M  END
>  <TORSDO>  (47) 
F 21

>  <SCORE>  (47) 
-13.148

>  <name>  (47) 
46

>  <ligand_id>  (47) 
46

>  <original_smiles>  (47) 
[H]c1c([H])c([H])c2c(c1[H])C([H])([H])C([H])([H])C([H])([H])C2([H])N([H])C(=O)C1([H])N(C(=O)C([H])(N([H])C(=O)C([H])(N([H])C([H])([H])[H])C([H])([H])[H])C(C([H])([H])[H])(C([H])([H])[H])C([H])([H])[H])C([H])([H])c2c([H])c(OC([H])([H])C([H])([H])C(=O)C([H])([H])C([H])([H])C([H])([H])N([H])C(=O)N3C([H])([H])C([H])([H])C([H])([H])C([H])(n4nc(-c5c([H])c([H])c(Oc6c([H])c([H])c(F)c([H])c6F)c([H])c5[H])c(C(=O)N([H])[H])c4N([H])[H])C3([H])[H])c([H])c([H])c2C1([H])[H]

>  <smiles>  (47) 
[H]c1c([H])c([H])c2c(c1[H])C([H])([H])C([H])([H])C([H])([H])C2([H])N([H])C(=O)C1([H])N(C(=O)C([H])(N([H])C(=O)C([H])(N([H])C([H])([H])[H])C([H])([H])[H])C(C([H])([H])[H])(C([H])([H])[H])C([H])([H])[H])C([H])([H])c2c([H])c(OC([H])([H])C([H])([H])C(=O)C([H])([H])C([H])([H])C([H])([H])N([H])C(=O)N3C([H])([H])C([H])([H])C([H])([H])C([H])(n4nc(-c5c([H])c([H])c(Oc6c([H])c([H])c(F)c([H])c6F)c([H])c5[H])c(C(=O)N([H])[H])c4N([H])[H])C3([H])[H])c([H])c([H])c2C1([H])[H]

$$$$
47:0:0
     RDKit          3D

 91 98  0  0  1  0  0  0  0  0999 V2000
  -29.0340  -19.6260   20.2160 C   0  0  0  0  0  3  0  0  0  0  0  0
  -29.7490  -18.3520   20.8260 C   0  0  0  0  0  0  0  0  0  0  0  0
  -29.7840  -18.2660   22.0560 O   0  0  0  0  0  0  0  0  0  0  0  0
  -30.4000  -17.1890   19.9470 C   0  0  0  0  0  3  0  0  0  0  0  0
  -30.6630  -14.6270   20.0140 C   0  0  0  0  0  0  0  0  0  0  0  0
  -30.3080  -12.4270   18.9400 C   0  0  0  0  0  2  0  0  0  0  0  0
  -29.3140  -12.6080   17.7720 C   0  0  0  0  0  2  0  0  0  0  0  0
  -27.8640  -12.4720   18.2750 C   0  0  0  0  0  2  0  0  0  0  0  0
  -27.5870  -13.3080   19.5550 C   0  0  0  0  0  3  0  0  0  0  0  0
  -28.7020  -13.1320   20.6100 C   0  0  0  0  0  2  0  0  0  0  0  0
  -29.9800  -13.4430   19.9580 N   0  0  0  0  0  0  0  0  0  0  0  0
  -31.8320  -14.7030   19.6310 O   0  0  0  0  0  0  0  0  0  0  0  0
  -29.9390  -15.7720   20.2270 N   0  0  0  0  0  0  0  0  0  0  0  0
  -28.9830  -15.6530   20.5290 H   0  0  0  0  0  0  0  0  0  0  0  0
  -25.2420  -13.9140   20.4090 C   0  0  0  0  0  0  0  0  0  0  0  0
  -24.1900  -13.1440   20.8270 C   0  0  0  0  0  0  0  0  0  0  0  0
  -24.6400  -11.7910   20.7600 C   0  0  0  0  0  0  0  0  0  0  0  0
  -26.2650  -13.0300   20.1090 N   0  0  0  0  0  0  0  0  0  0  0  0
  -25.9130  -11.7470   20.3850 N   0  0  0  0  0  0  0  0  0  0  0  0
  -23.9130  -10.5320   20.9730 C   0  0  0  0  0  0  0  0  0  0  0  0
  -24.3800   -9.5540   21.8760 C   0  0  0  0  0  3  0  0  0  0  0  0
  -23.6540   -8.3610   22.0820 C   0  0  0  0  0  3  0  0  0  0  0  0
  -22.4470   -8.1360   21.3800 C   0  0  0  0  0  0  0  0  0  0  0  0
  -21.9960   -9.1030   20.4620 C   0  0  0  0  0  3  0  0  0  0  0  0
  -22.7240  -10.2880   20.2580 C   0  0  0  0  0  3  0  0  0  0  0  0
  -21.6890   -6.9960   21.4930 O   0  0  0  0  0  0  0  0  0  0  0  0
  -21.6830   -6.2460   22.6410 C   0  0  0  0  0  0  0  0  0  0  0  0
  -21.3120   -6.7960   23.8880 C   0  0  0  0  0  3  0  0  0  0  0  0
  -21.2500   -5.9730   25.0290 C   0  0  0  0  0  3  0  0  0  0  0  0
  -21.5550   -4.6010   24.9280 C   0  0  0  0  0  0  0  0  0  0  0  0
  -21.9190   -4.0520   23.6870 C   0  0  0  0  0  3  0  0  0  0  0  0
  -21.9800   -4.8720   22.5470 C   0  0  0  0  0  0  0  0  0  0  0  0
  -22.3120   -4.3320   21.3480 F   0  0  0  0  0  0  0  0  0  0  0  0
  -21.4870   -3.8080   26.0230 F   0  0  0  0  0  0  0  0  0  0  0  0
  -22.8130  -13.6300   21.1740 C   0  0  0  0  0  0  0  0  0  0  0  0
  -22.1270  -12.9340   22.0730 N   0  0  0  0  0  0  0  0  0  0  0  0
  -22.3550  -14.6620   20.6840 O   0  0  0  0  0  0  0  0  0  0  0  0
  -22.5120  -12.0990   22.4900 H   0  0  0  0  0  0  0  0  0  0  0  0
  -21.2040  -13.2400   22.3480 H   0  0  0  0  0  0  0  0  0  0  0  0
  -25.4080  -15.2840   20.2370 N   0  0  0  0  0  0  0  0  0  0  0  0
  -24.6470  -15.9360   20.3970 H   0  0  0  0  0  0  0  0  0  0  0  0
  -26.2220  -15.7190   19.8250 H   0  0  0  0  0  0  0  0  0  0  0  0
  -30.4620  -17.4500   18.4150 C   0  0  0  0  0  2  0  0  0  0  0  0
  -31.3020  -18.7180   16.3930 C   0  0  0  0  0  1  0  0  0  0  0  0
  -32.8540  -18.4170   18.3710 C   0  0  0  0  0  1  0  0  0  0  0  0
  -31.3880  -18.5960   17.9270 C   0  0  0  0  0  3  0  0  0  0  0  0
  -29.4860  -21.0830   20.6880 C   0  0  0  0  0  3  0  0  0  0  0  0
  -28.6480  -22.3270   20.1410 C   0  0  0  0  0  2  0  0  0  0  0  0
  -29.0340  -23.8250   20.5500 C   0  0  0  0  0  3  0  0  0  0  0  0
  -28.0490  -24.9710   20.0450 C   0  0  0  0  0  3  0  0  0  0  0  0
  -28.2760  -26.4120   20.3350 O   0  0  0  0  0  0  0  0  0  0  0  0
  -24.5820  -31.8780   23.2780 C   0  0  0  0  0  0  0  0  0  0  0  0
  -27.1750  -27.2840   20.2530 C   0  0  0  0  0  0  0  0  0  0  0  0
  -23.3780  -30.4800   21.6370 C   0  0  0  0  0  3  0  0  0  0  0  0
  -24.8220  -28.9220   20.2220 C   0  0  0  0  0  0  0  0  0  0  0  0
  -25.9200  -30.7800   21.4680 C   0  0  0  0  0  2  0  0  0  0  0  0
  -25.9940  -29.4010   20.8250 C   0  0  0  0  0  0  0  0  0  0  0  0
  -27.1720  -28.5930   20.8320 C   0  0  0  0  0  3  0  0  0  0  0  0
  -25.9800  -26.8700   19.6120 C   0  0  0  0  0  3  0  0  0  0  0  0
  -24.8200  -27.6640   19.6070 C   0  0  0  0  0  3  0  0  0  0  0  0
  -23.5940  -29.8050   20.2600 C   0  0  0  0  0  2  0  0  0  0  0  0
  -24.6460  -31.0640   22.1840 N   0  0  0  0  0  0  0  0  0  0  0  0
  -23.4990  -32.1640   23.8060 O   0  0  0  0  0  0  0  0  0  0  0  0
  -22.7060  -29.4700   22.5970 C   0  0  0  0  0  0  0  0  0  0  0  0
  -21.3810  -29.2930   22.4570 N   0  0  0  0  0  0  0  0  0  0  0  0
  -23.3730  -28.8500   23.4290 O   0  0  0  0  0  0  0  0  0  0  0  0
  -20.9000  -29.8420   21.7580 H   0  0  0  0  0  0  0  0  0  0  0  0
  -17.9960  -28.0990   22.9190 C   0  0  0  0  0  0  0  0  0  0  0  0
  -20.5500  -28.3630   23.2250 C   0  0  0  0  0  3  0  0  0  0  0  0
  -20.6620  -26.9260   22.6670 C   0  0  0  0  0  2  0  0  0  0  0  0
  -19.5740  -26.5900   21.6420 C   0  0  0  0  0  2  0  0  0  0  0  0
  -18.1830  -26.7420   22.2620 C   0  0  0  0  0  2  0  0  0  0  0  0
  -19.1070  -28.8680   23.3570 C   0  0  0  0  0  0  0  0  0  0  0  0
  -18.8790  -30.1380   23.9290 C   0  0  0  0  0  3  0  0  0  0  0  0
  -17.5700  -30.6380   24.0720 C   0  0  0  0  0  3  0  0  0  0  0  0
  -16.4740  -29.8670   23.6500 C   0  0  0  0  0  3  0  0  0  0  0  0
  -16.6870  -28.6000   23.0790 C   0  0  0  0  0  3  0  0  0  0  0  0
  -25.8640  -32.5060   23.9030 C   0  0  0  0  0  3  0  0  0  0  0  0
  -25.5610  -33.9090   24.2190 N   0  0  0  0  0  0  0  0  0  0  0  0
  -25.8980  -34.9540   23.4500 C   0  0  0  0  0  0  0  0  0  0  0  0
  -26.5670  -34.8390   22.4190 O   0  0  0  0  0  0  0  0  0  0  0  0
  -24.9670  -34.0720   25.0190 H   0  0  0  0  0  0  0  0  0  0  0  0
  -24.1730  -36.7500   23.0910 C   0  0  0  0  0  1  0  0  0  0  0  0
  -25.4190  -36.3490   23.8970 C   0  0  0  0  0  3  0  0  0  0  0  0
  -27.5640  -37.2350   24.7020 C   0  0  0  0  0  1  0  0  0  0  0  0
  -26.4550  -37.3970   23.7660 N   0  0  0  0  0  0  0  0  0  0  0  0
  -26.0520  -38.3200   23.9060 H   0  0  0  0  0  0  0  0  0  0  0  0
  -26.3620  -31.7430   25.1920 C   0  0  1  0  0  0  0  0  0  0  0  0
  -25.2580  -31.5260   26.2540 C   0  0  0  0  0  1  0  0  0  0  0  0
  -26.9360  -30.3560   24.8210 C   0  0  0  0  0  1  0  0  0  0  0  0
  -27.5120  -32.5350   25.8570 C   0  0  0  0  0  1  0  0  0  0  0  0
  1 47  2  0
  1  2  1  0
  2  3  2  0
  4 43  1  0
  4 13  1  0
  4  2  1  0
  5 13  1  0
  6 11  1  0
  7  8  1  0
  7  6  1  0
  9  8  1  0
  9 18  1  0
  9 10  1  0
 11  5  1  0
 11 10  1  0
 12  5  2  0
 13 14  1  0
 15 16  2  0
 16 35  1  0
 17 16  1  0
 17 20  1  0
 18 19  1  0
 18 15  1  0
 19 17  2  0
 20 21  1  0
 21 22  2  0
 23 26  1  0
 23 22  1  0
 24 23  2  0
 25 24  1  0
 25 20  2  0
 26 27  1  0
 27 28  1  0
 28 29  2  0
 30 29  1  0
 30 34  1  0
 31 30  2  0
 32 27  2  0
 32 31  1  0
 33 32  1  0
 35 36  1  0
 36 39  1  0
 36 38  1  0
 37 35  2  0
 40 41  1  0
 40 15  1  0
 42 40  1  0
 44 46  1  0
 46 45  1  0
 46 43  1  0
 48 49  1  0
 48 47  1  0
 50 51  1  0
 50 49  2  0
 52 63  2  0
 53 51  1  0
 53 58  1  0
 54 62  1  0
 54 64  1  0
 55 61  1  0
 55 57  1  0
 56 62  1  0
 57 58  2  0
 57 56  1  0
 59 53  2  0
 60 59  1  0
 60 55  2  0
 61 54  1  0
 62 52  1  0
 64 66  2  0
 65 64  1  0
 67 65  1  0
 68 77  2  0
 68 73  1  0
 69 65  1  0
 69 73  1  0
 70 69  1  0
 71 72  1  0
 71 70  1  0
 72 68  1  0
 73 74  2  0
 74 75  1  0
 76 75  2  0
 77 76  1  0
 78 52  1  0
 78 79  1  0
 78 88  1  0
 79 82  1  0
 80 84  1  0
 80 79  1  0
 81 80  2  0
 84 83  1  0
 86 84  1  0
 86 87  1  0
 86 85  1  0
 88 91  1  1
 88 89  1  0
 90 88  1  0
M  ISO  4   5 100  13 100  50 101  51 101
M  END
>  <TORSDO>  (48) 
F 24

>  <SCORE>  (48) 
-11.999

>  <name>  (48) 
47

>  <ligand_id>  (48) 
47

>  <original_smiles>  (48) 
[H]c1c([H])c([H])c2c(c1[H])C([H])([H])C([H])([H])C([H])([H])C2([H])N([H])C(=O)C1([H])N(C(=O)C([H])(N([H])C(=O)C([H])(N([H])C([H])([H])[H])C([H])([H])[H])C(C([H])([H])[H])(C([H])([H])[H])C([H])([H])[H])C([H])([H])c2c([H])c(OC([H])([H])C([H])([H])C([H])([H])C([H])([H])C([H])([H])C(=O)C([H])(N([H])C(=O)N3C([H])([H])C([H])([H])C([H])([H])C([H])(n4nc(-c5c([H])c([H])c(Oc6c([H])c([H])c(F)c([H])c6F)c([H])c5[H])c(C(=O)N([H])[H])c4N([H])[H])C3([H])[H])C([H])([H])C([H])(C([H])([H])[H])C([H])([H])[H])c([H])c([H])c2C1([H])[H]

>  <smiles>  (48) 
[H]c1c([H])c([H])c2c(c1[H])C([H])([H])C([H])([H])C([H])([H])C2([H])N([H])C(=O)C1([H])N(C(=O)C([H])(N([H])C(=O)C([H])(N([H])C([H])([H])[H])C([H])([H])[H])C(C([H])([H])[H])(C([H])([H])[H])C([H])([H])[H])C([H])([H])c2c([H])c(OC([H])([H])C([H])([H])C([H])([H])C([H])([H])C([H])([H])C(=O)C([H])(N([H])C(=O)N3C([H])([H])C([H])([H])C([H])([H])C([H])(n4nc(-c5c([H])c([H])c(Oc6c([H])c([H])c(F)c([H])c6F)c([H])c5[H])c(C(=O)N([H])[H])c4N([H])[H])C3([H])[H])C([H])([H])C([H])(C([H])([H])[H])C([H])([H])[H])c([H])c([H])c2C1([H])[H]

$$$$
48:0:0
     RDKit          3D

 93101  0  0  1  0  0  0  0  0999 V2000
  -30.8900  -14.8650   19.8750 C   0  0  0  0  0  0  0  0  0  0  0  0
  -30.9870  -12.3340   20.1370 C   0  0  0  0  0  2  0  0  0  0  0  0
  -30.2590  -11.6080   18.9780 C   0  0  0  0  0  2  0  0  0  0  0  0
  -28.7410  -11.4940   19.2320 C   0  0  0  0  0  2  0  0  0  0  0  0
  -28.1390  -12.8100   19.7870 C   0  0  0  0  0  3  0  0  0  0  0  0
  -29.0060  -13.3620   20.9300 C   0  0  0  0  0  2  0  0  0  0  0  0
  -30.3280  -13.6640   20.3460 N   0  0  0  0  0  0  0  0  0  0  0  0
  -32.1080  -14.8280   19.6450 O   0  0  0  0  0  0  0  0  0  0  0  0
  -30.5580  -17.0920   18.3450 C   0  0  0  0  0  2  0  0  0  0  0  0
  -29.2720  -16.7120   20.3840 C   0  0  0  0  0  2  0  0  0  0  0  0
  -29.5220  -18.2970   17.7580 C   0  0  0  0  0  3  0  0  0  0  0  0
  -28.1240  -17.5240   19.7220 C   0  0  0  0  0  3  0  0  0  0  0  0
  -28.6760  -18.7590   18.9630 C   0  0  0  0  0  3  0  0  0  0  0  0
  -29.4420  -19.7350   19.8920 C   0  0  0  0  0  1  0  0  0  0  0  0
  -30.1290  -16.0010   19.4140 N   0  0  0  0  0  0  0  0  0  0  0  0
  -25.7480  -13.6180   20.2210 C   0  0  0  0  0  0  0  0  0  0  0  0
  -24.6020  -12.9590   20.5680 C   0  0  0  0  0  0  0  0  0  0  0  0
  -24.9630  -11.5830   20.7120 C   0  0  0  0  0  0  0  0  0  0  0  0
  -26.7410  -12.6540   20.1740 N   0  0  0  0  0  0  0  0  0  0  0  0
  -26.2720  -11.4310   20.5320 N   0  0  0  0  0  0  0  0  0  0  0  0
  -24.1260  -10.4000   20.9500 C   0  0  0  0  0  0  0  0  0  0  0  0
  -24.4840   -9.4220   21.9030 C   0  0  0  0  0  3  0  0  0  0  0  0
  -23.6500   -8.3040   22.1270 C   0  0  0  0  0  3  0  0  0  0  0  0
  -22.4440   -8.1620   21.4040 C   0  0  0  0  0  0  0  0  0  0  0  0
  -22.1030   -9.1270   20.4400 C   0  0  0  0  0  3  0  0  0  0  0  0
  -22.9360  -10.2340   20.2130 C   0  0  0  0  0  3  0  0  0  0  0  0
  -21.5860   -7.0950   21.5370 O   0  0  0  0  0  0  0  0  0  0  0  0
  -21.5680   -6.3250   22.6720 C   0  0  0  0  0  0  0  0  0  0  0  0
  -21.3290   -6.8830   23.9480 C   0  0  0  0  0  3  0  0  0  0  0  0
  -21.2510   -6.0450   25.0790 C   0  0  0  0  0  3  0  0  0  0  0  0
  -21.4010   -4.6530   24.9360 C   0  0  0  0  0  0  0  0  0  0  0  0
  -21.6330   -4.0960   23.6680 C   0  0  0  0  0  3  0  0  0  0  0  0
  -21.7130   -4.9300   22.5380 C   0  0  0  0  0  0  0  0  0  0  0  0
  -21.9150   -4.3860   21.3130 F   0  0  0  0  0  0  0  0  0  0  0  0
  -21.3170   -3.8470   26.0210 F   0  0  0  0  0  0  0  0  0  0  0  0
  -23.2300  -13.5560   20.6610 C   0  0  0  0  0  0  0  0  0  0  0  0
  -22.3950  -13.0490   21.5620 N   0  0  0  0  0  0  0  0  0  0  0  0
  -22.9100  -14.5180   19.9630 O   0  0  0  0  0  0  0  0  0  0  0  0
  -22.6620  -12.2710   22.1470 H   0  0  0  0  0  0  0  0  0  0  0  0
  -21.4680  -13.4410   21.6600 H   0  0  0  0  0  0  0  0  0  0  0  0
  -26.0220  -14.9510   19.9220 N   0  0  0  0  0  0  0  0  0  0  0  0
  -25.2050  -15.4220   19.5470 H   0  0  0  0  0  0  0  0  0  0  0  0
  -26.8100  -15.0780   19.2970 H   0  0  0  0  0  0  0  0  0  0  0  0
  -29.9970  -19.6500   16.8580 C   0  0  0  0  0  2  0  0  0  0  0  0
  -29.1550  -21.0410   16.3770 C   0  0  0  0  0  2  0  0  0  0  0  0
  -28.5660  -22.3860   17.2020 C   0  0  0  0  0  2  0  0  0  0  0  0
  -29.2070  -23.9140   17.5360 C   0  0  0  0  0  2  0  0  0  0  0  0
  -28.8560  -25.3880   17.2230 O   0  0  0  0  0  0  0  0  0  0  0  0
  -26.1010  -28.9760   23.1010 C   0  0  0  0  0  0  0  0  0  0  0  0
  -27.9180  -26.2450   17.8880 C   0  0  0  0  0  0  0  0  0  0  0  0
  -24.7220  -28.8770   21.0590 C   0  0  0  0  0  3  0  0  0  0  0  0
  -25.9110  -28.0680   18.9310 C   0  0  0  0  0  0  0  0  0  0  0  0
  -27.2860  -28.7780   20.8850 C   0  0  0  0  0  2  0  0  0  0  0  0
  -27.1350  -27.9400   19.6030 C   0  0  0  0  0  0  0  0  0  0  0  0
  -28.1440  -27.0530   19.0730 C   0  0  0  0  0  3  0  0  0  0  0  0
  -26.6840  -26.4640   17.2430 C   0  0  0  0  0  3  0  0  0  0  0  0
  -25.6970  -27.3430   17.7470 C   0  0  0  0  0  3  0  0  0  0  0  0
  -24.8600  -28.9990   19.5170 C   0  0  0  0  0  2  0  0  0  0  0  0
  -26.0580  -28.8630   21.7380 N   0  0  0  0  0  0  0  0  0  0  0  0
  -25.0670  -29.1070   23.7740 O   0  0  0  0  0  0  0  0  0  0  0  0
  -23.8520  -27.6410   21.3940 C   0  0  0  0  0  0  0  0  0  0  0  0
  -22.5210  -27.7720   21.2520 N   0  0  0  0  0  0  0  0  0  0  0  0
  -24.3800  -26.5830   21.7470 O   0  0  0  0  0  0  0  0  0  0  0  0
  -22.1580  -28.6710   20.9680 H   0  0  0  0  0  0  0  0  0  0  0  0
  -18.9830  -27.0090   21.1150 C   0  0  0  0  0  0  0  0  0  0  0  0
  -21.5290  -26.7120   21.4640 C   0  0  0  0  0  3  0  0  0  0  0  0
  -21.4750  -25.7490   20.2550 C   0  0  0  0  0  2  0  0  0  0  0  0
  -20.4150  -26.1390   19.2210 C   0  0  0  0  0  2  0  0  0  0  0  0
  -19.0230  -26.1580   19.8580 C   0  0  0  0  0  2  0  0  0  0  0  0
  -20.1610  -27.2830   21.8610 C   0  0  0  0  0  0  0  0  0  0  0  0
  -20.0710  -28.1080   23.0020 C   0  0  0  0  0  3  0  0  0  0  0  0
  -18.8360  -28.6500   23.4030 C   0  0  0  0  0  3  0  0  0  0  0  0
  -17.6710  -28.3650   22.6700 C   0  0  0  0  0  3  0  0  0  0  0  0
  -17.7450  -27.5430   21.5320 C   0  0  0  0  0  3  0  0  0  0  0  0
  -27.4520  -28.9620   23.8800 C   0  0  0  0  0  3  0  0  0  0  0  0
  -27.3080  -29.8490   25.0450 N   0  0  0  0  0  0  0  0  0  0  0  0
  -27.8260  -31.0810   25.1350 C   0  0  0  0  0  0  0  0  0  0  0  0
  -28.5410  -31.5700   24.2560 O   0  0  0  0  0  0  0  0  0  0  0  0
  -26.6900  -29.5360   25.7790 H   0  0  0  0  0  0  0  0  0  0  0  0
  -26.4070  -32.9310   26.0820 C   0  0  0  0  0  1  0  0  0  0  0  0
  -27.5030  -31.9010   26.3990 C   0  0  0  0  0  3  0  0  0  0  0  0
  -29.6570  -31.6770   27.5570 C   0  0  0  0  0  1  0  0  0  0  0  0
  -28.6790  -32.5920   26.9720 N   0  0  0  0  0  0  0  0  0  0  0  0
  -28.3950  -33.2540   27.6900 H   0  0  0  0  0  0  0  0  0  0  0  0
  -27.8890  -27.5160   24.3420 C   0  0  1  0  0  0  0  0  0  0  0  0
  -26.7910  -26.7490   25.1140 C   0  0  0  0  0  1  0  0  0  0  0  0
  -28.2960  -26.6500   23.1260 C   0  0  0  0  0  1  0  0  0  0  0  0
  -29.1370  -27.6110   25.2510 C   0  0  0  0  0  1  0  0  0  0  0  0
  -27.0110  -17.9210   20.7270 C   0  0  0  0  0  2  0  0  0  0  0  0
  -25.9100  -16.9430   20.7510 N   0  0  0  0  0  4  0  0  0  0  0  0
  -25.5690  -16.7600   19.8170 H   0  0  0  0  0  0  0  0  0  0  0  0
  -25.1480  -17.2860   21.3110 H   0  0  0  0  0  0  0  0  0  0  0  0
  -26.2130  -16.0650   21.1310 H   0  0  0  0  0  0  0  0  0  0  0  0
  1  7  1  0
  2  7  1  0
  3  4  1  0
  3  2  1  0
  5  4  1  0
  5 19  1  0
  5  6  1  0
  7  6  1  0
  8  1  2  0
  9 15  1  0
 11 44  1  0
 11  9  1  0
 11 13  1  0
 12 10  1  0
 12 89  1  0
 13 12  1  0
 13 14  1  0
 15  1  1  0
 15 10  1  0
 16 17  2  0
 17 36  1  0
 17 18  1  0
 18 21  1  0
 19 16  1  0
 19 20  1  0
 20 18  2  0
 21 22  1  0
 22 23  2  0
 24 27  1  0
 24 23  1  0
 25 24  2  0
 26 25  1  0
 26 21  2  0
 27 28  1  0
 28 29  1  0
 29 30  2  0
 31 30  1  0
 31 35  1  0
 32 31  2  0
 33 28  2  0
 33 32  1  0
 34 33  1  0
 36 37  1  0
 37 40  1  0
 37 39  1  0
 38 36  2  0
 41 16  1  0
 42 41  1  0
 43 41  1  0
 45 44  1  0
 45 46  1  0
 46 47  1  0
 48 47  1  0
 48 50  1  0
 49 60  2  0
 50 55  1  0
 51 61  1  0
 51 59  1  0
 52 58  1  0
 52 54  1  0
 53 59  1  0
 54 53  1  0
 55 54  2  0
 56 57  1  0
 56 50  2  0
 57 52  2  0
 58 51  1  0
 59 49  1  0
 61 63  2  0
 62 61  1  0
 64 62  1  0
 65 74  2  0
 65 70  1  0
 66 62  1  0
 66 70  1  0
 67 66  1  0
 68 69  1  0
 68 67  1  0
 69 65  1  0
 70 71  2  0
 71 72  1  0
 73 72  2  0
 74 73  1  0
 75 49  1  0
 75 85  1  0
 75 76  1  0
 76 77  1  0
 76 79  1  0
 77 81  1  0
 78 77  2  0
 81 80  1  0
 81 83  1  0
 83 82  1  0
 83 84  1  0
 85 86  1  1
 85 88  1  0
 87 85  1  0
 89 90  1  0
 90 93  1  0
 90 92  1  0
 91 90  1  0
M  ISO  4   1 100  15 100  47 101  48 101
M  END
>  <TORSDO>  (49) 
F 21

>  <SCORE>  (49) 
-9.500

>  <name>  (49) 
48

>  <ligand_id>  (49) 
48

>  <original_smiles>  (49) 
[H]c1c([H])c([H])c2c(c1[H])C([H])([H])C([H])([H])C([H])([H])C2([H])N([H])C(=O)C1([H])N(C(=O)C([H])(N([H])C(=O)C([H])(N([H])C([H])([H])[H])C([H])([H])[H])C(C([H])([H])[H])(C([H])([H])[H])C([H])([H])[H])C([H])([H])c2c([H])c(OC([H])([H])C([H])([H])C([H])([H])C([H])([H])C3([H])C([H])([H])N(C(=O)N4C([H])([H])C([H])([H])C([H])([H])C([H])(n5nc(-c6c([H])c([H])c(Oc7c([H])c([H])c(F)c([H])c7F)c([H])c6[H])c(C(=O)N([H])[H])c5N([H])[H])C4([H])[H])C([H])([H])C([H])(C([H])([H])[N+]([H])([H])[H])C3([H])C([H])([H])[H])c([H])c([H])c2C1([H])[H]

>  <smiles>  (49) 
[H]c1c([H])c([H])c2c(c1[H])C([H])([H])C([H])([H])C([H])([H])C2([H])N([H])C(=O)C1([H])N(C(=O)C([H])(N([H])C(=O)C([H])(N([H])C([H])([H])[H])C([H])([H])[H])C(C([H])([H])[H])(C([H])([H])[H])C([H])([H])[H])C([H])([H])c2c([H])c(OC([H])([H])C([H])([H])C([H])([H])C([H])([H])C3([H])C([H])([H])N(C(=O)N4C([H])([H])C([H])([H])C([H])([H])C([H])(n5nc(-c6c([H])c([H])c(Oc7c([H])c([H])c(F)c([H])c7F)c([H])c6[H])c(C(=O)N([H])[H])c5N([H])[H])C4([H])[H])C([H])([H])C([H])(C([H])([H])[N+]([H])([H])[H])C3([H])C([H])([H])[H])c([H])c([H])c2C1([H])[H]

$$$$
49:0:0
     RDKit          3D

 95103  0  0  1  0  0  0  0  0999 V2000
  -30.9740  -15.3640   20.2090 C   0  0  0  0  0  0  0  0  0  0  0  0
  -30.8240  -13.0280   19.2260 C   0  0  0  0  0  2  0  0  0  0  0  0
  -29.8670  -12.9850   18.0140 C   0  0  0  0  0  2  0  0  0  0  0  0
  -28.4180  -12.7520   18.4750 C   0  0  0  0  0  2  0  0  0  0  0  0
  -28.0310  -13.6480   19.6810 C   0  0  0  0  0  3  0  0  0  0  0  0
  -29.1130  -13.6530   20.7810 C   0  0  0  0  0  2  0  0  0  0  0  0
  -30.3550  -14.1100   20.1440 N   0  0  0  0  0  0  0  0  0  0  0  0
  -32.1610  -15.3930   19.8630 O   0  0  0  0  0  0  0  0  0  0  0  0
  -29.3460  -18.5590   21.6200 C   0  0  0  0  0  2  0  0  0  0  0  0
  -29.3610  -16.9900   21.4300 C   0  0  0  0  0  2  0  0  0  0  0  0
  -30.5500  -17.9990   19.6810 C   0  0  0  0  0  3  0  0  0  0  0  0
  -29.5760  -19.2080   20.2470 C   0  0  0  0  0  3  0  0  0  0  0  0
  -30.2460  -16.6030   20.3110 N   0  0  0  0  0  0  0  0  0  0  0  0
  -25.6640  -14.1780   20.4930 C   0  0  0  0  0  0  0  0  0  0  0  0
  -24.6130  -13.3830   20.8580 C   0  0  0  0  0  0  0  0  0  0  0  0
  -25.0860  -12.0380   20.7710 C   0  0  0  0  0  0  0  0  0  0  0  0
  -26.7090  -13.3180   20.2030 N   0  0  0  0  0  0  0  0  0  0  0  0
  -26.3720  -12.0230   20.4360 N   0  0  0  0  0  0  0  0  0  0  0  0
  -24.3700  -10.7630   20.9310 C   0  0  0  0  0  0  0  0  0  0  0  0
  -24.7740   -9.8030   21.8840 C   0  0  0  0  0  3  0  0  0  0  0  0
  -24.0570   -8.5970   22.0320 C   0  0  0  0  0  3  0  0  0  0  0  0
  -22.9200   -8.3430   21.2280 C   0  0  0  0  0  0  0  0  0  0  0  0
  -22.5370   -9.2920   20.2640 C   0  0  0  0  0  3  0  0  0  0  0  0
  -23.2540  -10.4900   20.1140 C   0  0  0  0  0  3  0  0  0  0  0  0
  -22.1780   -7.1880   21.2860 O   0  0  0  0  0  0  0  0  0  0  0  0
  -22.0060   -6.5010   22.4600 C   0  0  0  0  0  0  0  0  0  0  0  0
  -21.3650   -7.0820   23.5760 C   0  0  0  0  0  3  0  0  0  0  0  0
  -21.1460   -6.3160   24.7380 C   0  0  0  0  0  3  0  0  0  0  0  0
  -21.5590   -4.9720   24.7850 C   0  0  0  0  0  0  0  0  0  0  0  0
  -22.1910   -4.3900   23.6720 C   0  0  0  0  0  3  0  0  0  0  0  0
  -22.4110   -5.1510   22.5120 C   0  0  0  0  0  0  0  0  0  0  0  0
  -23.0020   -4.5800   21.4350 F   0  0  0  0  0  0  0  0  0  0  0  0
  -21.3410   -4.2330   25.8990 F   0  0  0  0  0  0  0  0  0  0  0  0
  -23.2180  -13.8400   21.1710 C   0  0  0  0  0  0  0  0  0  0  0  0
  -22.5230  -13.1270   22.0490 N   0  0  0  0  0  0  0  0  0  0  0  0
  -22.7570  -14.8670   20.6720 O   0  0  0  0  0  0  0  0  0  0  0  0
  -22.9110  -12.2980   22.4720 H   0  0  0  0  0  0  0  0  0  0  0  0
  -21.5880  -13.4170   22.3040 H   0  0  0  0  0  0  0  0  0  0  0  0
  -25.8130  -15.5550   20.3550 N   0  0  0  0  0  0  0  0  0  0  0  0
  -25.0360  -16.1950   20.4720 H   0  0  0  0  0  0  0  0  0  0  0  0
  -26.6460  -16.0010   19.9920 H   0  0  0  0  0  0  0  0  0  0  0  0
  -29.9450  -20.7640   20.2010 N   0  0  0  0  0  4  0  0  0  0  0  0
  -30.5060  -20.8820   19.3730 H   0  0  0  0  0  0  0  0  0  0  0  0
  -30.5660  -20.9430   20.9750 H   0  0  0  0  0  0  0  0  0  0  0  0
  -28.9100  -21.9760   20.1490 C   0  0  0  0  0  2  0  0  0  0  0  0
  -29.3420  -23.6260   20.1850 C   0  0  0  0  0  3  0  0  0  0  0  0
  -28.3030  -24.9540   19.9750 C   0  0  0  0  0  3  0  0  0  0  0  0
  -28.5540  -26.4840   20.2200 O   0  0  0  0  0  0  0  0  0  0  0  0
  -24.7400  -31.9820   23.3780 C   0  0  0  0  0  0  0  0  0  0  0  0
  -27.4830  -27.4560   20.1900 C   0  0  0  0  0  0  0  0  0  0  0  0
  -23.6090  -30.6420   21.6500 C   0  0  0  0  0  3  0  0  0  0  0  0
  -25.1230  -29.1670   20.1860 C   0  0  0  0  0  0  0  0  0  0  0  0
  -26.1630  -30.9590   21.5630 C   0  0  0  0  0  2  0  0  0  0  0  0
  -26.2810  -29.6020   20.8430 C   0  0  0  0  0  0  0  0  0  0  0  0
  -27.4610  -28.7650   20.8280 C   0  0  0  0  0  3  0  0  0  0  0  0
  -26.2920  -27.1240   19.5060 C   0  0  0  0  0  3  0  0  0  0  0  0
  -25.1430  -27.9430   19.5030 C   0  0  0  0  0  3  0  0  0  0  0  0
  -23.8790  -30.0410   20.2450 C   0  0  0  0  0  2  0  0  0  0  0  0
  -24.8560  -31.2120   22.2540 N   0  0  0  0  0  0  0  0  0  0  0  0
  -23.6340  -32.2190   23.8910 O   0  0  0  0  0  0  0  0  0  0  0  0
  -22.9310  -29.5720   22.5450 C   0  0  0  0  0  0  0  0  0  0  0  0
  -21.6140  -29.3690   22.3650 N   0  0  0  0  0  0  0  0  0  0  0  0
  -23.5930  -28.9350   23.3670 O   0  0  0  0  0  0  0  0  0  0  0  0
  -21.1360  -29.9410   21.6840 H   0  0  0  0  0  0  0  0  0  0  0  0
  -18.2350  -28.1240   22.7760 C   0  0  0  0  0  0  0  0  0  0  0  0
  -20.7930  -28.3800   23.0700 C   0  0  0  0  0  3  0  0  0  0  0  0
  -20.9040  -26.9890   22.4030 C   0  0  0  0  0  2  0  0  0  0  0  0
  -19.8060  -26.7290   21.3670 C   0  0  0  0  0  2  0  0  0  0  0  0
  -18.4200  -26.8230   22.0140 C   0  0  0  0  0  2  0  0  0  0  0  0
  -19.3490  -28.8630   23.2580 C   0  0  0  0  0  0  0  0  0  0  0  0
  -19.1200  -30.0800   23.9350 C   0  0  0  0  0  3  0  0  0  0  0  0
  -17.8120  -30.5600   24.1330 C   0  0  0  0  0  3  0  0  0  0  0  0
  -16.7130  -29.8160   23.6690 C   0  0  0  0  0  3  0  0  0  0  0  0
  -16.9260  -28.6010   22.9930 C   0  0  0  0  0  3  0  0  0  0  0  0
  -25.9860  -32.6170   24.0630 C   0  0  0  0  0  3  0  0  0  0  0  0
  -25.6740  -34.0280   24.3420 N   0  0  0  0  0  0  0  0  0  0  0  0
  -26.0070  -35.0560   23.5510 C   0  0  0  0  0  0  0  0  0  0  0  0
  -26.6740  -34.9160   22.5220 O   0  0  0  0  0  0  0  0  0  0  0  0
  -25.0840  -34.2080   25.1400 H   0  0  0  0  0  0  0  0  0  0  0  0
  -24.2570  -36.8240   23.1750 C   0  0  0  0  0  1  0  0  0  0  0  0
  -25.5230  -36.4600   23.9650 C   0  0  0  0  0  3  0  0  0  0  0  0
  -27.6610  -37.4090   24.7110 C   0  0  0  0  0  1  0  0  0  0  0  0
  -26.5440  -37.5140   23.7760 N   0  0  0  0  0  0  0  0  0  0  0  0
  -26.1310  -38.4380   23.8770 H   0  0  0  0  0  0  0  0  0  0  0  0
  -26.4050  -31.8750   25.3930 C   0  0  1  0  0  0  0  0  0  0  0  0
  -25.2380  -31.6640   26.3860 C   0  0  0  0  0  1  0  0  0  0  0  0
  -27.0110  -30.4870   25.0810 C   0  0  0  0  0  1  0  0  0  0  0  0
  -27.5090  -32.6820   26.1160 C   0  0  0  0  0  1  0  0  0  0  0  0
  -31.3090  -18.6300   17.3100 C   0  0  0  0  0  3  0  0  0  0  0  0
  -30.5040  -17.9390   18.1500 C   0  0  0  0  0  0  0  0  0  0  0  0
  -31.2210  -18.5560   15.8360 C   0  0  0  0  0  0  0  0  0  0  0  0
  -31.9450  -19.6220   15.0260 C   0  0  0  0  0  1  0  0  0  0  0  0
  -30.5740  -17.6920   15.2340 O   0  0  0  0  0  0  0  0  0  0  0  0
  -29.5490  -17.0860   17.7340 O   0  0  0  0  0  0  0  0  0  0  0  0
  -29.5870  -17.0670   16.7800 H   0  0  0  0  0  0  0  0  0  0  0  0
  1 13  1  0
  2  7  1  0
  3  4  1  0
  3  2  1  0
  5  4  1  0
  5 17  1  0
  5  6  1  0
  7  1  1  0
  7  6  1  0
  8  1  2  0
 10  9  1  0
 11 90  1  0
 11 12  1  0
 11 13  1  0
 12 42  1  0
 12  9  1  0
 13 10  1  0
 14 15  2  0
 15 34  1  0
 16 15  1  0
 16 19  1  0
 17 18  1  0
 17 14  1  0
 18 16  2  0
 19 20  1  0
 20 21  2  0
 22 25  1  0
 22 21  1  0
 23 22  2  0
 24 23  1  0
 24 19  2  0
 25 26  1  0
 26 31  2  0
 26 27  1  0
 27 28  2  0
 28 29  1  0
 29 33  1  0
 30 29  2  0
 31 30  1  0
 32 31  1  0
 34 35  1  0
 35 38  1  0
 35 37  1  0
 36 34  2  0
 39 40  1  0
 39 14  1  0
 41 39  1  0
 42 44  1  0
 43 42  1  0
 45 46  1  0
 45 42  1  0
 47 46  2  0
 47 48  1  0
 49 60  2  0
 50 48  1  0
 50 55  1  0
 51 59  1  0
 51 61  1  0
 52 58  1  0
 52 54  1  0
 53 59  1  0
 54 53  1  0
 55 54  2  0
 56 50  2  0
 57 56  1  0
 57 52  2  0
 58 51  1  0
 59 49  1  0
 61 63  2  0
 62 61  1  0
 64 62  1  0
 65 74  2  0
 65 70  1  0
 66 62  1  0
 66 70  1  0
 67 66  1  0
 68 69  1  0
 68 67  1  0
 69 65  1  0
 70 71  2  0
 71 72  1  0
 73 72  2  0
 74 73  1  0
 75 49  1  0
 75 76  1  0
 75 85  1  0
 76 79  1  0
 77 81  1  0
 77 76  1  0
 78 77  2  0
 81 80  1  0
 83 84  1  0
 83 81  1  0
 83 82  1  0
 85 88  1  1
 85 86  1  0
 87 85  1  0
 89 90  2  0
 91 89  1  0
 92 91  1  0
 93 91  2  0
 94 90  1  0
 95 94  1  0
M  ISO  4   1 100  13 100  47 101  48 101
M  END
>  <TORSDO>  (50) 
F 22

>  <SCORE>  (50) 
-12.908

>  <name>  (50) 
49

>  <ligand_id>  (50) 
49

>  <original_smiles>  (50) 
[H]OC(=C([H])C(=O)C([H])([H])[H])C1([H])N(C(=O)N2C([H])([H])C([H])([H])C([H])([H])C([H])(n3nc(-c4c([H])c([H])c(Oc5c([H])c([H])c(F)c([H])c5F)c([H])c4[H])c(C(=O)N([H])[H])c3N([H])[H])C2([H])[H])C([H])([H])C([H])([H])C1([H])[N+]([H])([H])C([H])([H])C([H])([H])C([H])([H])Oc1c([H])c([H])c2c(c1[H])C([H])([H])N(C(=O)C([H])(N([H])C(=O)C([H])(N([H])C([H])([H])[H])C([H])([H])[H])C(C([H])([H])[H])(C([H])([H])[H])C([H])([H])[H])C([H])(C(=O)N([H])C1([H])c3c([H])c([H])c([H])c([H])c3C([H])([H])C([H])([H])C1([H])[H])C2([H])[H]

>  <smiles>  (50) 
[H]OC(=C([H])C(=O)C([H])([H])[H])C1([H])N(C(=O)N2C([H])([H])C([H])([H])C([H])([H])C([H])(n3nc(-c4c([H])c([H])c(Oc5c([H])c([H])c(F)c([H])c5F)c([H])c4[H])c(C(=O)N([H])[H])c3N([H])[H])C2([H])[H])C([H])([H])C([H])([H])C1([H])[N+]([H])([H])C([H])([H])C([H])([H])C([H])([H])Oc1c([H])c([H])c2c(c1[H])C([H])([H])N(C(=O)C([H])(N([H])C(=O)C([H])(N([H])C([H])([H])[H])C([H])([H])[H])C(C([H])([H])[H])(C([H])([H])[H])C([H])([H])[H])C([H])(C(=O)N([H])C1([H])c3c([H])c([H])c([H])c([H])c3C([H])([H])C([H])([H])C1([H])[H])C2([H])[H]

$$$$
50:0:0
     RDKit          3D

 95103  0  0  1  0  0  0  0  0999 V2000
  -29.5140  -23.3530   19.6250 C   0  0  0  0  0  2  0  0  0  0  0  0
  -29.3320  -21.7970   19.7270 C   0  0  0  0  0  2  0  0  0  0  0  0
  -30.0890  -23.4190   22.0170 C   0  0  0  0  0  2  0  0  0  0  0  0
  -29.2070  -24.1160   20.9420 C   0  0  0  0  0  3  0  0  0  0  0  0
  -30.1990  -21.0740   20.8110 C   0  0  0  0  0  3  0  0  0  0  0  0
  -29.9920  -21.8580   22.1550 C   0  0  0  0  0  3  0  0  0  0  0  0
  -29.8710  -19.5100   20.9440 C   0  0  0  0  0  2  0  0  0  0  0  0
  -30.7260  -18.4130   20.1880 C   0  0  0  0  0  2  0  0  0  0  0  0
  -31.3280  -17.1900   21.0020 C   0  0  0  0  0  2  0  0  0  0  0  0
  -31.5030  -14.6770   20.3960 C   0  0  0  0  0  0  0  0  0  0  0  0
  -31.1380  -12.4620   19.3320 C   0  0  0  0  0  2  0  0  0  0  0  0
  -30.2450  -12.6450   18.0870 C   0  0  0  0  0  2  0  0  0  0  0  0
  -28.7530  -12.6060   18.4730 C   0  0  0  0  0  2  0  0  0  0  0  0
  -28.4250  -13.5140   19.6870 C   0  0  0  0  0  3  0  0  0  0  0  0
  -29.4310  -13.2970   20.8380 C   0  0  0  0  0  2  0  0  0  0  0  0
  -30.7770  -13.5220   20.2920 N   0  0  0  0  0  0  0  0  0  0  0  0
  -32.6880  -14.7280   20.0580 O   0  0  0  0  0  0  0  0  0  0  0  0
  -30.8100  -15.8080   20.7290 N   0  0  0  0  0  0  0  0  0  0  0  0
  -29.8310  -15.6610   20.9190 H   0  0  0  0  0  0  0  0  0  0  0  0
  -26.0660  -14.3050   20.3310 C   0  0  0  0  0  0  0  0  0  0  0  0
  -24.9310  -13.6200   20.6700 C   0  0  0  0  0  0  0  0  0  0  0  0
  -25.2860  -12.2360   20.6570 C   0  0  0  0  0  0  0  0  0  0  0  0
  -27.0440  -13.3430   20.1320 N   0  0  0  0  0  0  0  0  0  0  0  0
  -26.5770  -12.0950   20.3880 N   0  0  0  0  0  0  0  0  0  0  0  0
  -24.4570  -11.0350   20.8270 C   0  0  0  0  0  0  0  0  0  0  0  0
  -24.7800  -10.0440   21.7790 C   0  0  0  0  0  3  0  0  0  0  0  0
  -23.9570   -8.9070   21.9370 C   0  0  0  0  0  3  0  0  0  0  0  0
  -22.7970   -8.7560   21.1400 C   0  0  0  0  0  0  0  0  0  0  0  0
  -22.4930   -9.7350   20.1780 C   0  0  0  0  0  3  0  0  0  0  0  0
  -23.3160  -10.8610   20.0190 C   0  0  0  0  0  3  0  0  0  0  0  0
  -21.9530   -7.6740   21.2060 O   0  0  0  0  0  0  0  0  0  0  0  0
  -21.7720   -6.9720   22.3710 C   0  0  0  0  0  0  0  0  0  0  0  0
  -21.3370   -7.5980   23.5590 C   0  0  0  0  0  3  0  0  0  0  0  0
  -21.0980   -6.8270   24.7150 C   0  0  0  0  0  3  0  0  0  0  0  0
  -21.2820   -5.4330   24.6820 C   0  0  0  0  0  0  0  0  0  0  0  0
  -21.7100   -4.8060   23.4980 C   0  0  0  0  0  3  0  0  0  0  0  0
  -21.9510   -5.5740   22.3450 C   0  0  0  0  0  0  0  0  0  0  0  0
  -22.3430   -4.9620   21.2010 F   0  0  0  0  0  0  0  0  0  0  0  0
  -21.0460   -4.6910   25.7890 F   0  0  0  0  0  0  0  0  0  0  0  0
  -23.5670  -14.2060   20.8970 C   0  0  0  0  0  0  0  0  0  0  0  0
  -22.7700  -13.5880   21.7620 N   0  0  0  0  0  0  0  0  0  0  0  0
  -23.2190  -15.2480   20.3440 O   0  0  0  0  0  0  0  0  0  0  0  0
  -23.0630  -12.7430   22.2310 H   0  0  0  0  0  0  0  0  0  0  0  0
  -21.8540  -13.9650   21.9590 H   0  0  0  0  0  0  0  0  0  0  0  0
  -26.3430  -15.6580   20.1540 N   0  0  0  0  0  0  0  0  0  0  0  0
  -25.6220  -16.3680   20.2290 H   0  0  0  0  0  0  0  0  0  0  0  0
  -27.2270  -16.0260   19.8270 H   0  0  0  0  0  0  0  0  0  0  0  0
  -30.9960  -21.4070   23.2560 C   0  0  0  0  0  2  0  0  0  0  0  0
  -30.5950  -21.8440   24.6820 C   0  0  0  0  0  2  0  0  0  0  0  0
  -31.6310  -21.5160   25.6770 N   0  0  0  0  0  4  0  0  0  0  0  0
  -31.8100  -20.5290   25.7030 H   0  0  0  0  0  0  0  0  0  0  0  0
  -31.3270  -21.8010   26.5930 H   0  0  0  0  0  0  0  0  0  0  0  0
  -32.4890  -21.9970   25.4730 H   0  0  0  0  0  0  0  0  0  0  0  0
  -29.4880  -25.6900   20.9600 C   0  0  0  0  0  2  0  0  0  0  0  0
  -29.1690  -26.5810   19.8460 O   0  0  0  0  0  0  0  0  0  0  0  0
  -24.9880  -31.5140   23.0520 C   0  0  0  0  0  0  0  0  0  0  0  0
  -27.9720  -27.2890   19.9090 C   0  0  0  0  0  0  0  0  0  0  0  0
  -23.8970  -30.0320   21.4030 C   0  0  0  0  0  3  0  0  0  0  0  0
  -25.4680  -28.6380   19.9460 C   0  0  0  0  0  0  0  0  0  0  0  0
  -26.3870  -30.5970   21.1910 C   0  0  0  0  0  2  0  0  0  0  0  0
  -26.5890  -29.2390   20.5360 C   0  0  0  0  0  0  0  0  0  0  0  0
  -27.8480  -28.5730   20.5100 C   0  0  0  0  0  3  0  0  0  0  0  0
  -26.8340  -26.7210   19.3090 C   0  0  0  0  0  3  0  0  0  0  0  0
  -25.5880  -27.3820   19.3260 C   0  0  0  0  0  3  0  0  0  0  0  0
  -24.1550  -29.3910   20.0140 C   0  0  0  0  0  2  0  0  0  0  0  0
  -25.1080  -30.7330   21.9390 N   0  0  0  0  0  0  0  0  0  0  0  0
  -23.8920  -31.6830   23.6040 O   0  0  0  0  0  0  0  0  0  0  0  0
  -23.3440  -28.9470   22.3580 C   0  0  0  0  0  0  0  0  0  0  0  0
  -22.0670  -28.5750   22.1720 N   0  0  0  0  0  0  0  0  0  0  0  0
  -24.0660  -28.4390   23.2210 O   0  0  0  0  0  0  0  0  0  0  0  0
  -21.5390  -29.0450   21.4500 H   0  0  0  0  0  0  0  0  0  0  0  0
  -18.9190  -26.8170   22.4470 C   0  0  0  0  0  0  0  0  0  0  0  0
  -21.3540  -27.5440   22.9260 C   0  0  0  0  0  3  0  0  0  0  0  0
  -21.7610  -26.1290   22.4530 C   0  0  0  0  0  2  0  0  0  0  0  0
  -20.8370  -25.5670   21.3680 C   0  0  0  0  0  2  0  0  0  0  0  0
  -19.3950  -25.4910   21.8760 C   0  0  0  0  0  2  0  0  0  0  0  0
  -19.8410  -27.7870   22.9250 C   0  0  0  0  0  0  0  0  0  0  0  0
  -19.3470  -29.0170   23.4140 C   0  0  0  0  0  3  0  0  0  0  0  0
  -17.9650  -29.2820   23.4320 C   0  0  0  0  0  3  0  0  0  0  0  0
  -17.0580  -28.3130   22.9710 C   0  0  0  0  0  3  0  0  0  0  0  0
  -17.5350  -27.0830   22.4850 C   0  0  0  0  0  3  0  0  0  0  0  0
  -26.2180  -32.2510   23.6690 C   0  0  0  0  0  3  0  0  0  0  0  0
  -26.8330  -31.5000   24.9120 C   0  0  1  0  0  0  0  0  0  0  0  0
  -25.7920  -31.1340   25.9960 C   0  0  0  0  0  1  0  0  0  0  0  0
  -27.5310  -30.1930   24.4680 C   0  0  0  0  0  1  0  0  0  0  0  0
  -27.9200  -32.3800   25.5720 C   0  0  0  0  0  1  0  0  0  0  0  0
  -25.7800  -33.6030   24.0460 N   0  0  0  0  0  0  0  0  0  0  0  0
  -26.0140  -34.7070   23.3250 C   0  0  0  0  0  0  0  0  0  0  0  0
  -26.6900  -34.7020   22.2920 O   0  0  0  0  0  0  0  0  0  0  0  0
  -25.1730  -33.6740   24.8490 H   0  0  0  0  0  0  0  0  0  0  0  0
  -24.1290  -36.3470   23.0250 C   0  0  0  0  0  1  0  0  0  0  0  0
  -25.4000  -36.0290   23.8270 C   0  0  0  0  0  3  0  0  0  0  0  0
  -27.4440  -37.0730   24.6980 C   0  0  0  0  0  1  0  0  0  0  0  0
  -26.3330  -37.1750   23.7570 N   0  0  0  0  0  0  0  0  0  0  0  0
  -25.8440  -38.0480   23.9380 H   0  0  0  0  0  0  0  0  0  0  0  0
  1  2  1  0
  1  4  1  0
  2  5  1  0
  3  6  1  0
  4 54  1  0
  4  3  1  0
  5  7  1  0
  5  6  1  0
  6 48  1  0
  8  7  1  0
  8  9  1  0
 10 18  1  0
 11 16  1  0
 12 13  1  0
 12 11  1  0
 14 13  1  0
 14 23  1  0
 14 15  1  0
 16 10  1  0
 16 15  1  0
 17 10  2  0
 18 19  1  0
 18  9  1  0
 20 21  2  0
 21 40  1  0
 22 21  1  0
 22 25  1  0
 23 20  1  0
 23 24  1  0
 24 22  2  0
 25 26  1  0
 26 27  2  0
 28 31  1  0
 28 27  1  0
 29 28  2  0
 30 29  1  0
 30 25  2  0
 31 32  1  0
 32 33  1  0
 33 34  2  0
 35 34  1  0
 35 39  1  0
 36 35  2  0
 37 32  2  0
 37 36  1  0
 38 37  1  0
 40 41  1  0
 41 44  1  0
 41 43  1  0
 42 40  2  0
 45 46  1  0
 45 20  1  0
 47 45  1  0
 48 49  1  0
 49 50  1  0
 50 51  1  0
 50 52  1  0
 53 50  1  0
 55 57  1  0
 55 54  1  0
 56 67  2  0
 57 62  1  0
 58 66  1  0
 58 68  1  0
 59 65  1  0
 59 61  1  0
 60 66  1  0
 61 60  1  0
 62 61  2  0
 63 64  1  0
 63 57  2  0
 64 59  2  0
 65 58  1  0
 66 56  1  0
 68 70  2  0
 69 68  1  0
 71 69  1  0
 72 81  2  0
 72 77  1  0
 73 69  1  0
 74 73  1  0
 75 76  1  0
 75 74  1  0
 76 72  1  0
 77 73  1  0
 77 78  2  0
 78 79  1  0
 80 79  2  0
 81 80  1  0
 82 56  1  0
 82 87  1  0
 82 83  1  0
 83 86  1  1
 83 84  1  0
 85 83  1  0
 87 90  1  0
 88 92  1  0
 88 87  1  0
 89 88  2  0
 92 91  1  0
 94 92  1  0
 94 95  1  0
 94 93  1  0
M  ISO  4  10 100  18 100  54 101  55 101
M  END
>  <TORSDO>  (51) 
F 23

>  <SCORE>  (51) 
-10.734

>  <name>  (51) 
50

>  <ligand_id>  (51) 
50

>  <original_smiles>  (51) 
[H]c1c([H])c([H])c2c(c1[H])C([H])([H])C([H])([H])C([H])([H])C2([H])N([H])C(=O)C1([H])N(C(=O)C([H])(N([H])C(=O)C([H])(N([H])C([H])([H])[H])C([H])([H])[H])C(C([H])([H])[H])(C([H])([H])[H])C([H])([H])[H])C([H])([H])c2c([H])c(OC([H])([H])C3([H])C([H])([H])C([H])([H])C([H])(C([H])([H])C([H])([H])C([H])([H])N([H])C(=O)N4C([H])([H])C([H])([H])C([H])([H])C([H])(n5nc(-c6c([H])c([H])c(Oc7c([H])c([H])c(F)c([H])c7F)c([H])c6[H])c(C(=O)N([H])[H])c5N([H])[H])C4([H])[H])C([H])(C([H])([H])C([H])([H])[N+]([H])([H])[H])C3([H])[H])c([H])c([H])c2C1([H])[H]

>  <smiles>  (51) 
[H]c1c([H])c([H])c2c(c1[H])C([H])([H])C([H])([H])C([H])([H])C2([H])N([H])C(=O)C1([H])N(C(=O)C([H])(N([H])C(=O)C([H])(N([H])C([H])([H])[H])C([H])([H])[H])C(C([H])([H])[H])(C([H])([H])[H])C([H])([H])[H])C([H])([H])c2c([H])c(OC([H])([H])C3([H])C([H])([H])C([H])([H])C([H])(C([H])([H])C([H])([H])C([H])([H])N([H])C(=O)N4C([H])([H])C([H])([H])C([H])([H])C([H])(n5nc(-c6c([H])c([H])c(Oc7c([H])c([H])c(F)c([H])c7F)c([H])c6[H])c(C(=O)N([H])[H])c5N([H])[H])C4([H])[H])C([H])(C([H])([H])C([H])([H])[N+]([H])([H])[H])C3([H])[H])c([H])c([H])c2C1([H])[H]

$$$$
51:0:0
     RDKit          3D

 91 99  0  0  1  0  0  0  0  0999 V2000
  -28.3400  -20.8510   19.2480 C   0  0  0  0  0  0  0  0  0  0  0  0
  -28.6120  -22.2260   19.5260 N   0  0  0  0  0  0  0  0  0  0  0  0
  -27.3740  -20.6140   18.5230 O   0  0  0  0  0  0  0  0  0  0  0  0
  -29.5020  -22.3390   19.9910 H   0  0  0  0  0  0  0  0  0  0  0  0
  -30.5470  -15.5010   19.7380 C   0  0  0  0  0  0  0  0  0  0  0  0
  -30.4510  -13.0830   18.9600 C   0  0  0  0  0  2  0  0  0  0  0  0
  -29.4610  -12.9290   17.7860 C   0  0  0  0  0  2  0  0  0  0  0  0
  -28.0380  -12.6710   18.3120 C   0  0  0  0  0  2  0  0  0  0  0  0
  -27.6610  -13.6160   19.4850 C   0  0  0  0  0  3  0  0  0  0  0  0
  -28.7840  -13.7670   20.5350 C   0  0  0  0  0  2  0  0  0  0  0  0
  -29.9840  -14.2190   19.8210 N   0  0  0  0  0  0  0  0  0  0  0  0
  -31.6800  -15.5470   19.2410 O   0  0  0  0  0  0  0  0  0  0  0  0
  -30.3010  -19.7970   20.7630 C   0  0  0  0  0  2  0  0  0  0  0  0
  -29.3640  -17.9490   19.2900 C   0  0  0  0  0  2  0  0  0  0  0  0
  -30.6830  -17.2760   21.3300 C   0  0  0  0  0  2  0  0  0  0  0  0
  -29.0790  -19.4950   19.9200 C   0  0  0  0  0  3  0  0  0  0  0  0
  -30.3990  -18.7200   21.8610 C   0  0  0  0  0  3  0  0  0  0  0  0
  -29.9240  -16.7340   20.1620 N   0  0  0  0  0  0  0  0  0  0  0  0
  -25.3640  -14.0990   20.4860 C   0  0  0  0  0  0  0  0  0  0  0  0
  -24.3440  -13.2860   20.8950 C   0  0  0  0  0  0  0  0  0  0  0  0
  -24.8110  -11.9460   20.7210 C   0  0  0  0  0  0  0  0  0  0  0  0
  -26.3830  -13.2550   20.0870 N   0  0  0  0  0  0  0  0  0  0  0  0
  -26.0670  -11.9500   20.2910 N   0  0  0  0  0  0  0  0  0  0  0  0
  -24.1090  -10.6650   20.8840 C   0  0  0  0  0  0  0  0  0  0  0  0
  -24.5260   -9.7100   21.8400 C   0  0  0  0  0  3  0  0  0  0  0  0
  -23.8200   -8.4970   21.9960 C   0  0  0  0  0  3  0  0  0  0  0  0
  -22.6860   -8.2280   21.1950 C   0  0  0  0  0  0  0  0  0  0  0  0
  -22.2860   -9.1730   20.2310 C   0  0  0  0  0  3  0  0  0  0  0  0
  -22.9930  -10.3770   20.0740 C   0  0  0  0  0  3  0  0  0  0  0  0
  -21.9550   -7.0660   21.2570 O   0  0  0  0  0  0  0  0  0  0  0  0
  -21.7930   -6.3780   22.4330 C   0  0  0  0  0  0  0  0  0  0  0  0
  -21.0940   -6.9310   23.5270 C   0  0  0  0  0  3  0  0  0  0  0  0
  -20.8910   -6.1640   24.6920 C   0  0  0  0  0  3  0  0  0  0  0  0
  -21.3770   -4.8450   24.7610 C   0  0  0  0  0  0  0  0  0  0  0  0
  -22.0710   -4.2920   23.6710 C   0  0  0  0  0  3  0  0  0  0  0  0
  -22.2760   -5.0560   22.5090 C   0  0  0  0  0  0  0  0  0  0  0  0
  -22.9240   -4.5110   21.4500 F   0  0  0  0  0  0  0  0  0  0  0  0
  -21.1790   -4.1030   25.8760 F   0  0  0  0  0  0  0  0  0  0  0  0
  -22.9770  -13.7270   21.3290 C   0  0  0  0  0  0  0  0  0  0  0  0
  -22.3360  -12.9590   22.2020 N   0  0  0  0  0  0  0  0  0  0  0  0
  -22.4900  -14.7850   20.9340 O   0  0  0  0  0  0  0  0  0  0  0  0
  -22.7450  -12.1020   22.5430 H   0  0  0  0  0  0  0  0  0  0  0  0
  -21.4240  -13.2310   22.5360 H   0  0  0  0  0  0  0  0  0  0  0  0
  -25.5030  -15.4820   20.3950 N   0  0  0  0  0  0  0  0  0  0  0  0
  -24.7510  -16.1210   20.6260 H   0  0  0  0  0  0  0  0  0  0  0  0
  -26.3260  -15.9510   20.0410 H   0  0  0  0  0  0  0  0  0  0  0  0
  -31.1730  -18.6550   24.3190 C   0  0  0  0  0  1  0  0  0  0  0  0
  -31.4460  -19.1690   22.9010 C   0  0  0  0  0  2  0  0  0  0  0  0
  -27.7150  -23.5440   19.6720 C   0  0  0  0  0  2  0  0  0  0  0  0
  -27.8290  -25.0520   18.8960 C   0  0  0  0  0  2  0  0  0  0  0  0
  -27.8250  -26.5140   19.4790 O   0  0  0  0  0  0  0  0  0  0  0  0
  -24.4760  -31.9670   23.1490 C   0  0  0  0  0  0  0  0  0  0  0  0
  -26.7490  -27.4790   19.5490 C   0  0  0  0  0  0  0  0  0  0  0  0
  -23.1280  -30.6860   21.5330 C   0  0  0  0  0  3  0  0  0  0  0  0
  -24.4310  -29.2210   19.8660 C   0  0  0  0  0  0  0  0  0  0  0  0
  -25.6580  -30.9630   21.1590 C   0  0  0  0  0  2  0  0  0  0  0  0
  -25.6600  -29.6240   20.3970 C   0  0  0  0  0  0  0  0  0  0  0  0
  -26.8130  -28.7670   20.2280 C   0  0  0  0  0  3  0  0  0  0  0  0
  -25.4870  -27.1780   18.9970 C   0  0  0  0  0  3  0  0  0  0  0  0
  -24.3560  -28.0110   19.1550 C   0  0  0  0  0  3  0  0  0  0  0  0
  -23.2160  -30.1080   20.0940 C   0  0  0  0  0  2  0  0  0  0  0  0
  -24.4450  -31.2250   21.9990 N   0  0  0  0  0  0  0  0  0  0  0  0
  -23.4440  -32.2110   23.7920 O   0  0  0  0  0  0  0  0  0  0  0  0
  -22.5390  -29.6110   22.4790 C   0  0  0  0  0  0  0  0  0  0  0  0
  -21.2230  -29.3590   22.3780 N   0  0  0  0  0  0  0  0  0  0  0  0
  -23.2700  -29.0090   23.2710 O   0  0  0  0  0  0  0  0  0  0  0  0
  -20.6840  -29.8980   21.7130 H   0  0  0  0  0  0  0  0  0  0  0  0
  -17.9530  -27.8800   22.8650 C   0  0  0  0  0  0  0  0  0  0  0  0
  -20.4830  -28.3480   23.1390 C   0  0  0  0  0  3  0  0  0  0  0  0
  -20.7020  -26.9360   22.5470 C   0  0  0  0  0  2  0  0  0  0  0  0
  -19.6310  -26.5380   21.5280 C   0  0  0  0  0  2  0  0  0  0  0  0
  -18.2400  -26.5600   22.1710 C   0  0  0  0  0  2  0  0  0  0  0  0
  -19.0050  -28.7280   23.3040 C   0  0  0  0  0  0  0  0  0  0  0  0
  -18.6800  -29.9600   23.9120 C   0  0  0  0  0  3  0  0  0  0  0  0
  -17.3380  -30.3460   24.0890 C   0  0  0  0  0  3  0  0  0  0  0  0
  -16.3010  -29.4950   23.6680 C   0  0  0  0  0  3  0  0  0  0  0  0
  -16.6100  -28.2660   23.0590 C   0  0  0  0  0  3  0  0  0  0  0  0
  -25.8090  -32.5630   23.6990 C   0  0  0  0  0  3  0  0  0  0  0  0
  -26.4150  -31.7320   24.8990 C   0  0  1  0  0  0  0  0  0  0  0  0
  -25.4000  -31.4430   26.0290 C   0  0  0  0  0  1  0  0  0  0  0  0
  -26.9700  -30.3760   24.4100 C   0  0  0  0  0  1  0  0  0  0  0  0
  -27.6070  -32.4990   25.5160 C   0  0  0  0  0  1  0  0  0  0  0  0
  -25.5390  -33.9460   24.1260 N   0  0  0  0  0  0  0  0  0  0  0  0
  -25.8460  -35.0410   23.4190 C   0  0  0  0  0  0  0  0  0  0  0  0
  -26.4580  -34.9940   22.3470 O   0  0  0  0  0  0  0  0  0  0  0  0
  -24.9950  -34.0610   24.9700 H   0  0  0  0  0  0  0  0  0  0  0  0
  -24.1610  -36.9030   23.2480 C   0  0  0  0  0  1  0  0  0  0  0  0
  -25.4100  -36.4050   23.9920 C   0  0  0  0  0  3  0  0  0  0  0  0
  -27.5710  -37.1880   24.8560 C   0  0  0  0  0  1  0  0  0  0  0  0
  -26.4660  -37.4390   23.9320 N   0  0  0  0  0  0  0  0  0  0  0  0
  -26.0810  -38.3550   24.1400 H   0  0  0  0  0  0  0  0  0  0  0  0
  1  2  1  0
  2 49  1  0
  2  4  1  0
  3  1  2  0
  5 11  1  0
  5 18  1  0
  6 11  1  0
  7  8  1  0
  7  6  1  0
  9  8  1  0
  9 22  1  0
  9 10  1  0
 11 10  1  0
 12  5  2  0
 13 17  1  0
 14 16  1  0
 14 18  1  0
 15 17  1  0
 16  1  1  0
 16 13  1  0
 17 48  1  0
 18 15  1  0
 19 20  2  0
 20 39  1  0
 21 24  1  0
 21 20  1  0
 22 23  1  0
 22 19  1  0
 23 21  2  0
 24 25  1  0
 25 26  2  0
 27 30  1  0
 27 26  1  0
 28 27  2  0
 29 28  1  0
 29 24  2  0
 30 31  1  0
 31 36  2  0
 31 32  1  0
 32 33  2  0
 33 34  1  0
 34 38  1  0
 35 34  2  0
 36 35  1  0
 37 36  1  0
 39 40  1  0
 40 43  1  0
 40 42  1  0
 41 39  2  0
 44 19  1  0
 44 45  1  0
 46 44  1  0
 48 47  1  0
 50 51  1  0
 50 49  1  0
 51 53  1  0
 52 63  2  0
 53 58  1  0
 54 62  1  0
 54 64  1  0
 55 61  1  0
 55 57  1  0
 56 62  1  0
 57 56  1  0
 58 57  2  0
 59 60  1  0
 59 53  2  0
 60 55  2  0
 61 54  1  0
 62 52  1  0
 64 66  2  0
 65 64  1  0
 67 65  1  0
 68 77  2  0
 68 73  1  0
 69 65  1  0
 69 73  1  0
 70 69  1  0
 71 72  1  0
 71 70  1  0
 72 68  1  0
 73 74  2  0
 74 75  1  0
 76 75  2  0
 77 76  1  0
 78 52  1  0
 78 83  1  0
 78 79  1  0
 79 82  1  1
 79 80  1  0
 81 79  1  0
 83 86  1  0
 84 88  1  0
 84 83  1  0
 85 84  2  0
 88 87  1  0
 90 88  1  0
 90 91  1  0
 90 89  1  0
M  ISO  4   5 100  18 100  50 101  51 101
M  END
>  <TORSDO>  (52) 
F 19

>  <SCORE>  (52) 
-13.087

>  <name>  (52) 
51

>  <ligand_id>  (52) 
51

>  <original_smiles>  (52) 
[H]c1c([H])c([H])c2c(c1[H])C([H])([H])C([H])([H])C([H])([H])C2([H])N([H])C(=O)C1([H])N(C(=O)C([H])(N([H])C(=O)C([H])(N([H])C([H])([H])[H])C([H])([H])[H])C(C([H])([H])[H])(C([H])([H])[H])C([H])([H])[H])C([H])([H])c2c([H])c(OC([H])([H])C([H])([H])N([H])C(=O)C3([H])C([H])([H])N(C(=O)N4C([H])([H])C([H])([H])C([H])([H])C([H])(n5nc(-c6c([H])c([H])c(Oc7c([H])c([H])c(F)c([H])c7F)c([H])c6[H])c(C(=O)N([H])[H])c5N([H])[H])C4([H])[H])C([H])([H])C([H])(C([H])([H])C([H])([H])[H])C3([H])[H])c([H])c([H])c2C1([H])[H]

>  <smiles>  (52) 
[H]c1c([H])c([H])c2c(c1[H])C([H])([H])C([H])([H])C([H])([H])C2([H])N([H])C(=O)C1([H])N(C(=O)C([H])(N([H])C(=O)C([H])(N([H])C([H])([H])[H])C([H])([H])[H])C(C([H])([H])[H])(C([H])([H])[H])C([H])([H])[H])C([H])([H])c2c([H])c(OC([H])([H])C([H])([H])N([H])C(=O)C3([H])C([H])([H])N(C(=O)N4C([H])([H])C([H])([H])C([H])([H])C([H])(n5nc(-c6c([H])c([H])c(Oc7c([H])c([H])c(F)c([H])c7F)c([H])c6[H])c(C(=O)N([H])[H])c5N([H])[H])C4([H])[H])C([H])([H])C([H])(C([H])([H])C([H])([H])[H])C3([H])[H])c([H])c([H])c2C1([H])[H]

$$$$
52:0:0
     RDKit          3D

 91 99  0  0  1  0  0  0  0  0999 V2000
  -30.6520  -20.9700   19.6230 C   0  0  0  0  0  2  0  0  0  0  0  0
  -29.0400  -19.6110   20.7840 C   0  0  0  0  0  2  0  0  0  0  0  0
  -29.5950  -21.0980   20.7250 C   0  0  0  0  0  3  0  0  0  0  0  0
  -30.8700  -19.4590   19.3010 C   0  0  0  0  0  3  0  0  0  0  0  0
  -30.1820  -18.5850   20.3930 C   0  0  0  0  0  3  0  0  0  0  0  0
  -32.9530  -19.8490   17.8410 C   0  0  0  0  0  1  0  0  0  0  0  0
  -32.3530  -19.1110   19.0510 C   0  0  0  0  0  2  0  0  0  0  0  0
  -27.5830  -22.2460   21.7620 C   0  0  0  0  0  1  0  0  0  0  0  0
  -28.5660  -22.3320   20.5770 C   0  0  0  0  0  3  0  0  0  0  0  0
  -29.1050  -23.8560   20.4540 C   0  0  0  0  0  3  0  0  0  0  0  0
  -28.0470  -25.0040   20.0580 C   0  0  0  0  0  3  0  0  0  0  0  0
  -28.3180  -26.4690   20.1670 O   0  0  0  0  0  0  0  0  0  0  0  0
  -24.6400  -31.8790   23.2520 C   0  0  0  0  0  0  0  0  0  0  0  0
  -27.2120  -27.3460   20.1150 C   0  0  0  0  0  0  0  0  0  0  0  0
  -23.4140  -30.5060   21.6040 C   0  0  0  0  0  3  0  0  0  0  0  0
  -24.8460  -28.9740   20.1370 C   0  0  0  0  0  0  0  0  0  0  0  0
  -25.9520  -30.8220   21.3970 C   0  0  0  0  0  2  0  0  0  0  0  0
  -26.0240  -29.4520   20.7280 C   0  0  0  0  0  0  0  0  0  0  0  0
  -27.2080  -28.6510   20.7060 C   0  0  0  0  0  3  0  0  0  0  0  0
  -26.0100  -26.9380   19.4860 C   0  0  0  0  0  3  0  0  0  0  0  0
  -24.8450  -27.7250   19.5020 C   0  0  0  0  0  3  0  0  0  0  0  0
  -23.6080  -29.8430   20.2140 C   0  0  0  0  0  2  0  0  0  0  0  0
  -24.6870  -31.0850   22.1410 N   0  0  0  0  0  0  0  0  0  0  0  0
  -23.5640  -32.1500   23.8050 O   0  0  0  0  0  0  0  0  0  0  0  0
  -22.7620  -29.4790   22.5610 C   0  0  0  0  0  0  0  0  0  0  0  0
  -21.4360  -29.2910   22.4370 N   0  0  0  0  0  0  0  0  0  0  0  0
  -23.4490  -28.8560   23.3740 O   0  0  0  0  0  0  0  0  0  0  0  0
  -20.9390  -29.8440   21.7520 H   0  0  0  0  0  0  0  0  0  0  0  0
  -18.0700  -28.0740   22.9460 C   0  0  0  0  0  0  0  0  0  0  0  0
  -20.6270  -28.3460   23.2090 C   0  0  0  0  0  3  0  0  0  0  0  0
  -20.7380  -26.9190   22.6250 C   0  0  0  0  0  2  0  0  0  0  0  0
  -19.6350  -26.5960   21.6130 C   0  0  0  0  0  2  0  0  0  0  0  0
  -18.2540  -26.7320   22.2610 C   0  0  0  0  0  2  0  0  0  0  0  0
  -19.1860  -28.8400   23.3770 C   0  0  0  0  0  0  0  0  0  0  0  0
  -18.9600  -30.1000   23.9740 C   0  0  0  0  0  3  0  0  0  0  0  0
  -17.6510  -30.5900   24.1490 C   0  0  0  0  0  3  0  0  0  0  0  0
  -16.5520  -29.8210   23.7350 C   0  0  0  0  0  3  0  0  0  0  0  0
  -16.7620  -28.5650   23.1380 C   0  0  0  0  0  3  0  0  0  0  0  0
  -25.9320  -32.5000   23.8630 C   0  0  0  0  0  3  0  0  0  0  0  0
  -25.6360  -33.8980   24.2040 N   0  0  0  0  0  0  0  0  0  0  0  0
  -25.9440  -34.9530   23.4400 C   0  0  0  0  0  0  0  0  0  0  0  0
  -26.5790  -34.8560   22.3880 O   0  0  0  0  0  0  0  0  0  0  0  0
  -25.0740  -34.0490   25.0300 H   0  0  0  0  0  0  0  0  0  0  0  0
  -24.1970  -36.7400   23.1530 C   0  0  0  0  0  1  0  0  0  0  0  0
  -25.4670  -36.3400   23.9180 C   0  0  0  0  0  3  0  0  0  0  0  0
  -27.6230  -37.2330   24.6780 C   0  0  0  0  0  1  0  0  0  0  0  0
  -26.4900  -37.3980   23.7720 N   0  0  0  0  0  0  0  0  0  0  0  0
  -26.0830  -38.3150   23.9370 H   0  0  0  0  0  0  0  0  0  0  0  0
  -26.4580  -31.7190   25.1290 C   0  0  1  0  0  0  0  0  0  0  0  0
  -25.3730  -31.4800   26.2040 C   0  0  0  0  0  1  0  0  0  0  0  0
  -27.0310  -30.3420   24.7240 C   0  0  0  0  0  1  0  0  0  0  0  0
  -27.6170  -32.5040   25.7890 C   0  0  0  0  0  1  0  0  0  0  0  0
  -29.7810  -17.1270   19.8210 C   0  0  0  0  0  2  0  0  0  0  0  0
  -30.6460  -14.7250   20.2570 C   0  0  0  0  0  0  0  0  0  0  0  0
  -30.4020  -12.4790   19.2130 C   0  0  0  0  0  2  0  0  0  0  0  0
  -29.4580  -12.6230   17.9980 C   0  0  0  0  0  2  0  0  0  0  0  0
  -27.9860  -12.4660   18.4290 C   0  0  0  0  0  2  0  0  0  0  0  0
  -27.6400  -13.3200   19.6790 C   0  0  0  0  0  3  0  0  0  0  0  0
  -28.7050  -13.1760   20.7920 C   0  0  0  0  0  2  0  0  0  0  0  0
  -30.0140  -13.5030   20.2120 N   0  0  0  0  0  0  0  0  0  0  0  0
  -31.7840  -14.8620   19.8040 O   0  0  0  0  0  0  0  0  0  0  0  0
  -29.8920  -15.8260   20.5970 N   0  0  0  0  0  0  0  0  0  0  0  0
  -29.0510  -15.5830   21.0990 H   0  0  0  0  0  0  0  0  0  0  0  0
  -25.2480  -13.9060   20.4020 C   0  0  0  0  0  0  0  0  0  0  0  0
  -24.1860  -13.1300   20.7820 C   0  0  0  0  0  0  0  0  0  0  0  0
  -24.6540  -11.7800   20.7600 C   0  0  0  0  0  0  0  0  0  0  0  0
  -26.2940  -13.0310   20.1700 N   0  0  0  0  0  0  0  0  0  0  0  0
  -25.9430  -11.7460   20.4440 N   0  0  0  0  0  0  0  0  0  0  0  0
  -23.9330  -10.5150   20.9620 C   0  0  0  0  0  0  0  0  0  0  0  0
  -24.3740   -9.5560   21.9010 C   0  0  0  0  0  3  0  0  0  0  0  0
  -23.6550   -8.3570   22.0920 C   0  0  0  0  0  3  0  0  0  0  0  0
  -22.4790   -8.1100   21.3450 C   0  0  0  0  0  0  0  0  0  0  0  0
  -22.0560   -9.0570   20.3960 C   0  0  0  0  0  3  0  0  0  0  0  0
  -22.7770  -10.2460   20.2020 C   0  0  0  0  0  3  0  0  0  0  0  0
  -21.7240   -6.9660   21.4480 O   0  0  0  0  0  0  0  0  0  0  0  0
  -21.6810   -6.2320   22.6070 C   0  0  0  0  0  0  0  0  0  0  0  0
  -21.2480   -6.7920   23.8290 C   0  0  0  0  0  3  0  0  0  0  0  0
  -21.1610   -5.9840   24.9810 C   0  0  0  0  0  3  0  0  0  0  0  0
  -21.4900   -4.6170   24.9090 C   0  0  0  0  0  0  0  0  0  0  0  0
  -21.9150   -4.0560   23.6910 C   0  0  0  0  0  3  0  0  0  0  0  0
  -22.0090   -4.8620   22.5430 C   0  0  0  0  0  0  0  0  0  0  0  0
  -22.3980   -4.3130   21.3680 F   0  0  0  0  0  0  0  0  0  0  0  0
  -21.3960   -3.8360   26.0110 F   0  0  0  0  0  0  0  0  0  0  0  0
  -22.7880  -13.6010   21.0610 C   0  0  0  0  0  0  0  0  0  0  0  0
  -22.0680  -12.9050   21.9320 N   0  0  0  0  0  0  0  0  0  0  0  0
  -22.3450  -14.6240   20.5380 O   0  0  0  0  0  0  0  0  0  0  0  0
  -22.4400  -12.0760   22.3730 H   0  0  0  0  0  0  0  0  0  0  0  0
  -21.1290  -13.2000   22.1620 H   0  0  0  0  0  0  0  0  0  0  0  0
  -25.4070  -15.2770   20.2120 N   0  0  0  0  0  0  0  0  0  0  0  0
  -24.6330  -15.9280   20.2990 H   0  0  0  0  0  0  0  0  0  0  0  0
  -26.2570  -15.7160   19.8820 H   0  0  0  0  0  0  0  0  0  0  0  0
  1  3  1  0
  3  9  1  0
  3  2  1  0
  4  7  1  0
  4  1  1  0
  4  5  1  0
  5 53  1  0
  5  2  1  0
  6  7  1  0
  9  8  1  0
 10  9  1  0
 11 12  1  0
 11 10  2  0
 13 24  2  0
 14 12  1  0
 14 19  1  0
 15 23  1  0
 15 25  1  0
 16 22  1  0
 16 18  1  0
 17 23  1  0
 18 17  1  0
 19 18  2  0
 20 21  1  0
 20 14  2  0
 21 16  2  0
 22 15  1  0
 23 13  1  0
 25 27  2  0
 26 25  1  0
 28 26  1  0
 29 38  2  0
 29 34  1  0
 30 26  1  0
 30 34  1  0
 31 30  1  0
 32 33  1  0
 32 31  1  0
 33 29  1  0
 34 35  2  0
 35 36  1  0
 37 36  2  0
 38 37  1  0
 39 13  1  0
 39 40  1  0
 39 49  1  0
 40 43  1  0
 41 45  1  0
 41 40  1  0
 42 41  2  0
 45 44  1  0
 47 45  1  0
 47 48  1  0
 47 46  1  0
 49 52  1  1
 49 50  1  0
 51 49  1  0
 53 62  1  0
 54 62  1  0
 55 60  1  0
 56 57  1  0
 56 55  1  0
 58 57  1  0
 58 67  1  0
 58 59  1  0
 60 54  1  0
 60 59  1  0
 61 54  2  0
 62 63  1  0
 64 65  2  0
 65 84  1  0
 66 65  1  0
 66 69  1  0
 67 64  1  0
 67 68  1  0
 68 66  2  0
 69 70  1  0
 70 71  2  0
 72 75  1  0
 72 71  1  0
 73 72  2  0
 74 73  1  0
 74 69  2  0
 75 76  1  0
 76 77  1  0
 77 78  2  0
 79 78  1  0
 79 83  1  0
 80 79  2  0
 81 76  2  0
 81 80  1  0
 82 81  1  0
 84 85  1  0
 85 88  1  0
 85 87  1  0
 86 84  2  0
 89 90  1  0
 89 64  1  0
 91 89  1  0
M  ISO  4  11 101  12 101  54 100  62 100
M  END
>  <TORSDO>  (53) 
F 21

>  <SCORE>  (53) 
-13.296

>  <name>  (53) 
52

>  <ligand_id>  (53) 
52

>  <original_smiles>  (53) 
[H]c1c([H])c([H])c2c(c1[H])C([H])([H])C([H])([H])C([H])([H])C2([H])N([H])C(=O)C1([H])N(C(=O)C([H])(N([H])C(=O)C([H])(N([H])C([H])([H])[H])C([H])([H])[H])C(C([H])([H])[H])(C([H])([H])[H])C([H])([H])[H])C([H])([H])c2c([H])c(OC([H])([H])C([H])([H])C([H])(C([H])([H])[H])C3([H])C([H])([H])C([H])(C([H])([H])N([H])C(=O)N4C([H])([H])C([H])([H])C([H])([H])C([H])(n5nc(-c6c([H])c([H])c(Oc7c([H])c([H])c(F)c([H])c7F)c([H])c6[H])c(C(=O)N([H])[H])c5N([H])[H])C4([H])[H])C([H])(C([H])([H])C([H])([H])[H])C3([H])[H])c([H])c([H])c2C1([H])[H]

>  <smiles>  (53) 
[H]c1c([H])c([H])c2c(c1[H])C([H])([H])C([H])([H])C([H])([H])C2([H])N([H])C(=O)C1([H])N(C(=O)C([H])(N([H])C(=O)C([H])(N([H])C([H])([H])[H])C([H])([H])[H])C(C([H])([H])[H])(C([H])([H])[H])C([H])([H])[H])C([H])([H])c2c([H])c(OC([H])([H])C([H])([H])C([H])(C([H])([H])[H])C3([H])C([H])([H])C([H])(C([H])([H])N([H])C(=O)N4C([H])([H])C([H])([H])C([H])([H])C([H])(n5nc(-c6c([H])c([H])c(Oc7c([H])c([H])c(F)c([H])c7F)c([H])c6[H])c(C(=O)N([H])[H])c5N([H])[H])C4([H])[H])C([H])(C([H])([H])C([H])([H])[H])C3([H])[H])c([H])c([H])c2C1([H])[H]

$$$$
53:0:0
     RDKit          3D

 85 92  0  0  1  0  0  0  0  0999 V2000
  -28.7570  -22.8870   19.9570 C   0  0  0  0  0  0  0  0  0  0  0  0
  -29.2530  -23.0090   18.8340 O   0  0  0  0  0  0  0  0  0  0  0  0
  -28.9640  -21.3010   20.6600 C   0  0  0  0  0  2  0  0  0  0  0  0
  -29.0850  -19.6290   20.0050 C   0  0  0  0  0  2  0  0  0  0  0  0
  -29.8900  -18.1320   20.5820 C   0  0  0  0  0  2  0  0  0  0  0  0
  -30.4120  -15.2470   20.2610 C   0  0  0  0  0  0  0  0  0  0  0  0
  -30.3800  -12.8180   19.3600 C   0  0  0  0  0  2  0  0  0  0  0  0
  -29.4470  -12.6210   18.1390 C   0  0  0  0  0  2  0  0  0  0  0  0
  -27.9990  -12.3570   18.5910 C   0  0  0  0  0  2  0  0  0  0  0  0
  -27.5590  -13.3120   19.7290 C   0  0  0  0  0  3  0  0  0  0  0  0
  -28.6190  -13.4500   20.8410 C   0  0  0  0  0  2  0  0  0  0  0  0
  -29.8390  -13.9510   20.1890 N   0  0  0  0  0  0  0  0  0  0  0  0
  -31.6380  -15.2520   20.0860 O   0  0  0  0  0  0  0  0  0  0  0  0
  -29.6390  -16.5060   20.3240 N   0  0  0  0  0  0  0  0  0  0  0  0
  -28.6530  -16.2910   20.3180 H   0  0  0  0  0  0  0  0  0  0  0  0
  -25.1910  -13.8580   20.5000 C   0  0  0  0  0  0  0  0  0  0  0  0
  -24.1350  -13.0750   20.8750 C   0  0  0  0  0  0  0  0  0  0  0  0
  -24.6120  -11.7270   20.8450 C   0  0  0  0  0  0  0  0  0  0  0  0
  -26.2380  -12.9890   20.2510 N   0  0  0  0  0  0  0  0  0  0  0  0
  -25.9020  -11.7020   20.5270 N   0  0  0  0  0  0  0  0  0  0  0  0
  -23.8940  -10.4610   21.0390 C   0  0  0  0  0  0  0  0  0  0  0  0
  -24.3380   -9.4940   21.9670 C   0  0  0  0  0  3  0  0  0  0  0  0
  -23.6170   -8.2940   22.1510 C   0  0  0  0  0  3  0  0  0  0  0  0
  -22.4390   -8.0530   21.4060 C   0  0  0  0  0  0  0  0  0  0  0  0
  -22.0130   -9.0080   20.4670 C   0  0  0  0  0  3  0  0  0  0  0  0
  -22.7340  -10.2000   20.2820 C   0  0  0  0  0  3  0  0  0  0  0  0
  -21.6880   -6.9050   21.5000 O   0  0  0  0  0  0  0  0  0  0  0  0
  -21.6600   -6.1550   22.6490 C   0  0  0  0  0  0  0  0  0  0  0  0
  -21.2550   -6.7030   23.8870 C   0  0  0  0  0  3  0  0  0  0  0  0
  -21.1730   -5.8800   25.0270 C   0  0  0  0  0  3  0  0  0  0  0  0
  -21.4850   -4.5100   24.9320 C   0  0  0  0  0  0  0  0  0  0  0  0
  -21.8830   -3.9630   23.7000 C   0  0  0  0  0  3  0  0  0  0  0  0
  -21.9670   -4.7830   22.5620 C   0  0  0  0  0  0  0  0  0  0  0  0
  -22.3310   -4.2460   21.3720 F   0  0  0  0  0  0  0  0  0  0  0  0
  -21.4000   -3.7190   26.0260 F   0  0  0  0  0  0  0  0  0  0  0  0
  -22.7360  -13.5440   21.1440 C   0  0  0  0  0  0  0  0  0  0  0  0
  -22.0120  -12.8480   22.0130 N   0  0  0  0  0  0  0  0  0  0  0  0
  -22.2940  -14.5660   20.6200 O   0  0  0  0  0  0  0  0  0  0  0  0
  -22.3810  -12.0210   22.4580 H   0  0  0  0  0  0  0  0  0  0  0  0
  -21.0740  -13.1490   22.2380 H   0  0  0  0  0  0  0  0  0  0  0  0
  -25.3400  -15.2300   20.3190 N   0  0  0  0  0  0  0  0  0  0  0  0
  -24.5650  -15.8720   20.4380 H   0  0  0  0  0  0  0  0  0  0  0  0
  -26.1690  -15.6780   19.9530 H   0  0  0  0  0  0  0  0  0  0  0  0
  -27.9670  -24.3180   20.5680 C   0  0  0  0  0  2  0  0  0  0  0  0
  -28.2250  -25.9010   20.2200 O   0  0  0  0  0  0  0  0  0  0  0  0
  -24.6400  -31.8630   23.1820 C   0  0  0  0  0  0  0  0  0  0  0  0
  -27.2010  -26.9780   20.2160 C   0  0  0  0  0  0  0  0  0  0  0  0
  -23.4460  -30.4520   21.5560 C   0  0  0  0  0  3  0  0  0  0  0  0
  -24.8960  -28.8370   20.1530 C   0  0  0  0  0  0  0  0  0  0  0  0
  -26.0120  -30.6710   21.4050 C   0  0  0  0  0  2  0  0  0  0  0  0
  -26.0850  -29.2560   20.7650 C   0  0  0  0  0  0  0  0  0  0  0  0
  -27.2360  -28.3500   20.7650 C   0  0  0  0  0  3  0  0  0  0  0  0
  -25.9800  -26.7000   19.5650 C   0  0  0  0  0  3  0  0  0  0  0  0
  -24.8660  -27.5780   19.5330 C   0  0  0  0  0  3  0  0  0  0  0  0
  -23.6760  -29.7550   20.1870 C   0  0  0  0  0  2  0  0  0  0  0  0
  -24.7210  -31.0220   22.1000 N   0  0  0  0  0  0  0  0  0  0  0  0
  -23.5520  -32.1570   23.7010 O   0  0  0  0  0  0  0  0  0  0  0  0
  -22.7550  -29.4640   22.5320 C   0  0  0  0  0  0  0  0  0  0  0  0
  -21.4230  -29.3050   22.4150 N   0  0  0  0  0  0  0  0  0  0  0  0
  -23.4220  -28.8400   23.3600 O   0  0  0  0  0  0  0  0  0  0  0  0
  -20.9380  -29.8580   21.7220 H   0  0  0  0  0  0  0  0  0  0  0  0
  -18.0370  -28.1150   22.9480 C   0  0  0  0  0  0  0  0  0  0  0  0
  -20.6000  -28.3760   23.1960 C   0  0  0  0  0  3  0  0  0  0  0  0
  -20.6940  -26.9390   22.6320 C   0  0  0  0  0  2  0  0  0  0  0  0
  -19.5850  -26.6120   21.6260 C   0  0  0  0  0  2  0  0  0  0  0  0
  -18.2070  -26.7620   22.2760 C   0  0  0  0  0  2  0  0  0  0  0  0
  -19.1600  -28.8780   23.3660 C   0  0  0  0  0  0  0  0  0  0  0  0
  -18.9440  -30.1420   23.9570 C   0  0  0  0  0  3  0  0  0  0  0  0
  -17.6400  -30.6430   24.1330 C   0  0  0  0  0  3  0  0  0  0  0  0
  -16.5330  -29.8770   23.7280 C   0  0  0  0  0  3  0  0  0  0  0  0
  -16.7320  -28.6140   23.1420 C   0  0  0  0  0  3  0  0  0  0  0  0
  -25.9120  -32.5120   23.8080 C   0  0  0  0  0  3  0  0  0  0  0  0
  -26.4270  -31.7500   25.0920 C   0  0  1  0  0  0  0  0  0  0  0  0
  -25.3330  -31.5170   26.1600 C   0  0  0  0  0  1  0  0  0  0  0  0
  -27.0130  -30.3700   24.7170 C   0  0  0  0  0  1  0  0  0  0  0  0
  -27.5750  -32.5510   25.7500 C   0  0  0  0  0  1  0  0  0  0  0  0
  -25.5890  -33.9100   24.1440 N   0  0  0  0  0  0  0  0  0  0  0  0
  -25.9140  -34.9730   23.3980 C   0  0  0  0  0  0  0  0  0  0  0  0
  -26.5810  -34.8830   22.3640 O   0  0  0  0  0  0  0  0  0  0  0  0
  -24.9960  -34.0530   24.9490 H   0  0  0  0  0  0  0  0  0  0  0  0
  -24.1790  -36.7700   23.0720 C   0  0  0  0  0  1  0  0  0  0  0  0
  -25.4260  -36.3580   23.8720 C   0  0  0  0  0  3  0  0  0  0  0  0
  -27.5610  -37.2470   24.7000 C   0  0  0  0  0  1  0  0  0  0  0  0
  -26.4540  -37.4160   23.7620 N   0  0  0  0  0  0  0  0  0  0  0  0
  -26.0450  -38.3340   23.9170 H   0  0  0  0  0  0  0  0  0  0  0  0
  1 44  1  0
  1  3  1  0
  2  1  2  0
  4  5  1  0
  4  3  1  0
  6 14  1  0
  7 12  1  0
  8  9  1  0
  8  7  1  0
 10  9  1  0
 10 19  1  0
 10 11  1  0
 12  6  1  0
 12 11  1  0
 13  6  2  0
 14  5  1  0
 15 14  1  0
 16 17  2  0
 17 36  1  0
 18 17  1  0
 18 21  1  0
 19 16  1  0
 19 20  1  0
 20 18  2  0
 21 22  1  0
 22 23  2  0
 24 27  1  0
 24 23  1  0
 25 24  2  0
 26 25  1  0
 26 21  2  0
 27 28  1  0
 28 29  1  0
 29 30  2  0
 31 30  1  0
 31 35  1  0
 32 31  2  0
 33 28  2  0
 33 32  1  0
 34 33  1  0
 36 37  1  0
 37 40  1  0
 37 39  1  0
 38 36  2  0
 41 42  1  0
 41 16  1  0
 43 41  1  0
 45 44  1  0
 46 57  2  0
 47 45  1  0
 47 52  1  0
 48 56  1  0
 48 58  1  0
 49 55  1  0
 49 51  1  0
 50 56  1  0
 51 50  1  0
 52 51  2  0
 53 47  2  0
 54 53  1  0
 54 49  2  0
 55 48  1  0
 56 46  1  0
 58 60  2  0
 59 58  1  0
 61 59  1  0
 62 71  2  0
 62 67  1  0
 63 59  1  0
 63 67  1  0
 64 63  1  0
 65 66  1  0
 65 64  1  0
 66 62  1  0
 67 68  2  0
 68 69  1  0
 70 69  2  0
 71 70  1  0
 72 46  1  0
 72 77  1  0
 72 73  1  0
 73 76  1  1
 73 74  1  0
 75 73  1  0
 77 80  1  0
 78 82  1  0
 78 77  1  0
 79 78  2  0
 82 81  1  0
 84 82  1  0
 84 85  1  0
 84 83  1  0
M  ISO  4   6 100  14 100  44 101  45 101
M  END
>  <TORSDO>  (54) 
F 20

>  <SCORE>  (54) 
-15.657

>  <name>  (54) 
53

>  <ligand_id>  (54) 
53

>  <original_smiles>  (54) 
[H]c1c([H])c([H])c2c(c1[H])C([H])([H])C([H])([H])C([H])([H])C2([H])N([H])C(=O)C1([H])N(C(=O)C([H])(N([H])C(=O)C([H])(N([H])C([H])([H])[H])C([H])([H])[H])C(C([H])([H])[H])(C([H])([H])[H])C([H])([H])[H])C([H])([H])c2c([H])c(OC([H])([H])C(=O)C([H])([H])C([H])([H])C([H])([H])N([H])C(=O)N3C([H])([H])C([H])([H])C([H])([H])C([H])(n4nc(-c5c([H])c([H])c(Oc6c([H])c([H])c(F)c([H])c6F)c([H])c5[H])c(C(=O)N([H])[H])c4N([H])[H])C3([H])[H])c([H])c([H])c2C1([H])[H]

>  <smiles>  (54) 
[H]c1c([H])c([H])c2c(c1[H])C([H])([H])C([H])([H])C([H])([H])C2([H])N([H])C(=O)C1([H])N(C(=O)C([H])(N([H])C(=O)C([H])(N([H])C([H])([H])[H])C([H])([H])[H])C(C([H])([H])[H])(C([H])([H])[H])C([H])([H])[H])C([H])([H])c2c([H])c(OC([H])([H])C(=O)C([H])([H])C([H])([H])C([H])([H])N([H])C(=O)N3C([H])([H])C([H])([H])C([H])([H])C([H])(n4nc(-c5c([H])c([H])c(Oc6c([H])c([H])c(F)c([H])c6F)c([H])c5[H])c(C(=O)N([H])[H])c4N([H])[H])C3([H])[H])c([H])c([H])c2C1([H])[H]

$$$$
54:0:0
     RDKit          3D

 91 99  0  0  1  0  0  0  0  0999 V2000
  -30.3980  -15.2580   20.4220 C   0  0  0  0  0  0  0  0  0  0  0  0
  -30.4480  -12.8190   19.5240 C   0  0  0  0  0  2  0  0  0  0  0  0
  -29.5380  -12.5840   18.2930 C   0  0  0  0  0  2  0  0  0  0  0  0
  -28.0920  -12.2840   18.7310 C   0  0  0  0  0  2  0  0  0  0  0  0
  -27.6180  -13.2480   19.8440 C   0  0  0  0  0  3  0  0  0  0  0  0
  -28.6620  -13.3440   20.9800 C   0  0  0  0  0  2  0  0  0  0  0  0
  -29.8610  -13.9370   20.3570 N   0  0  0  0  0  0  0  0  0  0  0  0
  -31.6220  -15.2660   20.2090 O   0  0  0  0  0  0  0  0  0  0  0  0
  -27.7650  -17.6860   21.8000 C   0  0  0  0  0  2  0  0  0  0  0  0
  -28.1830  -16.6350   20.7290 C   0  0  0  0  0  2  0  0  0  0  0  0
  -30.0250  -18.1380   20.3670 C   0  0  0  0  0  2  0  0  0  0  0  0
  -27.7600  -19.1790   21.3490 C   0  0  0  0  0  3  0  0  0  0  0  0
  -28.9160  -19.5150   20.3610 C   0  0  0  0  0  3  0  0  0  0  0  0
  -29.6360  -16.5500   20.5000 N   0  0  0  0  0  0  0  0  0  0  0  0
  -25.2290  -13.8130   20.5660 C   0  0  0  0  0  0  0  0  0  0  0  0
  -24.1660  -13.0340   20.9220 C   0  0  0  0  0  0  0  0  0  0  0  0
  -24.6350  -11.6870   20.8770 C   0  0  0  0  0  0  0  0  0  0  0  0
  -26.2790  -12.9390   20.3300 N   0  0  0  0  0  0  0  0  0  0  0  0
  -25.9300  -11.6530   20.5840 N   0  0  0  0  0  0  0  0  0  0  0  0
  -23.9070  -10.4240   21.0460 C   0  0  0  0  0  0  0  0  0  0  0  0
  -24.3600   -9.4170   21.9230 C   0  0  0  0  0  3  0  0  0  0  0  0
  -23.6260   -8.2220   22.0760 C   0  0  0  0  0  3  0  0  0  0  0  0
  -22.4240   -8.0260   21.3560 C   0  0  0  0  0  0  0  0  0  0  0  0
  -21.9920   -9.0240   20.4660 C   0  0  0  0  0  3  0  0  0  0  0  0
  -22.7250  -10.2130   20.3100 C   0  0  0  0  0  3  0  0  0  0  0  0
  -21.6600   -6.8860   21.4250 O   0  0  0  0  0  0  0  0  0  0  0  0
  -21.6830   -6.0720   22.5290 C   0  0  0  0  0  0  0  0  0  0  0  0
  -21.3980   -6.5630   23.8210 C   0  0  0  0  0  3  0  0  0  0  0  0
  -21.3650   -5.6800   24.9180 C   0  0  0  0  0  3  0  0  0  0  0  0
  -21.6050   -4.3050   24.7270 C   0  0  0  0  0  0  0  0  0  0  0  0
  -21.8810   -3.8140   23.4370 C   0  0  0  0  0  3  0  0  0  0  0  0
  -21.9170   -4.6940   22.3420 C   0  0  0  0  0  0  0  0  0  0  0  0
  -22.1660   -4.2140   21.1010 F   0  0  0  0  0  0  0  0  0  0  0  0
  -21.5630   -3.4540   25.7770 F   0  0  0  0  0  0  0  0  0  0  0  0
  -22.7690  -13.5140   21.1870 C   0  0  0  0  0  0  0  0  0  0  0  0
  -22.0360  -12.8100   22.0420 N   0  0  0  0  0  0  0  0  0  0  0  0
  -22.3450  -14.5500   20.6800 O   0  0  0  0  0  0  0  0  0  0  0  0
  -22.4030  -11.9760   22.4750 H   0  0  0  0  0  0  0  0  0  0  0  0
  -21.1010  -13.1120   22.2760 H   0  0  0  0  0  0  0  0  0  0  0  0
  -25.3750  -15.1830   20.3970 N   0  0  0  0  0  0  0  0  0  0  0  0
  -24.6120  -15.8370   20.5450 H   0  0  0  0  0  0  0  0  0  0  0  0
  -26.2260  -15.6320   20.0920 H   0  0  0  0  0  0  0  0  0  0  0  0
  -27.7000  -20.0710   22.6040 C   0  0  0  0  0  0  0  0  0  0  0  0
  -26.5190  -20.5930   22.9300 N   0  0  0  0  0  0  0  0  0  0  0  0
  -28.6990  -20.2670   23.2950 O   0  0  0  0  0  0  0  0  0  0  0  0
  -25.7030  -20.4320   22.3490 H   0  0  0  0  0  0  0  0  0  0  0  0
  -26.4080  -21.1300   23.7800 H   0  0  0  0  0  0  0  0  0  0  0  0
  -29.2020  -21.2690   20.1280 C   0  0  0  0  0  2  0  0  0  0  0  0
  -28.3800  -22.7800   20.5780 C   0  0  0  0  0  2  0  0  0  0  0  0
  -28.2550  -24.3810   19.8180 C   0  0  0  0  0  2  0  0  0  0  0  0
  -28.2300  -25.9280   20.3110 O   0  0  0  0  0  0  0  0  0  0  0  0
  -24.6570  -31.8290   23.1760 C   0  0  0  0  0  0  0  0  0  0  0  0
  -27.2130  -26.9890   20.1730 C   0  0  0  0  0  0  0  0  0  0  0  0
  -23.4680  -30.4450   21.5200 C   0  0  0  0  0  3  0  0  0  0  0  0
  -24.9200  -28.8450   20.1020 C   0  0  0  0  0  0  0  0  0  0  0  0
  -26.0320  -30.6590   21.3940 C   0  0  0  0  0  2  0  0  0  0  0  0
  -26.0990  -29.2550   20.7370 C   0  0  0  0  0  0  0  0  0  0  0  0
  -27.2400  -28.3440   20.7510 C   0  0  0  0  0  3  0  0  0  0  0  0
  -26.0100  -26.7190   19.4860 C   0  0  0  0  0  3  0  0  0  0  0  0
  -24.8980  -27.5990   19.4560 C   0  0  0  0  0  3  0  0  0  0  0  0
  -23.7040  -29.7670   20.1410 C   0  0  0  0  0  2  0  0  0  0  0  0
  -24.7400  -31.0040   22.0850 N   0  0  0  0  0  0  0  0  0  0  0  0
  -23.5650  -32.1220   23.6890 O   0  0  0  0  0  0  0  0  0  0  0  0
  -22.7640  -29.4490   22.4780 C   0  0  0  0  0  0  0  0  0  0  0  0
  -21.4310  -29.3080   22.3550 N   0  0  0  0  0  0  0  0  0  0  0  0
  -23.4220  -28.8060   23.3000 O   0  0  0  0  0  0  0  0  0  0  0  0
  -20.9560  -29.8790   21.6710 H   0  0  0  0  0  0  0  0  0  0  0  0
  -18.0320  -28.1400   22.8480 C   0  0  0  0  0  0  0  0  0  0  0  0
  -20.5930  -28.3750   23.1160 C   0  0  0  0  0  3  0  0  0  0  0  0
  -20.6810  -26.9440   22.5300 C   0  0  0  0  0  2  0  0  0  0  0  0
  -19.5700  -26.6370   21.5190 C   0  0  0  0  0  2  0  0  0  0  0  0
  -18.1930  -26.7880   22.1740 C   0  0  0  0  0  2  0  0  0  0  0  0
  -19.1580  -28.8910   23.2800 C   0  0  0  0  0  0  0  0  0  0  0  0
  -18.9470  -30.1500   23.8820 C   0  0  0  0  0  3  0  0  0  0  0  0
  -17.6460  -30.6600   24.0540 C   0  0  0  0  0  3  0  0  0  0  0  0
  -16.5360  -29.9080   23.6330 C   0  0  0  0  0  3  0  0  0  0  0  0
  -16.7290  -28.6500   23.0350 C   0  0  0  0  0  3  0  0  0  0  0  0
  -25.9290  -32.4600   23.8180 C   0  0  0  0  0  3  0  0  0  0  0  0
  -26.4580  -31.6530   25.0690 C   0  0  1  0  0  0  0  0  0  0  0  0
  -25.3720  -31.3770   26.1360 C   0  0  0  0  0  1  0  0  0  0  0  0
  -27.0460  -30.2910   24.6370 C   0  0  0  0  0  1  0  0  0  0  0  0
  -27.6070  -32.4330   25.7490 C   0  0  0  0  0  1  0  0  0  0  0  0
  -25.5980  -33.8420   24.2100 N   0  0  0  0  0  0  0  0  0  0  0  0
  -25.9100  -34.9370   23.5020 C   0  0  0  0  0  0  0  0  0  0  0  0
  -26.5700  -34.8880   22.4600 O   0  0  0  0  0  0  0  0  0  0  0  0
  -25.0090  -33.9500   25.0230 H   0  0  0  0  0  0  0  0  0  0  0  0
  -24.1490  -36.7220   23.2640 C   0  0  0  0  0  1  0  0  0  0  0  0
  -25.4130  -36.2990   24.0310 C   0  0  0  0  0  3  0  0  0  0  0  0
  -27.5560  -37.1760   24.8470 C   0  0  0  0  0  1  0  0  0  0  0  0
  -26.4280  -37.3720   23.9420 N   0  0  0  0  0  0  0  0  0  0  0  0
  -26.0120  -38.2780   24.1410 H   0  0  0  0  0  0  0  0  0  0  0  0
  1 14  1  0
  2  7  1  0
  3  4  1  0
  3  2  1  0
  5  4  1  0
  5 18  1  0
  5  6  1  0
  7  1  1  0
  7  6  1  0
  8  1  2  0
 10  9  1  0
 11 14  1  0
 12  9  1  0
 12 43  1  0
 13 48  1  0
 13 11  1  0
 13 12  1  0
 14 10  1  0
 15 16  2  0
 16 35  1  0
 17 16  1  0
 17 20  1  0
 18 15  1  0
 18 19  1  0
 19 17  2  0
 20 21  1  0
 21 22  2  0
 23 26  1  0
 23 22  1  0
 24 23  2  0
 25 24  1  0
 25 20  2  0
 26 27  1  0
 27 28  1  0
 28 29  2  0
 30 29  1  0
 30 34  1  0
 31 30  2  0
 32 27  2  0
 32 31  1  0
 33 32  1  0
 35 36  1  0
 36 39  1  0
 36 38  1  0
 37 35  2  0
 40 41  1  0
 40 15  1  0
 42 40  1  0
 43 44  1  0
 43 45  2  0
 44 47  1  0
 46 44  1  0
 48 49  1  0
 50 51  1  0
 50 49  1  0
 52 63  2  0
 53 51  1  0
 53 58  1  0
 54 62  1  0
 54 64  1  0
 55 61  1  0
 55 57  1  0
 56 62  1  0
 57 58  2  0
 57 56  1  0
 59 53  2  0
 60 59  1  0
 60 55  2  0
 61 54  1  0
 62 52  1  0
 64 66  2  0
 65 64  1  0
 67 65  1  0
 68 77  2  0
 68 73  1  0
 69 65  1  0
 69 73  1  0
 70 69  1  0
 71 72  1  0
 71 70  1  0
 72 68  1  0
 73 74  2  0
 74 75  1  0
 76 75  2  0
 77 76  1  0
 78 52  1  0
 78 83  1  0
 78 79  1  0
 79 82  1  1
 79 80  1  0
 81 79  1  0
 83 86  1  0
 84 88  1  0
 84 83  1  0
 85 84  2  0
 88 87  1  0
 90 88  1  0
 90 91  1  0
 90 89  1  0
M  ISO  4   1 100  14 100  50 101  51 101
M  END
>  <TORSDO>  (55) 
F 19

>  <SCORE>  (55) 
7.084

>  <name>  (55) 
54

>  <ligand_id>  (55) 
54

>  <original_smiles>  (55) 
[H]c1c([H])c([H])c2c(c1[H])C([H])([H])C([H])([H])C([H])([H])C2([H])N([H])C(=O)C1([H])N(C(=O)C([H])(N([H])C(=O)C([H])(N([H])C([H])([H])[H])C([H])([H])[H])C(C([H])([H])[H])(C([H])([H])[H])C([H])([H])[H])C([H])([H])c2c([H])c(OC([H])([H])C([H])([H])C([H])([H])C3([H])C([H])([H])N(C(=O)N4C([H])([H])C([H])([H])C([H])([H])C([H])(n5nc(-c6c([H])c([H])c(Oc7c([H])c([H])c(F)c([H])c7F)c([H])c6[H])c(C(=O)N([H])[H])c5N([H])[H])C4([H])[H])C([H])([H])C([H])([H])C3([H])C(=O)N([H])[H])c([H])c([H])c2C1([H])[H]

>  <smiles>  (55) 
[H]c1c([H])c([H])c2c(c1[H])C([H])([H])C([H])([H])C([H])([H])C2([H])N([H])C(=O)C1([H])N(C(=O)C([H])(N([H])C(=O)C([H])(N([H])C([H])([H])[H])C([H])([H])[H])C(C([H])([H])[H])(C([H])([H])[H])C([H])([H])[H])C([H])([H])c2c([H])c(OC([H])([H])C([H])([H])C([H])([H])C3([H])C([H])([H])N(C(=O)N4C([H])([H])C([H])([H])C([H])([H])C([H])(n5nc(-c6c([H])c([H])c(Oc7c([H])c([H])c(F)c([H])c7F)c([H])c6[H])c(C(=O)N([H])[H])c5N([H])[H])C4([H])[H])C([H])([H])C([H])([H])C3([H])C(=O)N([H])[H])c([H])c([H])c2C1([H])[H]

$$$$
55:0:0
     RDKit          3D

 91 99  0  0  1  0  0  0  0  0999 V2000
  -27.8130  -22.3040   21.6420 N   0  0  0  0  0  4  0  0  0  0  0  0
  -27.1440  -22.0520   22.3520 H   0  0  0  0  0  0  0  0  0  0  0  0
  -28.6930  -22.4710   22.1020 H   0  0  0  0  0  0  0  0  0  0  0  0
  -27.2660  -24.7250   21.9080 C   0  0  0  0  0  2  0  0  0  0  0  0
  -28.4140  -24.6370   20.9140 C   0  0  0  0  0  3  0  0  0  0  0  0
  -27.3650  -23.5440   20.9710 C   0  0  0  0  0  3  0  0  0  0  0  0
  -28.5270  -25.5610   19.7100 C   0  0  0  0  0  2  0  0  0  0  0  0
  -28.4600  -26.9370   20.0870 O   0  0  0  0  0  0  0  0  0  0  0  0
  -24.6210  -31.9770   23.2820 C   0  0  0  0  0  0  0  0  0  0  0  0
  -27.2510  -27.6010   20.1020 C   0  0  0  0  0  0  0  0  0  0  0  0
  -23.4010  -30.6050   21.6220 C   0  0  0  0  0  3  0  0  0  0  0  0
  -24.8460  -29.0890   20.1690 C   0  0  0  0  0  0  0  0  0  0  0  0
  -25.9250  -30.9660   21.4180 C   0  0  0  0  0  2  0  0  0  0  0  0
  -26.0050  -29.6070   20.7570 C   0  0  0  0  0  0  0  0  0  0  0  0
  -27.2070  -28.8690   20.7240 C   0  0  0  0  0  3  0  0  0  0  0  0
  -26.0680  -27.0940   19.5140 C   0  0  0  0  0  3  0  0  0  0  0  0
  -24.8700  -27.8290   19.5520 C   0  0  0  0  0  3  0  0  0  0  0  0
  -23.6020  -29.9440   20.2330 C   0  0  0  0  0  2  0  0  0  0  0  0
  -24.6680  -31.1970   22.1670 N   0  0  0  0  0  0  0  0  0  0  0  0
  -23.5430  -32.2410   23.8330 O   0  0  0  0  0  0  0  0  0  0  0  0
  -22.7570  -29.5670   22.5680 C   0  0  0  0  0  0  0  0  0  0  0  0
  -21.4380  -29.3630   22.4210 N   0  0  0  0  0  0  0  0  0  0  0  0
  -23.4410  -28.9460   23.3880 O   0  0  0  0  0  0  0  0  0  0  0  0
  -20.9470  -29.9170   21.7310 H   0  0  0  0  0  0  0  0  0  0  0  0
  -18.0820  -28.0950   22.8460 C   0  0  0  0  0  0  0  0  0  0  0  0
  -20.6260  -28.4090   23.1760 C   0  0  0  0  0  3  0  0  0  0  0  0
  -20.7750  -26.9800   22.6080 C   0  0  0  0  0  2  0  0  0  0  0  0
  -19.7050  -26.6310   21.5680 C   0  0  0  0  0  2  0  0  0  0  0  0
  -18.3050  -26.7470   22.1780 C   0  0  0  0  0  2  0  0  0  0  0  0
  -19.1740  -28.8820   23.2990 C   0  0  0  0  0  0  0  0  0  0  0  0
  -18.9160  -30.1430   23.8800 C   0  0  0  0  0  3  0  0  0  0  0  0
  -17.5980  -30.6170   24.0110 C   0  0  0  0  0  3  0  0  0  0  0  0
  -16.5190  -29.8280   23.5720 C   0  0  0  0  0  3  0  0  0  0  0  0
  -16.7630  -28.5690   22.9960 C   0  0  0  0  0  3  0  0  0  0  0  0
  -25.9130  -32.5920   23.9050 C   0  0  0  0  0  3  0  0  0  0  0  0
  -25.6200  -33.9940   24.2330 N   0  0  0  0  0  0  0  0  0  0  0  0
  -25.9620  -35.0390   23.4670 C   0  0  0  0  0  0  0  0  0  0  0  0
  -26.6310  -34.9250   22.4370 O   0  0  0  0  0  0  0  0  0  0  0  0
  -25.0300  -34.1580   25.0350 H   0  0  0  0  0  0  0  0  0  0  0  0
  -24.2510  -36.8460   23.1000 C   0  0  0  0  0  1  0  0  0  0  0  0
  -25.4860  -36.4340   23.9170 C   0  0  0  0  0  3  0  0  0  0  0  0
  -27.6260  -37.3030   24.7500 C   0  0  0  0  0  1  0  0  0  0  0  0
  -26.5280  -37.4770   23.8030 N   0  0  0  0  0  0  0  0  0  0  0  0
  -26.1280  -38.4010   23.9460 H   0  0  0  0  0  0  0  0  0  0  0  0
  -26.4220  -31.8130   25.1800 C   0  0  1  0  0  0  0  0  0  0  0  0
  -25.3230  -31.5720   26.2410 C   0  0  0  0  0  1  0  0  0  0  0  0
  -27.0070  -30.4370   24.7840 C   0  0  0  0  0  1  0  0  0  0  0  0
  -27.5670  -32.6040   25.8550 C   0  0  0  0  0  1  0  0  0  0  0  0
  -27.9770  -21.1520   20.7350 C   0  0  0  0  0  2  0  0  0  0  0  0
  -28.9200  -20.0930   21.3330 C   0  0  0  0  0  2  0  0  0  0  0  0
  -28.9750  -18.8050   20.5010 C   0  0  0  0  0  2  0  0  0  0  0  0
  -30.0380  -17.8250   21.0160 C   0  0  0  0  0  2  0  0  0  0  0  0
  -29.8380  -16.4170   20.4470 C   0  0  0  0  0  2  0  0  0  0  0  0
  -31.3650  -14.5700   20.0370 C   0  0  0  0  0  0  0  0  0  0  0  0
  -30.9280  -12.3930   18.9640 C   0  0  0  0  0  2  0  0  0  0  0  0
  -29.9550  -12.5460   17.7800 C   0  0  0  0  0  2  0  0  0  0  0  0
  -28.4920  -12.4820   18.2640 C   0  0  0  0  0  2  0  0  0  0  0  0
  -28.2200  -13.4180   19.4700 C   0  0  0  0  0  3  0  0  0  0  0  0
  -29.2950  -13.2160   20.5610 C   0  0  0  0  0  2  0  0  0  0  0  0
  -30.6160  -13.4400   19.9460 N   0  0  0  0  0  0  0  0  0  0  0  0
  -32.4310  -14.7320   19.4370 O   0  0  0  0  0  0  0  0  0  0  0  0
  -30.9200  -15.5230   20.8610 N   0  0  0  0  0  0  0  0  0  0  0  0
  -31.6880  -16.0450   21.2590 H   0  0  0  0  0  0  0  0  0  0  0  0
  -25.9050  -14.1810   20.3030 C   0  0  0  0  0  0  0  0  0  0  0  0
  -24.7970  -13.4750   20.6900 C   0  0  0  0  0  0  0  0  0  0  0  0
  -25.1570  -12.0960   20.6000 C   0  0  0  0  0  0  0  0  0  0  0  0
  -26.8710  -13.2340   19.9990 N   0  0  0  0  0  0  0  0  0  0  0  0
  -26.4270  -11.9740   20.2350 N   0  0  0  0  0  0  0  0  0  0  0  0
  -24.3540  -10.8820   20.7860 C   0  0  0  0  0  0  0  0  0  0  0  0
  -24.7270   -9.8810   21.7090 C   0  0  0  0  0  3  0  0  0  0  0  0
  -23.9280   -8.7330   21.8830 C   0  0  0  0  0  3  0  0  0  0  0  0
  -22.7370   -8.5780   21.1330 C   0  0  0  0  0  0  0  0  0  0  0  0
  -22.3810   -9.5660   20.1980 C   0  0  0  0  0  3  0  0  0  0  0  0
  -23.1830  -10.7060   20.0220 C   0  0  0  0  0  3  0  0  0  0  0  0
  -21.9100   -7.4850   21.2170 O   0  0  0  0  0  0  0  0  0  0  0  0
  -21.7780   -6.7690   22.3800 C   0  0  0  0  0  0  0  0  0  0  0  0
  -21.3510   -7.3740   23.5820 C   0  0  0  0  0  3  0  0  0  0  0  0
  -21.1650   -6.5880   24.7360 C   0  0  0  0  0  3  0  0  0  0  0  0
  -21.3940   -5.2000   24.6880 C   0  0  0  0  0  0  0  0  0  0  0  0
  -21.8120   -4.5960   23.4880 C   0  0  0  0  0  3  0  0  0  0  0  0
  -22.0020   -5.3790   22.3380 C   0  0  0  0  0  0  0  0  0  0  0  0
  -22.3860   -4.7890   21.1790 F   0  0  0  0  0  0  0  0  0  0  0  0
  -21.2060   -4.4420   25.7930 F   0  0  0  0  0  0  0  0  0  0  0  0
  -23.4490  -14.0410   21.0390 C   0  0  0  0  0  0  0  0  0  0  0  0
  -22.7180  -13.3760   21.9260 N   0  0  0  0  0  0  0  0  0  0  0  0
  -23.0590  -15.1050   20.5590 O   0  0  0  0  0  0  0  0  0  0  0  0
  -23.0510  -12.5160   22.3340 H   0  0  0  0  0  0  0  0  0  0  0  0
  -21.8140  -13.7290   22.2030 H   0  0  0  0  0  0  0  0  0  0  0  0
  -26.1600  -15.5440   20.1700 N   0  0  0  0  0  0  0  0  0  0  0  0
  -27.0340  -15.9460   19.8590 H   0  0  0  0  0  0  0  0  0  0  0  0
  -25.4550  -16.2410   20.3840 H   0  0  0  0  0  0  0  0  0  0  0  0
  1  3  1  0
  1  2  1  0
  5  7  1  0
  5  6  1  0
  5  4  1  0
  6  1  1  0
  6  4  1  0
  7  8  1  0
  8 10  1  0
  9 20  2  0
 10 15  1  0
 11 19  1  0
 11 21  1  0
 12 18  1  0
 12 14  1  0
 13 19  1  0
 14 13  1  0
 15 14  2  0
 16 17  1  0
 16 10  2  0
 17 12  2  0
 18 11  1  0
 19  9  1  0
 21 23  2  0
 22 21  1  0
 24 22  1  0
 25 34  2  0
 25 30  1  0
 26 22  1  0
 26 30  1  0
 27 26  1  0
 28 29  1  0
 28 27  1  0
 29 25  1  0
 30 31  2  0
 31 32  1  0
 33 32  2  0
 34 33  1  0
 35  9  1  0
 35 36  1  0
 35 45  1  0
 36 39  1  0
 37 41  1  0
 37 36  1  0
 38 37  2  0
 41 40  1  0
 43 41  1  0
 43 44  1  0
 43 42  1  0
 45 48  1  1
 45 46  1  0
 47 45  1  0
 49 50  1  0
 49  1  1  0
 51 52  1  0
 51 50  1  0
 53 62  1  0
 53 52  1  0
 54 62  1  0
 55 60  1  0
 56 57  1  0
 56 55  1  0
 58 57  1  0
 58 67  1  0
 58 59  1  0
 60 54  1  0
 60 59  1  0
 61 54  2  0
 62 63  1  0
 64 65  2  0
 65 84  1  0
 66 65  1  0
 66 69  1  0
 67 68  1  0
 67 64  1  0
 68 66  2  0
 69 70  1  0
 70 71  2  0
 72 75  1  0
 72 71  1  0
 73 72  2  0
 74 73  1  0
 74 69  2  0
 75 76  1  0
 76 77  1  0
 77 78  2  0
 79 78  1  0
 79 83  1  0
 80 79  2  0
 81 76  2  0
 81 80  1  0
 82 81  1  0
 84 85  1  0
 85 88  1  0
 85 87  1  0
 86 84  2  0
 89 64  1  0
 89 91  1  0
 90 89  1  0
M  ISO  4   7 101   8 101  54 100  62 100
M  END
>  <TORSDO>  (56) 
F 23

>  <SCORE>  (56) 
-12.058

>  <name>  (56) 
55

>  <ligand_id>  (56) 
55

>  <original_smiles>  (56) 
[H]c1c([H])c([H])c2c(c1[H])C([H])([H])C([H])([H])C([H])([H])C2([H])N([H])C(=O)C1([H])N(C(=O)C([H])(N([H])C(=O)C([H])(N([H])C([H])([H])[H])C([H])([H])[H])C(C([H])([H])[H])(C([H])([H])[H])C([H])([H])[H])C([H])([H])c2c([H])c(OC([H])([H])C3([H])C([H])([H])C3([H])[N+]([H])([H])C([H])([H])C([H])([H])C([H])([H])C([H])([H])C([H])([H])N([H])C(=O)N3C([H])([H])C([H])([H])C([H])([H])C([H])(n4nc(-c5c([H])c([H])c(Oc6c([H])c([H])c(F)c([H])c6F)c([H])c5[H])c(C(=O)N([H])[H])c4N([H])[H])C3([H])[H])c([H])c([H])c2C1([H])[H]

>  <smiles>  (56) 
[H]c1c([H])c([H])c2c(c1[H])C([H])([H])C([H])([H])C([H])([H])C2([H])N([H])C(=O)C1([H])N(C(=O)C([H])(N([H])C(=O)C([H])(N([H])C([H])([H])[H])C([H])([H])[H])C(C([H])([H])[H])(C([H])([H])[H])C([H])([H])[H])C([H])([H])c2c([H])c(OC([H])([H])C3([H])C([H])([H])C3([H])[N+]([H])([H])C([H])([H])C([H])([H])C([H])([H])C([H])([H])C([H])([H])N([H])C(=O)N3C([H])([H])C([H])([H])C([H])([H])C([H])(n4nc(-c5c([H])c([H])c(Oc6c([H])c([H])c(F)c([H])c6F)c([H])c5[H])c(C(=O)N([H])[H])c4N([H])[H])C3([H])[H])c([H])c([H])c2C1([H])[H]

$$$$
56:0:0
     RDKit          3D

 91 99  0  0  1  0  0  0  0  0999 V2000
  -29.7820  -18.7560   20.2350 C   0  0  0  0  0  0  0  0  0  0  0  0
  -30.2770  -15.6580   20.2230 C   0  0  0  0  0  0  0  0  0  0  0  0
  -30.3230  -13.1480   19.3490 C   0  0  0  0  0  2  0  0  0  0  0  0
  -29.4070  -12.8240   18.1370 C   0  0  0  0  0  2  0  0  0  0  0  0
  -27.9950  -12.4570   18.6170 C   0  0  0  0  0  2  0  0  0  0  0  0
  -27.5110  -13.4260   19.7200 C   0  0  0  0  0  3  0  0  0  0  0  0
  -28.5640  -13.7030   20.8190 C   0  0  0  0  0  2  0  0  0  0  0  0
  -29.7360  -14.3090   20.1520 N   0  0  0  0  0  0  0  0  0  0  0  0
  -31.5000  -15.5990   20.0050 O   0  0  0  0  0  0  0  0  0  0  0  0
  -29.5350  -17.0130   20.3410 N   0  0  0  0  0  4  0  0  0  0  0  0
  -28.5530  -16.8190   20.4770 H   0  0  0  0  0  0  0  0  0  0  0  0
  -25.1610  -13.9290   20.5430 C   0  0  0  0  0  0  0  0  0  0  0  0
  -24.1170  -13.1340   20.9190 C   0  0  0  0  0  0  0  0  0  0  0  0
  -24.5980  -11.7890   20.8570 C   0  0  0  0  0  0  0  0  0  0  0  0
  -26.2070  -13.0720   20.2600 N   0  0  0  0  0  0  0  0  0  0  0  0
  -25.8850  -11.7760   20.5170 N   0  0  0  0  0  0  0  0  0  0  0  0
  -23.8860  -10.5170   21.0400 C   0  0  0  0  0  0  0  0  0  0  0  0
  -24.3300   -9.5480   21.9670 C   0  0  0  0  0  3  0  0  0  0  0  0
  -23.6140   -8.3440   22.1430 C   0  0  0  0  0  3  0  0  0  0  0  0
  -22.4410   -8.0990   21.3910 C   0  0  0  0  0  0  0  0  0  0  0  0
  -22.0150   -9.0580   20.4530 C   0  0  0  0  0  3  0  0  0  0  0  0
  -22.7320  -10.2540   20.2760 C   0  0  0  0  0  3  0  0  0  0  0  0
  -21.6950   -6.9480   21.4750 O   0  0  0  0  0  0  0  0  0  0  0  0
  -21.6370   -6.2120   22.6310 C   0  0  0  0  0  0  0  0  0  0  0  0
  -21.1590   -6.7610   23.8400 C   0  0  0  0  0  3  0  0  0  0  0  0
  -21.0500   -5.9500   24.9880 C   0  0  0  0  0  3  0  0  0  0  0  0
  -21.4080   -4.5910   24.9260 C   0  0  0  0  0  0  0  0  0  0  0  0
  -21.8780   -4.0390   23.7200 C   0  0  0  0  0  3  0  0  0  0  0  0
  -21.9890   -4.8470   22.5750 C   0  0  0  0  0  0  0  0  0  0  0  0
  -22.4230   -4.3080   21.4110 F   0  0  0  0  0  0  0  0  0  0  0  0
  -21.2960   -3.8080   26.0240 F   0  0  0  0  0  0  0  0  0  0  0  0
  -22.7200  -13.5930   21.2180 C   0  0  0  0  0  0  0  0  0  0  0  0
  -22.0150  -12.8820   22.0900 N   0  0  0  0  0  0  0  0  0  0  0  0
  -22.2650  -14.6180   20.7120 O   0  0  0  0  0  0  0  0  0  0  0  0
  -22.4000  -12.0530   22.5190 H   0  0  0  0  0  0  0  0  0  0  0  0
  -21.0790  -13.1720   22.3330 H   0  0  0  0  0  0  0  0  0  0  0  0
  -25.3030  -15.3040   20.3830 N   0  0  0  0  0  0  0  0  0  0  0  0
  -24.5250  -15.9410   20.5100 H   0  0  0  0  0  0  0  0  0  0  0  0
  -26.1290  -15.7570   20.0130 H   0  0  0  0  0  0  0  0  0  0  0  0
  -31.0410  -20.1340   18.2520 C   0  0  0  0  0  2  0  0  0  0  0  0
  -29.9600  -18.4270   17.6180 C   0  0  0  0  0  2  0  0  0  0  0  0
  -30.6220  -18.8240   18.9490 C   0  0  0  0  0  3  0  0  0  0  0  0
  -30.9170  -19.3940   16.9090 C   0  0  0  0  0  3  0  0  0  0  0  0
  -30.3080  -20.1770   15.8110 N   0  0  0  0  0  4  0  0  0  0  0  0
  -29.4390  -20.6000   16.0840 H   0  0  0  0  0  0  0  0  0  0  0  0
  -30.1300  -19.5930   15.0140 H   0  0  0  0  0  0  0  0  0  0  0  0
  -30.9270  -20.9090   15.5100 H   0  0  0  0  0  0  0  0  0  0  0  0
  -28.7320  -20.3700   20.3370 C   0  0  0  0  0  2  0  0  0  0  0  0
  -28.9530  -22.2870   20.3860 C   0  0  0  0  0  3  0  0  0  0  0  0
  -27.9570  -23.9270   20.2630 C   0  0  0  0  0  3  0  0  0  0  0  0
  -28.1520  -25.6560   20.3710 O   0  0  0  0  0  0  0  0  0  0  0  0
  -24.6490  -31.9130   23.2570 C   0  0  0  0  0  0  0  0  0  0  0  0
  -27.1700  -26.8440   20.3070 C   0  0  0  0  0  0  0  0  0  0  0  0
  -23.4570  -30.5090   21.6280 C   0  0  0  0  0  3  0  0  0  0  0  0
  -24.9010  -28.8510   20.2300 C   0  0  0  0  0  0  0  0  0  0  0  0
  -26.0340  -30.6570   21.4980 C   0  0  0  0  0  2  0  0  0  0  0  0
  -26.0950  -29.2210   20.8580 C   0  0  0  0  0  0  0  0  0  0  0  0
  -27.2170  -28.2440   20.8640 C   0  0  0  0  0  3  0  0  0  0  0  0
  -25.9400  -26.6690   19.6250 C   0  0  0  0  0  3  0  0  0  0  0  0
  -24.8580  -27.5990   19.5900 C   0  0  0  0  0  3  0  0  0  0  0  0
  -23.6950  -29.8010   20.2620 C   0  0  0  0  0  2  0  0  0  0  0  0
  -24.7380  -31.0580   22.1810 N   0  0  0  0  0  0  0  0  0  0  0  0
  -23.5570  -32.2190   23.7650 O   0  0  0  0  0  0  0  0  0  0  0  0
  -22.7390  -29.5390   22.6040 C   0  0  0  0  0  0  0  0  0  0  0  0
  -21.4060  -29.3840   22.4750 N   0  0  0  0  0  0  0  0  0  0  0  0
  -23.3900  -28.9240   23.4510 O   0  0  0  0  0  0  0  0  0  0  0  0
  -20.9280  -29.9370   21.7770 H   0  0  0  0  0  0  0  0  0  0  0  0
  -18.0180  -28.1700   22.9730 C   0  0  0  0  0  0  0  0  0  0  0  0
  -20.5760  -28.4540   23.2510 C   0  0  0  0  0  3  0  0  0  0  0  0
  -20.6850  -27.0140   22.6990 C   0  0  0  0  0  2  0  0  0  0  0  0
  -19.5940  -26.6720   21.6780 C   0  0  0  0  0  2  0  0  0  0  0  0
  -18.2060  -26.8150   22.3110 C   0  0  0  0  0  2  0  0  0  0  0  0
  -19.1290  -28.9460   23.4010 C   0  0  0  0  0  0  0  0  0  0  0  0
  -18.8940  -30.2080   23.9860 C   0  0  0  0  0  3  0  0  0  0  0  0
  -17.5840  -30.7000   24.1410 C   0  0  0  0  0  3  0  0  0  0  0  0
  -16.4890  -29.9230   23.7250 C   0  0  0  0  0  3  0  0  0  0  0  0
  -16.7060  -28.6580   23.1500 C   0  0  0  0  0  3  0  0  0  0  0  0
  -25.9150  -32.5610   23.8950 C   0  0  0  0  0  3  0  0  0  0  0  0
  -25.6010  -33.9680   24.2180 N   0  0  0  0  0  0  0  0  0  0  0  0
  -25.9220  -35.0240   23.4590 C   0  0  0  0  0  0  0  0  0  0  0  0
  -26.5720  -34.9180   22.4170 O   0  0  0  0  0  0  0  0  0  0  0  0
  -25.0200  -34.1240   25.0290 H   0  0  0  0  0  0  0  0  0  0  0  0
  -24.1860  -36.8250   23.1540 C   0  0  0  0  0  1  0  0  0  0  0  0
  -25.4530  -36.4200   23.9250 C   0  0  0  0  0  3  0  0  0  0  0  0
  -27.6120  -37.3170   24.6820 C   0  0  0  0  0  1  0  0  0  0  0  0
  -26.4820  -37.4710   23.7680 N   0  0  0  0  0  0  0  0  0  0  0  0
  -26.0810  -38.3940   23.9130 H   0  0  0  0  0  0  0  0  0  0  0  0
  -26.4050  -31.8100   25.1950 C   0  0  1  0  0  0  0  0  0  0  0  0
  -25.2940  -31.6010   26.2530 C   0  0  0  0  0  1  0  0  0  0  0  0
  -26.9790  -30.4190   24.8460 C   0  0  0  0  0  1  0  0  0  0  0  0
  -27.5550  -32.6040   25.8580 C   0  0  0  0  0  1  0  0  0  0  0  0
  1 48  1  0
  1 10  2  0
  2 10  1  0
  3  8  1  0
  4  5  1  0
  4  3  1  0
  6  5  1  0
  6 15  1  0
  6  7  1  0
  8  2  1  0
  8  7  1  0
  9  2  2  0
 10 11  1  0
 12 13  2  0
 13 32  1  0
 14 13  1  0
 14 17  1  0
 15 16  1  0
 15 12  1  0
 16 14  2  0
 17 18  1  0
 18 19  2  0
 20 23  1  0
 20 19  1  0
 21 20  2  0
 22 21  1  0
 22 17  2  0
 23 24  1  0
 24 25  1  0
 25 26  2  0
 27 26  1  0
 27 31  1  0
 28 27  2  0
 29 24  2  0
 29 28  1  0
 30 29  1  0
 32 33  1  0
 33 36  1  0
 33 35  1  0
 34 32  2  0
 37 38  1  0
 37 12  1  0
 39 37  1  0
 40 42  1  0
 41 42  1  0
 42  1  1  0
 43 44  1  0
 43 41  1  0
 43 40  1  0
 44 45  1  0
 46 44  1  0
 47 44  1  0
 48 49  1  0
 50 51  1  0
 50 49  2  0
 52 63  2  0
 53 51  1  0
 53 58  1  0
 54 62  1  0
 54 64  1  0
 55 61  1  0
 55 57  1  0
 56 62  1  0
 57 58  2  0
 57 56  1  0
 59 53  2  0
 60 59  1  0
 60 55  2  0
 61 54  1  0
 62 52  1  0
 64 66  2  0
 65 64  1  0
 67 65  1  0
 68 77  2  0
 68 73  1  0
 69 65  1  0
 69 73  1  0
 70 69  1  0
 71 72  1  0
 71 70  1  0
 72 68  1  0
 73 74  2  0
 74 75  1  0
 76 75  2  0
 77 76  1  0
 78 52  1  0
 78 79  1  0
 78 88  1  0
 79 82  1  0
 80 84  1  0
 80 79  1  0
 81 80  2  0
 84 83  1  0
 86 87  1  0
 86 84  1  0
 86 85  1  0
 88 91  1  1
 88 89  1  0
 90 88  1  0
M  ISO  4   2 100  10 100  50 101  51 101
M  END
>  <TORSDO>  (57) 
F 21

>  <SCORE>  (57) 
-16.067

>  <name>  (57) 
56

>  <ligand_id>  (57) 
56

>  <original_smiles>  (57) 
[H]c1c([H])c([H])c2c(c1[H])C([H])([H])C([H])([H])C([H])([H])C2([H])N([H])C(=O)C1([H])N(C(=O)C([H])(N([H])C(=O)C([H])(N([H])C([H])([H])[H])C([H])([H])[H])C(C([H])([H])[H])(C([H])([H])[H])C([H])([H])[H])C([H])([H])c2c([H])c(OC([H])([H])C([H])([H])C([H])([H])C([H])(N([H])C(=O)N3C([H])([H])C([H])([H])C([H])([H])C([H])(n4nc(-c5c([H])c([H])c(Oc6c([H])c([H])c(F)c([H])c6F)c([H])c5[H])c(C(=O)N([H])[H])c4N([H])[H])C3([H])[H])C3([H])C([H])([H])C([H])([N+]([H])([H])[H])C3([H])[H])c([H])c([H])c2C1([H])[H]

>  <smiles>  (57) 
[H]c1c([H])c([H])c2c(c1[H])C([H])([H])C([H])([H])C([H])([H])C2([H])N([H])C(=O)C1([H])N(C(=O)C([H])(N([H])C(=O)C([H])(N([H])C([H])([H])[H])C([H])([H])[H])C(C([H])([H])[H])(C([H])([H])[H])C([H])([H])[H])C([H])([H])c2c([H])c(OC([H])([H])C([H])([H])C([H])([H])C([H])(N([H])C(=O)N3C([H])([H])C([H])([H])C([H])([H])C([H])(n4nc(-c5c([H])c([H])c(Oc6c([H])c([H])c(F)c([H])c6F)c([H])c5[H])c(C(=O)N([H])[H])c4N([H])[H])C3([H])[H])C3([H])C([H])([H])C([H])([N+]([H])([H])[H])C3([H])[H])c([H])c([H])c2C1([H])[H]

$$$$
57:0:0
     RDKit          3D

 90 98  0  0  1  0  0  0  0  0999 V2000
  -27.8810  -20.4200   19.7370 C   0  0  0  0  0  2  0  0  0  0  0  0
  -28.0640  -18.9090   19.9380 C   0  0  0  0  0  3  0  0  0  0  0  0
  -28.9970  -20.6970   20.7450 C   0  0  0  0  0  3  0  0  0  0  0  0
  -29.5480  -19.1550   20.2950 C   0  0  0  0  0  3  0  0  0  0  0  0
  -26.2200  -18.1430   18.3680 C   0  0  0  0  0  1  0  0  0  0  0  0
  -27.6760  -17.9550   18.8130 C   0  0  0  0  0  2  0  0  0  0  0  0
  -30.9880  -22.3010   20.1300 C   0  0  0  0  0  1  0  0  0  0  0  0
  -29.5760  -22.2680   20.7260 C   0  0  0  0  0  3  0  0  0  0  0  0
  -28.7060  -23.5990   20.1610 C   0  0  0  0  0  2  0  0  0  0  0  0
  -28.5560  -25.0890   20.9160 C   0  0  0  0  0  2  0  0  0  0  0  0
  -28.5450  -26.5140   20.3220 O   0  0  0  0  0  0  0  0  0  0  0  0
  -24.6240  -31.9900   23.3130 C   0  0  0  0  0  0  0  0  0  0  0  0
  -27.4150  -27.3930   20.3410 C   0  0  0  0  0  0  0  0  0  0  0  0
  -23.4990  -30.5650   21.6430 C   0  0  0  0  0  3  0  0  0  0  0  0
  -25.0250  -29.0310   20.2570 C   0  0  0  0  0  0  0  0  0  0  0  0
  -26.0420  -30.9170   21.5290 C   0  0  0  0  0  2  0  0  0  0  0  0
  -26.1760  -29.5270   20.8850 C   0  0  0  0  0  0  0  0  0  0  0  0
  -27.3740  -28.7270   20.9020 C   0  0  0  0  0  3  0  0  0  0  0  0
  -26.2350  -26.9720   19.6930 C   0  0  0  0  0  3  0  0  0  0  0  0
  -25.0660  -27.7640   19.6490 C   0  0  0  0  0  3  0  0  0  0  0  0
  -23.7690  -29.8920   20.2710 C   0  0  0  0  0  2  0  0  0  0  0  0
  -24.7400  -31.1780   22.2180 N   0  0  0  0  0  0  0  0  0  0  0  0
  -23.5170  -32.2400   23.8190 O   0  0  0  0  0  0  0  0  0  0  0  0
  -22.8300  -29.5360   22.5860 C   0  0  0  0  0  0  0  0  0  0  0  0
  -21.5190  -29.2970   22.4010 N   0  0  0  0  0  0  0  0  0  0  0  0
  -23.4910  -28.9520   23.4480 O   0  0  0  0  0  0  0  0  0  0  0  0
  -21.0400  -29.8240   21.6850 H   0  0  0  0  0  0  0  0  0  0  0  0
  -18.1840  -27.9240   22.7470 C   0  0  0  0  0  0  0  0  0  0  0  0
  -20.7080  -28.3290   23.1440 C   0  0  0  0  0  3  0  0  0  0  0  0
  -20.9160  -26.8940   22.6050 C   0  0  0  0  0  2  0  0  0  0  0  0
  -19.8900  -26.4950   21.5390 C   0  0  0  0  0  2  0  0  0  0  0  0
  -18.4690  -26.5750   22.1060 C   0  0  0  0  0  2  0  0  0  0  0  0
  -19.2360  -28.7530   23.2190 C   0  0  0  0  0  0  0  0  0  0  0  0
  -18.9180  -30.0110   23.7770 C   0  0  0  0  0  3  0  0  0  0  0  0
  -17.5810  -30.4420   23.8660 C   0  0  0  0  0  3  0  0  0  0  0  0
  -16.5430  -29.6100   23.4110 C   0  0  0  0  0  3  0  0  0  0  0  0
  -16.8460  -28.3540   22.8570 C   0  0  0  0  0  3  0  0  0  0  0  0
  -25.8680  -32.6580   23.9700 C   0  0  0  0  0  3  0  0  0  0  0  0
  -25.5300  -34.0620   24.2470 N   0  0  0  0  0  0  0  0  0  0  0  0
  -25.8900  -35.1000   23.4820 C   0  0  0  0  0  0  0  0  0  0  0  0
  -26.6070  -34.9770   22.4860 O   0  0  0  0  0  0  0  0  0  0  0  0
  -24.8980  -34.2290   25.0150 H   0  0  0  0  0  0  0  0  0  0  0  0
  -24.1850  -36.8850   22.9860 C   0  0  0  0  0  1  0  0  0  0  0  0
  -25.3720  -36.4960   23.8800 C   0  0  0  0  0  3  0  0  0  0  0  0
  -27.4430  -37.4130   24.8310 C   0  0  0  0  0  1  0  0  0  0  0  0
  -26.4080  -37.5510   23.8110 N   0  0  0  0  0  0  0  0  0  0  0  0
  -25.9890  -38.4720   23.9090 H   0  0  0  0  0  0  0  0  0  0  0  0
  -26.3330  -31.9340   25.2940 C   0  0  1  0  0  0  0  0  0  0  0  0
  -25.1920  -31.7090   26.3140 C   0  0  0  0  0  1  0  0  0  0  0  0
  -26.9580  -30.5560   24.9740 C   0  0  0  0  0  1  0  0  0  0  0  0
  -27.4390  -32.7670   25.9870 C   0  0  0  0  0  1  0  0  0  0  0  0
  -30.2970  -17.9000   21.1140 C   0  0  0  0  0  2  0  0  0  0  0  0
  -30.8390  -15.2000   20.8130 C   0  0  0  0  0  0  0  0  0  0  0  0
  -30.8070  -12.8320   19.9080 C   0  0  0  0  0  2  0  0  0  0  0  0
  -29.9510  -12.7500   18.6230 C   0  0  0  0  0  2  0  0  0  0  0  0
  -28.4670  -12.5350   18.9720 C   0  0  0  0  0  2  0  0  0  0  0  0
  -27.9760  -13.4910   20.0890 C   0  0  0  0  0  3  0  0  0  0  0  0
  -28.9560  -13.5280   21.2800 C   0  0  0  0  0  2  0  0  0  0  0  0
  -30.2600  -13.9380   20.7430 N   0  0  0  0  0  0  0  0  0  0  0  0
  -32.0590  -15.2820   20.6370 O   0  0  0  0  0  0  0  0  0  0  0  0
  -30.0240  -16.3600   20.8890 N   0  0  0  0  0  0  0  0  0  0  0  0
  -29.0430  -16.1300   20.9430 H   0  0  0  0  0  0  0  0  0  0  0  0
  -25.5510  -14.0660   20.6720 C   0  0  0  0  0  0  0  0  0  0  0  0
  -24.4680  -13.2900   20.9730 C   0  0  0  0  0  0  0  0  0  0  0  0
  -24.9390  -11.9410   20.9830 C   0  0  0  0  0  0  0  0  0  0  0  0
  -26.6110  -13.1920   20.5040 N   0  0  0  0  0  0  0  0  0  0  0  0
  -26.2460  -11.9080   20.7590 N   0  0  0  0  0  0  0  0  0  0  0  0
  -24.2060  -10.6770   21.1320 C   0  0  0  0  0  0  0  0  0  0  0  0
  -24.5660   -9.7250   22.1110 C   0  0  0  0  0  3  0  0  0  0  0  0
  -23.8310   -8.5270   22.2470 C   0  0  0  0  0  3  0  0  0  0  0  0
  -22.7250   -8.2720   21.4040 C   0  0  0  0  0  0  0  0  0  0  0  0
  -22.3850   -9.2130   20.4150 C   0  0  0  0  0  3  0  0  0  0  0  0
  -23.1200  -10.4030   20.2770 C   0  0  0  0  0  3  0  0  0  0  0  0
  -21.9700   -7.1250   21.4470 O   0  0  0  0  0  0  0  0  0  0  0  0
  -21.8070   -6.4150   22.6090 C   0  0  0  0  0  0  0  0  0  0  0  0
  -21.1950   -6.9810   23.7500 C   0  0  0  0  0  3  0  0  0  0  0  0
  -20.9860   -6.1940   24.9000 C   0  0  0  0  0  3  0  0  0  0  0  0
  -21.3780   -4.8430   24.9100 C   0  0  0  0  0  0  0  0  0  0  0  0
  -21.9820   -4.2760   23.7750 C   0  0  0  0  0  3  0  0  0  0  0  0
  -22.1930   -5.0600   22.6270 C   0  0  0  0  0  0  0  0  0  0  0  0
  -22.7570   -4.5040   21.5280 F   0  0  0  0  0  0  0  0  0  0  0  0
  -21.1690   -4.0850   26.0120 F   0  0  0  0  0  0  0  0  0  0  0  0
  -23.0540  -13.7640   21.1470 C   0  0  0  0  0  0  0  0  0  0  0  0
  -22.2730  -13.0740   21.9720 N   0  0  0  0  0  0  0  0  0  0  0  0
  -22.6490  -14.7820   20.5870 O   0  0  0  0  0  0  0  0  0  0  0  0
  -22.6120  -12.2490   22.4430 H   0  0  0  0  0  0  0  0  0  0  0  0
  -21.3250  -13.3780   22.1360 H   0  0  0  0  0  0  0  0  0  0  0  0
  -25.7190  -15.4380   20.5000 N   0  0  0  0  0  0  0  0  0  0  0  0
  -24.9370  -16.0810   20.5470 H   0  0  0  0  0  0  0  0  0  0  0  0
  -26.5740  -15.8780   20.1920 H   0  0  0  0  0  0  0  0  0  0  0  0
  1  2  1  0
  1  3  1  0
  2  6  1  0
  2  4  1  0
  3  8  1  0
  4  3  1  0
  4 52  1  0
  5  6  1  0
  8  7  1  0
  9  8  1  0
  9 10  1  0
 11 13  1  0
 11 10  1  0
 12 23  2  0
 13 18  1  0
 14 22  1  0
 14 24  1  0
 15 21  1  0
 15 17  1  0
 16 22  1  0
 17 18  2  0
 17 16  1  0
 19 13  2  0
 20 19  1  0
 20 15  2  0
 21 14  1  0
 22 12  1  0
 24 26  2  0
 25 24  1  0
 27 25  1  0
 28 37  2  0
 28 33  1  0
 29 25  1  0
 29 33  1  0
 30 29  1  0
 31 32  1  0
 31 30  1  0
 32 28  1  0
 33 34  2  0
 34 35  1  0
 36 35  2  0
 37 36  1  0
 38 12  1  0
 38 39  1  0
 38 48  1  0
 39 42  1  0
 40 44  1  0
 40 39  1  0
 41 40  2  0
 44 43  1  0
 46 44  1  0
 46 47  1  0
 46 45  1  0
 48 51  1  1
 48 49  1  0
 50 48  1  0
 53 61  1  0
 54 59  1  0
 55 56  1  0
 55 54  1  0
 57 56  1  0
 57 66  1  0
 57 58  1  0
 59 53  1  0
 59 58  1  0
 60 53  2  0
 61 62  1  0
 61 52  1  0
 63 64  2  0
 64 65  1  0
 64 83  1  0
 65 68  1  0
 66 63  1  0
 66 67  1  0
 67 65  2  0
 68 69  1  0
 69 70  2  0
 71 74  1  0
 71 70  1  0
 72 71  2  0
 73 72  1  0
 73 68  2  0
 74 75  1  0
 75 80  2  0
 75 76  1  0
 76 77  2  0
 77 78  1  0
 78 82  1  0
 79 78  2  0
 80 79  1  0
 81 80  1  0
 83 84  1  0
 84 87  1  0
 84 86  1  0
 85 83  2  0
 88 89  1  0
 88 63  1  0
 90 88  1  0
M  ISO  4  10 101  11 101  53 100  61 100
M  END
>  <TORSDO>  (58) 
F 21

>  <SCORE>  (58) 
-12.293

>  <name>  (58) 
57

>  <ligand_id>  (58) 
57

>  <original_smiles>  (58) 
[H]c1c([H])c([H])c2c(c1[H])C([H])([H])C([H])([H])C([H])([H])C2([H])N([H])C(=O)C1([H])N(C(=O)C([H])(N([H])C(=O)C([H])(N([H])C([H])([H])[H])C([H])([H])[H])C(C([H])([H])[H])(C([H])([H])[H])C([H])([H])[H])C([H])([H])c2c([H])c(OC([H])([H])C([H])([H])C([H])(C([H])([H])[H])C3([H])C([H])([H])C([H])(C([H])([H])C([H])([H])[H])C3([H])C([H])([H])N([H])C(=O)N3C([H])([H])C([H])([H])C([H])([H])C([H])(n4nc(-c5c([H])c([H])c(Oc6c([H])c([H])c(F)c([H])c6F)c([H])c5[H])c(C(=O)N([H])[H])c4N([H])[H])C3([H])[H])c([H])c([H])c2C1([H])[H]

>  <smiles>  (58) 
[H]c1c([H])c([H])c2c(c1[H])C([H])([H])C([H])([H])C([H])([H])C2([H])N([H])C(=O)C1([H])N(C(=O)C([H])(N([H])C(=O)C([H])(N([H])C([H])([H])[H])C([H])([H])[H])C(C([H])([H])[H])(C([H])([H])[H])C([H])([H])[H])C([H])([H])c2c([H])c(OC([H])([H])C([H])([H])C([H])(C([H])([H])[H])C3([H])C([H])([H])C([H])(C([H])([H])C([H])([H])[H])C3([H])C([H])([H])N([H])C(=O)N3C([H])([H])C([H])([H])C([H])([H])C([H])(n4nc(-c5c([H])c([H])c(Oc6c([H])c([H])c(F)c([H])c6F)c([H])c5[H])c(C(=O)N([H])[H])c4N([H])[H])C3([H])[H])c([H])c([H])c2C1([H])[H]

$$$$
58:0:0
     RDKit          3D

 89 96  0  0  1  0  0  0  0  0999 V2000
  -29.6130  -20.6550   20.5170 C   0  0  0  0  0  3  0  0  0  0  0  0
  -28.7110  -22.0310   20.8540 C   0  0  0  0  0  3  0  0  0  0  0  0
  -29.0200  -23.5890   20.2980 C   0  0  0  0  0  3  0  0  0  0  0  0
  -27.9490  -24.8730   20.3870 C   0  0  0  0  0  3  0  0  0  0  0  0
  -28.2170  -26.3820   20.1390 O   0  0  0  0  0  0  0  0  0  0  0  0
  -24.5800  -31.9600   23.2810 C   0  0  0  0  0  0  0  0  0  0  0  0
  -27.1420  -27.3380   20.1280 C   0  0  0  0  0  0  0  0  0  0  0  0
  -23.3660  -30.5770   21.6420 C   0  0  0  0  0  3  0  0  0  0  0  0
  -24.8040  -29.0520   20.1650 C   0  0  0  0  0  0  0  0  0  0  0  0
  -25.9140  -30.8820   21.4340 C   0  0  0  0  0  2  0  0  0  0  0  0
  -25.9890  -29.5010   20.7610 C   0  0  0  0  0  0  0  0  0  0  0  0
  -27.1630  -28.6610   20.7230 C   0  0  0  0  0  3  0  0  0  0  0  0
  -25.9310  -26.9900   19.4920 C   0  0  0  0  0  3  0  0  0  0  0  0
  -24.7840  -27.8110   19.5150 C   0  0  0  0  0  3  0  0  0  0  0  0
  -23.5740  -29.9380   20.2430 C   0  0  0  0  0  2  0  0  0  0  0  0
  -24.6410  -31.1600   22.1750 N   0  0  0  0  0  0  0  0  0  0  0  0
  -23.5020  -32.2230   23.8330 O   0  0  0  0  0  0  0  0  0  0  0  0
  -22.7150  -29.5440   22.5980 C   0  0  0  0  0  0  0  0  0  0  0  0
  -21.3900  -29.3480   22.4800 N   0  0  0  0  0  0  0  0  0  0  0  0
  -23.4040  -28.9260   23.4150 O   0  0  0  0  0  0  0  0  0  0  0  0
  -20.8920  -29.9010   21.7970 H   0  0  0  0  0  0  0  0  0  0  0  0
  -18.0420  -28.0450   22.9620 C   0  0  0  0  0  0  0  0  0  0  0  0
  -20.5890  -28.3910   23.2500 C   0  0  0  0  0  3  0  0  0  0  0  0
  -20.7440  -26.9600   22.6850 C   0  0  0  0  0  2  0  0  0  0  0  0
  -19.6620  -26.5940   21.6650 C   0  0  0  0  0  2  0  0  0  0  0  0
  -18.2690  -26.6990   22.2950 C   0  0  0  0  0  2  0  0  0  0  0  0
  -19.1330  -28.8470   23.3940 C   0  0  0  0  0  0  0  0  0  0  0  0
  -18.8650  -30.1040   23.9800 C   0  0  0  0  0  3  0  0  0  0  0  0
  -17.5440  -30.5610   24.1380 C   0  0  0  0  0  3  0  0  0  0  0  0
  -16.4680  -29.7580   23.7200 C   0  0  0  0  0  3  0  0  0  0  0  0
  -16.7170  -28.5030   23.1360 C   0  0  0  0  0  3  0  0  0  0  0  0
  -25.8650  -32.5980   23.8920 C   0  0  0  0  0  3  0  0  0  0  0  0
  -25.5480  -33.9890   24.2500 N   0  0  0  0  0  0  0  0  0  0  0  0
  -25.8750  -35.0600   23.5140 C   0  0  0  0  0  0  0  0  0  0  0  0
  -26.5390  -34.9810   22.4770 O   0  0  0  0  0  0  0  0  0  0  0  0
  -24.9550  -34.1220   25.0550 H   0  0  0  0  0  0  0  0  0  0  0  0
  -24.1430  -36.8630   23.2110 C   0  0  0  0  0  1  0  0  0  0  0  0
  -25.3890  -36.4390   24.0050 C   0  0  0  0  0  3  0  0  0  0  0  0
  -27.5270  -37.3120   24.8410 C   0  0  0  0  0  1  0  0  0  0  0  0
  -26.4190  -37.4960   23.9090 N   0  0  0  0  0  0  0  0  0  0  0  0
  -26.0100  -38.4120   24.0800 H   0  0  0  0  0  0  0  0  0  0  0  0
  -26.4100  -31.8130   25.1500 C   0  0  1  0  0  0  0  0  0  0  0  0
  -25.3350  -31.5590   26.2330 C   0  0  0  0  0  1  0  0  0  0  0  0
  -26.9920  -30.4440   24.7320 C   0  0  0  0  0  1  0  0  0  0  0  0
  -27.5680  -32.6090   25.7960 C   0  0  0  0  0  1  0  0  0  0  0  0
  -29.6270  -19.2000   21.3710 C   0  0  0  0  0  2  0  0  0  0  0  0
  -30.1060  -17.7230   20.7300 C   0  0  0  0  0  3  0  0  0  0  0  0
  -30.8420  -15.1880   21.4370 C   0  0  0  0  0  0  0  0  0  0  0  0
  -30.8840  -12.7810   20.6730 C   0  0  0  0  0  2  0  0  0  0  0  0
  -30.1680  -12.6380   19.3080 C   0  0  0  0  0  2  0  0  0  0  0  0
  -28.6470  -12.4800   19.4940 C   0  0  0  0  0  2  0  0  0  0  0  0
  -28.0630  -13.4810   20.5250 C   0  0  0  0  0  3  0  0  0  0  0  0
  -28.9090  -13.5540   21.8140 C   0  0  0  0  0  2  0  0  0  0  0  0
  -30.2750  -13.9200   21.4160 N   0  0  0  0  0  0  0  0  0  0  0  0
  -32.0580  -15.2800   21.2330 O   0  0  0  0  0  0  0  0  0  0  0  0
  -30.0190  -16.3360   21.4700 N   0  0  0  0  0  0  0  0  0  0  0  0
  -29.0800  -16.1030   21.7640 H   0  0  0  0  0  0  0  0  0  0  0  0
  -25.5990  -14.1110   20.8470 C   0  0  0  0  0  0  0  0  0  0  0  0
  -24.4790  -13.3540   21.0580 C   0  0  0  0  0  0  0  0  0  0  0  0
  -24.9240  -12.0000   21.1290 C   0  0  0  0  0  0  0  0  0  0  0  0
  -26.6560  -13.2160   20.8000 N   0  0  0  0  0  0  0  0  0  0  0  0
  -26.2460  -11.9430   21.0340 N   0  0  0  0  0  0  0  0  0  0  0  0
  -24.1620  -10.7470   21.2280 C   0  0  0  0  0  0  0  0  0  0  0  0
  -24.4540   -9.7850   22.2180 C   0  0  0  0  0  3  0  0  0  0  0  0
  -23.6960   -8.5980   22.3060 C   0  0  0  0  0  3  0  0  0  0  0  0
  -22.6320   -8.3650   21.4010 C   0  0  0  0  0  0  0  0  0  0  0  0
  -22.3620   -9.3170   20.4010 C   0  0  0  0  0  3  0  0  0  0  0  0
  -23.1210  -10.4970   20.3130 C   0  0  0  0  0  3  0  0  0  0  0  0
  -21.8560   -7.2320   21.3920 O   0  0  0  0  0  0  0  0  0  0  0  0
  -21.6530   -6.4910   22.5290 C   0  0  0  0  0  0  0  0  0  0  0  0
  -21.0870   -7.0550   23.6930 C   0  0  0  0  0  3  0  0  0  0  0  0
  -20.8300   -6.2410   24.8150 C   0  0  0  0  0  3  0  0  0  0  0  0
  -21.1300   -4.8660   24.7710 C   0  0  0  0  0  0  0  0  0  0  0  0
  -21.6910   -4.3030   23.6110 C   0  0  0  0  0  3  0  0  0  0  0  0
  -21.9480   -5.1150   22.4920 C   0  0  0  0  0  0  0  0  0  0  0  0
  -22.4670   -4.5640   21.3680 F   0  0  0  0  0  0  0  0  0  0  0  0
  -20.8770   -4.0810   25.8450 F   0  0  0  0  0  0  0  0  0  0  0  0
  -23.0640  -13.8510   21.0900 C   0  0  0  0  0  0  0  0  0  0  0  0
  -22.2000  -13.1840   21.8520 N   0  0  0  0  0  0  0  0  0  0  0  0
  -22.7240  -14.8620   20.4780 O   0  0  0  0  0  0  0  0  0  0  0  0
  -22.4850  -12.3660   22.3680 H   0  0  0  0  0  0  0  0  0  0  0  0
  -21.2420  -13.5000   21.9190 H   0  0  0  0  0  0  0  0  0  0  0  0
  -25.8040  -15.4750   20.6720 N   0  0  0  0  0  0  0  0  0  0  0  0
  -25.0310  -16.1320   20.6390 H   0  0  0  0  0  0  0  0  0  0  0  0
  -26.6960  -15.9030   20.4630 H   0  0  0  0  0  0  0  0  0  0  0  0
  -29.2010  -17.5580   19.4850 C   0  0  0  0  0  2  0  0  0  0  0  0
  -28.5790  -16.1670   17.4740 C   0  0  0  0  0  1  0  0  0  0  0  0
  -30.6650  -17.5670   17.4110 C   0  0  0  0  0  1  0  0  0  0  0  0
  -29.7430  -16.7270   18.3060 C   0  0  0  0  0  3  0  0  0  0  0  0
  1  2  2  0
  1 46  1  0
  3  4  2  0
  3  2  1  0
  5  4  1  0
  6 17  2  0
  7  5  1  0
  7 12  1  0
  8 16  1  0
  8 18  1  0
  9 15  1  0
  9 11  1  0
 10 16  1  0
 11 10  1  0
 12 11  2  0
 13 14  1  0
 13  7  2  0
 14  9  2  0
 15  8  1  0
 16  6  1  0
 18 20  2  0
 19 18  1  0
 21 19  1  0
 22 31  2  0
 22 27  1  0
 23 19  1  0
 23 27  1  0
 24 23  1  0
 25 26  1  0
 25 24  1  0
 26 22  1  0
 27 28  2  0
 28 29  1  0
 30 29  2  0
 31 30  1  0
 32  6  1  0
 32 33  1  0
 32 42  1  0
 33 36  1  0
 34 38  1  0
 34 33  1  0
 35 34  2  0
 38 37  1  0
 40 38  1  0
 40 41  1  0
 40 39  1  0
 42 45  1  1
 42 43  1  0
 44 42  1  0
 47 86  1  0
 47 46  1  0
 47 56  1  0
 48 56  1  0
 49 54  1  0
 50 51  1  0
 50 49  1  0
 52 51  1  0
 52 61  1  0
 52 53  1  0
 54 48  1  0
 54 53  1  0
 55 48  2  0
 56 57  1  0
 58 59  2  0
 59 78  1  0
 59 60  1  0
 60 63  1  0
 61 58  1  0
 61 62  1  0
 62 60  2  0
 63 64  1  0
 64 65  2  0
 66 65  1  0
 67 66  2  0
 68 67  1  0
 68 63  2  0
 69 66  1  0
 69 70  1  0
 70 71  1  0
 71 72  2  0
 73 72  1  0
 73 77  1  0
 74 73  2  0
 75 70  2  0
 75 74  1  0
 76 75  1  0
 78 79  1  0
 79 82  1  0
 79 81  1  0
 80 78  2  0
 83 58  1  0
 84 83  1  0
 85 83  1  0
 87 89  1  0
 88 89  1  0
 89 86  1  0
M  ISO  4   4 101   5 101  48 100  56 100
M  END
>  <TORSDO>  (59) 
F 23

>  <SCORE>  (59) 
-8.437

>  <name>  (59) 
58

>  <ligand_id>  (59) 
58

>  <original_smiles>  (59) 
[H]c1c([H])c([H])c2c(c1[H])C([H])([H])C([H])([H])C([H])([H])C2([H])N([H])C(=O)C1([H])N(C(=O)C([H])(N([H])C(=O)C([H])(N([H])C([H])([H])[H])C([H])([H])[H])C(C([H])([H])[H])(C([H])([H])[H])C([H])([H])[H])C([H])([H])c2c([H])c(OC([H])([H])C([H])([H])C([H])([H])C([H])([H])C([H])([H])C([H])(N([H])C(=O)N3C([H])([H])C([H])([H])C([H])([H])C([H])(n4nc(-c5c([H])c([H])c(Oc6c([H])c([H])c(F)c([H])c6F)c([H])c5[H])c(C(=O)N([H])[H])c4N([H])[H])C3([H])[H])C([H])([H])C([H])(C([H])([H])[H])C([H])([H])[H])c([H])c([H])c2C1([H])[H]

>  <smiles>  (59) 
[H]c1c([H])c([H])c2c(c1[H])C([H])([H])C([H])([H])C([H])([H])C2([H])N([H])C(=O)C1([H])N(C(=O)C([H])(N([H])C(=O)C([H])(N([H])C([H])([H])[H])C([H])([H])[H])C(C([H])([H])[H])(C([H])([H])[H])C([H])([H])[H])C([H])([H])c2c([H])c(OC([H])([H])C([H])([H])C([H])([H])C([H])([H])C([H])([H])C([H])(N([H])C(=O)N3C([H])([H])C([H])([H])C([H])([H])C([H])(n4nc(-c5c([H])c([H])c(Oc6c([H])c([H])c(F)c([H])c6F)c([H])c5[H])c(C(=O)N([H])[H])c4N([H])[H])C3([H])[H])C([H])([H])C([H])(C([H])([H])[H])C([H])([H])[H])c([H])c([H])c2C1([H])[H]

$$$$
59:0:0
     RDKit          3D

 90 97  0  0  1  0  0  0  0  0999 V2000
  -28.8220  -22.5030   20.2980 C   0  0  0  0  0  3  0  0  0  0  0  0
  -26.2370  -22.4960   20.5010 C   0  0  0  0  0  1  0  0  0  0  0  0
  -27.5850  -22.2540   21.1990 C   0  0  0  0  0  2  0  0  0  0  0  0
  -29.2570  -24.0600   20.3750 C   0  0  0  0  0  3  0  0  0  0  0  0
  -28.1910  -25.1860   19.9730 C   0  0  0  0  0  3  0  0  0  0  0  0
  -28.4550  -26.6360   20.1970 O   0  0  0  0  0  0  0  0  0  0  0  0
  -24.6930  -31.9510   23.3540 C   0  0  0  0  0  0  0  0  0  0  0  0
  -27.3480  -27.5070   20.1580 C   0  0  0  0  0  0  0  0  0  0  0  0
  -23.5080  -30.6010   21.6630 C   0  0  0  0  0  3  0  0  0  0  0  0
  -24.9780  -29.1160   20.1880 C   0  0  0  0  0  0  0  0  0  0  0  0
  -26.0470  -30.9380   21.5110 C   0  0  0  0  0  2  0  0  0  0  0  0
  -26.1410  -29.5830   20.8180 C   0  0  0  0  0  0  0  0  0  0  0  0
  -27.3270  -28.7830   20.8040 C   0  0  0  0  0  3  0  0  0  0  0  0
  -26.1670  -27.1150   19.4860 C   0  0  0  0  0  3  0  0  0  0  0  0
  -24.9950  -27.8890   19.5140 C   0  0  0  0  0  3  0  0  0  0  0  0
  -23.7350  -29.9800   20.2600 C   0  0  0  0  0  2  0  0  0  0  0  0
  -24.7670  -31.1790   22.2330 N   0  0  0  0  0  0  0  0  0  0  0  0
  -23.6050  -32.2060   23.8900 O   0  0  0  0  0  0  0  0  0  0  0  0
  -22.8500  -29.5440   22.5800 C   0  0  0  0  0  0  0  0  0  0  0  0
  -21.5310  -29.3470   22.4250 N   0  0  0  0  0  0  0  0  0  0  0  0
  -23.5250  -28.9090   23.3950 O   0  0  0  0  0  0  0  0  0  0  0  0
  -21.0440  -29.9180   21.7480 H   0  0  0  0  0  0  0  0  0  0  0  0
  -18.1640  -28.0950   22.8350 C   0  0  0  0  0  0  0  0  0  0  0  0
  -20.7160  -28.3720   23.1510 C   0  0  0  0  0  3  0  0  0  0  0  0
  -20.8410  -26.9610   22.5270 C   0  0  0  0  0  2  0  0  0  0  0  0
  -19.7560  -26.6630   21.4890 C   0  0  0  0  0  2  0  0  0  0  0  0
  -18.3640  -26.7730   22.1180 C   0  0  0  0  0  2  0  0  0  0  0  0
  -19.2690  -28.8540   23.3070 C   0  0  0  0  0  0  0  0  0  0  0  0
  -19.0310  -30.0950   23.9360 C   0  0  0  0  0  3  0  0  0  0  0  0
  -17.7190  -30.5790   24.0990 C   0  0  0  0  0  3  0  0  0  0  0  0
  -16.6270  -29.8170   23.6470 C   0  0  0  0  0  3  0  0  0  0  0  0
  -16.8510  -28.5770   23.0210 C   0  0  0  0  0  3  0  0  0  0  0  0
  -25.9710  -32.5720   24.0020 C   0  0  0  0  0  3  0  0  0  0  0  0
  -26.4520  -31.7920   25.2870 C   0  0  1  0  0  0  0  0  0  0  0  0
  -25.3320  -31.5550   26.3260 C   0  0  0  0  0  1  0  0  0  0  0  0
  -27.0400  -30.4150   24.9020 C   0  0  0  0  0  1  0  0  0  0  0  0
  -27.5860  -32.5790   25.9840 C   0  0  0  0  0  1  0  0  0  0  0  0
  -25.6640  -33.9710   24.3320 N   0  0  0  0  0  0  0  0  0  0  0  0
  -25.9910  -35.0220   23.5680 C   0  0  0  0  0  0  0  0  0  0  0  0
  -26.6530  -34.9170   22.5330 O   0  0  0  0  0  0  0  0  0  0  0  0
  -25.0800  -34.1260   25.1400 H   0  0  0  0  0  0  0  0  0  0  0  0
  -24.2570  -36.8120   23.2360 C   0  0  0  0  0  1  0  0  0  0  0  0
  -25.5090  -36.4100   24.0310 C   0  0  0  0  0  3  0  0  0  0  0  0
  -27.6460  -37.3090   24.8410 C   0  0  0  0  0  1  0  0  0  0  0  0
  -26.5390  -37.4660   23.9020 N   0  0  0  0  0  0  0  0  0  0  0  0
  -26.1300  -38.3840   24.0450 H   0  0  0  0  0  0  0  0  0  0  0  0
  -29.9180  -21.3740   20.6450 C   0  0  0  0  0  2  0  0  0  0  0  0
  -29.7720  -20.0060   19.9780 N   0  0  0  0  0  4  0  0  0  0  0  0
  -30.5170  -19.9630   19.3010 H   0  0  0  0  0  0  0  0  0  0  0  0
  -28.9120  -20.0050   19.4530 H   0  0  0  0  0  0  0  0  0  0  0  0
  -29.8310  -18.7060   20.7840 C   0  0  0  0  0  3  0  0  0  0  0  0
  -30.1160  -17.3630   19.9480 C   0  0  0  0  0  3  0  0  0  0  0  0
  -30.7400  -14.8820   20.3880 C   0  0  0  0  0  0  0  0  0  0  0  0
  -30.5540  -12.6210   19.3920 C   0  0  0  0  0  2  0  0  0  0  0  0
  -29.6390  -12.7060   18.1510 C   0  0  0  0  0  2  0  0  0  0  0  0
  -28.1590  -12.5450   18.5470 C   0  0  0  0  0  2  0  0  0  0  0  0
  -27.7600  -13.4320   19.7590 C   0  0  0  0  0  3  0  0  0  0  0  0
  -28.7960  -13.3280   20.9040 C   0  0  0  0  0  2  0  0  0  0  0  0
  -30.1160  -13.6620   20.3460 N   0  0  0  0  0  0  0  0  0  0  0  0
  -31.9130  -15.0080   20.0250 O   0  0  0  0  0  0  0  0  0  0  0  0
  -29.9550  -15.9910   20.5840 N   0  0  0  0  0  0  0  0  0  0  0  0
  -29.0260  -15.7820   20.9230 H   0  0  0  0  0  0  0  0  0  0  0  0
  -25.3410  -14.0140   20.3950 C   0  0  0  0  0  0  0  0  0  0  0  0
  -24.2760  -13.2380   20.7640 C   0  0  0  0  0  0  0  0  0  0  0  0
  -24.7590  -11.8940   20.7990 C   0  0  0  0  0  0  0  0  0  0  0  0
  -26.4050  -13.1440   20.2190 N   0  0  0  0  0  0  0  0  0  0  0  0
  -26.0590  -11.8660   20.5220 N   0  0  0  0  0  0  0  0  0  0  0  0
  -24.0490  -10.6270   21.0190 C   0  0  0  0  0  0  0  0  0  0  0  0
  -24.4370   -9.7250   22.0340 C   0  0  0  0  0  3  0  0  0  0  0  0
  -23.7230   -8.5230   22.2340 C   0  0  0  0  0  3  0  0  0  0  0  0
  -22.6090   -8.2140   21.4190 C   0  0  0  0  0  0  0  0  0  0  0  0
  -22.2420   -9.1030   20.3940 C   0  0  0  0  0  3  0  0  0  0  0  0
  -22.9560  -10.2970   20.1940 C   0  0  0  0  0  3  0  0  0  0  0  0
  -21.8760   -7.0570   21.5240 O   0  0  0  0  0  0  0  0  0  0  0  0
  -21.7310   -6.4040   22.7220 C   0  0  0  0  0  0  0  0  0  0  0  0
  -21.1230   -7.0190   23.8380 C   0  0  0  0  0  3  0  0  0  0  0  0
  -20.9360   -6.2880   25.0280 C   0  0  0  0  0  3  0  0  0  0  0  0
  -21.3420   -4.9420   25.1010 C   0  0  0  0  0  0  0  0  0  0  0  0
  -21.9410   -4.3270   23.9880 C   0  0  0  0  0  3  0  0  0  0  0  0
  -22.1330   -5.0560   22.8010 C   0  0  0  0  0  0  0  0  0  0  0  0
  -22.6940   -4.4520   21.7250 F   0  0  0  0  0  0  0  0  0  0  0  0
  -21.1540   -4.2350   26.2400 F   0  0  0  0  0  0  0  0  0  0  0  0
  -22.8650  -13.7020   20.9760 C   0  0  0  0  0  0  0  0  0  0  0  0
  -22.1170  -13.0310   21.8460 N   0  0  0  0  0  0  0  0  0  0  0  0
  -22.4290  -14.6990   20.4030 O   0  0  0  0  0  0  0  0  0  0  0  0
  -22.4720  -12.2220   22.3350 H   0  0  0  0  0  0  0  0  0  0  0  0
  -21.1740  -13.3410   22.0320 H   0  0  0  0  0  0  0  0  0  0  0  0
  -25.4840  -15.3790   20.1690 N   0  0  0  0  0  0  0  0  0  0  0  0
  -24.6890  -16.0070   20.2270 H   0  0  0  0  0  0  0  0  0  0  0  0
  -26.3080  -15.8220   19.7870 H   0  0  0  0  0  0  0  0  0  0  0  0
  1  4  1  0
  1 47  1  0
  1  3  1  0
  2  3  1  0
  5  6  1  0
  5  4  2  0
  7 18  2  0
  8  6  1  0
  8 13  1  0
  9 17  1  0
  9 19  1  0
 10 16  1  0
 10 12  1  0
 11 17  1  0
 12 11  1  0
 13 12  2  0
 14 15  1  0
 14  8  2  0
 15 10  2  0
 16  9  1  0
 17  7  1  0
 19 21  2  0
 20 19  1  0
 22 20  1  0
 23 32  2  0
 23 28  1  0
 24 20  1  0
 24 28  1  0
 25 24  1  0
 26 27  1  0
 26 25  1  0
 27 23  1  0
 28 29  2  0
 29 30  1  0
 31 30  2  0
 32 31  1  0
 33  7  1  0
 33 38  1  0
 33 34  1  0
 34 37  1  1
 34 35  1  0
 36 34  1  0
 38 41  1  0
 39 43  1  0
 39 38  1  0
 40 39  2  0
 43 42  1  0
 45 43  1  0
 45 46  1  0
 45 44  1  0
 48 47  1  0
 48 51  1  0
 49 48  1  0
 50 48  1  0
 52 61  1  0
 52 51  2  0
 53 61  1  0
 54 59  1  0
 55 56  1  0
 55 54  1  0
 57 56  1  0
 57 66  1  0
 57 58  1  0
 59 53  1  0
 59 58  1  0
 60 53  2  0
 61 62  1  0
 63 64  2  0
 64 65  1  0
 64 83  1  0
 65 68  1  0
 66 63  1  0
 66 67  1  0
 67 65  2  0
 68 69  1  0
 69 70  2  0
 71 74  1  0
 71 70  1  0
 72 71  2  0
 73 72  1  0
 73 68  2  0
 74 75  1  0
 75 80  2  0
 75 76  1  0
 76 77  2  0
 77 78  1  0
 78 82  1  0
 79 78  2  0
 80 79  1  0
 81 80  1  0
 83 84  1  0
 84 87  1  0
 84 86  1  0
 85 83  2  0
 88 89  1  0
 88 63  1  0
 90 88  1  0
M  ISO  4   5 101   6 101  53 100  61 100
M  END
>  <TORSDO>  (60) 
F 23

>  <SCORE>  (60) 
-12.093

>  <name>  (60) 
59

>  <ligand_id>  (60) 
59

>  <original_smiles>  (60) 
[H]c1c([H])c([H])c2c(c1[H])C([H])([H])C([H])([H])C([H])([H])C2([H])N([H])C(=O)C1([H])N(C(=O)C([H])(N([H])C(=O)C([H])(N([H])C([H])([H])[H])C([H])([H])[H])C(C([H])([H])[H])(C([H])([H])[H])C([H])([H])[H])C([H])([H])c2c([H])c(OC([H])([H])C([H])([H])C([H])(C([H])([H])C([H])([H])[H])C([H])([H])[N+]([H])([H])C([H])([H])C([H])([H])N([H])C(=O)N3C([H])([H])C([H])([H])C([H])([H])C([H])(n4nc(-c5c([H])c([H])c(Oc6c([H])c([H])c(F)c([H])c6F)c([H])c5[H])c(C(=O)N([H])[H])c4N([H])[H])C3([H])[H])c([H])c([H])c2C1([H])[H]

>  <smiles>  (60) 
[H]c1c([H])c([H])c2c(c1[H])C([H])([H])C([H])([H])C([H])([H])C2([H])N([H])C(=O)C1([H])N(C(=O)C([H])(N([H])C(=O)C([H])(N([H])C([H])([H])[H])C([H])([H])[H])C(C([H])([H])[H])(C([H])([H])[H])C([H])([H])[H])C([H])([H])c2c([H])c(OC([H])([H])C([H])([H])C([H])(C([H])([H])C([H])([H])[H])C([H])([H])[N+]([H])([H])C([H])([H])C([H])([H])N([H])C(=O)N3C([H])([H])C([H])([H])C([H])([H])C([H])(n4nc(-c5c([H])c([H])c(Oc6c([H])c([H])c(F)c([H])c6F)c([H])c5[H])c(C(=O)N([H])[H])c4N([H])[H])C3([H])[H])c([H])c([H])c2C1([H])[H]

$$$$
60:0:0
     RDKit          3D

 91 99  0  0  1  0  0  0  0  0999 V2000
  -27.8680  -21.6870   19.5110 C   0  0  0  0  0  2  0  0  0  0  0  0
  -28.5320  -20.1890   19.3160 C   0  0  0  0  0  2  0  0  0  0  0  0
  -29.3790  -22.0950   21.3010 C   0  0  0  0  0  2  0  0  0  0  0  0
  -28.6970  -22.9450   20.1050 C   0  0  0  0  0  3  0  0  0  0  0  0
  -29.2630  -19.4750   20.5450 C   0  0  0  0  0  3  0  0  0  0  0  0
  -30.0510  -20.7150   21.0060 N   0  0  0  0  0  4  0  0  0  0  0  0
  -30.5220  -20.4470   21.8560 H   0  0  0  0  0  0  0  0  0  0  0  0
  -30.7770  -20.8810   20.3270 H   0  0  0  0  0  0  0  0  0  0  0  0
  -27.0880  -24.3340   21.6880 C   0  0  0  0  0  1  0  0  0  0  0  0
  -27.8330  -24.4600   20.3480 C   0  0  0  0  0  3  0  0  0  0  0  0
  -28.1810  -26.0290   20.2470 O   0  0  0  0  0  0  0  0  0  0  0  0
  -24.6420  -31.8900   23.2500 C   0  0  0  0  0  0  0  0  0  0  0  0
  -27.1680  -27.0960   20.1930 C   0  0  0  0  0  0  0  0  0  0  0  0
  -23.4310  -30.5080   21.6130 C   0  0  0  0  0  3  0  0  0  0  0  0
  -24.8660  -28.9240   20.1740 C   0  0  0  0  0  0  0  0  0  0  0  0
  -25.9940  -30.7350   21.4470 C   0  0  0  0  0  2  0  0  0  0  0  0
  -26.0560  -29.3380   20.7860 C   0  0  0  0  0  0  0  0  0  0  0  0
  -27.2060  -28.4420   20.7760 C   0  0  0  0  0  3  0  0  0  0  0  0
  -25.9520  -26.8200   19.5260 C   0  0  0  0  0  3  0  0  0  0  0  0
  -24.8340  -27.6830   19.5250 C   0  0  0  0  0  3  0  0  0  0  0  0
  -23.6470  -29.8370   20.2310 C   0  0  0  0  0  2  0  0  0  0  0  0
  -24.7100  -31.0690   22.1570 N   0  0  0  0  0  0  0  0  0  0  0  0
  -23.5570  -32.1790   23.7810 O   0  0  0  0  0  0  0  0  0  0  0  0
  -22.7470  -29.5020   22.5740 C   0  0  0  0  0  0  0  0  0  0  0  0
  -21.4180  -29.3320   22.4490 N   0  0  0  0  0  0  0  0  0  0  0  0
  -23.4170  -28.8760   23.4010 O   0  0  0  0  0  0  0  0  0  0  0  0
  -20.9330  -29.8880   21.7590 H   0  0  0  0  0  0  0  0  0  0  0  0
  -18.0380  -28.1200   22.9510 C   0  0  0  0  0  0  0  0  0  0  0  0
  -20.5970  -28.3930   23.2190 C   0  0  0  0  0  3  0  0  0  0  0  0
  -20.7030  -26.9600   22.6470 C   0  0  0  0  0  2  0  0  0  0  0  0
  -19.6030  -26.6330   21.6320 C   0  0  0  0  0  2  0  0  0  0  0  0
  -18.2200  -26.7720   22.2740 C   0  0  0  0  0  2  0  0  0  0  0  0
  -19.1540  -28.8880   23.3800 C   0  0  0  0  0  0  0  0  0  0  0  0
  -18.9270  -30.1480   23.9760 C   0  0  0  0  0  3  0  0  0  0  0  0
  -17.6190  -30.6420   24.1450 C   0  0  0  0  0  3  0  0  0  0  0  0
  -16.5190  -29.8720   23.7290 C   0  0  0  0  0  3  0  0  0  0  0  0
  -16.7290  -28.6120   23.1390 C   0  0  0  0  0  3  0  0  0  0  0  0
  -25.9210  -32.5240   23.8760 C   0  0  0  0  0  3  0  0  0  0  0  0
  -25.6150  -33.9250   24.2090 N   0  0  0  0  0  0  0  0  0  0  0  0
  -25.9230  -34.9800   23.4440 C   0  0  0  0  0  0  0  0  0  0  0  0
  -26.5600  -34.8770   22.3930 O   0  0  0  0  0  0  0  0  0  0  0  0
  -25.0460  -34.0790   25.0300 H   0  0  0  0  0  0  0  0  0  0  0  0
  -24.1730  -36.7690   23.1610 C   0  0  0  0  0  1  0  0  0  0  0  0
  -25.4510  -36.3700   23.9180 C   0  0  0  0  0  3  0  0  0  0  0  0
  -27.6140  -37.2720   24.6530 C   0  0  0  0  0  1  0  0  0  0  0  0
  -26.4730  -37.4270   23.7550 N   0  0  0  0  0  0  0  0  0  0  0  0
  -26.0680  -38.3470   23.9110 H   0  0  0  0  0  0  0  0  0  0  0  0
  -26.4270  -31.7550   25.1590 C   0  0  1  0  0  0  0  0  0  0  0  0
  -25.3290  -31.5320   26.2250 C   0  0  0  0  0  1  0  0  0  0  0  0
  -27.0020  -30.3710   24.7830 C   0  0  0  0  0  1  0  0  0  0  0  0
  -27.5820  -32.5450   25.8200 C   0  0  0  0  0  1  0  0  0  0  0  0
  -31.1810  -18.0100   21.6090 C   0  0  0  0  0  1  0  0  0  0  0  0
  -30.1770  -17.9670   20.4360 C   0  0  0  0  0  3  0  0  0  0  0  0
  -30.4450  -15.1540   20.1760 C   0  0  0  0  0  0  0  0  0  0  0  0
  -30.3280  -12.7760   19.2260 C   0  0  0  0  0  2  0  0  0  0  0  0
  -29.3730  -12.6730   18.0140 C   0  0  0  0  0  2  0  0  0  0  0  0
  -27.9290  -12.4220   18.4850 C   0  0  0  0  0  2  0  0  0  0  0  0
  -27.5270  -13.3490   19.6620 C   0  0  0  0  0  3  0  0  0  0  0  0
  -28.6070  -13.4210   20.7620 C   0  0  0  0  0  2  0  0  0  0  0  0
  -29.8400  -13.8850   20.1110 N   0  0  0  0  0  0  0  0  0  0  0  0
  -31.6500  -15.1630   19.8970 O   0  0  0  0  0  0  0  0  0  0  0  0
  -29.7210  -16.4050   20.3560 N   0  0  0  0  0  0  0  0  0  0  0  0
  -28.7300  -16.2670   20.4860 H   0  0  0  0  0  0  0  0  0  0  0  0
  -25.1660  -13.8890   20.4650 C   0  0  0  0  0  0  0  0  0  0  0  0
  -24.1170  -13.1010   20.8520 C   0  0  0  0  0  0  0  0  0  0  0  0
  -24.5950  -11.7550   20.8010 C   0  0  0  0  0  0  0  0  0  0  0  0
  -26.2100  -13.0240   20.1940 N   0  0  0  0  0  0  0  0  0  0  0  0
  -25.8800  -11.7340   20.4650 N   0  0  0  0  0  0  0  0  0  0  0  0
  -23.8830  -10.4850   20.9960 C   0  0  0  0  0  0  0  0  0  0  0  0
  -24.3310   -9.5210   21.9270 C   0  0  0  0  0  3  0  0  0  0  0  0
  -23.6160   -8.3170   22.1110 C   0  0  0  0  0  3  0  0  0  0  0  0
  -22.4400   -8.0690   21.3640 C   0  0  0  0  0  0  0  0  0  0  0  0
  -22.0120   -9.0210   20.4220 C   0  0  0  0  0  3  0  0  0  0  0  0
  -22.7270  -10.2160   20.2360 C   0  0  0  0  0  3  0  0  0  0  0  0
  -21.6960   -6.9180   21.4570 O   0  0  0  0  0  0  0  0  0  0  0  0
  -21.6440   -6.1870   22.6160 C   0  0  0  0  0  0  0  0  0  0  0  0
  -21.1760   -6.7420   23.8270 C   0  0  0  0  0  3  0  0  0  0  0  0
  -21.0730   -5.9350   24.9780 C   0  0  0  0  0  3  0  0  0  0  0  0
  -21.4280   -4.5750   24.9190 C   0  0  0  0  0  0  0  0  0  0  0  0
  -21.8900   -4.0180   23.7120 C   0  0  0  0  0  3  0  0  0  0  0  0
  -21.9940   -4.8220   22.5640 C   0  0  0  0  0  0  0  0  0  0  0  0
  -22.4180   -4.2760   21.3990 F   0  0  0  0  0  0  0  0  0  0  0  0
  -21.3240   -3.7970   26.0230 F   0  0  0  0  0  0  0  0  0  0  0  0
  -22.7220  -13.5640   21.1500 C   0  0  0  0  0  0  0  0  0  0  0  0
  -22.0200  -12.8620   22.0330 N   0  0  0  0  0  0  0  0  0  0  0  0
  -22.2640  -14.5830   20.6370 O   0  0  0  0  0  0  0  0  0  0  0  0
  -22.4050  -12.0370   22.4690 H   0  0  0  0  0  0  0  0  0  0  0  0
  -21.0840  -13.1540   22.2760 H   0  0  0  0  0  0  0  0  0  0  0  0
  -25.3100  -15.2640   20.2920 N   0  0  0  0  0  0  0  0  0  0  0  0
  -24.5330  -15.9030   20.4150 H   0  0  0  0  0  0  0  0  0  0  0  0
  -26.1310  -15.7090   19.9060 H   0  0  0  0  0  0  0  0  0  0  0  0
  1  4  1  0
  2  1  1  0
  2  5  1  0
  4 10  1  0
  4  3  1  0
  5 53  1  0
  5  6  1  0
  6  3  1  0
  6  7  1  0
  8  6  1  0
 10  9  1  0
 11 10  1  0
 12 23  2  0
 13 11  1  0
 13 18  1  0
 14 22  1  0
 14 24  1  0
 15 21  1  0
 15 17  1  0
 16 22  1  0
 17 16  1  0
 18 17  2  0
 19 13  2  0
 20 19  1  0
 20 15  2  0
 21 14  1  0
 22 12  1  0
 24 26  2  0
 25 24  1  0
 27 25  1  0
 28 37  2  0
 28 33  1  0
 29 25  1  0
 29 33  1  0
 30 29  1  0
 31 32  1  0
 31 30  1  0
 32 28  1  0
 33 34  2  0
 34 35  1  0
 36 35  2  0
 37 36  1  0
 38 12  1  0
 38 39  1  0
 38 48  1  0
 39 42  1  0
 40 44  1  0
 40 39  1  0
 41 40  2  0
 44 43  1  0
 46 47  1  0
 46 44  1  0
 46 45  1  0
 48 51  1  1
 48 49  1  0
 50 48  1  0
 53 52  1  0
 54 62  1  0
 55 60  1  0
 56 57  1  0
 56 55  1  0
 58 57  1  0
 58 67  1  0
 58 59  1  0
 60 54  1  0
 60 59  1  0
 61 54  2  0
 62 53  1  0
 62 63  1  0
 64 65  2  0
 65 84  1  0
 66 65  1  0
 66 69  1  0
 67 64  1  0
 67 68  1  0
 68 66  2  0
 69 70  1  0
 70 71  2  0
 72 75  1  0
 72 71  1  0
 73 72  2  0
 74 73  1  0
 74 69  2  0
 75 76  1  0
 76 77  1  0
 77 78  2  0
 79 78  1  0
 79 83  1  0
 80 79  2  0
 81 76  2  0
 81 80  1  0
 82 81  1  0
 84 85  1  0
 85 88  1  0
 85 87  1  0
 86 84  2  0
 89 90  1  0
 89 64  1  0
 91 89  1  0
M  ISO  4  10 101  11 101  54 100  62 100
M  END
>  <TORSDO>  (61) 
F 18

>  <SCORE>  (61) 
-15.640

>  <name>  (61) 
60

>  <ligand_id>  (61) 
60

>  <original_smiles>  (61) 
[H]c1c([H])c([H])c2c(c1[H])C([H])([H])C([H])([H])C([H])([H])C2([H])N([H])C(=O)C1([H])N(C(=O)C([H])(N([H])C(=O)C([H])(N([H])C([H])([H])[H])C([H])([H])[H])C(C([H])([H])[H])(C([H])([H])[H])C([H])([H])[H])C([H])([H])c2c([H])c(OC([H])(C([H])([H])[H])C3([H])C([H])([H])C([H])([H])C([H])(C([H])(N([H])C(=O)N4C([H])([H])C([H])([H])C([H])([H])C([H])(n5nc(-c6c([H])c([H])c(Oc7c([H])c([H])c(F)c([H])c7F)c([H])c6[H])c(C(=O)N([H])[H])c5N([H])[H])C4([H])[H])C([H])([H])[H])[N+]([H])([H])C3([H])[H])c([H])c([H])c2C1([H])[H]

>  <smiles>  (61) 
[H]c1c([H])c([H])c2c(c1[H])C([H])([H])C([H])([H])C([H])([H])C2([H])N([H])C(=O)C1([H])N(C(=O)C([H])(N([H])C(=O)C([H])(N([H])C([H])([H])[H])C([H])([H])[H])C(C([H])([H])[H])(C([H])([H])[H])C([H])([H])[H])C([H])([H])c2c([H])c(OC([H])(C([H])([H])[H])C3([H])C([H])([H])C([H])([H])C([H])(C([H])(N([H])C(=O)N4C([H])([H])C([H])([H])C([H])([H])C([H])(n5nc(-c6c([H])c([H])c(Oc7c([H])c([H])c(F)c([H])c7F)c([H])c6[H])c(C(=O)N([H])[H])c5N([H])[H])C4([H])[H])C([H])([H])[H])[N+]([H])([H])C3([H])[H])c([H])c([H])c2C1([H])[H]

$$$$
61:0:0
     RDKit          3D

 93101  0  0  1  0  0  0  0  0999 V2000
  -28.1790  -19.8050   17.3150 C   0  0  0  0  0  3  0  0  0  0  0  0
  -26.6530  -19.2910   19.1390 C   0  0  0  0  0  3  0  0  0  0  0  0
  -27.9660  -21.1880   17.4960 C   0  0  0  0  0  3  0  0  0  0  0  0
  -26.3700  -20.6680   19.2790 C   0  0  0  0  0  3  0  0  0  0  0  0
  -27.5920  -18.8520   18.1800 C   0  0  0  0  0  0  0  0  0  0  0  0
  -27.0790  -21.6170   18.5040 C   0  0  0  0  0  0  0  0  0  0  0  0
  -28.0470  -17.3950   18.0600 C   0  0  0  0  0  2  0  0  0  0  0  0
  -29.1230  -17.0080   19.1220 C   0  0  0  0  0  2  0  0  0  0  0  0
  -31.3930  -16.9960   17.8680 C   0  0  0  0  0  1  0  0  0  0  0  0
  -30.2840  -16.1440   18.5460 C   0  0  0  0  0  3  0  0  0  0  0  0
  -30.8550  -14.7640   20.6950 C   0  0  0  0  0  3  0  0  0  0  0  0
  -30.6120  -12.4810   19.9120 C   0  0  0  0  0  2  0  0  0  0  0  0
  -29.7690  -12.4650   18.6150 C   0  0  0  0  0  2  0  0  0  0  0  0
  -28.2680  -12.5680   18.8770 C   0  0  0  0  0  2  0  0  0  0  0  0
  -27.8440  -13.4590   20.0960 C   0  0  0  0  0  3  0  0  0  0  0  0
  -28.8250  -13.4140   21.2800 C   0  0  0  0  0  2  0  0  0  0  0  0
  -30.1800  -13.6010   20.7550 N   0  0  0  0  0  0  0  0  0  0  0  0
  -31.9270  -14.9360   21.2410 O   0  0  0  0  0  1  0  0  0  0  0  0
  -30.9270  -15.1780   19.4290 N   0  0  0  0  0  0  0  0  0  0  0  0
  -31.7920  -14.8420   19.0160 H   0  0  0  0  0  0  0  0  0  0  0  0
  -25.3880  -14.0520   20.6710 C   0  0  0  0  0  0  0  0  0  0  0  0
  -24.3110  -13.2510   20.9620 C   0  0  0  0  0  0  0  0  0  0  0  0
  -24.8030  -11.9200   20.9840 C   0  0  0  0  0  0  0  0  0  0  0  0
  -26.4680  -13.1880   20.5390 N   0  0  0  0  0  0  0  0  0  0  0  0
  -26.1140  -11.9020   20.8090 N   0  0  0  0  0  0  0  0  0  0  0  0
  -24.0770  -10.6430   21.1460 C   0  0  0  0  0  0  0  0  0  0  0  0
  -24.4660   -9.7080   22.1380 C   0  0  0  0  0  3  0  0  0  0  0  0
  -23.7690   -8.4930   22.2590 C   0  0  0  0  0  3  0  0  0  0  0  0
  -22.6580   -8.2160   21.4220 C   0  0  0  0  0  0  0  0  0  0  0  0
  -22.2850   -9.1460   20.4410 C   0  0  0  0  0  3  0  0  0  0  0  0
  -22.9860  -10.3630   20.3060 C   0  0  0  0  0  3  0  0  0  0  0  0
  -21.9300   -7.0490   21.4570 O   0  0  0  0  0  0  0  0  0  0  0  0
  -21.7970   -6.3240   22.6150 C   0  0  0  0  0  0  0  0  0  0  0  0
  -21.2630   -6.8900   23.7930 C   0  0  0  0  0  3  0  0  0  0  0  0
  -21.0690   -6.0920   24.9330 C   0  0  0  0  0  3  0  0  0  0  0  0
  -21.4100   -4.7260   24.9060 C   0  0  0  0  0  0  0  0  0  0  0  0
  -21.9440   -4.1590   23.7310 C   0  0  0  0  0  3  0  0  0  0  0  0
  -22.1310   -4.9560   22.5880 C   0  0  0  0  0  0  0  0  0  0  0  0
  -22.6220   -4.3920   21.4570 F   0  0  0  0  0  0  0  0  0  0  0  0
  -21.2260   -3.9560   26.0020 F   0  0  0  0  0  0  0  0  0  0  0  0
  -22.8850  -13.6980   21.0560 C   0  0  0  0  0  0  0  0  0  0  0  0
  -22.0790  -13.0090   21.8510 N   0  0  0  0  0  0  0  0  0  0  0  0
  -22.4750  -14.6840   20.4590 O   0  0  0  0  0  0  0  0  0  0  0  0
  -21.1010  -13.2510   21.9160 H   0  0  0  0  0  0  0  0  0  0  0  0
  -22.4370  -12.2180   22.3390 H   0  0  0  0  0  0  0  0  0  0  0  0
  -25.4990  -15.4180   20.4730 N   0  0  0  0  0  0  0  0  0  0  0  0
  -24.7160  -16.0350   20.6410 H   0  0  0  0  0  0  0  0  0  0  0  0
  -26.3520  -15.9620   20.4510 H   0  0  0  0  0  0  0  0  0  0  0  0
  -26.8430  -23.1070   18.6640 C   0  0  0  0  0  2  0  0  0  0  0  0
  -27.0740  -23.4550   21.1020 C   0  0  0  0  0  1  0  0  0  0  0  0
  -27.6990  -23.8640   19.7490 C   0  0  0  0  0  3  0  0  0  0  0  0
  -27.5390  -25.3800   19.4320 C   0  0  0  0  0  2  0  0  0  0  0  0
  -28.2320  -26.6500   19.7910 O   0  0  0  0  0  0  0  0  0  0  0  0
  -24.7110  -31.9360   23.2670 C   0  0  0  0  0  0  0  0  0  0  0  0
  -27.2950  -27.7000   19.7640 C   0  0  0  0  0  0  0  0  0  0  0  0
  -23.5200  -30.6440   21.5520 C   0  0  0  0  0  3  0  0  0  0  0  0
  -24.9690  -29.3200   19.9560 C   0  0  0  0  0  0  0  0  0  0  0  0
  -26.0640  -31.0050   21.4010 C   0  0  0  0  0  2  0  0  0  0  0  0
  -26.1400  -29.7040   20.6270 C   0  0  0  0  0  0  0  0  0  0  0  0
  -27.3110  -28.8820   20.5670 C   0  0  0  0  0  3  0  0  0  0  0  0
  -26.1540  -27.5400   18.9310 C   0  0  0  0  0  3  0  0  0  0  0  0
  -24.9770  -28.2320   19.1010 C   0  0  0  0  0  3  0  0  0  0  0  0
  -23.7250  -30.1510   20.1090 C   0  0  0  0  0  2  0  0  0  0  0  0
  -24.7850  -31.2000   22.1290 N   0  0  0  0  0  0  0  0  0  0  0  0
  -23.6270  -32.1450   23.8270 O   0  0  0  0  0  0  0  0  0  0  0  0
  -22.9110  -29.5060   22.4110 C   0  0  0  0  0  0  0  0  0  0  0  0
  -21.5950  -29.2800   22.2630 N   0  0  0  0  0  0  0  0  0  0  0  0
  -23.6150  -28.8450   23.1790 O   0  0  0  0  0  0  0  0  0  0  0  0
  -21.0800  -29.8740   21.6250 H   0  0  0  0  0  0  0  0  0  0  0  0
  -18.2710  -27.9100   22.6510 C   0  0  0  0  0  0  0  0  0  0  0  0
  -20.8130  -28.2680   22.9700 C   0  0  0  0  0  3  0  0  0  0  0  0
  -20.9870  -26.8750   22.3220 C   0  0  0  0  0  2  0  0  0  0  0  0
  -19.9110  -26.5550   21.2770 C   0  0  0  0  0  2  0  0  0  0  0  0
  -18.5160  -26.6060   21.9100 C   0  0  0  0  0  2  0  0  0  0  0  0
  -19.3500  -28.6950   23.1360 C   0  0  0  0  0  0  0  0  0  0  0  0
  -19.0660  -29.9160   23.7870 C   0  0  0  0  0  3  0  0  0  0  0  0
  -17.7380  -30.3500   23.9590 C   0  0  0  0  0  3  0  0  0  0  0  0
  -16.6740  -29.5580   23.4930 C   0  0  0  0  0  3  0  0  0  0  0  0
  -16.9400  -28.3400   22.8410 C   0  0  0  0  0  3  0  0  0  0  0  0
  -25.9850  -32.5540   23.9100 C   0  0  0  0  0  3  0  0  0  0  0  0
  -25.6310  -33.9040   24.3630 N   0  0  0  0  0  0  0  0  0  0  0  0
  -25.9470  -35.0320   23.7120 C   0  0  0  0  0  0  0  0  0  0  0  0
  -26.6410  -35.0430   22.6920 O   0  0  0  0  0  0  0  0  0  0  0  0
  -25.0170  -33.9700   25.1610 H   0  0  0  0  0  0  0  0  0  0  0  0
  -24.1910  -36.8150   23.4640 C   0  0  0  0  0  1  0  0  0  0  0  0
  -25.4070  -36.3570   24.2870 C   0  0  0  0  0  3  0  0  0  0  0  0
  -27.4870  -37.1830   25.2900 C   0  0  0  0  0  1  0  0  0  0  0  0
  -26.4170  -37.4350   24.3280 N   0  0  0  0  0  0  0  0  0  0  0  0
  -25.9890  -38.3250   24.5590 H   0  0  0  0  0  0  0  0  0  0  0  0
  -26.5550  -31.6920   25.1030 C   0  0  1  0  0  0  0  0  0  0  0  0
  -25.4920  -31.3210   26.1640 C   0  0  0  0  0  1  0  0  0  0  0  0
  -27.1780  -30.3720   24.5870 C   0  0  0  0  0  1  0  0  0  0  0  0
  -27.6950  -32.4670   25.8060 C   0  0  0  0  0  1  0  0  0  0  0  0
  1  3  2  0
  1  5  1  0
  2  4  1  0
  3  6  1  0
  5  2  2  0
  6 49  1  0
  6  4  2  0
  7  5  1  0
  7  8  1  0
 10  9  1  0
 10  8  1  0
 10 19  1  0
 11 17  1  0
 11 18  1  0
 12 17  1  0
 13 14  1  0
 13 12  1  0
 15 14  1  0
 15 24  1  0
 15 16  1  0
 17 16  1  0
 19 11  1  0
 20 19  1  0
 21 22  2  0
 22 23  1  0
 22 41  1  0
 23 26  1  0
 24 21  1  0
 24 25  1  0
 25 23  2  0
 26 27  1  0
 27 28  2  0
 29 32  1  0
 29 28  1  0
 30 29  2  0
 31 30  1  0
 31 26  2  0
 32 33  1  0
 33 34  1  0
 34 35  2  0
 36 35  1  0
 36 40  1  0
 37 36  2  0
 38 33  2  0
 38 37  1  0
 39 38  1  0
 41 42  1  0
 42 44  1  0
 42 45  1  0
 43 41  2  0
 46 47  1  0
 46 21  1  0
 48 46  1  0
 49 51  1  0
 51 50  1  0
 52 51  1  0
 52 53  1  0
 54 65  2  0
 55 53  1  0
 55 60  1  0
 56 64  1  0
 56 66  1  0
 57 63  1  0
 57 59  1  0
 58 64  1  0
 59 58  1  0
 60 59  2  0
 61 62  1  0
 61 55  2  0
 62 57  2  0
 63 56  1  0
 64 54  1  0
 66 68  2  0
 67 66  1  0
 69 67  1  0
 70 79  2  0
 70 75  1  0
 71 67  1  0
 71 75  1  0
 72 71  1  0
 73 74  1  0
 73 72  1  0
 74 70  1  0
 75 76  2  0
 76 77  1  0
 78 77  2  0
 79 78  1  0
 80 54  1  0
 80 81  1  0
 80 90  1  0
 81 84  1  0
 82 86  1  0
 82 81  1  0
 83 82  2  0
 86 85  1  0
 86 88  1  0
 88 89  1  0
 88 87  1  0
 90 93  1  1
 90 91  1  0
 92 90  1  0
M  ISO  4  11 100  19 100  52 101  53 101
M  END
>  <TORSDO>  (62) 
F 22

>  <SCORE>  (62) 
-11.782

>  <name>  (62) 
61

>  <ligand_id>  (62) 
61

>  <original_smiles>  (62) 
[H]c1c([H])c([H])c2c(c1[H])C([H])([H])C([H])([H])C([H])([H])C2([H])N([H])C(=O)C1([H])N(C(=O)C([H])(N([H])C(=O)C([H])(N([H])C([H])([H])[H])C([H])([H])[H])C(C([H])([H])[H])(C([H])([H])[H])C([H])([H])[H])C([H])([H])c2c([H])c(OC([H])([H])C([H])(C([H])([H])[H])C([H])([H])c3c([H])c([H])c(C([H])([H])C([H])([H])C([H])(N([H])C(=O)N4C([H])([H])C([H])([H])C([H])([H])C([H])(n5nc(-c6c([H])c([H])c(Oc7c([H])c([H])c(F)c([H])c7F)c([H])c6[H])c(C(=O)N([H])[H])c5N([H])[H])C4([H])[H])C([H])([H])[H])c([H])c3[H])c([H])c([H])c2C1([H])[H]

>  <smiles>  (62) 
[H]c1c([H])c([H])c2c(c1[H])C([H])([H])C([H])([H])C([H])([H])C2([H])N([H])C(=O)C1([H])N(C(=O)C([H])(N([H])C(=O)C([H])(N([H])C([H])([H])[H])C([H])([H])[H])C(C([H])([H])[H])(C([H])([H])[H])C([H])([H])[H])C([H])([H])c2c([H])c(OC([H])([H])C([H])(C([H])([H])[H])C([H])([H])c3c([H])c([H])c(C([H])([H])C([H])([H])C([H])(N([H])C(=O)N4C([H])([H])C([H])([H])C([H])([H])C([H])(n5nc(-c6c([H])c([H])c(Oc7c([H])c([H])c(F)c([H])c7F)c([H])c6[H])c(C(=O)N([H])[H])c5N([H])[H])C4([H])[H])C([H])([H])[H])c([H])c3[H])c([H])c([H])c2C1([H])[H]

$$$$
62:0:0
     RDKit          3D

 90 98  0  0  1  0  0  0  0  0999 V2000
  -30.9380  -15.3740   19.8460 C   0  0  0  0  0  0  0  0  0  0  0  0
  -30.9790  -12.8110   19.3980 C   0  0  0  0  0  2  0  0  0  0  0  0
  -30.1120  -12.3430   18.1990 C   0  0  0  0  0  2  0  0  0  0  0  0
  -28.6530  -12.1100   18.6320 C   0  0  0  0  0  2  0  0  0  0  0  0
  -28.1430  -13.2550   19.5400 C   0  0  0  0  0  3  0  0  0  0  0  0
  -29.1380  -13.6010   20.6580 C   0  0  0  0  0  2  0  0  0  0  0  0
  -30.3780  -14.0630   20.0020 N   0  0  0  0  0  0  0  0  0  0  0  0
  -32.1330  -15.3270   19.5190 O   0  0  0  0  0  0  0  0  0  0  0  0
  -28.5360  -18.1600   21.1300 C   0  0  0  0  0  2  0  0  0  0  0  0
  -29.6420  -17.0600   21.1460 C   0  0  0  0  0  2  0  0  0  0  0  0
  -30.4230  -18.1520   19.1020 C   0  0  0  0  0  2  0  0  0  0  0  0
  -28.9920  -19.5940   20.7310 C   0  0  0  0  0  3  0  0  0  0  0  0
  -29.4410  -19.6400   19.2460 C   0  0  0  0  0  3  0  0  0  0  0  0
  -30.1990  -16.6820   19.8370 N   0  0  0  0  0  0  0  0  0  0  0  0
  -25.8420  -13.9460   20.3860 C   0  0  0  0  0  0  0  0  0  0  0  0
  -24.7330  -13.2300   20.7440 C   0  0  0  0  0  0  0  0  0  0  0  0
  -25.1000  -11.8530   20.6300 C   0  0  0  0  0  0  0  0  0  0  0  0
  -26.8070  -13.0110   20.0630 N   0  0  0  0  0  0  0  0  0  0  0  0
  -26.3750  -11.7430   20.2790 N   0  0  0  0  0  0  0  0  0  0  0  0
  -24.2890  -10.6390   20.7740 C   0  0  0  0  0  0  0  0  0  0  0  0
  -24.7170   -9.5510   21.5670 C   0  0  0  0  0  3  0  0  0  0  0  0
  -23.9090   -8.4010   21.6990 C   0  0  0  0  0  3  0  0  0  0  0  0
  -22.6560   -8.3360   21.0420 C   0  0  0  0  0  0  0  0  0  0  0  0
  -22.2480   -9.4100   20.2340 C   0  0  0  0  0  3  0  0  0  0  0  0
  -23.0560  -10.5510   20.0970 C   0  0  0  0  0  3  0  0  0  0  0  0
  -21.8140   -7.2530   21.0980 O   0  0  0  0  0  0  0  0  0  0  0  0
  -21.8910   -6.3310   22.1120 C   0  0  0  0  0  0  0  0  0  0  0  0
  -21.7410   -6.6970   23.4680 C   0  0  0  0  0  3  0  0  0  0  0  0
  -21.7590   -5.7060   24.4690 C   0  0  0  0  0  3  0  0  0  0  0  0
  -21.9170   -4.3520   24.1190 C   0  0  0  0  0  0  0  0  0  0  0  0
  -22.0620   -3.9860   22.7690 C   0  0  0  0  0  3  0  0  0  0  0  0
  -22.0470   -4.9740   21.7690 C   0  0  0  0  0  0  0  0  0  0  0  0
  -22.1660   -4.6130   20.4670 F   0  0  0  0  0  0  0  0  0  0  0  0
  -21.9260   -3.3990   25.0790 F   0  0  0  0  0  0  0  0  0  0  0  0
  -23.3840  -13.7930   21.0760 C   0  0  0  0  0  0  0  0  0  0  0  0
  -22.6310  -13.1170   21.9360 N   0  0  0  0  0  0  0  0  0  0  0  0
  -23.0060  -14.8640   20.6010 O   0  0  0  0  0  0  0  0  0  0  0  0
  -22.9460  -12.2470   22.3400 H   0  0  0  0  0  0  0  0  0  0  0  0
  -21.7220  -13.4740   22.1980 H   0  0  0  0  0  0  0  0  0  0  0  0
  -26.1110  -15.3070   20.2800 N   0  0  0  0  0  0  0  0  0  0  0  0
  -25.4090  -16.0210   20.4330 H   0  0  0  0  0  0  0  0  0  0  0  0
  -27.0050  -15.6850   19.9940 H   0  0  0  0  0  0  0  0  0  0  0  0
  -29.7170  -21.3730   18.8000 C   0  0  0  0  0  2  0  0  0  0  0  0
  -28.7210  -22.7710   18.4660 C   0  0  0  0  0  0  0  0  0  0  0  0
  -27.9500  -22.6100   17.5130 O   0  0  0  0  0  0  0  0  0  0  0  0
  -28.5990  -24.3290   19.2470 C   0  0  0  0  0  2  0  0  0  0  0  0
  -28.3740  -25.8460   18.6570 O   0  0  0  0  0  0  0  0  0  0  0  0
  -24.8060  -31.1500   22.7280 C   0  0  0  0  0  0  0  0  0  0  0  0
  -27.3080  -26.8400   18.9370 C   0  0  0  0  0  0  0  0  0  0  0  0
  -23.5540  -29.9440   20.9880 C   0  0  0  0  0  3  0  0  0  0  0  0
  -24.9530  -28.6050   19.2790 C   0  0  0  0  0  0  0  0  0  0  0  0
  -26.0970  -30.2860   20.7120 C   0  0  0  0  0  2  0  0  0  0  0  0
  -26.1680  -28.9800   19.8710 C   0  0  0  0  0  0  0  0  0  0  0  0
  -27.3440  -28.1280   19.6660 C   0  0  0  0  0  3  0  0  0  0  0  0
  -26.0560  -26.6140   18.3270 C   0  0  0  0  0  3  0  0  0  0  0  0
  -24.9210  -27.4480   18.4860 C   0  0  0  0  0  3  0  0  0  0  0  0
  -23.7160  -29.4680   19.5180 C   0  0  0  0  0  2  0  0  0  0  0  0
  -24.8450  -30.4780   21.5330 N   0  0  0  0  0  0  0  0  0  0  0  0
  -23.7440  -31.3190   23.3490 O   0  0  0  0  0  0  0  0  0  0  0  0
  -22.9600  -28.7950   21.8450 C   0  0  0  0  0  0  0  0  0  0  0  0
  -21.6370  -28.5640   21.7520 N   0  0  0  0  0  0  0  0  0  0  0  0
  -23.6970  -28.1140   22.5630 O   0  0  0  0  0  0  0  0  0  0  0  0
  -21.0930  -29.1820   21.1680 H   0  0  0  0  0  0  0  0  0  0  0  0
  -18.3690  -27.0310   22.1310 C   0  0  0  0  0  0  0  0  0  0  0  0
  -20.8990  -27.4880   22.4250 C   0  0  0  0  0  3  0  0  0  0  0  0
  -21.1180  -26.1290   21.7180 C   0  0  0  0  0  2  0  0  0  0  0  0
  -20.0430  -25.8100   20.6760 C   0  0  0  0  0  2  0  0  0  0  0  0
  -18.6570  -25.7740   21.3280 C   0  0  0  0  0  2  0  0  0  0  0  0
  -19.4230  -27.8430   22.6330 C   0  0  0  0  0  0  0  0  0  0  0  0
  -19.1000  -29.0160   23.3460 C   0  0  0  0  0  3  0  0  0  0  0  0
  -17.7590  -29.3830   23.5640 C   0  0  0  0  0  3  0  0  0  0  0  0
  -16.7230  -28.5650   23.0800 C   0  0  0  0  0  3  0  0  0  0  0  0
  -17.0290  -27.3950   22.3680 C   0  0  0  0  0  3  0  0  0  0  0  0
  -26.0920  -31.7540   23.3670 C   0  0  0  0  0  3  0  0  0  0  0  0
  -26.6970  -30.8520   24.5130 C   0  0  1  0  0  0  0  0  0  0  0  0
  -25.6770  -30.4570   25.6070 C   0  0  0  0  0  1  0  0  0  0  0  0
  -27.2850  -29.5490   23.9270 C   0  0  0  0  0  1  0  0  0  0  0  0
  -27.8690  -31.5970   25.1950 C   0  0  0  0  0  1  0  0  0  0  0  0
  -25.7540  -33.0850   23.8970 N   0  0  0  0  0  0  0  0  0  0  0  0
  -26.0640  -34.2500   23.3140 C   0  0  0  0  0  0  0  0  0  0  0  0
  -26.7350  -34.3170   22.2790 O   0  0  0  0  0  0  0  0  0  0  0  0
  -25.1680  -33.1080   24.7190 H   0  0  0  0  0  0  0  0  0  0  0  0
  -24.3180  -36.0610   23.2300 C   0  0  0  0  0  1  0  0  0  0  0  0
  -25.5550  -35.5430   23.9810 C   0  0  0  0  0  3  0  0  0  0  0  0
  -27.6700  -36.3160   24.9580 C   0  0  0  0  0  1  0  0  0  0  0  0
  -26.5710  -36.6140   24.0440 N   0  0  0  0  0  0  0  0  0  0  0  0
  -26.1500  -37.4910   24.3360 H   0  0  0  0  0  0  0  0  0  0  0  0
  -30.0590  -20.1530   21.7190 C   0  0  0  0  0  2  0  0  0  0  0  0
  -30.8500  -22.0530   23.2290 C   0  0  0  0  0  1  0  0  0  0  0  0
  -29.6620  -21.4450   22.4630 C   0  0  0  0  0  2  0  0  0  0  0  0
  1  7  1  0
  2  7  1  0
  3  4  1  0
  3  2  1  0
  5  4  1  0
  5 18  1  0
  5  6  1  0
  7  6  1  0
  8  1  2  0
  9 10  1  0
 11 13  1  0
 11 14  1  0
 12  9  1  0
 12 88  1  0
 13 43  1  0
 13 12  1  0
 14  1  1  0
 14 10  1  0
 15 16  2  0
 16 35  1  0
 17 16  1  0
 17 20  1  0
 18 19  1  0
 18 15  1  0
 19 17  2  0
 20 21  1  0
 21 22  2  0
 23 26  1  0
 23 22  1  0
 24 23  2  0
 25 24  1  0
 25 20  2  0
 26 27  1  0
 27 28  1  0
 28 29  2  0
 30 29  1  0
 30 34  1  0
 31 30  2  0
 32 27  2  0
 32 31  1  0
 33 32  1  0
 35 36  1  0
 36 39  1  0
 36 38  1  0
 37 35  2  0
 40 15  1  0
 40 41  1  0
 42 40  1  0
 44 43  1  0
 44 46  1  0
 45 44  2  0
 47 49  1  0
 47 46  1  0
 48 59  2  0
 49 54  1  0
 50 58  1  0
 50 60  1  0
 51 57  1  0
 51 53  1  0
 52 58  1  0
 53 52  1  0
 54 53  2  0
 55 56  1  0
 55 49  2  0
 56 51  2  0
 57 50  1  0
 58 48  1  0
 60 62  2  0
 61 60  1  0
 63 61  1  0
 64 73  2  0
 64 69  1  0
 65 61  1  0
 65 69  1  0
 66 65  1  0
 67 68  1  0
 67 66  1  0
 68 64  1  0
 69 70  2  0
 70 71  1  0
 72 71  2  0
 73 72  1  0
 74 48  1  0
 74 79  1  0
 74 75  1  0
 75 78  1  1
 75 76  1  0
 77 75  1  0
 79 82  1  0
 80 79  1  0
 80 84  1  0
 81 80  2  0
 84 83  1  0
 84 86  1  0
 86 87  1  0
 86 85  1  0
 88 90  1  0
 90 89  1  0
M  ISO  4   1 100  14 100  46 101  47 101
M  END
>  <TORSDO>  (63) 
F 20

>  <SCORE>  (63) 
-12.006

>  <name>  (63) 
62

>  <ligand_id>  (63) 
62

>  <original_smiles>  (63) 
[H]c1c([H])c([H])c2c(c1[H])C([H])([H])C([H])([H])C([H])([H])C2([H])N([H])C(=O)C1([H])N(C(=O)C([H])(N([H])C(=O)C([H])(N([H])C([H])([H])[H])C([H])([H])[H])C(C([H])([H])[H])(C([H])([H])[H])C([H])([H])[H])C([H])([H])c2c([H])c(OC([H])([H])C(=O)C([H])([H])C3([H])C([H])([H])N(C(=O)N4C([H])([H])C([H])([H])C([H])([H])C([H])(n5nc(-c6c([H])c([H])c(Oc7c([H])c([H])c(F)c([H])c7F)c([H])c6[H])c(C(=O)N([H])[H])c5N([H])[H])C4([H])[H])C([H])([H])C([H])([H])C3([H])C([H])([H])C([H])([H])C([H])([H])[H])c([H])c([H])c2C1([H])[H]

>  <smiles>  (63) 
[H]c1c([H])c([H])c2c(c1[H])C([H])([H])C([H])([H])C([H])([H])C2([H])N([H])C(=O)C1([H])N(C(=O)C([H])(N([H])C(=O)C([H])(N([H])C([H])([H])[H])C([H])([H])[H])C(C([H])([H])[H])(C([H])([H])[H])C([H])([H])[H])C([H])([H])c2c([H])c(OC([H])([H])C(=O)C([H])([H])C3([H])C([H])([H])N(C(=O)N4C([H])([H])C([H])([H])C([H])([H])C([H])(n5nc(-c6c([H])c([H])c(Oc7c([H])c([H])c(F)c([H])c7F)c([H])c6[H])c(C(=O)N([H])[H])c5N([H])[H])C4([H])[H])C([H])([H])C([H])([H])C3([H])C([H])([H])C([H])([H])C([H])([H])[H])c([H])c([H])c2C1([H])[H]

$$$$
63:0:0
     RDKit          3D

 85 92  0  0  1  0  0  0  0  0999 V2000
  -29.2850  -22.3040   20.1330 C   0  0  0  0  0  3  0  0  0  0  0  0
  -28.2990  -23.9440   19.8970 C   0  0  0  0  0  3  0  0  0  0  0  0
  -28.3800  -25.6600   20.2090 O   0  0  0  0  0  0  0  0  0  0  0  0
  -24.5720  -31.7230   23.1000 C   0  0  0  0  0  0  0  0  0  0  0  0
  -27.3540  -26.8080   20.1280 C   0  0  0  0  0  0  0  0  0  0  0  0
  -23.4690  -30.2980   21.4250 C   0  0  0  0  0  3  0  0  0  0  0  0
  -25.0070  -28.7200   20.0300 C   0  0  0  0  0  0  0  0  0  0  0  0
  -26.0380  -30.5550   21.3450 C   0  0  0  0  0  2  0  0  0  0  0  0
  -26.1720  -29.1300   20.6910 C   0  0  0  0  0  0  0  0  0  0  0  0
  -27.3300  -28.2000   20.7080 C   0  0  0  0  0  3  0  0  0  0  0  0
  -26.1520  -26.5980   19.4080 C   0  0  0  0  0  3  0  0  0  0  0  0
  -25.0320  -27.4800   19.3680 C   0  0  0  0  0  3  0  0  0  0  0  0
  -23.7630  -29.6220   20.0530 C   0  0  0  0  0  2  0  0  0  0  0  0
  -24.7150  -30.8890   22.0140 N   0  0  0  0  0  0  0  0  0  0  0  0
  -23.4570  -31.9770   23.5910 O   0  0  0  0  0  0  0  0  0  0  0  0
  -22.7710  -29.2840   22.3710 C   0  0  0  0  0  0  0  0  0  0  0  0
  -21.4470  -29.0950   22.2270 N   0  0  0  0  0  0  0  0  0  0  0  0
  -23.4350  -28.6650   23.2080 O   0  0  0  0  0  0  0  0  0  0  0  0
  -20.9620  -29.6520   21.5360 H   0  0  0  0  0  0  0  0  0  0  0  0
  -18.0830  -27.7980   22.6890 C   0  0  0  0  0  0  0  0  0  0  0  0
  -20.6350  -28.1240   22.9720 C   0  0  0  0  0  3  0  0  0  0  0  0
  -20.7730  -26.7090   22.3650 C   0  0  0  0  0  2  0  0  0  0  0  0
  -19.6840  -26.3830   21.3370 C   0  0  0  0  0  2  0  0  0  0  0  0
  -18.2960  -26.4730   21.9770 C   0  0  0  0  0  2  0  0  0  0  0  0
  -19.1800  -28.5810   23.1400 C   0  0  0  0  0  0  0  0  0  0  0  0
  -18.9220  -29.8170   23.7730 C   0  0  0  0  0  3  0  0  0  0  0  0
  -17.6030  -30.2740   23.9500 C   0  0  0  0  0  3  0  0  0  0  0  0
  -16.5210  -29.4920   23.5080 C   0  0  0  0  0  3  0  0  0  0  0  0
  -16.7630  -28.2550   22.8850 C   0  0  0  0  0  3  0  0  0  0  0  0
  -25.7970  -32.4110   23.7750 C   0  0  0  0  0  3  0  0  0  0  0  0
  -26.2830  -31.6590   25.0760 C   0  0  1  0  0  0  0  0  0  0  0  0
  -25.1550  -31.3850   26.1000 C   0  0  0  0  0  1  0  0  0  0  0  0
  -26.9240  -30.3000   24.7160 C   0  0  0  0  0  1  0  0  0  0  0  0
  -27.3860  -32.4850   25.7780 C   0  0  0  0  0  1  0  0  0  0  0  0
  -25.4240  -33.8000   24.1070 N   0  0  0  0  0  0  0  0  0  0  0  0
  -25.7440  -34.8790   23.3800 C   0  0  0  0  0  0  0  0  0  0  0  0
  -26.4470  -34.8100   22.3690 O   0  0  0  0  0  0  0  0  0  0  0  0
  -24.8040  -33.9230   24.8950 H   0  0  0  0  0  0  0  0  0  0  0  0
  -23.9710  -36.6310   23.0150 C   0  0  0  0  0  1  0  0  0  0  0  0
  -25.2080  -36.2520   23.8440 C   0  0  0  0  0  3  0  0  0  0  0  0
  -27.2930  -37.2040   24.7280 C   0  0  0  0  0  1  0  0  0  0  0  0
  -26.2110  -37.3380   23.7580 N   0  0  0  0  0  0  0  0  0  0  0  0
  -25.7730  -38.2460   23.8910 H   0  0  0  0  0  0  0  0  0  0  0  0
  -29.2670  -20.4480   19.6100 C   0  0  0  0  0  3  0  0  0  0  0  0
  -26.9370  -20.7060   18.4910 C   0  0  0  0  0  1  0  0  0  0  0  0
  -27.7820  -20.0310   19.5830 C   0  0  0  0  0  2  0  0  0  0  0  0
  -30.1750  -18.8110   20.0550 C   0  0  0  0  0  2  0  0  0  0  0  0
  -30.6100  -15.6980   19.9090 C   0  0  0  0  0  0  0  0  0  0  0  0
  -30.5820  -13.1780   19.0560 C   0  0  0  0  0  2  0  0  0  0  0  0
  -29.6430  -12.8500   17.8620 C   0  0  0  0  0  2  0  0  0  0  0  0
  -28.2270  -12.5330   18.3670 C   0  0  0  0  0  2  0  0  0  0  0  0
  -27.7820  -13.5460   19.4480 C   0  0  0  0  0  3  0  0  0  0  0  0
  -28.8500  -13.8030   20.5340 C   0  0  0  0  0  2  0  0  0  0  0  0
  -30.0320  -14.3650   19.8470 N   0  0  0  0  0  0  0  0  0  0  0  0
  -31.8320  -15.6100   19.6980 O   0  0  0  0  0  0  0  0  0  0  0  0
  -29.8980  -17.0680   20.0130 N   0  0  0  0  0  0  0  0  0  0  0  0
  -28.9110  -16.8820   20.1220 H   0  0  0  0  0  0  0  0  0  0  0  0
  -25.4600  -14.1490   20.2790 C   0  0  0  0  0  0  0  0  0  0  0  0
  -24.3880  -13.3960   20.6680 C   0  0  0  0  0  0  0  0  0  0  0  0
  -24.8150  -12.0340   20.6080 C   0  0  0  0  0  0  0  0  0  0  0  0
  -26.4690  -13.2470   19.9970 N   0  0  0  0  0  0  0  0  0  0  0  0
  -26.0980  -11.9660   20.2620 N   0  0  0  0  0  0  0  0  0  0  0  0
  -24.0560  -10.7910   20.8020 C   0  0  0  0  0  0  0  0  0  0  0  0
  -24.4730   -9.8060   21.7250 C   0  0  0  0  0  3  0  0  0  0  0  0
  -23.7130   -8.6310   21.9100 C   0  0  0  0  0  3  0  0  0  0  0  0
  -22.5210   -8.4320   21.1720 C   0  0  0  0  0  0  0  0  0  0  0  0
  -22.1240   -9.4040   20.2360 C   0  0  0  0  0  3  0  0  0  0  0  0
  -22.8850  -10.5700   20.0500 C   0  0  0  0  0  3  0  0  0  0  0  0
  -21.7350   -7.3080   21.2650 O   0  0  0  0  0  0  0  0  0  0  0  0
  -21.6610   -6.5760   22.4220 C   0  0  0  0  0  0  0  0  0  0  0  0
  -21.2350   -7.1480   23.6400 C   0  0  0  0  0  3  0  0  0  0  0  0
  -21.1090   -6.3420   24.7900 C   0  0  0  0  0  3  0  0  0  0  0  0
  -21.3980   -4.9660   24.7220 C   0  0  0  0  0  0  0  0  0  0  0  0
  -21.8170   -4.3940   23.5080 C   0  0  0  0  0  3  0  0  0  0  0  0
  -21.9460   -5.1970   22.3610 C   0  0  0  0  0  0  0  0  0  0  0  0
  -22.3310   -4.6370   21.1880 F   0  0  0  0  0  0  0  0  0  0  0  0
  -21.2690   -4.1910   25.8240 F   0  0  0  0  0  0  0  0  0  0  0  0
  -23.0120  -13.9100   20.9750 C   0  0  0  0  0  0  0  0  0  0  0  0
  -22.2910  -13.2340   21.8620 N   0  0  0  0  0  0  0  0  0  0  0  0
  -22.5910  -14.9460   20.4640 O   0  0  0  0  0  0  0  0  0  0  0  0
  -22.6480  -12.3940   22.2930 H   0  0  0  0  0  0  0  0  0  0  0  0
  -21.3670  -13.5610   22.1130 H   0  0  0  0  0  0  0  0  0  0  0  0
  -25.6560  -15.5150   20.1080 N   0  0  0  0  0  0  0  0  0  0  0  0
  -24.8990  -16.1830   20.2180 H   0  0  0  0  0  0  0  0  0  0  0  0
  -26.4850  -15.9200   19.6960 H   0  0  0  0  0  0  0  0  0  0  0  0
  2  1  2  0
  2  3  1  0
  4 15  2  0
  5  3  1  0
  5 10  1  0
  6 14  1  0
  6 16  1  0
  7 13  1  0
  7  9  1  0
  8 14  1  0
  9 10  2  0
  9  8  1  0
 11  5  2  0
 12 11  1  0
 12  7  2  0
 13  6  1  0
 14  4  1  0
 16 18  2  0
 17 16  1  0
 19 17  1  0
 20 29  2  0
 20 25  1  0
 21 17  1  0
 21 25  1  0
 22 21  1  0
 23 24  1  0
 23 22  1  0
 24 20  1  0
 25 26  2  0
 26 27  1  0
 28 27  2  0
 29 28  1  0
 30  4  1  0
 30 35  1  0
 30 31  1  0
 31 34  1  1
 31 32  1  0
 33 31  1  0
 35 38  1  0
 36 40  1  0
 36 35  1  0
 37 36  2  0
 40 39  1  0
 42 40  1  0
 42 43  1  0
 42 41  1  0
 44 46  1  0
 44 47  1  0
 44  1  1  0
 45 46  1  0
 48 56  1  0
 49 54  1  0
 50 51  1  0
 50 49  1  0
 52 51  1  0
 52 61  1  0
 52 53  1  0
 54 48  1  0
 54 53  1  0
 55 48  2  0
 56 47  1  0
 56 57  1  0
 58 59  2  0
 59 78  1  0
 60 59  1  0
 60 63  1  0
 61 62  1  0
 61 58  1  0
 62 60  2  0
 63 64  1  0
 64 65  2  0
 66 69  1  0
 66 65  1  0
 67 66  2  0
 68 67  1  0
 68 63  2  0
 69 70  1  0
 70 71  1  0
 71 72  2  0
 73 72  1  0
 73 77  1  0
 74 73  2  0
 75 70  2  0
 75 74  1  0
 76 75  1  0
 78 79  1  0
 79 82  1  0
 79 81  1  0
 80 78  2  0
 83 84  1  0
 83 58  1  0
 85 83  1  0
M  ISO  4   2 101   3 101  48 100  56 100
M  END
>  <TORSDO>  (64) 
F 20

>  <SCORE>  (64) 
-15.697

>  <name>  (64) 
63

>  <ligand_id>  (64) 
63

>  <original_smiles>  (64) 
[H]c1c([H])c([H])c2c(c1[H])C([H])([H])C([H])([H])C([H])([H])C2([H])N([H])C(=O)C1([H])N(C(=O)C([H])(N([H])C(=O)C([H])(N([H])C([H])([H])[H])C([H])([H])[H])C(C([H])([H])[H])(C([H])([H])[H])C([H])([H])[H])C([H])([H])c2c([H])c(OC([H])([H])C([H])([H])C([H])(C([H])([H])N([H])C(=O)N3C([H])([H])C([H])([H])C([H])([H])C([H])(n4nc(-c5c([H])c([H])c(Oc6c([H])c([H])c(F)c([H])c6F)c([H])c5[H])c(C(=O)N([H])[H])c4N([H])[H])C3([H])[H])C([H])([H])C([H])([H])[H])c([H])c([H])c2C1([H])[H]

>  <smiles>  (64) 
[H]c1c([H])c([H])c2c(c1[H])C([H])([H])C([H])([H])C([H])([H])C2([H])N([H])C(=O)C1([H])N(C(=O)C([H])(N([H])C(=O)C([H])(N([H])C([H])([H])[H])C([H])([H])[H])C(C([H])([H])[H])(C([H])([H])[H])C([H])([H])[H])C([H])([H])c2c([H])c(OC([H])([H])C([H])([H])C([H])(C([H])([H])N([H])C(=O)N3C([H])([H])C([H])([H])C([H])([H])C([H])(n4nc(-c5c([H])c([H])c(Oc6c([H])c([H])c(F)c([H])c6F)c([H])c5[H])c(C(=O)N([H])[H])c4N([H])[H])C3([H])[H])C([H])([H])C([H])([H])[H])c([H])c([H])c2C1([H])[H]

$$$$
64:0:0
     RDKit          3D

 93101  0  0  1  0  0  0  0  0999 V2000
  -30.8190  -18.4500   21.0990 C   0  0  0  0  0  2  0  0  0  0  0  0
  -28.5240  -19.1320   20.6260 C   0  0  0  0  0  2  0  0  0  0  0  0
  -31.2860  -19.9270   21.0490 C   0  0  0  0  0  2  0  0  0  0  0  0
  -28.9240  -20.6200   20.5520 C   0  0  0  0  0  2  0  0  0  0  0  0
  -29.6680  -18.2560   20.1070 C   0  0  0  0  0  3  0  0  0  0  0  0
  -30.2020  -20.9470   21.2560 N   0  0  2  0  0  4  0  0  0  0  0  0
  -29.9880  -20.9290   22.2420 H   0  0  0  0  0  0  0  0  0  0  0  0
  -30.7080  -22.3280   20.9490 C   0  0  0  0  0  2  0  0  0  0  0  0
  -29.6310  -23.4470   20.8410 C   0  0  0  0  0  2  0  0  0  0  0  0
  -30.1690  -24.8210   20.3420 C   0  0  0  0  0  2  0  0  0  0  0  0
  -29.0720  -25.7560   19.7690 C   0  0  0  0  0  2  0  0  0  0  0  0
  -28.8530  -26.9350   20.5650 O   0  0  0  0  0  0  0  0  0  0  0  0
  -24.7520  -32.0460   23.3800 C   0  0  0  0  0  0  0  0  0  0  0  0
  -27.6450  -27.6120   20.4750 C   0  0  0  0  0  0  0  0  0  0  0  0
  -23.6510  -30.5780   21.7240 C   0  0  0  0  0  3  0  0  0  0  0  0
  -25.2000  -29.0580   20.3870 C   0  0  0  0  0  0  0  0  0  0  0  0
  -26.1740  -30.9980   21.6210 C   0  0  0  0  0  2  0  0  0  0  0  0
  -26.3200  -29.6170   21.0130 C   0  0  0  0  0  0  0  0  0  0  0  0
  -27.5380  -28.8970   21.0630 C   0  0  0  0  0  3  0  0  0  0  0  0
  -26.4960  -27.0750   19.8410 C   0  0  0  0  0  3  0  0  0  0  0  0
  -25.2840  -27.7840   19.8050 C   0  0  0  0  0  3  0  0  0  0  0  0
  -23.9320  -29.8780   20.3680 C   0  0  0  0  0  2  0  0  0  0  0  0
  -24.8740  -31.2240   22.3000 N   0  0  0  0  0  0  0  0  0  0  0  0
  -23.6430  -32.2990   23.8700 O   0  0  0  0  0  0  0  0  0  0  0  0
  -22.9920  -29.5570   22.6810 C   0  0  0  0  0  0  0  0  0  0  0  0
  -21.6830  -29.3200   22.4940 N   0  0  0  0  0  0  0  0  0  0  0  0
  -23.6570  -28.9810   23.5450 O   0  0  0  0  0  0  0  0  0  0  0  0
  -21.2060  -29.8350   21.7680 H   0  0  0  0  0  0  0  0  0  0  0  0
  -18.3310  -28.0290   22.8760 C   0  0  0  0  0  0  0  0  0  0  0  0
  -20.8650  -28.3720   23.2510 C   0  0  0  0  0  3  0  0  0  0  0  0
  -21.0380  -26.9340   22.7090 C   0  0  0  0  0  2  0  0  0  0  0  0
  -19.9910  -26.5570   21.6570 C   0  0  0  0  0  2  0  0  0  0  0  0
  -18.5790  -26.6720   22.2390 C   0  0  0  0  0  2  0  0  0  0  0  0
  -19.4060  -28.8330   23.3380 C   0  0  0  0  0  0  0  0  0  0  0  0
  -19.1240  -30.1020   23.8900 C   0  0  0  0  0  3  0  0  0  0  0  0
  -17.7980  -30.5650   23.9880 C   0  0  0  0  0  3  0  0  0  0  0  0
  -16.7370  -29.7570   23.5460 C   0  0  0  0  0  3  0  0  0  0  0  0
  -17.0040  -28.4910   22.9960 C   0  0  0  0  0  3  0  0  0  0  0  0
  -25.9970  -32.7260   24.0320 C   0  0  0  0  0  3  0  0  0  0  0  0
  -25.6470  -34.1280   24.2910 N   0  0  0  0  0  0  0  0  0  0  0  0
  -25.9960  -35.1560   23.5060 C   0  0  0  0  0  0  0  0  0  0  0  0
  -26.7180  -35.0250   22.5130 O   0  0  0  0  0  0  0  0  0  0  0  0
  -25.0090  -34.3040   25.0540 H   0  0  0  0  0  0  0  0  0  0  0  0
  -24.2520  -36.8950   22.9980 C   0  0  0  0  0  1  0  0  0  0  0  0
  -25.4610  -36.5500   23.8830 C   0  0  0  0  0  3  0  0  0  0  0  0
  -27.5340  -37.5140   24.7800 C   0  0  0  0  0  1  0  0  0  0  0  0
  -26.4770  -37.6190   23.7760 N   0  0  0  0  0  0  0  0  0  0  0  0
  -26.0460  -38.5360   23.8660 H   0  0  0  0  0  0  0  0  0  0  0  0
  -26.4670  -32.0140   25.3590 C   0  0  1  0  0  0  0  0  0  0  0  0
  -25.3190  -31.7400   26.3570 C   0  0  0  0  0  1  0  0  0  0  0  0
  -27.1500  -30.6630   25.0430 C   0  0  0  0  0  1  0  0  0  0  0  0
  -27.5250  -32.8870   26.0760 C   0  0  0  0  0  1  0  0  0  0  0  0
  -29.2560  -16.8000   19.6780 C   0  0  0  0  0  3  0  0  0  0  0  0
  -30.8960  -14.7990   20.1170 C   0  0  0  0  0  0  0  0  0  0  0  0
  -30.4800  -12.7140   18.9190 C   0  0  0  0  0  2  0  0  0  0  0  0
  -29.4830  -12.9880   17.7810 C   0  0  0  0  0  2  0  0  0  0  0  0
  -28.0340  -12.8220   18.2780 C   0  0  0  0  0  2  0  0  0  0  0  0
  -27.7610  -13.5590   19.6160 C   0  0  0  0  0  3  0  0  0  0  0  0
  -28.8840  -13.3390   20.6460 C   0  0  0  0  0  2  0  0  0  0  0  0
  -30.1480  -13.6750   19.9750 N   0  0  0  0  0  0  0  0  0  0  0  0
  -32.1200  -14.7690   20.0640 O   0  0  0  0  0  0  0  0  0  0  0  0
  -30.4210  -15.9170   19.5220 N   0  0  0  0  0  0  0  0  0  0  0  0
  -31.2060  -16.4280   19.1540 H   0  0  0  0  0  0  0  0  0  0  0  0
  -25.3730  -14.1360   20.3490 C   0  0  0  0  0  0  0  0  0  0  0  0
  -24.3240  -13.3420   20.7330 C   0  0  0  0  0  0  0  0  0  0  0  0
  -24.8160  -12.0020   20.7090 C   0  0  0  0  0  0  0  0  0  0  0  0
  -26.4320  -13.2700   20.1280 N   0  0  0  0  0  0  0  0  0  0  0  0
  -26.1040  -11.9840   20.4020 N   0  0  0  0  0  0  0  0  0  0  0  0
  -24.1270  -10.7230   20.9100 C   0  0  0  0  0  0  0  0  0  0  0  0
  -24.5560   -9.8050   21.8920 C   0  0  0  0  0  3  0  0  0  0  0  0
  -23.8710   -8.5870   22.0810 C   0  0  0  0  0  3  0  0  0  0  0  0
  -22.7410   -8.2820   21.2860 C   0  0  0  0  0  0  0  0  0  0  0  0
  -22.3310   -9.1900   20.2950 C   0  0  0  0  0  3  0  0  0  0  0  0
  -23.0160  -10.4000   20.1040 C   0  0  0  0  0  3  0  0  0  0  0  0
  -22.0250   -7.1130   21.3830 O   0  0  0  0  0  0  0  0  0  0  0  0
  -21.9040   -6.4420   22.5730 C   0  0  0  0  0  0  0  0  0  0  0  0
  -21.3260   -7.0400   23.7140 C   0  0  0  0  0  3  0  0  0  0  0  0
  -21.1610   -6.2910   24.8960 C   0  0  0  0  0  3  0  0  0  0  0  0
  -21.5640   -4.9410   24.9360 C   0  0  0  0  0  0  0  0  0  0  0  0
  -22.1350   -4.3420   23.7990 C   0  0  0  0  0  3  0  0  0  0  0  0
  -22.3010   -5.0900   22.6210 C   0  0  0  0  0  0  0  0  0  0  0  0
  -22.8350   -4.5030   21.5230 F   0  0  0  0  0  0  0  0  0  0  0  0
  -21.3980   -4.2180   26.0680 F   0  0  0  0  0  0  0  0  0  0  0  0
  -22.9190  -13.7880   21.0100 C   0  0  0  0  0  0  0  0  0  0  0  0
  -22.2170  -13.0800   21.8910 N   0  0  0  0  0  0  0  0  0  0  0  0
  -22.4520  -14.7950   20.4840 O   0  0  0  0  0  0  0  0  0  0  0  0
  -22.6130  -12.2660   22.3350 H   0  0  0  0  0  0  0  0  0  0  0  0
  -21.2740  -13.3570   22.1280 H   0  0  0  0  0  0  0  0  0  0  0  0
  -25.5070  -15.5070   20.1470 N   0  0  0  0  0  0  0  0  0  0  0  0
  -24.7250  -16.1480   20.2120 H   0  0  0  0  0  0  0  0  0  0  0  0
  -26.3440  -15.9410   19.7780 H   0  0  0  0  0  0  0  0  0  0  0  0
  -29.3410  -17.6550   17.1950 C   0  0  0  0  0  1  0  0  0  0  0  0
  -28.5330  -16.9280   18.2940 C   0  0  0  0  0  2  0  0  0  0  0  0
  3  1  1  0
  3  6  1  0
  4  2  1  0
  4  6  1  0
  5 53  1  0
  5  2  1  0
  5  1  1  0
  6  7  1  1
  8  6  1  0
  9  8  1  0
 10  9  1  0
 11 10  1  0
 11 12  1  0
 13 24  2  0
 14 12  1  0
 14 19  1  0
 15 23  1  0
 15 25  1  0
 16 18  1  0
 17 23  1  0
 18 19  2  0
 18 17  1  0
 20 14  2  0
 21 20  1  0
 21 16  2  0
 22 16  1  0
 22 15  1  0
 23 13  1  0
 25 27  2  0
 26 25  1  0
 28 26  1  0
 29 38  2  0
 29 34  1  0
 30 26  1  0
 30 34  1  0
 31 30  1  0
 32 33  1  0
 32 31  1  0
 33 29  1  0
 34 35  2  0
 35 36  1  0
 37 36  2  0
 38 37  1  0
 39 13  1  0
 39 40  1  0
 39 49  1  0
 40 43  1  0
 41 45  1  0
 41 40  1  0
 42 41  2  0
 45 44  1  0
 47 48  1  0
 47 45  1  0
 47 46  1  0
 49 52  1  1
 49 50  1  0
 51 49  1  0
 53 93  1  0
 55 60  1  0
 56 57  1  0
 56 55  1  0
 58 57  1  0
 58 67  1  0
 58 59  1  0
 60 54  1  0
 60 59  1  0
 61 54  2  0
 62 53  1  0
 62 54  1  0
 63 62  1  0
 64 65  2  0
 65 84  1  0
 66 65  1  0
 66 69  1  0
 67 64  1  0
 67 68  1  0
 68 66  2  0
 69 70  1  0
 70 71  2  0
 72 75  1  0
 72 71  1  0
 73 72  2  0
 74 73  1  0
 74 69  2  0
 75 76  1  0
 76 81  2  0
 76 77  1  0
 77 78  2  0
 78 79  1  0
 79 83  1  0
 80 79  2  0
 81 80  1  0
 82 81  1  0
 84 85  1  0
 85 88  1  0
 85 87  1  0
 86 84  2  0
 89 90  1  0
 89 64  1  0
 91 89  1  0
 92 93  1  0
M  ISO  4  11 101  12 101  54 100  62 100
M  END
>  <TORSDO>  (65) 
F 22

>  <SCORE>  (65) 
-12.112

>  <name>  (65) 
64

>  <ligand_id>  (65) 
64

>  <original_smiles>  (65) 
[H]c1c([H])c([H])c2c(c1[H])C([H])([H])C([H])([H])C([H])([H])C2([H])N([H])C(=O)C1([H])N(C(=O)C([H])(N([H])C(=O)C([H])(N([H])C([H])([H])[H])C([H])([H])[H])C(C([H])([H])[H])(C([H])([H])[H])C([H])([H])[H])C([H])([H])c2c([H])c(OC([H])([H])C([H])([H])C([H])([H])C([H])([H])[N+]3([H])C([H])([H])C([H])([H])C([H])(C([H])(N([H])C(=O)N4C([H])([H])C([H])([H])C([H])([H])C([H])(n5nc(-c6c([H])c([H])c(Oc7c([H])c([H])c(F)c([H])c7F)c([H])c6[H])c(C(=O)N([H])[H])c5N([H])[H])C4([H])[H])C([H])([H])C([H])([H])[H])C([H])([H])C3([H])[H])c([H])c([H])c2C1([H])[H]

>  <smiles>  (65) 
[H]c1c([H])c([H])c2c(c1[H])C([H])([H])C([H])([H])C([H])([H])C2([H])N([H])C(=O)C1([H])N(C(=O)C([H])(N([H])C(=O)C([H])(N([H])C([H])([H])[H])C([H])([H])[H])C(C([H])([H])[H])(C([H])([H])[H])C([H])([H])[H])C([H])([H])c2c([H])c(OC([H])([H])C([H])([H])C([H])([H])C([H])([H])[N+]3([H])C([H])([H])C([H])([H])C([H])(C([H])(N([H])C(=O)N4C([H])([H])C([H])([H])C([H])([H])C([H])(n5nc(-c6c([H])c([H])c(Oc7c([H])c([H])c(F)c([H])c7F)c([H])c6[H])c(C(=O)N([H])[H])c5N([H])[H])C4([H])[H])C([H])([H])C([H])([H])[H])C([H])([H])C3([H])[H])c([H])c([H])c2C1([H])[H]

$$$$
65:0:0
     RDKit          3D

 88 96  0  0  1  0  0  0  0  0999 V2000
  -28.2100  -21.7630   19.4150 C   0  0  0  0  0  2  0  0  0  0  0  0
  -28.9320  -23.1940   19.4970 C   0  0  0  0  0  3  0  0  0  0  0  0
  -29.4980  -20.8320   19.6290 C   0  0  0  0  0  3  0  0  0  0  0  0
  -29.9710  -22.2360   20.3040 C   0  0  0  0  0  3  0  0  0  0  0  0
  -31.8230  -24.0340   20.3910 C   0  0  0  0  0  1  0  0  0  0  0  0
  -31.4720  -22.5460   20.2460 C   0  0  0  0  0  2  0  0  0  0  0  0
  -29.4250  -19.3750   21.8370 C   0  0  0  0  0  1  0  0  0  0  0  0
  -29.4300  -19.2530   20.3100 C   0  0  0  0  0  3  0  0  0  0  0  0
  -30.0450  -16.4840   20.2330 C   0  0  0  0  0  3  0  0  0  0  0  0
  -30.2770  -17.8650   19.9110 C   0  0  0  0  0  3  0  0  0  0  0  0
  -30.8430  -15.1730   19.8970 C   0  0  0  0  0  0  0  0  0  0  0  0
  -30.6530  -12.8170   18.9400 C   0  0  0  0  0  2  0  0  0  0  0  0
  -29.6480  -12.8330   17.7630 C   0  0  0  0  0  2  0  0  0  0  0  0
  -28.2170  -12.5880   18.2760 C   0  0  0  0  0  2  0  0  0  0  0  0
  -27.8840  -13.4680   19.5110 C   0  0  0  0  0  3  0  0  0  0  0  0
  -29.0140  -13.4590   20.5620 C   0  0  0  0  0  2  0  0  0  0  0  0
  -30.2480  -13.8990   19.8940 N   0  0  0  0  0  0  0  0  0  0  0  0
  -32.0120  -15.2010   19.4970 O   0  0  0  0  0  0  0  0  0  0  0  0
  -25.5710  -14.0250   20.4550 C   0  0  0  0  0  0  0  0  0  0  0  0
  -24.5280  -13.2390   20.8640 C   0  0  0  0  0  0  0  0  0  0  0  0
  -24.9760  -11.8870   20.7370 C   0  0  0  0  0  0  0  0  0  0  0  0
  -26.5840  -13.1510   20.0950 N   0  0  0  0  0  0  0  0  0  0  0  0
  -26.2420  -11.8560   20.3300 N   0  0  0  0  0  0  0  0  0  0  0  0
  -24.2510  -10.6250   20.9220 C   0  0  0  0  0  0  0  0  0  0  0  0
  -24.6670   -9.6640   21.8700 C   0  0  0  0  0  3  0  0  0  0  0  0
  -23.9380   -8.4680   22.0450 C   0  0  0  0  0  3  0  0  0  0  0  0
  -22.7750   -8.2260   21.2720 C   0  0  0  0  0  0  0  0  0  0  0  0
  -22.3780   -9.1760   20.3130 C   0  0  0  0  0  3  0  0  0  0  0  0
  -23.1090  -10.3630   20.1380 C   0  0  0  0  0  3  0  0  0  0  0  0
  -22.0150   -7.0830   21.3560 O   0  0  0  0  0  0  0  0  0  0  0  0
  -21.8510   -6.4160   22.5440 C   0  0  0  0  0  0  0  0  0  0  0  0
  -21.2710   -7.0330   23.6740 C   0  0  0  0  0  3  0  0  0  0  0  0
  -21.0560   -6.2870   24.8500 C   0  0  0  0  0  3  0  0  0  0  0  0
  -21.4070   -4.9240   24.8970 C   0  0  0  0  0  0  0  0  0  0  0  0
  -21.9750   -4.3060   23.7690 C   0  0  0  0  0  3  0  0  0  0  0  0
  -22.1930   -5.0500   22.5950 C   0  0  0  0  0  0  0  0  0  0  0  0
  -22.7210   -4.4420   21.5050 F   0  0  0  0  0  0  0  0  0  0  0  0
  -21.1930   -4.2060   26.0250 F   0  0  0  0  0  0  0  0  0  0  0  0
  -23.1590  -13.7150   21.2530 C   0  0  0  0  0  0  0  0  0  0  0  0
  -22.4900  -12.9990   22.1470 N   0  0  0  0  0  0  0  0  0  0  0  0
  -22.6910  -14.7560   20.7940 O   0  0  0  0  0  0  0  0  0  0  0  0
  -22.8870  -12.1620   22.5470 H   0  0  0  0  0  0  0  0  0  0  0  0
  -21.5690  -13.2950   22.4350 H   0  0  0  0  0  0  0  0  0  0  0  0
  -25.7360  -15.4020   20.3350 N   0  0  0  0  0  0  0  0  0  0  0  0
  -24.9930  -16.0510   20.5750 H   0  0  0  0  0  0  0  0  0  0  0  0
  -26.5650  -15.8640   19.9820 H   0  0  0  0  0  0  0  0  0  0  0  0
  -28.1300  -24.6340   19.9990 C   0  0  0  0  0  2  0  0  0  0  0  0
  -28.3280  -26.1700   19.6720 O   0  0  0  0  0  0  0  0  0  0  0  0
  -24.7310  -31.7690   23.0080 C   0  0  0  0  0  0  0  0  0  0  0  0
  -27.2520  -27.1540   19.7260 C   0  0  0  0  0  0  0  0  0  0  0  0
  -23.4860  -30.4120   21.3690 C   0  0  0  0  0  3  0  0  0  0  0  0
  -24.9010  -28.8960   19.8410 C   0  0  0  0  0  0  0  0  0  0  0  0
  -26.0320  -30.7030   21.1220 C   0  0  0  0  0  2  0  0  0  0  0  0
  -26.0980  -29.3280   20.4220 C   0  0  0  0  0  0  0  0  0  0  0  0
  -27.2720  -28.4790   20.3410 C   0  0  0  0  0  3  0  0  0  0  0  0
  -26.0230  -26.8400   19.1020 C   0  0  0  0  0  3  0  0  0  0  0  0
  -24.8780  -27.6670   19.1630 C   0  0  0  0  0  3  0  0  0  0  0  0
  -23.6650  -29.7780   19.9630 C   0  0  0  0  0  2  0  0  0  0  0  0
  -24.7730  -30.9810   21.8870 N   0  0  0  0  0  0  0  0  0  0  0  0
  -23.6610  -32.0250   23.5840 O   0  0  0  0  0  0  0  0  0  0  0  0
  -22.8470  -29.3740   22.3240 C   0  0  0  0  0  0  0  0  0  0  0  0
  -21.5170  -29.1960   22.2400 N   0  0  0  0  0  0  0  0  0  0  0  0
  -23.5510  -28.7270   23.1030 O   0  0  0  0  0  0  0  0  0  0  0  0
  -21.0030  -29.7700   21.5860 H   0  0  0  0  0  0  0  0  0  0  0  0
  -18.1670  -27.9300   22.8120 C   0  0  0  0  0  0  0  0  0  0  0  0
  -20.7290  -28.2240   23.0060 C   0  0  0  0  0  3  0  0  0  0  0  0
  -20.8330  -26.8100   22.3870 C   0  0  0  0  0  2  0  0  0  0  0  0
  -19.7040  -26.5010   21.3980 C   0  0  0  0  0  2  0  0  0  0  0  0
  -18.3430  -26.6070   22.0870 C   0  0  0  0  0  2  0  0  0  0  0  0
  -19.2870  -28.6970   23.2300 C   0  0  0  0  0  0  0  0  0  0  0  0
  -19.0680  -29.9360   23.8690 C   0  0  0  0  0  3  0  0  0  0  0  0
  -17.7620  -30.4100   24.0920 C   0  0  0  0  0  3  0  0  0  0  0  0
  -16.6560  -29.6400   23.6910 C   0  0  0  0  0  3  0  0  0  0  0  0
  -16.8610  -28.4010   23.0580 C   0  0  0  0  0  3  0  0  0  0  0  0
  -26.0230  -32.3970   23.6140 C   0  0  0  0  0  3  0  0  0  0  0  0
  -26.6030  -31.5690   24.8280 C   0  0  1  0  0  0  0  0  0  0  0  0
  -25.5630  -31.2590   25.9290 C   0  0  0  0  0  1  0  0  0  0  0  0
  -27.1860  -30.2220   24.3470 C   0  0  0  0  0  1  0  0  0  0  0  0
  -27.7770  -32.3420   25.4750 C   0  0  0  0  0  1  0  0  0  0  0  0
  -25.7040  -33.7700   24.0380 N   0  0  0  0  0  0  0  0  0  0  0  0
  -25.9890  -34.8740   23.3370 C   0  0  0  0  0  0  0  0  0  0  0  0
  -26.6220  -34.8440   22.2770 O   0  0  0  0  0  0  0  0  0  0  0  0
  -25.1390  -33.8640   24.8710 H   0  0  0  0  0  0  0  0  0  0  0  0
  -24.2270  -36.6620   23.1560 C   0  0  0  0  0  1  0  0  0  0  0  0
  -25.5020  -36.2260   23.8980 C   0  0  0  0  0  3  0  0  0  0  0  0
  -27.6540  -37.0890   24.7100 C   0  0  0  0  0  1  0  0  0  0  0  0
  -26.5150  -37.3010   23.8200 N   0  0  0  0  0  0  0  0  0  0  0  0
  -26.1030  -38.2010   24.0440 H   0  0  0  0  0  0  0  0  0  0  0  0
  1  2  1  0
  1  3  1  0
  2 47  1  0
  2  4  1  0
  3  4  1  0
  3  8  1  0
  4  6  1  0
  6  5  1  0
  8  7  1  0
 10  9  2  0
 10  8  1  0
 11  9  1  0
 12 17  1  0
 13 14  1  0
 13 12  1  0
 15 14  1  0
 15 22  1  0
 15 16  1  0
 17 11  1  0
 17 16  1  0
 18 11  2  0
 19 20  2  0
 20 39  1  0
 21 20  1  0
 21 24  1  0
 22 23  1  0
 22 19  1  0
 23 21  2  0
 24 25  1  0
 25 26  2  0
 27 30  1  0
 27 26  1  0
 28 27  2  0
 29 28  1  0
 29 24  2  0
 30 31  1  0
 31 36  2  0
 31 32  1  0
 32 33  2  0
 33 34  1  0
 34 38  1  0
 35 34  2  0
 36 35  1  0
 37 36  1  0
 39 40  1  0
 40 43  1  0
 40 42  1  0
 41 39  2  0
 44 19  1  0
 44 45  1  0
 46 44  1  0
 48 50  1  0
 48 47  1  0
 49 60  2  0
 50 55  1  0
 51 59  1  0
 51 61  1  0
 52 58  1  0
 52 54  1  0
 53 59  1  0
 54 53  1  0
 55 54  2  0
 56 57  1  0
 56 50  2  0
 57 52  2  0
 58 51  1  0
 59 49  1  0
 61 63  2  0
 62 61  1  0
 64 62  1  0
 65 74  2  0
 65 70  1  0
 66 62  1  0
 66 70  1  0
 67 66  1  0
 68 69  1  0
 68 67  1  0
 69 65  1  0
 70 71  2  0
 71 72  1  0
 73 72  2  0
 74 73  1  0
 75 49  1  0
 75 80  1  0
 75 76  1  0
 76 79  1  1
 76 77  1  0
 78 76  1  0
 80 83  1  0
 81 85  1  0
 81 80  1  0
 82 81  2  0
 85 84  1  0
 87 85  1  0
 87 88  1  0
 87 86  1  0
M  ISO  4   9 100  11 100  47 101  48 101
M  END
>  <TORSDO>  (66) 
F 20

>  <SCORE>  (66) 
-13.014

>  <name>  (66) 
65

>  <ligand_id>  (66) 
65

>  <original_smiles>  (66) 
[H]C(C(=O)N1C([H])([H])C([H])([H])C([H])([H])C([H])(n2nc(-c3c([H])c([H])c(Oc4c([H])c([H])c(F)c([H])c4F)c([H])c3[H])c(C(=O)N([H])[H])c2N([H])[H])C1([H])[H])=C([H])C([H])(C([H])([H])[H])C1([H])C([H])([H])C([H])(C([H])([H])Oc2c([H])c([H])c3c(c2[H])C([H])([H])N(C(=O)C([H])(N([H])C(=O)C([H])(N([H])C([H])([H])[H])C([H])([H])[H])C(C([H])([H])[H])(C([H])([H])[H])C([H])([H])[H])C([H])(C(=O)N([H])C2([H])c4c([H])c([H])c([H])c([H])c4C([H])([H])C([H])([H])C2([H])[H])C3([H])[H])C1([H])C([H])([H])C([H])([H])[H]

>  <smiles>  (66) 
[H]C(C(=O)N1C([H])([H])C([H])([H])C([H])([H])C([H])(n2nc(-c3c([H])c([H])c(Oc4c([H])c([H])c(F)c([H])c4F)c([H])c3[H])c(C(=O)N([H])[H])c2N([H])[H])C1([H])[H])=C([H])C([H])(C([H])([H])[H])C1([H])C([H])([H])C([H])(C([H])([H])Oc2c([H])c([H])c3c(c2[H])C([H])([H])N(C(=O)C([H])(N([H])C(=O)C([H])(N([H])C([H])([H])[H])C([H])([H])[H])C(C([H])([H])[H])(C([H])([H])[H])C([H])([H])[H])C([H])(C(=O)N([H])C2([H])c4c([H])c([H])c([H])c([H])c4C([H])([H])C([H])([H])C2([H])[H])C3([H])[H])C1([H])C([H])([H])C([H])([H])[H]

$$$$
66:0:0
     RDKit          3D

 96103  0  0  1  0  0  0  0  0999 V2000
  -31.6610  -19.9140   19.8890 C   0  0  0  0  0  2  0  0  0  0  0  0
  -30.4470  -20.7440   19.7470 N   0  0  0  0  0  4  0  0  0  0  0  0
  -30.2360  -20.8280   18.7670 H   0  0  0  0  0  0  0  0  0  0  0  0
  -29.6720  -20.2810   20.1940 H   0  0  0  0  0  0  0  0  0  0  0  0
  -30.5750  -22.1100   20.2980 C   0  0  0  0  0  2  0  0  0  0  0  0
  -29.3800  -22.9760   19.8760 C   0  0  0  0  0  2  0  0  0  0  0  0
  -29.5270  -24.4610   20.2410 C   0  0  0  0  0  2  0  0  0  0  0  0
  -28.3020  -25.2450   19.7710 C   0  0  0  0  0  2  0  0  0  0  0  0
  -28.4260  -26.6290   20.0790 O   0  0  0  0  0  0  0  0  0  0  0  0
  -24.8410  -31.8870   23.2160 C   0  0  0  0  0  0  0  0  0  0  0  0
  -27.2620  -27.3690   20.0800 C   0  0  0  0  0  0  0  0  0  0  0  0
  -23.5490  -30.5220   21.6080 C   0  0  0  0  0  3  0  0  0  0  0  0
  -24.9140  -28.9420   20.1520 C   0  0  0  0  0  0  0  0  0  0  0  0
  -26.0790  -30.8020   21.3460 C   0  0  0  0  0  2  0  0  0  0  0  0
  -26.1010  -29.4290   20.7090 C   0  0  0  0  0  0  0  0  0  0  0  0
  -27.2770  -28.6490   20.6720 C   0  0  0  0  0  3  0  0  0  0  0  0
  -26.0530  -26.8950   19.5120 C   0  0  0  0  0  3  0  0  0  0  0  0
  -24.8830  -27.6720   19.5530 C   0  0  0  0  0  3  0  0  0  0  0  0
  -23.7000  -29.8360   20.2250 C   0  0  0  0  0  2  0  0  0  0  0  0
  -24.8430  -31.0830   22.1140 N   0  0  0  0  0  0  0  0  0  0  0  0
  -23.7830  -32.1950   23.7810 O   0  0  0  0  0  0  0  0  0  0  0  0
  -22.8920  -29.5210   22.5850 C   0  0  0  0  0  0  0  0  0  0  0  0
  -21.5710  -29.3260   22.4400 N   0  0  0  0  0  0  0  0  0  0  0  0
  -23.5670  -28.9230   23.4280 O   0  0  0  0  0  0  0  0  0  0  0  0
  -21.0890  -29.8600   21.7320 H   0  0  0  0  0  0  0  0  0  0  0  0
  -18.2050  -28.0940   22.8830 C   0  0  0  0  0  0  0  0  0  0  0  0
  -20.7470  -28.4060   23.2240 C   0  0  0  0  0  3  0  0  0  0  0  0
  -20.8910  -26.9550   22.7100 C   0  0  0  0  0  2  0  0  0  0  0  0
  -19.8270  -26.5720   21.6770 C   0  0  0  0  0  2  0  0  0  0  0  0
  -18.4240  -26.7210   22.2710 C   0  0  0  0  0  2  0  0  0  0  0  0
  -19.2970  -28.8920   23.3150 C   0  0  0  0  0  0  0  0  0  0  0  0
  -19.0400  -30.1760   23.8440 C   0  0  0  0  0  3  0  0  0  0  0  0
  -17.7230  -30.6620   23.9470 C   0  0  0  0  0  3  0  0  0  0  0  0
  -16.6450  -29.8620   23.5320 C   0  0  0  0  0  3  0  0  0  0  0  0
  -16.8860  -28.5800   23.0060 C   0  0  0  0  0  3  0  0  0  0  0  0
  -26.1630  -32.4750   23.8000 C   0  0  0  0  0  3  0  0  0  0  0  0
  -25.8940  -33.8680   24.1800 N   0  0  0  0  0  0  0  0  0  0  0  0
  -26.2190  -34.9350   23.4380 C   0  0  0  0  0  0  0  0  0  0  0  0
  -26.8510  -34.8490   22.3820 O   0  0  0  0  0  0  0  0  0  0  0  0
  -25.3330  -34.0110   25.0060 H   0  0  0  0  0  0  0  0  0  0  0  0
  -24.5140  -36.7660   23.1920 C   0  0  0  0  0  1  0  0  0  0  0  0
  -25.7740  -36.3180   23.9490 C   0  0  0  0  0  3  0  0  0  0  0  0
  -27.9520  -37.1380   24.7290 C   0  0  0  0  0  1  0  0  0  0  0  0
  -26.8210  -37.3550   23.8320 N   0  0  0  0  0  0  0  0  0  0  0  0
  -26.4370  -38.2780   24.0230 H   0  0  0  0  0  0  0  0  0  0  0  0
  -26.7180  -31.6570   25.0290 C   0  0  1  0  0  0  0  0  0  0  0  0
  -25.6620  -31.3850   26.1240 C   0  0  0  0  0  1  0  0  0  0  0  0
  -27.2810  -30.2920   24.5670 C   0  0  0  0  0  1  0  0  0  0  0  0
  -27.8950  -32.4210   25.6790 C   0  0  0  0  0  1  0  0  0  0  0  0
  -31.6890  -18.7560   18.8690 C   0  0  0  0  0  2  0  0  0  0  0  0
  -31.0130  -17.4290   19.3010 C   0  0  0  0  0  2  0  0  0  0  0  0
  -31.8200  -16.4100   20.1760 C   0  0  0  0  0  3  0  0  0  0  0  0
  -33.2910  -16.2210   19.6560 C   0  0  0  0  0  2  0  0  0  0  0  0
  -34.1080  -15.2420   20.3910 N   0  0  0  0  0  4  0  0  0  0  0  0
  -34.1860  -15.4880   21.3630 H   0  0  0  0  0  0  0  0  0  0  0  0
  -35.0350  -15.2240   20.0020 H   0  0  0  0  0  0  0  0  0  0  0  0
  -33.7270  -14.3160   20.3100 H   0  0  0  0  0  0  0  0  0  0  0  0
  -30.9500  -15.1030   20.4120 C   0  0  0  0  0  3  0  0  0  0  0  0
  -31.2240  -13.9400   19.4130 C   0  0  0  0  0  0  0  0  0  0  0  0
  -30.6120  -11.8230   18.2940 C   0  0  0  0  0  2  0  0  0  0  0  0
  -29.5630  -12.0390   17.1890 C   0  0  0  0  0  2  0  0  0  0  0  0
  -28.1430  -11.9660   17.7770 C   0  0  0  0  0  2  0  0  0  0  0  0
  -27.9760  -12.8610   19.0330 C   0  0  0  0  0  3  0  0  0  0  0  0
  -29.1320  -12.6520   20.0320 C   0  0  0  0  0  2  0  0  0  0  0  0
  -30.4090  -12.8520   19.3280 N   0  0  0  0  0  0  0  0  0  0  0  0
  -32.1870  -14.0620   18.6560 O   0  0  0  0  0  0  0  0  0  0  0  0
  -25.7030  -13.5810   20.0020 C   0  0  0  0  0  0  0  0  0  0  0  0
  -24.6550  -12.8600   20.5130 C   0  0  0  0  0  0  0  0  0  0  0  0
  -25.0590  -11.4910   20.4650 C   0  0  0  0  0  0  0  0  0  0  0  0
  -26.6780  -12.6530   19.6730 N   0  0  0  0  0  0  0  0  0  0  0  0
  -26.3020  -11.3920   20.0080 N   0  0  0  0  0  0  0  0  0  0  0  0
  -24.3140  -10.2640   20.7700 C   0  0  0  0  0  0  0  0  0  0  0  0
  -24.7580   -9.3520   21.7530 C   0  0  0  0  0  3  0  0  0  0  0  0
  -24.0130   -8.1880   22.0390 C   0  0  0  0  0  3  0  0  0  0  0  0
  -22.8090   -7.9280   21.3440 C   0  0  0  0  0  0  0  0  0  0  0  0
  -22.3820   -8.8270   20.3500 C   0  0  0  0  0  3  0  0  0  0  0  0
  -23.1270   -9.9820   20.0620 C   0  0  0  0  0  3  0  0  0  0  0  0
  -22.0310   -6.8110   21.5380 O   0  0  0  0  0  0  0  0  0  0  0  0
  -21.9600   -6.1860   22.7580 C   0  0  0  0  0  0  0  0  0  0  0  0
  -21.5520   -6.8720   23.9230 C   0  0  0  0  0  3  0  0  0  0  0  0
  -21.4250   -6.1770   25.1410 C   0  0  0  0  0  3  0  0  0  0  0  0
  -21.6960   -4.7960   25.1960 C   0  0  0  0  0  0  0  0  0  0  0  0
  -22.0960   -4.1100   24.0360 C   0  0  0  0  0  3  0  0  0  0  0  0
  -22.2250   -4.8030   22.8190 C   0  0  0  0  0  0  0  0  0  0  0  0
  -22.5910   -4.1330   21.7000 F   0  0  0  0  0  0  0  0  0  0  0  0
  -21.5680   -4.1250   26.3650 F   0  0  0  0  0  0  0  0  0  0  0  0
  -23.3180  -13.3990   20.9280 C   0  0  0  0  0  0  0  0  0  0  0  0
  -22.6880  -12.7800   21.9210 N   0  0  0  0  0  0  0  0  0  0  0  0
  -22.8440  -14.4060   20.4050 O   0  0  0  0  0  0  0  0  0  0  0  0
  -23.0860  -11.9650   22.3660 H   0  0  0  0  0  0  0  0  0  0  0  0
  -21.7940  -13.1260   22.2390 H   0  0  0  0  0  0  0  0  0  0  0  0
  -25.8970  -14.9390   19.7730 N   0  0  0  0  0  0  0  0  0  0  0  0
  -25.1760  -15.6260   19.9590 H   0  0  0  0  0  0  0  0  0  0  0  0
  -26.7210  -15.3380   19.3400 H   0  0  0  0  0  0  0  0  0  0  0  0
  -30.0050  -15.4900   22.7820 C   0  0  0  0  0  1  0  0  0  0  0  0
  -30.9110  -14.6220   21.8930 C   0  0  0  0  0  2  0  0  0  0  0  0
  2  1  1  0
  2  4  1  0
  2  5  1  0
  3  2  1  0
  6  7  1  0
  6  5  1  0
  8  9  1  0
  8  7  1  0
  9 11  1  0
 10 21  2  0
 11 16  1  0
 12 20  1  0
 12 22  1  0
 13 19  1  0
 13 15  1  0
 14 20  1  0
 15 14  1  0
 16 15  2  0
 17 18  1  0
 17 11  2  0
 18 13  2  0
 19 12  1  0
 20 10  1  0
 22 24  2  0
 23 22  1  0
 25 23  1  0
 26 35  2  0
 26 31  1  0
 27 23  1  0
 27 31  1  0
 28 27  1  0
 29 30  1  0
 29 28  1  0
 30 26  1  0
 31 32  2  0
 32 33  1  0
 34 33  2  0
 35 34  1  0
 36 10  1  0
 36 37  1  0
 36 46  1  0
 37 40  1  0
 38 42  1  0
 38 37  1  0
 39 38  2  0
 42 41  1  0
 44 42  1  0
 44 45  1  0
 44 43  1  0
 46 49  1  1
 46 47  1  0
 48 46  1  0
 50 51  1  0
 50  1  1  0
 52 51  1  0
 52 58  1  0
 53 52  1  0
 53 54  1  0
 54 55  1  0
 56 54  1  0
 57 54  1  0
 58 96  1  0
 59 58  1  0
 60 65  1  0
 61 62  1  0
 61 60  1  0
 63 62  1  0
 63 70  1  0
 63 64  1  0
 65 59  1  0
 65 64  1  0
 66 59  2  0
 67 68  2  0
 68 87  1  0
 69 68  1  0
 69 72  1  0
 70 67  1  0
 70 71  1  0
 71 69  2  0
 72 73  1  0
 73 74  2  0
 75 78  1  0
 75 74  1  0
 76 75  2  0
 77 76  1  0
 77 72  2  0
 78 79  1  0
 79 84  2  0
 79 80  1  0
 80 81  2  0
 81 82  1  0
 82 86  1  0
 83 82  2  0
 84 83  1  0
 85 84  1  0
 87 88  1  0
 88 91  1  0
 88 90  1  0
 89 87  2  0
 92 93  1  0
 92 67  1  0
 94 92  1  0
 96 95  1  0
M  ISO  4   8 101   9 101  58 100  59 100
M  END
>  <TORSDO>  (67) 
F 28

>  <SCORE>  (67) 
-6.974

>  <name>  (67) 
66

>  <ligand_id>  (67) 
66

>  <original_smiles>  (67) 
[H]c1c([H])c([H])c2c(c1[H])C([H])([H])C([H])([H])C([H])([H])C2([H])N([H])C(=O)C1([H])N(C(=O)C([H])(N([H])C(=O)C([H])(N([H])C([H])([H])[H])C([H])([H])[H])C(C([H])([H])[H])(C([H])([H])[H])C([H])([H])[H])C([H])([H])c2c([H])c(OC([H])([H])C([H])([H])C([H])([H])C([H])([H])[N+]([H])([H])C([H])([H])C([H])([H])C([H])([H])C([H])(C([H])(C(=O)N3C([H])([H])C([H])([H])C([H])([H])C([H])(n4nc(-c5c([H])c([H])c(Oc6c([H])c([H])c(F)c([H])c6F)c([H])c5[H])c(C(=O)N([H])[H])c4N([H])[H])C3([H])[H])C([H])([H])C([H])([H])[H])C([H])([H])[N+]([H])([H])[H])c([H])c([H])c2C1([H])[H]

>  <smiles>  (67) 
[H]c1c([H])c([H])c2c(c1[H])C([H])([H])C([H])([H])C([H])([H])C2([H])N([H])C(=O)C1([H])N(C(=O)C([H])(N([H])C(=O)C([H])(N([H])C([H])([H])[H])C([H])([H])[H])C(C([H])([H])[H])(C([H])([H])[H])C([H])([H])[H])C([H])([H])c2c([H])c(OC([H])([H])C([H])([H])C([H])([H])C([H])([H])[N+]([H])([H])C([H])([H])C([H])([H])C([H])([H])C([H])(C([H])(C(=O)N3C([H])([H])C([H])([H])C([H])([H])C([H])(n4nc(-c5c([H])c([H])c(Oc6c([H])c([H])c(F)c([H])c6F)c([H])c5[H])c(C(=O)N([H])[H])c4N([H])[H])C3([H])[H])C([H])([H])C([H])([H])[H])C([H])([H])[N+]([H])([H])[H])c([H])c([H])c2C1([H])[H]

$$$$
67:0:0
     RDKit          3D

 97106  0  0  1  0  0  0  0  0999 V2000
  -29.5780  -21.3850   21.7140 C   0  0  0  0  0  2  0  0  0  0  0  0
  -29.4860  -19.7900   21.7600 C   0  0  0  0  0  2  0  0  0  0  0  0
  -29.2320  -19.8190   19.2550 C   0  0  0  0  0  3  0  0  0  0  0  0
  -28.9750  -22.1950   20.5050 C   0  0  0  0  0  3  0  0  0  0  0  0
  -29.6230  -21.3830   19.3180 C   0  0  0  0  0  3  0  0  0  0  0  0
  -29.5370  -18.9940   20.4780 N   0  0  1  0  0  4  0  0  0  0  0  0
  -28.6180  -18.5560   20.4960 H   0  0  0  0  0  0  0  0  0  0  0  0
  -27.7410  -19.5500   18.9470 C   0  0  0  0  0  0  0  0  0  0  0  0
  -27.1800  -20.0580   17.8560 N   0  0  0  0  0  0  0  0  0  0  0  0
  -27.0880  -18.8210   19.6980 O   0  0  0  0  0  0  0  0  0  0  0  0
  -27.7000  -20.6620   17.2350 H   0  0  0  0  0  0  0  0  0  0  0  0
  -26.2130  -19.8560   17.6480 H   0  0  0  0  0  0  0  0  0  0  0  0
  -29.5200  -22.1320   17.9680 C   0  0  0  0  0  2  0  0  0  0  0  0
  -31.0440  -22.2320   15.8060 C   0  0  0  0  0  2  0  0  0  0  0  0
  -31.7970  -21.4420   16.8520 C   0  0  0  0  0  2  0  0  0  0  0  0
  -30.2840  -21.4430   16.8470 C   0  0  0  0  0  3  0  0  0  0  0  0
  -29.2140  -23.8280   20.6190 C   0  0  0  0  0  3  0  0  0  0  0  0
  -28.2270  -24.9760   20.0050 C   0  0  0  0  0  3  0  0  0  0  0  0
  -28.4160  -26.4590   20.2750 O   0  0  0  0  0  0  0  0  0  0  0  0
  -24.6760  -31.9530   23.2440 C   0  0  0  0  0  0  0  0  0  0  0  0
  -27.3160  -27.3590   20.1910 C   0  0  0  0  0  0  0  0  0  0  0  0
  -23.4830  -30.5430   21.6050 C   0  0  0  0  0  3  0  0  0  0  0  0
  -24.9480  -29.0050   20.1660 C   0  0  0  0  0  0  0  0  0  0  0  0
  -26.0260  -30.8640   21.4300 C   0  0  0  0  0  2  0  0  0  0  0  0
  -26.1140  -29.4840   20.7730 C   0  0  0  0  0  0  0  0  0  0  0  0
  -27.2990  -28.6750   20.7760 C   0  0  0  0  0  3  0  0  0  0  0  0
  -26.1290  -26.9590   19.5400 C   0  0  0  0  0  3  0  0  0  0  0  0
  -24.9630  -27.7510   19.5320 C   0  0  0  0  0  3  0  0  0  0  0  0
  -23.7040  -29.8720   20.2230 C   0  0  0  0  0  2  0  0  0  0  0  0
  -24.7470  -31.1400   22.1470 N   0  0  0  0  0  0  0  0  0  0  0  0
  -23.5910  -32.2200   23.7800 O   0  0  0  0  0  0  0  0  0  0  0  0
  -22.8280  -29.5210   22.5660 C   0  0  0  0  0  0  0  0  0  0  0  0
  -21.5040  -29.3260   22.4370 N   0  0  0  0  0  0  0  0  0  0  0  0
  -23.5100  -28.9090   23.3920 O   0  0  0  0  0  0  0  0  0  0  0  0
  -21.0090  -29.8690   21.7430 H   0  0  0  0  0  0  0  0  0  0  0  0
  -18.1430  -28.0810   22.9430 C   0  0  0  0  0  0  0  0  0  0  0  0
  -20.6980  -28.3810   23.2110 C   0  0  0  0  0  3  0  0  0  0  0  0
  -20.8210  -26.9490   22.6420 C   0  0  0  0  0  2  0  0  0  0  0  0
  -19.7230  -26.6070   21.6280 C   0  0  0  0  0  2  0  0  0  0  0  0
  -18.3390  -26.7340   22.2690 C   0  0  0  0  0  2  0  0  0  0  0  0
  -19.2500  -28.8610   23.3690 C   0  0  0  0  0  0  0  0  0  0  0  0
  -19.0110  -30.1210   23.9610 C   0  0  0  0  0  3  0  0  0  0  0  0
  -17.6980  -30.6030   24.1260 C   0  0  0  0  0  3  0  0  0  0  0  0
  -16.6060  -29.8190   23.7140 C   0  0  0  0  0  3  0  0  0  0  0  0
  -16.8290  -28.5590   23.1310 C   0  0  0  0  0  3  0  0  0  0  0  0
  -25.9520  -32.6010   23.8620 C   0  0  0  0  0  3  0  0  0  0  0  0
  -25.6300  -34.0000   24.1830 N   0  0  0  0  0  0  0  0  0  0  0  0
  -25.9340  -35.0500   23.4070 C   0  0  0  0  0  0  0  0  0  0  0  0
  -26.5840  -34.9440   22.3630 O   0  0  0  0  0  0  0  0  0  0  0  0
  -25.0540  -34.1560   24.9980 H   0  0  0  0  0  0  0  0  0  0  0  0
  -24.1760  -36.8190   23.0760 C   0  0  0  0  0  1  0  0  0  0  0  0
  -25.4410  -36.4380   23.8620 C   0  0  0  0  0  3  0  0  0  0  0  0
  -27.5740  -37.3630   24.6500 C   0  0  0  0  0  1  0  0  0  0  0  0
  -26.4580  -37.5030   23.7180 N   0  0  0  0  0  0  0  0  0  0  0  0
  -26.0420  -38.4190   23.8610 H   0  0  0  0  0  0  0  0  0  0  0  0
  -26.4730  -31.8490   25.1500 C   0  0  1  0  0  0  0  0  0  0  0  0
  -25.3760  -31.6000   26.2120 C   0  0  0  0  0  1  0  0  0  0  0  0
  -27.0830  -30.4780   24.7790 C   0  0  0  0  0  1  0  0  0  0  0  0
  -27.6070  -32.6660   25.8120 C   0  0  0  0  0  1  0  0  0  0  0  0
  -30.4850  -17.7590   20.3700 C   0  0  0  0  0  3  0  0  0  0  0  0
  -29.9310  -16.2480   20.6480 C   0  0  0  0  0  3  0  0  0  0  0  0
  -30.7590  -14.9320   20.1990 C   0  0  0  0  0  0  0  0  0  0  0  0
  -30.5700  -12.6870   19.0890 C   0  0  0  0  0  2  0  0  0  0  0  0
  -29.5770  -12.8130   17.9090 C   0  0  0  0  0  2  0  0  0  0  0  0
  -28.1230  -12.6110   18.3840 C   0  0  0  0  0  2  0  0  0  0  0  0
  -27.8000  -13.4380   19.6560 C   0  0  0  0  0  3  0  0  0  0  0  0
  -28.9010  -13.2940   20.7250 C   0  0  0  0  0  2  0  0  0  0  0  0
  -30.1770  -13.6830   20.1140 N   0  0  0  0  0  0  0  0  0  0  0  0
  -31.9160  -15.0730   19.7900 O   0  0  0  0  0  0  0  0  0  0  0  0
  -25.4410  -14.0060   20.4870 C   0  0  0  0  0  0  0  0  0  0  0  0
  -24.3900  -13.2210   20.8770 C   0  0  0  0  0  0  0  0  0  0  0  0
  -24.8540  -11.8710   20.8010 C   0  0  0  0  0  0  0  0  0  0  0  0
  -26.4750  -13.1330   20.1890 N   0  0  0  0  0  0  0  0  0  0  0  0
  -26.1340  -11.8430   20.4420 N   0  0  0  0  0  0  0  0  0  0  0  0
  -24.1380  -10.6040   20.9910 C   0  0  0  0  0  0  0  0  0  0  0  0
  -24.5770   -9.6400   21.9260 C   0  0  0  0  0  3  0  0  0  0  0  0
  -23.8570   -8.4390   22.1070 C   0  0  0  0  0  3  0  0  0  0  0  0
  -22.6860   -8.1920   21.3500 C   0  0  0  0  0  0  0  0  0  0  0  0
  -22.2660   -9.1450   20.4050 C   0  0  0  0  0  3  0  0  0  0  0  0
  -22.9860  -10.3380   20.2240 C   0  0  0  0  0  3  0  0  0  0  0  0
  -21.9400   -7.0400   21.4380 O   0  0  0  0  0  0  0  0  0  0  0  0
  -21.8540   -6.3270   22.6060 C   0  0  0  0  0  0  0  0  0  0  0  0
  -21.3380   -6.8960   23.7910 C   0  0  0  0  0  3  0  0  0  0  0  0
  -21.2020   -6.1080   24.9510 C   0  0  0  0  0  3  0  0  0  0  0  0
  -21.5730   -4.7500   24.9270 C   0  0  0  0  0  0  0  0  0  0  0  0
  -22.0870   -4.1810   23.7480 C   0  0  0  0  0  3  0  0  0  0  0  0
  -22.2240   -4.9670   22.5900 C   0  0  0  0  0  0  0  0  0  0  0  0
  -22.6980   -4.4080   21.4510 F   0  0  0  0  0  0  0  0  0  0  0  0
  -21.4350   -3.9900   26.0380 F   0  0  0  0  0  0  0  0  0  0  0  0
  -23.0030  -13.6890   21.2090 C   0  0  0  0  0  0  0  0  0  0  0  0
  -22.3100  -12.9740   22.0870 N   0  0  0  0  0  0  0  0  0  0  0  0
  -22.5460  -14.7240   20.7250 O   0  0  0  0  0  0  0  0  0  0  0  0
  -22.6920  -12.1330   22.4950 H   0  0  0  0  0  0  0  0  0  0  0  0
  -21.3820  -13.2700   22.3540 H   0  0  0  0  0  0  0  0  0  0  0  0
  -25.5950  -15.3800   20.3400 N   0  0  0  0  0  0  0  0  0  0  0  0
  -24.8330  -16.0280   20.5010 H   0  0  0  0  0  0  0  0  0  0  0  0
  -26.4220  -15.8380   19.9820 H   0  0  0  0  0  0  0  0  0  0  0  0
  1  2  1  0
  3  8  1  0
  3  5  1  0
  3  6  1  0
  4 17  1  0
  4  1  1  0
  5 13  1  0
  5  4  1  0
  6  7  1  1
  6  2  1  0
  8 10  2  0
  9  8  1  0
 11  9  1  0
 12  9  1  0
 14 16  1  0
 14 15  1  0
 16 15  1  0
 16 13  1  0
 18 19  1  0
 18 17  2  0
 20 31  2  0
 21 19  1  0
 21 26  1  0
 22 30  1  0
 22 32  1  0
 23 29  1  0
 23 25  1  0
 24 30  1  0
 25 26  2  0
 25 24  1  0
 27 21  2  0
 28 27  1  0
 28 23  2  0
 29 22  1  0
 30 20  1  0
 32 34  2  0
 33 32  1  0
 35 33  1  0
 36 45  2  0
 36 41  1  0
 37 33  1  0
 37 41  1  0
 38 37  1  0
 39 40  1  0
 39 38  1  0
 40 36  1  0
 41 42  2  0
 42 43  1  0
 44 43  2  0
 45 44  1  0
 46 20  1  0
 46 47  1  0
 46 56  1  0
 47 50  1  0
 48 52  1  0
 48 47  1  0
 49 48  2  0
 52 51  1  0
 54 55  1  0
 54 52  1  0
 54 53  1  0
 56 59  1  1
 56 57  1  0
 58 56  1  0
 60  6  1  0
 60 61  2  0
 62 61  1  0
 63 68  1  0
 64 65  1  0
 64 63  1  0
 66 65  1  0
 66 73  1  0
 66 67  1  0
 68 62  1  0
 68 67  1  0
 69 62  2  0
 70 71  2  0
 71 90  1  0
 72 71  1  0
 72 75  1  0
 73 74  1  0
 73 70  1  0
 74 72  2  0
 75 76  1  0
 76 77  2  0
 78 81  1  0
 78 77  1  0
 79 78  2  0
 80 79  1  0
 80 75  2  0
 81 82  1  0
 82 83  1  0
 83 84  2  0
 85 84  1  0
 85 89  1  0
 86 85  2  0
 87 82  2  0
 87 86  1  0
 88 87  1  0
 90 91  1  0
 91 94  1  0
 91 93  1  0
 92 90  2  0
 95 70  1  0
 95 96  1  0
 97 95  1  0
M  ISO  4  18 101  19 101  61 100  62 100
M  END
>  <TORSDO>  (68) 
F 23

>  <SCORE>  (68) 
-12.461

>  <name>  (68) 
67

>  <ligand_id>  (68) 
67

>  <original_smiles>  (68) 
[H]c1c([H])c([H])c2c(c1[H])C([H])([H])C([H])([H])C([H])([H])C2([H])N([H])C(=O)C1([H])N(C(=O)C([H])(N([H])C(=O)C([H])(N([H])C([H])([H])[H])C([H])([H])[H])C(C([H])([H])[H])(C([H])([H])[H])C([H])([H])[H])C([H])([H])c2c([H])c(OC([H])([H])C([H])([H])C3([H])C([H])([H])C([H])([H])[N+]([H])(C([H])([H])C([H])([H])C(=O)N4C([H])([H])C([H])([H])C([H])([H])C([H])(n5nc(-c6c([H])c([H])c(Oc7c([H])c([H])c(F)c([H])c7F)c([H])c6[H])c(C(=O)N([H])[H])c5N([H])[H])C4([H])[H])C([H])(C(=O)N([H])[H])C3([H])C([H])([H])C3([H])C([H])([H])C3([H])[H])c([H])c([H])c2C1([H])[H]

>  <smiles>  (68) 
[H]c1c([H])c([H])c2c(c1[H])C([H])([H])C([H])([H])C([H])([H])C2([H])N([H])C(=O)C1([H])N(C(=O)C([H])(N([H])C(=O)C([H])(N([H])C([H])([H])[H])C([H])([H])[H])C(C([H])([H])[H])(C([H])([H])[H])C([H])([H])[H])C([H])([H])c2c([H])c(OC([H])([H])C([H])([H])C3([H])C([H])([H])C([H])([H])[N+]([H])(C([H])([H])C([H])([H])C(=O)N4C([H])([H])C([H])([H])C([H])([H])C([H])(n5nc(-c6c([H])c([H])c(Oc7c([H])c([H])c(F)c([H])c7F)c([H])c6[H])c(C(=O)N([H])[H])c5N([H])[H])C4([H])[H])C([H])(C(=O)N([H])[H])C3([H])C([H])([H])C3([H])C([H])([H])C3([H])[H])c([H])c([H])c2C1([H])[H]

$$$$
68:0:0
     RDKit          3D

 92100  0  0  1  0  0  0  0  0999 V2000
  -30.4370  -15.3420   20.3590 C   0  0  0  0  0  0  0  0  0  0  0  0
  -30.4130  -12.9000   19.4690 C   0  0  0  0  0  2  0  0  0  0  0  0
  -29.5030  -12.6690   18.2370 C   0  0  0  0  0  2  0  0  0  0  0  0
  -28.0500  -12.4020   18.6690 C   0  0  0  0  0  2  0  0  0  0  0  0
  -27.5840  -13.3740   19.7810 C   0  0  0  0  0  3  0  0  0  0  0  0
  -28.6260  -13.5400   20.9070 C   0  0  0  0  0  2  0  0  0  0  0  0
  -29.8490  -14.0480   20.2650 N   0  0  0  0  0  0  0  0  0  0  0  0
  -31.6750  -15.3020   20.2960 O   0  0  0  0  0  0  0  0  0  0  0  0
  -30.0270  -18.1420   18.1230 C   0  0  0  0  0  2  0  0  0  0  0  0
  -29.2710  -16.9530   18.8240 C   0  0  0  0  0  2  0  0  0  0  0  0
  -29.6150  -18.1440   20.8780 C   0  0  0  0  0  2  0  0  0  0  0  0
  -30.2370  -19.5150   18.8730 C   0  0  0  0  0  3  0  0  0  0  0  0
  -29.2290  -19.6720   20.0470 C   0  0  0  0  0  3  0  0  0  0  0  0
  -29.7070  -16.6410   20.1960 N   0  0  0  0  0  0  0  0  0  0  0  0
  -25.2090  -13.9340   20.5130 C   0  0  0  0  0  0  0  0  0  0  0  0
  -24.1420  -13.1570   20.8680 C   0  0  0  0  0  0  0  0  0  0  0  0
  -24.6110  -11.8080   20.8530 C   0  0  0  0  0  0  0  0  0  0  0  0
  -26.2550  -13.0580   20.2850 N   0  0  0  0  0  0  0  0  0  0  0  0
  -25.9080  -11.7730   20.5610 N   0  0  0  0  0  0  0  0  0  0  0  0
  -23.8830  -10.5440   21.0370 C   0  0  0  0  0  0  0  0  0  0  0  0
  -24.3030   -9.5790   21.9780 C   0  0  0  0  0  3  0  0  0  0  0  0
  -23.5720   -8.3840   22.1540 C   0  0  0  0  0  3  0  0  0  0  0  0
  -22.4070   -8.1460   21.3870 C   0  0  0  0  0  0  0  0  0  0  0  0
  -22.0060   -9.0990   20.4340 C   0  0  0  0  0  3  0  0  0  0  0  0
  -22.7370  -10.2860   20.2580 C   0  0  0  0  0  3  0  0  0  0  0  0
  -21.6500   -7.0030   21.4710 O   0  0  0  0  0  0  0  0  0  0  0  0
  -21.5880   -6.2620   22.6230 C   0  0  0  0  0  0  0  0  0  0  0  0
  -21.1590   -6.8210   23.8460 C   0  0  0  0  0  3  0  0  0  0  0  0
  -21.0450   -6.0090   24.9910 C   0  0  0  0  0  3  0  0  0  0  0  0
  -21.3480   -4.6360   24.9150 C   0  0  0  0  0  0  0  0  0  0  0  0
  -21.7690   -4.0750   23.6950 C   0  0  0  0  0  3  0  0  0  0  0  0
  -21.8850   -4.8860   22.5530 C   0  0  0  0  0  0  0  0  0  0  0  0
  -22.2710   -4.3360   21.3770 F   0  0  0  0  0  0  0  0  0  0  0  0
  -21.2310   -3.8520   26.0120 F   0  0  0  0  0  0  0  0  0  0  0  0
  -22.7400  -13.6330   21.1100 C   0  0  0  0  0  0  0  0  0  0  0  0
  -21.9970  -12.9430   21.9670 N   0  0  0  0  0  0  0  0  0  0  0  0
  -22.3130  -14.6550   20.5740 O   0  0  0  0  0  0  0  0  0  0  0  0
  -22.3580  -12.1180   22.4230 H   0  0  0  0  0  0  0  0  0  0  0  0
  -21.0540  -13.2450   22.1710 H   0  0  0  0  0  0  0  0  0  0  0  0
  -25.3730  -15.3050   20.3340 N   0  0  0  0  0  0  0  0  0  0  0  0
  -24.6050  -15.9600   20.4380 H   0  0  0  0  0  0  0  0  0  0  0  0
  -26.2340  -15.7450   20.0370 H   0  0  0  0  0  0  0  0  0  0  0  0
  -29.0410  -21.2130   20.7060 N   0  0  0  0  0  4  0  0  0  0  0  0
  -29.7890  -21.2990   21.3760 H   0  0  0  0  0  0  0  0  0  0  0  0
  -28.2120  -21.1100   21.2730 H   0  0  0  0  0  0  0  0  0  0  0  0
  -28.8900  -22.7530   20.0400 C   0  0  0  0  0  2  0  0  0  0  0  0
  -28.1380  -24.2840   20.6500 C   0  0  0  0  0  2  0  0  0  0  0  0
  -28.3040  -25.9100   20.3620 O   0  0  0  0  0  0  0  0  0  0  0  0
  -24.6420  -31.8930   23.2410 C   0  0  0  0  0  0  0  0  0  0  0  0
  -27.2630  -26.9820   20.3400 C   0  0  0  0  0  0  0  0  0  0  0  0
  -23.4770  -30.4660   21.6100 C   0  0  0  0  0  3  0  0  0  0  0  0
  -24.9500  -28.8450   20.2340 C   0  0  0  0  0  0  0  0  0  0  0  0
  -26.0420  -30.6910   21.4880 C   0  0  0  0  0  2  0  0  0  0  0  0
  -26.1300  -29.2700   20.8600 C   0  0  0  0  0  0  0  0  0  0  0  0
  -27.2830  -28.3620   20.8780 C   0  0  0  0  0  3  0  0  0  0  0  0
  -26.0490  -26.7050   19.6710 C   0  0  0  0  0  3  0  0  0  0  0  0
  -24.9360  -27.5830   19.6180 C   0  0  0  0  0  3  0  0  0  0  0  0
  -23.7260  -29.7610   20.2480 C   0  0  0  0  0  2  0  0  0  0  0  0
  -24.7420  -31.0440   22.1680 N   0  0  0  0  0  0  0  0  0  0  0  0
  -23.5450  -32.1830   23.7460 O   0  0  0  0  0  0  0  0  0  0  0  0
  -22.7760  -29.4800   22.5820 C   0  0  0  0  0  0  0  0  0  0  0  0
  -21.4460  -29.3150   22.4510 N   0  0  0  0  0  0  0  0  0  0  0  0
  -23.4360  -28.8640   23.4230 O   0  0  0  0  0  0  0  0  0  0  0  0
  -20.9680  -29.8660   21.7510 H   0  0  0  0  0  0  0  0  0  0  0  0
  -18.0570  -28.1230   22.9620 C   0  0  0  0  0  0  0  0  0  0  0  0
  -20.6180  -28.3860   23.2260 C   0  0  0  0  0  3  0  0  0  0  0  0
  -20.7160  -26.9490   22.6610 C   0  0  0  0  0  2  0  0  0  0  0  0
  -19.6150  -26.6220   21.6470 C   0  0  0  0  0  2  0  0  0  0  0  0
  -18.2330  -26.7710   22.2900 C   0  0  0  0  0  2  0  0  0  0  0  0
  -19.1780  -28.8870   23.3860 C   0  0  0  0  0  0  0  0  0  0  0  0
  -18.9570  -30.1500   23.9780 C   0  0  0  0  0  3  0  0  0  0  0  0
  -17.6520  -30.6490   24.1470 C   0  0  0  0  0  3  0  0  0  0  0  0
  -16.5470  -29.8820   23.7370 C   0  0  0  0  0  3  0  0  0  0  0  0
  -16.7510  -28.6210   23.1490 C   0  0  0  0  0  3  0  0  0  0  0  0
  -25.9020  -32.5530   23.8800 C   0  0  0  0  0  3  0  0  0  0  0  0
  -26.3910  -31.8140   25.1880 C   0  0  1  0  0  0  0  0  0  0  0  0
  -25.2750  -31.6000   26.2390 C   0  0  0  0  0  1  0  0  0  0  0  0
  -26.9850  -30.4280   24.8490 C   0  0  0  0  0  1  0  0  0  0  0  0
  -27.5250  -32.6280   25.8540 C   0  0  0  0  0  1  0  0  0  0  0  0
  -25.5720  -33.9560   24.1870 N   0  0  0  0  0  0  0  0  0  0  0  0
  -25.9130  -35.0090   23.4320 C   0  0  0  0  0  0  0  0  0  0  0  0
  -26.6020  -34.9020   22.4140 O   0  0  0  0  0  0  0  0  0  0  0  0
  -24.9610  -34.1100   24.9750 H   0  0  0  0  0  0  0  0  0  0  0  0
  -24.1880  -36.8030   23.0380 C   0  0  0  0  0  1  0  0  0  0  0  0
  -25.4150  -36.4020   23.8720 C   0  0  0  0  0  3  0  0  0  0  0  0
  -27.5330  -37.2990   24.7360 C   0  0  0  0  0  1  0  0  0  0  0  0
  -26.4470  -37.4570   23.7720 N   0  0  0  0  0  0  0  0  0  0  0  0
  -26.0370  -38.3770   23.9070 H   0  0  0  0  0  0  0  0  0  0  0  0
  -30.3020  -20.6950   17.8750 C   0  0  0  0  0  2  0  0  0  0  0  0
  -31.1670  -21.7540   15.7540 C   0  0  0  0  0  1  0  0  0  0  0  0
  -32.7640  -20.4450   17.1990 C   0  0  0  0  0  1  0  0  0  0  0  0
  -31.3100  -20.5600   16.7100 C   0  0  0  0  0  3  0  0  0  0  0  0
  2  7  1  0
  3  4  1  0
  3  2  1  0
  5  4  1  0
  5 18  1  0
  5  6  1  0
  7  1  1  0
  7  6  1  0
  8  1  2  0
  9 10  1  0
  9 12  1  0
 10 14  1  0
 12 89  1  0
 12 13  1  0
 13 43  1  0
 13 11  1  0
 14  1  1  0
 14 11  1  0
 15 16  2  0
 16 35  1  0
 17 16  1  0
 17 20  1  0
 18 15  1  0
 18 19  1  0
 19 17  2  0
 20 21  1  0
 21 22  2  0
 23 26  1  0
 23 22  1  0
 24 23  2  0
 25 24  1  0
 25 20  2  0
 26 27  1  0
 27 28  1  0
 28 29  2  0
 30 29  1  0
 30 34  1  0
 31 30  2  0
 32 27  2  0
 32 31  1  0
 33 32  1  0
 35 36  1  0
 36 39  1  0
 36 38  1  0
 37 35  2  0
 40 41  1  0
 40 15  1  0
 42 40  1  0
 43 45  1  0
 43 44  1  0
 46 47  1  0
 46 43  1  0
 48 47  1  0
 49 60  2  0
 50 48  1  0
 50 55  1  0
 51 59  1  0
 51 61  1  0
 52 58  1  0
 52 54  1  0
 53 59  1  0
 54 55  2  0
 54 53  1  0
 56 50  2  0
 57 56  1  0
 57 52  2  0
 58 51  1  0
 59 49  1  0
 61 63  2  0
 62 61  1  0
 64 62  1  0
 65 74  2  0
 65 70  1  0
 66 62  1  0
 66 70  1  0
 67 66  1  0
 68 69  1  0
 68 67  1  0
 69 65  1  0
 70 71  2  0
 71 72  1  0
 73 72  2  0
 74 73  1  0
 75 49  1  0
 75 80  1  0
 75 76  1  0
 76 79  1  1
 76 77  1  0
 78 76  1  0
 80 83  1  0
 81 85  1  0
 81 80  1  0
 82 81  2  0
 85 84  1  0
 87 85  1  0
 87 88  1  0
 87 86  1  0
 90 92  1  0
 92 91  1  0
 92 89  1  0
M  ISO  4   1 100  14 100  47 101  48 101
M  END
>  <TORSDO>  (69) 
F 20

>  <SCORE>  (69) 
-15.596

>  <name>  (69) 
68

>  <ligand_id>  (69) 
68

>  <original_smiles>  (69) 
[H]c1c([H])c([H])c2c(c1[H])C([H])([H])C([H])([H])C([H])([H])C2([H])N([H])C(=O)C1([H])N(C(=O)C([H])(N([H])C(=O)C([H])(N([H])C([H])([H])[H])C([H])([H])[H])C(C([H])([H])[H])(C([H])([H])[H])C([H])([H])[H])C([H])([H])c2c([H])c(OC([H])([H])C([H])([H])[N+]([H])([H])C3([H])C([H])([H])N(C(=O)N4C([H])([H])C([H])([H])C([H])([H])C([H])(n5nc(-c6c([H])c([H])c(Oc7c([H])c([H])c(F)c([H])c7F)c([H])c6[H])c(C(=O)N([H])[H])c5N([H])[H])C4([H])[H])C([H])([H])C([H])([H])C3([H])C([H])([H])C([H])(C([H])([H])[H])C([H])([H])[H])c([H])c([H])c2C1([H])[H]

>  <smiles>  (69) 
[H]c1c([H])c([H])c2c(c1[H])C([H])([H])C([H])([H])C([H])([H])C2([H])N([H])C(=O)C1([H])N(C(=O)C([H])(N([H])C(=O)C([H])(N([H])C([H])([H])[H])C([H])([H])[H])C(C([H])([H])[H])(C([H])([H])[H])C([H])([H])[H])C([H])([H])c2c([H])c(OC([H])([H])C([H])([H])[N+]([H])([H])C3([H])C([H])([H])N(C(=O)N4C([H])([H])C([H])([H])C([H])([H])C([H])(n5nc(-c6c([H])c([H])c(Oc7c([H])c([H])c(F)c([H])c7F)c([H])c6[H])c(C(=O)N([H])[H])c5N([H])[H])C4([H])[H])C([H])([H])C([H])([H])C3([H])C([H])([H])C([H])(C([H])([H])[H])C([H])([H])[H])c([H])c([H])c2C1([H])[H]

$$$$
69:0:0
     RDKit          3D

 93100  0  0  1  0  0  0  0  0999 V2000
  -29.2140  -21.9790   20.4680 C   0  0  0  0  0  3  0  0  0  0  0  0
  -29.9970  -22.1090   19.2240 N   0  0  0  0  0  4  0  0  0  0  0  0
  -29.4340  -21.8370   18.4360 H   0  0  0  0  0  0  0  0  0  0  0  0
  -30.8150  -21.5270   19.2600 H   0  0  0  0  0  0  0  0  0  0  0  0
  -30.3020  -23.0550   19.0850 H   0  0  0  0  0  0  0  0  0  0  0  0
  -28.0050  -22.9390   20.3190 C   0  0  0  0  0  0  0  0  0  0  0  0
  -26.9660  -22.6030   19.7450 O   0  0  0  0  0  0  0  0  0  0  0  0
  -28.1230  -24.3860   20.8370 C   0  0  0  0  0  2  0  0  0  0  0  0
  -28.5470  -25.4130   19.7580 C   0  0  0  0  0  2  0  0  0  0  0  0
  -28.4640  -26.7750   20.2110 O   0  0  0  0  0  0  0  0  0  0  0  0
  -24.5950  -31.9020   23.2600 C   0  0  0  0  0  0  0  0  0  0  0  0
  -27.2610  -27.4560   20.1940 C   0  0  0  0  0  0  0  0  0  0  0  0
  -23.3970  -30.4930   21.6180 C   0  0  0  0  0  3  0  0  0  0  0  0
  -24.8550  -28.9590   20.1990 C   0  0  0  0  0  0  0  0  0  0  0  0
  -25.9200  -30.8620   21.4210 C   0  0  0  0  0  2  0  0  0  0  0  0
  -26.0110  -29.4890   20.7840 C   0  0  0  0  0  0  0  0  0  0  0  0
  -27.2130  -28.7460   20.7730 C   0  0  0  0  0  3  0  0  0  0  0  0
  -26.0780  -26.9350   19.6190 C   0  0  0  0  0  3  0  0  0  0  0  0
  -24.8850  -27.6810   19.6140 C   0  0  0  0  0  3  0  0  0  0  0  0
  -23.6070  -29.8140   20.2400 C   0  0  0  0  0  2  0  0  0  0  0  0
  -24.6560  -31.1000   22.1590 N   0  0  0  0  0  0  0  0  0  0  0  0
  -23.5120  -32.1720   23.7980 O   0  0  0  0  0  0  0  0  0  0  0  0
  -22.7500  -29.4700   22.5790 C   0  0  0  0  0  0  0  0  0  0  0  0
  -21.4260  -29.2840   22.4530 N   0  0  0  0  0  0  0  0  0  0  0  0
  -23.4350  -28.8470   23.3960 O   0  0  0  0  0  0  0  0  0  0  0  0
  -20.9350  -29.8410   21.7660 H   0  0  0  0  0  0  0  0  0  0  0  0
  -18.0530  -28.0930   22.9570 C   0  0  0  0  0  0  0  0  0  0  0  0
  -20.6110  -28.3450   23.2230 C   0  0  0  0  0  3  0  0  0  0  0  0
  -20.7090  -26.9160   22.6400 C   0  0  0  0  0  2  0  0  0  0  0  0
  -19.6040  -26.5970   21.6290 C   0  0  0  0  0  2  0  0  0  0  0  0
  -18.2240  -26.7440   22.2780 C   0  0  0  0  0  2  0  0  0  0  0  0
  -19.1750  -28.8510   23.3870 C   0  0  0  0  0  0  0  0  0  0  0  0
  -18.9610  -30.1130   23.9820 C   0  0  0  0  0  3  0  0  0  0  0  0
  -17.6580  -30.6180   24.1510 C   0  0  0  0  0  3  0  0  0  0  0  0
  -16.5500  -29.8570   23.7390 C   0  0  0  0  0  3  0  0  0  0  0  0
  -16.7490  -28.5950   23.1480 C   0  0  0  0  0  3  0  0  0  0  0  0
  -25.8770  -32.5390   23.8810 C   0  0  0  0  0  3  0  0  0  0  0  0
  -26.3880  -31.7800   25.1650 C   0  0  1  0  0  0  0  0  0  0  0  0
  -25.2910  -31.5500   26.2300 C   0  0  0  0  0  1  0  0  0  0  0  0
  -26.9740  -30.4010   24.7840 C   0  0  0  0  0  1  0  0  0  0  0  0
  -27.5350  -32.5810   25.8260 C   0  0  0  0  0  1  0  0  0  0  0  0
  -25.5680  -33.9420   24.1940 N   0  0  0  0  0  0  0  0  0  0  0  0
  -25.9110  -34.9850   23.4280 C   0  0  0  0  0  0  0  0  0  0  0  0
  -26.5940  -34.8700   22.4070 O   0  0  0  0  0  0  0  0  0  0  0  0
  -24.9620  -34.1040   24.9850 H   0  0  0  0  0  0  0  0  0  0  0  0
  -24.1980  -36.7800   23.0220 C   0  0  0  0  0  1  0  0  0  0  0  0
  -25.4190  -36.3790   23.8650 C   0  0  0  0  0  3  0  0  0  0  0  0
  -27.5410  -37.2590   24.7350 C   0  0  0  0  0  1  0  0  0  0  0  0
  -26.4600  -37.4260   23.7660 N   0  0  0  0  0  0  0  0  0  0  0  0
  -26.0560  -38.3500   23.8970 H   0  0  0  0  0  0  0  0  0  0  0  0
  -28.7890  -20.4930   20.7270 C   0  0  0  0  0  2  0  0  0  0  0  0
  -31.0240  -19.8240   21.7900 C   0  0  0  0  0  1  0  0  0  0  0  0
  -29.9440  -19.4420   20.7600 C   0  0  0  0  0  3  0  0  0  0  0  0
  -29.4190  -17.9870   20.9780 C   0  0  0  0  0  2  0  0  0  0  0  0
  -30.5180  -16.8950   20.8920 C   0  0  0  0  0  2  0  0  0  0  0  0
  -30.6890  -14.4660   20.4050 C   0  0  0  0  0  0  0  0  0  0  0  0
  -30.3690  -12.3080   19.2650 C   0  0  0  0  0  2  0  0  0  0  0  0
  -29.4310  -12.5140   18.0590 C   0  0  0  0  0  2  0  0  0  0  0  0
  -27.9550  -12.3960   18.4890 C   0  0  0  0  0  2  0  0  0  0  0  0
  -27.6250  -13.2330   19.7550 C   0  0  0  0  0  3  0  0  0  0  0  0
  -28.6800  -13.0080   20.8620 C   0  0  0  0  0  2  0  0  0  0  0  0
  -30.0030  -13.2990   20.2880 N   0  0  0  0  0  0  0  0  0  0  0  0
  -31.8250  -14.6210   19.9480 O   0  0  0  0  0  0  0  0  0  0  0  0
  -30.0050  -15.5150   20.8980 N   0  0  0  0  0  0  0  0  0  0  0  0
  -29.0710  -15.3510   21.2400 H   0  0  0  0  0  0  0  0  0  0  0  0
  -25.2230  -13.8570   20.4370 C   0  0  0  0  0  0  0  0  0  0  0  0
  -24.1490  -13.0920   20.8030 C   0  0  0  0  0  0  0  0  0  0  0  0
  -24.6040  -11.7380   20.7870 C   0  0  0  0  0  0  0  0  0  0  0  0
  -26.2670  -12.9700   20.2250 N   0  0  0  0  0  0  0  0  0  0  0  0
  -25.8970  -11.6910   20.4920 N   0  0  0  0  0  0  0  0  0  0  0  0
  -23.8700  -10.4800   20.9810 C   0  0  0  0  0  0  0  0  0  0  0  0
  -24.2890   -9.5220   21.9300 C   0  0  0  0  0  3  0  0  0  0  0  0
  -23.5600   -8.3270   22.1100 C   0  0  0  0  0  3  0  0  0  0  0  0
  -22.3950   -8.0830   21.3430 C   0  0  0  0  0  0  0  0  0  0  0  0
  -21.9980   -9.0290   20.3810 C   0  0  0  0  0  3  0  0  0  0  0  0
  -22.7290  -10.2150   20.1980 C   0  0  0  0  0  3  0  0  0  0  0  0
  -21.6380   -6.9420   21.4340 O   0  0  0  0  0  0  0  0  0  0  0  0
  -21.5610   -6.2180   22.5960 C   0  0  0  0  0  0  0  0  0  0  0  0
  -21.0980   -6.7890   23.8020 C   0  0  0  0  0  3  0  0  0  0  0  0
  -20.9720   -5.9910   24.9570 C   0  0  0  0  0  3  0  0  0  0  0  0
  -21.3000   -4.6220   24.9060 C   0  0  0  0  0  0  0  0  0  0  0  0
  -21.7560   -4.0500   23.7050 C   0  0  0  0  0  3  0  0  0  0  0  0
  -21.8830   -4.8470   22.5530 C   0  0  0  0  0  0  0  0  0  0  0  0
  -22.3040   -4.2860   21.3930 F   0  0  0  0  0  0  0  0  0  0  0  0
  -21.1710   -3.8520   26.0130 F   0  0  0  0  0  0  0  0  0  0  0  0
  -22.7510  -13.5750   21.0630 C   0  0  0  0  0  0  0  0  0  0  0  0
  -22.0140  -12.8830   21.9240 N   0  0  0  0  0  0  0  0  0  0  0  0
  -22.3200  -14.6010   20.5380 O   0  0  0  0  0  0  0  0  0  0  0  0
  -22.3780  -12.0540   22.3710 H   0  0  0  0  0  0  0  0  0  0  0  0
  -21.0750  -13.1850   22.1410 H   0  0  0  0  0  0  0  0  0  0  0  0
  -25.3970  -15.2250   20.2450 N   0  0  0  0  0  0  0  0  0  0  0  0
  -24.6410  -15.8940   20.3500 H   0  0  0  0  0  0  0  0  0  0  0  0
  -26.2530  -15.6450   19.9030 H   0  0  0  0  0  0  0  0  0  0  0  0
  1 51  1  0
  2  4  1  0
  2  1  1  0
  3  2  1  0
  5  2  1  0
  6  1  1  0
  6  8  1  0
  7  6  2  0
  9 10  1  0
  9  8  1  0
 11 22  2  0
 12 10  1  0
 12 17  1  0
 13 21  1  0
 13 23  1  0
 14 20  1  0
 14 16  1  0
 15 21  1  0
 16 15  1  0
 17 16  2  0
 18 12  2  0
 19 18  1  0
 19 14  2  0
 20 13  1  0
 21 11  1  0
 23 25  2  0
 24 23  1  0
 26 24  1  0
 27 36  2  0
 27 32  1  0
 28 24  1  0
 28 32  1  0
 29 28  1  0
 30 31  1  0
 30 29  1  0
 31 27  1  0
 32 33  2  0
 33 34  1  0
 35 34  2  0
 36 35  1  0
 37 11  1  0
 37 42  1  0
 37 38  1  0
 38 41  1  1
 38 39  1  0
 40 38  1  0
 42 45  1  0
 43 47  1  0
 43 42  1  0
 44 43  2  0
 47 46  1  0
 49 47  1  0
 49 50  1  0
 49 48  1  0
 51 53  1  0
 53 54  1  0
 53 52  1  0
 55 64  1  0
 55 54  1  0
 56 64  1  0
 57 62  1  0
 58 59  1  0
 58 57  1  0
 60 59  1  0
 60 69  1  0
 60 61  1  0
 62 56  1  0
 62 61  1  0
 63 56  2  0
 64 65  1  0
 66 67  2  0
 67 86  1  0
 68 67  1  0
 68 71  1  0
 69 66  1  0
 69 70  1  0
 70 68  2  0
 71 72  1  0
 72 73  2  0
 74 77  1  0
 74 73  1  0
 75 74  2  0
 76 75  1  0
 76 71  2  0
 77 78  1  0
 78 79  1  0
 79 80  2  0
 81 80  1  0
 81 85  1  0
 82 81  2  0
 83 78  2  0
 83 82  1  0
 84 83  1  0
 86 87  1  0
 87 90  1  0
 87 89  1  0
 88 86  2  0
 91 92  1  0
 91 66  1  0
 93 91  1  0
M  ISO  4   9 101  10 101  56 100  64 100
M  END
>  <TORSDO>  (70) 
F 24

>  <SCORE>  (70) 
-12.602

>  <name>  (70) 
69

>  <ligand_id>  (70) 
69

>  <original_smiles>  (70) 
[H]c1c([H])c([H])c2c(c1[H])C([H])([H])C([H])([H])C([H])([H])C2([H])N([H])C(=O)C1([H])N(C(=O)C([H])(N([H])C(=O)C([H])(N([H])C([H])([H])[H])C([H])([H])[H])C(C([H])([H])[H])(C([H])([H])[H])C([H])([H])[H])C([H])([H])c2c([H])c(OC([H])([H])C([H])([H])C(=O)C([H])(C([H])([H])C([H])(C([H])([H])[H])C([H])([H])C([H])([H])N([H])C(=O)N3C([H])([H])C([H])([H])C([H])([H])C([H])(n4nc(-c5c([H])c([H])c(Oc6c([H])c([H])c(F)c([H])c6F)c([H])c5[H])c(C(=O)N([H])[H])c4N([H])[H])C3([H])[H])[N+]([H])([H])[H])c([H])c([H])c2C1([H])[H]

>  <smiles>  (70) 
[H]c1c([H])c([H])c2c(c1[H])C([H])([H])C([H])([H])C([H])([H])C2([H])N([H])C(=O)C1([H])N(C(=O)C([H])(N([H])C(=O)C([H])(N([H])C([H])([H])[H])C([H])([H])[H])C(C([H])([H])[H])(C([H])([H])[H])C([H])([H])[H])C([H])([H])c2c([H])c(OC([H])([H])C([H])([H])C(=O)C([H])(C([H])([H])C([H])(C([H])([H])[H])C([H])([H])C([H])([H])N([H])C(=O)N3C([H])([H])C([H])([H])C([H])([H])C([H])(n4nc(-c5c([H])c([H])c(Oc6c([H])c([H])c(F)c([H])c6F)c([H])c5[H])c(C(=O)N([H])[H])c4N([H])[H])C3([H])[H])[N+]([H])([H])[H])c([H])c([H])c2C1([H])[H]

$$$$
70:0:0
     RDKit          3D

 92100  0  0  1  0  0  0  0  0999 V2000
  -29.2320  -20.1910   19.1230 C   0  0  0  0  0  2  0  0  0  0  0  0
  -29.4430  -21.7170   18.9080 C   0  0  0  0  0  2  0  0  0  0  0  0
  -29.6570  -21.9880   21.3900 C   0  0  0  0  0  2  0  0  0  0  0  0
  -29.9140  -19.6710   20.4160 C   0  0  0  0  0  3  0  0  0  0  0  0
  -28.9860  -22.5850   20.1140 C   0  0  0  0  0  3  0  0  0  0  0  0
  -29.4340  -20.5130   21.5480 N   0  0  0  0  0  4  0  0  0  0  0  0
  -28.4540  -20.3250   21.6810 H   0  0  0  0  0  0  0  0  0  0  0  0
  -29.8990  -20.2010   22.3850 H   0  0  0  0  0  0  0  0  0  0  0  0
  -29.5970  -18.1510   20.7180 C   0  0  0  0  0  0  0  0  0  0  0  0
  -28.6120  -17.8060   21.3790 O   0  0  0  0  0  0  0  0  0  0  0  0
  -30.5420  -17.0450   20.1590 C   0  0  0  0  0  2  0  0  0  0  0  0
  -30.8100  -14.5430   20.0050 C   0  0  0  0  0  0  0  0  0  0  0  0
  -30.4460  -12.3740   18.8810 C   0  0  0  0  0  2  0  0  0  0  0  0
  -29.4300  -12.5790   17.7380 C   0  0  0  0  0  2  0  0  0  0  0  0
  -27.9870  -12.4290   18.2600 C   0  0  0  0  0  2  0  0  0  0  0  0
  -27.7290  -13.2490   19.5540 C   0  0  0  0  0  3  0  0  0  0  0  0
  -28.8590  -13.0430   20.5900 C   0  0  0  0  0  2  0  0  0  0  0  0
  -30.1340  -13.3600   19.9330 N   0  0  0  0  0  0  0  0  0  0  0  0
  -31.9350  -14.6810   19.5190 O   0  0  0  0  0  0  0  0  0  0  0  0
  -30.1180  -15.6340   20.4210 N   0  0  0  0  0  0  0  0  0  0  0  0
  -29.1960  -15.4990   20.8090 H   0  0  0  0  0  0  0  0  0  0  0  0
  -25.3930  -13.8380   20.4470 C   0  0  0  0  0  0  0  0  0  0  0  0
  -24.3460  -13.0590   20.8620 C   0  0  0  0  0  0  0  0  0  0  0  0
  -24.7960  -11.7080   20.7580 C   0  0  0  0  0  0  0  0  0  0  0  0
  -26.4140  -12.9600   20.1180 N   0  0  0  0  0  0  0  0  0  0  0  0
  -26.0630  -11.6720   20.3650 N   0  0  0  0  0  0  0  0  0  0  0  0
  -24.0760  -10.4430   20.9580 C   0  0  0  0  0  0  0  0  0  0  0  0
  -24.5230   -9.4730   21.8820 C   0  0  0  0  0  3  0  0  0  0  0  0
  -23.8010   -8.2750   22.0680 C   0  0  0  0  0  3  0  0  0  0  0  0
  -22.6180   -8.0370   21.3320 C   0  0  0  0  0  0  0  0  0  0  0  0
  -22.1870   -8.9950   20.3970 C   0  0  0  0  0  3  0  0  0  0  0  0
  -22.9100  -10.1860   20.2080 C   0  0  0  0  0  3  0  0  0  0  0  0
  -21.8660   -6.8900   21.4280 O   0  0  0  0  0  0  0  0  0  0  0  0
  -21.7890   -6.1770   22.5970 C   0  0  0  0  0  0  0  0  0  0  0  0
  -21.2920   -6.7500   23.7870 C   0  0  0  0  0  3  0  0  0  0  0  0
  -21.1650   -5.9600   24.9480 C   0  0  0  0  0  3  0  0  0  0  0  0
  -21.5250   -4.5990   24.9180 C   0  0  0  0  0  0  0  0  0  0  0  0
  -22.0170   -4.0270   23.7330 C   0  0  0  0  0  3  0  0  0  0  0  0
  -22.1450   -4.8140   22.5740 C   0  0  0  0  0  0  0  0  0  0  0  0
  -22.5990   -4.2520   21.4280 F   0  0  0  0  0  0  0  0  0  0  0  0
  -21.3960   -3.8390   26.0300 F   0  0  0  0  0  0  0  0  0  0  0  0
  -22.9740  -13.5350   21.2410 C   0  0  0  0  0  0  0  0  0  0  0  0
  -22.3000  -12.8170   22.1310 N   0  0  0  0  0  0  0  0  0  0  0  0
  -22.5110  -14.5800   20.7850 O   0  0  0  0  0  0  0  0  0  0  0  0
  -22.6880  -11.9710   22.5240 H   0  0  0  0  0  0  0  0  0  0  0  0
  -21.3820  -13.1180   22.4290 H   0  0  0  0  0  0  0  0  0  0  0  0
  -25.5540  -15.2120   20.3000 N   0  0  0  0  0  0  0  0  0  0  0  0
  -24.8000  -15.8660   20.4860 H   0  0  0  0  0  0  0  0  0  0  0  0
  -26.3850  -15.6620   19.9400 H   0  0  0  0  0  0  0  0  0  0  0  0
  -29.2510  -24.1270   19.8560 C   0  0  0  0  0  3  0  0  0  0  0  0
  -28.4360  -25.1850   20.6780 C   0  0  0  0  0  3  0  0  0  0  0  0
  -28.5980  -26.5760   20.2470 O   0  0  0  0  0  0  0  0  0  0  0  0
  -24.6590  -31.8030   23.1830 C   0  0  0  0  0  0  0  0  0  0  0  0
  -27.4490  -27.3570   20.1910 C   0  0  0  0  0  0  0  0  0  0  0  0
  -23.5270  -30.3930   21.4980 C   0  0  0  0  0  3  0  0  0  0  0  0
  -25.0480  -28.8800   20.1120 C   0  0  0  0  0  0  0  0  0  0  0  0
  -26.0590  -30.7740   21.3880 C   0  0  0  0  0  2  0  0  0  0  0  0
  -26.1840  -29.4030   20.7430 C   0  0  0  0  0  0  0  0  0  0  0  0
  -27.3900  -28.6530   20.7730 C   0  0  0  0  0  3  0  0  0  0  0  0
  -26.2980  -26.8730   19.5320 C   0  0  0  0  0  3  0  0  0  0  0  0
  -25.1040  -27.6170   19.4990 C   0  0  0  0  0  3  0  0  0  0  0  0
  -23.7930  -29.7250   20.1230 C   0  0  0  0  0  2  0  0  0  0  0  0
  -24.7650  -31.0070   22.0810 N   0  0  0  0  0  0  0  0  0  0  0  0
  -23.5570  -32.0590   23.6880 O   0  0  0  0  0  0  0  0  0  0  0  0
  -22.8570  -29.3590   22.4330 C   0  0  0  0  0  0  0  0  0  0  0  0
  -21.5380  -29.1700   22.2730 N   0  0  0  0  0  0  0  0  0  0  0  0
  -23.5240  -28.7300   23.2590 O   0  0  0  0  0  0  0  0  0  0  0  0
  -21.0600  -29.7310   21.5810 H   0  0  0  0  0  0  0  0  0  0  0  0
  -18.1540  -27.9700   22.7030 C   0  0  0  0  0  0  0  0  0  0  0  0
  -20.7080  -28.2190   23.0150 C   0  0  0  0  0  3  0  0  0  0  0  0
  -20.8170  -26.8000   22.4130 C   0  0  0  0  0  2  0  0  0  0  0  0
  -19.7290  -26.4970   21.3770 C   0  0  0  0  0  2  0  0  0  0  0  0
  -18.3380  -26.6330   22.0050 C   0  0  0  0  0  2  0  0  0  0  0  0
  -19.2680  -28.7220   23.1620 C   0  0  0  0  0  0  0  0  0  0  0  0
  -19.0420  -29.9740   23.7740 C   0  0  0  0  0  3  0  0  0  0  0  0
  -17.7370  -30.4750   23.9310 C   0  0  0  0  0  3  0  0  0  0  0  0
  -16.6370  -29.7190   23.4880 C   0  0  0  0  0  3  0  0  0  0  0  0
  -16.8470  -28.4690   22.8800 C   0  0  0  0  0  3  0  0  0  0  0  0
  -25.9140  -32.4510   23.8470 C   0  0  0  0  0  3  0  0  0  0  0  0
  -26.4010  -31.6830   25.1380 C   0  0  1  0  0  0  0  0  0  0  0  0
  -25.2780  -31.4260   26.1680 C   0  0  0  0  0  1  0  0  0  0  0  0
  -27.0180  -30.3160   24.7610 C   0  0  0  0  0  1  0  0  0  0  0  0
  -27.5170  -32.4940   25.8390 C   0  0  0  0  0  1  0  0  0  0  0  0
  -25.5750  -33.8440   24.1690 N   0  0  0  0  0  0  0  0  0  0  0  0
  -25.9110  -34.9020   23.4180 C   0  0  0  0  0  0  0  0  0  0  0  0
  -26.6090  -34.8080   22.4040 O   0  0  0  0  0  0  0  0  0  0  0  0
  -24.9580  -33.9900   24.9550 H   0  0  0  0  0  0  0  0  0  0  0  0
  -24.1700  -36.6700   23.0130 C   0  0  0  0  0  1  0  0  0  0  0  0
  -25.3910  -36.2820   23.8620 C   0  0  0  0  0  3  0  0  0  0  0  0
  -27.4840  -37.2000   24.7620 C   0  0  0  0  0  1  0  0  0  0  0  0
  -26.4120  -37.3500   23.7810 N   0  0  0  0  0  0  0  0  0  0  0  0
  -25.9880  -38.2650   23.9110 H   0  0  0  0  0  0  0  0  0  0  0  0
  1  4  1  0
  2  1  1  0
  2  5  1  0
  3  6  1  0
  4  9  1  0
  4  6  1  0
  5 50  1  0
  5  3  1  0
  6  7  1  0
  6  8  1  0
  9 10  2  0
 11 20  1  0
 11  9  1  0
 12 20  1  0
 13 18  1  0
 14 15  1  0
 14 13  1  0
 16 15  1  0
 16 25  1  0
 16 17  1  0
 18 12  1  0
 18 17  1  0
 19 12  2  0
 20 21  1  0
 22 23  2  0
 23 42  1  0
 24 23  1  0
 24 27  1  0
 25 26  1  0
 25 22  1  0
 26 24  2  0
 27 28  1  0
 28 29  2  0
 30 33  1  0
 30 29  1  0
 31 30  2  0
 32 31  1  0
 32 27  2  0
 33 34  1  0
 34 35  1  0
 35 36  2  0
 37 36  1  0
 37 41  1  0
 38 37  2  0
 39 34  2  0
 39 38  1  0
 40 39  1  0
 42 43  1  0
 43 46  1  0
 43 45  1  0
 44 42  2  0
 47 22  1  0
 47 48  1  0
 49 47  1  0
 50 51  2  0
 52 51  1  0
 53 64  2  0
 54 52  1  0
 54 59  1  0
 55 63  1  0
 55 65  1  0
 56 62  1  0
 56 58  1  0
 57 63  1  0
 58 59  2  0
 58 57  1  0
 60 54  2  0
 61 60  1  0
 61 56  2  0
 62 55  1  0
 63 53  1  0
 65 67  2  0
 66 65  1  0
 68 66  1  0
 69 78  2  0
 69 74  1  0
 70 66  1  0
 70 74  1  0
 71 70  1  0
 72 73  1  0
 72 71  1  0
 73 69  1  0
 74 75  2  0
 75 76  1  0
 77 76  2  0
 78 77  1  0
 79 53  1  0
 79 84  1  0
 79 80  1  0
 80 83  1  1
 80 81  1  0
 82 80  1  0
 84 87  1  0
 85 89  1  0
 85 84  1  0
 86 85  2  0
 89 88  1  0
 91 89  1  0
 91 92  1  0
 91 90  1  0
M  ISO  4  12 100  20 100  51 101  52 101
M  END
>  <TORSDO>  (71) 
F 20

>  <SCORE>  (71) 
-13.378

>  <name>  (71) 
70

>  <ligand_id>  (71) 
70

>  <original_smiles>  (71) 
[H]c1c([H])c([H])c2c(c1[H])C([H])([H])C([H])([H])C([H])([H])C2([H])N([H])C(=O)C1([H])N(C(=O)C([H])(N([H])C(=O)C([H])(N([H])C([H])([H])[H])C([H])([H])[H])C(C([H])([H])[H])(C([H])([H])[H])C([H])([H])[H])C([H])([H])c2c([H])c(OC([H])([H])C([H])([H])C3([H])C([H])([H])C([H])([H])C([H])(C(=O)C([H])([H])N([H])C(=O)N4C([H])([H])C([H])([H])C([H])([H])C([H])(n5nc(-c6c([H])c([H])c(Oc7c([H])c([H])c(F)c([H])c7F)c([H])c6[H])c(C(=O)N([H])[H])c5N([H])[H])C4([H])[H])[N+]([H])([H])C3([H])[H])c([H])c([H])c2C1([H])[H]

>  <smiles>  (71) 
[H]c1c([H])c([H])c2c(c1[H])C([H])([H])C([H])([H])C([H])([H])C2([H])N([H])C(=O)C1([H])N(C(=O)C([H])(N([H])C(=O)C([H])(N([H])C([H])([H])[H])C([H])([H])[H])C(C([H])([H])[H])(C([H])([H])[H])C([H])([H])[H])C([H])([H])c2c([H])c(OC([H])([H])C([H])([H])C3([H])C([H])([H])C([H])([H])C([H])(C(=O)C([H])([H])N([H])C(=O)N4C([H])([H])C([H])([H])C([H])([H])C([H])(n5nc(-c6c([H])c([H])c(Oc7c([H])c([H])c(F)c([H])c7F)c([H])c6[H])c(C(=O)N([H])[H])c5N([H])[H])C4([H])[H])[N+]([H])([H])C3([H])[H])c([H])c([H])c2C1([H])[H]

$$$$
71:0:0
     RDKit          3D

 88 95  0  0  1  0  0  0  0  0999 V2000
  -30.2510  -23.7670   21.1020 C   0  0  0  0  0  1  0  0  0  0  0  0
  -29.1820  -23.5830   20.0160 C   0  0  0  0  0  3  0  0  0  0  0  0
  -28.1190  -24.8770   20.1060 C   0  0  0  0  0  2  0  0  0  0  0  0
  -28.4320  -26.3990   20.0830 O   0  0  0  0  0  0  0  0  0  0  0  0
  -24.7530  -31.8810   23.3350 C   0  0  0  0  0  0  0  0  0  0  0  0
  -27.3740  -27.3730   20.0710 C   0  0  0  0  0  0  0  0  0  0  0  0
  -23.5770  -30.5910   21.5940 C   0  0  0  0  0  3  0  0  0  0  0  0
  -25.0490  -29.1120   20.0970 C   0  0  0  0  0  0  0  0  0  0  0  0
  -26.1310  -30.8670   21.4840 C   0  0  0  0  0  2  0  0  0  0  0  0
  -26.2150  -29.5200   20.7540 C   0  0  0  0  0  0  0  0  0  0  0  0
  -27.3810  -28.6700   20.7230 C   0  0  0  0  0  3  0  0  0  0  0  0
  -26.1860  -27.0680   19.3720 C   0  0  0  0  0  3  0  0  0  0  0  0
  -25.0510  -27.9030   19.3830 C   0  0  0  0  0  3  0  0  0  0  0  0
  -23.8190  -30.0040   20.1780 C   0  0  0  0  0  2  0  0  0  0  0  0
  -24.8390  -31.1300   22.1950 N   0  0  0  0  0  0  0  0  0  0  0  0
  -23.6600  -32.1330   23.8630 O   0  0  0  0  0  0  0  0  0  0  0  0
  -22.8850  -29.5240   22.4790 C   0  0  0  0  0  0  0  0  0  0  0  0
  -21.5570  -29.3660   22.3250 N   0  0  0  0  0  0  0  0  0  0  0  0
  -23.5460  -28.8450   23.2680 O   0  0  0  0  0  0  0  0  0  0  0  0
  -21.0820  -29.9650   21.6650 H   0  0  0  0  0  0  0  0  0  0  0  0
  -18.1590  -28.1970   22.7560 C   0  0  0  0  0  0  0  0  0  0  0  0
  -20.7230  -28.3910   23.0370 C   0  0  0  0  0  3  0  0  0  0  0  0
  -20.7910  -26.9980   22.3680 C   0  0  0  0  0  2  0  0  0  0  0  0
  -19.6900  -26.7740   21.3280 C   0  0  0  0  0  2  0  0  0  0  0  0
  -18.3090  -26.9020   21.9750 C   0  0  0  0  0  2  0  0  0  0  0  0
  -19.2920  -28.9040   23.2390 C   0  0  0  0  0  0  0  0  0  0  0  0
  -19.0960  -30.1170   23.9310 C   0  0  0  0  0  3  0  0  0  0  0  0
  -17.8000  -30.6190   24.1530 C   0  0  0  0  0  3  0  0  0  0  0  0
  -16.6810  -29.9070   23.6870 C   0  0  0  0  0  3  0  0  0  0  0  0
  -16.8600  -28.7010   22.9860 C   0  0  0  0  0  3  0  0  0  0  0  0
  -26.0220  -32.4760   24.0150 C   0  0  0  0  0  3  0  0  0  0  0  0
  -26.4830  -31.6600   25.2860 C   0  0  1  0  0  0  0  0  0  0  0  0
  -25.3530  -31.4070   26.3110 C   0  0  0  0  0  1  0  0  0  0  0  0
  -27.0560  -30.2830   24.8760 C   0  0  0  0  0  1  0  0  0  0  0  0
  -27.6190  -32.4190   26.0120 C   0  0  0  0  0  1  0  0  0  0  0  0
  -25.7190  -33.8690   24.3820 N   0  0  0  0  0  0  0  0  0  0  0  0
  -26.0580  -34.9430   23.6570 C   0  0  0  0  0  0  0  0  0  0  0  0
  -26.7280  -34.8670   22.6240 O   0  0  0  0  0  0  0  0  0  0  0  0
  -25.1270  -34.0030   25.1880 H   0  0  0  0  0  0  0  0  0  0  0  0
  -24.3300  -36.7520   23.3750 C   0  0  0  0  0  1  0  0  0  0  0  0
  -25.5820  -36.3230   24.1550 C   0  0  0  0  0  3  0  0  0  0  0  0
  -27.7270  -37.1910   24.9780 C   0  0  0  0  0  1  0  0  0  0  0  0
  -26.6140  -37.3780   24.0510 N   0  0  0  0  0  0  0  0  0  0  0  0
  -26.2110  -38.2960   24.2230 H   0  0  0  0  0  0  0  0  0  0  0  0
  -28.6890  -21.9700   19.9890 C   0  0  0  0  0  3  0  0  0  0  0  0
  -26.3120  -22.1240   19.0140 C   0  0  0  0  0  1  0  0  0  0  0  0
  -27.7830  -21.7630   18.7530 C   0  0  0  0  0  2  0  0  0  0  0  0
  -29.7400  -20.6670   20.1190 C   0  0  0  0  0  2  0  0  0  0  0  0
  -29.3250  -19.0430   20.2360 C   0  0  0  0  0  3  0  0  0  0  0  0
  -30.4280  -17.7880   20.2790 C   0  0  0  0  0  3  0  0  0  0  0  0
  -30.8380  -15.1150   20.3240 C   0  0  0  0  0  0  0  0  0  0  0  0
  -30.7360  -12.7540   19.4430 C   0  0  0  0  0  2  0  0  0  0  0  0
  -29.8280  -12.6960   18.1930 C   0  0  0  0  0  2  0  0  0  0  0  0
  -28.3530  -12.5000   18.5970 C   0  0  0  0  0  2  0  0  0  0  0  0
  -27.9210  -13.4530   19.7410 C   0  0  0  0  0  3  0  0  0  0  0  0
  -28.9520  -13.4870   20.8900 C   0  0  0  0  0  2  0  0  0  0  0  0
  -30.2430  -13.8610   20.3060 N   0  0  0  0  0  0  0  0  0  0  0  0
  -32.0320  -15.1970   20.0190 O   0  0  0  0  0  0  0  0  0  0  0  0
  -30.0580  -16.2800   20.4780 N   0  0  0  0  0  0  0  0  0  0  0  0
  -29.0950  -16.1000   20.7200 H   0  0  0  0  0  0  0  0  0  0  0  0
  -25.5310  -14.0400   20.4490 C   0  0  0  0  0  0  0  0  0  0  0  0
  -24.4610  -13.2690   20.8060 C   0  0  0  0  0  0  0  0  0  0  0  0
  -24.9220  -11.9160   20.7760 C   0  0  0  0  0  0  0  0  0  0  0  0
  -26.5760  -13.1590   20.2190 N   0  0  0  0  0  0  0  0  0  0  0  0
  -26.2160  -11.8750   20.4810 N   0  0  0  0  0  0  0  0  0  0  0  0
  -24.1870  -10.6550   20.9510 C   0  0  0  0  0  0  0  0  0  0  0  0
  -24.5660   -9.7080   21.9280 C   0  0  0  0  0  3  0  0  0  0  0  0
  -23.8290   -8.5140   22.0920 C   0  0  0  0  0  3  0  0  0  0  0  0
  -22.7010   -8.2590   21.2790 C   0  0  0  0  0  0  0  0  0  0  0  0
  -22.3420   -9.1940   20.2930 C   0  0  0  0  0  3  0  0  0  0  0  0
  -23.0800  -10.3780   20.1260 C   0  0  0  0  0  3  0  0  0  0  0  0
  -21.9400   -7.1170   21.3490 O   0  0  0  0  0  0  0  0  0  0  0  0
  -21.7790   -6.4310   22.5270 C   0  0  0  0  0  0  0  0  0  0  0  0
  -21.2230   -7.0390   23.6730 C   0  0  0  0  0  3  0  0  0  0  0  0
  -21.0090   -6.2770   24.8390 C   0  0  0  0  0  3  0  0  0  0  0  0
  -21.3450   -4.9110   24.8610 C   0  0  0  0  0  0  0  0  0  0  0  0
  -21.8950   -4.3030   23.7180 C   0  0  0  0  0  3  0  0  0  0  0  0
  -22.1090   -5.0610   22.5540 C   0  0  0  0  0  0  0  0  0  0  0  0
  -22.6190   -4.4640   21.4500 F   0  0  0  0  0  0  0  0  0  0  0  0
  -21.1340   -4.1780   25.9800 F   0  0  0  0  0  0  0  0  0  0  0  0
  -23.0610  -13.7480   21.0600 C   0  0  0  0  0  0  0  0  0  0  0  0
  -22.3220  -13.0550   21.9170 N   0  0  0  0  0  0  0  0  0  0  0  0
  -22.6340  -14.7760   20.5320 O   0  0  0  0  0  0  0  0  0  0  0  0
  -22.6820  -12.2240   22.3620 H   0  0  0  0  0  0  0  0  0  0  0  0
  -21.3830  -13.3580   22.1310 H   0  0  0  0  0  0  0  0  0  0  0  0
  -25.7010  -15.4110   20.2780 N   0  0  0  0  0  0  0  0  0  0  0  0
  -24.9360  -16.0700   20.3830 H   0  0  0  0  0  0  0  0  0  0  0  0
  -26.5500  -15.8470   19.9410 H   0  0  0  0  0  0  0  0  0  0  0  0
  2  3  1  0
  2  1  1  0
  4  3  1  0
  5 16  2  0
  6  4  1  0
  6 11  1  0
  7 15  1  0
  7 17  1  0
  8 14  1  0
  8 10  1  0
  9 15  1  0
 10  9  1  0
 11 10  2  0
 12 13  1  0
 12  6  2  0
 13  8  2  0
 14  7  1  0
 15  5  1  0
 17 19  2  0
 18 17  1  0
 20 18  1  0
 21 30  2  0
 21 26  1  0
 22 18  1  0
 22 26  1  0
 23 22  1  0
 24 25  1  0
 24 23  1  0
 25 21  1  0
 26 27  2  0
 27 28  1  0
 29 28  2  0
 30 29  1  0
 31  5  1  0
 31 36  1  0
 31 32  1  0
 32 35  1  1
 32 33  1  0
 34 32  1  0
 36 39  1  0
 37 41  1  0
 37 36  1  0
 38 37  2  0
 41 40  1  0
 43 41  1  0
 43 44  1  0
 43 42  1  0
 45 47  1  0
 45  2  1  0
 45 48  1  0
 47 46  1  0
 48 49  1  0
 49 50  2  0
 50 59  1  0
 51 59  1  0
 52 57  1  0
 53 54  1  0
 53 52  1  0
 55 54  1  0
 55 64  1  0
 55 56  1  0
 57 51  1  0
 57 56  1  0
 58 51  2  0
 59 60  1  0
 61 62  2  0
 62 81  1  0
 63 62  1  0
 63 66  1  0
 64 61  1  0
 64 65  1  0
 65 63  2  0
 66 67  1  0
 67 68  2  0
 69 72  1  0
 69 68  1  0
 70 69  2  0
 71 70  1  0
 71 66  2  0
 72 73  1  0
 73 78  2  0
 73 74  1  0
 74 75  2  0
 75 76  1  0
 76 80  1  0
 77 76  2  0
 78 77  1  0
 79 78  1  0
 81 82  1  0
 82 85  1  0
 82 84  1  0
 83 81  2  0
 86 87  1  0
 86 61  1  0
 88 86  1  0
M  ISO  4   3 101   4 101  51 100  59 100
M  END
>  <TORSDO>  (72) 
F 22

>  <SCORE>  (72) 
-12.670

>  <name>  (72) 
71

>  <ligand_id>  (72) 
71

>  <original_smiles>  (72) 
[H]c1c([H])c([H])c2c(c1[H])C([H])([H])C([H])([H])C([H])([H])C2([H])N([H])C(=O)C1([H])N(C(=O)C([H])(N([H])C(=O)C([H])(N([H])C([H])([H])[H])C([H])([H])[H])C(C([H])([H])[H])(C([H])([H])[H])C([H])([H])[H])C([H])([H])c2c([H])c(OC([H])([H])C([H])(C([H])([H])[H])C([H])(C([H])([H])C([H])([H])[H])C([H])([H])C([H])([H])C([H])([H])N([H])C(=O)N3C([H])([H])C([H])([H])C([H])([H])C([H])(n4nc(-c5c([H])c([H])c(Oc6c([H])c([H])c(F)c([H])c6F)c([H])c5[H])c(C(=O)N([H])[H])c4N([H])[H])C3([H])[H])c([H])c([H])c2C1([H])[H]

>  <smiles>  (72) 
[H]c1c([H])c([H])c2c(c1[H])C([H])([H])C([H])([H])C([H])([H])C2([H])N([H])C(=O)C1([H])N(C(=O)C([H])(N([H])C(=O)C([H])(N([H])C([H])([H])[H])C([H])([H])[H])C(C([H])([H])[H])(C([H])([H])[H])C([H])([H])[H])C([H])([H])c2c([H])c(OC([H])([H])C([H])(C([H])([H])[H])C([H])(C([H])([H])C([H])([H])[H])C([H])([H])C([H])([H])C([H])([H])N([H])C(=O)N3C([H])([H])C([H])([H])C([H])([H])C([H])(n4nc(-c5c([H])c([H])c(Oc6c([H])c([H])c(F)c([H])c6F)c([H])c5[H])c(C(=O)N([H])[H])c4N([H])[H])C3([H])[H])c([H])c([H])c2C1([H])[H]

$$$$
72:0:0
     RDKit          3D

 93101  0  0  1  0  0  0  0  0999 V2000
  -28.8500  -22.5420   19.8610 C   0  0  0  0  0  2  0  0  0  0  0  0
  -29.2440  -24.0640   19.7160 C   0  0  0  0  0  3  0  0  0  0  0  0
  -30.1440  -21.7510   20.2850 C   0  0  0  0  0  3  0  0  0  0  0  0
  -30.2520  -24.1460   20.8710 C   0  0  0  0  0  3  0  0  0  0  0  0
  -30.9580  -22.8300   20.9060 N   0  0  0  0  0  4  0  0  0  0  0  0
  -31.8230  -22.8980   20.3940 H   0  0  0  0  0  0  0  0  0  0  0  0
  -31.1780  -22.5740   21.8580 H   0  0  0  0  0  0  0  0  0  0  0  0
  -31.0900  -26.3350   21.9300 C   0  0  0  0  0  1  0  0  0  0  0  0
  -31.2290  -25.3420   20.7690 C   0  0  0  0  0  2  0  0  0  0  0  0
  -28.0550  -25.1300   19.7140 C   0  0  0  0  0  2  0  0  0  0  0  0
  -28.2680  -26.6030   19.6600 O   0  0  0  0  0  0  0  0  0  0  0  0
  -24.4990  -31.7450   23.0860 C   0  0  0  0  0  0  0  0  0  0  0  0
  -27.1230  -27.4240   19.6990 C   0  0  0  0  0  0  0  0  0  0  0  0
  -23.2730  -30.3900   21.4280 C   0  0  0  0  0  3  0  0  0  0  0  0
  -24.7100  -28.9660   19.8690 C   0  0  0  0  0  0  0  0  0  0  0  0
  -25.7950  -30.7980   21.1620 C   0  0  0  0  0  2  0  0  0  0  0  0
  -25.8910  -29.4580   20.4400 C   0  0  0  0  0  0  0  0  0  0  0  0
  -27.0990  -28.7010   20.3450 C   0  0  0  0  0  3  0  0  0  0  0  0
  -25.9100  -26.9910   19.1100 C   0  0  0  0  0  3  0  0  0  0  0  0
  -24.7230  -27.7380   19.1970 C   0  0  0  0  0  3  0  0  0  0  0  0
  -23.4520  -29.7970   20.0070 C   0  0  0  0  0  2  0  0  0  0  0  0
  -24.5430  -30.9920   21.9480 N   0  0  0  0  0  0  0  0  0  0  0  0
  -23.4300  -31.9600   23.6750 O   0  0  0  0  0  0  0  0  0  0  0  0
  -22.6830  -29.3030   22.3580 C   0  0  0  0  0  0  0  0  0  0  0  0
  -21.3640  -29.0690   22.2550 N   0  0  0  0  0  0  0  0  0  0  0  0
  -23.4100  -28.6780   23.1350 O   0  0  0  0  0  0  0  0  0  0  0  0
  -20.8330  -29.6270   21.6020 H   0  0  0  0  0  0  0  0  0  0  0  0
  -18.0740  -27.6340   22.7170 C   0  0  0  0  0  0  0  0  0  0  0  0
  -20.6080  -28.0660   23.0090 C   0  0  0  0  0  3  0  0  0  0  0  0
  -20.8130  -26.6540   22.4140 C   0  0  0  0  0  2  0  0  0  0  0  0
  -19.7410  -26.2690   21.3890 C   0  0  0  0  0  2  0  0  0  0  0  0
  -18.3480  -26.3100   22.0240 C   0  0  0  0  0  2  0  0  0  0  0  0
  -19.1360  -28.4660   23.1650 C   0  0  0  0  0  0  0  0  0  0  0  0
  -18.8260  -29.7020   23.7730 C   0  0  0  0  0  3  0  0  0  0  0  0
  -17.4890  -30.1090   23.9370 C   0  0  0  0  0  3  0  0  0  0  0  0
  -16.4420  -29.2760   23.5050 C   0  0  0  0  0  3  0  0  0  0  0  0
  -16.7360  -28.0400   22.9000 C   0  0  0  0  0  3  0  0  0  0  0  0
  -25.7860  -32.3880   23.6870 C   0  0  0  0  0  3  0  0  0  0  0  0
  -25.4550  -33.7690   24.0680 N   0  0  0  0  0  0  0  0  0  0  0  0
  -25.8280  -34.8560   23.3820 C   0  0  0  0  0  0  0  0  0  0  0  0
  -26.5570  -34.8040   22.3870 O   0  0  0  0  0  0  0  0  0  0  0  0
  -24.8110  -33.8840   24.8360 H   0  0  0  0  0  0  0  0  0  0  0  0
  -24.1400  -36.6830   22.9990 C   0  0  0  0  0  1  0  0  0  0  0  0
  -25.3140  -36.2220   23.8780 C   0  0  0  0  0  3  0  0  0  0  0  0
  -27.3820  -37.0420   24.9180 C   0  0  0  0  0  1  0  0  0  0  0  0
  -26.3570  -37.2710   23.9040 N   0  0  0  0  0  0  0  0  0  0  0  0
  -25.9440  -38.1850   24.0710 H   0  0  0  0  0  0  0  0  0  0  0  0
  -26.3570  -31.5910   24.9240 C   0  0  1  0  0  0  0  0  0  0  0  0
  -25.3060  -31.3100   26.0220 C   0  0  0  0  0  1  0  0  0  0  0  0
  -26.9450  -30.2310   24.4790 C   0  0  0  0  0  1  0  0  0  0  0  0
  -27.5180  -32.3860   25.5670 C   0  0  0  0  0  1  0  0  0  0  0  0
  -30.0230  -20.4240   21.2110 C   0  0  0  0  0  3  0  0  0  0  0  0
  -31.1930  -21.2010   23.4230 C   0  0  0  0  0  1  0  0  0  0  0  0
  -31.1920  -20.2380   22.2190 C   0  0  0  0  0  2  0  0  0  0  0  0
  -29.6180  -19.0050   20.5670 C   0  0  0  0  0  2  0  0  0  0  0  0
  -30.6020  -17.7300   20.4620 C   0  0  0  0  0  3  0  0  0  0  0  0
  -30.1080  -16.2830   20.9560 C   0  0  0  0  0  3  0  0  0  0  0  0
  -30.8960  -14.9760   20.4950 C   0  0  0  0  0  0  0  0  0  0  0  0
  -30.6910  -12.7560   19.3720 C   0  0  0  0  0  2  0  0  0  0  0  0
  -29.7760  -12.9090   18.1350 C   0  0  0  0  0  2  0  0  0  0  0  0
  -28.2920  -12.7440   18.5250 C   0  0  0  0  0  2  0  0  0  0  0  0
  -27.9080  -13.5870   19.7700 C   0  0  0  0  0  3  0  0  0  0  0  0
  -28.9430  -13.4250   20.9050 C   0  0  0  0  0  2  0  0  0  0  0  0
  -30.2680  -13.7600   20.3700 N   0  0  0  0  0  0  0  0  0  0  0  0
  -32.0650  -15.1060   20.1200 O   0  0  0  0  0  0  0  0  0  0  0  0
  -25.5040  -14.1860   20.4430 C   0  0  0  0  0  0  0  0  0  0  0  0
  -24.4240  -13.4140   20.7760 C   0  0  0  0  0  0  0  0  0  0  0  0
  -24.8810  -12.0610   20.7400 C   0  0  0  0  0  0  0  0  0  0  0  0
  -26.5490  -13.3030   20.2230 N   0  0  0  0  0  0  0  0  0  0  0  0
  -26.1780  -12.0190   20.4630 N   0  0  0  0  0  0  0  0  0  0  0  0
  -24.1450  -10.8010   20.8980 C   0  0  0  0  0  0  0  0  0  0  0  0
  -24.5370   -9.8300   21.8450 C   0  0  0  0  0  3  0  0  0  0  0  0
  -23.8040   -8.6330   21.9910 C   0  0  0  0  0  3  0  0  0  0  0  0
  -22.6620   -8.3990   21.1880 C   0  0  0  0  0  0  0  0  0  0  0  0
  -22.2870   -9.3600   20.2320 C   0  0  0  0  0  3  0  0  0  0  0  0
  -23.0210  -10.5480   20.0850 C   0  0  0  0  0  3  0  0  0  0  0  0
  -21.9010   -7.2560   21.2420 O   0  0  0  0  0  0  0  0  0  0  0  0
  -21.7640   -6.5360   22.4030 C   0  0  0  0  0  0  0  0  0  0  0  0
  -21.2390   -7.1130   23.5800 C   0  0  0  0  0  3  0  0  0  0  0  0
  -21.0500   -6.3200   24.7290 C   0  0  0  0  0  3  0  0  0  0  0  0
  -21.3780   -4.9500   24.7000 C   0  0  0  0  0  0  0  0  0  0  0  0
  -21.8980   -4.3750   23.5290 C   0  0  0  0  0  3  0  0  0  0  0  0
  -22.0880   -5.1660   22.3810 C   0  0  0  0  0  0  0  0  0  0  0  0
  -22.5680   -4.6000   21.2490 F   0  0  0  0  0  0  0  0  0  0  0  0
  -21.1910   -4.1850   25.8020 F   0  0  0  0  0  0  0  0  0  0  0  0
  -23.0230  -13.8960   21.0160 C   0  0  0  0  0  0  0  0  0  0  0  0
  -22.2770  -13.2070   21.8730 N   0  0  0  0  0  0  0  0  0  0  0  0
  -22.5950  -14.9180   20.4810 O   0  0  0  0  0  0  0  0  0  0  0  0
  -22.6330  -12.3810   22.3310 H   0  0  0  0  0  0  0  0  0  0  0  0
  -21.3350  -13.5110   22.0730 H   0  0  0  0  0  0  0  0  0  0  0  0
  -25.6800  -15.5580   20.2880 N   0  0  0  0  0  0  0  0  0  0  0  0
  -24.9180  -16.2180   20.3950 H   0  0  0  0  0  0  0  0  0  0  0  0
  -26.5440  -15.9960   19.9930 H   0  0  0  0  0  0  0  0  0  0  0  0
  1  3  1  0
  2 10  1  0
  2  1  1  0
  2  4  1  0
  3  5  1  0
  3 52  1  0
  4  9  1  0
  4  5  1  0
  5  7  1  0
  6  5  1  0
  9  8  1  0
 11 13  1  0
 11 10  1  0
 12 23  2  0
 13 18  1  0
 14 22  1  0
 14 24  1  0
 15 21  1  0
 15 17  1  0
 16 22  1  0
 17 16  1  0
 18 17  2  0
 19 20  1  0
 19 13  2  0
 20 15  2  0
 21 14  1  0
 22 12  1  0
 24 26  2  0
 25 24  1  0
 27 25  1  0
 28 37  2  0
 28 33  1  0
 29 25  1  0
 29 33  1  0
 30 29  1  0
 31 32  1  0
 31 30  1  0
 32 28  1  0
 33 34  2  0
 34 35  1  0
 36 35  2  0
 37 36  1  0
 38 12  1  0
 38 39  1  0
 38 48  1  0
 39 42  1  0
 40 44  1  0
 40 39  1  0
 41 40  2  0
 44 43  1  0
 44 46  1  0
 46 47  1  0
 46 45  1  0
 48 51  1  1
 48 49  1  0
 50 48  1  0
 52 55  1  0
 52 54  1  0
 54 53  1  0
 56 55  1  0
 56 57  2  0
 58 57  1  0
 59 64  1  0
 60 61  1  0
 60 59  1  0
 62 61  1  0
 62 69  1  0
 62 63  1  0
 64 58  1  0
 64 63  1  0
 65 58  2  0
 66 67  2  0
 67 86  1  0
 68 67  1  0
 68 71  1  0
 69 66  1  0
 69 70  1  0
 70 68  2  0
 71 72  1  0
 72 73  2  0
 74 77  1  0
 74 73  1  0
 75 74  2  0
 76 75  1  0
 76 71  2  0
 77 78  1  0
 78 79  1  0
 79 80  2  0
 81 80  1  0
 81 85  1  0
 82 81  2  0
 83 78  2  0
 83 82  1  0
 84 83  1  0
 86 87  1  0
 87 90  1  0
 87 89  1  0
 88 86  2  0
 91 92  1  0
 91 66  1  0
 93 91  1  0
M  ISO  4  10 101  11 101  57 100  58 100
M  END
>  <TORSDO>  (73) 
F 23

>  <SCORE>  (73) 
-12.642

>  <name>  (73) 
72

>  <ligand_id>  (73) 
72

>  <original_smiles>  (73) 
[H]c1c([H])c([H])c2c(c1[H])C([H])([H])C([H])([H])C([H])([H])C2([H])N([H])C(=O)C1([H])N(C(=O)C([H])(N([H])C(=O)C([H])(N([H])C([H])([H])[H])C([H])([H])[H])C(C([H])([H])[H])(C([H])([H])[H])C([H])([H])[H])C([H])([H])c2c([H])c(OC([H])([H])C3([H])C([H])([H])C([H])(C([H])(C([H])([H])C([H])([H])[H])C([H])([H])C([H])([H])C([H])([H])C(=O)N4C([H])([H])C([H])([H])C([H])([H])C([H])(n5nc(-c6c([H])c([H])c(Oc7c([H])c([H])c(F)c([H])c7F)c([H])c6[H])c(C(=O)N([H])[H])c5N([H])[H])C4([H])[H])[N+]([H])([H])C3([H])C([H])([H])C([H])([H])[H])c([H])c([H])c2C1([H])[H]

>  <smiles>  (73) 
[H]c1c([H])c([H])c2c(c1[H])C([H])([H])C([H])([H])C([H])([H])C2([H])N([H])C(=O)C1([H])N(C(=O)C([H])(N([H])C(=O)C([H])(N([H])C([H])([H])[H])C([H])([H])[H])C(C([H])([H])[H])(C([H])([H])[H])C([H])([H])[H])C([H])([H])c2c([H])c(OC([H])([H])C3([H])C([H])([H])C([H])(C([H])(C([H])([H])C([H])([H])[H])C([H])([H])C([H])([H])C([H])([H])C(=O)N4C([H])([H])C([H])([H])C([H])([H])C([H])(n5nc(-c6c([H])c([H])c(Oc7c([H])c([H])c(F)c([H])c7F)c([H])c6[H])c(C(=O)N([H])[H])c5N([H])[H])C4([H])[H])[N+]([H])([H])C3([H])C([H])([H])C([H])([H])[H])c([H])c([H])c2C1([H])[H]

$$$$
73:0:0
     RDKit          3D

 89 96  0  0  1  0  0  0  0  0999 V2000
  -29.0120  -22.4660   19.8200 C   0  0  0  0  0  3  0  0  0  0  0  0
  -31.3350  -22.6740   18.6590 C   0  0  0  0  0  1  0  0  0  0  0  0
  -29.8160  -22.4970   18.4960 C   0  0  0  0  0  2  0  0  0  0  0  0
  -29.0020  -23.9140   20.4760 C   0  0  0  0  0  0  0  0  0  0  0  0
  -29.7190  -24.1650   21.4500 O   0  0  0  0  0  0  0  0  0  0  0  0
  -28.0520  -25.0190   19.8690 C   0  0  0  0  0  2  0  0  0  0  0  0
  -28.2900  -26.4410   20.2270 O   0  0  0  0  0  0  0  0  0  0  0  0
  -24.6030  -31.8700   23.2340 C   0  0  0  0  0  0  0  0  0  0  0  0
  -27.1850  -27.3100   20.1560 C   0  0  0  0  0  0  0  0  0  0  0  0
  -23.3880  -30.4790   21.5960 C   0  0  0  0  0  3  0  0  0  0  0  0
  -24.8280  -28.9350   20.1570 C   0  0  0  0  0  0  0  0  0  0  0  0
  -25.9290  -30.7890   21.4070 C   0  0  0  0  0  2  0  0  0  0  0  0
  -26.0010  -29.4130   20.7550 C   0  0  0  0  0  0  0  0  0  0  0  0
  -27.1820  -28.6100   20.7500 C   0  0  0  0  0  3  0  0  0  0  0  0
  -25.9900  -26.8980   19.5160 C   0  0  0  0  0  3  0  0  0  0  0  0
  -24.8250  -27.6830   19.5300 C   0  0  0  0  0  3  0  0  0  0  0  0
  -23.5950  -29.8110   20.2130 C   0  0  0  0  0  2  0  0  0  0  0  0
  -24.6590  -31.0630   22.1350 N   0  0  0  0  0  0  0  0  0  0  0  0
  -23.5220  -32.1500   23.7730 O   0  0  0  0  0  0  0  0  0  0  0  0
  -22.7280  -29.4590   22.5550 C   0  0  0  0  0  0  0  0  0  0  0  0
  -21.4010  -29.2850   22.4310 N   0  0  0  0  0  0  0  0  0  0  0  0
  -23.4070  -28.8290   23.3690 O   0  0  0  0  0  0  0  0  0  0  0  0
  -20.9130  -29.8450   21.7450 H   0  0  0  0  0  0  0  0  0  0  0  0
  -18.0210  -28.1010   22.9380 C   0  0  0  0  0  0  0  0  0  0  0  0
  -20.5810  -28.3510   23.2030 C   0  0  0  0  0  3  0  0  0  0  0  0
  -20.6760  -26.9190   22.6270 C   0  0  0  0  0  2  0  0  0  0  0  0
  -19.5710  -26.6000   21.6150 C   0  0  0  0  0  2  0  0  0  0  0  0
  -18.1910  -26.7500   22.2620 C   0  0  0  0  0  2  0  0  0  0  0  0
  -19.1430  -28.8590   23.3650 C   0  0  0  0  0  0  0  0  0  0  0  0
  -18.9290  -30.1220   23.9570 C   0  0  0  0  0  3  0  0  0  0  0  0
  -17.6270  -30.6290   24.1260 C   0  0  0  0  0  3  0  0  0  0  0  0
  -16.5190  -29.8670   23.7140 C   0  0  0  0  0  3  0  0  0  0  0  0
  -16.7170  -28.6060   23.1260 C   0  0  0  0  0  3  0  0  0  0  0  0
  -25.8890  -32.4970   23.8520 C   0  0  0  0  0  3  0  0  0  0  0  0
  -25.5840  -33.8950   24.1870 N   0  0  0  0  0  0  0  0  0  0  0  0
  -25.9130  -34.9490   23.4280 C   0  0  0  0  0  0  0  0  0  0  0  0
  -26.5750  -34.8460   22.3910 O   0  0  0  0  0  0  0  0  0  0  0  0
  -24.9950  -34.0490   24.9920 H   0  0  0  0  0  0  0  0  0  0  0  0
  -24.1830  -36.7450   23.0930 C   0  0  0  0  0  1  0  0  0  0  0  0
  -25.4310  -36.3380   23.8920 C   0  0  0  0  0  3  0  0  0  0  0  0
  -27.5760  -37.2170   24.7000 C   0  0  0  0  0  1  0  0  0  0  0  0
  -26.4640  -37.3890   23.7700 N   0  0  0  0  0  0  0  0  0  0  0  0
  -26.0600  -38.3100   23.9250 H   0  0  0  0  0  0  0  0  0  0  0  0
  -26.4070  -31.7210   25.1250 C   0  0  1  0  0  0  0  0  0  0  0  0
  -25.3170  -31.4870   26.1960 C   0  0  0  0  0  1  0  0  0  0  0  0
  -26.9830  -30.3410   24.7300 C   0  0  0  0  0  1  0  0  0  0  0  0
  -27.5640  -32.5100   25.7840 C   0  0  0  0  0  1  0  0  0  0  0  0
  -29.4000  -21.1970   20.7240 C   0  0  0  0  0  3  0  0  0  0  0  0
  -29.5520  -19.7730   20.0080 C   0  0  0  0  0  3  0  0  0  0  0  0
  -29.6150  -18.4200   20.8540 C   0  0  0  0  0  3  0  0  0  0  0  0
  -30.1380  -17.1320   20.0750 C   0  0  0  0  0  3  0  0  0  0  0  0
  -30.6220  -14.6300   20.3600 C   0  0  0  0  0  0  0  0  0  0  0  0
  -30.3540  -12.3970   19.3160 C   0  0  0  0  0  2  0  0  0  0  0  0
  -29.4180  -12.5410   18.0970 C   0  0  0  0  0  2  0  0  0  0  0  0
  -27.9460  -12.3980   18.5260 C   0  0  0  0  0  2  0  0  0  0  0  0
  -27.5960  -13.2640   19.7650 C   0  0  0  0  0  3  0  0  0  0  0  0
  -28.6530  -13.1200   20.8830 C   0  0  0  0  0  2  0  0  0  0  0  0
  -29.9650  -13.4290   20.3010 N   0  0  0  0  0  0  0  0  0  0  0  0
  -31.7840  -14.7380   19.9610 O   0  0  0  0  0  0  0  0  0  0  0  0
  -29.8770  -15.7510   20.6260 N   0  0  0  0  0  0  0  0  0  0  0  0
  -28.9420  -15.5760   20.9660 H   0  0  0  0  0  0  0  0  0  0  0  0
  -25.2050  -13.8760   20.4800 C   0  0  0  0  0  0  0  0  0  0  0  0
  -24.1350  -13.1080   20.8540 C   0  0  0  0  0  0  0  0  0  0  0  0
  -24.5920  -11.7560   20.8330 C   0  0  0  0  0  0  0  0  0  0  0  0
  -26.2460  -12.9900   20.2520 N   0  0  0  0  0  0  0  0  0  0  0  0
  -25.8820  -11.7100   20.5250 N   0  0  0  0  0  0  0  0  0  0  0  0
  -23.8600  -10.4970   21.0320 C   0  0  0  0  0  0  0  0  0  0  0  0
  -24.2970   -9.5260   21.9590 C   0  0  0  0  0  3  0  0  0  0  0  0
  -23.5660   -8.3340   22.1470 C   0  0  0  0  0  3  0  0  0  0  0  0
  -22.3830   -8.1030   21.4050 C   0  0  0  0  0  0  0  0  0  0  0  0
  -21.9650   -9.0620   20.4660 C   0  0  0  0  0  3  0  0  0  0  0  0
  -22.6960  -10.2470   20.2770 C   0  0  0  0  0  3  0  0  0  0  0  0
  -21.6230   -6.9620   21.5010 O   0  0  0  0  0  0  0  0  0  0  0  0
  -21.5940   -6.2110   22.6480 C   0  0  0  0  0  0  0  0  0  0  0  0
  -21.2100   -6.7620   23.8900 C   0  0  0  0  0  3  0  0  0  0  0  0
  -21.1270   -5.9370   25.0300 C   0  0  0  0  0  3  0  0  0  0  0  0
  -21.4170   -4.5640   24.9290 C   0  0  0  0  0  0  0  0  0  0  0  0
  -21.7950   -4.0130   23.6920 C   0  0  0  0  0  3  0  0  0  0  0  0
  -21.8810   -4.8340   22.5550 C   0  0  0  0  0  0  0  0  0  0  0  0
  -22.2240   -4.2940   21.3600 F   0  0  0  0  0  0  0  0  0  0  0  0
  -21.3310   -3.7690   26.0220 F   0  0  0  0  0  0  0  0  0  0  0  0
  -22.7390  -13.5940   21.1200 C   0  0  0  0  0  0  0  0  0  0  0  0
  -22.0080  -12.9080   21.9920 N   0  0  0  0  0  0  0  0  0  0  0  0
  -22.3050  -14.6160   20.5910 O   0  0  0  0  0  0  0  0  0  0  0  0
  -22.3730  -12.0830   22.4450 H   0  0  0  0  0  0  0  0  0  0  0  0
  -21.0720  -13.2140   22.2110 H   0  0  0  0  0  0  0  0  0  0  0  0
  -25.3740  -15.2440   20.2910 N   0  0  0  0  0  0  0  0  0  0  0  0
  -24.6070  -15.9000   20.3930 H   0  0  0  0  0  0  0  0  0  0  0  0
  -26.2190  -15.6770   19.9400 H   0  0  0  0  0  0  0  0  0  0  0  0
  1  3  1  0
  1  4  1  0
  1 48  1  0
  3  2  1  0
  4  5  2  0
  6  7  1  0
  6  4  1  0
  8 19  2  0
  9  7  1  0
  9 14  1  0
 10 18  1  0
 10 20  1  0
 11 17  1  0
 11 13  1  0
 12 18  1  0
 13 12  1  0
 14 13  2  0
 15 16  1  0
 15  9  2  0
 16 11  2  0
 17 10  1  0
 18  8  1  0
 20 22  2  0
 21 20  1  0
 23 21  1  0
 24 33  2  0
 24 29  1  0
 25 21  1  0
 25 29  1  0
 26 25  1  0
 27 28  1  0
 27 26  1  0
 28 24  1  0
 29 30  2  0
 30 31  1  0
 32 31  2  0
 33 32  1  0
 34  8  1  0
 34 35  1  0
 34 44  1  0
 35 38  1  0
 36 40  1  0
 36 35  1  0
 37 36  2  0
 40 39  1  0
 42 40  1  0
 42 43  1  0
 42 41  1  0
 44 47  1  1
 44 45  1  0
 46 44  1  0
 49 48  2  0
 49 50  1  0
 51 60  1  0
 51 50  2  0
 52 60  1  0
 53 58  1  0
 54 55  1  0
 54 53  1  0
 56 55  1  0
 56 65  1  0
 56 57  1  0
 58 52  1  0
 58 57  1  0
 59 52  2  0
 60 61  1  0
 62 63  2  0
 63 82  1  0
 64 63  1  0
 64 67  1  0
 65 62  1  0
 65 66  1  0
 66 64  2  0
 67 68  1  0
 68 69  2  0
 70 73  1  0
 70 69  1  0
 71 70  2  0
 72 71  1  0
 72 67  2  0
 73 74  1  0
 74 75  1  0
 75 76  2  0
 77 76  1  0
 77 81  1  0
 78 77  2  0
 79 74  2  0
 79 78  1  0
 80 79  1  0
 82 83  1  0
 83 86  1  0
 83 85  1  0
 84 82  2  0
 87 88  1  0
 87 62  1  0
 89 87  1  0
M  ISO  4   6 101   7 101  52 100  60 100
M  END
>  <TORSDO>  (74) 
F 23

>  <SCORE>  (74) 
-12.595

>  <name>  (74) 
73

>  <ligand_id>  (74) 
73

>  <original_smiles>  (74) 
[H]c1c([H])c([H])c2c(c1[H])C([H])([H])C([H])([H])C([H])([H])C2([H])N([H])C(=O)C1([H])N(C(=O)C([H])(N([H])C(=O)C([H])(N([H])C([H])([H])[H])C([H])([H])[H])C(C([H])([H])[H])(C([H])([H])[H])C([H])([H])[H])C([H])([H])c2c([H])c(OC([H])([H])C(=O)C([H])(C([H])([H])C([H])([H])[H])C([H])([H])C([H])([H])C([H])([H])C([H])([H])N([H])C(=O)N3C([H])([H])C([H])([H])C([H])([H])C([H])(n4nc(-c5c([H])c([H])c(Oc6c([H])c([H])c(F)c([H])c6F)c([H])c5[H])c(C(=O)N([H])[H])c4N([H])[H])C3([H])[H])c([H])c([H])c2C1([H])[H]

>  <smiles>  (74) 
[H]c1c([H])c([H])c2c(c1[H])C([H])([H])C([H])([H])C([H])([H])C2([H])N([H])C(=O)C1([H])N(C(=O)C([H])(N([H])C(=O)C([H])(N([H])C([H])([H])[H])C([H])([H])[H])C(C([H])([H])[H])(C([H])([H])[H])C([H])([H])[H])C([H])([H])c2c([H])c(OC([H])([H])C(=O)C([H])(C([H])([H])C([H])([H])[H])C([H])([H])C([H])([H])C([H])([H])C([H])([H])N([H])C(=O)N3C([H])([H])C([H])([H])C([H])([H])C([H])(n4nc(-c5c([H])c([H])c(Oc6c([H])c([H])c(F)c([H])c6F)c([H])c5[H])c(C(=O)N([H])[H])c4N([H])[H])C3([H])[H])c([H])c([H])c2C1([H])[H]

$$$$
74:0:0
     RDKit          3D

 94102  0  0  1  0  0  0  0  0999 V2000
  -29.8870  -24.2770   18.6900 C   0  0  0  0  0  2  0  0  0  0  0  0
  -29.2290  -22.0810   19.4630 C   0  0  0  0  0  3  0  0  0  0  0  0
  -28.7580  -24.4680   19.7140 C   0  0  0  0  0  3  0  0  0  0  0  0
  -28.8350  -23.1500   20.5390 C   0  0  0  0  0  3  0  0  0  0  0  0
  -30.0910  -22.8160   18.5170 N   0  0  0  0  0  4  0  0  0  0  0  0
  -31.0390  -22.5470   18.7430 H   0  0  0  0  0  0  0  0  0  0  0  0
  -29.8990  -22.5180   17.5740 H   0  0  0  0  0  0  0  0  0  0  0  0
  -30.0700  -20.8530   19.9560 C   0  0  0  0  0  0  0  0  0  0  0  0
  -31.3020  -20.8280   19.8570 O   0  0  0  0  0  0  0  0  0  0  0  0
  -29.3480  -19.6290   20.5630 C   0  0  0  0  0  2  0  0  0  0  0  0
  -29.6580  -18.2150   19.9630 C   0  0  0  0  0  2  0  0  0  0  0  0
  -30.6370  -17.2920   20.7550 C   0  0  0  0  0  2  0  0  0  0  0  0
  -31.0290  -14.8480   20.0910 C   0  0  0  0  0  0  0  0  0  0  0  0
  -30.7430  -12.6620   18.9660 C   0  0  0  0  0  2  0  0  0  0  0  0
  -29.7630  -12.8310   17.7840 C   0  0  0  0  0  2  0  0  0  0  0  0
  -28.3020  -12.6870   18.2540 C   0  0  0  0  0  2  0  0  0  0  0  0
  -27.9910  -13.5370   19.5150 C   0  0  0  0  0  3  0  0  0  0  0  0
  -29.0750  -13.3320   20.5960 C   0  0  0  0  0  2  0  0  0  0  0  0
  -30.3790  -13.6530   19.9910 N   0  0  0  0  0  0  0  0  0  0  0  0
  -32.1450  -15.0440   19.6020 O   0  0  0  0  0  0  0  0  0  0  0  0
  -30.3040  -15.8530   20.6270 N   0  0  0  0  0  0  0  0  0  0  0  0
  -29.4010  -15.5770   20.9820 H   0  0  0  0  0  0  0  0  0  0  0  0
  -25.6110  -14.1450   20.2860 C   0  0  0  0  0  0  0  0  0  0  0  0
  -24.5530  -13.3740   20.6850 C   0  0  0  0  0  0  0  0  0  0  0  0
  -25.0130  -12.0220   20.6420 C   0  0  0  0  0  0  0  0  0  0  0  0
  -26.6500  -13.2630   20.0290 N   0  0  0  0  0  0  0  0  0  0  0  0
  -26.2950  -11.9820   20.3000 N   0  0  0  0  0  0  0  0  0  0  0  0
  -24.2920  -10.7600   20.8520 C   0  0  0  0  0  0  0  0  0  0  0  0
  -24.7030   -9.8280   21.8300 C   0  0  0  0  0  3  0  0  0  0  0  0
  -23.9830   -8.6290   22.0250 C   0  0  0  0  0  3  0  0  0  0  0  0
  -22.8370   -8.3550   21.2410 C   0  0  0  0  0  0  0  0  0  0  0  0
  -22.4460   -9.2750   20.2520 C   0  0  0  0  0  3  0  0  0  0  0  0
  -23.1680  -10.4640   20.0560 C   0  0  0  0  0  3  0  0  0  0  0  0
  -22.0910   -7.2060   21.3420 O   0  0  0  0  0  0  0  0  0  0  0  0
  -21.9640   -6.5330   22.5300 C   0  0  0  0  0  0  0  0  0  0  0  0
  -21.3960   -7.1380   23.6730 C   0  0  0  0  0  3  0  0  0  0  0  0
  -21.2210   -6.3890   24.8540 C   0  0  0  0  0  3  0  0  0  0  0  0
  -21.6020   -5.0340   24.8910 C   0  0  0  0  0  0  0  0  0  0  0  0
  -22.1630   -4.4280   23.7530 C   0  0  0  0  0  3  0  0  0  0  0  0
  -22.3390   -5.1750   22.5760 C   0  0  0  0  0  0  0  0  0  0  0  0
  -22.8600   -4.5800   21.4740 F   0  0  0  0  0  0  0  0  0  0  0  0
  -21.4270   -4.3120   26.0220 F   0  0  0  0  0  0  0  0  0  0  0  0
  -23.1640  -13.8510   20.9940 C   0  0  0  0  0  0  0  0  0  0  0  0
  -22.4610  -13.1590   21.8840 N   0  0  0  0  0  0  0  0  0  0  0  0
  -22.7090  -14.8730   20.4800 O   0  0  0  0  0  0  0  0  0  0  0  0
  -22.8410  -12.3320   22.3210 H   0  0  0  0  0  0  0  0  0  0  0  0
  -21.5300  -13.4620   22.1340 H   0  0  0  0  0  0  0  0  0  0  0  0
  -25.7700  -15.5150   20.1030 N   0  0  0  0  0  0  0  0  0  0  0  0
  -25.0040  -16.1670   20.2280 H   0  0  0  0  0  0  0  0  0  0  0  0
  -26.6040  -15.9530   19.7290 H   0  0  0  0  0  0  0  0  0  0  0  0
  -27.6540  -22.1290   22.6340 C   0  0  0  0  0  1  0  0  0  0  0  0
  -27.5110  -22.8720   21.2970 C   0  0  0  0  0  2  0  0  0  0  0  0
  -28.8330  -25.8060   20.5200 C   0  0  0  0  0  2  0  0  0  0  0  0
  -28.7210  -27.0130   19.7350 O   0  0  0  0  0  0  0  0  0  0  0  0
  -24.6660  -31.8310   23.1320 C   0  0  0  0  0  0  0  0  0  0  0  0
  -27.5190  -27.6910   19.8080 C   0  0  0  0  0  0  0  0  0  0  0  0
  -23.5250  -30.4600   21.4180 C   0  0  0  0  0  3  0  0  0  0  0  0
  -25.0480  -29.0750   19.9090 C   0  0  0  0  0  0  0  0  0  0  0  0
  -26.0270  -30.9590   21.2300 C   0  0  0  0  0  2  0  0  0  0  0  0
  -26.1830  -29.6280   20.5160 C   0  0  0  0  0  0  0  0  0  0  0  0
  -27.4240  -28.9460   20.4570 C   0  0  0  0  0  3  0  0  0  0  0  0
  -26.3660  -27.1520   19.2010 C   0  0  0  0  0  3  0  0  0  0  0  0
  -25.1360  -27.8370   19.2460 C   0  0  0  0  0  3  0  0  0  0  0  0
  -23.7620  -29.8660   20.0030 C   0  0  0  0  0  2  0  0  0  0  0  0
  -24.7580  -31.0970   21.9860 N   0  0  0  0  0  0  0  0  0  0  0  0
  -23.5750  -32.0160   23.6890 O   0  0  0  0  0  0  0  0  0  0  0  0
  -22.9300  -29.3580   22.3240 C   0  0  0  0  0  0  0  0  0  0  0  0
  -21.6190  -29.1040   22.1780 N   0  0  0  0  0  0  0  0  0  0  0  0
  -23.6460  -28.7360   23.1130 O   0  0  0  0  0  0  0  0  0  0  0  0
  -21.1000  -29.6650   21.5170 H   0  0  0  0  0  0  0  0  0  0  0  0
  -18.3210  -27.6820   22.5890 C   0  0  0  0  0  0  0  0  0  0  0  0
  -20.8570  -28.0800   22.8940 C   0  0  0  0  0  3  0  0  0  0  0  0
  -21.0490  -26.6900   22.2470 C   0  0  0  0  0  2  0  0  0  0  0  0
  -19.9750  -26.3520   21.2100 C   0  0  0  0  0  2  0  0  0  0  0  0
  -18.5830  -26.3810   21.8490 C   0  0  0  0  0  2  0  0  0  0  0  0
  -19.3890  -28.4870   23.0660 C   0  0  0  0  0  0  0  0  0  0  0  0
  -19.0910  -29.7040   23.7170 C   0  0  0  0  0  3  0  0  0  0  0  0
  -17.7590  -30.1180   23.8950 C   0  0  0  0  0  3  0  0  0  0  0  0
  -16.7050  -29.3100   23.4350 C   0  0  0  0  0  3  0  0  0  0  0  0
  -16.9860  -28.0930   22.7900 C   0  0  0  0  0  3  0  0  0  0  0  0
  -25.9220  -32.4920   23.7830 C   0  0  0  0  0  3  0  0  0  0  0  0
  -25.5590  -33.8680   24.1480 N   0  0  0  0  0  0  0  0  0  0  0  0
  -25.8710  -34.9530   23.4270 C   0  0  0  0  0  0  0  0  0  0  0  0
  -26.5640  -34.9020   22.4060 O   0  0  0  0  0  0  0  0  0  0  0  0
  -24.9440  -33.9770   24.9400 H   0  0  0  0  0  0  0  0  0  0  0  0
  -24.0960  -36.7000   23.0830 C   0  0  0  0  0  1  0  0  0  0  0  0
  -25.3280  -36.3090   23.9140 C   0  0  0  0  0  3  0  0  0  0  0  0
  -27.4060  -37.2380   24.8360 C   0  0  0  0  0  1  0  0  0  0  0  0
  -26.3290  -37.3960   23.8610 N   0  0  0  0  0  0  0  0  0  0  0  0
  -25.8900  -38.2990   24.0190 H   0  0  0  0  0  0  0  0  0  0  0  0
  -26.4590  -31.7040   25.0400 C   0  0  1  0  0  0  0  0  0  0  0  0
  -25.3680  -31.3900   26.0910 C   0  0  0  0  0  1  0  0  0  0  0  0
  -27.0990  -30.3640   24.6100 C   0  0  0  0  0  1  0  0  0  0  0  0
  -27.5730  -32.5230   25.7340 C   0  0  0  0  0  1  0  0  0  0  0  0
  1  3  1  0
  2  8  1  0
  2  4  1  0
  3 53  1  0
  3  4  1  0
  4 52  1  0
  5  1  1  0
  5  6  1  0
  5  2  1  0
  7  5  1  0
  8 10  1  0
  9  8  2  0
 11 10  1  0
 11 12  1  0
 13 21  1  0
 14 19  1  0
 15 16  1  0
 15 14  1  0
 17 16  1  0
 17 26  1  0
 17 18  1  0
 19 13  1  0
 19 18  1  0
 20 13  2  0
 21 12  1  0
 21 22  1  0
 23 24  2  0
 24 43  1  0
 25 24  1  0
 25 28  1  0
 26 23  1  0
 26 27  1  0
 27 25  2  0
 28 29  1  0
 29 30  2  0
 31 34  1  0
 31 30  1  0
 32 31  2  0
 33 32  1  0
 33 28  2  0
 34 35  1  0
 35 40  2  0
 35 36  1  0
 36 37  2  0
 37 38  1  0
 38 42  1  0
 39 38  2  0
 40 39  1  0
 41 40  1  0
 43 44  1  0
 44 47  1  0
 44 46  1  0
 45 43  2  0
 48 49  1  0
 48 23  1  0
 50 48  1  0
 52 51  1  0
 54 56  1  0
 54 53  1  0
 55 66  2  0
 56 61  1  0
 57 65  1  0
 57 67  1  0
 58 64  1  0
 58 60  1  0
 59 65  1  0
 60 59  1  0
 61 60  2  0
 62 63  1  0
 62 56  2  0
 63 58  2  0
 64 57  1  0
 65 55  1  0
 67 69  2  0
 68 67  1  0
 70 68  1  0
 71 80  2  0
 71 76  1  0
 72 68  1  0
 72 76  1  0
 73 72  1  0
 74 75  1  0
 74 73  1  0
 75 71  1  0
 76 77  2  0
 77 78  1  0
 79 78  2  0
 80 79  1  0
 81 55  1  0
 81 82  1  0
 81 91  1  0
 82 85  1  0
 83 87  1  0
 83 82  1  0
 84 83  2  0
 87 86  1  0
 89 87  1  0
 89 90  1  0
 89 88  1  0
 91 94  1  1
 91 92  1  0
 93 91  1  0
M  ISO  4  13 100  21 100  53 101  54 101
M  END
>  <TORSDO>  (75) 
F 22

>  <SCORE>  (75) 
-11.070

>  <name>  (75) 
74

>  <ligand_id>  (75) 
74

>  <original_smiles>  (75) 
[H]c1c([H])c([H])c2c(c1[H])C([H])([H])C([H])([H])C([H])([H])C2([H])N([H])C(=O)C1([H])N(C(=O)C([H])(N([H])C(=O)C([H])(N([H])C([H])([H])[H])C([H])([H])[H])C(C([H])([H])[H])(C([H])([H])[H])C([H])([H])[H])C([H])([H])c2c([H])c(OC([H])([H])C3([H])C([H])(C([H])([H])C([H])([H])[H])C([H])(C(=O)C([H])([H])C([H])([H])C([H])([H])N([H])C(=O)N4C([H])([H])C([H])([H])C([H])([H])C([H])(n5nc(-c6c([H])c([H])c(Oc7c([H])c([H])c(F)c([H])c7F)c([H])c6[H])c(C(=O)N([H])[H])c5N([H])[H])C4([H])[H])[N+]([H])([H])C3([H])[H])c([H])c([H])c2C1([H])[H]

>  <smiles>  (75) 
[H]c1c([H])c([H])c2c(c1[H])C([H])([H])C([H])([H])C([H])([H])C2([H])N([H])C(=O)C1([H])N(C(=O)C([H])(N([H])C(=O)C([H])(N([H])C([H])([H])[H])C([H])([H])[H])C(C([H])([H])[H])(C([H])([H])[H])C([H])([H])[H])C([H])([H])c2c([H])c(OC([H])([H])C3([H])C([H])(C([H])([H])C([H])([H])[H])C([H])(C(=O)C([H])([H])C([H])([H])C([H])([H])N([H])C(=O)N4C([H])([H])C([H])([H])C([H])([H])C([H])(n5nc(-c6c([H])c([H])c(Oc7c([H])c([H])c(F)c([H])c7F)c([H])c6[H])c(C(=O)N([H])[H])c5N([H])[H])C4([H])[H])[N+]([H])([H])C3([H])[H])c([H])c([H])c2C1([H])[H]

$$$$
75:0:0
     RDKit          3D

 90 98  0  0  1  0  0  0  0  0999 V2000
  -30.8960  -21.0420   19.9860 C   0  0  0  0  0  2  0  0  0  0  0  0
  -29.0900  -19.6080   20.6640 C   0  0  0  0  0  2  0  0  0  0  0  0
  -29.6050  -21.1010   20.8140 C   0  0  0  0  0  3  0  0  0  0  0  0
  -31.3010  -19.5450   19.8010 C   0  0  0  0  0  3  0  0  0  0  0  0
  -30.3200  -18.6220   20.5900 C   0  0  0  0  0  3  0  0  0  0  0  0
  -32.7870  -19.2760   20.1070 C   0  0  0  0  0  1  0  0  0  0  0  0
  -27.3770  -22.1370   21.4340 C   0  0  0  0  0  1  0  0  0  0  0  0
  -28.5900  -22.3150   20.4980 C   0  0  0  0  0  3  0  0  0  0  0  0
  -29.0930  -23.8540   20.5460 C   0  0  0  0  0  3  0  0  0  0  0  0
  -28.0510  -25.0020   20.1160 C   0  0  0  0  0  3  0  0  0  0  0  0
  -28.3250  -26.4660   20.2180 O   0  0  0  0  0  0  0  0  0  0  0  0
  -24.6420  -31.8880   23.2600 C   0  0  0  0  0  0  0  0  0  0  0  0
  -27.2170  -27.3390   20.1540 C   0  0  0  0  0  0  0  0  0  0  0  0
  -23.4180  -30.5030   21.6230 C   0  0  0  0  0  3  0  0  0  0  0  0
  -24.8520  -28.9630   20.1670 C   0  0  0  0  0  0  0  0  0  0  0  0
  -25.9550  -30.8220   21.4080 C   0  0  0  0  0  2  0  0  0  0  0  0
  -26.0280  -29.4460   20.7540 C   0  0  0  0  0  0  0  0  0  0  0  0
  -27.2120  -28.6460   20.7390 C   0  0  0  0  0  3  0  0  0  0  0  0
  -26.0180  -26.9250   19.5270 C   0  0  0  0  0  3  0  0  0  0  0  0
  -24.8490  -27.7100   19.5400 C   0  0  0  0  0  3  0  0  0  0  0  0
  -23.6130  -29.8340   20.2360 C   0  0  0  0  0  2  0  0  0  0  0  0
  -24.6920  -31.0880   22.1550 N   0  0  0  0  0  0  0  0  0  0  0  0
  -23.5670  -32.1620   23.8110 O   0  0  0  0  0  0  0  0  0  0  0  0
  -22.7650  -29.4830   22.5850 C   0  0  0  0  0  0  0  0  0  0  0  0
  -21.4400  -29.2910   22.4610 N   0  0  0  0  0  0  0  0  0  0  0  0
  -23.4530  -28.8640   23.4030 O   0  0  0  0  0  0  0  0  0  0  0  0
  -20.9430  -29.8420   21.7740 H   0  0  0  0  0  0  0  0  0  0  0  0
  -18.0770  -28.0650   22.9640 C   0  0  0  0  0  0  0  0  0  0  0  0
  -20.6330  -28.3490   23.2370 C   0  0  0  0  0  3  0  0  0  0  0  0
  -20.7500  -26.9170   22.6700 C   0  0  0  0  0  2  0  0  0  0  0  0
  -19.6550  -26.5790   21.6550 C   0  0  0  0  0  2  0  0  0  0  0  0
  -18.2700  -26.7160   22.2920 C   0  0  0  0  0  2  0  0  0  0  0  0
  -19.1870  -28.8400   23.3910 C   0  0  0  0  0  0  0  0  0  0  0  0
  -18.9540  -30.1050   23.9740 C   0  0  0  0  0  3  0  0  0  0  0  0
  -17.6430  -30.5920   24.1370 C   0  0  0  0  0  3  0  0  0  0  0  0
  -16.5460  -29.8140   23.7250 C   0  0  0  0  0  3  0  0  0  0  0  0
  -16.7660  -28.5530   23.1420 C   0  0  0  0  0  3  0  0  0  0  0  0
  -25.9360  -32.5160   23.8690 C   0  0  0  0  0  3  0  0  0  0  0  0
  -26.4670  -31.7350   25.1330 C   0  0  1  0  0  0  0  0  0  0  0  0
  -25.3880  -31.4960   26.2130 C   0  0  0  0  0  1  0  0  0  0  0  0
  -27.0380  -30.3580   24.7230 C   0  0  0  0  0  1  0  0  0  0  0  0
  -27.6280  -32.5210   25.7870 C   0  0  0  0  0  1  0  0  0  0  0  0
  -25.6350  -33.9120   24.2090 N   0  0  0  0  0  0  0  0  0  0  0  0
  -25.9410  -34.9690   23.4460 C   0  0  0  0  0  0  0  0  0  0  0  0
  -26.5780  -34.8710   22.3930 O   0  0  0  0  0  0  0  0  0  0  0  0
  -25.0710  -34.0610   25.0330 H   0  0  0  0  0  0  0  0  0  0  0  0
  -24.1870  -36.7490   23.1600 C   0  0  0  0  0  1  0  0  0  0  0  0
  -25.4610  -36.3530   23.9230 C   0  0  0  0  0  3  0  0  0  0  0  0
  -27.6200  -37.2510   24.6710 C   0  0  0  0  0  1  0  0  0  0  0  0
  -26.4800  -37.4140   23.7740 N   0  0  0  0  0  0  0  0  0  0  0  0
  -26.0720  -38.3300   23.9420 H   0  0  0  0  0  0  0  0  0  0  0  0
  -30.1630  -17.1830   19.8690 C   0  0  0  0  0  2  0  0  0  0  0  0
  -30.6500  -14.7110   20.4110 C   0  0  0  0  0  0  0  0  0  0  0  0
  -30.3810  -12.4460   19.4200 C   0  0  0  0  0  2  0  0  0  0  0  0
  -29.4790  -12.5770   18.1730 C   0  0  0  0  0  2  0  0  0  0  0  0
  -27.9950  -12.4390   18.5680 C   0  0  0  0  0  2  0  0  0  0  0  0
  -27.6170  -13.3210   19.7890 C   0  0  0  0  0  3  0  0  0  0  0  0
  -28.6550  -13.2130   20.9320 C   0  0  0  0  0  2  0  0  0  0  0  0
  -29.9790  -13.5110   20.3690 N   0  0  0  0  0  0  0  0  0  0  0  0
  -31.8250  -14.7790   20.0480 O   0  0  0  0  0  0  0  0  0  0  0  0
  -29.9250  -15.8710   20.5980 N   0  0  0  0  0  0  0  0  0  0  0  0
  -28.9910  -15.7300   20.9470 H   0  0  0  0  0  0  0  0  0  0  0  0
  -25.2110  -13.9270   20.4490 C   0  0  0  0  0  0  0  0  0  0  0  0
  -24.1350  -13.1630   20.8080 C   0  0  0  0  0  0  0  0  0  0  0  0
  -24.5930  -11.8100   20.8070 C   0  0  0  0  0  0  0  0  0  0  0  0
  -26.2590  -13.0430   20.2520 N   0  0  0  0  0  0  0  0  0  0  0  0
  -25.8890  -11.7640   20.5270 N   0  0  0  0  0  0  0  0  0  0  0  0
  -23.8570  -10.5520   21.0010 C   0  0  0  0  0  0  0  0  0  0  0  0
  -24.2710   -9.5920   21.9510 C   0  0  0  0  0  3  0  0  0  0  0  0
  -23.5370   -8.4000   22.1320 C   0  0  0  0  0  3  0  0  0  0  0  0
  -22.3710   -8.1610   21.3650 C   0  0  0  0  0  0  0  0  0  0  0  0
  -21.9760   -9.1100   20.4060 C   0  0  0  0  0  3  0  0  0  0  0  0
  -22.7110  -10.2930   20.2220 C   0  0  0  0  0  3  0  0  0  0  0  0
  -21.6040   -7.0250   21.4590 O   0  0  0  0  0  0  0  0  0  0  0  0
  -21.5440   -6.2880   22.6150 C   0  0  0  0  0  0  0  0  0  0  0  0
  -21.1230   -6.8540   23.8380 C   0  0  0  0  0  3  0  0  0  0  0  0
  -21.0150   -6.0440   24.9870 C   0  0  0  0  0  3  0  0  0  0  0  0
  -21.3120   -4.6700   24.9120 C   0  0  0  0  0  0  0  0  0  0  0  0
  -21.7230   -4.1040   23.6910 C   0  0  0  0  0  3  0  0  0  0  0  0
  -21.8360   -4.9110   22.5470 C   0  0  0  0  0  0  0  0  0  0  0  0
  -22.2150   -4.3560   21.3700 F   0  0  0  0  0  0  0  0  0  0  0  0
  -21.1970   -3.8890   26.0120 F   0  0  0  0  0  0  0  0  0  0  0  0
  -22.7340  -13.6460   21.0430 C   0  0  0  0  0  0  0  0  0  0  0  0
  -21.9850  -12.9650   21.9050 N   0  0  0  0  0  0  0  0  0  0  0  0
  -22.3110  -14.6660   20.5000 O   0  0  0  0  0  0  0  0  0  0  0  0
  -22.3380  -12.1390   22.3640 H   0  0  0  0  0  0  0  0  0  0  0  0
  -21.0430  -13.2720   22.1070 H   0  0  0  0  0  0  0  0  0  0  0  0
  -25.3820  -15.2950   20.2540 N   0  0  0  0  0  0  0  0  0  0  0  0
  -24.6110  -15.9510   20.3220 H   0  0  0  0  0  0  0  0  0  0  0  0
  -26.2430  -15.7360   19.9540 H   0  0  0  0  0  0  0  0  0  0  0  0
  1  3  1  0
  2  3  1  0
  3  8  1  0
  4  1  1  0
  4  6  1  0
  4  5  1  0
  5 52  1  0
  5  2  1  0
  8  9  1  0
  8  7  1  0
 10 11  1  0
 10  9  2  0
 12 23  2  0
 13 11  1  0
 13 18  1  0
 14 22  1  0
 14 24  1  0
 15 21  1  0
 15 17  1  0
 16 22  1  0
 17 16  1  0
 18 17  2  0
 19 20  1  0
 19 13  2  0
 20 15  2  0
 21 14  1  0
 22 12  1  0
 24 26  2  0
 25 24  1  0
 27 25  1  0
 28 37  2  0
 28 33  1  0
 29 25  1  0
 29 33  1  0
 30 29  1  0
 31 32  1  0
 31 30  1  0
 32 28  1  0
 33 34  2  0
 34 35  1  0
 36 35  2  0
 37 36  1  0
 38 12  1  0
 38 43  1  0
 38 39  1  0
 39 42  1  1
 39 40  1  0
 41 39  1  0
 43 46  1  0
 44 48  1  0
 44 43  1  0
 45 44  2  0
 48 47  1  0
 50 48  1  0
 50 51  1  0
 50 49  1  0
 52 61  1  0
 53 61  1  0
 54 59  1  0
 55 56  1  0
 55 54  1  0
 57 56  1  0
 57 66  1  0
 57 58  1  0
 59 53  1  0
 59 58  1  0
 60 53  2  0
 61 62  1  0
 63 64  2  0
 64 83  1  0
 65 64  1  0
 65 68  1  0
 66 63  1  0
 66 67  1  0
 67 65  2  0
 68 69  1  0
 69 70  2  0
 71 74  1  0
 71 70  1  0
 72 71  2  0
 73 72  1  0
 73 68  2  0
 74 75  1  0
 75 76  1  0
 76 77  2  0
 78 77  1  0
 78 82  1  0
 79 78  2  0
 80 75  2  0
 80 79  1  0
 81 80  1  0
 83 84  1  0
 84 87  1  0
 84 86  1  0
 85 83  2  0
 88 89  1  0
 88 63  1  0
 90 88  1  0
M  ISO  4  10 101  11 101  53 100  61 100
M  END
>  <TORSDO>  (76) 
F 20

>  <SCORE>  (76) 
-13.616

>  <name>  (76) 
75

>  <ligand_id>  (76) 
75

>  <original_smiles>  (76) 
[H]c1c([H])c([H])c2c(c1[H])C([H])([H])C([H])([H])C([H])([H])C2([H])N([H])C(=O)C1([H])N(C(=O)C([H])(N([H])C(=O)C([H])(N([H])C([H])([H])[H])C([H])([H])[H])C(C([H])([H])[H])(C([H])([H])[H])C([H])([H])[H])C([H])([H])c2c([H])c(OC([H])([H])C([H])([H])C([H])(C([H])([H])[H])C3([H])C([H])([H])C([H])(C([H])([H])[H])C([H])(C([H])([H])N([H])C(=O)N4C([H])([H])C([H])([H])C([H])([H])C([H])(n5nc(-c6c([H])c([H])c(Oc7c([H])c([H])c(F)c([H])c7F)c([H])c6[H])c(C(=O)N([H])[H])c5N([H])[H])C4([H])[H])C3([H])[H])c([H])c([H])c2C1([H])[H]

>  <smiles>  (76) 
[H]c1c([H])c([H])c2c(c1[H])C([H])([H])C([H])([H])C([H])([H])C2([H])N([H])C(=O)C1([H])N(C(=O)C([H])(N([H])C(=O)C([H])(N([H])C([H])([H])[H])C([H])([H])[H])C(C([H])([H])[H])(C([H])([H])[H])C([H])([H])[H])C([H])([H])c2c([H])c(OC([H])([H])C([H])([H])C([H])(C([H])([H])[H])C3([H])C([H])([H])C([H])(C([H])([H])[H])C([H])(C([H])([H])N([H])C(=O)N4C([H])([H])C([H])([H])C([H])([H])C([H])(n5nc(-c6c([H])c([H])c(Oc7c([H])c([H])c(F)c([H])c7F)c([H])c6[H])c(C(=O)N([H])[H])c5N([H])[H])C4([H])[H])C3([H])[H])c([H])c([H])c2C1([H])[H]

$$$$
76:0:0
     RDKit          3D

 90 98  0  0  1  0  0  0  0  0999 V2000
  -30.1330  -21.3150   21.9880 C   0  0  0  0  0  1  0  0  0  0  0  0
  -30.1140  -21.2810   20.4500 C   0  0  0  0  0  3  0  0  0  0  0  0
  -29.0600  -22.3220   18.3540 C   0  0  0  0  0  1  0  0  0  0  0  0
  -29.1720  -22.4530   19.8820 C   0  0  0  0  0  3  0  0  0  0  0  0
  -29.4870  -23.9780   20.2930 C   0  0  0  0  0  3  0  0  0  0  0  0
  -28.4540  -25.1010   19.8260 C   0  0  0  0  0  3  0  0  0  0  0  0
  -28.6540  -26.5480   20.0960 O   0  0  0  0  0  0  0  0  0  0  0  0
  -24.6830  -31.7600   23.1060 C   0  0  0  0  0  0  0  0  0  0  0  0
  -27.5160  -27.3740   20.0090 C   0  0  0  0  0  0  0  0  0  0  0  0
  -23.5590  -30.3410   21.4270 C   0  0  0  0  0  3  0  0  0  0  0  0
  -25.0890  -28.8890   19.9870 C   0  0  0  0  0  0  0  0  0  0  0  0
  -26.0820  -30.7770   21.2780 C   0  0  0  0  0  2  0  0  0  0  0  0
  -26.2290  -29.4150   20.6100 C   0  0  0  0  0  0  0  0  0  0  0  0
  -27.4460  -28.6680   20.6120 C   0  0  0  0  0  3  0  0  0  0  0  0
  -26.3530  -26.9180   19.3400 C   0  0  0  0  0  3  0  0  0  0  0  0
  -25.1560  -27.6520   19.3350 C   0  0  0  0  0  3  0  0  0  0  0  0
  -23.8150  -29.7010   20.0360 C   0  0  0  0  0  2  0  0  0  0  0  0
  -24.7920  -30.9760   21.9960 N   0  0  0  0  0  0  0  0  0  0  0  0
  -23.5830  -31.9810   23.6320 O   0  0  0  0  0  0  0  0  0  0  0  0
  -22.9310  -29.2790   22.3600 C   0  0  0  0  0  0  0  0  0  0  0  0
  -21.6180  -29.0420   22.2080 N   0  0  0  0  0  0  0  0  0  0  0  0
  -23.6240  -28.6700   23.1810 O   0  0  0  0  0  0  0  0  0  0  0  0
  -21.1170  -29.5900   21.5210 H   0  0  0  0  0  0  0  0  0  0  0  0
  -18.2880  -27.6880   22.6320 C   0  0  0  0  0  0  0  0  0  0  0  0
  -20.8290  -28.0550   22.9460 C   0  0  0  0  0  3  0  0  0  0  0  0
  -21.0010  -26.6400   22.3480 C   0  0  0  0  0  2  0  0  0  0  0  0
  -19.9300  -26.2860   21.3100 C   0  0  0  0  0  2  0  0  0  0  0  0
  -18.5350  -26.3600   21.9380 C   0  0  0  0  0  2  0  0  0  0  0  0
  -19.3670  -28.4920   23.0920 C   0  0  0  0  0  0  0  0  0  0  0  0
  -19.0840  -29.7330   23.7020 C   0  0  0  0  0  3  0  0  0  0  0  0
  -17.7570  -30.1740   23.8580 C   0  0  0  0  0  3  0  0  0  0  0  0
  -16.6940  -29.3680   23.4130 C   0  0  0  0  0  3  0  0  0  0  0  0
  -16.9600  -28.1280   22.8090 C   0  0  0  0  0  3  0  0  0  0  0  0
  -25.9290  -32.4350   23.7570 C   0  0  0  0  0  3  0  0  0  0  0  0
  -26.4430  -31.6840   25.0470 C   0  0  1  0  0  0  0  0  0  0  0  0
  -25.3340  -31.4010   26.0870 C   0  0  0  0  0  1  0  0  0  0  0  0
  -27.0820  -30.3270   24.6680 C   0  0  0  0  0  1  0  0  0  0  0  0
  -27.5480  -32.5190   25.7370 C   0  0  0  0  0  1  0  0  0  0  0  0
  -25.5670  -33.8250   24.0760 N   0  0  0  0  0  0  0  0  0  0  0  0
  -25.8720  -34.8840   23.3160 C   0  0  0  0  0  0  0  0  0  0  0  0
  -26.5590  -34.7990   22.2930 O   0  0  0  0  0  0  0  0  0  0  0  0
  -24.9590  -33.9630   24.8700 H   0  0  0  0  0  0  0  0  0  0  0  0
  -24.0870  -36.6140   22.9300 C   0  0  0  0  0  1  0  0  0  0  0  0
  -25.3310  -36.2570   23.7590 C   0  0  0  0  0  3  0  0  0  0  0  0
  -27.4250  -37.2200   24.6100 C   0  0  0  0  0  1  0  0  0  0  0  0
  -26.3290  -37.3450   23.6540 N   0  0  0  0  0  0  0  0  0  0  0  0
  -25.8900  -38.2500   23.7910 H   0  0  0  0  0  0  0  0  0  0  0  0
  -29.8440  -19.8010   19.8690 C   0  0  0  0  0  2  0  0  0  0  0  0
  -31.2140  -14.7320   19.7340 C   0  0  0  0  0  0  0  0  0  0  0  0
  -30.7630  -12.5370   18.6490 C   0  0  0  0  0  2  0  0  0  0  0  0
  -29.7260  -12.7230   17.5220 C   0  0  0  0  0  2  0  0  0  0  0  0
  -28.2930  -12.6240   18.0800 C   0  0  0  0  0  2  0  0  0  0  0  0
  -28.0830  -13.4840   19.3560 C   0  0  0  0  0  3  0  0  0  0  0  0
  -29.2290  -13.2820   20.3710 C   0  0  0  0  0  2  0  0  0  0  0  0
  -30.4960  -13.5630   19.6780 N   0  0  0  0  0  0  0  0  0  0  0  0
  -32.2820  -14.8450   19.1210 O   0  0  0  0  0  0  0  0  0  0  0  0
  -30.3490  -16.9420   22.6110 C   0  0  0  0  0  2  0  0  0  0  0  0
  -29.8280  -18.2110   21.9050 C   0  0  0  0  0  2  0  0  0  0  0  0
  -31.2310  -16.0380   21.7330 C   0  0  0  0  0  2  0  0  0  0  0  0
  -30.3520  -17.1200   19.6870 C   0  0  0  0  0  2  0  0  0  0  0  0
  -30.4660  -18.4750   20.5260 C   0  0  0  0  0  3  0  0  0  0  0  0
  -30.6750  -15.8160   20.3920 N   0  0  0  0  0  0  0  0  0  0  0  0
  -25.8140  -14.1610   20.3630 C   0  0  0  0  0  0  0  0  0  0  0  0
  -24.7400  -13.4210   20.7830 C   0  0  0  0  0  0  0  0  0  0  0  0
  -25.1080  -12.0530   20.6060 C   0  0  0  0  0  0  0  0  0  0  0  0
  -26.7710  -13.2430   19.9560 N   0  0  0  0  0  0  0  0  0  0  0  0
  -26.3550  -11.9660   20.1590 N   0  0  0  0  0  0  0  0  0  0  0  0
  -24.3220  -10.8220   20.7790 C   0  0  0  0  0  0  0  0  0  0  0  0
  -24.7380   -9.7940   21.6540 C   0  0  0  0  0  3  0  0  0  0  0  0
  -23.9540   -8.6330   21.8170 C   0  0  0  0  0  3  0  0  0  0  0  0
  -22.7390   -8.4910   21.1070 C   0  0  0  0  0  0  0  0  0  0  0  0
  -22.3400   -9.5060   20.2180 C   0  0  0  0  0  3  0  0  0  0  0  0
  -23.1260  -10.6590   20.0520 C   0  0  0  0  0  3  0  0  0  0  0  0
  -21.9270   -7.3860   21.1840 O   0  0  0  0  0  0  0  0  0  0  0  0
  -21.8230   -6.6450   22.3350 C   0  0  0  0  0  0  0  0  0  0  0  0
  -21.4380   -7.2260   23.5640 C   0  0  0  0  0  3  0  0  0  0  0  0
  -21.2750   -6.4170   24.7050 C   0  0  0  0  0  3  0  0  0  0  0  0
  -21.4910   -5.0280   24.6220 C   0  0  0  0  0  0  0  0  0  0  0  0
  -21.8720   -4.4470   23.3990 C   0  0  0  0  0  3  0  0  0  0  0  0
  -22.0330   -5.2530   22.2580 C   0  0  0  0  0  0  0  0  0  0  0  0
  -22.3800   -4.6850   21.0780 F   0  0  0  0  0  0  0  0  0  0  0  0
  -21.3280   -4.2490   25.7160 F   0  0  0  0  0  0  0  0  0  0  0  0
  -23.4110  -13.9570   21.2360 C   0  0  0  0  0  0  0  0  0  0  0  0
  -22.7470  -13.2610   22.1540 N   0  0  0  0  0  0  0  0  0  0  0  0
  -22.9730  -15.0250   20.8120 O   0  0  0  0  0  0  0  0  0  0  0  0
  -23.1200  -12.4020   22.5270 H   0  0  0  0  0  0  0  0  0  0  0  0
  -21.8580  -13.5990   22.4940 H   0  0  0  0  0  0  0  0  0  0  0  0
  -26.0490  -15.5280   20.2750 N   0  0  0  0  0  0  0  0  0  0  0  0
  -25.3500  -16.2200   20.5260 H   0  0  0  0  0  0  0  0  0  0  0  0
  -26.9060  -15.9390   19.9250 H   0  0  0  0  0  0  0  0  0  0  0  0
  2  1  1  0
  4  3  1  0
  4  5  1  0
  4  2  1  0
  6  7  1  0
  6  5  2  0
  8 19  2  0
  9  7  1  0
  9 14  1  0
 10 18  1  0
 10 20  1  0
 11 17  1  0
 11 13  1  0
 12 18  1  0
 13 14  2  0
 13 12  1  0
 15  9  2  0
 16 15  1  0
 16 11  2  0
 17 10  1  0
 18  8  1  0
 20 22  2  0
 21 20  1  0
 23 21  1  0
 24 33  2  0
 24 29  1  0
 25 21  1  0
 25 29  1  0
 26 25  1  0
 27 28  1  0
 27 26  1  0
 28 24  1  0
 29 30  2  0
 30 31  1  0
 32 31  2  0
 33 32  1  0
 34  8  1  0
 34 39  1  0
 34 35  1  0
 35 38  1  1
 35 36  1  0
 37 35  1  0
 39 42  1  0
 40 44  1  0
 40 39  1  0
 41 40  2  0
 44 43  1  0
 46 44  1  0
 46 47  1  0
 46 45  1  0
 48  2  1  0
 49 62  1  0
 50 55  1  0
 51 52  1  0
 51 50  1  0
 53 52  1  0
 53 66  1  0
 53 54  1  0
 55 49  1  0
 55 54  1  0
 56 49  2  0
 58 57  1  0
 59 57  1  0
 60 62  1  0
 60 61  1  0
 61 48  1  0
 61 58  1  0
 62 59  1  0
 63 64  2  0
 64 83  1  0
 65 68  1  0
 65 64  1  0
 66 67  1  0
 66 63  1  0
 67 65  2  0
 68 69  1  0
 69 70  2  0
 71 74  1  0
 71 70  1  0
 72 71  2  0
 73 72  1  0
 73 68  2  0
 74 75  1  0
 75 76  1  0
 76 77  2  0
 78 77  1  0
 78 82  1  0
 79 78  2  0
 80 75  2  0
 80 79  1  0
 81 80  1  0
 83 84  1  0
 84 87  1  0
 84 86  1  0
 85 83  2  0
 88 63  1  0
 88 89  1  0
 90 88  1  0
M  ISO  4   6 101   7 101  49 100  62 100
M  END
>  <TORSDO>  (77) 
F 20

>  <SCORE>  (77) 
-12.179

>  <name>  (77) 
76

>  <ligand_id>  (77) 
76

>  <original_smiles>  (77) 
[H]c1c([H])c([H])c2c(c1[H])C([H])([H])C([H])([H])C([H])([H])C2([H])N([H])C(=O)C1([H])N(C(=O)C([H])(N([H])C(=O)C([H])(N([H])C([H])([H])[H])C([H])([H])[H])C(C([H])([H])[H])(C([H])([H])[H])C([H])([H])[H])C([H])([H])c2c([H])c(OC([H])([H])C([H])([H])C([H])(C([H])([H])[H])C([H])(C([H])([H])[H])C([H])([H])C3([H])C([H])([H])N(C(=O)N4C([H])([H])C([H])([H])C([H])([H])C([H])(n5nc(-c6c([H])c([H])c(Oc7c([H])c([H])c(F)c([H])c7F)c([H])c6[H])c(C(=O)N([H])[H])c5N([H])[H])C4([H])[H])C([H])([H])C([H])([H])C3([H])[H])c([H])c([H])c2C1([H])[H]

>  <smiles>  (77) 
[H]c1c([H])c([H])c2c(c1[H])C([H])([H])C([H])([H])C([H])([H])C2([H])N([H])C(=O)C1([H])N(C(=O)C([H])(N([H])C(=O)C([H])(N([H])C([H])([H])[H])C([H])([H])[H])C(C([H])([H])[H])(C([H])([H])[H])C([H])([H])[H])C([H])([H])c2c([H])c(OC([H])([H])C([H])([H])C([H])(C([H])([H])[H])C([H])(C([H])([H])[H])C([H])([H])C3([H])C([H])([H])N(C(=O)N4C([H])([H])C([H])([H])C([H])([H])C([H])(n5nc(-c6c([H])c([H])c(Oc7c([H])c([H])c(F)c([H])c7F)c([H])c6[H])c(C(=O)N([H])[H])c5N([H])[H])C4([H])[H])C([H])([H])C([H])([H])C3([H])[H])c([H])c([H])c2C1([H])[H]

$$$$
77:0:0
     RDKit          3D

 92 99  0  0  1  0  0  0  0  0999 V2000
  -29.5460  -19.2860   20.2340 C   0  0  0  0  0  0  0  0  0  0  0  0
  -30.2260  -20.4280   20.4900 N   0  0  0  0  0  0  0  0  0  0  0  0
  -28.3220  -19.2610   20.0800 O   0  0  0  0  0  0  0  0  0  0  0  0
  -31.2320  -20.3110   20.5520 H   0  0  0  0  0  0  0  0  0  0  0  0
  -30.4310  -17.9600   20.2370 C   0  0  0  0  0  0  0  0  0  0  0  0
  -31.6420  -18.0220   19.9880 O   0  0  0  0  0  0  0  0  0  0  0  0
  -29.7360  -16.5910   20.6260 C   0  0  0  0  0  3  0  0  0  0  0  0
  -30.9420  -14.6110   19.5850 C   0  0  0  0  0  0  0  0  0  0  0  0
  -30.3420  -12.6050   18.2520 C   0  0  0  0  0  2  0  0  0  0  0  0
  -29.2300  -12.9440   17.2380 C   0  0  0  0  0  2  0  0  0  0  0  0
  -27.8420  -12.7770   17.8870 C   0  0  0  0  0  2  0  0  0  0  0  0
  -27.7390  -13.4830   19.2660 C   0  0  0  0  0  3  0  0  0  0  0  0
  -28.9530  -13.1420   20.1610 C   0  0  0  0  0  2  0  0  0  0  0  0
  -30.1780  -13.4880   19.4230 N   0  0  0  0  0  0  0  0  0  0  0  0
  -31.9190  -14.8440   18.8710 O   0  0  0  0  0  0  0  0  0  0  0  0
  -30.6790  -15.4330   20.6230 N   0  0  0  0  0  0  0  0  0  0  0  0
  -31.5580  -15.7710   20.9870 H   0  0  0  0  0  0  0  0  0  0  0  0
  -25.5040  -14.0440   20.4110 C   0  0  0  0  0  0  0  0  0  0  0  0
  -24.4910  -13.2540   20.8820 C   0  0  0  0  0  0  0  0  0  0  0  0
  -24.9050  -11.9060   20.6570 C   0  0  0  0  0  0  0  0  0  0  0  0
  -26.4750  -13.1770   19.9340 N   0  0  0  0  0  0  0  0  0  0  0  0
  -26.1260  -11.8800   20.1380 N   0  0  0  0  0  0  0  0  0  0  0  0
  -24.1860  -10.6390   20.8500 C   0  0  0  0  0  0  0  0  0  0  0  0
  -24.6480   -9.6580   21.7560 C   0  0  0  0  0  3  0  0  0  0  0  0
  -23.9280   -8.4600   21.9420 C   0  0  0  0  0  3  0  0  0  0  0  0
  -22.7320   -8.2320   21.2220 C   0  0  0  0  0  0  0  0  0  0  0  0
  -22.2860   -9.1990   20.3050 C   0  0  0  0  0  3  0  0  0  0  0  0
  -23.0070  -10.3900   20.1190 C   0  0  0  0  0  3  0  0  0  0  0  0
  -21.9810   -7.0860   21.3160 O   0  0  0  0  0  0  0  0  0  0  0  0
  -21.8300   -6.4220   22.5070 C   0  0  0  0  0  0  0  0  0  0  0  0
  -21.2840   -7.0500   23.6490 C   0  0  0  0  0  3  0  0  0  0  0  0
  -21.0800   -6.3090   24.8290 C   0  0  0  0  0  3  0  0  0  0  0  0
  -21.4120   -4.9420   24.8720 C   0  0  0  0  0  0  0  0  0  0  0  0
  -21.9520   -4.3140   23.7360 C   0  0  0  0  0  3  0  0  0  0  0  0
  -22.1570   -5.0510   22.5570 C   0  0  0  0  0  0  0  0  0  0  0  0
  -22.6590   -4.4350   21.4600 F   0  0  0  0  0  0  0  0  0  0  0  0
  -21.2070   -4.2300   26.0050 F   0  0  0  0  0  0  0  0  0  0  0  0
  -23.1690  -13.7190   21.4180 C   0  0  0  0  0  0  0  0  0  0  0  0
  -22.5820  -12.9740   22.3480 N   0  0  0  0  0  0  0  0  0  0  0  0
  -22.6690  -14.7810   21.0470 O   0  0  0  0  0  0  0  0  0  0  0  0
  -22.9980  -12.1150   22.6740 H   0  0  0  0  0  0  0  0  0  0  0  0
  -21.7010  -13.2710   22.7410 H   0  0  0  0  0  0  0  0  0  0  0  0
  -25.6750  -15.4260   20.3330 N   0  0  0  0  0  0  0  0  0  0  0  0
  -24.9570  -16.0710   20.6380 H   0  0  0  0  0  0  0  0  0  0  0  0
  -26.4760  -15.8890   19.9250 H   0  0  0  0  0  0  0  0  0  0  0  0
  -30.1640  -17.2200   23.1440 C   0  0  0  0  0  1  0  0  0  0  0  0
  -29.1780  -16.7040   22.0740 C   0  0  0  0  0  2  0  0  0  0  0  0
  -29.6680  -21.7070   20.9930 C   0  0  0  0  0  2  0  0  0  0  0  0
  -29.4630  -22.8500   19.9490 C   0  0  0  0  0  2  0  0  0  0  0  0
  -28.9680  -24.2110   20.5560 C   0  0  0  0  0  3  0  0  0  0  0  0
  -28.8730  -25.4070   19.5530 C   0  0  0  0  0  3  0  0  0  0  0  0
  -28.6580  -26.7120   20.1540 O   0  0  0  0  0  0  0  0  0  0  0  0
  -24.6030  -31.7470   23.1710 C   0  0  0  0  0  0  0  0  0  0  0  0
  -27.4370  -27.3750   20.1120 C   0  0  0  0  0  0  0  0  0  0  0  0
  -23.4630  -30.3010   21.5220 C   0  0  0  0  0  3  0  0  0  0  0  0
  -24.9850  -28.8170   20.1070 C   0  0  0  0  0  0  0  0  0  0  0  0
  -25.9780  -30.7500   21.3430 C   0  0  0  0  0  2  0  0  0  0  0  0
  -26.1210  -29.3800   20.6990 C   0  0  0  0  0  0  0  0  0  0  0  0
  -27.3440  -28.6680   20.6940 C   0  0  0  0  0  3  0  0  0  0  0  0
  -26.2710  -26.8290   19.5260 C   0  0  0  0  0  3  0  0  0  0  0  0
  -25.0560  -27.5430   19.5190 C   0  0  0  0  0  3  0  0  0  0  0  0
  -23.7100  -29.6330   20.1430 C   0  0  0  0  0  2  0  0  0  0  0  0
  -24.6990  -30.9490   22.0700 N   0  0  0  0  0  0  0  0  0  0  0  0
  -23.5090  -31.9770   23.7040 O   0  0  0  0  0  0  0  0  0  0  0  0
  -22.8460  -29.2530   22.4780 C   0  0  0  0  0  0  0  0  0  0  0  0
  -21.5380  -28.9930   22.3180 N   0  0  0  0  0  0  0  0  0  0  0  0
  -23.5430  -28.6770   23.3190 O   0  0  0  0  0  0  0  0  0  0  0  0
  -21.0340  -29.5130   21.6120 H   0  0  0  0  0  0  0  0  0  0  0  0
  -18.2340  -27.5860   22.7270 C   0  0  0  0  0  0  0  0  0  0  0  0
  -20.7570  -28.0170   23.0800 C   0  0  0  0  0  3  0  0  0  0  0  0
  -20.9720  -26.5850   22.5390 C   0  0  0  0  0  2  0  0  0  0  0  0
  -19.9320  -26.1730   21.4920 C   0  0  0  0  0  2  0  0  0  0  0  0
  -18.5220  -26.2380   22.0860 C   0  0  0  0  0  2  0  0  0  0  0  0
  -19.2840  -28.4270   23.1790 C   0  0  0  0  0  0  0  0  0  0  0  0
  -18.9640  -29.6850   23.7370 C   0  0  0  0  0  3  0  0  0  0  0  0
  -17.6250  -30.1040   23.8440 C   0  0  0  0  0  3  0  0  0  0  0  0
  -16.5880  -29.2620   23.4090 C   0  0  0  0  0  3  0  0  0  0  0  0
  -16.8920  -28.0040   22.8580 C   0  0  0  0  0  3  0  0  0  0  0  0
  -25.8610  -32.4290   23.7980 C   0  0  0  0  0  3  0  0  0  0  0  0
  -25.4960  -33.8150   24.1200 N   0  0  0  0  0  0  0  0  0  0  0  0
  -25.7820  -34.8740   23.3530 C   0  0  0  0  0  0  0  0  0  0  0  0
  -26.4520  -34.7920   22.3210 O   0  0  0  0  0  0  0  0  0  0  0  0
  -24.8990  -33.9510   24.9230 H   0  0  0  0  0  0  0  0  0  0  0  0
  -23.9750  -36.5860   22.9940 C   0  0  0  0  0  1  0  0  0  0  0  0
  -25.2370  -36.2450   23.8020 C   0  0  0  0  0  3  0  0  0  0  0  0
  -27.3360  -37.2270   24.6150 C   0  0  0  0  0  1  0  0  0  0  0  0
  -26.2230  -37.3400   23.6740 N   0  0  0  0  0  0  0  0  0  0  0  0
  -25.7780  -38.2430   23.8170 H   0  0  0  0  0  0  0  0  0  0  0  0
  -26.4000  -31.6810   25.0780 C   0  0  1  0  0  0  0  0  0  0  0  0
  -25.3090  -31.3880   26.1350 C   0  0  0  0  0  1  0  0  0  0  0  0
  -27.0540  -30.3330   24.6910 C   0  0  0  0  0  1  0  0  0  0  0  0
  -27.5040  -32.5290   25.7520 C   0  0  0  0  0  1  0  0  0  0  0  0
  1  5  1  0
  1  2  1  0
  2  4  1  0
  2 48  1  0
  3  1  2  0
  5  7  1  0
  6  5  2  0
  7 47  1  0
  8 16  1  0
  9 14  1  0
 10 11  1  0
 10  9  1  0
 12 11  1  0
 12 21  1  0
 12 13  1  0
 14  8  1  0
 14 13  1  0
 15  8  2  0
 16  7  1  0
 16 17  1  0
 18 19  2  0
 19 38  1  0
 20 23  1  0
 20 19  1  0
 21 22  1  0
 21 18  1  0
 22 20  2  0
 23 24  1  0
 24 25  2  0
 26 29  1  0
 26 25  1  0
 27 26  2  0
 28 27  1  0
 28 23  2  0
 29 30  1  0
 30 35  2  0
 30 31  1  0
 31 32  2  0
 32 33  1  0
 33 37  1  0
 34 33  2  0
 35 34  1  0
 36 35  1  0
 38 39  1  0
 39 41  1  0
 39 42  1  0
 40 38  2  0
 43 18  1  0
 43 44  1  0
 45 43  1  0
 47 46  1  0
 49 50  1  0
 49 48  1  0
 51 52  1  0
 51 50  2  0
 53 64  2  0
 54 52  1  0
 54 59  1  0
 55 63  1  0
 55 65  1  0
 56 62  1  0
 56 58  1  0
 57 63  1  0
 58 57  1  0
 59 58  2  0
 60 54  2  0
 61 60  1  0
 61 56  2  0
 62 55  1  0
 63 53  1  0
 65 67  2  0
 66 65  1  0
 68 66  1  0
 69 78  2  0
 69 74  1  0
 70 66  1  0
 70 74  1  0
 71 70  1  0
 72 73  1  0
 72 71  1  0
 73 69  1  0
 74 75  2  0
 75 76  1  0
 77 76  2  0
 78 77  1  0
 79 53  1  0
 79 80  1  0
 79 89  1  0
 80 83  1  0
 81 85  1  0
 81 80  1  0
 82 81  2  0
 85 84  1  0
 87 85  1  0
 87 88  1  0
 87 86  1  0
 89 92  1  1
 89 90  1  0
 91 89  1  0
M  ISO  4   8 100  16 100  51 101  52 101
M  END
>  <TORSDO>  (78) 
F 23

>  <SCORE>  (78) 
-9.468

>  <name>  (78) 
77

>  <ligand_id>  (78) 
77

>  <original_smiles>  (78) 
[H]c1c([H])c([H])c2c(c1[H])C([H])([H])C([H])([H])C([H])([H])C2([H])N([H])C(=O)C1([H])N(C(=O)C([H])(N([H])C(=O)C([H])(N([H])C([H])([H])[H])C([H])([H])[H])C(C([H])([H])[H])(C([H])([H])[H])C([H])([H])[H])C([H])([H])c2c([H])c(OC([H])([H])C([H])([H])C([H])([H])C([H])([H])N([H])C(=O)C(=O)C([H])(N([H])C(=O)N3C([H])([H])C([H])([H])C([H])([H])C([H])(n4nc(-c5c([H])c([H])c(Oc6c([H])c([H])c(F)c([H])c6F)c([H])c5[H])c(C(=O)N([H])[H])c4N([H])[H])C3([H])[H])C([H])([H])C([H])([H])[H])c([H])c([H])c2C1([H])[H]

>  <smiles>  (78) 
[H]c1c([H])c([H])c2c(c1[H])C([H])([H])C([H])([H])C([H])([H])C2([H])N([H])C(=O)C1([H])N(C(=O)C([H])(N([H])C(=O)C([H])(N([H])C([H])([H])[H])C([H])([H])[H])C(C([H])([H])[H])(C([H])([H])[H])C([H])([H])[H])C([H])([H])c2c([H])c(OC([H])([H])C([H])([H])C([H])([H])C([H])([H])N([H])C(=O)C(=O)C([H])(N([H])C(=O)N3C([H])([H])C([H])([H])C([H])([H])C([H])(n4nc(-c5c([H])c([H])c(Oc6c([H])c([H])c(F)c([H])c6F)c([H])c5[H])c(C(=O)N([H])[H])c4N([H])[H])C3([H])[H])C([H])([H])C([H])([H])[H])c([H])c([H])c2C1([H])[H]

$$$$
78:0:0
     RDKit          3D

 87 94  0  0  1  0  0  0  0  0999 V2000
  -29.1790  -22.5050   19.9890 C   0  0  0  0  0  0  0  0  0  0  0  0
  -29.4750  -22.4550   18.7930 O   0  0  0  0  0  0  0  0  0  0  0  0
  -29.0030  -21.1520   20.7900 C   0  0  0  0  0  3  0  0  0  0  0  0
  -29.7970  -19.8580   20.2850 C   0  0  0  0  0  3  0  0  0  0  0  0
  -29.3590  -18.3970   20.7670 C   0  0  0  0  0  3  0  0  0  0  0  0
  -30.3520  -17.1930   20.4280 C   0  0  0  0  0  3  0  0  0  0  0  0
  -30.6270  -14.6440   20.3560 C   0  0  0  0  0  0  0  0  0  0  0  0
  -30.3640  -12.4140   19.3000 C   0  0  0  0  0  2  0  0  0  0  0  0
  -29.4240  -12.5410   18.0810 C   0  0  0  0  0  2  0  0  0  0  0  0
  -27.9560  -12.3720   18.5190 C   0  0  0  0  0  2  0  0  0  0  0  0
  -27.5970  -13.2500   19.7500 C   0  0  0  0  0  3  0  0  0  0  0  0
  -28.6580  -13.1280   20.8670 C   0  0  0  0  0  2  0  0  0  0  0  0
  -29.9650  -13.4470   20.2790 N   0  0  0  0  0  0  0  0  0  0  0  0
  -31.7900  -14.7510   19.9630 O   0  0  0  0  0  0  0  0  0  0  0  0
  -29.9040  -15.7690   20.6650 N   0  0  0  0  0  0  0  0  0  0  0  0
  -28.9550  -15.6260   20.9710 H   0  0  0  0  0  0  0  0  0  0  0  0
  -25.2070  -13.8460   20.4770 C   0  0  0  0  0  0  0  0  0  0  0  0
  -24.1420  -13.0720   20.8530 C   0  0  0  0  0  0  0  0  0  0  0  0
  -24.6060  -11.7210   20.8270 C   0  0  0  0  0  0  0  0  0  0  0  0
  -26.2510  -12.9660   20.2420 N   0  0  0  0  0  0  0  0  0  0  0  0
  -25.8950  -11.6840   20.5140 N   0  0  0  0  0  0  0  0  0  0  0  0
  -23.8810  -10.4590   21.0230 C   0  0  0  0  0  0  0  0  0  0  0  0
  -24.3240   -9.4880   21.9490 C   0  0  0  0  0  3  0  0  0  0  0  0
  -23.6000   -8.2910   22.1320 C   0  0  0  0  0  3  0  0  0  0  0  0
  -22.4170   -8.0560   21.3910 C   0  0  0  0  0  0  0  0  0  0  0  0
  -21.9930   -9.0150   20.4540 C   0  0  0  0  0  3  0  0  0  0  0  0
  -22.7200  -10.2030   20.2680 C   0  0  0  0  0  3  0  0  0  0  0  0
  -21.6630   -6.9110   21.4840 O   0  0  0  0  0  0  0  0  0  0  0  0
  -21.6390   -6.1570   22.6310 C   0  0  0  0  0  0  0  0  0  0  0  0
  -21.2460   -6.7030   23.8720 C   0  0  0  0  0  3  0  0  0  0  0  0
  -21.1670   -5.8760   25.0120 C   0  0  0  0  0  3  0  0  0  0  0  0
  -21.4710   -4.5060   24.9100 C   0  0  0  0  0  0  0  0  0  0  0  0
  -21.8550   -3.9580   23.6730 C   0  0  0  0  0  3  0  0  0  0  0  0
  -21.9360   -4.7830   22.5360 C   0  0  0  0  0  0  0  0  0  0  0  0
  -22.2870   -4.2470   21.3430 F   0  0  0  0  0  0  0  0  0  0  0  0
  -21.3880   -3.7100   26.0020 F   0  0  0  0  0  0  0  0  0  0  0  0
  -22.7450  -13.5490   21.1260 C   0  0  0  0  0  0  0  0  0  0  0  0
  -22.0160  -12.8530   21.9930 N   0  0  0  0  0  0  0  0  0  0  0  0
  -22.3060  -14.5750   20.6080 O   0  0  0  0  0  0  0  0  0  0  0  0
  -22.3820  -12.0260   22.4390 H   0  0  0  0  0  0  0  0  0  0  0  0
  -21.0780  -13.1550   22.2140 H   0  0  0  0  0  0  0  0  0  0  0  0
  -25.3710  -15.2160   20.2930 N   0  0  0  0  0  0  0  0  0  0  0  0
  -24.6100  -15.8770   20.4070 H   0  0  0  0  0  0  0  0  0  0  0  0
  -26.2180  -15.6500   19.9480 H   0  0  0  0  0  0  0  0  0  0  0  0
  -29.0130  -23.9200   20.6750 C   0  0  0  0  0  3  0  0  0  0  0  0
  -28.1850  -25.0260   19.8870 C   0  0  0  0  0  3  0  0  0  0  0  0
  -28.3210  -26.4650   20.2350 O   0  0  0  0  0  0  0  0  0  0  0  0
  -24.6370  -31.8900   23.2290 C   0  0  0  0  0  0  0  0  0  0  0  0
  -27.2040  -27.3180   20.1530 C   0  0  0  0  0  0  0  0  0  0  0  0
  -23.4160  -30.4960   21.5980 C   0  0  0  0  0  3  0  0  0  0  0  0
  -24.8470  -28.9450   20.1580 C   0  0  0  0  0  0  0  0  0  0  0  0
  -25.9540  -30.8020   21.3980 C   0  0  0  0  0  2  0  0  0  0  0  0
  -26.0200  -29.4230   20.7510 C   0  0  0  0  0  0  0  0  0  0  0  0
  -27.2000  -28.6200   20.7440 C   0  0  0  0  0  3  0  0  0  0  0  0
  -26.0100  -26.9050   19.5130 C   0  0  0  0  0  3  0  0  0  0  0  0
  -24.8430  -27.6890   19.5320 C   0  0  0  0  0  3  0  0  0  0  0  0
  -23.6170  -29.8250   20.2150 C   0  0  0  0  0  2  0  0  0  0  0  0
  -24.6890  -31.0780   22.1320 N   0  0  0  0  0  0  0  0  0  0  0  0
  -23.5590  -32.1740   23.7700 O   0  0  0  0  0  0  0  0  0  0  0  0
  -22.7540  -29.4810   22.5600 C   0  0  0  0  0  0  0  0  0  0  0  0
  -21.4270  -29.3110   22.4420 N   0  0  0  0  0  0  0  0  0  0  0  0
  -23.4340  -28.8520   23.3740 O   0  0  0  0  0  0  0  0  0  0  0  0
  -20.9370  -29.8690   21.7570 H   0  0  0  0  0  0  0  0  0  0  0  0
  -18.0450  -28.1340   22.9620 C   0  0  0  0  0  0  0  0  0  0  0  0
  -20.6060  -28.3810   23.2190 C   0  0  0  0  0  3  0  0  0  0  0  0
  -20.6990  -26.9470   22.6460 C   0  0  0  0  0  2  0  0  0  0  0  0
  -19.5900  -26.6280   21.6380 C   0  0  0  0  0  2  0  0  0  0  0  0
  -18.2120  -26.7820   22.2880 C   0  0  0  0  0  2  0  0  0  0  0  0
  -19.1700  -28.8920   23.3840 C   0  0  0  0  0  0  0  0  0  0  0  0
  -18.9610  -30.1570   23.9750 C   0  0  0  0  0  3  0  0  0  0  0  0
  -17.6600  -30.6660   24.1450 C   0  0  0  0  0  3  0  0  0  0  0  0
  -16.5500  -29.9060   23.7390 C   0  0  0  0  0  3  0  0  0  0  0  0
  -16.7430  -28.6420   23.1540 C   0  0  0  0  0  3  0  0  0  0  0  0
  -25.9280  -32.5160   23.8390 C   0  0  0  0  0  3  0  0  0  0  0  0
  -26.4520  -31.7410   25.1100 C   0  0  1  0  0  0  0  0  0  0  0  0
  -25.3670  -31.5060   26.1880 C   0  0  0  0  0  1  0  0  0  0  0  0
  -27.0240  -30.3600   24.7140 C   0  0  0  0  0  1  0  0  0  0  0  0
  -27.6130  -32.5290   25.7620 C   0  0  0  0  0  1  0  0  0  0  0  0
  -25.6280  -33.9150   24.1760 N   0  0  0  0  0  0  0  0  0  0  0  0
  -25.9550  -34.9680   23.4140 C   0  0  0  0  0  0  0  0  0  0  0  0
  -26.6130  -34.8640   22.3760 O   0  0  0  0  0  0  0  0  0  0  0  0
  -25.0440  -34.0710   24.9840 H   0  0  0  0  0  0  0  0  0  0  0  0
  -24.2270  -36.7660   23.0820 C   0  0  0  0  0  1  0  0  0  0  0  0
  -25.4770  -36.3580   23.8790 C   0  0  0  0  0  3  0  0  0  0  0  0
  -27.6250  -37.2320   24.6860 C   0  0  0  0  0  1  0  0  0  0  0  0
  -26.5120  -37.4070   23.7560 N   0  0  0  0  0  0  0  0  0  0  0  0
  -26.1110  -38.3280   23.9110 H   0  0  0  0  0  0  0  0  0  0  0  0
  1 45  1  0
  1  3  1  0
  2  1  2  0
  4  5  1  0
  4  3  2  0
  6 15  1  0
  6  5  2  0
  7 15  1  0
  8 13  1  0
  9 10  1  0
  9  8  1  0
 11 10  1  0
 11 20  1  0
 11 12  1  0
 13  7  1  0
 13 12  1  0
 14  7  2  0
 15 16  1  0
 17 18  2  0
 18 37  1  0
 19 18  1  0
 19 22  1  0
 20 17  1  0
 20 21  1  0
 21 19  2  0
 22 23  1  0
 23 24  2  0
 25 28  1  0
 25 24  1  0
 26 25  2  0
 27 26  1  0
 27 22  2  0
 28 29  1  0
 29 30  1  0
 30 31  2  0
 32 31  1  0
 32 36  1  0
 33 32  2  0
 34 29  2  0
 34 33  1  0
 35 34  1  0
 37 38  1  0
 38 41  1  0
 38 40  1  0
 39 37  2  0
 42 43  1  0
 42 17  1  0
 44 42  1  0
 46 47  1  0
 46 45  2  0
 48 59  2  0
 49 47  1  0
 49 54  1  0
 50 58  1  0
 50 60  1  0
 51 57  1  0
 51 53  1  0
 52 58  1  0
 53 52  1  0
 54 53  2  0
 55 56  1  0
 55 49  2  0
 56 51  2  0
 57 50  1  0
 58 48  1  0
 60 62  2  0
 61 60  1  0
 63 61  1  0
 64 73  2  0
 64 69  1  0
 65 61  1  0
 65 69  1  0
 66 65  1  0
 67 68  1  0
 67 66  1  0
 68 64  1  0
 69 70  2  0
 70 71  1  0
 72 71  2  0
 73 72  1  0
 74 48  1  0
 74 79  1  0
 74 75  1  0
 75 78  1  1
 75 76  1  0
 77 75  1  0
 79 82  1  0
 80 84  1  0
 80 79  1  0
 81 80  2  0
 84 83  1  0
 86 84  1  0
 86 87  1  0
 86 85  1  0
M  ISO  4   7 100  15 100  46 101  47 101
M  END
>  <TORSDO>  (79) 
F 22

>  <SCORE>  (79) 
-12.878

>  <name>  (79) 
78

>  <ligand_id>  (79) 
78

>  <original_smiles>  (79) 
[H]c1c([H])c([H])c2c(c1[H])C([H])([H])C([H])([H])C([H])([H])C2([H])N([H])C(=O)C1([H])N(C(=O)C([H])(N([H])C(=O)C([H])(N([H])C([H])([H])[H])C([H])([H])[H])C(C([H])([H])[H])(C([H])([H])[H])C([H])([H])[H])C([H])([H])c2c([H])c(OC([H])([H])C([H])([H])C(=O)C([H])([H])C([H])([H])C([H])([H])C([H])([H])N([H])C(=O)N3C([H])([H])C([H])([H])C([H])([H])C([H])(n4nc(-c5c([H])c([H])c(Oc6c([H])c([H])c(F)c([H])c6F)c([H])c5[H])c(C(=O)N([H])[H])c4N([H])[H])C3([H])[H])c([H])c([H])c2C1([H])[H]

>  <smiles>  (79) 
[H]c1c([H])c([H])c2c(c1[H])C([H])([H])C([H])([H])C([H])([H])C2([H])N([H])C(=O)C1([H])N(C(=O)C([H])(N([H])C(=O)C([H])(N([H])C([H])([H])[H])C([H])([H])[H])C(C([H])([H])[H])(C([H])([H])[H])C([H])([H])[H])C([H])([H])c2c([H])c(OC([H])([H])C([H])([H])C(=O)C([H])([H])C([H])([H])C([H])([H])C([H])([H])N([H])C(=O)N3C([H])([H])C([H])([H])C([H])([H])C([H])(n4nc(-c5c([H])c([H])c(Oc6c([H])c([H])c(F)c([H])c6F)c([H])c5[H])c(C(=O)N([H])[H])c4N([H])[H])C3([H])[H])c([H])c([H])c2C1([H])[H]

$$$$
79:0:0
     RDKit          3D

 92100  0  0  1  0  0  0  0  0999 V2000
  -29.9720  -18.8280   18.8480 C   0  0  0  0  0  2  0  0  0  0  0  0
  -28.7410  -19.4870   20.6830 C   0  0  0  0  0  2  0  0  0  0  0  0
  -29.7480  -20.4380   18.8110 C   0  0  0  0  0  3  0  0  0  0  0  0
  -29.1490  -21.0710   20.1500 C   0  0  0  0  0  3  0  0  0  0  0  0
  -29.7800  -18.1870   20.2540 C   0  0  0  0  0  3  0  0  0  0  0  0
  -30.3710  -15.2730   20.2490 C   0  0  0  0  0  0  0  0  0  0  0  0
  -30.3480  -12.8390   19.3550 C   0  0  0  0  0  2  0  0  0  0  0  0
  -29.4130  -12.6800   18.1300 C   0  0  0  0  0  2  0  0  0  0  0  0
  -27.9520  -12.4510   18.5650 C   0  0  0  0  0  2  0  0  0  0  0  0
  -27.5390  -13.3520   19.7580 C   0  0  0  0  0  3  0  0  0  0  0  0
  -28.6120  -13.4430   20.8610 C   0  0  0  0  0  2  0  0  0  0  0  0
  -29.8250  -13.9620   20.2110 N   0  0  0  0  0  0  0  0  0  0  0  0
  -31.5900  -15.2940   20.0230 O   0  0  0  0  0  0  0  0  0  0  0  0
  -29.5780  -16.5250   20.3330 N   0  0  0  0  0  0  0  0  0  0  0  0
  -28.6080  -16.2830   20.4750 H   0  0  0  0  0  0  0  0  0  0  0  0
  -25.1790  -13.8920   20.5440 C   0  0  0  0  0  0  0  0  0  0  0  0
  -24.1260  -13.1070   20.9190 C   0  0  0  0  0  0  0  0  0  0  0  0
  -24.5960  -11.7570   20.8690 C   0  0  0  0  0  0  0  0  0  0  0  0
  -26.2220  -13.0220   20.2780 N   0  0  0  0  0  0  0  0  0  0  0  0
  -25.8860  -11.7320   20.5450 N   0  0  0  0  0  0  0  0  0  0  0  0
  -23.8720  -10.4920   21.0560 C   0  0  0  0  0  0  0  0  0  0  0  0
  -24.3100   -9.5190   21.9800 C   0  0  0  0  0  3  0  0  0  0  0  0
  -23.5820   -8.3230   22.1550 C   0  0  0  0  0  3  0  0  0  0  0  0
  -22.4010   -8.0890   21.4100 C   0  0  0  0  0  0  0  0  0  0  0  0
  -21.9790   -9.0540   20.4790 C   0  0  0  0  0  3  0  0  0  0  0  0
  -22.7080  -10.2430   20.3010 C   0  0  0  0  0  3  0  0  0  0  0  0
  -21.6460   -6.9440   21.4960 O   0  0  0  0  0  0  0  0  0  0  0  0
  -21.6050   -6.1960   22.6440 C   0  0  0  0  0  0  0  0  0  0  0  0
  -21.1780   -6.7400   23.8760 C   0  0  0  0  0  3  0  0  0  0  0  0
  -21.0840   -5.9160   25.0150 C   0  0  0  0  0  3  0  0  0  0  0  0
  -21.4080   -4.5480   24.9260 C   0  0  0  0  0  0  0  0  0  0  0  0
  -21.8270   -4.0030   23.7000 C   0  0  0  0  0  3  0  0  0  0  0  0
  -21.9220   -4.8250   22.5610 C   0  0  0  0  0  0  0  0  0  0  0  0
  -22.3070   -4.2900   21.3770 F   0  0  0  0  0  0  0  0  0  0  0  0
  -21.3090   -3.7540   26.0190 F   0  0  0  0  0  0  0  0  0  0  0  0
  -22.7310  -13.5790   21.2050 C   0  0  0  0  0  0  0  0  0  0  0  0
  -22.0110  -12.8750   22.0710 N   0  0  0  0  0  0  0  0  0  0  0  0
  -22.2900  -14.6080   20.6930 O   0  0  0  0  0  0  0  0  0  0  0  0
  -22.3810  -12.0410   22.5020 H   0  0  0  0  0  0  0  0  0  0  0  0
  -21.0770  -13.1790   22.3070 H   0  0  0  0  0  0  0  0  0  0  0  0
  -25.3310  -15.2650   20.3760 N   0  0  0  0  0  0  0  0  0  0  0  0
  -24.5550  -15.9070   20.5000 H   0  0  0  0  0  0  0  0  0  0  0  0
  -26.1530  -15.7070   19.9860 H   0  0  0  0  0  0  0  0  0  0  0  0
  -31.0310  -21.1530   18.3610 C   0  0  0  0  0  0  0  0  0  0  0  0
  -30.9590  -21.9460   17.2980 N   0  0  0  0  0  0  0  0  0  0  0  0
  -32.0930  -20.9740   18.9520 O   0  0  0  0  0  0  0  0  0  0  0  0
  -30.0830  -22.0670   16.8100 H   0  0  0  0  0  0  0  0  0  0  0  0
  -31.7780  -22.4390   16.9640 H   0  0  0  0  0  0  0  0  0  0  0  0
  -27.6290  -22.7630   18.6160 C   0  0  0  0  0  1  0  0  0  0  0  0
  -28.2230  -22.6440   20.0250 C   0  0  0  0  0  3  0  0  0  0  0  0
  -28.4280  -24.3410   20.6180 C   0  0  0  0  0  2  0  0  0  0  0  0
  -28.2830  -25.9260   20.1530 O   0  0  0  0  0  0  0  0  0  0  0  0
  -24.6350  -31.8520   23.2160 C   0  0  0  0  0  0  0  0  0  0  0  0
  -27.2160  -26.9620   20.2430 C   0  0  0  0  0  0  0  0  0  0  0  0
  -23.4490  -30.4350   21.5850 C   0  0  0  0  0  3  0  0  0  0  0  0
  -24.9060  -28.8240   20.1810 C   0  0  0  0  0  0  0  0  0  0  0  0
  -26.0130  -30.6650   21.4360 C   0  0  0  0  0  2  0  0  0  0  0  0
  -26.0950  -29.2470   20.7950 C   0  0  0  0  0  0  0  0  0  0  0  0
  -27.2470  -28.3390   20.7880 C   0  0  0  0  0  3  0  0  0  0  0  0
  -25.9900  -26.6810   19.6050 C   0  0  0  0  0  3  0  0  0  0  0  0
  -24.8800  -27.5630   19.5630 C   0  0  0  0  0  3  0  0  0  0  0  0
  -23.6840  -29.7390   20.2150 C   0  0  0  0  0  2  0  0  0  0  0  0
  -24.7210  -31.0100   22.1350 N   0  0  0  0  0  0  0  0  0  0  0  0
  -23.5430  -32.1440   23.7320 O   0  0  0  0  0  0  0  0  0  0  0  0
  -22.7540  -29.4470   22.5580 C   0  0  0  0  0  0  0  0  0  0  0  0
  -21.4240  -29.2840   22.4370 N   0  0  0  0  0  0  0  0  0  0  0  0
  -23.4200  -28.8280   23.3910 O   0  0  0  0  0  0  0  0  0  0  0  0
  -20.9460  -29.8360   21.7400 H   0  0  0  0  0  0  0  0  0  0  0  0
  -18.0390  -28.0790   22.9510 C   0  0  0  0  0  0  0  0  0  0  0  0
  -20.5980  -28.3500   23.2110 C   0  0  0  0  0  3  0  0  0  0  0  0
  -20.7000  -26.9160   22.6390 C   0  0  0  0  0  2  0  0  0  0  0  0
  -19.5970  -26.5890   21.6270 C   0  0  0  0  0  2  0  0  0  0  0  0
  -18.2170  -26.7290   22.2730 C   0  0  0  0  0  2  0  0  0  0  0  0
  -19.1560  -28.8470   23.3750 C   0  0  0  0  0  0  0  0  0  0  0  0
  -18.9320  -30.1060   23.9750 C   0  0  0  0  0  3  0  0  0  0  0  0
  -17.6260  -30.6000   24.1470 C   0  0  0  0  0  3  0  0  0  0  0  0
  -16.5240  -29.8290   23.7410 C   0  0  0  0  0  3  0  0  0  0  0  0
  -16.7310  -28.5700   23.1510 C   0  0  0  0  0  3  0  0  0  0  0  0
  -25.9000  -32.5030   23.8500 C   0  0  0  0  0  3  0  0  0  0  0  0
  -26.4040  -31.7500   25.1470 C   0  0  1  0  0  0  0  0  0  0  0  0
  -25.2970  -31.5240   26.2050 C   0  0  0  0  0  1  0  0  0  0  0  0
  -26.9920  -30.3670   24.7880 C   0  0  0  0  0  1  0  0  0  0  0  0
  -27.5510  -32.5510   25.8080 C   0  0  0  0  0  1  0  0  0  0  0  0
  -25.5820  -33.9060   24.1750 N   0  0  0  0  0  0  0  0  0  0  0  0
  -25.9100  -34.9630   23.4210 C   0  0  0  0  0  0  0  0  0  0  0  0
  -26.5770  -34.8610   22.3890 O   0  0  0  0  0  0  0  0  0  0  0  0
  -24.9930  -34.0590   24.9810 H   0  0  0  0  0  0  0  0  0  0  0  0
  -24.1790  -36.7580   23.0700 C   0  0  0  0  0  1  0  0  0  0  0  0
  -25.4220  -36.3530   23.8810 C   0  0  0  0  0  3  0  0  0  0  0  0
  -27.5530  -37.2410   24.7160 C   0  0  0  0  0  1  0  0  0  0  0  0
  -26.4550  -37.4070   23.7690 N   0  0  0  0  0  0  0  0  0  0  0  0
  -26.0470  -38.3270   23.9170 H   0  0  0  0  0  0  0  0  0  0  0  0
  1  5  1  0
  3 44  1  0
  3  1  1  0
  3  4  1  0
  4 50  1  0
  4  2  1  0
  5 14  1  0
  5  2  1  0
  6 14  1  0
  7 12  1  0
  8  9  1  0
  8  7  1  0
 10  9  1  0
 10 19  1  0
 10 11  1  0
 12  6  1  0
 12 11  1  0
 13  6  2  0
 14 15  1  0
 16 17  2  0
 17 36  1  0
 18 17  1  0
 18 21  1  0
 19 16  1  0
 19 20  1  0
 20 18  2  0
 21 22  1  0
 22 23  2  0
 24 27  1  0
 24 23  1  0
 25 24  2  0
 26 25  1  0
 26 21  2  0
 27 28  1  0
 28 29  1  0
 29 30  2  0
 31 30  1  0
 31 35  1  0
 32 31  2  0
 33 28  2  0
 33 32  1  0
 34 33  1  0
 36 37  1  0
 37 40  1  0
 37 39  1  0
 38 36  2  0
 41 42  1  0
 41 16  1  0
 43 41  1  0
 44 46  2  0
 45 44  1  0
 47 45  1  0
 48 45  1  0
 50 49  1  0
 50 51  1  0
 52 54  1  0
 52 51  1  0
 53 64  2  0
 54 59  1  0
 55 63  1  0
 55 65  1  0
 56 62  1  0
 56 58  1  0
 57 63  1  0
 58 57  1  0
 59 58  2  0
 60 54  2  0
 61 60  1  0
 61 56  2  0
 62 55  1  0
 63 53  1  0
 65 67  2  0
 66 65  1  0
 68 66  1  0
 69 78  2  0
 69 74  1  0
 70 66  1  0
 70 74  1  0
 71 70  1  0
 72 73  1  0
 72 71  1  0
 73 69  1  0
 74 75  2  0
 75 76  1  0
 77 76  2  0
 78 77  1  0
 79 53  1  0
 79 84  1  0
 79 80  1  0
 80 83  1  1
 80 81  1  0
 82 80  1  0
 84 87  1  0
 85 89  1  0
 85 84  1  0
 86 85  2  0
 89 88  1  0
 91 89  1  0
 91 92  1  0
 91 90  1  0
M  ISO  4   6 100  14 100  51 101  52 101
M  END
>  <TORSDO>  (80) 
F 19

>  <SCORE>  (80) 
-16.106

>  <name>  (80) 
79

>  <ligand_id>  (80) 
79

>  <original_smiles>  (80) 
[H]c1c([H])c([H])c2c(c1[H])C([H])([H])C([H])([H])C([H])([H])C2([H])N([H])C(=O)C1([H])N(C(=O)C([H])(N([H])C(=O)C([H])(N([H])C([H])([H])[H])C([H])([H])[H])C(C([H])([H])[H])(C([H])([H])[H])C([H])([H])[H])C([H])([H])c2c([H])c(OC([H])([H])C([H])(C([H])([H])[H])C3([H])C([H])([H])C([H])(N([H])C(=O)N4C([H])([H])C([H])([H])C([H])([H])C([H])(n5nc(-c6c([H])c([H])c(Oc7c([H])c([H])c(F)c([H])c7F)c([H])c6[H])c(C(=O)N([H])[H])c5N([H])[H])C4([H])[H])C([H])([H])C3([H])C(=O)N([H])[H])c([H])c([H])c2C1([H])[H]

>  <smiles>  (80) 
[H]c1c([H])c([H])c2c(c1[H])C([H])([H])C([H])([H])C([H])([H])C2([H])N([H])C(=O)C1([H])N(C(=O)C([H])(N([H])C(=O)C([H])(N([H])C([H])([H])[H])C([H])([H])[H])C(C([H])([H])[H])(C([H])([H])[H])C([H])([H])[H])C([H])([H])c2c([H])c(OC([H])([H])C([H])(C([H])([H])[H])C3([H])C([H])([H])C([H])(N([H])C(=O)N4C([H])([H])C([H])([H])C([H])([H])C([H])(n5nc(-c6c([H])c([H])c(Oc7c([H])c([H])c(F)c([H])c7F)c([H])c6[H])c(C(=O)N([H])[H])c5N([H])[H])C4([H])[H])C([H])([H])C3([H])C(=O)N([H])[H])c([H])c([H])c2C1([H])[H]

$$$$
80:0:0
     RDKit          3D

 87 94  0  0  1  0  0  0  0  0999 V2000
  -28.7480  -22.8670   20.5920 C   0  0  0  0  0  0  0  0  0  0  0  0
  -28.8120  -22.9310   21.8250 O   0  0  0  0  0  0  0  0  0  0  0  0
  -28.1760  -24.3280   19.8170 C   0  0  0  0  0  2  0  0  0  0  0  0
  -28.2220  -25.8920   20.3330 O   0  0  0  0  0  0  0  0  0  0  0  0
  -24.6280  -31.8460   23.2050 C   0  0  0  0  0  0  0  0  0  0  0  0
  -27.2010  -26.9730   20.2080 C   0  0  0  0  0  0  0  0  0  0  0  0
  -23.4340  -30.4400   21.5740 C   0  0  0  0  0  3  0  0  0  0  0  0
  -24.8870  -28.8340   20.1550 C   0  0  0  0  0  0  0  0  0  0  0  0
  -26.0010  -30.6570   21.4280 C   0  0  0  0  0  2  0  0  0  0  0  0
  -26.0710  -29.2480   20.7750 C   0  0  0  0  0  0  0  0  0  0  0  0
  -27.2190  -28.3370   20.7780 C   0  0  0  0  0  3  0  0  0  0  0  0
  -25.9880  -26.7090   19.5290 C   0  0  0  0  0  3  0  0  0  0  0  0
  -24.8710  -27.5860   19.5090 C   0  0  0  0  0  3  0  0  0  0  0  0
  -23.6630  -29.7480   20.2010 C   0  0  0  0  0  2  0  0  0  0  0  0
  -24.7080  -31.0080   22.1220 N   0  0  0  0  0  0  0  0  0  0  0  0
  -23.5380  -32.1390   23.7260 O   0  0  0  0  0  0  0  0  0  0  0  0
  -22.7390  -29.4510   22.5490 C   0  0  0  0  0  0  0  0  0  0  0  0
  -21.4080  -29.2930   22.4340 N   0  0  0  0  0  0  0  0  0  0  0  0
  -23.4060  -28.8280   23.3780 O   0  0  0  0  0  0  0  0  0  0  0  0
  -20.9220  -29.8380   21.7350 H   0  0  0  0  0  0  0  0  0  0  0  0
  -18.0200  -28.1010   22.9630 C   0  0  0  0  0  0  0  0  0  0  0  0
  -20.5840  -28.3630   23.2140 C   0  0  0  0  0  3  0  0  0  0  0  0
  -20.6810  -26.9290   22.6460 C   0  0  0  0  0  2  0  0  0  0  0  0
  -19.5750  -26.6050   21.6380 C   0  0  0  0  0  2  0  0  0  0  0  0
  -18.1940  -26.7520   22.2850 C   0  0  0  0  0  2  0  0  0  0  0  0
  -19.1430  -28.8660   23.3820 C   0  0  0  0  0  0  0  0  0  0  0  0
  -18.9240  -30.1260   23.9760 C   0  0  0  0  0  3  0  0  0  0  0  0
  -17.6200  -30.6290   24.1490 C   0  0  0  0  0  3  0  0  0  0  0  0
  -16.5150  -29.8610   23.7430 C   0  0  0  0  0  3  0  0  0  0  0  0
  -16.7150  -28.5990   23.1600 C   0  0  0  0  0  3  0  0  0  0  0  0
  -25.8980  -32.4950   23.8340 C   0  0  0  0  0  3  0  0  0  0  0  0
  -25.5760  -33.8950   24.1670 N   0  0  0  0  0  0  0  0  0  0  0  0
  -25.9050  -34.9590   23.4220 C   0  0  0  0  0  0  0  0  0  0  0  0
  -26.5760  -34.8650   22.3910 O   0  0  0  0  0  0  0  0  0  0  0  0
  -24.9810  -34.0410   24.9710 H   0  0  0  0  0  0  0  0  0  0  0  0
  -24.1740  -36.7560   23.0940 C   0  0  0  0  0  1  0  0  0  0  0  0
  -25.4220  -36.3480   23.8920 C   0  0  0  0  0  3  0  0  0  0  0  0
  -27.5640  -37.2330   24.7050 C   0  0  0  0  0  1  0  0  0  0  0  0
  -26.4530  -37.4020   23.7730 N   0  0  0  0  0  0  0  0  0  0  0  0
  -26.0490  -38.3220   23.9240 H   0  0  0  0  0  0  0  0  0  0  0  0
  -26.4090  -31.7330   25.1210 C   0  0  1  0  0  0  0  0  0  0  0  0
  -25.3150  -31.5070   26.1890 C   0  0  0  0  0  1  0  0  0  0  0  0
  -26.9950  -30.3510   24.7510 C   0  0  0  0  0  1  0  0  0  0  0  0
  -27.5580  -32.5320   25.7760 C   0  0  0  0  0  1  0  0  0  0  0  0
  -29.2660  -21.3210   19.9340 C   0  0  0  0  0  3  0  0  0  0  0  0
  -31.7640  -21.5270   20.6420 C   0  0  0  0  0  1  0  0  0  0  0  0
  -30.7430  -21.5000   19.4860 C   0  0  0  0  0  2  0  0  0  0  0  0
  -29.1940  -19.6370   20.5680 C   0  0  0  0  0  3  0  0  0  0  0  0
  -29.9760  -18.1150   20.0330 C   0  0  0  0  0  3  0  0  0  0  0  0
  -30.4660  -15.2390   20.2160 C   0  0  0  0  0  0  0  0  0  0  0  0
  -30.3860  -12.8170   19.3120 C   0  0  0  0  0  2  0  0  0  0  0  0
  -29.4570  -12.6790   18.0810 C   0  0  0  0  0  2  0  0  0  0  0  0
  -28.0010  -12.4360   18.5210 C   0  0  0  0  0  2  0  0  0  0  0  0
  -27.5770  -13.3580   19.6920 C   0  0  0  0  0  3  0  0  0  0  0  0
  -28.6410  -13.4660   20.8070 C   0  0  0  0  0  2  0  0  0  0  0  0
  -29.8780  -13.9450   20.1740 N   0  0  0  0  0  0  0  0  0  0  0  0
  -31.6700  -15.2380   19.9310 O   0  0  0  0  0  0  0  0  0  0  0  0
  -29.7250  -16.5050   20.3660 N   0  0  0  0  0  0  0  0  0  0  0  0
  -28.7580  -16.3130   20.5820 H   0  0  0  0  0  0  0  0  0  0  0  0
  -25.1990  -13.9000   20.4480 C   0  0  0  0  0  0  0  0  0  0  0  0
  -24.1430  -13.1190   20.8300 C   0  0  0  0  0  0  0  0  0  0  0  0
  -24.6200  -11.7730   20.8060 C   0  0  0  0  0  0  0  0  0  0  0  0
  -26.2490  -13.0340   20.2060 N   0  0  0  0  0  0  0  0  0  0  0  0
  -25.9130  -11.7460   20.4900 N   0  0  0  0  0  0  0  0  0  0  0  0
  -23.8990  -10.5070   21.0080 C   0  0  0  0  0  0  0  0  0  0  0  0
  -24.3450   -9.5460   21.9410 C   0  0  0  0  0  3  0  0  0  0  0  0
  -23.6250   -8.3480   22.1320 C   0  0  0  0  0  3  0  0  0  0  0  0
  -22.4420   -8.1020   21.3950 C   0  0  0  0  0  0  0  0  0  0  0  0
  -22.0130   -9.0540   20.4520 C   0  0  0  0  0  3  0  0  0  0  0  0
  -22.7350  -10.2440   20.2560 C   0  0  0  0  0  3  0  0  0  0  0  0
  -21.6920   -6.9560   21.4980 O   0  0  0  0  0  0  0  0  0  0  0  0
  -21.6690   -6.2120   22.6500 C   0  0  0  0  0  0  0  0  0  0  0  0
  -21.2800   -6.7680   23.8910 C   0  0  0  0  0  3  0  0  0  0  0  0
  -21.2020   -5.9490   25.0360 C   0  0  0  0  0  3  0  0  0  0  0  0
  -21.5030   -4.5760   24.9420 C   0  0  0  0  0  0  0  0  0  0  0  0
  -21.8860   -4.0210   23.7090 C   0  0  0  0  0  3  0  0  0  0  0  0
  -21.9630   -4.8370   22.5660 C   0  0  0  0  0  0  0  0  0  0  0  0
  -22.3120   -4.2920   21.3760 F   0  0  0  0  0  0  0  0  0  0  0  0
  -21.4240   -3.7870   26.0400 F   0  0  0  0  0  0  0  0  0  0  0  0
  -22.7430  -13.5890   21.1030 C   0  0  0  0  0  0  0  0  0  0  0  0
  -22.0190  -12.9000   21.9780 N   0  0  0  0  0  0  0  0  0  0  0  0
  -22.3000  -14.6070   20.5720 O   0  0  0  0  0  0  0  0  0  0  0  0
  -22.3880  -12.0790   22.4340 H   0  0  0  0  0  0  0  0  0  0  0  0
  -21.0800  -13.2030   22.1980 H   0  0  0  0  0  0  0  0  0  0  0  0
  -25.3400  -15.2730   20.2610 N   0  0  0  0  0  0  0  0  0  0  0  0
  -24.5480  -15.8980   20.3710 H   0  0  0  0  0  0  0  0  0  0  0  0
  -26.1590  -15.7370   19.8910 H   0  0  0  0  0  0  0  0  0  0  0  0
  1  2  2  0
  3  4  1  0
  3  1  1  0
  5 16  2  0
  6  4  1  0
  6 11  1  0
  7 15  1  0
  7 17  1  0
  8 14  1  0
  8 10  1  0
  9 15  1  0
 10 11  2  0
 10  9  1  0
 12  6  2  0
 13 12  1  0
 13  8  2  0
 14  7  1  0
 15  5  1  0
 17 19  2  0
 18 17  1  0
 20 18  1  0
 21 30  2  0
 21 26  1  0
 22 18  1  0
 22 26  1  0
 23 22  1  0
 24 25  1  0
 24 23  1  0
 25 21  1  0
 26 27  2  0
 27 28  1  0
 29 28  2  0
 30 29  1  0
 31  5  1  0
 31 32  1  0
 31 41  1  0
 32 35  1  0
 33 37  1  0
 33 32  1  0
 34 33  2  0
 37 36  1  0
 39 37  1  0
 39 40  1  0
 39 38  1  0
 41 44  1  1
 41 42  1  0
 43 41  1  0
 45 47  1  0
 45 48  1  0
 45  1  1  0
 47 46  1  0
 49 58  1  0
 49 48  2  0
 50 58  1  0
 51 56  1  0
 52 53  1  0
 52 51  1  0
 54 53  1  0
 54 63  1  0
 54 55  1  0
 56 50  1  0
 56 55  1  0
 57 50  2  0
 58 59  1  0
 60 61  2  0
 61 80  1  0
 62 61  1  0
 62 65  1  0
 63 60  1  0
 63 64  1  0
 64 62  2  0
 65 66  1  0
 66 67  2  0
 68 71  1  0
 68 67  1  0
 69 68  2  0
 70 69  1  0
 70 65  2  0
 71 72  1  0
 72 73  1  0
 73 74  2  0
 75 74  1  0
 75 79  1  0
 76 75  2  0
 77 72  2  0
 77 76  1  0
 78 77  1  0
 80 81  1  0
 81 84  1  0
 81 83  1  0
 82 80  2  0
 85 86  1  0
 85 60  1  0
 87 85  1  0
M  ISO  4   3 101   4 101  50 100  58 100
M  END
>  <TORSDO>  (81) 
F 21

>  <SCORE>  (81) 
-15.526

>  <name>  (81) 
80

>  <ligand_id>  (81) 
80

>  <original_smiles>  (81) 
[H]c1c([H])c([H])c2c(c1[H])C([H])([H])C([H])([H])C([H])([H])C2([H])N([H])C(=O)C1([H])N(C(=O)C([H])(N([H])C(=O)C([H])(N([H])C([H])([H])[H])C([H])([H])[H])C(C([H])([H])[H])(C([H])([H])[H])C([H])([H])[H])C([H])([H])c2c([H])c(OC([H])([H])C(=O)C([H])(C([H])([H])C([H])([H])[H])C([H])([H])C([H])([H])N([H])C(=O)N3C([H])([H])C([H])([H])C([H])([H])C([H])(n4nc(-c5c([H])c([H])c(Oc6c([H])c([H])c(F)c([H])c6F)c([H])c5[H])c(C(=O)N([H])[H])c4N([H])[H])C3([H])[H])c([H])c([H])c2C1([H])[H]

>  <smiles>  (81) 
[H]c1c([H])c([H])c2c(c1[H])C([H])([H])C([H])([H])C([H])([H])C2([H])N([H])C(=O)C1([H])N(C(=O)C([H])(N([H])C(=O)C([H])(N([H])C([H])([H])[H])C([H])([H])[H])C(C([H])([H])[H])(C([H])([H])[H])C([H])([H])[H])C([H])([H])c2c([H])c(OC([H])([H])C(=O)C([H])(C([H])([H])C([H])([H])[H])C([H])([H])C([H])([H])N([H])C(=O)N3C([H])([H])C([H])([H])C([H])([H])C([H])(n4nc(-c5c([H])c([H])c(Oc6c([H])c([H])c(F)c([H])c6F)c([H])c5[H])c(C(=O)N([H])[H])c4N([H])[H])C3([H])[H])c([H])c([H])c2C1([H])[H]

$$$$
81:0:0
     RDKit          3D

 97105  0  0  1  0  0  0  0  0999 V2000
  -26.1390  -23.4580   21.2270 C   0  0  0  0  0  2  0  0  0  0  0  0
  -25.9150  -24.7650   20.4380 C   0  0  0  0  0  2  0  0  0  0  0  0
  -27.5330  -23.9030   18.5740 C   0  0  0  0  0  2  0  0  0  0  0  0
  -27.0310  -22.3990   20.5400 C   0  0  0  0  0  3  0  0  0  0  0  0
  -26.9250  -25.1280   19.2990 C   0  0  0  0  0  3  0  0  0  0  0  0
  -26.9380  -22.5320   19.0020 C   0  0  0  0  0  3  0  0  0  0  0  0
  -28.5050  -22.4230   21.0280 C   0  0  0  0  0  0  0  0  0  0  0  0
  -29.2070  -21.2840   21.1000 N   0  0  0  0  0  0  0  0  0  0  0  0
  -29.0450  -23.4840   21.3410 O   0  0  0  0  0  0  0  0  0  0  0  0
  -30.1690  -21.3930   21.3930 H   0  0  0  0  0  0  0  0  0  0  0  0
  -28.7850  -19.9140   20.8310 C   0  0  0  0  0  2  0  0  0  0  0  0
  -29.8680  -19.1460   20.0490 C   0  0  0  0  0  2  0  0  0  0  0  0
  -31.2030  -17.8880   21.8190 C   0  0  0  0  0  1  0  0  0  0  0  0
  -30.1990  -17.7700   20.6560 C   0  0  0  0  0  3  0  0  0  0  0  0
  -30.7240  -16.7900   19.5920 C   0  0  0  0  0  2  0  0  0  0  0  0
  -31.2860  -14.3670   19.5770 C   0  0  0  0  0  0  0  0  0  0  0  0
  -30.9460  -12.0170   18.9180 C   0  0  0  0  0  2  0  0  0  0  0  0
  -29.9240  -11.9670   17.7630 C   0  0  0  0  0  2  0  0  0  0  0  0
  -28.4750  -11.9670   18.2910 C   0  0  0  0  0  2  0  0  0  0  0  0
  -28.2230  -13.0590   19.3630 C   0  0  0  0  0  3  0  0  0  0  0  0
  -29.3360  -13.0210   20.4350 C   0  0  0  0  0  2  0  0  0  0  0  0
  -30.6360  -13.1860   19.7510 N   0  0  0  0  0  0  0  0  0  0  0  0
  -32.3230  -14.4890   18.9120 O   0  0  0  0  0  0  0  0  0  0  0  0
  -30.6280  -15.4190   20.0740 N   0  0  0  0  0  0  0  0  0  0  0  0
  -29.8370  -15.2030   20.6630 H   0  0  0  0  0  0  0  0  0  0  0  0
  -25.9890  -13.9090   20.3300 C   0  0  0  0  0  0  0  0  0  0  0  0
  -24.8690  -13.2510   20.7560 C   0  0  0  0  0  0  0  0  0  0  0  0
  -25.1460  -11.8570   20.6030 C   0  0  0  0  0  0  0  0  0  0  0  0
  -26.8920  -12.9250   19.9540 N   0  0  0  0  0  0  0  0  0  0  0  0
  -26.3860  -11.6810   20.1680 N   0  0  0  0  0  0  0  0  0  0  0  0
  -24.2860  -10.6810   20.7920 C   0  0  0  0  0  0  0  0  0  0  0  0
  -24.6620   -9.6230   21.6500 C   0  0  0  0  0  3  0  0  0  0  0  0
  -23.8130   -8.5100   21.8290 C   0  0  0  0  0  3  0  0  0  0  0  0
  -22.5700   -8.4500   21.1540 C   0  0  0  0  0  0  0  0  0  0  0  0
  -22.2110   -9.4960   20.2840 C   0  0  0  0  0  3  0  0  0  0  0  0
  -23.0600  -10.5990   20.1020 C   0  0  0  0  0  3  0  0  0  0  0  0
  -21.6900   -7.3990   21.2500 O   0  0  0  0  0  0  0  0  0  0  0  0
  -21.6020   -6.6380   22.3860 C   0  0  0  0  0  0  0  0  0  0  0  0
  -21.3070   -7.2060   23.6450 C   0  0  0  0  0  3  0  0  0  0  0  0
  -21.1580   -6.3780   24.7760 C   0  0  0  0  0  3  0  0  0  0  0  0
  -21.2910   -4.9830   24.6500 C   0  0  0  0  0  0  0  0  0  0  0  0
  -21.5750   -4.4120   23.3970 C   0  0  0  0  0  3  0  0  0  0  0  0
  -21.7290   -5.2380   22.2670 C   0  0  0  0  0  0  0  0  0  0  0  0
  -21.9840   -4.6820   21.0600 F   0  0  0  0  0  0  0  0  0  0  0  0
  -21.1370   -4.1860   25.7330 F   0  0  0  0  0  0  0  0  0  0  0  0
  -23.5730  -13.8700   21.1990 C   0  0  0  0  0  0  0  0  0  0  0  0
  -22.8640  -13.2250   22.1190 N   0  0  0  0  0  0  0  0  0  0  0  0
  -23.2050  -14.9620   20.7620 O   0  0  0  0  0  0  0  0  0  0  0  0
  -23.1710  -12.3370   22.4890 H   0  0  0  0  0  0  0  0  0  0  0  0
  -21.9990  -13.6210   22.4590 H   0  0  0  0  0  0  0  0  0  0  0  0
  -26.3270  -15.2550   20.2120 N   0  0  0  0  0  0  0  0  0  0  0  0
  -25.7030  -16.0150   20.4610 H   0  0  0  0  0  0  0  0  0  0  0  0
  -27.2160  -15.5770   19.8480 H   0  0  0  0  0  0  0  0  0  0  0  0
  -24.9340  -20.8690   18.7580 C   0  0  0  0  0  1  0  0  0  0  0  0
  -25.5270  -22.2480   18.4060 C   0  0  0  0  0  2  0  0  0  0  0  0
  -27.9550  -26.1980   19.7810 C   0  0  0  0  0  2  0  0  0  0  0  0
  -27.8460  -27.4890   19.1550 O   0  0  0  0  0  0  0  0  0  0  0  0
  -24.7260  -32.1230   23.5870 C   0  0  0  0  0  0  0  0  0  0  0  0
  -26.7370  -28.2430   19.4570 C   0  0  0  0  0  0  0  0  0  0  0  0
  -23.2600  -31.0490   21.9180 C   0  0  0  0  0  3  0  0  0  0  0  0
  -24.4400  -29.7720   20.0570 C   0  0  0  0  0  0  0  0  0  0  0  0
  -25.7590  -31.3720   21.4500 C   0  0  0  0  0  2  0  0  0  0  0  0
  -25.6870  -30.1360   20.5830 C   0  0  0  0  0  0  0  0  0  0  0  0
  -26.8390  -29.3660   20.3060 C   0  0  0  0  0  3  0  0  0  0  0  0
  -25.4960  -27.9750   18.8410 C   0  0  0  0  0  3  0  0  0  0  0  0
  -24.3410  -28.6940   19.1740 C   0  0  0  0  0  3  0  0  0  0  0  0
  -23.2510  -30.6250   20.4240 C   0  0  0  0  0  2  0  0  0  0  0  0
  -24.6090  -31.5150   22.3740 N   0  0  0  0  0  0  0  0  0  0  0  0
  -23.7320  -32.3310   24.2990 O   0  0  0  0  0  0  0  0  0  0  0  0
  -22.7000  -29.8880   22.7670 C   0  0  0  0  0  0  0  0  0  0  0  0
  -21.3870  -29.6390   22.6410 N   0  0  0  0  0  0  0  0  0  0  0  0
  -23.4370  -29.2290   23.5010 O   0  0  0  0  0  0  0  0  0  0  0  0
  -20.8550  -30.2250   22.0110 H   0  0  0  0  0  0  0  0  0  0  0  0
  -18.1620  -28.0170   22.8500 C   0  0  0  0  0  0  0  0  0  0  0  0
  -20.6420  -28.5730   23.3140 C   0  0  0  0  0  3  0  0  0  0  0  0
  -20.9670  -27.1960   22.6940 C   0  0  0  0  0  2  0  0  0  0  0  0
  -19.9820  -26.7760   21.6020 C   0  0  0  0  0  2  0  0  0  0  0  0
  -18.5540  -26.7240   22.1540 C   0  0  0  0  0  2  0  0  0  0  0  0
  -19.1460  -28.8950   23.3790 C   0  0  0  0  0  0  0  0  0  0  0  0
  -18.7310  -30.1000   23.9890 C   0  0  0  0  0  3  0  0  0  0  0  0
  -17.3660  -30.4300   24.0770 C   0  0  0  0  0  3  0  0  0  0  0  0
  -16.3970  -29.5540   23.5620 C   0  0  0  0  0  3  0  0  0  0  0  0
  -16.7960  -28.3480   22.9560 C   0  0  0  0  0  3  0  0  0  0  0  0
  -26.1080  -32.6190   24.1150 C   0  0  0  0  0  3  0  0  0  0  0  0
  -26.6870  -31.7050   25.2630 C   0  0  1  0  0  0  0  0  0  0  0  0
  -25.6870  -31.4370   26.4130 C   0  0  0  0  0  1  0  0  0  0  0  0
  -27.1320  -30.3380   24.6960 C   0  0  0  0  0  1  0  0  0  0  0  0
  -27.9470  -32.3660   25.8620 C   0  0  0  0  0  1  0  0  0  0  0  0
  -25.9300  -33.9990   24.5860 N   0  0  0  0  0  0  0  0  0  0  0  0
  -26.3050  -35.0890   23.9030 C   0  0  0  0  0  0  0  0  0  0  0  0
  -26.9140  -35.0320   22.8300 O   0  0  0  0  0  0  0  0  0  0  0  0
  -25.3890  -34.1230   25.4280 H   0  0  0  0  0  0  0  0  0  0  0  0
  -24.7240  -37.0410   23.7960 C   0  0  0  0  0  1  0  0  0  0  0  0
  -25.9560  -36.4620   24.5100 C   0  0  0  0  0  3  0  0  0  0  0  0
  -28.1910  -37.0790   25.3180 C   0  0  0  0  0  1  0  0  0  0  0  0
  -27.0710  -37.4340   24.4500 N   0  0  0  0  0  0  0  0  0  0  0  0
  -26.7510  -38.3640   24.7070 H   0  0  0  0  0  0  0  0  0  0  0  0
  2  1  1  0
  3  6  1  0
  3  5  1  0
  4  7  1  0
  4  1  1  0
  5 56  1  0
  5  2  1  0
  6 55  1  0
  6  4  1  0
  7  8  1  0
  7  9  2  0
  8 10  1  0
 11  8  1  0
 12 14  1  0
 12 11  1  0
 14 13  1  0
 15 24  1  0
 15 14  1  0
 16 22  1  0
 16 24  1  0
 17 22  1  0
 18 19  1  0
 18 17  1  0
 20 19  1  0
 20 29  1  0
 20 21  1  0
 22 21  1  0
 23 16  2  0
 24 25  1  0
 26 27  2  0
 27 46  1  0
 28 27  1  0
 28 31  1  0
 29 30  1  0
 29 26  1  0
 30 28  2  0
 31 32  1  0
 32 33  2  0
 34 37  1  0
 34 33  1  0
 35 34  2  0
 36 35  1  0
 36 31  2  0
 37 38  1  0
 38 39  1  0
 39 40  2  0
 41 40  1  0
 41 45  1  0
 42 41  2  0
 43 38  2  0
 43 42  1  0
 44 43  1  0
 46 47  1  0
 47 50  1  0
 47 49  1  0
 48 46  2  0
 51 26  1  0
 51 52  1  0
 53 51  1  0
 55 54  1  0
 57 59  1  0
 57 56  1  0
 58 69  2  0
 59 64  1  0
 60 68  1  0
 60 70  1  0
 61 67  1  0
 61 63  1  0
 62 68  1  0
 63 62  1  0
 64 63  2  0
 65 66  1  0
 65 59  2  0
 66 61  2  0
 67 60  1  0
 68 58  1  0
 70 72  2  0
 71 70  1  0
 73 71  1  0
 74 83  2  0
 74 79  1  0
 75 71  1  0
 75 79  1  0
 76 75  1  0
 77 78  1  0
 77 76  1  0
 78 74  1  0
 79 80  2  0
 80 81  1  0
 82 81  2  0
 83 82  1  0
 84 58  1  0
 84 89  1  0
 84 85  1  0
 85 88  1  1
 85 86  1  0
 87 85  1  0
 89 92  1  0
 90 94  1  0
 90 89  1  0
 91 90  2  0
 94 93  1  0
 96 94  1  0
 96 97  1  0
 96 95  1  0
M  ISO  4  16 100  24 100  56 101  57 101
M  END
>  <TORSDO>  (82) 
F 23

>  <SCORE>  (82) 
-11.340

>  <name>  (82) 
81

>  <ligand_id>  (82) 
81

>  <original_smiles>  (82) 
[H]c1c([H])c([H])c2c(c1[H])C([H])([H])C([H])([H])C([H])([H])C2([H])N([H])C(=O)C1([H])N(C(=O)C([H])(N([H])C(=O)C([H])(N([H])C([H])([H])[H])C([H])([H])[H])C(C([H])([H])[H])(C([H])([H])[H])C([H])([H])[H])C([H])([H])c2c([H])c(OC([H])([H])C3([H])C([H])([H])C([H])([H])C([H])(C(=O)N([H])C([H])([H])C([H])([H])C([H])(C([H])([H])[H])C([H])([H])N([H])C(=O)N4C([H])([H])C([H])([H])C([H])([H])C([H])(n5nc(-c6c([H])c([H])c(Oc7c([H])c([H])c(F)c([H])c7F)c([H])c6[H])c(C(=O)N([H])[H])c5N([H])[H])C4([H])[H])C([H])(C([H])([H])C([H])([H])[H])C3([H])[H])c([H])c([H])c2C1([H])[H]

>  <smiles>  (82) 
[H]c1c([H])c([H])c2c(c1[H])C([H])([H])C([H])([H])C([H])([H])C2([H])N([H])C(=O)C1([H])N(C(=O)C([H])(N([H])C(=O)C([H])(N([H])C([H])([H])[H])C([H])([H])[H])C(C([H])([H])[H])(C([H])([H])[H])C([H])([H])[H])C([H])([H])c2c([H])c(OC([H])([H])C3([H])C([H])([H])C([H])([H])C([H])(C(=O)N([H])C([H])([H])C([H])([H])C([H])(C([H])([H])[H])C([H])([H])N([H])C(=O)N4C([H])([H])C([H])([H])C([H])([H])C([H])(n5nc(-c6c([H])c([H])c(Oc7c([H])c([H])c(F)c([H])c7F)c([H])c6[H])c(C(=O)N([H])[H])c5N([H])[H])C4([H])[H])C([H])(C([H])([H])C([H])([H])[H])C3([H])[H])c([H])c([H])c2C1([H])[H]

$$$$
82:0:0
     RDKit          3D

 95103  0  0  1  0  0  0  0  0999 V2000
  -27.6050  -21.5620   18.4670 C   0  0  0  0  0  2  0  0  0  0  0  0
  -28.9450  -22.2770   18.4990 C   0  0  0  0  0  2  0  0  0  0  0  0
  -27.8950  -20.2520   19.1960 C   0  0  0  0  0  3  0  0  0  0  0  0
  -29.0160  -20.6050   20.2100 C   0  0  0  0  0  3  0  0  0  0  0  0
  -29.5400  -21.9600   19.8190 N   0  0  2  0  0  4  0  0  0  0  0  0
  -30.5390  -21.8940   19.6940 H   0  0  0  0  0  0  0  0  0  0  0  0
  -26.6350  -19.6240   19.8350 C   0  0  0  0  0  2  0  0  0  0  0  0
  -26.1920  -18.5890   17.5360 C   0  0  0  0  0  1  0  0  0  0  0  0
  -24.6660  -18.0690   19.4790 C   0  0  0  0  0  1  0  0  0  0  0  0
  -25.5680  -19.1300   18.8320 C   0  0  0  0  0  3  0  0  0  0  0  0
  -30.1490  -19.5390   20.2600 C   0  0  0  0  0  2  0  0  0  0  0  0
  -29.7070  -18.0700   20.5080 C   0  0  0  0  0  2  0  0  0  0  0  0
  -30.8960  -17.0780   20.5010 C   0  0  0  0  0  2  0  0  0  0  0  0
  -31.1870  -14.6320   20.1130 C   0  0  0  0  0  0  0  0  0  0  0  0
  -30.8100  -12.5060   18.9320 C   0  0  0  0  0  2  0  0  0  0  0  0
  -29.8010  -12.7590   17.7930 C   0  0  0  0  0  2  0  0  0  0  0  0
  -28.3530  -12.6200   18.3040 C   0  0  0  0  0  2  0  0  0  0  0  0
  -28.1000  -13.4180   19.6110 C   0  0  0  0  0  3  0  0  0  0  0  0
  -29.2170  -13.1550   20.6470 C   0  0  0  0  0  2  0  0  0  0  0  0
  -30.5060  -13.4610   20.0090 N   0  0  0  0  0  0  0  0  0  0  0  0
  -32.3030  -14.8050   19.6160 O   0  0  0  0  0  0  0  0  0  0  0  0
  -30.4880  -15.6680   20.6120 N   0  0  0  0  0  0  0  0  0  0  0  0
  -29.5760  -15.4630   20.9950 H   0  0  0  0  0  0  0  0  0  0  0  0
  -25.7650  -14.0190   20.5100 C   0  0  0  0  0  0  0  0  0  0  0  0
  -24.7060  -13.2430   20.8960 C   0  0  0  0  0  0  0  0  0  0  0  0
  -25.1360  -11.8880   20.7540 C   0  0  0  0  0  0  0  0  0  0  0  0
  -26.7740  -13.1360   20.1590 N   0  0  0  0  0  0  0  0  0  0  0  0
  -26.4040  -11.8460   20.3640 N   0  0  0  0  0  0  0  0  0  0  0  0
  -24.3980  -10.6280   20.9120 C   0  0  0  0  0  0  0  0  0  0  0  0
  -24.7810   -9.6620   21.8690 C   0  0  0  0  0  3  0  0  0  0  0  0
  -24.0460   -8.4670   22.0140 C   0  0  0  0  0  3  0  0  0  0  0  0
  -22.9110   -8.2290   21.2010 C   0  0  0  0  0  0  0  0  0  0  0  0
  -22.5470   -9.1840   20.2350 C   0  0  0  0  0  3  0  0  0  0  0  0
  -23.2840  -10.3710   20.0880 C   0  0  0  0  0  3  0  0  0  0  0  0
  -22.1510   -7.0870   21.2550 O   0  0  0  0  0  0  0  0  0  0  0  0
  -21.8940   -6.4470   22.4410 C   0  0  0  0  0  0  0  0  0  0  0  0
  -21.1930   -7.0800   23.4910 C   0  0  0  0  0  3  0  0  0  0  0  0
  -20.8880   -6.3620   24.6660 C   0  0  0  0  0  3  0  0  0  0  0  0
  -21.2770   -5.0140   24.7890 C   0  0  0  0  0  0  0  0  0  0  0  0
  -21.9730   -4.3830   23.7430 C   0  0  0  0  0  3  0  0  0  0  0  0
  -22.2770   -5.0970   22.5720 C   0  0  0  0  0  0  0  0  0  0  0  0
  -22.9280   -4.4770   21.5570 F   0  0  0  0  0  0  0  0  0  0  0  0
  -20.9780   -4.3230   25.9150 F   0  0  0  0  0  0  0  0  0  0  0  0
  -23.3370  -13.7260   21.2820 C   0  0  0  0  0  0  0  0  0  0  0  0
  -22.6570  -12.9960   22.1600 N   0  0  0  0  0  0  0  0  0  0  0  0
  -22.8830  -14.7820   20.8440 O   0  0  0  0  0  0  0  0  0  0  0  0
  -23.0410  -12.1420   22.5370 H   0  0  0  0  0  0  0  0  0  0  0  0
  -21.7410  -13.2980   22.4590 H   0  0  0  0  0  0  0  0  0  0  0  0
  -25.9470  -15.3930   20.4070 N   0  0  0  0  0  0  0  0  0  0  0  0
  -25.1930  -16.0460   20.5850 H   0  0  0  0  0  0  0  0  0  0  0  0
  -26.7730  -15.8320   20.0230 H   0  0  0  0  0  0  0  0  0  0  0  0
  -29.3030  -23.0080   20.8640 C   0  0  0  0  0  2  0  0  0  0  0  0
  -29.6980  -24.4790   20.4980 C   0  0  0  0  0  2  0  0  0  0  0  0
  -28.4980  -25.4300   20.6960 C   0  0  0  0  0  2  0  0  0  0  0  0
  -28.6990  -26.8090   20.3200 O   0  0  0  0  0  0  0  0  0  0  0  0
  -24.6260  -31.8460   23.3190 C   0  0  0  0  0  0  0  0  0  0  0  0
  -27.5280  -27.5430   20.2620 C   0  0  0  0  0  0  0  0  0  0  0  0
  -23.5290  -30.4240   21.6220 C   0  0  0  0  0  3  0  0  0  0  0  0
  -25.0850  -28.9760   20.2190 C   0  0  0  0  0  0  0  0  0  0  0  0
  -26.0490  -30.8780   21.5150 C   0  0  0  0  0  2  0  0  0  0  0  0
  -26.2060  -29.5240   20.8540 C   0  0  0  0  0  0  0  0  0  0  0  0
  -27.4340  -28.8170   20.8750 C   0  0  0  0  0  3  0  0  0  0  0  0
  -26.3900  -27.0330   19.5930 C   0  0  0  0  0  3  0  0  0  0  0  0
  -25.1730  -27.7290   19.5840 C   0  0  0  0  0  3  0  0  0  0  0  0
  -23.8060  -29.7800   20.2390 C   0  0  0  0  0  2  0  0  0  0  0  0
  -24.7500  -31.0640   22.2090 N   0  0  0  0  0  0  0  0  0  0  0  0
  -23.5200  -32.0670   23.8270 O   0  0  0  0  0  0  0  0  0  0  0  0
  -22.8900  -29.3610   22.5440 C   0  0  0  0  0  0  0  0  0  0  0  0
  -21.5840  -29.1110   22.3600 N   0  0  0  0  0  0  0  0  0  0  0  0
  -23.5700  -28.7650   23.3840 O   0  0  0  0  0  0  0  0  0  0  0  0
  -21.0950  -29.6460   21.6550 H   0  0  0  0  0  0  0  0  0  0  0  0
  -18.2540  -27.7570   22.7110 C   0  0  0  0  0  0  0  0  0  0  0  0
  -20.7820  -28.1280   23.0880 C   0  0  0  0  0  3  0  0  0  0  0  0
  -20.9760  -26.7090   22.5050 C   0  0  0  0  0  2  0  0  0  0  0  0
  -19.9310  -26.3470   21.4440 C   0  0  0  0  0  2  0  0  0  0  0  0
  -18.5190  -26.4240   22.0320 C   0  0  0  0  0  2  0  0  0  0  0  0
  -19.3170  -28.5650   23.1930 C   0  0  0  0  0  0  0  0  0  0  0  0
  -19.0160  -29.8130   23.7810 C   0  0  0  0  0  3  0  0  0  0  0  0
  -17.6840  -30.2510   23.8980 C   0  0  0  0  0  3  0  0  0  0  0  0
  -16.6340  -29.4400   23.4330 C   0  0  0  0  0  3  0  0  0  0  0  0
  -16.9190  -28.1950   22.8440 C   0  0  0  0  0  3  0  0  0  0  0  0
  -25.8660  -32.5190   23.9870 C   0  0  0  0  0  3  0  0  0  0  0  0
  -25.5220  -33.9230   24.2480 N   0  0  0  0  0  0  0  0  0  0  0  0
  -25.8830  -34.9510   23.4690 C   0  0  0  0  0  0  0  0  0  0  0  0
  -26.6110  -34.8190   22.4790 O   0  0  0  0  0  0  0  0  0  0  0  0
  -24.8860  -34.0990   25.0110 H   0  0  0  0  0  0  0  0  0  0  0  0
  -24.1650  -36.7040   22.9350 C   0  0  0  0  0  1  0  0  0  0  0  0
  -25.3510  -36.3460   23.8440 C   0  0  0  0  0  3  0  0  0  0  0  0
  -27.4080  -37.2910   24.7970 C   0  0  0  0  0  1  0  0  0  0  0  0
  -26.3790  -37.4070   23.7670 N   0  0  0  0  0  0  0  0  0  0  0  0
  -25.9530  -38.3280   23.8470 H   0  0  0  0  0  0  0  0  0  0  0  0
  -26.3220  -31.8000   25.3150 C   0  0  1  0  0  0  0  0  0  0  0  0
  -25.1710  -31.5770   26.3250 C   0  0  0  0  0  1  0  0  0  0  0  0
  -26.9530  -30.4240   25.0000 C   0  0  0  0  0  1  0  0  0  0  0  0
  -27.4200  -32.6370   26.0140 C   0  0  0  0  0  1  0  0  0  0  0  0
  1  2  1  0
  1  3  1  0
  2  5  1  0
  3  7  1  0
  3  4  1  0
  4 11  1  0
  5  4  1  0
  5 52  1  0
  5  6  1  6
  8 10  1  0
 10  9  1  0
 10  7  1  0
 11 12  1  0
 13 12  1  0
 13 22  1  0
 14 22  1  0
 15 20  1  0
 16 17  1  0
 16 15  1  0
 18 17  1  0
 18 27  1  0
 18 19  1  0
 20 14  1  0
 20 19  1  0
 21 14  2  0
 22 23  1  0
 24 25  2  0
 25 44  1  0
 26 25  1  0
 26 29  1  0
 27 28  1  0
 27 24  1  0
 28 26  2  0
 29 30  1  0
 30 31  2  0
 32 35  1  0
 32 31  1  0
 33 32  2  0
 34 33  1  0
 34 29  2  0
 35 36  1  0
 36 41  2  0
 36 37  1  0
 37 38  2  0
 38 39  1  0
 39 43  1  0
 40 39  2  0
 41 40  1  0
 42 41  1  0
 44 45  1  0
 45 48  1  0
 45 47  1  0
 46 44  2  0
 49 24  1  0
 49 50  1  0
 51 49  1  0
 53 54  1  0
 53 52  1  0
 55 54  1  0
 56 67  2  0
 57 55  1  0
 57 62  1  0
 58 66  1  0
 58 68  1  0
 59 65  1  0
 59 61  1  0
 60 66  1  0
 61 62  2  0
 61 60  1  0
 63 57  2  0
 64 63  1  0
 64 59  2  0
 65 58  1  0
 66 56  1  0
 68 70  2  0
 69 68  1  0
 71 69  1  0
 72 81  2  0
 72 77  1  0
 73 69  1  0
 73 77  1  0
 74 73  1  0
 75 76  1  0
 75 74  1  0
 76 72  1  0
 77 78  2  0
 78 79  1  0
 80 79  2  0
 81 80  1  0
 82 56  1  0
 82 83  1  0
 82 92  1  0
 83 86  1  0
 84 88  1  0
 84 83  1  0
 85 84  2  0
 88 87  1  0
 90 88  1  0
 90 91  1  0
 90 89  1  0
 92 95  1  1
 92 93  1  0
 94 92  1  0
M  ISO  4  14 100  22 100  54 101  55 101
M  END
>  <TORSDO>  (83) 
F 24

>  <SCORE>  (83) 
-9.094

>  <name>  (83) 
82

>  <ligand_id>  (83) 
82

>  <original_smiles>  (83) 
[H]c1c([H])c([H])c2c(c1[H])C([H])([H])C([H])([H])C([H])([H])C2([H])N([H])C(=O)C1([H])N(C(=O)C([H])(N([H])C(=O)C([H])(N([H])C([H])([H])[H])C([H])([H])[H])C(C([H])([H])[H])(C([H])([H])[H])C([H])([H])[H])C([H])([H])c2c([H])c(OC([H])([H])C([H])([H])C([H])([H])[N+]3([H])C([H])([H])C([H])([H])C([H])(C([H])([H])C([H])(C([H])([H])[H])C([H])([H])[H])C3([H])C([H])([H])C([H])([H])C([H])([H])N([H])C(=O)N3C([H])([H])C([H])([H])C([H])([H])C([H])(n4nc(-c5c([H])c([H])c(Oc6c([H])c([H])c(F)c([H])c6F)c([H])c5[H])c(C(=O)N([H])[H])c4N([H])[H])C3([H])[H])c([H])c([H])c2C1([H])[H]

>  <smiles>  (83) 
[H]c1c([H])c([H])c2c(c1[H])C([H])([H])C([H])([H])C([H])([H])C2([H])N([H])C(=O)C1([H])N(C(=O)C([H])(N([H])C(=O)C([H])(N([H])C([H])([H])[H])C([H])([H])[H])C(C([H])([H])[H])(C([H])([H])[H])C([H])([H])[H])C([H])([H])c2c([H])c(OC([H])([H])C([H])([H])C([H])([H])[N+]3([H])C([H])([H])C([H])([H])C([H])(C([H])([H])C([H])(C([H])([H])[H])C([H])([H])[H])C3([H])C([H])([H])C([H])([H])C([H])([H])N([H])C(=O)N3C([H])([H])C([H])([H])C([H])([H])C([H])(n4nc(-c5c([H])c([H])c(Oc6c([H])c([H])c(F)c([H])c6F)c([H])c5[H])c(C(=O)N([H])[H])c4N([H])[H])C3([H])[H])c([H])c([H])c2C1([H])[H]

$$$$
83:0:0
     RDKit          3D

 91 99  0  0  1  0  0  0  0  0999 V2000
  -31.1590  -15.5680   19.5040 C   0  0  0  0  0  0  0  0  0  0  0  0
  -31.1970  -12.9400   19.0810 C   0  0  0  0  0  2  0  0  0  0  0  0
  -30.2520  -12.3830   17.9800 C   0  0  0  0  0  2  0  0  0  0  0  0
  -28.8230  -12.1730   18.5140 C   0  0  0  0  0  2  0  0  0  0  0  0
  -28.3800  -13.3180   19.4590 C   0  0  0  0  0  3  0  0  0  0  0  0
  -29.4750  -13.6880   20.4880 C   0  0  0  0  0  2  0  0  0  0  0  0
  -30.6110  -14.2210   19.6860 N   0  0  0  0  0  0  0  0  0  0  0  0
  -32.3880  -15.4510   19.3290 O   0  0  0  0  0  0  0  0  0  0  0  0
  -28.3270  -18.3890   19.9900 C   0  0  0  0  0  3  0  0  0  0  0  0
  -28.9970  -17.0070   19.6110 C   0  0  0  0  0  3  0  0  0  0  0  0
  -30.7580  -18.5590   18.7520 C   0  0  0  0  0  2  0  0  0  0  0  0
  -29.1590  -19.6870   20.3230 C   0  0  0  0  0  3  0  0  0  0  0  0
  -29.8540  -20.1920   19.0180 C   0  0  0  0  0  3  0  0  0  0  0  0
  -30.4410  -16.9420   19.3090 N   0  0  0  0  0  0  0  0  0  0  0  0
  -26.1090  -14.0110   20.3670 C   0  0  0  0  0  0  0  0  0  0  0  0
  -25.0130  -13.3130   20.7560 C   0  0  0  0  0  0  0  0  0  0  0  0
  -25.3640  -11.9260   20.6610 C   0  0  0  0  0  0  0  0  0  0  0  0
  -27.0710  -13.0730   20.0460 N   0  0  0  0  0  0  0  0  0  0  0  0
  -26.6380  -11.8070   20.2900 N   0  0  0  0  0  0  0  0  0  0  0  0
  -24.5370  -10.7320   20.8500 C   0  0  0  0  0  0  0  0  0  0  0  0
  -24.9030   -9.7140   21.7560 C   0  0  0  0  0  3  0  0  0  0  0  0
  -24.0760   -8.5840   21.9370 C   0  0  0  0  0  3  0  0  0  0  0  0
  -22.8640   -8.4670   21.2110 C   0  0  0  0  0  0  0  0  0  0  0  0
  -22.5160   -9.4740   20.2930 C   0  0  0  0  0  3  0  0  0  0  0  0
  -23.3440  -10.5940   20.1100 C   0  0  0  0  0  3  0  0  0  0  0  0
  -22.0150   -7.3890   21.3020 O   0  0  0  0  0  0  0  0  0  0  0  0
  -21.9230   -6.6380   22.4450 C   0  0  0  0  0  0  0  0  0  0  0  0
  -21.5130   -7.1980   23.6780 C   0  0  0  0  0  3  0  0  0  0  0  0
  -21.3740   -6.3730   24.8120 C   0  0  0  0  0  3  0  0  0  0  0  0
  -21.6340   -4.9930   24.7140 C   0  0  0  0  0  0  0  0  0  0  0  0
  -22.0360   -4.4330   23.4880 C   0  0  0  0  0  3  0  0  0  0  0  0
  -22.1790   -5.2550   22.3570 C   0  0  0  0  0  0  0  0  0  0  0  0
  -22.5450   -4.7110   21.1700 F   0  0  0  0  0  0  0  0  0  0  0  0
  -21.4900   -4.1990   25.7990 F   0  0  0  0  0  0  0  0  0  0  0  0
  -23.6760  -13.8900   21.1250 C   0  0  0  0  0  0  0  0  0  0  0  0
  -22.9620  -13.2590   22.0450 N   0  0  0  0  0  0  0  0  0  0  0  0
  -23.2840  -14.9460   20.6200 O   0  0  0  0  0  0  0  0  0  0  0  0
  -23.2870  -12.4040   22.4740 H   0  0  0  0  0  0  0  0  0  0  0  0
  -22.0660  -13.6310   22.3310 H   0  0  0  0  0  0  0  0  0  0  0  0
  -26.3620  -15.3780   20.2330 N   0  0  0  0  0  0  0  0  0  0  0  0
  -25.6270  -16.0440   20.4350 H   0  0  0  0  0  0  0  0  0  0  0  0
  -27.2480  -15.8150   20.0290 H   0  0  0  0  0  0  0  0  0  0  0  0
  -30.1040  -19.4350   21.5320 C   0  0  0  0  0  0  0  0  0  0  0  0
  -29.7490  -19.9430   22.6990 N   0  0  0  0  0  0  0  0  0  0  0  0
  -31.1440  -18.7850   21.4640 O   0  0  0  0  0  0  0  0  0  0  0  0
  -28.8910  -20.4630   22.7970 H   0  0  0  0  0  0  0  0  0  0  0  0
  -30.3540  -19.8070   23.5000 H   0  0  0  0  0  0  0  0  0  0  0  0
  -31.5250  -22.3960   19.5140 C   0  0  0  0  0  1  0  0  0  0  0  0
  -30.1090  -22.1170   18.8320 C   0  0  0  0  0  3  0  0  0  0  0  0
  -29.0390  -23.7520   18.9720 C   0  0  0  0  0  2  0  0  0  0  0  0
  -29.1910  -25.5090   19.0810 O   0  0  0  0  0  0  0  0  0  0  0  0
  -25.9440  -30.8640   23.6160 C   0  0  0  0  0  0  0  0  0  0  0  0
  -28.2220  -26.7070   19.3360 C   0  0  0  0  0  0  0  0  0  0  0  0
  -24.6730  -30.0180   21.6860 C   0  0  0  0  0  3  0  0  0  0  0  0
  -26.0350  -28.7830   19.8330 C   0  0  0  0  0  0  0  0  0  0  0  0
  -27.2520  -30.0960   21.5490 C   0  0  0  0  0  2  0  0  0  0  0  0
  -27.2460  -28.8990   20.5250 C   0  0  0  0  0  0  0  0  0  0  0  0
  -28.3200  -27.9070   20.2500 C   0  0  0  0  0  3  0  0  0  0  0  0
  -26.9830  -26.7960   18.6380 C   0  0  0  0  0  3  0  0  0  0  0  0
  -25.9490  -27.7650   18.8620 C   0  0  0  0  0  3  0  0  0  0  0  0
  -24.8650  -29.7270   20.1680 C   0  0  0  0  0  2  0  0  0  0  0  0
  -25.9810  -30.3450   22.3400 N   0  0  0  0  0  0  0  0  0  0  0  0
  -24.8740  -31.0520   24.2190 O   0  0  0  0  0  0  0  0  0  0  0  0
  -23.9390  -28.8270   22.3630 C   0  0  0  0  0  0  0  0  0  0  0  0
  -22.6260  -28.6650   22.1080 N   0  0  0  0  0  0  0  0  0  0  0  0
  -24.5670  -28.0480   23.0880 O   0  0  0  0  0  0  0  0  0  0  0  0
  -22.1710  -29.3410   21.5070 H   0  0  0  0  0  0  0  0  0  0  0  0
  -19.2970  -27.2220   22.0080 C   0  0  0  0  0  0  0  0  0  0  0  0
  -21.7920  -27.5610   22.6040 C   0  0  0  0  0  3  0  0  0  0  0  0
  -22.0510  -26.2700   21.7950 C   0  0  0  0  0  2  0  0  0  0  0  0
  -21.0820  -26.0910   20.6210 C   0  0  0  0  0  2  0  0  0  0  0  0
  -19.6350  -26.0390   21.1170 C   0  0  0  0  0  2  0  0  0  0  0  0
  -20.3100  -27.9470   22.6920 C   0  0  0  0  0  0  0  0  0  0  0  0
  -19.9440  -29.0600   23.4770 C   0  0  0  0  0  3  0  0  0  0  0  0
  -18.5950  -29.4460   23.5910 C   0  0  0  0  0  3  0  0  0  0  0  0
  -17.5960  -28.7150   22.9240 C   0  0  0  0  0  3  0  0  0  0  0  0
  -17.9470  -27.6030   22.1380 C   0  0  0  0  0  3  0  0  0  0  0  0
  -27.2420  -31.2670   24.3730 C   0  0  0  0  0  3  0  0  0  0  0  0
  -27.0230  -32.5840   25.0000 N   0  0  0  0  0  0  0  0  0  0  0  0
  -27.4080  -33.7600   24.4830 C   0  0  0  0  0  0  0  0  0  0  0  0
  -28.0490  -33.8460   23.4320 O   0  0  0  0  0  0  0  0  0  0  0  0
  -26.4700  -32.5920   25.8450 H   0  0  0  0  0  0  0  0  0  0  0  0
  -25.7850  -35.6840   24.5940 C   0  0  0  0  0  1  0  0  0  0  0  0
  -27.0200  -35.0440   25.2490 C   0  0  0  0  0  3  0  0  0  0  0  0
  -29.2230  -35.6220   26.1680 C   0  0  0  0  0  1  0  0  0  0  0  0
  -28.1070  -36.0440   25.3260 N   0  0  0  0  0  0  0  0  0  0  0  0
  -27.7560  -36.9260   25.6880 H   0  0  0  0  0  0  0  0  0  0  0  0
  -27.6790  -30.2160   25.4710 C   0  0  1  0  0  0  0  0  0  0  0  0
  -26.5670  -29.8490   26.4820 C   0  0  0  0  0  1  0  0  0  0  0  0
  -28.1600  -28.8940   24.8260 C   0  0  0  0  0  1  0  0  0  0  0  0
  -28.8710  -30.7770   26.2820 C   0  0  0  0  0  1  0  0  0  0  0  0
  1  7  1  0
  2  7  1  0
  3  4  1  0
  3  2  1  0
  5  4  1  0
  5 18  1  0
  5  6  1  0
  7  6  1  0
  8  1  2  0
  9 12  1  0
 10  9  2  0
 11 13  1  0
 11 14  1  0
 12 43  1  0
 13 49  1  0
 13 12  1  0
 14  1  1  0
 14 10  1  0
 15 16  2  0
 16 35  1  0
 17 16  1  0
 17 20  1  0
 18 19  1  0
 18 15  1  0
 19 17  2  0
 20 21  1  0
 21 22  2  0
 23 26  1  0
 23 22  1  0
 24 23  2  0
 25 24  1  0
 25 20  2  0
 26 27  1  0
 27 28  1  0
 28 29  2  0
 30 29  1  0
 30 34  1  0
 31 30  2  0
 32 27  2  0
 32 31  1  0
 33 32  1  0
 35 36  1  0
 36 39  1  0
 36 38  1  0
 37 35  2  0
 40 15  1  0
 40 41  1  0
 42 40  1  0
 43 44  1  0
 44 46  1  0
 44 47  1  0
 45 43  2  0
 49 50  1  0
 49 48  1  0
 50 51  1  0
 51 53  1  0
 52 63  2  0
 53 58  1  0
 54 62  1  0
 54 64  1  0
 55 61  1  0
 55 57  1  0
 56 62  1  0
 57 56  1  0
 58 57  2  0
 59 60  1  0
 59 53  2  0
 60 55  2  0
 61 54  1  0
 62 52  1  0
 64 66  2  0
 65 64  1  0
 67 65  1  0
 68 77  2  0
 68 73  1  0
 69 65  1  0
 69 73  1  0
 70 69  1  0
 71 72  1  0
 71 70  1  0
 72 68  1  0
 73 74  2  0
 74 75  1  0
 76 75  2  0
 77 76  1  0
 78 52  1  0
 78 79  1  0
 78 88  1  0
 79 82  1  0
 80 79  1  0
 80 84  1  0
 81 80  2  0
 84 83  1  0
 84 86  1  0
 86 87  1  0
 86 85  1  0
 88 91  1  1
 88 89  1  0
 90 88  1  0
M  ISO  4   1 100  14 100  50 101  51 101
M  END
>  <TORSDO>  (84) 
F 18

>  <SCORE>  (84) 
-11.527

>  <name>  (84) 
83

>  <ligand_id>  (84) 
83

>  <original_smiles>  (84) 
[H]c1c([H])c([H])c2c(c1[H])C([H])([H])C([H])([H])C([H])([H])C2([H])N([H])C(=O)C1([H])N(C(=O)C([H])(N([H])C(=O)C([H])(N([H])C([H])([H])[H])C([H])([H])[H])C(C([H])([H])[H])(C([H])([H])[H])C([H])([H])[H])C([H])([H])c2c([H])c(OC([H])([H])C([H])(C([H])([H])[H])C3([H])C([H])([H])N(C(=O)N4C([H])([H])C([H])([H])C([H])([H])C([H])(n5nc(-c6c([H])c([H])c(Oc7c([H])c([H])c(F)c([H])c7F)c([H])c6[H])c(C(=O)N([H])[H])c5N([H])[H])C4([H])[H])C([H])([H])C([H])([H])C3([H])C(=O)N([H])[H])c([H])c([H])c2C1([H])[H]

>  <smiles>  (84) 
[H]c1c([H])c([H])c2c(c1[H])C([H])([H])C([H])([H])C([H])([H])C2([H])N([H])C(=O)C1([H])N(C(=O)C([H])(N([H])C(=O)C([H])(N([H])C([H])([H])[H])C([H])([H])[H])C(C([H])([H])[H])(C([H])([H])[H])C([H])([H])[H])C([H])([H])c2c([H])c(OC([H])([H])C([H])(C([H])([H])[H])C3([H])C([H])([H])N(C(=O)N4C([H])([H])C([H])([H])C([H])([H])C([H])(n5nc(-c6c([H])c([H])c(Oc7c([H])c([H])c(F)c([H])c7F)c([H])c6[H])c(C(=O)N([H])[H])c5N([H])[H])C4([H])[H])C([H])([H])C([H])([H])C3([H])C(=O)N([H])[H])c([H])c([H])c2C1([H])[H]

$$$$
84:0:0
     RDKit          3D

100108  0  0  1  0  0  0  0  0999 V2000
  -28.4090  -20.7770   20.5380 C   0  0  0  0  0  2  0  0  0  0  0  0
  -28.8320  -19.2710   20.7390 C   0  0  0  0  0  3  0  0  0  0  0  0
  -29.7250  -21.5610   20.5480 C   0  0  0  0  0  3  0  0  0  0  0  0
  -30.0440  -18.9800   19.7700 C   0  0  0  0  0  3  0  0  0  0  0  0
  -30.6460  -20.4600   19.8630 N   0  0  0  0  0  4  0  0  0  0  0  0
  -30.8450  -20.7650   18.9240 H   0  0  0  0  0  0  0  0  0  0  0  0
  -31.5350  -20.4410   20.3440 H   0  0  0  0  0  0  0  0  0  0  0  0
  -26.8790  -18.1370   19.4490 C   0  0  0  0  0  1  0  0  0  0  0  0
  -27.6460  -18.2840   20.7610 C   0  0  0  0  0  2  0  0  0  0  0  0
  -30.8680  -17.4530   20.0760 C   0  0  0  0  0  2  0  0  0  0  0  0
  -31.5800  -14.8070   21.5680 C   0  0  0  0  0  3  0  0  0  0  0  0
  -31.2920  -13.4140   18.6100 C   0  0  0  0  0  1  0  0  0  0  0  0
  -29.8920  -12.5910   17.8200 C   0  0  0  0  0  3  0  0  0  0  0  0
  -28.3670  -12.4370   18.7220 C   0  0  0  0  0  3  0  0  0  0  0  0
  -28.0540  -13.1320   20.3340 C   0  0  0  0  0  0  0  0  0  0  0  0
  -29.1880  -13.8230   21.4450 C   0  0  0  0  0  3  0  0  0  0  0  0
  -30.6900  -14.1810   20.8550 N   0  0  0  0  0  0  0  0  0  0  0  0
  -32.6850  -15.3130   21.5610 O   0  0  0  0  0  0  0  0  0  0  0  0
  -30.3390  -12.1150   20.1360 C   0  0  0  0  0  1  0  0  0  0  0  0
  -29.4970  -14.6780   19.0340 C   0  0  0  0  0  2  0  0  0  0  0  0
  -32.1370  -12.6150   20.6750 C   0  0  0  0  0  2  0  0  0  0  0  0
  -30.9510  -15.7940   19.4160 C   0  0  0  0  0  3  0  0  0  0  0  0
  -31.9430  -14.5120   20.4310 N   0  0  2  0  0  4  0  0  0  0  0  0
  -25.6740  -13.8140   20.8980 C   0  0  0  0  0  0  0  0  0  0  0  0
  -24.5940  -13.0320   21.1450 C   0  0  0  0  0  0  0  0  0  0  0  0
  -25.0740  -11.6860   21.1000 C   0  0  0  0  0  0  0  0  0  0  0  0
  -26.7290  -12.9060   20.7600 N   0  0  0  0  0  0  0  0  0  0  0  0
  -26.3710  -11.6340   20.8940 N   0  0  0  0  0  0  0  0  0  0  0  0
  -24.3740  -10.4290   21.2030 C   0  0  0  0  0  0  0  0  0  0  0  0
  -24.7620   -9.4590   22.1480 C   0  0  0  0  0  3  0  0  0  0  0  0
  -24.0490   -8.2520   22.2450 C   0  0  0  0  0  3  0  0  0  0  0  0
  -22.9420   -8.0210   21.3970 C   0  0  0  0  0  0  0  0  0  0  0  0
  -22.5750   -8.9870   20.4440 C   0  0  0  0  0  3  0  0  0  0  0  0
  -23.2900  -10.1860   20.3460 C   0  0  0  0  0  3  0  0  0  0  0  0
  -22.1800   -6.8830   21.4180 O   0  0  0  0  0  0  0  0  0  0  0  0
  -22.0140   -6.1590   22.5670 C   0  0  0  0  0  0  0  0  0  0  0  0
  -21.4590   -6.7260   23.7360 C   0  0  0  0  0  3  0  0  0  0  0  0
  -21.2420   -5.9260   24.8750 C   0  0  0  0  0  3  0  0  0  0  0  0
  -21.5690   -4.5570   24.8430 C   0  0  0  0  0  0  0  0  0  0  0  0
  -22.1210   -3.9880   23.6810 C   0  0  0  0  0  3  0  0  0  0  0  0
  -22.3450   -4.7910   22.5470 C   0  0  0  0  0  0  0  0  0  0  0  0
  -22.8570   -4.2370   21.4240 F   0  0  0  0  0  0  0  0  0  0  0  0
  -21.3620   -3.7810   25.9330 F   0  0  0  0  0  0  0  0  0  0  0  0
  -23.1990  -13.5220   21.3370 C   0  0  0  0  0  0  0  0  0  0  0  0
  -22.4270  -12.8470   22.1740 N   0  0  0  0  0  0  0  0  0  0  0  0
  -22.8060  -14.5470   20.7890 O   0  0  0  0  0  0  0  0  0  0  0  0
  -22.7570  -12.0290   22.6650 H   0  0  0  0  0  0  0  0  0  0  0  0
  -21.4840  -13.1680   22.3460 H   0  0  0  0  0  0  0  0  0  0  0  0
  -25.8020  -15.1960   20.7790 N   0  0  0  0  0  0  0  0  0  0  0  0
  -24.9930  -15.8040   20.8300 H   0  0  0  0  0  0  0  0  0  0  0  0
  -26.6800  -15.6930   20.7720 H   0  0  0  0  0  0  0  0  0  0  0  0
  -34.6950  -12.4260   21.0430 C   0  0  0  0  0  1  0  0  0  0  0  0
  -33.5180  -12.0970   20.1100 C   0  0  0  0  0  3  0  0  0  0  0  0
  -33.6310   -9.5500   20.6890 C   0  0  0  0  0  1  0  0  0  0  0  0
  -33.5530  -10.6340   19.6090 C   0  0  0  0  0  2  0  0  0  0  0  0
  -28.2690  -16.6130   17.5150 C   0  0  0  0  0  1  0  0  0  0  0  0
  -28.1610  -15.4300   18.5210 C   0  0  0  0  0  2  0  0  0  0  0  0
  -29.6890  -23.2840   20.2160 C   0  0  0  0  0  3  0  0  0  0  0  0
  -28.7790  -24.5770   20.9520 C   0  0  0  0  0  3  0  0  0  0  0  0
  -28.8390  -26.1770   20.8420 O   0  0  0  0  0  0  0  0  0  0  0  0
  -24.8640  -31.9800   23.5000 C   0  0  0  0  0  0  0  0  0  0  0  0
  -27.7200  -27.1210   20.8230 C   0  0  0  0  0  0  0  0  0  0  0  0
  -23.7970  -30.4840   21.8640 C   0  0  0  0  0  3  0  0  0  0  0  0
  -25.3540  -28.8540   20.6090 C   0  0  0  0  0  0  0  0  0  0  0  0
  -26.3580  -30.7710   21.8340 C   0  0  0  0  0  2  0  0  0  0  0  0
  -26.4980  -29.3450   21.2520 C   0  0  0  0  0  0  0  0  0  0  0  0
  -27.6810  -28.5000   21.3200 C   0  0  0  0  0  3  0  0  0  0  0  0
  -26.5210  -26.7300   20.1920 C   0  0  0  0  0  3  0  0  0  0  0  0
  -25.3820  -27.5630   20.0600 C   0  0  0  0  0  3  0  0  0  0  0  0
  -24.1080  -29.7310   20.5440 C   0  0  0  0  0  2  0  0  0  0  0  0
  -25.0260  -31.1080   22.4530 N   0  0  0  0  0  0  0  0  0  0  0  0
  -23.7400  -32.2630   23.9430 O   0  0  0  0  0  0  0  0  0  0  0  0
  -23.0640  -29.5200   22.8320 C   0  0  0  0  0  0  0  0  0  0  0  0
  -21.7490  -29.3260   22.6260 N   0  0  0  0  0  0  0  0  0  0  0  0
  -23.6870  -28.9400   23.7260 O   0  0  0  0  0  0  0  0  0  0  0  0
  -21.3090  -29.8400   21.8760 H   0  0  0  0  0  0  0  0  0  0  0  0
  -18.3480  -28.1250   22.9790 C   0  0  0  0  0  0  0  0  0  0  0  0
  -20.8870  -28.4150   23.3810 C   0  0  0  0  0  3  0  0  0  0  0  0
  -21.0300  -26.9670   22.8580 C   0  0  0  0  0  2  0  0  0  0  0  0
  -19.9860  -26.6020   21.7970 C   0  0  0  0  0  2  0  0  0  0  0  0
  -18.5700  -26.7580   22.3570 C   0  0  0  0  0  2  0  0  0  0  0  0
  -19.4370  -28.9110   23.4430 C   0  0  0  0  0  0  0  0  0  0  0  0
  -19.1740  -30.1900   23.9830 C   0  0  0  0  0  3  0  0  0  0  0  0
  -17.8560  -30.6800   24.0680 C   0  0  0  0  0  3  0  0  0  0  0  0
  -16.7820  -29.8920   23.6200 C   0  0  0  0  0  3  0  0  0  0  0  0
  -17.0300  -28.6170   23.0800 C   0  0  0  0  0  3  0  0  0  0  0  0
  -26.0820  -32.6710   24.1860 C   0  0  0  0  0  3  0  0  0  0  0  0
  -25.7530  -34.0960   24.3570 N   0  0  0  0  0  0  0  0  0  0  0  0
  -26.1930  -35.0850   23.5660 C   0  0  0  0  0  0  0  0  0  0  0  0
  -26.9770  -34.8910   22.6320 O   0  0  0  0  0  0  0  0  0  0  0  0
  -25.0670  -34.3170   25.0620 H   0  0  0  0  0  0  0  0  0  0  0  0
  -24.5600  -36.8780   22.8720 C   0  0  0  0  0  1  0  0  0  0  0  0
  -25.6850  -36.5120   23.8550 C   0  0  0  0  0  3  0  0  0  0  0  0
  -27.7220  -37.4370   24.8700 C   0  0  0  0  0  1  0  0  0  0  0  0
  -26.7470  -37.5400   23.7900 N   0  0  0  0  0  0  0  0  0  0  0  0
  -26.3450  -38.4740   23.8160 H   0  0  0  0  0  0  0  0  0  0  0  0
  -26.4530  -32.0290   25.5800 C   0  0  1  0  0  0  0  0  0  0  0  0
  -25.2530  -31.8950   26.5470 C   0  0  0  0  0  1  0  0  0  0  0  0
  -27.0560  -30.6220   25.3850 C   0  0  0  0  0  1  0  0  0  0  0  0
  -27.5370  -32.8850   26.2840 C   0  0  0  0  0  1  0  0  0  0  0  0
  1  3  1  0
  1  2  1  0
  2  9  1  0
  3 58  1  0
  4  5  1  0
  4 10  1  0
  4  2  1  0
  5  7  1  0
  5  3  1  0
  6  5  1  0
  8  9  1  0
 11 18  1  0
 13 12  1  0
 13 14  2  0
 14 15  1  0
 15 27  1  0
 15 16  2  0
 17 16  1  0
 17 11  1  0
 19 21  1  0
 22 20  1  0
 22 10  1  0
 23 22  1  1
 23 17  1  0
 23 18  1  0
 23 11  1  0
 24 25  2  0
 25 44  1  0
 26 25  1  0
 26 29  1  0
 27 28  1  0
 27 24  1  0
 28 26  2  0
 29 30  1  0
 30 31  2  0
 32 35  1  0
 32 31  1  0
 33 32  2  0
 34 33  1  0
 34 29  2  0
 35 36  1  0
 36 37  1  0
 37 38  2  0
 39 38  1  0
 39 43  1  0
 40 39  2  0
 41 36  2  0
 41 40  1  0
 42 41  1  0
 44 45  1  0
 45 48  1  0
 45 47  1  0
 46 44  2  0
 49 50  1  0
 49 24  1  0
 51 49  1  0
 53 21  1  0
 53 52  1  0
 55 53  1  0
 55 54  1  0
 56 57  1  0
 57 20  1  0
 58 59  2  0
 60 59  1  0
 61 72  2  0
 62 60  1  0
 62 67  1  0
 63 71  1  0
 63 73  1  0
 64 66  1  0
 65 71  1  0
 66 67  2  0
 66 65  1  0
 68 62  2  0
 69 68  1  0
 69 64  2  0
 70 64  1  0
 70 63  1  0
 71 61  1  0
 73 75  2  0
 74 73  1  0
 76 74  1  0
 77 86  2  0
 77 82  1  0
 78 74  1  0
 78 82  1  0
 79 78  1  0
 80 81  1  0
 80 79  1  0
 81 77  1  0
 82 83  2  0
 83 84  1  0
 85 84  2  0
 86 85  1  0
 87 61  1  0
 87 88  1  0
 87 97  1  0
 88 91  1  0
 89 93  1  0
 89 88  1  0
 90 89  2  0
 93 92  1  0
 95 96  1  0
 95 93  1  0
 95 94  1  0
 97100  1  1
 97 98  1  0
 99 97  1  0
M  ISO  4  11 100  23 100  59 101  60 101
M  END
>  <TORSDO>  (85) 
F 23

>  <SCORE>  (85) 
-9.686

>  <name>  (85) 
84

>  <ligand_id>  (85) 
84

>  <original_smiles>  (85) 
[H]c1c([H])c([H])c2c(c1[H])C([H])([H])C([H])([H])C([H])([H])C2([H])N([H])C(=O)C1([H])N(C(=O)C([H])(N([H])C(=O)C([H])(N([H])C([H])([H])[H])C([H])([H])[H])C(C([H])([H])[H])(C([H])([H])[H])C([H])([H])[H])C([H])([H])c2c([H])c(OC([H])([H])C([H])([H])C3([H])C([H])([H])C([H])(C([H])([H])C([H])([H])[H])C([H])(C([H])([H])C4([H])N(C(=O)N5C([H])([H])C([H])([H])C([H])([H])C([H])(n6nc(-c7c([H])c([H])c(Oc8c([H])c([H])c(F)c([H])c8F)c([H])c7[H])c(C(=O)N([H])[H])c6N([H])[H])C5([H])[H])C([H])(C([H])(C([H])([H])[H])C([H])([H])C([H])([H])[H])C([H])([H])C4([H])C([H])([H])C([H])([H])[H])[N+]3([H])[H])c([H])c([H])c2C1([H])[H]

>  <smiles>  (85) 
[H]c1c([H])c([H])c2c(c1[H])C([H])([H])C([H])([H])C([H])([H])C2([H])N([H])C(=O)C1([H])N(C(=O)C([H])(N([H])C(=O)C([H])(N([H])C([H])([H])[H])C([H])([H])[H])C(C([H])([H])[H])(C([H])([H])[H])C([H])([H])[H])C([H])([H])c2c([H])c(OC([H])([H])C([H])([H])C3([H])C([H])([H])C([H])(C([H])([H])C([H])([H])[H])C([H])(C([H])([H])C4([H])N(C(=O)N5C([H])([H])C([H])([H])C([H])([H])C([H])(n6nc(-c7c([H])c([H])c(Oc8c([H])c([H])c(F)c([H])c8F)c([H])c7[H])c(C(=O)N([H])[H])c6N([H])[H])C5([H])[H])C([H])(C([H])(C([H])([H])[H])C([H])([H])C([H])([H])[H])C([H])([H])C4([H])C([H])([H])C([H])([H])[H])[N+]3([H])[H])c([H])c([H])c2C1([H])[H]

$$$$
85:0:0
     RDKit          3D

 90 97  0  0  1  0  0  0  0  0999 V2000
  -29.1030  -21.4060   19.8180 N   0  0  0  0  0  4  0  0  0  0  0  0
  -30.1040  -21.4960   19.7830 H   0  0  0  0  0  0  0  0  0  0  0  0
  -28.7760  -21.4510   18.8630 H   0  0  0  0  0  0  0  0  0  0  0  0
  -28.5060  -22.7900   20.5010 C   0  0  0  0  0  2  0  0  0  0  0  0
  -28.2930  -24.3970   19.7790 C   0  0  0  0  0  2  0  0  0  0  0  0
  -28.2300  -25.9250   20.3500 O   0  0  0  0  0  0  0  0  0  0  0  0
  -24.5960  -31.8180   23.2040 C   0  0  0  0  0  0  0  0  0  0  0  0
  -27.2010  -26.9790   20.2150 C   0  0  0  0  0  0  0  0  0  0  0  0
  -23.4260  -30.4160   21.5530 C   0  0  0  0  0  3  0  0  0  0  0  0
  -24.8950  -28.8230   20.1450 C   0  0  0  0  0  0  0  0  0  0  0  0
  -25.9900  -30.6420   21.4390 C   0  0  0  0  0  2  0  0  0  0  0  0
  -26.0710  -29.2380   20.7840 C   0  0  0  0  0  0  0  0  0  0  0  0
  -27.2140  -28.3320   20.8030 C   0  0  0  0  0  3  0  0  0  0  0  0
  -26.0010  -26.7070   19.5200 C   0  0  0  0  0  3  0  0  0  0  0  0
  -24.8830  -27.5770   19.4970 C   0  0  0  0  0  3  0  0  0  0  0  0
  -23.6720  -29.7350   20.1800 C   0  0  0  0  0  2  0  0  0  0  0  0
  -24.6910  -30.9850   22.1190 N   0  0  0  0  0  0  0  0  0  0  0  0
  -23.5010  -32.1080   23.7110 O   0  0  0  0  0  0  0  0  0  0  0  0
  -22.7230  -29.4180   22.5090 C   0  0  0  0  0  0  0  0  0  0  0  0
  -21.3930  -29.2670   22.3800 N   0  0  0  0  0  0  0  0  0  0  0  0
  -23.3820  -28.7800   23.3340 O   0  0  0  0  0  0  0  0  0  0  0  0
  -20.9160  -29.8340   21.6930 H   0  0  0  0  0  0  0  0  0  0  0  0
  -17.9920  -28.1120   22.8900 C   0  0  0  0  0  0  0  0  0  0  0  0
  -20.5590  -28.3330   23.1430 C   0  0  0  0  0  3  0  0  0  0  0  0
  -20.6350  -26.9080   22.5490 C   0  0  0  0  0  2  0  0  0  0  0  0
  -19.5220  -26.6140   21.5370 C   0  0  0  0  0  2  0  0  0  0  0  0
  -18.1440  -26.7710   22.1910 C   0  0  0  0  0  2  0  0  0  0  0  0
  -19.1260  -28.8510   23.3220 C   0  0  0  0  0  0  0  0  0  0  0  0
  -18.9270  -30.1060   23.9380 C   0  0  0  0  0  3  0  0  0  0  0  0
  -17.6310  -30.6230   24.1240 C   0  0  0  0  0  3  0  0  0  0  0  0
  -16.5130  -29.8800   23.7080 C   0  0  0  0  0  3  0  0  0  0  0  0
  -16.6940  -28.6270   23.0970 C   0  0  0  0  0  3  0  0  0  0  0  0
  -25.8590  -32.4650   23.8520 C   0  0  0  0  0  3  0  0  0  0  0  0
  -25.5400  -33.8660   24.1690 N   0  0  0  0  0  0  0  0  0  0  0  0
  -25.8810  -34.9210   23.4150 C   0  0  0  0  0  0  0  0  0  0  0  0
  -26.5600  -34.8140   22.3920 O   0  0  0  0  0  0  0  0  0  0  0  0
  -24.9390  -34.0220   24.9650 H   0  0  0  0  0  0  0  0  0  0  0  0
  -24.1590  -36.7220   23.0440 C   0  0  0  0  0  1  0  0  0  0  0  0
  -25.3930  -36.3130   23.8660 C   0  0  0  0  0  3  0  0  0  0  0  0
  -27.5170  -37.2030   24.7200 C   0  0  0  0  0  1  0  0  0  0  0  0
  -26.4290  -37.3660   23.7580 N   0  0  0  0  0  0  0  0  0  0  0  0
  -26.0240  -38.2870   23.8920 H   0  0  0  0  0  0  0  0  0  0  0  0
  -26.3410  -31.7110   25.1540 C   0  0  1  0  0  0  0  0  0  0  0  0
  -25.2180  -31.4880   26.1950 C   0  0  0  0  0  1  0  0  0  0  0  0
  -26.9340  -30.3270   24.8030 C   0  0  0  0  0  1  0  0  0  0  0  0
  -27.4740  -32.5130   25.8360 C   0  0  0  0  0  1  0  0  0  0  0  0
  -28.7720  -19.8240   20.1450 C   0  0  0  0  0  3  0  0  0  0  0  0
  -27.5700  -19.5610   19.2100 C   0  0  0  0  0  0  0  0  0  0  0  0
  -26.7480  -18.2980   19.4090 C   0  0  0  0  0  1  0  0  0  0  0  0
  -27.2770  -20.3160   18.2750 O   0  0  0  0  0  0  0  0  0  0  0  0
  -29.8660  -18.4100   20.0190 C   0  0  0  0  0  3  0  0  0  0  0  0
  -32.0540  -18.3900   18.6370 C   0  0  0  0  0  1  0  0  0  0  0  0
  -30.5190  -18.4500   18.6150 C   0  0  0  0  0  2  0  0  0  0  0  0
  -29.5630  -16.6900   20.3990 C   0  0  0  0  0  2  0  0  0  0  0  0
  -30.4240  -15.1990   20.1540 C   0  0  0  0  0  0  0  0  0  0  0  0
  -30.3930  -12.7560   19.3060 C   0  0  0  0  0  2  0  0  0  0  0  0
  -29.4440  -12.6040   18.0910 C   0  0  0  0  0  2  0  0  0  0  0  0
  -27.9940  -12.3590   18.5510 C   0  0  0  0  0  2  0  0  0  0  0  0
  -27.5810  -13.3170   19.6950 C   0  0  0  0  0  3  0  0  0  0  0  0
  -28.6520  -13.4250   20.7980 C   0  0  0  0  0  2  0  0  0  0  0  0
  -29.8930  -13.8850   20.1620 N   0  0  0  0  0  0  0  0  0  0  0  0
  -31.6270  -15.2260   19.8570 O   0  0  0  0  0  0  0  0  0  0  0  0
  -25.2350  -13.8880   20.5180 C   0  0  0  0  0  0  0  0  0  0  0  0
  -24.1750  -13.1170   20.9010 C   0  0  0  0  0  0  0  0  0  0  0  0
  -24.6280  -11.7630   20.8390 C   0  0  0  0  0  0  0  0  0  0  0  0
  -26.2620  -13.0080   20.2320 N   0  0  0  0  0  0  0  0  0  0  0  0
  -25.9120  -11.7230   20.4960 N   0  0  0  0  0  0  0  0  0  0  0  0
  -23.8930  -10.5070   21.0270 C   0  0  0  0  0  0  0  0  0  0  0  0
  -24.3230   -9.5310   21.9530 C   0  0  0  0  0  3  0  0  0  0  0  0
  -23.5860   -8.3400   22.1320 C   0  0  0  0  0  3  0  0  0  0  0  0
  -22.4060   -8.1170   21.3830 C   0  0  0  0  0  0  0  0  0  0  0  0
  -21.9960   -9.0810   20.4470 C   0  0  0  0  0  3  0  0  0  0  0  0
  -22.7320  -10.2630   20.2660 C   0  0  0  0  0  3  0  0  0  0  0  0
  -21.6410   -6.9790   21.4720 O   0  0  0  0  0  0  0  0  0  0  0  0
  -21.5700   -6.2470   22.6310 C   0  0  0  0  0  0  0  0  0  0  0  0
  -21.1050   -6.8090   23.8390 C   0  0  0  0  0  3  0  0  0  0  0  0
  -20.9830   -6.0010   24.9890 C   0  0  0  0  0  3  0  0  0  0  0  0
  -21.3150   -4.6360   24.9300 C   0  0  0  0  0  0  0  0  0  0  0  0
  -21.7740   -4.0730   23.7250 C   0  0  0  0  0  3  0  0  0  0  0  0
  -21.8990   -4.8780   22.5780 C   0  0  0  0  0  0  0  0  0  0  0  0
  -22.3200   -4.3260   21.4140 F   0  0  0  0  0  0  0  0  0  0  0  0
  -21.1910   -3.8580   26.0310 F   0  0  0  0  0  0  0  0  0  0  0  0
  -22.7890  -13.6050   21.2080 C   0  0  0  0  0  0  0  0  0  0  0  0
  -22.0750  -12.9110   22.0870 N   0  0  0  0  0  0  0  0  0  0  0  0
  -22.3490  -14.6380   20.7050 O   0  0  0  0  0  0  0  0  0  0  0  0
  -22.4450  -12.0770   22.5180 H   0  0  0  0  0  0  0  0  0  0  0  0
  -21.1460  -13.2230   22.3360 H   0  0  0  0  0  0  0  0  0  0  0  0
  -25.4040  -15.2590   20.3620 N   0  0  0  0  0  0  0  0  0  0  0  0
  -24.6410  -15.9130   20.5060 H   0  0  0  0  0  0  0  0  0  0  0  0
  -26.2470  -15.6960   20.0200 H   0  0  0  0  0  0  0  0  0  0  0  0
  1 47  1  0
  1  4  1  0
  2  1  1  0
  3  1  1  0
  5  6  1  0
  5  4  1  0
  7 18  2  0
  8  6  1  0
  8 13  1  0
  9 17  1  0
  9 19  1  0
 10 16  1  0
 10 12  1  0
 11 17  1  0
 12 13  2  0
 12 11  1  0
 14  8  2  0
 15 14  1  0
 15 10  2  0
 16  9  1  0
 17  7  1  0
 19 21  2  0
 20 19  1  0
 22 20  1  0
 23 32  2  0
 23 28  1  0
 24 20  1  0
 24 28  1  0
 25 24  1  0
 26 27  1  0
 26 25  1  0
 27 23  1  0
 28 29  2  0
 29 30  1  0
 31 30  2  0
 32 31  1  0
 33  7  1  0
 33 34  1  0
 33 43  1  0
 34 37  1  0
 35 39  1  0
 35 34  1  0
 36 35  2  0
 39 38  1  0
 41 39  1  0
 41 42  1  0
 41 40  1  0
 43 46  1  1
 43 44  1  0
 45 43  1  0
 47 48  1  0
 48 49  1  0
 50 48  2  0
 51 53  1  0
 51 47  1  0
 51 54  1  0
 53 52  1  0
 55 61  1  0
 55 54  1  0
 56 61  1  0
 57 58  1  0
 57 56  1  0
 59 58  1  0
 59 66  1  0
 59 60  1  0
 61 60  1  0
 62 55  2  0
 63 64  2  0
 64 83  1  0
 65 64  1  0
 65 68  1  0
 66 67  1  0
 66 63  1  0
 67 65  2  0
 68 69  1  0
 69 70  2  0
 71 74  1  0
 71 70  1  0
 72 71  2  0
 73 72  1  0
 73 68  2  0
 74 75  1  0
 75 76  1  0
 76 77  2  0
 78 77  1  0
 78 82  1  0
 79 78  2  0
 80 75  2  0
 80 79  1  0
 81 80  1  0
 83 84  1  0
 84 87  1  0
 84 86  1  0
 85 83  2  0
 88 89  1  0
 88 63  1  0
 90 88  1  0
M  ISO  4   5 101   6 101  54 100  55 100
M  END
>  <TORSDO>  (86) 
F 23

>  <SCORE>  (86) 
-14.730

>  <name>  (86) 
85

>  <ligand_id>  (86) 
85

>  <original_smiles>  (86) 
[H]c1c([H])c([H])c2c(c1[H])C([H])([H])C([H])([H])C([H])([H])C2([H])N([H])C(=O)C1([H])N(C(=O)C([H])(N([H])C(=O)C([H])(N([H])C([H])([H])[H])C([H])([H])[H])C(C([H])([H])[H])(C([H])([H])[H])C([H])([H])[H])C([H])([H])c2c([H])c(OC([H])([H])C([H])([H])[N+]([H])([H])C([H])(C(=O)C([H])([H])[H])C([H])(C([H])([H])C(=O)N3C([H])([H])C([H])([H])C([H])([H])C([H])(n4nc(-c5c([H])c([H])c(Oc6c([H])c([H])c(F)c([H])c6F)c([H])c5[H])c(C(=O)N([H])[H])c4N([H])[H])C3([H])[H])C([H])([H])C([H])([H])[H])c([H])c([H])c2C1([H])[H]

>  <smiles>  (86) 
[H]c1c([H])c([H])c2c(c1[H])C([H])([H])C([H])([H])C([H])([H])C2([H])N([H])C(=O)C1([H])N(C(=O)C([H])(N([H])C(=O)C([H])(N([H])C([H])([H])[H])C([H])([H])[H])C(C([H])([H])[H])(C([H])([H])[H])C([H])([H])[H])C([H])([H])c2c([H])c(OC([H])([H])C([H])([H])[N+]([H])([H])C([H])(C(=O)C([H])([H])[H])C([H])(C([H])([H])C(=O)N3C([H])([H])C([H])([H])C([H])([H])C([H])(n4nc(-c5c([H])c([H])c(Oc6c([H])c([H])c(F)c([H])c6F)c([H])c5[H])c(C(=O)N([H])[H])c4N([H])[H])C3([H])[H])C([H])([H])C([H])([H])[H])c([H])c([H])c2C1([H])[H]

$$$$
86:0:0
     RDKit          3D

 89 97  0  0  1  0  0  0  0  0999 V2000
  -28.6270  -21.8560   20.3250 C   0  0  0  0  0  2  0  0  0  0  0  0
  -31.5540  -19.3360   18.9850 C   0  0  0  0  0  2  0  0  0  0  0  0
  -30.5360  -20.4960   19.0370 C   0  0  0  0  0  2  0  0  0  0  0  0
  -30.9190  -17.9310   19.0080 C   0  0  0  0  0  2  0  0  0  0  0  0
  -29.1340  -18.9320   20.5040 C   0  0  0  0  0  2  0  0  0  0  0  0
  -29.6470  -20.5100   20.2970 C   0  0  0  0  0  3  0  0  0  0  0  0
  -30.1930  -17.6560   20.3390 C   0  0  0  0  0  3  0  0  0  0  0  0
  -30.5460  -14.9410   20.3380 C   0  0  0  0  0  0  0  0  0  0  0  0
  -30.3860  -12.6080   19.3870 C   0  0  0  0  0  2  0  0  0  0  0  0
  -29.4530  -12.5930   18.1570 C   0  0  0  0  0  2  0  0  0  0  0  0
  -27.9890  -12.3920   18.5910 C   0  0  0  0  0  2  0  0  0  0  0  0
  -27.5900  -13.3100   19.7770 C   0  0  0  0  0  3  0  0  0  0  0  0
  -28.6470  -13.3110   20.9000 C   0  0  0  0  0  2  0  0  0  0  0  0
  -29.9230  -13.7000   20.2870 N   0  0  0  0  0  0  0  0  0  0  0  0
  -31.7520  -14.9800   20.0790 O   0  0  0  0  0  0  0  0  0  0  0  0
  -29.7920  -16.1360   20.4550 N   0  0  0  0  0  0  0  0  0  0  0  0
  -28.8110  -15.9750   20.6240 H   0  0  0  0  0  0  0  0  0  0  0  0
  -25.2090  -13.8850   20.5230 C   0  0  0  0  0  0  0  0  0  0  0  0
  -24.1460  -13.1050   20.8910 C   0  0  0  0  0  0  0  0  0  0  0  0
  -24.6130  -11.7560   20.8530 C   0  0  0  0  0  0  0  0  0  0  0  0
  -26.2530  -13.0090   20.2770 N   0  0  0  0  0  0  0  0  0  0  0  0
  -25.9050  -11.7230   20.5420 N   0  0  0  0  0  0  0  0  0  0  0  0
  -23.8890  -10.4920   21.0370 C   0  0  0  0  0  0  0  0  0  0  0  0
  -24.3110   -9.5270   21.9790 C   0  0  0  0  0  3  0  0  0  0  0  0
  -23.5850   -8.3280   22.1510 C   0  0  0  0  0  3  0  0  0  0  0  0
  -22.4220   -8.0860   21.3820 C   0  0  0  0  0  0  0  0  0  0  0  0
  -22.0190   -9.0390   20.4300 C   0  0  0  0  0  3  0  0  0  0  0  0
  -22.7460  -10.2290   20.2550 C   0  0  0  0  0  3  0  0  0  0  0  0
  -21.6680   -6.9400   21.4630 O   0  0  0  0  0  0  0  0  0  0  0  0
  -21.5900   -6.2110   22.6220 C   0  0  0  0  0  0  0  0  0  0  0  0
  -21.0980   -6.7700   23.8220 C   0  0  0  0  0  3  0  0  0  0  0  0
  -20.9680   -5.9660   24.9720 C   0  0  0  0  0  3  0  0  0  0  0  0
  -21.3210   -4.6050   24.9240 C   0  0  0  0  0  0  0  0  0  0  0  0
  -21.8070   -4.0450   23.7290 C   0  0  0  0  0  3  0  0  0  0  0  0
  -21.9380   -4.8450   22.5800 C   0  0  0  0  0  0  0  0  0  0  0  0
  -22.3860   -4.2960   21.4260 F   0  0  0  0  0  0  0  0  0  0  0  0
  -21.1900   -3.8300   26.0260 F   0  0  0  0  0  0  0  0  0  0  0  0
  -22.7490  -13.5790   21.1630 C   0  0  0  0  0  0  0  0  0  0  0  0
  -22.0210  -12.8770   22.0240 N   0  0  0  0  0  0  0  0  0  0  0  0
  -22.3110  -14.6080   20.6480 O   0  0  0  0  0  0  0  0  0  0  0  0
  -22.3880  -12.0440   22.4610 H   0  0  0  0  0  0  0  0  0  0  0  0
  -21.0820  -13.1760   22.2480 H   0  0  0  0  0  0  0  0  0  0  0  0
  -25.3680  -15.2560   20.3500 N   0  0  0  0  0  0  0  0  0  0  0  0
  -24.5960  -15.9040   20.4620 H   0  0  0  0  0  0  0  0  0  0  0  0
  -26.2040  -15.6980   19.9910 H   0  0  0  0  0  0  0  0  0  0  0  0
  -29.3720  -23.7190   18.6020 C   0  0  0  0  0  1  0  0  0  0  0  0
  -29.0210  -23.4810   20.0830 C   0  0  0  0  0  3  0  0  0  0  0  0
  -27.9920  -24.7440   20.4600 C   0  0  0  0  0  2  0  0  0  0  0  0
  -28.2660  -26.2570   20.2600 O   0  0  0  0  0  0  0  0  0  0  0  0
  -24.6120  -31.9040   23.2490 C   0  0  0  0  0  0  0  0  0  0  0  0
  -27.1960  -27.2160   20.2200 C   0  0  0  0  0  0  0  0  0  0  0  0
  -23.4140  -30.5100   21.6060 C   0  0  0  0  0  3  0  0  0  0  0  0
  -24.8650  -28.9410   20.1840 C   0  0  0  0  0  0  0  0  0  0  0  0
  -25.9660  -30.7830   21.4450 C   0  0  0  0  0  2  0  0  0  0  0  0
  -26.0420  -29.3930   20.7950 C   0  0  0  0  0  0  0  0  0  0  0  0
  -27.2090  -28.5460   20.7950 C   0  0  0  0  0  3  0  0  0  0  0  0
  -25.9970  -26.8660   19.5600 C   0  0  0  0  0  3  0  0  0  0  0  0
  -24.8540  -27.6910   19.5510 C   0  0  0  0  0  3  0  0  0  0  0  0
  -23.6360  -29.8350   20.2270 C   0  0  0  0  0  2  0  0  0  0  0  0
  -24.6830  -31.0860   22.1550 N   0  0  0  0  0  0  0  0  0  0  0  0
  -23.5240  -32.1870   23.7750 O   0  0  0  0  0  0  0  0  0  0  0  0
  -22.7360  -29.4990   22.5640 C   0  0  0  0  0  0  0  0  0  0  0  0
  -21.4080  -29.3260   22.4340 N   0  0  0  0  0  0  0  0  0  0  0  0
  -23.4070  -28.8730   23.3900 O   0  0  0  0  0  0  0  0  0  0  0  0
  -20.9240  -29.8830   21.7430 H   0  0  0  0  0  0  0  0  0  0  0  0
  -18.0240  -28.1380   22.9370 C   0  0  0  0  0  0  0  0  0  0  0  0
  -20.5850  -28.3900   23.2020 C   0  0  0  0  0  3  0  0  0  0  0  0
  -20.6810  -26.9600   22.6230 C   0  0  0  0  0  2  0  0  0  0  0  0
  -19.5760  -26.6430   21.6100 C   0  0  0  0  0  2  0  0  0  0  0  0
  -18.1960  -26.7900   22.2550 C   0  0  0  0  0  2  0  0  0  0  0  0
  -19.1470  -28.8950   23.3670 C   0  0  0  0  0  0  0  0  0  0  0  0
  -18.9310  -30.1560   23.9660 C   0  0  0  0  0  3  0  0  0  0  0  0
  -17.6280  -30.6590   24.1370 C   0  0  0  0  0  3  0  0  0  0  0  0
  -16.5210  -29.8990   23.7220 C   0  0  0  0  0  3  0  0  0  0  0  0
  -16.7200  -28.6400   23.1280 C   0  0  0  0  0  3  0  0  0  0  0  0
  -25.8890  -32.5380   23.8770 C   0  0  0  0  0  3  0  0  0  0  0  0
  -26.3920  -31.7740   25.1640 C   0  0  1  0  0  0  0  0  0  0  0  0
  -25.2890  -31.5460   26.2230 C   0  0  0  0  0  1  0  0  0  0  0  0
  -26.9760  -30.3920   24.7900 C   0  0  0  0  0  1  0  0  0  0  0  0
  -27.5380  -32.5700   25.8300 C   0  0  0  0  0  1  0  0  0  0  0  0
  -25.5790  -33.9400   24.2020 N   0  0  0  0  0  0  0  0  0  0  0  0
  -25.9070  -34.9910   23.4390 C   0  0  0  0  0  0  0  0  0  0  0  0
  -26.5700  -34.8840   22.4030 O   0  0  0  0  0  0  0  0  0  0  0  0
  -24.9910  -34.0960   25.0060 H   0  0  0  0  0  0  0  0  0  0  0  0
  -24.1770  -36.7860   23.0960 C   0  0  0  0  0  1  0  0  0  0  0  0
  -25.4260  -36.3820   23.8970 C   0  0  0  0  0  3  0  0  0  0  0  0
  -27.5660  -37.2730   24.7090 C   0  0  0  0  0  1  0  0  0  0  0  0
  -26.4590  -37.4340   23.7700 N   0  0  0  0  0  0  0  0  0  0  0  0
  -26.0540  -38.3550   23.9130 H   0  0  0  0  0  0  0  0  0  0  0  0
  2  4  1  0
  2  3  1  0
  3  6  1  0
  4  7  1  0
  6  1  1  0
  6  5  1  0
  7 16  1  0
  7  5  1  0
  8 16  1  0
  9 14  1  0
 10 11  1  0
 10  9  1  0
 12 11  1  0
 12 21  1  0
 12 13  1  0
 14  8  1  0
 14 13  1  0
 15  8  2  0
 16 17  1  0
 18 19  2  0
 19 38  1  0
 20 19  1  0
 20 23  1  0
 21 18  1  0
 21 22  1  0
 22 20  2  0
 23 24  1  0
 24 25  2  0
 26 29  1  0
 26 25  1  0
 27 26  2  0
 28 27  1  0
 28 23  2  0
 29 30  1  0
 30 31  1  0
 31 32  2  0
 33 32  1  0
 33 37  1  0
 34 33  2  0
 35 30  2  0
 35 34  1  0
 36 35  1  0
 38 39  1  0
 39 42  1  0
 39 41  1  0
 40 38  2  0
 43 44  1  0
 43 18  1  0
 45 43  1  0
 47 46  1  0
 47  1  1  0
 47 48  1  0
 49 48  1  0
 50 61  2  0
 51 49  1  0
 51 56  1  0
 52 60  1  0
 52 62  1  0
 53 59  1  0
 53 55  1  0
 54 60  1  0
 55 56  2  0
 55 54  1  0
 57 51  2  0
 58 57  1  0
 58 53  2  0
 59 52  1  0
 60 50  1  0
 62 64  2  0
 63 62  1  0
 65 63  1  0
 66 75  2  0
 66 71  1  0
 67 63  1  0
 67 71  1  0
 68 67  1  0
 69 70  1  0
 69 68  1  0
 70 66  1  0
 71 72  2  0
 72 73  1  0
 74 73  2  0
 75 74  1  0
 76 50  1  0
 76 81  1  0
 76 77  1  0
 77 80  1  1
 77 78  1  0
 79 77  1  0
 81 84  1  0
 82 86  1  0
 82 81  1  0
 83 82  2  0
 86 85  1  0
 88 86  1  0
 88 89  1  0
 88 87  1  0
M  ISO  4   8 100  16 100  48 101  49 101
M  END
>  <TORSDO>  (87) 
F 19

>  <SCORE>  (87) 
-14.129

>  <name>  (87) 
86

>  <ligand_id>  (87) 
86

>  <original_smiles>  (87) 
[H]c1c([H])c([H])c2c(c1[H])C([H])([H])C([H])([H])C([H])([H])C2([H])N([H])C(=O)C1([H])N(C(=O)C([H])(N([H])C(=O)C([H])(N([H])C([H])([H])[H])C([H])([H])[H])C(C([H])([H])[H])(C([H])([H])[H])C([H])([H])[H])C([H])([H])c2c([H])c(OC([H])([H])C([H])(C([H])([H])[H])C([H])([H])C3([H])C([H])([H])C([H])([H])C([H])([H])C([H])(N([H])C(=O)N4C([H])([H])C([H])([H])C([H])([H])C([H])(n5nc(-c6c([H])c([H])c(Oc7c([H])c([H])c(F)c([H])c7F)c([H])c6[H])c(C(=O)N([H])[H])c5N([H])[H])C4([H])[H])C3([H])[H])c([H])c([H])c2C1([H])[H]

>  <smiles>  (87) 
[H]c1c([H])c([H])c2c(c1[H])C([H])([H])C([H])([H])C([H])([H])C2([H])N([H])C(=O)C1([H])N(C(=O)C([H])(N([H])C(=O)C([H])(N([H])C([H])([H])[H])C([H])([H])[H])C(C([H])([H])[H])(C([H])([H])[H])C([H])([H])[H])C([H])([H])c2c([H])c(OC([H])([H])C([H])(C([H])([H])[H])C([H])([H])C3([H])C([H])([H])C([H])([H])C([H])([H])C([H])(N([H])C(=O)N4C([H])([H])C([H])([H])C([H])([H])C([H])(n5nc(-c6c([H])c([H])c(Oc7c([H])c([H])c(F)c([H])c7F)c([H])c6[H])c(C(=O)N([H])[H])c5N([H])[H])C4([H])[H])C3([H])[H])c([H])c([H])c2C1([H])[H]

$$$$
87:0:0
     RDKit          3D

 90 97  0  0  1  0  0  0  0  0999 V2000
  -28.6980  -21.3190   20.4280 C   0  0  0  0  0  0  0  0  0  0  0  0
  -28.9440  -22.5950   19.9670 N   0  0  0  0  0  0  0  0  0  0  0  0
  -27.6890  -21.0830   21.0920 O   0  0  0  0  0  0  0  0  0  0  0  0
  -29.7520  -22.7000   19.3680 H   0  0  0  0  0  0  0  0  0  0  0  0
  -28.3440  -23.8960   20.4700 C   0  0  0  0  0  2  0  0  0  0  0  0
  -28.5130  -25.2130   19.5800 C   0  0  0  0  0  2  0  0  0  0  0  0
  -28.3950  -26.5560   20.2010 O   0  0  0  0  0  0  0  0  0  0  0  0
  -24.6080  -31.8920   23.2370 C   0  0  0  0  0  0  0  0  0  0  0  0
  -27.2380  -27.3470   20.1590 C   0  0  0  0  0  0  0  0  0  0  0  0
  -23.4070  -30.4880   21.5960 C   0  0  0  0  0  3  0  0  0  0  0  0
  -24.8600  -28.9420   20.1680 C   0  0  0  0  0  0  0  0  0  0  0  0
  -25.9440  -30.8180   21.4080 C   0  0  0  0  0  2  0  0  0  0  0  0
  -26.0260  -29.4380   20.7660 C   0  0  0  0  0  0  0  0  0  0  0  0
  -27.2110  -28.6470   20.7570 C   0  0  0  0  0  3  0  0  0  0  0  0
  -26.0430  -26.8910   19.5630 C   0  0  0  0  0  3  0  0  0  0  0  0
  -24.8700  -27.6730   19.5670 C   0  0  0  0  0  3  0  0  0  0  0  0
  -23.6190  -29.8110   20.2170 C   0  0  0  0  0  2  0  0  0  0  0  0
  -24.6730  -31.0850   22.1360 N   0  0  0  0  0  0  0  0  0  0  0  0
  -23.5250  -32.1650   23.7720 O   0  0  0  0  0  0  0  0  0  0  0  0
  -22.7530  -29.4700   22.5580 C   0  0  0  0  0  0  0  0  0  0  0  0
  -21.4290  -29.2850   22.4320 N   0  0  0  0  0  0  0  0  0  0  0  0
  -23.4370  -28.8440   23.3720 O   0  0  0  0  0  0  0  0  0  0  0  0
  -20.9370  -29.8430   21.7480 H   0  0  0  0  0  0  0  0  0  0  0  0
  -18.0540  -28.0820   22.9310 C   0  0  0  0  0  0  0  0  0  0  0  0
  -20.6130  -28.3450   23.2020 C   0  0  0  0  0  3  0  0  0  0  0  0
  -20.7180  -26.9140   22.6260 C   0  0  0  0  0  2  0  0  0  0  0  0
  -19.6160  -26.5920   21.6100 C   0  0  0  0  0  2  0  0  0  0  0  0
  -18.2340  -26.7330   22.2550 C   0  0  0  0  0  2  0  0  0  0  0  0
  -19.1720  -28.8460   23.3600 C   0  0  0  0  0  0  0  0  0  0  0  0
  -18.9510  -30.1090   23.9490 C   0  0  0  0  0  3  0  0  0  0  0  0
  -17.6440  -30.6050   24.1190 C   0  0  0  0  0  3  0  0  0  0  0  0
  -16.5410  -29.8380   23.7040 C   0  0  0  0  0  3  0  0  0  0  0  0
  -16.7470  -28.5790   23.1130 C   0  0  0  0  0  3  0  0  0  0  0  0
  -25.8880  -32.5270   23.8580 C   0  0  0  0  0  3  0  0  0  0  0  0
  -25.5760  -33.9270   24.1800 N   0  0  0  0  0  0  0  0  0  0  0  0
  -25.9100  -34.9780   23.4200 C   0  0  0  0  0  0  0  0  0  0  0  0
  -26.5830  -34.8710   22.3900 O   0  0  0  0  0  0  0  0  0  0  0  0
  -24.9740  -34.0830   24.9770 H   0  0  0  0  0  0  0  0  0  0  0  0
  -24.1790  -36.7670   23.0520 C   0  0  0  0  0  1  0  0  0  0  0  0
  -25.4190  -36.3680   23.8700 C   0  0  0  0  0  3  0  0  0  0  0  0
  -27.5540  -37.2540   24.6960 C   0  0  0  0  0  1  0  0  0  0  0  0
  -26.4480  -37.4250   23.7580 N   0  0  0  0  0  0  0  0  0  0  0  0
  -26.0410  -38.3420   23.9150 H   0  0  0  0  0  0  0  0  0  0  0  0
  -26.4010  -31.7640   25.1420 C   0  0  1  0  0  0  0  0  0  0  0  0
  -25.3080  -31.5330   26.2120 C   0  0  0  0  0  1  0  0  0  0  0  0
  -26.9830  -30.3840   24.7550 C   0  0  0  0  0  1  0  0  0  0  0  0
  -27.5530  -32.5600   25.7980 C   0  0  0  0  0  1  0  0  0  0  0  0
  -29.7680  -20.1500   20.2270 C   0  0  0  0  0  3  0  0  0  0  0  0
  -30.9700  -21.1630   22.3370 C   0  0  0  0  0  1  0  0  0  0  0  0
  -31.0950  -20.6250   20.8880 C   0  0  0  0  0  2  0  0  0  0  0  0
  -29.3700  -18.6300   20.6600 C   0  0  0  0  0  3  0  0  0  0  0  0
  -30.2930  -17.3710   20.2150 C   0  0  0  0  0  3  0  0  0  0  0  0
  -30.6030  -14.7710   20.2450 C   0  0  0  0  0  0  0  0  0  0  0  0
  -30.3640  -12.5170   19.1970 C   0  0  0  0  0  2  0  0  0  0  0  0
  -29.4010  -12.5930   17.9910 C   0  0  0  0  0  2  0  0  0  0  0  0
  -27.9410  -12.4220   18.4480 C   0  0  0  0  0  2  0  0  0  0  0  0
  -27.5940  -13.3090   19.6740 C   0  0  0  0  0  3  0  0  0  0  0  0
  -28.6680  -13.2140   20.7790 C   0  0  0  0  0  2  0  0  0  0  0  0
  -29.9540  -13.5610   20.1660 N   0  0  0  0  0  0  0  0  0  0  0  0
  -31.7880  -14.8550   19.9080 O   0  0  0  0  0  0  0  0  0  0  0  0
  -29.8630  -15.9230   20.4680 N   0  0  0  0  0  0  0  0  0  0  0  0
  -28.8860  -15.7740   20.6730 H   0  0  0  0  0  0  0  0  0  0  0  0
  -25.2150  -13.9020   20.4350 C   0  0  0  0  0  0  0  0  0  0  0  0
  -24.1560  -13.1270   20.8210 C   0  0  0  0  0  0  0  0  0  0  0  0
  -24.6210  -11.7770   20.7880 C   0  0  0  0  0  0  0  0  0  0  0  0
  -26.2570  -13.0250   20.1870 N   0  0  0  0  0  0  0  0  0  0  0  0
  -25.9070  -11.7420   20.4650 N   0  0  0  0  0  0  0  0  0  0  0  0
  -23.9020  -10.5140   20.9870 C   0  0  0  0  0  0  0  0  0  0  0  0
  -24.3450   -9.5500   21.9190 C   0  0  0  0  0  3  0  0  0  0  0  0
  -23.6230   -8.3500   22.1050 C   0  0  0  0  0  3  0  0  0  0  0  0
  -22.4450   -8.1070   21.3600 C   0  0  0  0  0  0  0  0  0  0  0  0
  -22.0240   -9.0600   20.4150 C   0  0  0  0  0  3  0  0  0  0  0  0
  -22.7450  -10.2490   20.2270 C   0  0  0  0  0  3  0  0  0  0  0  0
  -21.6950   -6.9600   21.4560 O   0  0  0  0  0  0  0  0  0  0  0  0
  -21.6550   -6.2230   22.6120 C   0  0  0  0  0  0  0  0  0  0  0  0
  -21.2340   -6.7790   23.8400 C   0  0  0  0  0  3  0  0  0  0  0  0
  -21.1410   -5.9660   24.9860 C   0  0  0  0  0  3  0  0  0  0  0  0
  -21.4610   -4.5970   24.9070 C   0  0  0  0  0  0  0  0  0  0  0  0
  -21.8780   -4.0410   23.6850 C   0  0  0  0  0  3  0  0  0  0  0  0
  -21.9720   -4.8500   22.5400 C   0  0  0  0  0  0  0  0  0  0  0  0
  -22.3510   -4.3040   21.3590 F   0  0  0  0  0  0  0  0  0  0  0  0
  -21.3670   -3.8140   26.0060 F   0  0  0  0  0  0  0  0  0  0  0  0
  -22.7590  -13.6000   21.1040 C   0  0  0  0  0  0  0  0  0  0  0  0
  -22.0420  -12.9030   21.9760 N   0  0  0  0  0  0  0  0  0  0  0  0
  -22.3140  -14.6240   20.5860 O   0  0  0  0  0  0  0  0  0  0  0  0
  -22.4190  -12.0790   22.4220 H   0  0  0  0  0  0  0  0  0  0  0  0
  -21.1060  -13.1980   22.2080 H   0  0  0  0  0  0  0  0  0  0  0  0
  -25.3730  -15.2720   20.2510 N   0  0  0  0  0  0  0  0  0  0  0  0
  -24.6080  -15.9220   20.3820 H   0  0  0  0  0  0  0  0  0  0  0  0
  -26.2020  -15.7160   19.8740 H   0  0  0  0  0  0  0  0  0  0  0  0
  1  3  2  0
  2  1  1  0
  2  5  1  0
  4  2  1  0
  6  7  1  0
  6  5  1  0
  8 19  2  0
  9  7  1  0
  9 14  1  0
 10 18  1  0
 10 20  1  0
 11 17  1  0
 11 13  1  0
 12 18  1  0
 13 12  1  0
 14 13  2  0
 15 16  1  0
 15  9  2  0
 16 11  2  0
 17 10  1  0
 18  8  1  0
 20 22  2  0
 21 20  1  0
 23 21  1  0
 24 33  2  0
 24 29  1  0
 25 21  1  0
 25 29  1  0
 26 25  1  0
 27 28  1  0
 27 26  1  0
 28 24  1  0
 29 30  2  0
 30 31  1  0
 32 31  2  0
 33 32  1  0
 34  8  1  0
 34 35  1  0
 34 44  1  0
 35 38  1  0
 36 40  1  0
 36 35  1  0
 37 36  2  0
 40 39  1  0
 42 40  1  0
 42 43  1  0
 42 41  1  0
 44 47  1  1
 44 45  1  0
 46 44  1  0
 48  1  1  0
 48 51  1  0
 48 50  1  0
 50 49  1  0
 52 61  1  0
 52 51  2  0
 53 61  1  0
 54 59  1  0
 55 56  1  0
 55 54  1  0
 57 56  1  0
 57 66  1  0
 57 58  1  0
 59 53  1  0
 59 58  1  0
 60 53  2  0
 61 62  1  0
 63 64  2  0
 64 83  1  0
 65 64  1  0
 65 68  1  0
 66 63  1  0
 66 67  1  0
 67 65  2  0
 68 69  1  0
 69 70  2  0
 71 74  1  0
 71 70  1  0
 72 71  2  0
 73 72  1  0
 73 68  2  0
 74 75  1  0
 75 76  1  0
 76 77  2  0
 78 77  1  0
 78 82  1  0
 79 78  2  0
 80 75  2  0
 80 79  1  0
 81 80  1  0
 83 84  1  0
 84 87  1  0
 84 86  1  0
 85 83  2  0
 88 89  1  0
 88 63  1  0
 90 88  1  0
M  ISO  4   6 101   7 101  53 100  61 100
M  END
>  <TORSDO>  (88) 
F 22

>  <SCORE>  (88) 
-12.988

>  <name>  (88) 
87

>  <ligand_id>  (88) 
87

>  <original_smiles>  (88) 
[H]c1c([H])c([H])c2c(c1[H])C([H])([H])C([H])([H])C([H])([H])C2([H])N([H])C(=O)C1([H])N(C(=O)C([H])(N([H])C(=O)C([H])(N([H])C([H])([H])[H])C([H])([H])[H])C(C([H])([H])[H])(C([H])([H])[H])C([H])([H])[H])C([H])([H])c2c([H])c(OC([H])([H])C([H])([H])N([H])C(=O)C([H])(C([H])([H])C([H])([H])[H])C([H])([H])C([H])([H])N([H])C(=O)N3C([H])([H])C([H])([H])C([H])([H])C([H])(n4nc(-c5c([H])c([H])c(Oc6c([H])c([H])c(F)c([H])c6F)c([H])c5[H])c(C(=O)N([H])[H])c4N([H])[H])C3([H])[H])c([H])c([H])c2C1([H])[H]

>  <smiles>  (88) 
[H]c1c([H])c([H])c2c(c1[H])C([H])([H])C([H])([H])C([H])([H])C2([H])N([H])C(=O)C1([H])N(C(=O)C([H])(N([H])C(=O)C([H])(N([H])C([H])([H])[H])C([H])([H])[H])C(C([H])([H])[H])(C([H])([H])[H])C([H])([H])[H])C([H])([H])c2c([H])c(OC([H])([H])C([H])([H])N([H])C(=O)C([H])(C([H])([H])C([H])([H])[H])C([H])([H])C([H])([H])N([H])C(=O)N3C([H])([H])C([H])([H])C([H])([H])C([H])(n4nc(-c5c([H])c([H])c(Oc6c([H])c([H])c(F)c([H])c6F)c([H])c5[H])c(C(=O)N([H])[H])c4N([H])[H])C3([H])[H])c([H])c([H])c2C1([H])[H]

$$$$
88:0:0
     RDKit          3D

 93101  0  0  1  0  0  0  0  0999 V2000
  -27.9090  -20.1800   19.1880 C   0  0  0  0  0  2  0  0  0  0  0  0
  -29.4570  -21.4940   20.3260 C   0  0  0  0  0  2  0  0  0  0  0  0
  -29.0130  -19.8330   20.2320 C   0  0  0  0  0  3  0  0  0  0  0  0
  -27.4960  -21.7510   19.1390 C   0  0  0  0  0  3  0  0  0  0  0  0
  -28.2580  -22.7040   20.1560 C   0  0  0  0  0  3  0  0  0  0  0  0
  -25.9610  -21.9430   19.1950 C   0  0  0  0  0  2  0  0  0  0  0  0
  -25.2760  -21.3270   18.0440 N   0  0  0  0  0  4  0  0  0  0  0  0
  -25.6060  -21.7150   17.1790 H   0  0  0  0  0  0  0  0  0  0  0  0
  -24.2880  -21.4970   18.1060 H   0  0  0  0  0  0  0  0  0  0  0  0
  -25.4200  -20.3340   18.0260 H   0  0  0  0  0  0  0  0  0  0  0  0
  -28.2460  -24.4520   19.6560 C   0  0  0  0  0  2  0  0  0  0  0  0
  -28.1620  -25.9880   20.2470 O   0  0  0  0  0  0  0  0  0  0  0  0
  -24.6100  -31.9210   23.1940 C   0  0  0  0  0  0  0  0  0  0  0  0
  -27.1470  -27.0730   20.1230 C   0  0  0  0  0  0  0  0  0  0  0  0
  -23.4030  -30.5360   21.5540 C   0  0  0  0  0  3  0  0  0  0  0  0
  -24.8420  -28.9440   20.1040 C   0  0  0  0  0  0  0  0  0  0  0  0
  -25.9660  -30.7540   21.3850 C   0  0  0  0  0  2  0  0  0  0  0  0
  -26.0310  -29.3470   20.7230 C   0  0  0  0  0  0  0  0  0  0  0  0
  -27.1720  -28.4290   20.7160 C   0  0  0  0  0  3  0  0  0  0  0  0
  -25.9300  -26.8210   19.4490 C   0  0  0  0  0  3  0  0  0  0  0  0
  -24.8170  -27.7020   19.4460 C   0  0  0  0  0  3  0  0  0  0  0  0
  -23.6210  -29.8620   20.1690 C   0  0  0  0  0  2  0  0  0  0  0  0
  -24.6820  -31.0960   22.1000 N   0  0  0  0  0  0  0  0  0  0  0  0
  -23.5260  -32.2060   23.7270 O   0  0  0  0  0  0  0  0  0  0  0  0
  -22.7200  -29.5330   22.5180 C   0  0  0  0  0  0  0  0  0  0  0  0
  -21.3880  -29.3680   22.4040 N   0  0  0  0  0  0  0  0  0  0  0  0
  -23.3920  -28.9030   23.3390 O   0  0  0  0  0  0  0  0  0  0  0  0
  -20.8990  -29.9270   21.7180 H   0  0  0  0  0  0  0  0  0  0  0  0
  -18.0090  -28.1540   22.9240 C   0  0  0  0  0  0  0  0  0  0  0  0
  -20.5700  -28.4270   23.1760 C   0  0  0  0  0  3  0  0  0  0  0  0
  -20.6720  -26.9960   22.5950 C   0  0  0  0  0  2  0  0  0  0  0  0
  -19.5660  -26.6760   21.5850 C   0  0  0  0  0  2  0  0  0  0  0  0
  -18.1880  -26.8110   22.2380 C   0  0  0  0  0  2  0  0  0  0  0  0
  -19.1270  -28.9200   23.3500 C   0  0  0  0  0  0  0  0  0  0  0  0
  -18.9030  -30.1750   23.9560 C   0  0  0  0  0  3  0  0  0  0  0  0
  -17.5960  -30.6660   24.1380 C   0  0  0  0  0  3  0  0  0  0  0  0
  -16.4940  -29.8960   23.7260 C   0  0  0  0  0  3  0  0  0  0  0  0
  -16.7010  -28.6420   23.1260 C   0  0  0  0  0  3  0  0  0  0  0  0
  -25.8870  -32.5620   23.8210 C   0  0  0  0  0  3  0  0  0  0  0  0
  -25.5740  -33.9610   24.1600 N   0  0  0  0  0  0  0  0  0  0  0  0
  -25.8990  -35.0240   23.4110 C   0  0  0  0  0  0  0  0  0  0  0  0
  -26.5620  -34.9290   22.3750 O   0  0  0  0  0  0  0  0  0  0  0  0
  -24.9910  -34.1070   24.9710 H   0  0  0  0  0  0  0  0  0  0  0  0
  -24.1810  -36.8340   23.0790 C   0  0  0  0  0  1  0  0  0  0  0  0
  -25.4200  -36.4110   23.8850 C   0  0  0  0  0  3  0  0  0  0  0  0
  -27.5560  -37.2840   24.7330 C   0  0  0  0  0  1  0  0  0  0  0  0
  -26.4590  -37.4620   23.7850 N   0  0  0  0  0  0  0  0  0  0  0  0
  -26.0550  -38.3830   23.9380 H   0  0  0  0  0  0  0  0  0  0  0  0
  -26.3940  -31.7950   25.1030 C   0  0  1  0  0  0  0  0  0  0  0  0
  -25.2980  -31.5670   26.1700 C   0  0  0  0  0  1  0  0  0  0  0  0
  -26.9750  -30.4150   24.7250 C   0  0  0  0  0  1  0  0  0  0  0  0
  -27.5460  -32.5880   25.7680 C   0  0  0  0  0  1  0  0  0  0  0  0
  -30.0370  -18.3420   20.0880 C   0  0  0  0  0  3  0  0  0  0  0  0
  -30.4390  -15.4050   19.9270 C   0  0  0  0  0  0  0  0  0  0  0  0
  -30.3530  -12.9680   19.0340 C   0  0  0  0  0  2  0  0  0  0  0  0
  -29.3680  -12.7760   17.8550 C   0  0  0  0  0  2  0  0  0  0  0  0
  -27.9500  -12.4940   18.3760 C   0  0  0  0  0  2  0  0  0  0  0  0
  -27.5630  -13.4360   19.5410 C   0  0  0  0  0  3  0  0  0  0  0  0
  -28.6730  -13.5890   20.6050 C   0  0  0  0  0  2  0  0  0  0  0  0
  -29.8590  -14.1030   19.9030 N   0  0  0  0  0  0  0  0  0  0  0  0
  -31.6300  -15.3800   19.5920 O   0  0  0  0  0  0  0  0  0  0  0  0
  -29.7140  -16.6930   20.1230 N   0  0  0  0  0  0  0  0  0  0  0  0
  -28.7410  -16.5130   20.3260 H   0  0  0  0  0  0  0  0  0  0  0  0
  -25.2450  -13.9610   20.4580 C   0  0  0  0  0  0  0  0  0  0  0  0
  -24.2110  -13.1690   20.8710 C   0  0  0  0  0  0  0  0  0  0  0  0
  -24.6800  -11.8240   20.7740 C   0  0  0  0  0  0  0  0  0  0  0  0
  -26.2730  -13.1000   20.1250 N   0  0  0  0  0  0  0  0  0  0  0  0
  -25.9500  -11.8040   20.3840 N   0  0  0  0  0  0  0  0  0  0  0  0
  -23.9690  -10.5530   20.9730 C   0  0  0  0  0  0  0  0  0  0  0  0
  -24.4330   -9.5790   21.8850 C   0  0  0  0  0  3  0  0  0  0  0  0
  -23.7200   -8.3760   22.0740 C   0  0  0  0  0  3  0  0  0  0  0  0
  -22.5250   -8.1390   21.3540 C   0  0  0  0  0  0  0  0  0  0  0  0
  -22.0780   -9.0990   20.4300 C   0  0  0  0  0  3  0  0  0  0  0  0
  -22.7940  -10.2950   20.2380 C   0  0  0  0  0  3  0  0  0  0  0  0
  -21.7790   -6.9890   21.4530 O   0  0  0  0  0  0  0  0  0  0  0  0
  -21.7410   -6.2530   22.6120 C   0  0  0  0  0  0  0  0  0  0  0  0
  -21.2790   -6.8030   23.8270 C   0  0  0  0  0  3  0  0  0  0  0  0
  -21.1910   -5.9940   24.9770 C   0  0  0  0  0  3  0  0  0  0  0  0
  -21.5520   -4.6350   24.9130 C   0  0  0  0  0  0  0  0  0  0  0  0
  -22.0060   -4.0840   23.7010 C   0  0  0  0  0  3  0  0  0  0  0  0
  -22.0990   -4.8920   22.5540 C   0  0  0  0  0  0  0  0  0  0  0  0
  -22.5150   -4.3500   21.3840 F   0  0  0  0  0  0  0  0  0  0  0  0
  -21.4590   -3.8550   26.0150 F   0  0  0  0  0  0  0  0  0  0  0  0
  -22.8310  -13.6340   21.2320 C   0  0  0  0  0  0  0  0  0  0  0  0
  -22.1580  -12.9160   22.1250 N   0  0  0  0  0  0  0  0  0  0  0  0
  -22.3600  -14.6660   20.7580 O   0  0  0  0  0  0  0  0  0  0  0  0
  -22.5530  -12.0780   22.5260 H   0  0  0  0  0  0  0  0  0  0  0  0
  -21.2340  -13.2090   22.4110 H   0  0  0  0  0  0  0  0  0  0  0  0
  -25.3890  -15.3380   20.3100 N   0  0  0  0  0  0  0  0  0  0  0  0
  -24.6210  -15.9770   20.4840 H   0  0  0  0  0  0  0  0  0  0  0  0
  -26.1990  -15.7940   19.9130 H   0  0  0  0  0  0  0  0  0  0  0  0
  -32.5770  -18.2640   20.7710 C   0  0  0  0  0  1  0  0  0  0  0  0
  -31.1340  -18.6190   21.1490 C   0  0  0  0  0  2  0  0  0  0  0  0
  1  3  1  0
  3 53  1  0
  3  2  1  0
  4  1  1  0
  4  6  1  0
  4  5  1  0
  5 11  1  0
  5  2  1  0
  7  9  1  0
  7  6  1  0
  8  7  1  0
 10  7  1  0
 11 12  1  0
 13 24  2  0
 14 12  1  0
 14 19  1  0
 15 23  1  0
 15 25  1  0
 16 22  1  0
 16 18  1  0
 17 23  1  0
 18 17  1  0
 19 18  2  0
 20 14  2  0
 21 20  1  0
 21 16  2  0
 22 15  1  0
 23 13  1  0
 25 27  2  0
 26 25  1  0
 28 26  1  0
 29 38  2  0
 29 34  1  0
 30 26  1  0
 30 34  1  0
 31 30  1  0
 32 33  1  0
 32 31  1  0
 33 29  1  0
 34 35  2  0
 35 36  1  0
 37 36  2  0
 38 37  1  0
 39 13  1  0
 39 40  1  0
 39 49  1  0
 40 43  1  0
 41 45  1  0
 41 40  1  0
 42 41  2  0
 45 44  1  0
 47 45  1  0
 47 48  1  0
 47 46  1  0
 49 52  1  1
 49 50  1  0
 51 49  1  0
 53 62  1  0
 53 93  1  0
 54 62  1  0
 55 60  1  0
 56 57  1  0
 56 55  1  0
 58 57  1  0
 58 67  1  0
 58 59  1  0
 60 54  1  0
 60 59  1  0
 61 54  2  0
 62 63  1  0
 64 65  2  0
 65 84  1  0
 66 65  1  0
 66 69  1  0
 67 68  1  0
 67 64  1  0
 68 66  2  0
 69 70  1  0
 70 71  2  0
 72 75  1  0
 72 71  1  0
 73 72  2  0
 74 73  1  0
 74 69  2  0
 75 76  1  0
 76 77  1  0
 77 78  2  0
 79 78  1  0
 79 83  1  0
 80 79  2  0
 81 76  2  0
 81 80  1  0
 82 81  1  0
 84 85  1  0
 85 88  1  0
 85 87  1  0
 86 84  2  0
 89 64  1  0
 89 90  1  0
 91 89  1  0
 92 93  1  0
M  ISO  4  11 101  12 101  54 100  62 100
M  END
>  <TORSDO>  (89) 
F 21

>  <SCORE>  (89) 
-15.364

>  <name>  (89) 
88

>  <ligand_id>  (89) 
88

>  <original_smiles>  (89) 
[H]c1c([H])c([H])c2c(c1[H])C([H])([H])C([H])([H])C([H])([H])C2([H])N([H])C(=O)C1([H])N(C(=O)C([H])(N([H])C(=O)C([H])(N([H])C([H])([H])[H])C([H])([H])[H])C(C([H])([H])[H])(C([H])([H])[H])C([H])([H])[H])C([H])([H])c2c([H])c(OC([H])([H])C3([H])C([H])([H])C([H])(C([H])(N([H])C(=O)N4C([H])([H])C([H])([H])C([H])([H])C([H])(n5nc(-c6c([H])c([H])c(Oc7c([H])c([H])c(F)c([H])c7F)c([H])c6[H])c(C(=O)N([H])[H])c5N([H])[H])C4([H])[H])C([H])([H])C([H])([H])[H])C([H])([H])C3([H])C([H])([H])[N+]([H])([H])[H])c([H])c([H])c2C1([H])[H]

>  <smiles>  (89) 
[H]c1c([H])c([H])c2c(c1[H])C([H])([H])C([H])([H])C([H])([H])C2([H])N([H])C(=O)C1([H])N(C(=O)C([H])(N([H])C(=O)C([H])(N([H])C([H])([H])[H])C([H])([H])[H])C(C([H])([H])[H])(C([H])([H])[H])C([H])([H])[H])C([H])([H])c2c([H])c(OC([H])([H])C3([H])C([H])([H])C([H])(C([H])(N([H])C(=O)N4C([H])([H])C([H])([H])C([H])([H])C([H])(n5nc(-c6c([H])c([H])c(Oc7c([H])c([H])c(F)c([H])c7F)c([H])c6[H])c(C(=O)N([H])[H])c5N([H])[H])C4([H])[H])C([H])([H])C([H])([H])[H])C([H])([H])C3([H])C([H])([H])[N+]([H])([H])[H])c([H])c([H])c2C1([H])[H]

$$$$
89:0:0
     RDKit          3D

 85 92  0  0  1  0  0  0  0  0999 V2000
  -28.9440  -22.2480   20.2870 C   0  0  0  0  0  3  0  0  0  0  0  0
  -27.7000  -20.0980   19.1200 C   0  0  0  0  0  1  0  0  0  0  0  0
  -28.6980  -20.3380   20.2590 C   0  0  0  0  0  3  0  0  0  0  0  0
  -30.8250  -19.0030   19.1860 C   0  0  0  0  0  1  0  0  0  0  0  0
  -29.7730  -18.7470   20.2730 C   0  0  0  0  0  0  0  0  0  0  0  0
  -30.2940  -15.6440   20.1780 C   0  0  0  0  0  0  0  0  0  0  0  0
  -30.3590  -13.1300   19.3140 C   0  0  0  0  0  2  0  0  0  0  0  0
  -29.4350  -12.7680   18.1180 C   0  0  0  0  0  2  0  0  0  0  0  0
  -28.0210  -12.4160   18.6020 C   0  0  0  0  0  2  0  0  0  0  0  0
  -27.5420  -13.3940   19.7000 C   0  0  0  0  0  3  0  0  0  0  0  0
  -28.6010  -13.6740   20.7900 C   0  0  0  0  0  2  0  0  0  0  0  0
  -29.7600  -14.2910   20.1090 N   0  0  0  0  0  0  0  0  0  0  0  0
  -31.5220  -15.5900   19.9800 O   0  0  0  0  0  0  0  0  0  0  0  0
  -29.5430  -16.9960   20.2750 N   0  0  0  0  0  4  0  0  0  0  0  0
  -28.5590  -16.7900   20.3830 H   0  0  0  0  0  0  0  0  0  0  0  0
  -25.1940  -13.8940   20.5330 C   0  0  0  0  0  0  0  0  0  0  0  0
  -24.1530  -13.0970   20.9150 C   0  0  0  0  0  0  0  0  0  0  0  0
  -24.6360  -11.7540   20.8530 C   0  0  0  0  0  0  0  0  0  0  0  0
  -26.2400  -13.0380   20.2490 N   0  0  0  0  0  0  0  0  0  0  0  0
  -25.9210  -11.7420   20.5100 N   0  0  0  0  0  0  0  0  0  0  0  0
  -23.9270  -10.4810   21.0400 C   0  0  0  0  0  0  0  0  0  0  0  0
  -24.3770   -9.5120   21.9630 C   0  0  0  0  0  3  0  0  0  0  0  0
  -23.6620   -8.3070   22.1410 C   0  0  0  0  0  3  0  0  0  0  0  0
  -22.4840   -8.0630   21.3970 C   0  0  0  0  0  0  0  0  0  0  0  0
  -22.0530   -9.0210   20.4630 C   0  0  0  0  0  3  0  0  0  0  0  0
  -22.7680  -10.2170   20.2830 C   0  0  0  0  0  3  0  0  0  0  0  0
  -21.7400   -6.9110   21.4860 O   0  0  0  0  0  0  0  0  0  0  0  0
  -21.6930   -6.1710   22.6410 C   0  0  0  0  0  0  0  0  0  0  0  0
  -21.2330   -6.7190   23.8580 C   0  0  0  0  0  3  0  0  0  0  0  0
  -21.1350   -5.9050   25.0040 C   0  0  0  0  0  3  0  0  0  0  0  0
  -21.4870   -4.5440   24.9330 C   0  0  0  0  0  0  0  0  0  0  0  0
  -21.9390   -3.9950   23.7210 C   0  0  0  0  0  3  0  0  0  0  0  0
  -22.0380   -4.8070   22.5770 C   0  0  0  0  0  0  0  0  0  0  0  0
  -22.4550   -4.2670   21.4060 F   0  0  0  0  0  0  0  0  0  0  0  0
  -21.3850   -3.7590   26.0330 F   0  0  0  0  0  0  0  0  0  0  0  0
  -22.7560  -13.5550   21.2180 C   0  0  0  0  0  0  0  0  0  0  0  0
  -22.0560  -12.8460   22.0960 N   0  0  0  0  0  0  0  0  0  0  0  0
  -22.2960  -14.5780   20.7130 O   0  0  0  0  0  0  0  0  0  0  0  0
  -22.4430  -12.0190   22.5270 H   0  0  0  0  0  0  0  0  0  0  0  0
  -21.1200  -13.1360   22.3420 H   0  0  0  0  0  0  0  0  0  0  0  0
  -25.3320  -15.2700   20.3700 N   0  0  0  0  0  0  0  0  0  0  0  0
  -24.5560  -15.9070   20.5060 H   0  0  0  0  0  0  0  0  0  0  0  0
  -26.1560  -15.7210   19.9930 H   0  0  0  0  0  0  0  0  0  0  0  0
  -27.9460  -23.8940   20.2240 C   0  0  0  0  0  3  0  0  0  0  0  0
  -28.1490  -25.6270   20.3080 O   0  0  0  0  0  0  0  0  0  0  0  0
  -24.6620  -31.8870   23.2240 C   0  0  0  0  0  0  0  0  0  0  0  0
  -27.1680  -26.8180   20.2540 C   0  0  0  0  0  0  0  0  0  0  0  0
  -23.4650  -30.4870   21.5950 C   0  0  0  0  0  3  0  0  0  0  0  0
  -24.9030  -28.8320   20.1880 C   0  0  0  0  0  0  0  0  0  0  0  0
  -26.0420  -30.6300   21.4650 C   0  0  0  0  0  2  0  0  0  0  0  0
  -26.1000  -29.1980   20.8160 C   0  0  0  0  0  0  0  0  0  0  0  0
  -27.2190  -28.2180   20.8150 C   0  0  0  0  0  3  0  0  0  0  0  0
  -25.9370  -26.6520   19.5730 C   0  0  0  0  0  3  0  0  0  0  0  0
  -24.8580  -27.5840   19.5430 C   0  0  0  0  0  3  0  0  0  0  0  0
  -23.6980  -29.7840   20.2270 C   0  0  0  0  0  2  0  0  0  0  0  0
  -24.7470  -31.0340   22.1460 N   0  0  0  0  0  0  0  0  0  0  0  0
  -23.5710  -32.1920   23.7360 O   0  0  0  0  0  0  0  0  0  0  0  0
  -22.7490  -29.5140   22.5700 C   0  0  0  0  0  0  0  0  0  0  0  0
  -21.4160  -29.3640   22.4470 N   0  0  0  0  0  0  0  0  0  0  0  0
  -23.4040  -28.8940   23.4120 O   0  0  0  0  0  0  0  0  0  0  0  0
  -20.9380  -29.9140   21.7470 H   0  0  0  0  0  0  0  0  0  0  0  0
  -18.0250  -28.1680   22.9650 C   0  0  0  0  0  0  0  0  0  0  0  0
  -20.5860  -28.4360   23.2250 C   0  0  0  0  0  3  0  0  0  0  0  0
  -20.6840  -26.9980   22.6630 C   0  0  0  0  0  2  0  0  0  0  0  0
  -19.5830  -26.6690   21.6500 C   0  0  0  0  0  2  0  0  0  0  0  0
  -18.2010  -26.8170   22.2930 C   0  0  0  0  0  2  0  0  0  0  0  0
  -19.1430  -28.9350   23.3880 C   0  0  0  0  0  0  0  0  0  0  0  0
  -18.9210  -30.1970   23.9820 C   0  0  0  0  0  3  0  0  0  0  0  0
  -17.6150  -30.6920   24.1530 C   0  0  0  0  0  3  0  0  0  0  0  0
  -16.5120  -29.9230   23.7430 C   0  0  0  0  0  3  0  0  0  0  0  0
  -16.7180  -28.6630   23.1550 C   0  0  0  0  0  3  0  0  0  0  0  0
  -25.9300  -32.5330   23.8590 C   0  0  0  0  0  3  0  0  0  0  0  0
  -26.4320  -31.7700   25.1480 C   0  0  1  0  0  0  0  0  0  0  0  0
  -25.3300  -31.5490   26.2120 C   0  0  0  0  0  1  0  0  0  0  0  0
  -27.0110  -30.3850   24.7840 C   0  0  0  0  0  1  0  0  0  0  0  0
  -27.5830  -32.5640   25.8120 C   0  0  0  0  0  1  0  0  0  0  0  0
  -25.6110  -33.9340   24.1990 N   0  0  0  0  0  0  0  0  0  0  0  0
  -25.9170  -34.9990   23.4470 C   0  0  0  0  0  0  0  0  0  0  0  0
  -26.5550  -34.9080   22.3950 O   0  0  0  0  0  0  0  0  0  0  0  0
  -25.0380  -34.0760   25.0170 H   0  0  0  0  0  0  0  0  0  0  0  0
  -24.1610  -36.7890   23.1890 C   0  0  0  0  0  1  0  0  0  0  0  0
  -25.4440  -36.3860   23.9340 C   0  0  0  0  0  3  0  0  0  0  0  0
  -27.6060  -37.2950   24.6660 C   0  0  0  0  0  1  0  0  0  0  0  0
  -26.4610  -37.4480   23.7730 N   0  0  0  0  0  0  0  0  0  0  0  0
  -26.0550  -38.3650   23.9350 H   0  0  0  0  0  0  0  0  0  0  0  0
  3  2  1  0
  3  5  1  0
  3  1  1  0
  4  5  1  0
  5 14  2  0
  6 14  1  0
  7 12  1  0
  8  9  1  0
  8  7  1  0
 10  9  1  0
 10 19  1  0
 10 11  1  0
 12  6  1  0
 12 11  1  0
 13  6  2  0
 14 15  1  0
 16 17  2  0
 17 36  1  0
 18 17  1  0
 18 21  1  0
 19 20  1  0
 19 16  1  0
 20 18  2  0
 21 22  1  0
 22 23  2  0
 24 27  1  0
 24 23  1  0
 25 24  2  0
 26 25  1  0
 26 21  2  0
 27 28  1  0
 28 29  1  0
 29 30  2  0
 31 30  1  0
 31 35  1  0
 32 31  2  0
 33 28  2  0
 33 32  1  0
 34 33  1  0
 36 37  1  0
 37 40  1  0
 37 39  1  0
 38 36  2  0
 41 42  1  0
 41 16  1  0
 43 41  1  0
 44  1  2  0
 44 45  1  0
 46 57  2  0
 47 45  1  0
 47 52  1  0
 48 56  1  0
 48 58  1  0
 49 55  1  0
 49 51  1  0
 50 56  1  0
 51 50  1  0
 52 51  2  0
 53 47  2  0
 54 53  1  0
 54 49  2  0
 55 48  1  0
 56 46  1  0
 58 60  2  0
 59 58  1  0
 61 59  1  0
 62 71  2  0
 62 67  1  0
 63 59  1  0
 63 67  1  0
 64 63  1  0
 65 66  1  0
 65 64  1  0
 66 62  1  0
 67 68  2  0
 68 69  1  0
 70 69  2  0
 71 70  1  0
 72 46  1  0
 72 77  1  0
 72 73  1  0
 73 76  1  1
 73 74  1  0
 75 73  1  0
 77 80  1  0
 78 82  1  0
 78 77  1  0
 79 78  2  0
 82 81  1  0
 84 82  1  0
 84 85  1  0
 84 83  1  0
M  ISO  4   6 100  14 100  44 101  45 101
M  END
>  <TORSDO>  (90) 
F 19

>  <SCORE>  (90) 
-16.503

>  <name>  (90) 
89

>  <ligand_id>  (90) 
89

>  <original_smiles>  (90) 
[H]c1c([H])c([H])c2c(c1[H])C([H])([H])C([H])([H])C([H])([H])C2([H])N([H])C(=O)C1([H])N(C(=O)C([H])(N([H])C(=O)C([H])(N([H])C([H])([H])[H])C([H])([H])[H])C(C([H])([H])[H])(C([H])([H])[H])C([H])([H])[H])C([H])([H])c2c([H])c(OC([H])([H])C([H])([H])C([H])(C([H])([H])[H])C([H])(N([H])C(=O)N3C([H])([H])C([H])([H])C([H])([H])C([H])(n4nc(-c5c([H])c([H])c(Oc6c([H])c([H])c(F)c([H])c6F)c([H])c5[H])c(C(=O)N([H])[H])c4N([H])[H])C3([H])[H])C([H])([H])[H])c([H])c([H])c2C1([H])[H]

>  <smiles>  (90) 
[H]c1c([H])c([H])c2c(c1[H])C([H])([H])C([H])([H])C([H])([H])C2([H])N([H])C(=O)C1([H])N(C(=O)C([H])(N([H])C(=O)C([H])(N([H])C([H])([H])[H])C([H])([H])[H])C(C([H])([H])[H])(C([H])([H])[H])C([H])([H])[H])C([H])([H])c2c([H])c(OC([H])([H])C([H])([H])C([H])(C([H])([H])[H])C([H])(N([H])C(=O)N3C([H])([H])C([H])([H])C([H])([H])C([H])(n4nc(-c5c([H])c([H])c(Oc6c([H])c([H])c(F)c([H])c6F)c([H])c5[H])c(C(=O)N([H])[H])c4N([H])[H])C3([H])[H])C([H])([H])[H])c([H])c([H])c2C1([H])[H]

$$$$
90:0:0
     RDKit          3D

 92100  0  0  1  0  0  0  0  0999 V2000
  -29.3910  -22.5810   19.9000 C   0  0  0  0  0  2  0  0  0  0  0  0
  -28.7880  -22.4850   22.3580 C   0  0  0  0  0  2  0  0  0  0  0  0
  -29.6850  -24.0860   20.0360 C   0  0  0  0  0  2  0  0  0  0  0  0
  -29.1170  -23.9800   22.4970 C   0  0  0  0  0  2  0  0  0  0  0  0
  -29.6230  -21.8360   21.2330 C   0  0  0  0  0  3  0  0  0  0  0  0
  -28.8740  -24.7370   21.1770 C   0  0  0  0  0  3  0  0  0  0  0  0
  -29.3590  -20.3280   21.0870 C   0  0  0  0  0  0  0  0  0  0  0  0
  -28.2990  -19.8130   21.4540 O   0  0  0  0  0  0  0  0  0  0  0  0
  -30.4770  -19.4950   20.4550 C   0  0  0  0  0  2  0  0  0  0  0  0
  -30.4920  -18.0240   20.9120 C   0  0  0  0  0  2  0  0  0  0  0  0
  -31.7760  -17.3090   20.4680 C   0  0  0  0  0  2  0  0  0  0  0  0
  -31.9910  -15.9380   21.1350 C   0  0  0  0  0  2  0  0  0  0  0  0
  -31.1630  -14.1490   19.6220 C   0  0  0  0  0  0  0  0  0  0  0  0
  -30.5890  -11.9660   18.6340 C   0  0  0  0  0  2  0  0  0  0  0  0
  -29.5390  -12.0680   17.5170 C   0  0  0  0  0  2  0  0  0  0  0  0
  -28.1190  -12.0220   18.1070 C   0  0  0  0  0  2  0  0  0  0  0  0
  -27.9290  -13.0250   19.2740 C   0  0  0  0  0  3  0  0  0  0  0  0
  -29.0760  -12.9070   20.3010 C   0  0  0  0  0  2  0  0  0  0  0  0
  -30.3630  -13.0540   19.5970 N   0  0  0  0  0  0  0  0  0  0  0  0
  -32.0560  -14.3570   18.7930 O   0  0  0  0  0  0  0  0  0  0  0  0
  -31.0290  -14.9240   20.7050 N   0  0  0  0  0  0  0  0  0  0  0  0
  -30.3010  -14.6680   21.3560 H   0  0  0  0  0  0  0  0  0  0  0  0
  -25.6820  -13.8200   20.2520 C   0  0  0  0  0  0  0  0  0  0  0  0
  -24.6060  -13.1340   20.7460 C   0  0  0  0  0  0  0  0  0  0  0  0
  -24.9510  -11.7500   20.6690 C   0  0  0  0  0  0  0  0  0  0  0  0
  -26.6210  -12.8600   19.9060 N   0  0  0  0  0  0  0  0  0  0  0  0
  -26.1880  -11.6090   20.2120 N   0  0  0  0  0  0  0  0  0  0  0  0
  -24.1530  -10.5490   20.9500 C   0  0  0  0  0  0  0  0  0  0  0  0
  -24.5530   -9.6080   21.9240 C   0  0  0  0  0  3  0  0  0  0  0  0
  -23.7610   -8.4700   22.1880 C   0  0  0  0  0  3  0  0  0  0  0  0
  -22.5540   -8.2660   21.4790 C   0  0  0  0  0  0  0  0  0  0  0  0
  -22.1710   -9.1930   20.4940 C   0  0  0  0  0  3  0  0  0  0  0  0
  -22.9640  -10.3230   20.2290 C   0  0  0  0  0  3  0  0  0  0  0  0
  -21.7340   -7.1760   21.6500 O   0  0  0  0  0  0  0  0  0  0  0  0
  -21.6150   -6.5490   22.8640 C   0  0  0  0  0  0  0  0  0  0  0  0
  -21.1720   -7.2340   24.0170 C   0  0  0  0  0  3  0  0  0  0  0  0
  -20.9970   -6.5350   25.2280 C   0  0  0  0  0  3  0  0  0  0  0  0
  -21.2550   -5.1520   25.2870 C   0  0  0  0  0  0  0  0  0  0  0  0
  -21.6910   -4.4670   24.1390 C   0  0  0  0  0  3  0  0  0  0  0  0
  -21.8670   -5.1640   22.9310 C   0  0  0  0  0  0  0  0  0  0  0  0
  -22.2660   -4.4960   21.8220 F   0  0  0  0  0  0  0  0  0  0  0  0
  -21.0800   -4.4780   26.4480 F   0  0  0  0  0  0  0  0  0  0  0  0
  -23.2920  -13.7200   21.1790 C   0  0  0  0  0  0  0  0  0  0  0  0
  -22.6220  -13.0830   22.1330 N   0  0  0  0  0  0  0  0  0  0  0  0
  -22.8750  -14.7760   20.7060 O   0  0  0  0  0  0  0  0  0  0  0  0
  -22.9740  -12.2280   22.5370 H   0  0  0  0  0  0  0  0  0  0  0  0
  -21.7440  -13.4550   22.4650 H   0  0  0  0  0  0  0  0  0  0  0  0
  -25.9350  -15.1740   20.0490 N   0  0  0  0  0  0  0  0  0  0  0  0
  -25.2490  -15.8930   20.2490 H   0  0  0  0  0  0  0  0  0  0  0  0
  -26.7870  -15.5400   19.6410 H   0  0  0  0  0  0  0  0  0  0  0  0
  -29.1950  -26.2380   21.3140 C   0  0  0  0  0  2  0  0  0  0  0  0
  -28.8850  -26.9030   20.0900 O   0  0  0  0  0  0  0  0  0  0  0  0
  -24.6130  -31.6350   23.2420 C   0  0  0  0  0  0  0  0  0  0  0  0
  -27.6770  -27.5500   20.0970 C   0  0  0  0  0  0  0  0  0  0  0  0
  -23.5690  -30.2270   21.4940 C   0  0  0  0  0  3  0  0  0  0  0  0
  -25.1800  -28.8550   20.0680 C   0  0  0  0  0  0  0  0  0  0  0  0
  -26.0630  -30.7730   21.4120 C   0  0  0  0  0  2  0  0  0  0  0  0
  -26.2690  -29.4400   20.7280 C   0  0  0  0  0  0  0  0  0  0  0  0
  -27.5200  -28.7910   20.7480 C   0  0  0  0  0  3  0  0  0  0  0  0
  -26.5810  -26.9700   19.4300 C   0  0  0  0  0  3  0  0  0  0  0  0
  -25.3280  -27.6150   19.4190 C   0  0  0  0  0  3  0  0  0  0  0  0
  -23.8750  -29.6200   20.0980 C   0  0  0  0  0  2  0  0  0  0  0  0
  -24.7630  -30.8910   22.1110 N   0  0  0  0  0  0  0  0  0  0  0  0
  -23.4980  -31.8090   23.7510 O   0  0  0  0  0  0  0  0  0  0  0  0
  -22.9550  -29.1250   22.3870 C   0  0  0  0  0  0  0  0  0  0  0  0
  -21.6570  -28.8500   22.1860 N   0  0  0  0  0  0  0  0  0  0  0  0
  -23.6440  -28.5210   23.2130 O   0  0  0  0  0  0  0  0  0  0  0  0
  -21.1610  -29.3950   21.4950 H   0  0  0  0  0  0  0  0  0  0  0  0
  -18.3610  -27.3970   22.4630 C   0  0  0  0  0  0  0  0  0  0  0  0
  -20.8760  -27.8250   22.8780 C   0  0  0  0  0  3  0  0  0  0  0  0
  -21.1130  -26.4300   22.2550 C   0  0  0  0  0  2  0  0  0  0  0  0
  -20.0880  -26.0710   21.1740 C   0  0  0  0  0  2  0  0  0  0  0  0
  -18.6690  -26.0910   21.7510 C   0  0  0  0  0  2  0  0  0  0  0  0
  -19.3980  -28.2190   22.9780 C   0  0  0  0  0  0  0  0  0  0  0  0
  -19.0600  -29.4410   23.6000 C   0  0  0  0  0  3  0  0  0  0  0  0
  -17.7150  -29.8420   23.7140 C   0  0  0  0  0  3  0  0  0  0  0  0
  -16.6920  -29.0160   23.2190 C   0  0  0  0  0  3  0  0  0  0  0  0
  -17.0140  -27.7970   22.5990 C   0  0  0  0  0  3  0  0  0  0  0  0
  -25.8320  -32.3190   23.9390 C   0  0  0  0  0  3  0  0  0  0  0  0
  -25.4430  -33.7000   24.2540 N   0  0  0  0  0  0  0  0  0  0  0  0
  -25.7650  -34.7680   23.5110 C   0  0  0  0  0  0  0  0  0  0  0  0
  -26.4920  -34.6970   22.5150 O   0  0  0  0  0  0  0  0  0  0  0  0
  -24.7990  -33.8240   25.0210 H   0  0  0  0  0  0  0  0  0  0  0  0
  -23.9730  -36.4740   23.0610 C   0  0  0  0  0  1  0  0  0  0  0  0
  -25.1870  -36.1290   23.9390 C   0  0  0  0  0  3  0  0  0  0  0  0
  -27.2260  -37.1170   24.8850 C   0  0  0  0  0  1  0  0  0  0  0  0
  -26.1740  -37.2310   23.8790 N   0  0  0  0  0  0  0  0  0  0  0  0
  -25.7170  -38.1310   23.9990 H   0  0  0  0  0  0  0  0  0  0  0  0
  -26.3100  -31.5630   25.2390 C   0  0  1  0  0  0  0  0  0  0  0  0
  -25.1680  -31.2620   26.2390 C   0  0  0  0  0  1  0  0  0  0  0  0
  -26.9850  -30.2220   24.8720 C   0  0  0  0  0  1  0  0  0  0  0  0
  -27.3770  -32.4080   25.9740 C   0  0  0  0  0  1  0  0  0  0  0  0
  1  3  1  0
  1  5  1  0
  2  4  1  0
  3  6  1  0
  5  7  1  0
  5  2  1  0
  6 51  1  0
  6  4  1  0
  7  8  2  0
  9 10  1  0
  9  7  1  0
 11 10  1  0
 11 12  1  0
 13 21  1  0
 14 19  1  0
 15 16  1  0
 15 14  1  0
 17 16  1  0
 17 26  1  0
 17 18  1  0
 19 13  1  0
 19 18  1  0
 20 13  2  0
 21 12  1  0
 21 22  1  0
 23 24  2  0
 24 43  1  0
 25 24  1  0
 25 28  1  0
 26 27  1  0
 26 23  1  0
 27 25  2  0
 28 29  1  0
 29 30  2  0
 31 34  1  0
 31 30  1  0
 32 31  2  0
 33 32  1  0
 33 28  2  0
 34 35  1  0
 35 40  2  0
 35 36  1  0
 36 37  2  0
 37 38  1  0
 38 42  1  0
 39 38  2  0
 40 39  1  0
 41 40  1  0
 43 44  1  0
 44 47  1  0
 44 46  1  0
 45 43  2  0
 48 49  1  0
 48 23  1  0
 50 48  1  0
 52 54  1  0
 52 51  1  0
 53 64  2  0
 54 59  1  0
 55 63  1  0
 55 65  1  0
 56 62  1  0
 56 58  1  0
 57 63  1  0
 58 59  2  0
 58 57  1  0
 60 54  2  0
 61 60  1  0
 61 56  2  0
 62 55  1  0
 63 53  1  0
 65 67  2  0
 66 65  1  0
 68 66  1  0
 69 78  2  0
 69 74  1  0
 70 66  1  0
 70 74  1  0
 71 70  1  0
 72 73  1  0
 72 71  1  0
 73 69  1  0
 74 75  2  0
 75 76  1  0
 77 76  2  0
 78 77  1  0
 79 53  1  0
 79 80  1  0
 79 89  1  0
 80 83  1  0
 81 85  1  0
 81 80  1  0
 82 81  2  0
 85 84  1  0
 87 85  1  0
 87 88  1  0
 87 86  1  0
 89 92  1  1
 89 90  1  0
 91 89  1  0
M  ISO  4  13 100  21 100  51 101  52 101
M  END
>  <TORSDO>  (91) 
F 22

>  <SCORE>  (91) 
-10.930

>  <name>  (91) 
90

>  <ligand_id>  (91) 
90

>  <original_smiles>  (91) 
[H]c1c([H])c([H])c2c(c1[H])C([H])([H])C([H])([H])C([H])([H])C2([H])N([H])C(=O)C1([H])N(C(=O)C([H])(N([H])C(=O)C([H])(N([H])C([H])([H])[H])C([H])([H])[H])C(C([H])([H])[H])(C([H])([H])[H])C([H])([H])[H])C([H])([H])c2c([H])c(OC([H])([H])C3([H])C([H])([H])C([H])([H])C([H])(C(=O)C([H])([H])C([H])([H])C([H])([H])C([H])([H])N([H])C(=O)N4C([H])([H])C([H])([H])C([H])([H])C([H])(n5nc(-c6c([H])c([H])c(Oc7c([H])c([H])c(F)c([H])c7F)c([H])c6[H])c(C(=O)N([H])[H])c5N([H])[H])C4([H])[H])C([H])([H])C3([H])[H])c([H])c([H])c2C1([H])[H]

>  <smiles>  (91) 
[H]c1c([H])c([H])c2c(c1[H])C([H])([H])C([H])([H])C([H])([H])C2([H])N([H])C(=O)C1([H])N(C(=O)C([H])(N([H])C(=O)C([H])(N([H])C([H])([H])[H])C([H])([H])[H])C(C([H])([H])[H])(C([H])([H])[H])C([H])([H])[H])C([H])([H])c2c([H])c(OC([H])([H])C3([H])C([H])([H])C([H])([H])C([H])(C(=O)C([H])([H])C([H])([H])C([H])([H])C([H])([H])N([H])C(=O)N4C([H])([H])C([H])([H])C([H])([H])C([H])(n5nc(-c6c([H])c([H])c(Oc7c([H])c([H])c(F)c([H])c7F)c([H])c6[H])c(C(=O)N([H])[H])c5N([H])[H])C4([H])[H])C([H])([H])C3([H])[H])c([H])c([H])c2C1([H])[H]

$$$$
91:0:0
     RDKit          3D

 92100  0  0  1  0  0  0  0  0999 V2000
  -29.2940  -20.3980   19.8780 C   0  0  0  0  0  3  0  0  0  0  0  0
  -28.6760  -18.4300   21.6410 C   0  0  0  0  0  2  0  0  0  0  0  0
  -29.9740  -18.9280   22.1620 C   0  0  0  0  0  3  0  0  0  0  0  0
  -29.7210  -18.9270   20.6350 C   0  0  2  0  0  0  0  0  0  0  0  0
  -30.9440  -18.1800   24.4100 C   0  0  0  0  0  1  0  0  0  0  0  0
  -31.0010  -18.0520   22.8760 C   0  0  0  0  0  2  0  0  0  0  0  0
  -30.3690  -17.6410   19.7960 C   0  0  0  0  0  2  0  0  0  0  0  0
  -30.8750  -14.9440   19.8350 C   0  0  0  0  0  0  0  0  0  0  0  0
  -30.6770  -12.6000   18.9070 C   0  0  0  0  0  2  0  0  0  0  0  0
  -29.6890  -12.5960   17.7130 C   0  0  0  0  0  2  0  0  0  0  0  0
  -28.2410  -12.4180   18.2080 C   0  0  0  0  0  2  0  0  0  0  0  0
  -27.9100  -13.3460   19.4070 C   0  0  0  0  0  3  0  0  0  0  0  0
  -29.0110  -13.3120   20.4890 C   0  0  0  0  0  2  0  0  0  0  0  0
  -30.2680  -13.6920   19.8340 N   0  0  0  0  0  0  0  0  0  0  0  0
  -32.0400  -15.0180   19.4390 O   0  0  0  0  0  0  0  0  0  0  0  0
  -30.1140  -16.1080   20.0810 N   0  0  0  0  0  0  0  0  0  0  0  0
  -29.1900  -15.9030   20.4290 H   0  0  0  0  0  0  0  0  0  0  0  0
  -25.5670  -13.9660   20.2280 C   0  0  0  0  0  0  0  0  0  0  0  0
  -24.5080  -13.2080   20.6460 C   0  0  0  0  0  0  0  0  0  0  0  0
  -24.9510  -11.8520   20.5990 C   0  0  0  0  0  0  0  0  0  0  0  0
  -26.5870  -13.0740   19.9540 N   0  0  0  0  0  0  0  0  0  0  0  0
  -26.2290  -11.7950   20.2400 N   0  0  0  0  0  0  0  0  0  0  0  0
  -24.2150  -10.5980   20.8220 C   0  0  0  0  0  0  0  0  0  0  0  0
  -24.6310   -9.6630   21.7960 C   0  0  0  0  0  3  0  0  0  0  0  0
  -23.8950   -8.4770   22.0060 C   0  0  0  0  0  3  0  0  0  0  0  0
  -22.7300   -8.2190   21.2450 C   0  0  0  0  0  0  0  0  0  0  0  0
  -22.3350   -9.1440   20.2620 C   0  0  0  0  0  3  0  0  0  0  0  0
  -23.0710  -10.3210   20.0500 C   0  0  0  0  0  3  0  0  0  0  0  0
  -21.9680   -7.0830   21.3630 O   0  0  0  0  0  0  0  0  0  0  0  0
  -21.8350   -6.4260   22.5590 C   0  0  0  0  0  0  0  0  0  0  0  0
  -21.3460   -7.0740   23.7160 C   0  0  0  0  0  3  0  0  0  0  0  0
  -21.1620   -6.3430   24.9070 C   0  0  0  0  0  3  0  0  0  0  0  0
  -21.4540   -4.9660   24.9400 C   0  0  0  0  0  0  0  0  0  0  0  0
  -21.9370   -4.3190   23.7880 C   0  0  0  0  0  3  0  0  0  0  0  0
  -22.1230   -5.0480   22.6020 C   0  0  0  0  0  0  0  0  0  0  0  0
  -22.5680   -4.4150   21.4890 F   0  0  0  0  0  0  0  0  0  0  0  0
  -21.2720   -4.2610   26.0810 F   0  0  0  0  0  0  0  0  0  0  0  0
  -23.1290  -13.7070   20.9710 C   0  0  0  0  0  0  0  0  0  0  0  0
  -22.4380  -13.0310   21.8820 N   0  0  0  0  0  0  0  0  0  0  0  0
  -22.6810  -14.7300   20.4570 O   0  0  0  0  0  0  0  0  0  0  0  0
  -22.8160  -12.1980   22.3080 H   0  0  0  0  0  0  0  0  0  0  0  0
  -21.5200  -13.3480   22.1540 H   0  0  0  0  0  0  0  0  0  0  0  0
  -25.7390  -15.3360   20.0370 N   0  0  0  0  0  0  0  0  0  0  0  0
  -24.9800  -15.9900   20.1890 H   0  0  0  0  0  0  0  0  0  0  0  0
  -26.5560  -15.7630   19.6250 H   0  0  0  0  0  0  0  0  0  0  0  0
  -29.0540  -19.9390   17.2920 C   0  0  0  0  0  1  0  0  0  0  0  0
  -29.9140  -20.5040   18.4490 C   0  0  0  0  0  2  0  0  0  0  0  0
  -28.9210  -22.0470   22.0450 C   0  0  0  0  0  1  0  0  0  0  0  0
  -29.2690  -21.9790   20.5470 C   0  0  0  0  0  3  0  0  0  0  0  0
  -28.5430  -23.3090   19.8010 C   0  0  0  0  0  2  0  0  0  0  0  0
  -28.3320  -24.8260   20.5010 C   0  0  0  0  0  2  0  0  0  0  0  0
  -28.3370  -26.2290   19.8600 O   0  0  0  0  0  0  0  0  0  0  0  0
  -24.6180  -31.7380   23.0330 C   0  0  0  0  0  0  0  0  0  0  0  0
  -27.2350  -27.1370   19.9210 C   0  0  0  0  0  0  0  0  0  0  0  0
  -23.4200  -30.3570   21.3750 C   0  0  0  0  0  3  0  0  0  0  0  0
  -24.8740  -28.8220   19.9220 C   0  0  0  0  0  0  0  0  0  0  0  0
  -25.9670  -30.6690   21.1910 C   0  0  0  0  0  2  0  0  0  0  0  0
  -26.0520  -29.2890   20.5240 C   0  0  0  0  0  0  0  0  0  0  0  0
  -27.2330  -28.4650   20.4990 C   0  0  0  0  0  3  0  0  0  0  0  0
  -26.0300  -26.7500   19.2990 C   0  0  0  0  0  3  0  0  0  0  0  0
  -24.8740  -27.5630   19.2940 C   0  0  0  0  0  3  0  0  0  0  0  0
  -23.6370  -29.7020   19.9840 C   0  0  0  0  0  2  0  0  0  0  0  0
  -24.6890  -30.9430   21.9230 N   0  0  0  0  0  0  0  0  0  0  0  0
  -23.5350  -31.9960   23.5780 O   0  0  0  0  0  0  0  0  0  0  0  0
  -22.7660  -29.3260   22.3290 C   0  0  0  0  0  0  0  0  0  0  0  0
  -21.4370  -29.1490   22.2200 N   0  0  0  0  0  0  0  0  0  0  0  0
  -23.4580  -28.6830   23.1230 O   0  0  0  0  0  0  0  0  0  0  0  0
  -20.9370  -29.7180   21.5500 H   0  0  0  0  0  0  0  0  0  0  0  0
  -18.0730  -27.9140   22.7430 C   0  0  0  0  0  0  0  0  0  0  0  0
  -20.6340  -28.1880   22.9810 C   0  0  0  0  0  3  0  0  0  0  0  0
  -20.7380  -26.7690   22.3760 C   0  0  0  0  0  2  0  0  0  0  0  0
  -19.6260  -26.4580   21.3700 C   0  0  0  0  0  2  0  0  0  0  0  0
  -18.2520  -26.5840   22.0320 C   0  0  0  0  0  2  0  0  0  0  0  0
  -19.1920  -28.6750   23.1740 C   0  0  0  0  0  0  0  0  0  0  0  0
  -18.9730  -29.9230   23.7990 C   0  0  0  0  0  3  0  0  0  0  0  0
  -17.6680  -30.4110   23.9950 C   0  0  0  0  0  3  0  0  0  0  0  0
  -16.5630  -29.6490   23.5770 C   0  0  0  0  0  3  0  0  0  0  0  0
  -16.7650  -28.4010   22.9590 C   0  0  0  0  0  3  0  0  0  0  0  0
  -25.8970  -32.3750   23.6620 C   0  0  0  0  0  3  0  0  0  0  0  0
  -26.4540  -31.5600   24.8930 C   0  0  1  0  0  0  0  0  0  0  0  0
  -25.3850  -31.2550   25.9710 C   0  0  0  0  0  1  0  0  0  0  0  0
  -27.0550  -30.2130   24.4290 C   0  0  0  0  0  1  0  0  0  0  0  0
  -27.6140  -32.3380   25.5580 C   0  0  0  0  0  1  0  0  0  0  0  0
  -25.5620  -33.7470   24.0710 N   0  0  0  0  0  0  0  0  0  0  0  0
  -25.8570  -34.8470   23.3660 C   0  0  0  0  0  0  0  0  0  0  0  0
  -26.5120  -34.8160   22.3220 O   0  0  0  0  0  0  0  0  0  0  0  0
  -24.9800  -33.8470   24.8910 H   0  0  0  0  0  0  0  0  0  0  0  0
  -24.0810  -36.6140   23.1510 C   0  0  0  0  0  1  0  0  0  0  0  0
  -25.3490  -36.1970   23.9110 C   0  0  0  0  0  3  0  0  0  0  0  0
  -27.4800  -37.0920   24.7400 C   0  0  0  0  0  1  0  0  0  0  0  0
  -26.3520  -37.2800   23.8320 N   0  0  0  0  0  0  0  0  0  0  0  0
  -25.9260  -38.1800   24.0370 H   0  0  0  0  0  0  0  0  0  0  0  0
  1 47  1  0
  1 49  1  0
  1  4  1  0
  2  3  1  0
  3  6  1  0
  4  7  1  6
  4  2  1  0
  4  3  1  0
  6  5  1  0
  7 16  1  0
  8 16  1  0
  9 14  1  0
 10 11  1  0
 10  9  1  0
 12 11  1  0
 12 21  1  0
 12 13  1  0
 14  8  1  0
 14 13  1  0
 15  8  2  0
 16 17  1  0
 18 19  2  0
 19 38  1  0
 20 19  1  0
 20 23  1  0
 21 18  1  0
 21 22  1  0
 22 20  2  0
 23 24  1  0
 24 25  2  0
 26 29  1  0
 26 25  1  0
 27 26  2  0
 28 27  1  0
 28 23  2  0
 29 30  1  0
 30 35  2  0
 30 31  1  0
 31 32  2  0
 32 33  1  0
 33 37  1  0
 34 33  2  0
 35 34  1  0
 36 35  1  0
 38 39  1  0
 39 42  1  0
 39 41  1  0
 40 38  2  0
 43 44  1  0
 43 18  1  0
 45 43  1  0
 46 47  1  0
 49 48  1  0
 50 51  1  0
 50 49  1  0
 52 54  1  0
 52 51  1  0
 53 64  2  0
 54 59  1  0
 55 63  1  0
 55 65  1  0
 56 62  1  0
 56 58  1  0
 57 63  1  0
 58 57  1  0
 59 58  2  0
 60 54  2  0
 61 60  1  0
 61 56  2  0
 62 55  1  0
 63 53  1  0
 65 67  2  0
 66 65  1  0
 68 66  1  0
 69 78  2  0
 69 74  1  0
 70 66  1  0
 70 74  1  0
 71 70  1  0
 72 73  1  0
 72 71  1  0
 73 69  1  0
 74 75  2  0
 75 76  1  0
 77 76  2  0
 78 77  1  0
 79 53  1  0
 79 84  1  0
 79 80  1  0
 80 83  1  1
 80 81  1  0
 82 80  1  0
 84 87  1  0
 85 89  1  0
 85 84  1  0
 86 85  2  0
 89 88  1  0
 91 89  1  0
 91 92  1  0
 91 90  1  0
M  ISO  4   8 100  16 100  51 101  52 101
M  END
>  <TORSDO>  (92) 
F 23

>  <SCORE>  (92) 
-10.011

>  <name>  (92) 
91

>  <ligand_id>  (92) 
91

>  <original_smiles>  (92) 
[H]c1c([H])c([H])c2c(c1[H])C([H])([H])C([H])([H])C([H])([H])C2([H])N([H])C(=O)C1([H])N(C(=O)C([H])(N([H])C(=O)C([H])(N([H])C([H])([H])[H])C([H])([H])[H])C(C([H])([H])[H])(C([H])([H])[H])C([H])([H])[H])C([H])([H])c2c([H])c(OC([H])([H])C([H])([H])C([H])(C([H])([H])[H])C([H])(C([H])([H])C([H])([H])[H])C3(C([H])([H])N([H])C(=O)N4C([H])([H])C([H])([H])C([H])([H])C([H])(n5nc(-c6c([H])c([H])c(Oc7c([H])c([H])c(F)c([H])c7F)c([H])c6[H])c(C(=O)N([H])[H])c5N([H])[H])C4([H])[H])C([H])([H])C3([H])C([H])([H])C([H])([H])[H])c([H])c([H])c2C1([H])[H]

>  <smiles>  (92) 
[H]c1c([H])c([H])c2c(c1[H])C([H])([H])C([H])([H])C([H])([H])C2([H])N([H])C(=O)C1([H])N(C(=O)C([H])(N([H])C(=O)C([H])(N([H])C([H])([H])[H])C([H])([H])[H])C(C([H])([H])[H])(C([H])([H])[H])C([H])([H])[H])C([H])([H])c2c([H])c(OC([H])([H])C([H])([H])C([H])(C([H])([H])[H])C([H])(C([H])([H])C([H])([H])[H])C3(C([H])([H])N([H])C(=O)N4C([H])([H])C([H])([H])C([H])([H])C([H])(n5nc(-c6c([H])c([H])c(Oc7c([H])c([H])c(F)c([H])c7F)c([H])c6[H])c(C(=O)N([H])[H])c5N([H])[H])C4([H])[H])C([H])([H])C3([H])C([H])([H])C([H])([H])[H])c([H])c([H])c2C1([H])[H]

$$$$
93:0:0
     RDKit          3D

 93101  0  0  1  0  0  0  0  0999 V2000
  -27.7220  -20.2280   19.9240 C   0  0  0  0  0  2  0  0  0  0  0  0
  -29.8070  -19.7290   20.7750 C   0  0  0  0  0  2  0  0  0  0  0  0
  -28.9810  -21.1080   20.1420 C   0  0  0  0  0  3  0  0  0  0  0  0
  -28.0440  -18.6490   19.7310 C   0  0  0  0  0  3  0  0  0  0  0  0
  -29.5670  -18.2120   19.9990 C   0  0  2  0  0  0  0  0  0  0  0  0
  -30.5200  -15.3800   20.2780 C   0  0  0  0  0  0  0  0  0  0  0  0
  -30.5230  -12.9480   19.3760 C   0  0  0  0  0  2  0  0  0  0  0  0
  -29.6090  -12.7840   18.1340 C   0  0  0  0  0  2  0  0  0  0  0  0
  -28.1570  -12.5070   18.5570 C   0  0  0  0  0  2  0  0  0  0  0  0
  -27.7070  -13.4400   19.7070 C   0  0  0  0  0  3  0  0  0  0  0  0
  -28.7470  -13.5440   20.8450 C   0  0  0  0  0  2  0  0  0  0  0  0
  -29.9860  -14.0620   20.2440 N   0  0  0  0  0  0  0  0  0  0  0  0
  -31.7150  -15.4220   19.9490 O   0  0  0  0  0  0  0  0  0  0  0  0
  -29.7160  -16.6070   20.5000 N   0  0  0  0  0  0  0  0  0  0  0  0
  -28.8650  -16.3030   20.9390 H   0  0  0  0  0  0  0  0  0  0  0  0
  -25.3250  -13.9840   20.4260 C   0  0  0  0  0  0  0  0  0  0  0  0
  -24.2710  -13.2010   20.8100 C   0  0  0  0  0  0  0  0  0  0  0  0
  -24.7500  -11.8540   20.7930 C   0  0  0  0  0  0  0  0  0  0  0  0
  -26.3760  -13.1160   20.2010 N   0  0  0  0  0  0  0  0  0  0  0  0
  -26.0430  -11.8300   20.4880 N   0  0  0  0  0  0  0  0  0  0  0  0
  -24.0340  -10.5840   20.9850 C   0  0  0  0  0  0  0  0  0  0  0  0
  -24.4670   -9.6280   21.9290 C   0  0  0  0  0  3  0  0  0  0  0  0
  -23.7500   -8.4250   22.1120 C   0  0  0  0  0  3  0  0  0  0  0  0
  -22.5850   -8.1700   21.3490 C   0  0  0  0  0  0  0  0  0  0  0  0
  -22.1720   -9.1150   20.3930 C   0  0  0  0  0  3  0  0  0  0  0  0
  -22.8910  -10.3090   20.2100 C   0  0  0  0  0  3  0  0  0  0  0  0
  -21.8400   -7.0180   21.4410 O   0  0  0  0  0  0  0  0  0  0  0  0
  -21.7820   -6.2890   22.6010 C   0  0  0  0  0  0  0  0  0  0  0  0
  -21.3110   -6.8490   23.8100 C   0  0  0  0  0  3  0  0  0  0  0  0
  -21.2020   -6.0450   24.9620 C   0  0  0  0  0  3  0  0  0  0  0  0
  -21.5520   -4.6840   24.9080 C   0  0  0  0  0  0  0  0  0  0  0  0
  -22.0160   -4.1230   23.7040 C   0  0  0  0  0  3  0  0  0  0  0  0
  -22.1270   -4.9240   22.5540 C   0  0  0  0  0  0  0  0  0  0  0  0
  -22.5530   -4.3740   21.3910 F   0  0  0  0  0  0  0  0  0  0  0  0
  -21.4410   -3.9090   26.0120 F   0  0  0  0  0  0  0  0  0  0  0  0
  -22.8650  -13.6640   21.0560 C   0  0  0  0  0  0  0  0  0  0  0  0
  -22.1340  -12.9730   21.9200 N   0  0  0  0  0  0  0  0  0  0  0  0
  -22.4290  -14.6790   20.5130 O   0  0  0  0  0  0  0  0  0  0  0  0
  -22.5030  -12.1540   22.3800 H   0  0  0  0  0  0  0  0  0  0  0  0
  -21.1890  -13.2670   22.1280 H   0  0  0  0  0  0  0  0  0  0  0  0
  -25.4750  -15.3520   20.1920 N   0  0  0  0  0  0  0  0  0  0  0  0
  -24.5530  -15.7750   20.2480 H   0  0  0  0  0  0  0  0  0  0  0  0
  -25.8020  -15.4380   19.2360 H   0  0  0  0  0  0  0  0  0  0  0  0
  -27.0900  -17.8750   20.5580 N   0  0  0  0  0  4  0  0  0  0  0  0
  -27.3070  -17.9540   21.5370 H   0  0  0  0  0  0  0  0  0  0  0  0
  -27.0360  -16.9010   20.3050 H   0  0  0  0  0  0  0  0  0  0  0  0
  -26.1650  -18.2430   20.4230 H   0  0  0  0  0  0  0  0  0  0  0  0
  -30.3490  -18.3000   18.6840 C   0  0  0  0  0  3  0  0  0  0  0  0
  -30.2650  -17.4500   17.7470 N   0  0  0  0  0  0  0  0  0  0  0  0
  -29.6250  -16.6980   17.9710 H   0  0  0  0  0  0  0  0  0  0  0  0
  -28.8150  -22.8230   20.7140 C   0  0  0  0  0  3  0  0  0  0  0  0
  -28.0360  -24.3410   20.1190 C   0  0  0  0  0  3  0  0  0  0  0  0
  -28.1860  -25.9500   20.4560 O   0  0  0  0  0  0  0  0  0  0  0  0
  -24.6080  -31.9570   23.2670 C   0  0  0  0  0  0  0  0  0  0  0  0
  -27.1780  -27.0440   20.3340 C   0  0  0  0  0  0  0  0  0  0  0  0
  -23.4240  -30.5460   21.6340 C   0  0  0  0  0  3  0  0  0  0  0  0
  -24.8820  -28.9230   20.2390 C   0  0  0  0  0  0  0  0  0  0  0  0
  -25.9910  -30.7510   21.5080 C   0  0  0  0  0  2  0  0  0  0  0  0
  -26.0630  -29.3340   20.8690 C   0  0  0  0  0  0  0  0  0  0  0  0
  -27.2040  -28.4140   20.8920 C   0  0  0  0  0  3  0  0  0  0  0  0
  -25.9710  -26.7840   19.6470 C   0  0  0  0  0  3  0  0  0  0  0  0
  -24.8620  -27.6690   19.6060 C   0  0  0  0  0  3  0  0  0  0  0  0
  -23.6640  -29.8450   20.2670 C   0  0  0  0  0  2  0  0  0  0  0  0
  -24.6950  -31.1130   22.1900 N   0  0  0  0  0  0  0  0  0  0  0  0
  -23.5150  -32.2570   23.7750 O   0  0  0  0  0  0  0  0  0  0  0  0
  -22.7190  -29.5630   22.6050 C   0  0  0  0  0  0  0  0  0  0  0  0
  -21.3890  -29.4020   22.4710 N   0  0  0  0  0  0  0  0  0  0  0  0
  -23.3750  -28.9450   23.4480 O   0  0  0  0  0  0  0  0  0  0  0  0
  -20.9140  -29.9510   21.7680 H   0  0  0  0  0  0  0  0  0  0  0  0
  -17.9970  -28.2160   22.9690 C   0  0  0  0  0  0  0  0  0  0  0  0
  -20.5570  -28.4760   23.2460 C   0  0  0  0  0  3  0  0  0  0  0  0
  -20.6570  -27.0390   22.6880 C   0  0  0  0  0  2  0  0  0  0  0  0
  -19.5600  -26.7100   21.6700 C   0  0  0  0  0  2  0  0  0  0  0  0
  -18.1740  -26.8620   22.3030 C   0  0  0  0  0  2  0  0  0  0  0  0
  -19.1160  -28.9820   23.3980 C   0  0  0  0  0  0  0  0  0  0  0  0
  -18.8940  -30.2470   23.9830 C   0  0  0  0  0  3  0  0  0  0  0  0
  -17.5880  -30.7470   24.1430 C   0  0  0  0  0  3  0  0  0  0  0  0
  -16.4850  -29.9810   23.7290 C   0  0  0  0  0  3  0  0  0  0  0  0
  -16.6910  -28.7170   23.1480 C   0  0  0  0  0  3  0  0  0  0  0  0
  -25.8750  -32.6040   23.9030 C   0  0  0  0  0  3  0  0  0  0  0  0
  -26.3620  -31.8570   25.2070 C   0  0  1  0  0  0  0  0  0  0  0  0
  -25.2460  -31.6400   26.2560 C   0  0  0  0  0  1  0  0  0  0  0  0
  -26.9550  -30.4720   24.8620 C   0  0  0  0  0  1  0  0  0  0  0  0
  -27.4990  -32.6630   25.8790 C   0  0  0  0  0  1  0  0  0  0  0  0
  -25.5600  -34.0090   24.2150 N   0  0  0  0  0  0  0  0  0  0  0  0
  -25.9090  -35.0600   23.4610 C   0  0  0  0  0  0  0  0  0  0  0  0
  -26.5930  -34.9490   22.4410 O   0  0  0  0  0  0  0  0  0  0  0  0
  -24.9530  -34.1700   25.0050 H   0  0  0  0  0  0  0  0  0  0  0  0
  -24.2020  -36.8720   23.0770 C   0  0  0  0  0  1  0  0  0  0  0  0
  -25.4260  -36.4570   23.9080 C   0  0  0  0  0  3  0  0  0  0  0  0
  -27.5520  -37.3330   24.7740 C   0  0  0  0  0  1  0  0  0  0  0  0
  -26.4700  -37.5020   23.8080 N   0  0  0  0  0  0  0  0  0  0  0  0
  -26.0670  -38.4250   23.9410 H   0  0  0  0  0  0  0  0  0  0  0  0
  1  3  1  0
  3 51  1  0
  3  2  1  0
  4  1  1  0
  4  5  1  0
  4 44  1  0
  5 48  1  0
  5 14  1  1
  5  2  1  0
  6 14  1  0
  7 12  1  0
  8  9  1  0
  8  7  1  0
 10  9  1  0
 10 19  1  0
 10 11  1  0
 12  6  1  0
 12 11  1  0
 13  6  2  0
 14 15  1  0
 16 17  2  0
 17 36  1  0
 18 17  1  0
 18 21  1  0
 19 16  1  0
 19 20  1  0
 20 18  2  0
 21 22  1  0
 22 23  2  0
 24 27  1  0
 24 23  1  0
 25 24  2  0
 26 25  1  0
 26 21  2  0
 27 28  1  0
 28 29  1  0
 29 30  2  0
 31 30  1  0
 31 35  1  0
 32 31  2  0
 33 28  2  0
 33 32  1  0
 34 33  1  0
 36 37  1  0
 37 40  1  0
 37 39  1  0
 38 36  2  0
 41 42  1  0
 41 16  1  0
 43 41  1  0
 44 45  1  0
 46 44  1  0
 47 44  1  0
 49 50  1  0
 49 48  2  0
 52 53  1  0
 52 51  2  0
 54 65  2  0
 55 53  1  0
 55 60  1  0
 56 64  1  0
 56 66  1  0
 57 63  1  0
 57 59  1  0
 58 64  1  0
 59 60  2  0
 59 58  1  0
 61 55  2  0
 62 61  1  0
 62 57  2  0
 63 56  1  0
 64 54  1  0
 66 68  2  0
 67 66  1  0
 69 67  1  0
 70 79  2  0
 70 75  1  0
 71 67  1  0
 71 75  1  0
 72 71  1  0
 73 74  1  0
 73 72  1  0
 74 70  1  0
 75 76  2  0
 76 77  1  0
 78 77  2  0
 79 78  1  0
 80 54  1  0
 80 85  1  0
 80 81  1  0
 81 84  1  1
 81 82  1  0
 83 81  1  0
 85 88  1  0
 86 90  1  0
 86 85  1  0
 87 86  2  0
 90 89  1  0
 92 90  1  0
 92 93  1  0
 92 91  1  0
M  ISO  4   6 100  14 100  52 101  53 101
M  END
>  <TORSDO>  (93) 
F 20

>  <SCORE>  (93) 
-15.913

>  <name>  (93) 
93

>  <ligand_id>  (93) 
93

>  <original_smiles>  (93) 
[H]N=C([H])C1(N([H])C(=O)N2C([H])([H])C([H])([H])C([H])([H])C([H])(n3nc(-c4c([H])c([H])c(Oc5c([H])c([H])c(F)c([H])c5F)c([H])c4[H])c(C(=O)N([H])[H])c3N([H])[H])C2([H])[H])C([H])([H])C([H])(C([H])([H])C([H])([H])Oc2c([H])c([H])c3c(c2[H])C([H])([H])N(C(=O)C([H])(N([H])C(=O)C([H])(N([H])C([H])([H])[H])C([H])([H])[H])C(C([H])([H])[H])(C([H])([H])[H])C([H])([H])[H])C([H])(C(=O)N([H])C2([H])c4c([H])c([H])c([H])c([H])c4C([H])([H])C([H])([H])C2([H])[H])C3([H])[H])C([H])([H])C1([H])[N+]([H])([H])[H]

>  <smiles>  (93) 
[H]N=C([H])C1(N([H])C(=O)N2C([H])([H])C([H])([H])C([H])([H])C([H])(n3nc(-c4c([H])c([H])c(Oc5c([H])c([H])c(F)c([H])c5F)c([H])c4[H])c(C(=O)N([H])[H])c3N([H])[H])C2([H])[H])C([H])([H])C([H])(C([H])([H])C([H])([H])Oc2c([H])c([H])c3c(c2[H])C([H])([H])N(C(=O)C([H])(N([H])C(=O)C([H])(N([H])C([H])([H])[H])C([H])([H])[H])C(C([H])([H])[H])(C([H])([H])[H])C([H])([H])[H])C([H])(C(=O)N([H])C2([H])c4c([H])c([H])c([H])c([H])c4C([H])([H])C([H])([H])C2([H])[H])C3([H])[H])C([H])([H])C1([H])[N+]([H])([H])[H]

$$$$
94:0:0
     RDKit          3D

 95103  0  0  1  0  0  0  0  0999 V2000
  -30.5060  -19.5860   20.8980 C   0  0  0  0  0  2  0  0  0  0  0  0
  -28.8430  -18.1570   19.6620 C   0  0  0  0  0  2  0  0  0  0  0  0
  -30.6130  -20.9500   20.1540 C   0  0  0  0  0  2  0  0  0  0  0  0
  -29.0320  -20.5120   18.3430 C   0  0  0  0  0  2  0  0  0  0  0  0
  -30.3290  -18.2710   20.0700 C   0  0  0  0  0  3  0  0  0  0  0  0
  -28.2180  -19.2370   18.7190 C   0  0  0  0  0  3  0  0  0  0  0  0
  -29.3780  -21.4390   19.4630 N   0  0  2  0  0  4  0  0  0  0  0  0
  -28.6190  -21.4220   20.1260 H   0  0  0  0  0  0  0  0  0  0  0  0
  -25.7860  -18.4210   19.0010 C   0  0  0  0  0  1  0  0  0  0  0  0
  -26.7720  -19.5930   19.1350 C   0  0  0  0  0  2  0  0  0  0  0  0
  -29.5200  -22.8830   19.0010 C   0  0  0  0  0  2  0  0  0  0  0  0
  -28.6460  -23.9750   19.7280 C   0  0  0  0  0  2  0  0  0  0  0  0
  -28.8130  -25.4230   19.1340 C   0  0  0  0  0  2  0  0  0  0  0  0
  -28.5330  -26.5600   20.0020 O   0  0  0  0  0  0  0  0  0  0  0  0
  -24.5450  -31.6790   23.0210 C   0  0  0  0  0  0  0  0  0  0  0  0
  -27.3420  -27.2770   19.9430 C   0  0  0  0  0  0  0  0  0  0  0  0
  -23.4080  -30.2810   21.3280 C   0  0  0  0  0  3  0  0  0  0  0  0
  -24.9230  -28.7830   19.9180 C   0  0  0  0  0  0  0  0  0  0  0  0
  -25.9360  -30.6690   21.2060 C   0  0  0  0  0  2  0  0  0  0  0  0
  -26.0600  -29.3060   20.5470 C   0  0  0  0  0  0  0  0  0  0  0  0
  -27.2670  -28.5600   20.5560 C   0  0  0  0  0  3  0  0  0  0  0  0
  -26.1770  -26.7770   19.3190 C   0  0  0  0  0  3  0  0  0  0  0  0
  -24.9800  -27.5200   19.3040 C   0  0  0  0  0  3  0  0  0  0  0  0
  -23.6670  -29.6250   19.9450 C   0  0  0  0  0  2  0  0  0  0  0  0
  -24.6470  -30.8930   21.9110 N   0  0  0  0  0  0  0  0  0  0  0  0
  -23.4460  -31.9260   23.5360 O   0  0  0  0  0  0  0  0  0  0  0  0
  -22.7470  -29.2370   22.2570 C   0  0  0  0  0  0  0  0  0  0  0  0
  -21.4170  -29.0870   22.1410 N   0  0  0  0  0  0  0  0  0  0  0  0
  -23.4270  -28.5670   23.0380 O   0  0  0  0  0  0  0  0  0  0  0  0
  -20.9290  -29.6820   21.4850 H   0  0  0  0  0  0  0  0  0  0  0  0
  -18.0190  -27.9770   22.6790 C   0  0  0  0  0  0  0  0  0  0  0  0
  -20.5910  -28.1330   22.8820 C   0  0  0  0  0  3  0  0  0  0  0  0
  -20.6250  -26.7350   22.2220 C   0  0  0  0  0  2  0  0  0  0  0  0
  -19.4830  -26.5100   21.2280 C   0  0  0  0  0  2  0  0  0  0  0  0
  -18.1260  -26.6650   21.9220 C   0  0  0  0  0  2  0  0  0  0  0  0
  -19.1760  -28.6750   23.1160 C   0  0  0  0  0  0  0  0  0  0  0  0
  -19.0210  -29.9090   23.7840 C   0  0  0  0  0  3  0  0  0  0  0  0
  -17.7410  -30.4430   24.0210 C   0  0  0  0  0  3  0  0  0  0  0  0
  -16.5990  -29.7420   23.6010 C   0  0  0  0  0  3  0  0  0  0  0  0
  -16.7380  -28.5100   22.9350 C   0  0  0  0  0  3  0  0  0  0  0  0
  -25.8030  -32.3230   23.6860 C   0  0  0  0  0  3  0  0  0  0  0  0
  -25.4570  -33.7050   24.0400 N   0  0  0  0  0  0  0  0  0  0  0  0
  -25.7820  -34.7820   23.3100 C   0  0  0  0  0  0  0  0  0  0  0  0
  -26.4730  -34.7150   22.2910 O   0  0  0  0  0  0  0  0  0  0  0  0
  -24.8460  -33.8310   24.8330 H   0  0  0  0  0  0  0  0  0  0  0  0
  -24.0130  -36.5370   22.9680 C   0  0  0  0  0  1  0  0  0  0  0  0
  -25.2550  -36.1480   23.7870 C   0  0  0  0  0  3  0  0  0  0  0  0
  -27.3550  -37.0710   24.6640 C   0  0  0  0  0  1  0  0  0  0  0  0
  -26.2620  -37.2290   23.7070 N   0  0  0  0  0  0  0  0  0  0  0  0
  -25.8320  -38.1360   23.8640 H   0  0  0  0  0  0  0  0  0  0  0  0
  -26.3080  -31.5340   24.9560 C   0  0  1  0  0  0  0  0  0  0  0  0
  -25.2010  -31.2610   26.0000 C   0  0  0  0  0  1  0  0  0  0  0  0
  -26.9150  -30.1730   24.5450 C   0  0  0  0  0  1  0  0  0  0  0  0
  -27.4370  -32.3290   25.6530 C   0  0  0  0  0  1  0  0  0  0  0  0
  -30.8600  -17.0000   20.8700 C   0  0  0  0  0  3  0  0  0  0  0  0
  -30.9760  -14.6060   19.9800 C   0  0  0  0  0  0  0  0  0  0  0  0
  -30.5970  -12.4150   18.8890 C   0  0  0  0  0  2  0  0  0  0  0  0
  -29.6010  -12.5950   17.7250 C   0  0  0  0  0  2  0  0  0  0  0  0
  -28.1470  -12.4950   18.2260 C   0  0  0  0  0  2  0  0  0  0  0  0
  -27.8860  -13.3670   19.4840 C   0  0  0  0  0  3  0  0  0  0  0  0
  -28.9870  -13.1580   20.5460 C   0  0  0  0  0  2  0  0  0  0  0  0
  -30.2780  -13.4370   19.9000 N   0  0  0  0  0  0  0  0  0  0  0  0
  -32.1140  -14.7200   19.5170 O   0  0  0  0  0  0  0  0  0  0  0  0
  -30.3010  -15.6780   20.4730 N   0  0  0  0  0  0  0  0  0  0  0  0
  -29.3480  -15.4970   20.7510 H   0  0  0  0  0  0  0  0  0  0  0  0
  -25.5560  -14.0520   20.3250 C   0  0  0  0  0  0  0  0  0  0  0  0
  -24.4780  -13.3160   20.7400 C   0  0  0  0  0  0  0  0  0  0  0  0
  -24.8860  -11.9490   20.6730 C   0  0  0  0  0  0  0  0  0  0  0  0
  -26.5520  -13.1350   20.0320 N   0  0  0  0  0  0  0  0  0  0  0  0
  -26.1560  -11.8640   20.3010 N   0  0  0  0  0  0  0  0  0  0  0  0
  -24.1220  -10.7120   20.8850 C   0  0  0  0  0  0  0  0  0  0  0  0
  -24.5520   -9.7270   21.8010 C   0  0  0  0  0  3  0  0  0  0  0  0
  -23.7910   -8.5550   22.0010 C   0  0  0  0  0  3  0  0  0  0  0  0
  -22.5850   -8.3610   21.2850 C   0  0  0  0  0  0  0  0  0  0  0  0
  -22.1740   -9.3340   20.3580 C   0  0  0  0  0  3  0  0  0  0  0  0
  -22.9350  -10.4980   20.1570 C   0  0  0  0  0  3  0  0  0  0  0  0
  -21.7950   -7.2430   21.3960 O   0  0  0  0  0  0  0  0  0  0  0  0
  -21.7340   -6.5170   22.5580 C   0  0  0  0  0  0  0  0  0  0  0  0
  -21.3480   -7.1030   23.7840 C   0  0  0  0  0  3  0  0  0  0  0  0
  -21.2320   -6.3050   24.9390 C   0  0  0  0  0  3  0  0  0  0  0  0
  -21.4900   -4.9230   24.8710 C   0  0  0  0  0  0  0  0  0  0  0  0
  -21.8670   -4.3370   23.6500 C   0  0  0  0  0  3  0  0  0  0  0  0
  -21.9860   -5.1310   22.4970 C   0  0  0  0  0  0  0  0  0  0  0  0
  -22.3300   -4.5580   21.3190 F   0  0  0  0  0  0  0  0  0  0  0  0
  -21.3700   -4.1550   25.9790 F   0  0  0  0  0  0  0  0  0  0  0  0
  -23.1160  -13.8440   21.0840 C   0  0  0  0  0  0  0  0  0  0  0  0
  -22.4140  -13.1770   21.9930 N   0  0  0  0  0  0  0  0  0  0  0  0
  -22.6840  -14.8800   20.5830 O   0  0  0  0  0  0  0  0  0  0  0  0
  -22.7760  -12.3370   22.4190 H   0  0  0  0  0  0  0  0  0  0  0  0
  -21.5000  -13.5100   22.2670 H   0  0  0  0  0  0  0  0  0  0  0  0
  -25.7650  -15.4170   20.1500 N   0  0  0  0  0  0  0  0  0  0  0  0
  -25.0280  -16.0980   20.2980 H   0  0  0  0  0  0  0  0  0  0  0  0
  -26.6020  -15.8220   19.7560 H   0  0  0  0  0  0  0  0  0  0  0  0
  -31.3320  -16.0170   23.2260 C   0  0  0  0  0  1  0  0  0  0  0  0
  -30.6960  -17.1500   22.4050 C   0  0  0  0  0  2  0  0  0  0  0  0
  2  5  1  0
  3  1  1  0
  4  6  1  0
  4  7  1  0
  5 55  1  0
  5  1  1  0
  6 10  1  0
  6  2  1  0
  7  8  1  1
  7  3  1  0
  9 10  1  0
 11  7  1  0
 11 12  1  0
 13 12  1  0
 13 14  1  0
 15 26  2  0
 16 14  1  0
 16 21  1  0
 17 25  1  0
 17 27  1  0
 18 24  1  0
 18 20  1  0
 19 25  1  0
 20 21  2  0
 20 19  1  0
 22 16  2  0
 23 22  1  0
 23 18  2  0
 24 17  1  0
 25 15  1  0
 27 29  2  0
 28 27  1  0
 30 28  1  0
 31 40  2  0
 31 36  1  0
 32 28  1  0
 32 36  1  0
 33 32  1  0
 34 35  1  0
 34 33  1  0
 35 31  1  0
 36 37  2  0
 37 38  1  0
 39 38  2  0
 40 39  1  0
 41 15  1  0
 41 42  1  0
 41 51  1  0
 42 45  1  0
 43 47  1  0
 43 42  1  0
 44 43  2  0
 47 46  1  0
 49 47  1  0
 49 50  1  0
 49 48  1  0
 51 54  1  1
 51 52  1  0
 53 51  1  0
 55 95  1  0
 56 64  1  0
 57 62  1  0
 58 59  1  0
 58 57  1  0
 60 59  1  0
 60 69  1  0
 60 61  1  0
 62 56  1  0
 62 61  1  0
 63 56  2  0
 64 65  1  0
 64 55  1  0
 66 67  2  0
 67 86  1  0
 68 67  1  0
 68 71  1  0
 69 70  1  0
 69 66  1  0
 70 68  2  0
 71 72  1  0
 72 73  2  0
 74 77  1  0
 74 73  1  0
 75 74  2  0
 76 75  1  0
 76 71  2  0
 77 78  1  0
 78 79  1  0
 79 80  2  0
 81 80  1  0
 81 85  1  0
 82 81  2  0
 83 78  2  0
 83 82  1  0
 84 83  1  0
 86 87  1  0
 87 90  1  0
 87 89  1  0
 88 86  2  0
 91 92  1  0
 91 66  1  0
 93 91  1  0
 95 94  1  0
M  ISO  4  13 101  14 101  56 100  64 100
M  END
>  <TORSDO>  (94) 
F 22

>  <SCORE>  (94) 
-10.702

>  <name>  (94) 
94

>  <ligand_id>  (94) 
94

>  <original_smiles>  (94) 
[H]c1c([H])c([H])c2c(c1[H])C([H])([H])C([H])([H])C([H])([H])C2([H])N([H])C(=O)C1([H])N(C(=O)C([H])(N([H])C(=O)C([H])(N([H])C([H])([H])[H])C([H])([H])[H])C(C([H])([H])[H])(C([H])([H])[H])C([H])([H])[H])C([H])([H])c2c([H])c(OC([H])([H])C([H])([H])C([H])([H])[N+]3([H])C([H])([H])C([H])([H])C([H])(C([H])(N([H])C(=O)N4C([H])([H])C([H])([H])C([H])([H])C([H])(n5nc(-c6c([H])c([H])c(Oc7c([H])c([H])c(F)c([H])c7F)c([H])c6[H])c(C(=O)N([H])[H])c5N([H])[H])C4([H])[H])C([H])([H])C([H])([H])[H])C([H])([H])C([H])(C([H])([H])C([H])([H])[H])C3([H])[H])c([H])c([H])c2C1([H])[H]

>  <smiles>  (94) 
[H]c1c([H])c([H])c2c(c1[H])C([H])([H])C([H])([H])C([H])([H])C2([H])N([H])C(=O)C1([H])N(C(=O)C([H])(N([H])C(=O)C([H])(N([H])C([H])([H])[H])C([H])([H])[H])C(C([H])([H])[H])(C([H])([H])[H])C([H])([H])[H])C([H])([H])c2c([H])c(OC([H])([H])C([H])([H])C([H])([H])[N+]3([H])C([H])([H])C([H])([H])C([H])(C([H])(N([H])C(=O)N4C([H])([H])C([H])([H])C([H])([H])C([H])(n5nc(-c6c([H])c([H])c(Oc7c([H])c([H])c(F)c([H])c7F)c([H])c6[H])c(C(=O)N([H])[H])c5N([H])[H])C4([H])[H])C([H])([H])C([H])([H])[H])C([H])([H])C([H])(C([H])([H])C([H])([H])[H])C3([H])[H])c([H])c([H])c2C1([H])[H]

$$$$
95:0:0
     RDKit          3D

 90 97  0  0  1  0  0  0  0  0999 V2000
  -29.0490  -23.5220   21.2150 C   0  0  0  0  0  3  0  0  0  0  0  0
  -28.7310  -23.3450   18.6090 C   0  0  0  0  0  1  0  0  0  0  0  0
  -28.4730  -24.1970   19.8710 C   0  0  0  0  0  3  0  0  0  0  0  0
  -28.8700  -25.6740   19.4720 C   0  0  0  0  0  2  0  0  0  0  0  0
  -28.4780  -26.7960   20.2850 O   0  0  0  0  0  0  0  0  0  0  0  0
  -24.5810  -31.9160   23.2470 C   0  0  0  0  0  0  0  0  0  0  0  0
  -27.2760  -27.4780   20.1710 C   0  0  0  0  0  0  0  0  0  0  0  0
  -23.3810  -30.5030   21.6010 C   0  0  0  0  0  3  0  0  0  0  0  0
  -24.8520  -28.9640   20.1720 C   0  0  0  0  0  0  0  0  0  0  0  0
  -25.9020  -30.8750   21.4060 C   0  0  0  0  0  2  0  0  0  0  0  0
  -25.9960  -29.5000   20.7720 C   0  0  0  0  0  0  0  0  0  0  0  0
  -27.2000  -28.7560   20.7760 C   0  0  0  0  0  3  0  0  0  0  0  0
  -26.1210  -26.9680   19.5360 C   0  0  0  0  0  3  0  0  0  0  0  0
  -24.9120  -27.7000   19.5510 C   0  0  0  0  0  3  0  0  0  0  0  0
  -23.5960  -29.8070   20.2240 C   0  0  0  0  0  2  0  0  0  0  0  0
  -24.6370  -31.1180   22.1420 N   0  0  0  0  0  0  0  0  0  0  0  0
  -23.4990  -32.1890   23.7860 O   0  0  0  0  0  0  0  0  0  0  0  0
  -22.7320  -29.4900   22.5700 C   0  0  0  0  0  0  0  0  0  0  0  0
  -21.4070  -29.3050   22.4450 N   0  0  0  0  0  0  0  0  0  0  0  0
  -23.4170  -28.8740   23.3890 O   0  0  0  0  0  0  0  0  0  0  0  0
  -20.9170  -29.8530   21.7520 H   0  0  0  0  0  0  0  0  0  0  0  0
  -18.0390  -28.0950   22.9350 C   0  0  0  0  0  0  0  0  0  0  0  0
  -20.5940  -28.3650   23.2130 C   0  0  0  0  0  3  0  0  0  0  0  0
  -20.7070  -26.9350   22.6360 C   0  0  0  0  0  2  0  0  0  0  0  0
  -19.6080  -26.6060   21.6200 C   0  0  0  0  0  2  0  0  0  0  0  0
  -18.2240  -26.7460   22.2600 C   0  0  0  0  0  2  0  0  0  0  0  0
  -19.1520  -28.8610   23.3680 C   0  0  0  0  0  0  0  0  0  0  0  0
  -18.9280  -30.1240   23.9580 C   0  0  0  0  0  3  0  0  0  0  0  0
  -17.6200  -30.6200   24.1200 C   0  0  0  0  0  3  0  0  0  0  0  0
  -16.5200  -29.8490   23.7070 C   0  0  0  0  0  3  0  0  0  0  0  0
  -16.7310  -28.5890   23.1180 C   0  0  0  0  0  3  0  0  0  0  0  0
  -25.8640  -32.5560   23.8680 C   0  0  0  0  0  3  0  0  0  0  0  0
  -25.5510  -33.9550   24.1940 N   0  0  0  0  0  0  0  0  0  0  0  0
  -25.8890  -35.0070   23.4360 C   0  0  0  0  0  0  0  0  0  0  0  0
  -26.5630  -34.9030   22.4090 O   0  0  0  0  0  0  0  0  0  0  0  0
  -24.9470  -34.1090   24.9860 H   0  0  0  0  0  0  0  0  0  0  0  0
  -24.1590  -36.7970   23.0830 C   0  0  0  0  0  1  0  0  0  0  0  0
  -25.4010  -36.3950   23.8940 C   0  0  0  0  0  3  0  0  0  0  0  0
  -27.5360  -37.2810   24.7250 C   0  0  0  0  0  1  0  0  0  0  0  0
  -26.4330  -37.4490   23.7830 N   0  0  0  0  0  0  0  0  0  0  0  0
  -26.0240  -38.3680   23.9310 H   0  0  0  0  0  0  0  0  0  0  0  0
  -26.3870  -31.7900   25.1460 C   0  0  1  0  0  0  0  0  0  0  0  0
  -25.2980  -31.5740   26.2250 C   0  0  0  0  0  1  0  0  0  0  0  0
  -26.9520  -30.4040   24.7580 C   0  0  0  0  0  1  0  0  0  0  0  0
  -27.5480  -32.5790   25.7940 C   0  0  0  0  0  1  0  0  0  0  0  0
  -29.6200  -24.6220   23.5310 C   0  0  0  0  0  1  0  0  0  0  0  0
  -29.9860  -24.4650   22.0430 C   0  0  0  0  0  2  0  0  0  0  0  0
  -29.7540  -22.0940   21.1310 C   0  0  0  0  0  2  0  0  0  0  0  0
  -28.9740  -20.7480   20.8740 C   0  0  0  0  0  2  0  0  0  0  0  0
  -29.8800  -19.4880   20.8270 C   0  0  0  0  0  3  0  0  0  0  0  0
  -29.5700  -18.1910   21.1260 C   0  0  0  0  0  3  0  0  0  0  0  0
  -30.5630  -17.0010   21.0240 C   0  0  0  0  0  2  0  0  0  0  0  0
  -30.6350  -14.5940   20.1910 C   0  0  0  0  0  0  0  0  0  0  0  0
  -30.3220  -12.4110   19.0490 C   0  0  0  0  0  2  0  0  0  0  0  0
  -29.3580  -12.5770   17.8540 C   0  0  0  0  0  2  0  0  0  0  0  0
  -27.8940  -12.4130   18.3120 C   0  0  0  0  0  2  0  0  0  0  0  0
  -27.5750  -13.2560   19.5770 C   0  0  0  0  0  3  0  0  0  0  0  0
  -28.6600  -13.0700   20.6610 C   0  0  0  0  0  2  0  0  0  0  0  0
  -29.9590  -13.4150   20.0660 N   0  0  0  0  0  0  0  0  0  0  0  0
  -31.7500  -14.7550   19.6830 O   0  0  0  0  0  0  0  0  0  0  0  0
  -29.9960  -15.6340   20.7940 N   0  0  0  0  0  0  0  0  0  0  0  0
  -29.0930  -15.4370   21.1970 H   0  0  0  0  0  0  0  0  0  0  0  0
  -25.2030  -13.8620   20.3500 C   0  0  0  0  0  0  0  0  0  0  0  0
  -24.1450  -13.0920   20.7560 C   0  0  0  0  0  0  0  0  0  0  0  0
  -24.6070  -11.7420   20.7200 C   0  0  0  0  0  0  0  0  0  0  0  0
  -26.2410  -12.9810   20.0950 N   0  0  0  0  0  0  0  0  0  0  0  0
  -25.8870  -11.7000   20.3740 N   0  0  0  0  0  0  0  0  0  0  0  0
  -23.8840  -10.4830   20.9450 C   0  0  0  0  0  0  0  0  0  0  0  0
  -24.3400   -9.5330   21.8880 C   0  0  0  0  0  3  0  0  0  0  0  0
  -23.6270   -8.3330   22.0970 C   0  0  0  0  0  3  0  0  0  0  0  0
  -22.4450   -8.0760   21.3620 C   0  0  0  0  0  0  0  0  0  0  0  0
  -22.0080   -9.0130   20.4100 C   0  0  0  0  0  3  0  0  0  0  0  0
  -22.7200  -10.2060   20.2000 C   0  0  0  0  0  3  0  0  0  0  0  0
  -21.6940   -6.9300   21.4800 O   0  0  0  0  0  0  0  0  0  0  0  0
  -21.6510   -6.2130   22.6490 C   0  0  0  0  0  0  0  0  0  0  0  0
  -21.2150   -6.7920   23.8620 C   0  0  0  0  0  3  0  0  0  0  0  0
  -21.1230   -6.0040   25.0250 C   0  0  0  0  0  3  0  0  0  0  0  0
  -21.4560   -4.6360   24.9740 C   0  0  0  0  0  0  0  0  0  0  0  0
  -21.8820   -4.0540   23.7660 C   0  0  0  0  0  3  0  0  0  0  0  0
  -21.9800   -4.8420   22.6060 C   0  0  0  0  0  0  0  0  0  0  0  0
  -22.3720   -4.2740   21.4410 F   0  0  0  0  0  0  0  0  0  0  0  0
  -21.3570   -3.8760   26.0900 F   0  0  0  0  0  0  0  0  0  0  0  0
  -22.7600  -13.5710   21.0700 C   0  0  0  0  0  0  0  0  0  0  0  0
  -22.0530  -12.8860   21.9640 N   0  0  0  0  0  0  0  0  0  0  0  0
  -22.3100  -14.5940   20.5570 O   0  0  0  0  0  0  0  0  0  0  0  0
  -22.4330  -12.0640   22.4120 H   0  0  0  0  0  0  0  0  0  0  0  0
  -21.1220  -13.1960   22.2050 H   0  0  0  0  0  0  0  0  0  0  0  0
  -25.3650  -15.2340   20.1600 N   0  0  0  0  0  0  0  0  0  0  0  0
  -24.6040  -15.8890   20.2820 H   0  0  0  0  0  0  0  0  0  0  0  0
  -26.2140  -15.6630   19.8100 H   0  0  0  0  0  0  0  0  0  0  0  0
  1 48  1  0
  1 47  1  0
  3  2  1  0
  3  1  1  0
  4  3  1  0
  4  5  1  0
  6 17  2  0
  7  5  1  0
  7 12  1  0
  8 16  1  0
  8 18  1  0
  9 15  1  0
  9 11  1  0
 10 16  1  0
 11 12  2  0
 11 10  1  0
 13 14  1  0
 13  7  2  0
 14  9  2  0
 15  8  1  0
 16  6  1  0
 18 20  2  0
 19 18  1  0
 21 19  1  0
 22 31  2  0
 22 27  1  0
 23 19  1  0
 23 27  1  0
 24 23  1  0
 25 26  1  0
 25 24  1  0
 26 22  1  0
 27 28  2  0
 28 29  1  0
 30 29  2  0
 31 30  1  0
 32  6  1  0
 32 33  1  0
 32 42  1  0
 33 36  1  0
 34 38  1  0
 34 33  1  0
 35 34  2  0
 38 37  1  0
 40 38  1  0
 40 41  1  0
 40 39  1  0
 42 45  1  1
 42 43  1  0
 44 42  1  0
 47 46  1  0
 49 48  1  0
 50 49  1  0
 50 51  2  0
 52 51  1  0
 53 61  1  0
 54 59  1  0
 55 56  1  0
 55 54  1  0
 57 56  1  0
 57 66  1  0
 57 58  1  0
 59 53  1  0
 59 58  1  0
 60 53  2  0
 61 52  1  0
 61 62  1  0
 63 64  2  0
 64 83  1  0
 65 64  1  0
 65 68  1  0
 66 63  1  0
 66 67  1  0
 67 65  2  0
 68 69  1  0
 69 70  2  0
 71 74  1  0
 71 70  1  0
 72 71  2  0
 73 72  1  0
 73 68  2  0
 74 75  1  0
 75 76  1  0
 76 77  2  0
 78 77  1  0
 78 82  1  0
 79 78  2  0
 80 75  2  0
 80 79  1  0
 81 80  1  0
 83 84  1  0
 84 87  1  0
 84 86  1  0
 85 83  2  0
 88 89  1  0
 88 63  1  0
 90 88  1  0
M  ISO  4   4 101   5 101  53 100  61 100
M  END
>  <TORSDO>  (95) 
F 23

>  <SCORE>  (95) 
-12.460

>  <name>  (95) 
95

>  <ligand_id>  (95) 
95

>  <original_smiles>  (95) 
[H]C(=C([H])C([H])([H])C([H])([H])C([H])(C([H])([H])C([H])([H])[H])C([H])(C([H])([H])[H])C([H])([H])Oc1c([H])c([H])c2c(c1[H])C([H])([H])N(C(=O)C([H])(N([H])C(=O)C([H])(N([H])C([H])([H])[H])C([H])([H])[H])C(C([H])([H])[H])(C([H])([H])[H])C([H])([H])[H])C([H])(C(=O)N([H])C1([H])c3c([H])c([H])c([H])c([H])c3C([H])([H])C([H])([H])C1([H])[H])C2([H])[H])C([H])([H])N([H])C(=O)N1C([H])([H])C([H])([H])C([H])([H])C([H])(n2nc(-c3c([H])c([H])c(Oc4c([H])c([H])c(F)c([H])c4F)c([H])c3[H])c(C(=O)N([H])[H])c2N([H])[H])C1([H])[H]

>  <smiles>  (95) 
[H]C(=C([H])C([H])([H])C([H])([H])C([H])(C([H])([H])C([H])([H])[H])C([H])(C([H])([H])[H])C([H])([H])Oc1c([H])c([H])c2c(c1[H])C([H])([H])N(C(=O)C([H])(N([H])C(=O)C([H])(N([H])C([H])([H])[H])C([H])([H])[H])C(C([H])([H])[H])(C([H])([H])[H])C([H])([H])[H])C([H])(C(=O)N([H])C1([H])c3c([H])c([H])c([H])c([H])c3C([H])([H])C([H])([H])C1([H])[H])C2([H])[H])C([H])([H])N([H])C(=O)N1C([H])([H])C([H])([H])C([H])([H])C([H])(n2nc(-c3c([H])c([H])c(Oc4c([H])c([H])c(F)c([H])c4F)c([H])c3[H])c(C(=O)N([H])[H])c2N([H])[H])C1([H])[H]

$$$$
96:0:0
     RDKit          3D

 93100  0  0  1  0  0  0  0  0999 V2000
  -29.3930  -19.0640   20.0920 C   0  0  0  0  0  3  0  0  0  0  0  0
  -28.1480  -18.4830   19.3600 C   0  0  0  0  0  2  0  0  0  0  0  0
  -27.8430  -19.0810   17.9810 C   0  0  0  0  0  0  0  0  0  0  0  0
  -28.3450  -18.4680   16.9160 N   0  0  0  0  0  0  0  0  0  0  0  0
  -27.1140  -20.0620   17.8590 O   0  0  0  0  0  0  0  0  0  0  0  0
  -28.9230  -17.6450   17.0120 H   0  0  0  0  0  0  0  0  0  0  0  0
  -28.1390  -18.8130   15.9880 H   0  0  0  0  0  0  0  0  0  0  0  0
  -28.9960  -20.5800   20.7510 C   0  0  0  0  0  2  0  0  0  0  0  0
  -29.3280  -22.1010   20.1140 C   0  0  0  0  0  2  0  0  0  0  0  0
  -28.3810  -23.4940   19.9770 C   0  0  0  0  0  2  0  0  0  0  0  0
  -28.5090  -24.9620   20.7720 C   0  0  0  0  0  2  0  0  0  0  0  0
  -28.4740  -26.4190   20.2470 O   0  0  0  0  0  0  0  0  0  0  0  0
  -24.6690  -31.9290   23.3260 C   0  0  0  0  0  0  0  0  0  0  0  0
  -27.3570  -27.3130   20.2930 C   0  0  0  0  0  0  0  0  0  0  0  0
  -23.5110  -30.5360   21.6530 C   0  0  0  0  0  3  0  0  0  0  0  0
  -24.9990  -28.9950   20.2370 C   0  0  0  0  0  0  0  0  0  0  0  0
  -26.0580  -30.8530   21.5180 C   0  0  0  0  0  2  0  0  0  0  0  0
  -26.1610  -29.4670   20.8610 C   0  0  0  0  0  0  0  0  0  0  0  0
  -27.3450  -28.6440   20.8640 C   0  0  0  0  0  3  0  0  0  0  0  0
  -26.1700  -26.9230   19.6440 C   0  0  0  0  0  3  0  0  0  0  0  0
  -25.0150  -27.7350   19.6130 C   0  0  0  0  0  3  0  0  0  0  0  0
  -23.7590  -29.8730   20.2710 C   0  0  0  0  0  2  0  0  0  0  0  0
  -24.7650  -31.1280   22.2210 N   0  0  0  0  0  0  0  0  0  0  0  0
  -23.5740  -32.1890   23.8450 O   0  0  0  0  0  0  0  0  0  0  0  0
  -22.8380  -29.5070   22.5960 C   0  0  0  0  0  0  0  0  0  0  0  0
  -21.5170  -29.3070   22.4410 N   0  0  0  0  0  0  0  0  0  0  0  0
  -23.5080  -28.8920   23.4290 O   0  0  0  0  0  0  0  0  0  0  0  0
  -21.0340  -29.8560   21.7440 H   0  0  0  0  0  0  0  0  0  0  0  0
  -18.1470  -28.0610   22.9020 C   0  0  0  0  0  0  0  0  0  0  0  0
  -20.7020  -28.3460   23.1880 C   0  0  0  0  0  3  0  0  0  0  0  0
  -20.8220  -26.9260   22.5880 C   0  0  0  0  0  2  0  0  0  0  0  0
  -19.7300  -26.6120   21.5600 C   0  0  0  0  0  2  0  0  0  0  0  0
  -18.3420  -26.7290   22.1990 C   0  0  0  0  0  2  0  0  0  0  0  0
  -19.2550  -28.8280   23.3530 C   0  0  0  0  0  0  0  0  0  0  0  0
  -19.0190  -30.0750   23.9720 C   0  0  0  0  0  3  0  0  0  0  0  0
  -17.7060  -30.5570   24.1420 C   0  0  0  0  0  3  0  0  0  0  0  0
  -16.6140  -29.7880   23.7080 C   0  0  0  0  0  3  0  0  0  0  0  0
  -16.8340  -28.5420   23.0930 C   0  0  0  0  0  3  0  0  0  0  0  0
  -25.9310  -32.5780   23.9760 C   0  0  0  0  0  3  0  0  0  0  0  0
  -25.6190  -33.9880   24.2530 N   0  0  0  0  0  0  0  0  0  0  0  0
  -25.9860  -35.0190   23.4800 C   0  0  0  0  0  0  0  0  0  0  0  0
  -26.6920  -34.8800   22.4770 O   0  0  0  0  0  0  0  0  0  0  0  0
  -24.9990  -34.1690   25.0300 H   0  0  0  0  0  0  0  0  0  0  0  0
  -24.2910  -36.8200   23.0150 C   0  0  0  0  0  1  0  0  0  0  0  0
  -25.4960  -36.4240   23.8830 C   0  0  0  0  0  3  0  0  0  0  0  0
  -27.5970  -37.3230   24.7810 C   0  0  0  0  0  1  0  0  0  0  0  0
  -26.5420  -37.4640   23.7820 N   0  0  0  0  0  0  0  0  0  0  0  0
  -26.1370  -38.3920   23.8760 H   0  0  0  0  0  0  0  0  0  0  0  0
  -26.3910  -31.8480   25.2990 C   0  0  1  0  0  0  0  0  0  0  0  0
  -25.2540  -31.6410   26.3270 C   0  0  0  0  0  1  0  0  0  0  0  0
  -26.9910  -30.4590   24.9800 C   0  0  0  0  0  1  0  0  0  0  0  0
  -27.5130  -32.6640   25.9840 C   0  0  0  0  0  1  0  0  0  0  0  0
  -30.0980  -17.7890   20.9600 C   0  0  0  0  0  3  0  0  0  0  0  0
  -30.5950  -15.0790   20.4150 C   0  0  0  0  0  0  0  0  0  0  0  0
  -30.4510  -12.7850   19.3430 C   0  0  0  0  0  2  0  0  0  0  0  0
  -29.4960  -12.8090   18.1290 C   0  0  0  0  0  2  0  0  0  0  0  0
  -28.0390  -12.5850   18.5760 C   0  0  0  0  0  2  0  0  0  0  0  0
  -27.6610  -13.4450   19.8110 C   0  0  0  0  0  3  0  0  0  0  0  0
  -28.7350  -13.3880   20.9170 C   0  0  0  0  0  2  0  0  0  0  0  0
  -29.9920  -13.8300   20.3030 N   0  0  0  0  0  0  0  0  0  0  0  0
  -31.7910  -15.1420   20.1140 O   0  0  0  0  0  0  0  0  0  0  0  0
  -29.8170  -16.2460   20.6770 N   0  0  0  0  0  0  0  0  0  0  0  0
  -28.8520  -16.0020   20.8280 H   0  0  0  0  0  0  0  0  0  0  0  0
  -25.2860  -13.9840   20.5890 C   0  0  0  0  0  0  0  0  0  0  0  0
  -24.2340  -13.1900   20.9540 C   0  0  0  0  0  0  0  0  0  0  0  0
  -24.7140  -11.8440   20.8880 C   0  0  0  0  0  0  0  0  0  0  0  0
  -26.3340  -13.1230   20.3170 N   0  0  0  0  0  0  0  0  0  0  0  0
  -26.0010  -11.8290   20.5620 N   0  0  0  0  0  0  0  0  0  0  0  0
  -24.0030  -10.5710   21.0580 C   0  0  0  0  0  0  0  0  0  0  0  0
  -24.4250   -9.6090   22.0020 C   0  0  0  0  0  3  0  0  0  0  0  0
  -23.7110   -8.4020   22.1620 C   0  0  0  0  0  3  0  0  0  0  0  0
  -22.5620   -8.1470   21.3760 C   0  0  0  0  0  0  0  0  0  0  0  0
  -22.1590   -9.0980   20.4200 C   0  0  0  0  0  3  0  0  0  0  0  0
  -22.8740  -10.2960   20.2600 C   0  0  0  0  0  3  0  0  0  0  0  0
  -21.8220   -6.9910   21.4430 O   0  0  0  0  0  0  0  0  0  0  0  0
  -21.7340   -6.2600   22.6010 C   0  0  0  0  0  0  0  0  0  0  0  0
  -21.1930   -6.8040   23.7850 C   0  0  0  0  0  3  0  0  0  0  0  0
  -21.0580   -5.9960   24.9330 C   0  0  0  0  0  3  0  0  0  0  0  0
  -21.4540   -4.6460   24.8950 C   0  0  0  0  0  0  0  0  0  0  0  0
  -21.9860   -4.1010   23.7130 C   0  0  0  0  0  3  0  0  0  0  0  0
  -22.1230   -4.9060   22.5690 C   0  0  0  0  0  0  0  0  0  0  0  0
  -22.6190   -4.3720   21.4260 F   0  0  0  0  0  0  0  0  0  0  0  0
  -21.3160   -3.8670   25.9930 F   0  0  0  0  0  0  0  0  0  0  0  0
  -22.8370  -13.6460   21.2490 C   0  0  0  0  0  0  0  0  0  0  0  0
  -22.1200  -12.9100   22.0900 N   0  0  0  0  0  0  0  0  0  0  0  0
  -22.3900  -14.6870   20.7700 O   0  0  0  0  0  0  0  0  0  0  0  0
  -22.4970  -12.0690   22.5000 H   0  0  0  0  0  0  0  0  0  0  0  0
  -21.1810  -13.1940   22.3300 H   0  0  0  0  0  0  0  0  0  0  0  0
  -25.4350  -15.3600   20.4380 N   0  0  0  0  0  0  0  0  0  0  0  0
  -24.6630  -16.0040   20.5680 H   0  0  0  0  0  0  0  0  0  0  0  0
  -26.2630  -15.8060   20.0690 H   0  0  0  0  0  0  0  0  0  0  0  0
  -32.0900  -19.3500   21.6740 C   0  0  0  0  0  1  0  0  0  0  0  0
  -31.6270  -18.0090   21.0890 C   0  0  0  0  0  2  0  0  0  0  0  0
  1  2  1  0
  1  8  1  0
  1 53  1  0
  3  2  1  0
  4  6  1  0
  4  3  1  0
  5  3  2  0
  7  4  1  0
  9  8  1  0
 10  9  1  0
 10 11  1  0
 12 14  1  0
 12 11  1  0
 13 24  2  0
 14 19  1  0
 15 23  1  0
 15 25  1  0
 16 22  1  0
 16 18  1  0
 17 23  1  0
 18 19  2  0
 18 17  1  0
 20 14  2  0
 21 20  1  0
 21 16  2  0
 22 15  1  0
 23 13  1  0
 25 27  2  0
 26 25  1  0
 28 26  1  0
 29 38  2  0
 29 34  1  0
 30 26  1  0
 30 34  1  0
 31 30  1  0
 32 33  1  0
 32 31  1  0
 33 29  1  0
 34 35  2  0
 35 36  1  0
 37 36  2  0
 38 37  1  0
 39 13  1  0
 39 40  1  0
 39 49  1  0
 40 43  1  0
 41 45  1  0
 41 40  1  0
 42 41  2  0
 45 44  1  0
 47 48  1  0
 47 45  1  0
 47 46  1  0
 49 52  1  1
 49 50  1  0
 51 49  1  0
 53 93  1  0
 54 62  1  0
 55 60  1  0
 56 57  1  0
 56 55  1  0
 58 57  1  0
 58 67  1  0
 58 59  1  0
 60 54  1  0
 60 59  1  0
 61 54  2  0
 62 63  1  0
 62 53  1  0
 64 65  2  0
 65 84  1  0
 66 65  1  0
 66 69  1  0
 67 68  1  0
 67 64  1  0
 68 66  2  0
 69 70  1  0
 70 71  2  0
 72 75  1  0
 72 71  1  0
 73 72  2  0
 74 73  1  0
 74 69  2  0
 75 76  1  0
 76 77  1  0
 77 78  2  0
 79 78  1  0
 79 83  1  0
 80 79  2  0
 81 76  2  0
 81 80  1  0
 82 81  1  0
 84 85  1  0
 85 88  1  0
 85 87  1  0
 86 84  2  0
 89 90  1  0
 89 64  1  0
 91 89  1  0
 93 92  1  0
M  ISO  4  11 101  12 101  54 100  62 100
M  END
>  <TORSDO>  (96) 
F 24

>  <SCORE>  (96) 
-13.924

>  <name>  (96) 
96

>  <ligand_id>  (96) 
96

>  <original_smiles>  (96) 
[H]c1c([H])c([H])c2c(c1[H])C([H])([H])C([H])([H])C([H])([H])C2([H])N([H])C(=O)C1([H])N(C(=O)C([H])(N([H])C(=O)C([H])(N([H])C([H])([H])[H])C([H])([H])[H])C(C([H])([H])[H])(C([H])([H])[H])C([H])([H])[H])C([H])([H])c2c([H])c(OC([H])([H])C([H])([H])C([H])([H])C([H])([H])C([H])(C([H])([H])C(=O)N([H])[H])C([H])(N([H])C(=O)N3C([H])([H])C([H])([H])C([H])([H])C([H])(n4nc(-c5c([H])c([H])c(Oc6c([H])c([H])c(F)c([H])c6F)c([H])c5[H])c(C(=O)N([H])[H])c4N([H])[H])C3([H])[H])C([H])([H])C([H])([H])[H])c([H])c([H])c2C1([H])[H]

>  <smiles>  (96) 
[H]c1c([H])c([H])c2c(c1[H])C([H])([H])C([H])([H])C([H])([H])C2([H])N([H])C(=O)C1([H])N(C(=O)C([H])(N([H])C(=O)C([H])(N([H])C([H])([H])[H])C([H])([H])[H])C(C([H])([H])[H])(C([H])([H])[H])C([H])([H])[H])C([H])([H])c2c([H])c(OC([H])([H])C([H])([H])C([H])([H])C([H])([H])C([H])(C([H])([H])C(=O)N([H])[H])C([H])(N([H])C(=O)N3C([H])([H])C([H])([H])C([H])([H])C([H])(n4nc(-c5c([H])c([H])c(Oc6c([H])c([H])c(F)c([H])c6F)c([H])c5[H])c(C(=O)N([H])[H])c4N([H])[H])C3([H])[H])C([H])([H])C([H])([H])[H])c([H])c([H])c2C1([H])[H]

$$$$
97:0:0
     RDKit          3D

 95103  0  0  1  0  0  0  0  0999 V2000
  -30.2250  -17.6100   19.6560 C   0  0  0  0  0  2  0  0  0  0  0  0
  -31.1800  -17.5340   22.1060 C   0  0  0  0  0  2  0  0  0  0  0  0
  -31.3050  -18.6820   19.3760 C   0  0  0  0  0  2  0  0  0  0  0  0
  -31.6270  -19.9970   21.4430 C   0  0  0  0  0  2  0  0  0  0  0  0
  -30.9090  -19.0310   22.4220 C   0  0  0  0  0  3  0  0  0  0  0  0
  -30.1900  -16.9680   21.0720 C   0  0  0  0  0  3  0  0  0  0  0  0
  -31.0880  -20.0010   20.0520 N   0  0  1  0  0  4  0  0  0  0  0  0
  -30.0930  -20.1610   20.0940 H   0  0  0  0  0  0  0  0  0  0  0  0
  -30.8950  -14.5230   20.6220 C   0  0  0  0  0  0  0  0  0  0  0  0
  -30.6680  -12.3450   19.4800 C   0  0  0  0  0  2  0  0  0  0  0  0
  -29.7690  -12.5440   18.2420 C   0  0  0  0  0  2  0  0  0  0  0  0
  -28.2740  -12.4290   18.6130 C   0  0  0  0  0  2  0  0  0  0  0  0
  -27.9000  -13.2820   19.8540 C   0  0  0  0  0  3  0  0  0  0  0  0
  -28.9060  -13.0270   21.0010 C   0  0  0  0  0  2  0  0  0  0  0  0
  -30.2580  -13.3280   20.4920 N   0  0  0  0  0  0  0  0  0  0  0  0
  -32.0280  -14.7430   20.1890 O   0  0  0  0  0  0  0  0  0  0  0  0
  -30.0950  -15.4980   21.0970 N   0  0  0  0  0  0  0  0  0  0  0  0
  -29.2100  -15.1480   21.4320 H   0  0  0  0  0  0  0  0  0  0  0  0
  -25.4830  -13.9490   20.4440 C   0  0  0  0  0  0  0  0  0  0  0  0
  -24.3870  -13.2030   20.7870 C   0  0  0  0  0  0  0  0  0  0  0  0
  -24.8270  -11.8440   20.8080 C   0  0  0  0  0  0  0  0  0  0  0  0
  -26.5220  -13.0450   20.2780 N   0  0  0  0  0  0  0  0  0  0  0  0
  -26.1260  -11.7760   20.5520 N   0  0  0  0  0  0  0  0  0  0  0  0
  -24.0740  -10.5990   20.9990 C   0  0  0  0  0  0  0  0  0  0  0  0
  -24.4610   -9.6430   21.9650 C   0  0  0  0  0  3  0  0  0  0  0  0
  -23.7120   -8.4610   22.1400 C   0  0  0  0  0  3  0  0  0  0  0  0
  -22.5620   -8.2250   21.3500 C   0  0  0  0  0  0  0  0  0  0  0  0
  -22.1940   -9.1680   20.3740 C   0  0  0  0  0  3  0  0  0  0  0  0
  -22.9440  -10.3430   20.1980 C   0  0  0  0  0  3  0  0  0  0  0  0
  -21.7850   -7.0940   21.4370 O   0  0  0  0  0  0  0  0  0  0  0  0
  -21.6890   -6.3740   22.6000 C   0  0  0  0  0  0  0  0  0  0  0  0
  -21.2380   -6.9590   23.8040 C   0  0  0  0  0  3  0  0  0  0  0  0
  -21.0870   -6.1650   24.9590 C   0  0  0  0  0  3  0  0  0  0  0  0
  -21.3760   -4.7880   24.9120 C   0  0  0  0  0  0  0  0  0  0  0  0
  -21.8190   -4.2030   23.7120 C   0  0  0  0  0  3  0  0  0  0  0  0
  -21.9730   -4.9930   22.5590 C   0  0  0  0  0  0  0  0  0  0  0  0
  -22.3790   -4.4200   21.4020 F   0  0  0  0  0  0  0  0  0  0  0  0
  -21.2230   -4.0240   26.0180 F   0  0  0  0  0  0  0  0  0  0  0  0
  -22.9860  -13.7080   20.9880 C   0  0  0  0  0  0  0  0  0  0  0  0
  -22.2120  -13.0520   21.8470 N   0  0  0  0  0  0  0  0  0  0  0  0
  -22.5840  -14.7210   20.4180 O   0  0  0  0  0  0  0  0  0  0  0  0
  -22.5460  -12.2360   22.3370 H   0  0  0  0  0  0  0  0  0  0  0  0
  -21.2700  -13.3740   22.0170 H   0  0  0  0  0  0  0  0  0  0  0  0
  -25.6750  -15.3110   20.2400 N   0  0  0  0  0  0  0  0  0  0  0  0
  -24.9120  -15.9770   20.2990 H   0  0  0  0  0  0  0  0  0  0  0  0
  -26.5410  -15.7280   19.9170 H   0  0  0  0  0  0  0  0  0  0  0  0
  -30.6990  -20.6710   24.4210 C   0  0  0  0  0  1  0  0  0  0  0  0
  -31.2890  -19.3530   23.8880 C   0  0  0  0  0  2  0  0  0  0  0  0
  -31.6530  -21.1150   19.2190 C   0  0  0  0  0  2  0  0  0  0  0  0
  -31.2890  -22.5880   19.6010 C   0  0  0  0  0  2  0  0  0  0  0  0
  -29.5120  -22.9310   17.7780 C   0  0  0  0  0  1  0  0  0  0  0  0
  -29.8720  -23.1400   19.2630 C   0  0  0  0  0  3  0  0  0  0  0  0
  -29.7850  -24.6490   19.6560 C   0  0  0  0  0  2  0  0  0  0  0  0
  -28.3960  -25.3130   19.5080 C   0  0  0  0  0  2  0  0  0  0  0  0
  -28.4070  -26.6690   19.9810 O   0  0  0  0  0  0  0  0  0  0  0  0
  -24.5560  -31.7630   23.1460 C   0  0  0  0  0  0  0  0  0  0  0  0
  -27.2150  -27.3730   19.9850 C   0  0  0  0  0  0  0  0  0  0  0  0
  -23.3530  -30.3860   21.4830 C   0  0  0  0  0  3  0  0  0  0  0  0
  -24.8090  -28.8740   20.0330 C   0  0  0  0  0  0  0  0  0  0  0  0
  -25.8800  -30.7490   21.2910 C   0  0  0  0  0  2  0  0  0  0  0  0
  -25.9670  -29.3900   20.6280 C   0  0  0  0  0  0  0  0  0  0  0  0
  -27.1690  -28.6450   20.6040 C   0  0  0  0  0  3  0  0  0  0  0  0
  -26.0300  -26.8720   19.3920 C   0  0  0  0  0  3  0  0  0  0  0  0
  -24.8340  -27.6130   19.4170 C   0  0  0  0  0  3  0  0  0  0  0  0
  -23.5630  -29.7290   20.0920 C   0  0  0  0  0  2  0  0  0  0  0  0
  -24.6160  -30.9790   22.0320 N   0  0  0  0  0  0  0  0  0  0  0  0
  -23.4740  -32.0230   23.6910 O   0  0  0  0  0  0  0  0  0  0  0  0
  -22.7050  -29.3460   22.4250 C   0  0  0  0  0  0  0  0  0  0  0  0
  -21.3800  -29.1640   22.2960 N   0  0  0  0  0  0  0  0  0  0  0  0
  -23.3890  -28.7080   23.2290 O   0  0  0  0  0  0  0  0  0  0  0  0
  -20.8890  -29.7330   21.6200 H   0  0  0  0  0  0  0  0  0  0  0  0
  -18.0090  -27.9500   22.7640 C   0  0  0  0  0  0  0  0  0  0  0  0
  -20.5650  -28.2130   23.0500 C   0  0  0  0  0  3  0  0  0  0  0  0
  -20.6760  -26.7900   22.4560 C   0  0  0  0  0  2  0  0  0  0  0  0
  -19.5780  -26.4770   21.4330 C   0  0  0  0  0  2  0  0  0  0  0  0
  -18.1940  -26.6100   22.0730 C   0  0  0  0  0  2  0  0  0  0  0  0
  -19.1240  -28.7100   23.2090 C   0  0  0  0  0  0  0  0  0  0  0  0
  -18.8990  -29.9660   23.8140 C   0  0  0  0  0  3  0  0  0  0  0  0
  -17.5930  -30.4620   23.9800 C   0  0  0  0  0  3  0  0  0  0  0  0
  -16.4920  -29.7000   23.5520 C   0  0  0  0  0  3  0  0  0  0  0  0
  -16.7010  -28.4460   22.9490 C   0  0  0  0  0  3  0  0  0  0  0  0
  -25.8420  -32.3860   23.7750 C   0  0  0  0  0  3  0  0  0  0  0  0
  -25.5260  -33.7740   24.1390 N   0  0  0  0  0  0  0  0  0  0  0  0
  -25.8430  -34.8450   23.4000 C   0  0  0  0  0  0  0  0  0  0  0  0
  -26.5030  -34.7690   22.3600 O   0  0  0  0  0  0  0  0  0  0  0  0
  -24.9390  -33.9060   24.9500 H   0  0  0  0  0  0  0  0  0  0  0  0
  -24.0910  -36.6250   23.1050 C   0  0  0  0  0  1  0  0  0  0  0  0
  -25.3490  -36.2180   23.8910 C   0  0  0  0  0  3  0  0  0  0  0  0
  -27.4860  -37.1080   24.7090 C   0  0  0  0  0  1  0  0  0  0  0  0
  -26.3700  -37.2840   23.7850 N   0  0  0  0  0  0  0  0  0  0  0  0
  -25.9560  -38.1970   23.9570 H   0  0  0  0  0  0  0  0  0  0  0  0
  -26.3710  -31.5860   25.0280 C   0  0  1  0  0  0  0  0  0  0  0  0
  -25.2860  -31.3200   26.0970 C   0  0  0  0  0  1  0  0  0  0  0  0
  -26.9570  -30.2220   24.5970 C   0  0  0  0  0  1  0  0  0  0  0  0
  -27.5220  -32.3700   25.7020 C   0  0  0  0  0  1  0  0  0  0  0  0
  1  6  1  0
  2  5  1  0
  3  1  1  0
  3  7  1  0
  4  5  1  0
  5 48  1  0
  6 17  1  0
  6  2  1  0
  7  8  1  1
  7  4  1  0
  9 17  1  0
 10 15  1  0
 11 12  1  0
 11 10  1  0
 13 12  1  0
 13 22  1  0
 13 14  1  0
 15  9  1  0
 15 14  1  0
 16  9  2  0
 17 18  1  0
 19 20  2  0
 20 21  1  0
 20 39  1  0
 21 24  1  0
 22 19  1  0
 22 23  1  0
 23 21  2  0
 24 25  1  0
 25 26  2  0
 27 30  1  0
 27 26  1  0
 28 27  2  0
 29 28  1  0
 29 24  2  0
 30 31  1  0
 31 32  1  0
 32 33  2  0
 34 33  1  0
 34 38  1  0
 35 34  2  0
 36 31  2  0
 36 35  1  0
 37 36  1  0
 39 40  1  0
 40 43  1  0
 40 42  1  0
 41 39  2  0
 44 45  1  0
 44 19  1  0
 46 44  1  0
 48 47  1  0
 49 50  1  0
 49  7  1  0
 52 51  1  0
 52 50  1  0
 52 53  1  0
 54 53  1  0
 54 55  1  0
 55 57  1  0
 56 67  2  0
 57 62  1  0
 58 66  1  0
 58 68  1  0
 59 65  1  0
 59 61  1  0
 60 66  1  0
 61 60  1  0
 62 61  2  0
 63 64  1  0
 63 57  2  0
 64 59  2  0
 65 58  1  0
 66 56  1  0
 68 70  2  0
 69 68  1  0
 71 69  1  0
 72 81  2  0
 72 77  1  0
 73 69  1  0
 73 77  1  0
 74 73  1  0
 75 76  1  0
 75 74  1  0
 76 72  1  0
 77 78  2  0
 78 79  1  0
 80 79  2  0
 81 80  1  0
 82 56  1  0
 82 83  1  0
 82 92  1  0
 83 86  1  0
 84 88  1  0
 84 83  1  0
 85 84  2  0
 88 87  1  0
 90 88  1  0
 90 91  1  0
 90 89  1  0
 92 95  1  1
 92 93  1  0
 94 92  1  0
M  ISO  4   9 100  17 100  54 101  55 101
M  END
>  <TORSDO>  (97) 
F 22

>  <SCORE>  (97) 
-12.886

>  <name>  (97) 
97

>  <ligand_id>  (97) 
97

>  <original_smiles>  (97) 
[H]c1c([H])c([H])c2c(c1[H])C([H])([H])C([H])([H])C([H])([H])C2([H])N([H])C(=O)C1([H])N(C(=O)C([H])(N([H])C(=O)C([H])(N([H])C([H])([H])[H])C([H])([H])[H])C(C([H])([H])[H])(C([H])([H])[H])C([H])([H])[H])C([H])([H])c2c([H])c(OC([H])([H])C([H])([H])C([H])(C([H])([H])[H])C([H])([H])C([H])([H])[N+]3([H])C([H])([H])C([H])([H])C([H])(N([H])C(=O)N4C([H])([H])C([H])([H])C([H])([H])C([H])(n5nc(-c6c([H])c([H])c(Oc7c([H])c([H])c(F)c([H])c7F)c([H])c6[H])c(C(=O)N([H])[H])c5N([H])[H])C4([H])[H])C([H])([H])C([H])(C([H])([H])C([H])([H])[H])C3([H])[H])c([H])c([H])c2C1([H])[H]

>  <smiles>  (97) 
[H]c1c([H])c([H])c2c(c1[H])C([H])([H])C([H])([H])C([H])([H])C2([H])N([H])C(=O)C1([H])N(C(=O)C([H])(N([H])C(=O)C([H])(N([H])C([H])([H])[H])C([H])([H])[H])C(C([H])([H])[H])(C([H])([H])[H])C([H])([H])[H])C([H])([H])c2c([H])c(OC([H])([H])C([H])([H])C([H])(C([H])([H])[H])C([H])([H])C([H])([H])[N+]3([H])C([H])([H])C([H])([H])C([H])(N([H])C(=O)N4C([H])([H])C([H])([H])C([H])([H])C([H])(n5nc(-c6c([H])c([H])c(Oc7c([H])c([H])c(F)c([H])c7F)c([H])c6[H])c(C(=O)N([H])[H])c5N([H])[H])C4([H])[H])C([H])([H])C([H])(C([H])([H])C([H])([H])[H])C3([H])[H])c([H])c([H])c2C1([H])[H]

$$$$
98:0:0
     RDKit          3D

 91 99  0  0  1  0  0  0  0  0999 V2000
  -29.1810  -21.9330   20.0760 N   0  0  0  0  0  4  0  0  0  0  0  0
  -29.9940  -21.9660   20.6730 H   0  0  0  0  0  0  0  0  0  0  0  0
  -29.5360  -22.0890   19.1460 H   0  0  0  0  0  0  0  0  0  0  0  0
  -28.3130  -23.2200   20.4750 C   0  0  0  0  0  2  0  0  0  0  0  0
  -28.4550  -24.7510   19.7550 C   0  0  0  0  0  2  0  0  0  0  0  0
  -28.3050  -26.1970   20.3380 O   0  0  0  0  0  0  0  0  0  0  0  0
  -24.6220  -31.8660   23.2150 C   0  0  0  0  0  0  0  0  0  0  0  0
  -27.2200  -27.1400   20.2100 C   0  0  0  0  0  0  0  0  0  0  0  0
  -23.4270  -30.4530   21.5830 C   0  0  0  0  0  3  0  0  0  0  0  0
  -24.8810  -28.8720   20.1640 C   0  0  0  0  0  0  0  0  0  0  0  0
  -25.9780  -30.7290   21.4160 C   0  0  0  0  0  2  0  0  0  0  0  0
  -26.0550  -29.3310   20.7710 C   0  0  0  0  0  0  0  0  0  0  0  0
  -27.2200  -28.4780   20.7810 C   0  0  0  0  0  3  0  0  0  0  0  0
  -26.0210  -26.7790   19.5590 C   0  0  0  0  0  3  0  0  0  0  0  0
  -24.8760  -27.6110   19.5430 C   0  0  0  0  0  3  0  0  0  0  0  0
  -23.6490  -29.7630   20.2090 C   0  0  0  0  0  2  0  0  0  0  0  0
  -24.6950  -31.0390   22.1280 N   0  0  0  0  0  0  0  0  0  0  0  0
  -23.5350  -32.1490   23.7420 O   0  0  0  0  0  0  0  0  0  0  0  0
  -22.7530  -29.4520   22.5540 C   0  0  0  0  0  0  0  0  0  0  0  0
  -21.4240  -29.2810   22.4320 N   0  0  0  0  0  0  0  0  0  0  0  0
  -23.4280  -28.8310   23.3780 O   0  0  0  0  0  0  0  0  0  0  0  0
  -20.9360  -29.8350   21.7420 H   0  0  0  0  0  0  0  0  0  0  0  0
  -18.0470  -28.0780   22.9420 C   0  0  0  0  0  0  0  0  0  0  0  0
  -20.6040  -28.3470   23.2080 C   0  0  0  0  0  3  0  0  0  0  0  0
  -20.7090  -26.9120   22.6410 C   0  0  0  0  0  2  0  0  0  0  0  0
  -19.6080  -26.5810   21.6280 C   0  0  0  0  0  2  0  0  0  0  0  0
  -18.2260  -26.7260   22.2710 C   0  0  0  0  0  2  0  0  0  0  0  0
  -19.1630  -28.8460   23.3660 C   0  0  0  0  0  0  0  0  0  0  0  0
  -18.9400  -30.1100   23.9540 C   0  0  0  0  0  3  0  0  0  0  0  0
  -17.6330  -30.6070   24.1200 C   0  0  0  0  0  3  0  0  0  0  0  0
  -16.5310  -29.8360   23.7110 C   0  0  0  0  0  3  0  0  0  0  0  0
  -16.7380  -28.5730   23.1280 C   0  0  0  0  0  3  0  0  0  0  0  0
  -25.8980  -32.5090   23.8400 C   0  0  0  0  0  3  0  0  0  0  0  0
  -26.4100  -31.7500   25.1260 C   0  0  1  0  0  0  0  0  0  0  0  0
  -25.3120  -31.5230   26.1930 C   0  0  0  0  0  1  0  0  0  0  0  0
  -26.9960  -30.3690   24.7540 C   0  0  0  0  0  1  0  0  0  0  0  0
  -27.5570  -32.5500   25.7860 C   0  0  0  0  0  1  0  0  0  0  0  0
  -25.5830  -33.9100   24.1670 N   0  0  0  0  0  0  0  0  0  0  0  0
  -25.9130  -34.9640   23.4090 C   0  0  0  0  0  0  0  0  0  0  0  0
  -26.5820  -34.8600   22.3790 O   0  0  0  0  0  0  0  0  0  0  0  0
  -24.9900  -34.0630   24.9700 H   0  0  0  0  0  0  0  0  0  0  0  0
  -24.1800  -36.7550   23.0620 C   0  0  0  0  0  1  0  0  0  0  0  0
  -25.4260  -36.3540   23.8680 C   0  0  0  0  0  3  0  0  0  0  0  0
  -27.5640  -37.2460   24.6850 C   0  0  0  0  0  1  0  0  0  0  0  0
  -26.4570  -37.4080   23.7460 N   0  0  0  0  0  0  0  0  0  0  0  0
  -26.0510  -38.3290   23.8930 H   0  0  0  0  0  0  0  0  0  0  0  0
  -28.6630  -20.4230   20.1000 C   0  0  0  0  0  3  0  0  0  0  0  0
  -30.6110  -14.9750   19.9580 C   0  0  0  0  0  0  0  0  0  0  0  0
  -30.4000  -12.6440   18.9670 C   0  0  0  0  0  2  0  0  0  0  0  0
  -29.4070  -12.6370   17.7830 C   0  0  0  0  0  2  0  0  0  0  0  0
  -27.9730  -12.4140   18.2940 C   0  0  0  0  0  2  0  0  0  0  0  0
  -27.6370  -13.3160   19.5110 C   0  0  0  0  0  3  0  0  0  0  0  0
  -28.7490  -13.3050   20.5810 C   0  0  0  0  0  2  0  0  0  0  0  0
  -29.9890  -13.7250   19.9160 N   0  0  0  0  0  0  0  0  0  0  0  0
  -31.7460  -15.0390   19.4670 O   0  0  0  0  0  0  0  0  0  0  0  0
  -31.1140  -17.8110   22.0150 C   0  0  0  0  0  2  0  0  0  0  0  0
  -30.2220  -19.0300   21.7100 C   0  0  0  0  0  2  0  0  0  0  0  0
  -30.3530  -16.4720   21.8870 C   0  0  0  0  0  2  0  0  0  0  0  0
  -29.3380  -17.4500   19.8620 C   0  0  0  0  0  2  0  0  0  0  0  0
  -29.7000  -19.0630   20.2620 C   0  0  0  0  0  3  0  0  0  0  0  0
  -29.9970  -16.1550   20.4960 N   0  0  0  0  0  0  0  0  0  0  0  0
  -25.2960  -13.8760   20.3840 C   0  0  0  0  0  0  0  0  0  0  0  0
  -24.2550  -13.0930   20.7960 C   0  0  0  0  0  0  0  0  0  0  0  0
  -24.7190  -11.7440   20.7190 C   0  0  0  0  0  0  0  0  0  0  0  0
  -26.3270  -13.0060   20.0750 N   0  0  0  0  0  0  0  0  0  0  0  0
  -25.9930  -11.7160   20.3420 N   0  0  0  0  0  0  0  0  0  0  0  0
  -24.0050  -10.4770   20.9280 C   0  0  0  0  0  0  0  0  0  0  0  0
  -24.4530   -9.5180   21.8630 C   0  0  0  0  0  3  0  0  0  0  0  0
  -23.7350   -8.3200   22.0610 C   0  0  0  0  0  3  0  0  0  0  0  0
  -22.5530   -8.0700   21.3240 C   0  0  0  0  0  0  0  0  0  0  0  0
  -22.1230   -9.0180   20.3780 C   0  0  0  0  0  3  0  0  0  0  0  0
  -22.8440  -10.2080   20.1770 C   0  0  0  0  0  3  0  0  0  0  0  0
  -21.8050   -6.9230   21.4300 O   0  0  0  0  0  0  0  0  0  0  0  0
  -21.7320   -6.2160   22.6040 C   0  0  0  0  0  0  0  0  0  0  0  0
  -21.2740   -6.8060   23.8010 C   0  0  0  0  0  3  0  0  0  0  0  0
  -21.1480   -6.0250   24.9670 C   0  0  0  0  0  3  0  0  0  0  0  0
  -21.4720   -4.6550   24.9380 C   0  0  0  0  0  0  0  0  0  0  0  0
  -21.9270   -4.0660   23.7440 C   0  0  0  0  0  3  0  0  0  0  0  0
  -22.0530   -4.8440   22.5800 C   0  0  0  0  0  0  0  0  0  0  0  0
  -22.4690   -4.2650   21.4280 F   0  0  0  0  0  0  0  0  0  0  0  0
  -21.3460   -3.9040   26.0560 F   0  0  0  0  0  0  0  0  0  0  0  0
  -22.8730  -13.5650   21.1450 C   0  0  0  0  0  0  0  0  0  0  0  0
  -22.1940  -12.8630   22.0450 N   0  0  0  0  0  0  0  0  0  0  0  0
  -22.4070  -14.5930   20.6570 O   0  0  0  0  0  0  0  0  0  0  0  0
  -22.5860  -12.0340   22.4650 H   0  0  0  0  0  0  0  0  0  0  0  0
  -21.2680  -13.1640   22.3180 H   0  0  0  0  0  0  0  0  0  0  0  0
  -25.4470  -15.2500   20.2210 N   0  0  0  0  0  0  0  0  0  0  0  0
  -24.6910  -15.9020   20.4030 H   0  0  0  0  0  0  0  0  0  0  0  0
  -26.2830  -15.6990   19.8710 H   0  0  0  0  0  0  0  0  0  0  0  0
  -26.5640  -19.2290   19.0830 C   0  0  0  0  0  1  0  0  0  0  0  0
  -27.7040  -20.2470   18.8950 C   0  0  0  0  0  2  0  0  0  0  0  0
  1 47  1  0
  1  4  1  0
  1  2  1  0
  3  1  1  0
  5  6  1  0
  5  4  1  0
  7 18  2  0
  8  6  1  0
  8 13  1  0
  9 17  1  0
  9 19  1  0
 10 16  1  0
 10 12  1  0
 11 17  1  0
 12 13  2  0
 12 11  1  0
 14  8  2  0
 15 14  1  0
 15 10  2  0
 16  9  1  0
 17  7  1  0
 19 21  2  0
 20 19  1  0
 22 20  1  0
 23 32  2  0
 23 28  1  0
 24 20  1  0
 24 28  1  0
 25 24  1  0
 26 27  1  0
 26 25  1  0
 27 23  1  0
 28 29  2  0
 29 30  1  0
 31 30  2  0
 32 31  1  0
 33  7  1  0
 33 38  1  0
 33 34  1  0
 34 37  1  1
 34 35  1  0
 36 34  1  0
 38 41  1  0
 39 43  1  0
 39 38  1  0
 40 39  2  0
 43 42  1  0
 45 43  1  0
 45 46  1  0
 45 44  1  0
 47 91  1  0
 48 61  1  0
 49 54  1  0
 50 51  1  0
 50 49  1  0
 52 51  1  0
 52 65  1  0
 52 53  1  0
 54 48  1  0
 54 53  1  0
 55 48  2  0
 57 56  1  0
 58 56  1  0
 59 60  1  0
 59 61  1  0
 60 47  1  0
 60 57  1  0
 61 58  1  0
 62 63  2  0
 63 82  1  0
 64 63  1  0
 64 67  1  0
 65 66  1  0
 65 62  1  0
 66 64  2  0
 67 68  1  0
 68 69  2  0
 70 73  1  0
 70 69  1  0
 71 70  2  0
 72 71  1  0
 72 67  2  0
 73 74  1  0
 74 75  1  0
 75 76  2  0
 77 76  1  0
 77 81  1  0
 78 77  2  0
 79 74  2  0
 79 78  1  0
 80 79  1  0
 82 83  1  0
 83 86  1  0
 83 85  1  0
 84 82  2  0
 87 62  1  0
 87 88  1  0
 89 87  1  0
 91 90  1  0
M  ISO  4   5 101   6 101  48 100  61 100
M  END
>  <TORSDO>  (98) 
F 20

>  <SCORE>  (98) 
-14.646

>  <name>  (98) 
98

>  <ligand_id>  (98) 
98

>  <original_smiles>  (98) 
[H]c1c([H])c([H])c2c(c1[H])C([H])([H])C([H])([H])C([H])([H])C2([H])N([H])C(=O)C1([H])N(C(=O)C([H])(N([H])C(=O)C([H])(N([H])C([H])([H])[H])C([H])([H])[H])C(C([H])([H])[H])(C([H])([H])[H])C([H])([H])[H])C([H])([H])c2c([H])c(OC([H])([H])C([H])([H])[N+]([H])([H])C([H])(C([H])([H])C([H])([H])[H])C3([H])C([H])([H])N(C(=O)N4C([H])([H])C([H])([H])C([H])([H])C([H])(n5nc(-c6c([H])c([H])c(Oc7c([H])c([H])c(F)c([H])c7F)c([H])c6[H])c(C(=O)N([H])[H])c5N([H])[H])C4([H])[H])C([H])([H])C([H])([H])C3([H])[H])c([H])c([H])c2C1([H])[H]

>  <smiles>  (98) 
[H]c1c([H])c([H])c2c(c1[H])C([H])([H])C([H])([H])C([H])([H])C2([H])N([H])C(=O)C1([H])N(C(=O)C([H])(N([H])C(=O)C([H])(N([H])C([H])([H])[H])C([H])([H])[H])C(C([H])([H])[H])(C([H])([H])[H])C([H])([H])[H])C([H])([H])c2c([H])c(OC([H])([H])C([H])([H])[N+]([H])([H])C([H])(C([H])([H])C([H])([H])[H])C3([H])C([H])([H])N(C(=O)N4C([H])([H])C([H])([H])C([H])([H])C([H])(n5nc(-c6c([H])c([H])c(Oc7c([H])c([H])c(F)c([H])c7F)c([H])c6[H])c(C(=O)N([H])[H])c5N([H])[H])C4([H])[H])C([H])([H])C([H])([H])C3([H])[H])c([H])c([H])c2C1([H])[H]

$$$$
99:0:0
     RDKit          3D

 99107  0  0  1  0  0  0  0  0999 V2000
  -28.4290  -20.3650   21.1360 C   0  0  0  0  0  2  0  0  0  0  0  0
  -28.4170  -22.0040   21.2400 C   0  0  0  0  0  2  0  0  0  0  0  0
  -29.5260  -19.6250   20.2350 C   0  0  0  0  0  3  0  0  0  0  0  0
  -28.2410  -22.8900   19.9210 C   0  0  0  0  0  3  0  0  0  0  0  0
  -29.3950  -20.4810   18.8730 C   0  0  0  0  0  3  0  0  0  0  0  0
  -29.3000  -22.1570   18.9380 C   0  0  0  0  0  3  0  0  0  0  0  0
  -29.1120  -22.6970   17.5770 N   0  0  0  0  0  4  0  0  0  0  0  0
  -28.2110  -22.4460   17.2080 H   0  0  0  0  0  0  0  0  0  0  0  0
  -29.8120  -22.3550   16.9450 H   0  0  0  0  0  0  0  0  0  0  0  0
  -29.1840  -23.7000   17.5820 H   0  0  0  0  0  0  0  0  0  0  0  0
  -30.4730  -19.9870   17.8670 C   0  0  0  0  0  2  0  0  0  0  0  0
  -31.9430  -20.3310   18.2170 C   0  0  0  0  0  2  0  0  0  0  0  0
  -32.9010  -19.7210   17.2770 N   0  0  0  0  0  4  0  0  0  0  0  0
  -32.8210  -18.7200   17.2730 H   0  0  0  0  0  0  0  0  0  0  0  0
  -33.8400  -19.9510   17.5530 H   0  0  0  0  0  0  0  0  0  0  0  0
  -32.7670  -20.0580   16.3410 H   0  0  0  0  0  0  0  0  0  0  0  0
  -27.6360  -24.5520   19.8550 C   0  0  0  0  0  2  0  0  0  0  0  0
  -28.0090  -26.0860   20.1120 O   0  0  0  0  0  0  0  0  0  0  0  0
  -24.5450  -31.9370   23.2050 C   0  0  0  0  0  0  0  0  0  0  0  0
  -26.9980  -27.1540   20.0720 C   0  0  0  0  0  0  0  0  0  0  0  0
  -23.2950  -30.5600   21.5940 C   0  0  0  0  0  3  0  0  0  0  0  0
  -24.6940  -28.9820   20.1140 C   0  0  0  0  0  0  0  0  0  0  0  0
  -25.8520  -30.7890   21.3650 C   0  0  0  0  0  2  0  0  0  0  0  0
  -25.8990  -29.3940   20.6980 C   0  0  0  0  0  0  0  0  0  0  0  0
  -27.0480  -28.4990   20.6580 C   0  0  0  0  0  3  0  0  0  0  0  0
  -25.7630  -26.8790   19.4380 C   0  0  0  0  0  3  0  0  0  0  0  0
  -24.6450  -27.7420   19.4650 C   0  0  0  0  0  3  0  0  0  0  0  0
  -23.4770  -29.8940   20.2050 C   0  0  0  0  0  2  0  0  0  0  0  0
  -24.5870  -31.1190   22.1090 N   0  0  0  0  0  0  0  0  0  0  0  0
  -23.4740  -32.2250   23.7630 O   0  0  0  0  0  0  0  0  0  0  0  0
  -22.6330  -29.5510   22.5690 C   0  0  0  0  0  0  0  0  0  0  0  0
  -21.3060  -29.3580   22.4530 N   0  0  0  0  0  0  0  0  0  0  0  0
  -23.3190  -28.9450   23.3960 O   0  0  0  0  0  0  0  0  0  0  0  0
  -20.8080  -29.9000   21.7610 H   0  0  0  0  0  0  0  0  0  0  0  0
  -17.9560  -28.0740   22.9710 C   0  0  0  0  0  0  0  0  0  0  0  0
  -20.5070  -28.4130   23.2380 C   0  0  0  0  0  3  0  0  0  0  0  0
  -20.6480  -26.9740   22.6890 C   0  0  0  0  0  2  0  0  0  0  0  0
  -19.5580  -26.6030   21.6770 C   0  0  0  0  0  2  0  0  0  0  0  0
  -18.1710  -26.7200   22.3150 C   0  0  0  0  0  2  0  0  0  0  0  0
  -19.0520  -28.8750   23.3890 C   0  0  0  0  0  0  0  0  0  0  0  0
  -18.7940  -30.1380   23.9640 C   0  0  0  0  0  3  0  0  0  0  0  0
  -17.4750  -30.6020   24.1230 C   0  0  0  0  0  3  0  0  0  0  0  0
  -16.3940  -29.8010   23.7180 C   0  0  0  0  0  3  0  0  0  0  0  0
  -16.6350  -28.5380   23.1480 C   0  0  0  0  0  3  0  0  0  0  0  0
  -25.8410  -32.5670   23.8020 C   0  0  0  0  0  3  0  0  0  0  0  0
  -26.3810  -31.7900   25.0650 C   0  0  1  0  0  0  0  0  0  0  0  0
  -25.3080  -31.5450   26.1520 C   0  0  0  0  0  1  0  0  0  0  0  0
  -26.9600  -30.4160   24.6620 C   0  0  0  0  0  1  0  0  0  0  0  0
  -27.5430  -32.5840   25.7080 C   0  0  0  0  0  1  0  0  0  0  0  0
  -25.5400  -33.9650   24.1540 N   0  0  0  0  0  0  0  0  0  0  0  0
  -25.8250  -35.0260   23.3870 C   0  0  0  0  0  0  0  0  0  0  0  0
  -26.4330  -34.9310   22.3170 O   0  0  0  0  0  0  0  0  0  0  0  0
  -24.9900  -34.1110   24.9880 H   0  0  0  0  0  0  0  0  0  0  0  0
  -24.0620  -36.8120   23.1710 C   0  0  0  0  0  1  0  0  0  0  0  0
  -25.3650  -36.4130   23.8830 C   0  0  0  0  0  3  0  0  0  0  0  0
  -27.5440  -37.3220   24.5580 C   0  0  0  0  0  1  0  0  0  0  0  0
  -26.3780  -37.4740   23.6920 N   0  0  0  0  0  0  0  0  0  0  0  0
  -25.9760  -38.3910   23.8620 H   0  0  0  0  0  0  0  0  0  0  0  0
  -30.1290  -17.9720   20.4810 C   0  0  0  0  0  0  0  0  0  0  0  0
  -30.3900  -15.2280   19.8820 C   0  0  0  0  0  0  0  0  0  0  0  0
  -30.2510  -12.8450   18.9460 C   0  0  0  0  0  2  0  0  0  0  0  0
  -29.2370  -12.7110   17.7870 C   0  0  0  0  0  2  0  0  0  0  0  0
  -27.8210  -12.4520   18.3320 C   0  0  0  0  0  2  0  0  0  0  0  0
  -27.4660  -13.3890   19.5150 C   0  0  0  0  0  3  0  0  0  0  0  0
  -28.5980  -13.4860   20.5590 C   0  0  0  0  0  2  0  0  0  0  0  0
  -29.7910  -13.9560   19.8410 N   0  0  0  0  0  0  0  0  0  0  0  0
  -31.5850  -15.2500   19.5670 O   0  0  0  0  0  0  0  0  0  0  0  0
  -29.6620  -16.4670   20.1040 N   0  0  0  0  0  4  0  0  0  0  0  0
  -28.6680  -16.3220   20.1990 H   0  0  0  0  0  0  0  0  0  0  0  0
  -25.1620  -13.9200   20.4800 C   0  0  0  0  0  0  0  0  0  0  0  0
  -24.1310  -13.1260   20.9000 C   0  0  0  0  0  0  0  0  0  0  0  0
  -24.5920  -11.7790   20.7730 C   0  0  0  0  0  0  0  0  0  0  0  0
  -26.1800  -13.0570   20.1150 N   0  0  0  0  0  0  0  0  0  0  0  0
  -25.8550  -11.7610   20.3580 N   0  0  0  0  0  0  0  0  0  0  0  0
  -23.8810  -10.5080   20.9630 C   0  0  0  0  0  0  0  0  0  0  0  0
  -24.3310   -9.5380   21.8850 C   0  0  0  0  0  3  0  0  0  0  0  0
  -23.6170   -8.3350   22.0660 C   0  0  0  0  0  3  0  0  0  0  0  0
  -22.4360   -8.0910   21.3240 C   0  0  0  0  0  0  0  0  0  0  0  0
  -22.0050   -9.0500   20.3900 C   0  0  0  0  0  3  0  0  0  0  0  0
  -22.7200  -10.2450   20.2080 C   0  0  0  0  0  3  0  0  0  0  0  0
  -21.6910   -6.9410   21.4140 O   0  0  0  0  0  0  0  0  0  0  0  0
  -21.6070   -6.2280   22.5840 C   0  0  0  0  0  0  0  0  0  0  0  0
  -21.0900   -6.7970   23.7670 C   0  0  0  0  0  3  0  0  0  0  0  0
  -20.9560   -6.0090   24.9270 C   0  0  0  0  0  3  0  0  0  0  0  0
  -21.3290   -4.6520   24.9040 C   0  0  0  0  0  0  0  0  0  0  0  0
  -21.8390   -4.0820   23.7250 C   0  0  0  0  0  3  0  0  0  0  0  0
  -21.9740   -4.8670   22.5670 C   0  0  0  0  0  0  0  0  0  0  0  0
  -22.4460   -4.3070   21.4270 F   0  0  0  0  0  0  0  0  0  0  0  0
  -21.1940   -3.8920   26.0170 F   0  0  0  0  0  0  0  0  0  0  0  0
  -22.7610  -13.5880   21.2980 C   0  0  0  0  0  0  0  0  0  0  0  0
  -22.1010  -12.8530   22.1860 N   0  0  0  0  0  0  0  0  0  0  0  0
  -22.2880  -14.6360   20.8600 O   0  0  0  0  0  0  0  0  0  0  0  0
  -22.4980  -12.0040   22.5600 H   0  0  0  0  0  0  0  0  0  0  0  0
  -21.1840  -13.1430   22.4960 H   0  0  0  0  0  0  0  0  0  0  0  0
  -25.3090  -15.2980   20.3490 N   0  0  0  0  0  0  0  0  0  0  0  0
  -24.5490  -15.9390   20.5500 H   0  0  0  0  0  0  0  0  0  0  0  0
  -26.1140  -15.7560   19.9430 H   0  0  0  0  0  0  0  0  0  0  0  0
  -31.3040  -16.7670   22.5210 C   0  0  0  0  0  1  0  0  0  0  0  0
  -30.4440  -17.9330   22.0060 C   0  0  0  0  0  2  0  0  0  0  0  0
  1  2  1  0
  3 59  1  0
  3  1  1  0
  4 17  1  0
  4  2  1  0
  5 11  1  0
  5  6  1  0
  5  3  1  0
  6  7  1  0
  6  4  1  0
  7 10  1  0
  8  7  1  0
  9  7  1  0
 11 12  1  0
 13 15  1  0
 13 12  1  0
 14 13  1  0
 16 13  1  0
 17 18  1  0
 19 30  2  0
 20 18  1  0
 20 25  1  0
 21 29  1  0
 21 31  1  0
 22 28  1  0
 22 24  1  0
 23 29  1  0
 24 23  1  0
 25 24  2  0
 26 27  1  0
 26 20  2  0
 27 22  2  0
 28 21  1  0
 29 19  1  0
 31 33  2  0
 32 31  1  0
 34 32  1  0
 35 44  2  0
 35 40  1  0
 36 32  1  0
 36 40  1  0
 37 36  1  0
 38 39  1  0
 38 37  1  0
 39 35  1  0
 40 41  2  0
 41 42  1  0
 43 42  2  0
 44 43  1  0
 45 19  1  0
 45 50  1  0
 45 46  1  0
 46 49  1  1
 46 47  1  0
 48 46  1  0
 50 53  1  0
 51 55  1  0
 51 50  1  0
 52 51  2  0
 55 54  1  0
 57 58  1  0
 57 55  1  0
 57 56  1  0
 59 99  1  0
 60 68  1  0
 61 66  1  0
 62 63  1  0
 62 61  1  0
 64 63  1  0
 64 73  1  0
 64 65  1  0
 66 60  1  0
 66 65  1  0
 67 60  2  0
 68 69  1  0
 68 59  2  3
 70 71  2  0
 71 90  1  0
 72 71  1  0
 72 75  1  0
 73 74  1  0
 73 70  1  0
 74 72  2  0
 75 76  1  0
 76 77  2  0
 78 81  1  0
 78 77  1  0
 79 78  2  0
 80 79  1  0
 80 75  2  0
 81 82  1  0
 82 83  1  0
 83 84  2  0
 85 84  1  0
 85 89  1  0
 86 85  2  0
 87 82  2  0
 87 86  1  0
 88 87  1  0
 90 91  1  0
 91 94  1  0
 91 93  1  0
 92 90  2  0
 95 70  1  0
 95 96  1  0
 97 95  1  0
 99 98  1  0
M  ISO  4  17 101  18 101  60 100  68 100
M  END
>  <TORSDO>  (99) 
F 23

>  <SCORE>  (99) 
-13.316

>  <name>  (99) 
99

>  <ligand_id>  (99) 
99

>  <original_smiles>  (99) 
[H]c1c([H])c([H])c2c(c1[H])C([H])([H])C([H])([H])C([H])([H])C2([H])N([H])C(=O)C1([H])N(C(=O)C([H])(N([H])C(=O)C([H])(N([H])C([H])([H])[H])C([H])([H])[H])C(C([H])([H])[H])(C([H])([H])[H])C([H])([H])[H])C([H])([H])c2c([H])c(OC([H])([H])C3([H])C([H])([H])C([H])([H])C([H])(C([H])(N([H])C(=O)N4C([H])([H])C([H])([H])C([H])([H])C([H])(n5nc(-c6c([H])c([H])c(Oc7c([H])c([H])c(F)c([H])c7F)c([H])c6[H])c(C(=O)N([H])[H])c5N([H])[H])C4([H])[H])C([H])([H])C([H])([H])[H])C([H])(C([H])([H])C([H])([H])[N+]([H])([H])[H])C3([H])[N+]([H])([H])[H])c([H])c([H])c2C1([H])[H]

>  <smiles>  (99) 
[H]c1c([H])c([H])c2c(c1[H])C([H])([H])C([H])([H])C([H])([H])C2([H])N([H])C(=O)C1([H])N(C(=O)C([H])(N([H])C(=O)C([H])(N([H])C([H])([H])[H])C([H])([H])[H])C(C([H])([H])[H])(C([H])([H])[H])C([H])([H])[H])C([H])([H])c2c([H])c(OC([H])([H])C3([H])C([H])([H])C([H])([H])C([H])(C([H])(N([H])C(=O)N4C([H])([H])C([H])([H])C([H])([H])C([H])(n5nc(-c6c([H])c([H])c(Oc7c([H])c([H])c(F)c([H])c7F)c([H])c6[H])c(C(=O)N([H])[H])c5N([H])[H])C4([H])[H])C([H])([H])C([H])([H])[H])C([H])(C([H])([H])C([H])([H])[N+]([H])([H])[H])C3([H])[N+]([H])([H])[H])c([H])c([H])c2C1([H])[H]

$$$$
