0:0:0
     RDKit          3D

 95103  0  0  1  0  0  0  0  0999 V2000
  -30.5010  -24.2150   20.9300 C   0  0  0  0  0  2  0  0  0  0  0  0
  -29.2730  -22.1620   21.1700 C   0  0  0  0  0  3  0  0  0  0  0  0
  -29.0900  -24.5200   21.4650 C   0  0  0  0  0  3  0  0  0  0  0  0
  -28.2770  -23.3390   20.9020 C   0  0  0  0  0  3  0  0  0  0  0  0
  -30.5770  -22.7330   20.7570 N   0  0  0  0  0  4  0  0  0  0  0  0
  -31.3490  -22.3200   21.2550 H   0  0  0  0  0  0  0  0  0  0  0  0
  -30.6810  -22.5440   19.7740 H   0  0  0  0  0  0  0  0  0  0  0  0
  -28.0070  -23.5800   19.4840 N   0  0  0  0  0  0  0  0  0  0  0  0
  -27.4410  -24.4160   19.3900 H   0  0  0  0  0  0  0  0  0  0  0  0
  -27.4260  -22.8300   19.1180 H   0  0  0  0  0  0  0  0  0  0  0  0
  -28.9920  -20.7610   20.5050 C   0  0  0  0  0  0  0  0  0  0  0  0
  -28.0600  -20.5560   19.7200 O   0  0  0  0  0  0  0  0  0  0  0  0
  -29.9200  -19.5710   20.8750 C   0  0  0  0  0  2  0  0  0  0  0  0
  -29.3570  -18.1240   20.6490 C   0  0  0  0  0  2  0  0  0  0  0  0
  -30.4090  -17.0010   20.9280 C   0  0  0  0  0  2  0  0  0  0  0  0
  -30.6280  -14.5410   20.4050 C   0  0  0  0  0  0  0  0  0  0  0  0
  -30.3300  -12.3610   19.2900 C   0  0  0  0  0  2  0  0  0  0  0  0
  -29.3770  -12.5440   18.0920 C   0  0  0  0  0  2  0  0  0  0  0  0
  -27.9090  -12.4030   18.5390 C   0  0  0  0  0  2  0  0  0  0  0  0
  -27.5780  -13.2530   19.7940 C   0  0  0  0  0  3  0  0  0  0  0  0
  -28.6460  -13.0550   20.8930 C   0  0  0  0  0  2  0  0  0  0  0  0
  -29.9570  -13.3610   20.3030 N   0  0  0  0  0  0  0  0  0  0  0  0
  -31.7740  -14.6880   19.9740 O   0  0  0  0  0  0  0  0  0  0  0  0
  -29.9130  -15.6050   20.8430 N   0  0  0  0  0  0  0  0  0  0  0  0
  -28.9700  -15.4190   21.1500 H   0  0  0  0  0  0  0  0  0  0  0  0
  -25.1910  -13.8620   20.5340 C   0  0  0  0  0  0  0  0  0  0  0  0
  -24.1260  -13.0910   20.9150 C   0  0  0  0  0  0  0  0  0  0  0  0
  -24.5840  -11.7390   20.8790 C   0  0  0  0  0  0  0  0  0  0  0  0
  -26.2310  -12.9790   20.2890 N   0  0  0  0  0  0  0  0  0  0  0  0
  -25.8710  -11.6980   20.5570 N   0  0  0  0  0  0  0  0  0  0  0  0
  -23.8570  -10.4780   21.0750 C   0  0  0  0  0  0  0  0  0  0  0  0
  -24.3110   -9.4980   21.9860 C   0  0  0  0  0  3  0  0  0  0  0  0
  -23.5850   -8.3010   22.1700 C   0  0  0  0  0  3  0  0  0  0  0  0
  -22.3910   -8.0760   21.4420 C   0  0  0  0  0  0  0  0  0  0  0  0
  -21.9580   -9.0440   20.5190 C   0  0  0  0  0  3  0  0  0  0  0  0
  -22.6850  -10.2320   20.3340 C   0  0  0  0  0  3  0  0  0  0  0  0
  -21.6350   -6.9340   21.5380 O   0  0  0  0  0  0  0  0  0  0  0  0
  -21.6280   -6.1670   22.6750 C   0  0  0  0  0  0  0  0  0  0  0  0
  -21.2630   -6.7020   23.9300 C   0  0  0  0  0  3  0  0  0  0  0  0
  -21.2000   -5.8650   25.0610 C   0  0  0  0  0  3  0  0  0  0  0  0
  -21.4940   -4.4930   24.9380 C   0  0  0  0  0  0  0  0  0  0  0  0
  -21.8520   -3.9570   23.6880 C   0  0  0  0  0  3  0  0  0  0  0  0
  -21.9160   -4.7930   22.5600 C   0  0  0  0  0  0  0  0  0  0  0  0
  -22.2410   -4.2690   21.3530 F   0  0  0  0  0  0  0  0  0  0  0  0
  -21.4270   -3.6850   26.0220 F   0  0  0  0  0  0  0  0  0  0  0  0
  -22.7330  -13.5720   21.2010 C   0  0  0  0  0  0  0  0  0  0  0  0
  -22.0130  -12.8750   22.0750 N   0  0  0  0  0  0  0  0  0  0  0  0
  -22.2920  -14.5980   20.6870 O   0  0  0  0  0  0  0  0  0  0  0  0
  -22.3830  -12.0460   22.5140 H   0  0  0  0  0  0  0  0  0  0  0  0
  -21.0780  -13.1800   22.3100 H   0  0  0  0  0  0  0  0  0  0  0  0
  -25.3540  -15.2320   20.3510 N   0  0  0  0  0  0  0  0  0  0  0  0
  -24.5860  -15.8850   20.4610 H   0  0  0  0  0  0  0  0  0  0  0  0
  -26.1850  -15.6650   19.9700 H   0  0  0  0  0  0  0  0  0  0  0  0
  -28.5420  -25.9880   21.4370 C   0  0  0  0  0  2  0  0  0  0  0  0
  -28.3680  -26.6430   20.1680 O   0  0  0  0  0  0  0  0  0  0  0  0
  -24.6060  -31.8930   23.2230 C   0  0  0  0  0  0  0  0  0  0  0  0
  -27.2480  -27.4490   20.1370 C   0  0  0  0  0  0  0  0  0  0  0  0
  -23.3980  -30.4860   21.5880 C   0  0  0  0  0  3  0  0  0  0  0  0
  -24.8530  -28.9550   20.1500 C   0  0  0  0  0  0  0  0  0  0  0  0
  -25.9230  -30.8490   21.3820 C   0  0  0  0  0  2  0  0  0  0  0  0
  -26.0120  -29.4780   20.7420 C   0  0  0  0  0  0  0  0  0  0  0  0
  -27.2130  -28.7300   20.7400 C   0  0  0  0  0  3  0  0  0  0  0  0
  -26.0820  -26.9480   19.5270 C   0  0  0  0  0  3  0  0  0  0  0  0
  -24.8840  -27.6900   19.5380 C   0  0  0  0  0  3  0  0  0  0  0  0
  -23.6040  -29.8080   20.2060 C   0  0  0  0  0  2  0  0  0  0  0  0
  -24.6610  -31.0910   22.1220 N   0  0  0  0  0  0  0  0  0  0  0  0
  -23.5270  -32.1620   23.7680 O   0  0  0  0  0  0  0  0  0  0  0  0
  -22.7540  -29.4630   22.5530 C   0  0  0  0  0  0  0  0  0  0  0  0
  -21.4300  -29.2740   22.4300 N   0  0  0  0  0  0  0  0  0  0  0  0
  -23.4440  -28.8420   23.3660 O   0  0  0  0  0  0  0  0  0  0  0  0
  -20.9330  -29.8210   21.7410 H   0  0  0  0  0  0  0  0  0  0  0  0
  -18.0660  -28.0560   22.9360 C   0  0  0  0  0  0  0  0  0  0  0  0
  -20.6220  -28.3360   23.2070 C   0  0  0  0  0  3  0  0  0  0  0  0
  -20.7360  -26.9010   22.6400 C   0  0  0  0  0  2  0  0  0  0  0  0
  -19.6380  -26.5660   21.6270 C   0  0  0  0  0  2  0  0  0  0  0  0
  -18.2530  -26.7050   22.2680 C   0  0  0  0  0  2  0  0  0  0  0  0
  -19.1790  -28.8290   23.3620 C   0  0  0  0  0  0  0  0  0  0  0  0
  -18.9510  -30.0940   23.9450 C   0  0  0  0  0  3  0  0  0  0  0  0
  -17.6420  -30.5870   24.1070 C   0  0  0  0  0  3  0  0  0  0  0  0
  -16.5440  -29.8100   23.6960 C   0  0  0  0  0  3  0  0  0  0  0  0
  -16.7570  -28.5480   23.1170 C   0  0  0  0  0  3  0  0  0  0  0  0
  -25.8930  -32.5300   23.8340 C   0  0  0  0  0  3  0  0  0  0  0  0
  -25.5800  -33.9260   24.1650 N   0  0  0  0  0  0  0  0  0  0  0  0
  -25.9050  -34.9790   23.4020 C   0  0  0  0  0  0  0  0  0  0  0  0
  -26.5680  -34.8770   22.3670 O   0  0  0  0  0  0  0  0  0  0  0  0
  -24.9880  -34.0780   24.9680 H   0  0  0  0  0  0  0  0  0  0  0  0
  -24.1630  -36.7600   23.0580 C   0  0  0  0  0  1  0  0  0  0  0  0
  -25.4140  -36.3650   23.8600 C   0  0  0  0  0  3  0  0  0  0  0  0
  -27.5530  -37.2610   24.6690 C   0  0  0  0  0  1  0  0  0  0  0  0
  -26.4410  -37.4230   23.7360 N   0  0  0  0  0  0  0  0  0  0  0  0
  -26.0330  -38.3420   23.8850 H   0  0  0  0  0  0  0  0  0  0  0  0
  -26.4240  -31.7590   25.1040 C   0  0  1  0  0  0  0  0  0  0  0  0
  -25.3400  -31.5140   26.1800 C   0  0  0  0  0  1  0  0  0  0  0  0
  -27.0080  -30.3840   24.7020 C   0  0  0  0  0  1  0  0  0  0  0  0
  -27.5790  -32.5550   25.7550 C   0  0  0  0  0  1  0  0  0  0  0  0
  1  3  1  0
  2 11  1  0
  3 54  1  0
  4  8  1  0
  4  2  1  0
  4  3  1  0
  5  1  1  0
  5  2  1  0
  5  6  1  0
  7  5  1  0
  9  8  1  0
 10  8  1  0
 11 13  1  0
 12 11  2  0
 14 13  1  0
 14 15  1  0
 16 24  1  0
 17 22  1  0
 18 19  1  0
 18 17  1  0
 20 19  1  0
 20 29  1  0
 20 21  1  0
 22 16  1  0
 22 21  1  0
 23 16  2  0
 24 15  1  0
 24 25  1  0
 26 27  2  0
 27 46  1  0
 28 27  1  0
 28 31  1  0
 29 26  1  0
 29 30  1  0
 30 28  2  0
 31 32  1  0
 32 33  2  0
 34 37  1  0
 34 33  1  0
 35 34  2  0
 36 35  1  0
 36 31  2  0
 37 38  1  0
 38 39  1  0
 39 40  2  0
 41 40  1  0
 41 45  1  0
 42 41  2  0
 43 38  2  0
 43 42  1  0
 44 43  1  0
 46 47  1  0
 47 50  1  0
 47 49  1  0
 48 46  2  0
 51 52  1  0
 51 26  1  0
 53 51  1  0
 55 54  1  0
 56 67  2  0
 57 55  1  0
 57 62  1  0
 58 66  1  0
 58 68  1  0
 59 65  1  0
 59 61  1  0
 60 66  1  0
 61 60  1  0
 62 61  2  0
 63 64  1  0
 63 57  2  0
 64 59  2  0
 65 58  1  0
 66 56  1  0
 68 70  2  0
 69 68  1  0
 71 69  1  0
 72 81  2  0
 72 77  1  0
 73 69  1  0
 73 77  1  0
 74 73  1  0
 75 76  1  0
 75 74  1  0
 76 72  1  0
 77 78  2  0
 78 79  1  0
 80 79  2  0
 81 80  1  0
 82 56  1  0
 82 83  1  0
 82 92  1  0
 83 86  1  0
 84 88  1  0
 84 83  1  0
 85 84  2  0
 88 87  1  0
 90 88  1  0
 90 91  1  0
 90 89  1  0
 92 95  1  1
 92 93  1  0
 94 92  1  0
M  ISO  4  16 100  24 100  54 101  55 101
M  END
>  <TORSDO>  (1) 
F 22

>  <SCORE>  (1) 
-13.446

>  <name>  (1) 
0

>  <ligand_id>  (1) 
0

>  <original_smiles>  (1) 
[H]c1c([H])c([H])c2c(c1[H])C([H])([H])C([H])([H])C([H])([H])C2([H])N([H])C(=O)C1([H])N(C(=O)C([H])(N([H])C(=O)C([H])(N([H])C([H])([H])[H])C([H])([H])[H])C(C([H])([H])[H])(C([H])([H])[H])C([H])([H])[H])C([H])([H])c2c([H])c(OC([H])([H])C3([H])C([H])(N([H])[H])C([H])(C(=O)C([H])([H])C([H])([H])C([H])([H])N([H])C(=O)N4C([H])([H])C([H])([H])C([H])([H])C([H])(n5nc(-c6c([H])c([H])c(Oc7c([H])c([H])c(F)c([H])c7F)c([H])c6[H])c(C(=O)N([H])[H])c5N([H])[H])C4([H])[H])[N+]([H])([H])C3([H])[H])c([H])c([H])c2C1([H])[H]

>  <smiles>  (1) 
[H]c1c([H])c([H])c2c(c1[H])C([H])([H])C([H])([H])C([H])([H])C2([H])N([H])C(=O)C1([H])N(C(=O)C([H])(N([H])C(=O)C([H])(N([H])C([H])([H])[H])C([H])([H])[H])C(C([H])([H])[H])(C([H])([H])[H])C([H])([H])[H])C([H])([H])c2c([H])c(OC([H])([H])C3([H])C([H])(N([H])[H])C([H])(C(=O)C([H])([H])C([H])([H])C([H])([H])N([H])C(=O)N4C([H])([H])C([H])([H])C([H])([H])C([H])(n5nc(-c6c([H])c([H])c(Oc7c([H])c([H])c(F)c([H])c7F)c([H])c6[H])c(C(=O)N([H])[H])c5N([H])[H])C4([H])[H])[N+]([H])([H])C3([H])[H])c([H])c([H])c2C1([H])[H]

$$$$
1:0:0
     RDKit          3D

 92 99  0  0  1  0  0  0  0  0999 V2000
  -29.2500  -19.7650   20.6740 C   0  0  0  0  0  2  0  0  0  0  0  0
  -28.9670  -21.2620   19.9870 N   0  0  0  0  0  4  0  0  0  0  0  0
  -29.7150  -21.3830   19.3240 H   0  0  0  0  0  0  0  0  0  0  0  0
  -28.1420  -21.1280   19.4250 H   0  0  0  0  0  0  0  0  0  0  0  0
  -28.7920  -22.7780   20.6770 C   0  0  0  0  0  3  0  0  0  0  0  0
  -28.0930  -24.3030   20.0170 C   0  0  0  0  0  3  0  0  0  0  0  0
  -28.2000  -25.9060   20.3950 O   0  0  0  0  0  0  0  0  0  0  0  0
  -24.6400  -31.8890   23.2580 C   0  0  0  0  0  0  0  0  0  0  0  0
  -27.1840  -26.9920   20.2800 C   0  0  0  0  0  0  0  0  0  0  0  0
  -23.4400  -30.4860   21.6280 C   0  0  0  0  0  3  0  0  0  0  0  0
  -24.8850  -28.8680   20.2150 C   0  0  0  0  0  0  0  0  0  0  0  0
  -26.0060  -30.6900   21.4810 C   0  0  0  0  0  2  0  0  0  0  0  0
  -26.0710  -29.2760   20.8350 C   0  0  0  0  0  0  0  0  0  0  0  0
  -27.2120  -28.3580   20.8470 C   0  0  0  0  0  3  0  0  0  0  0  0
  -25.9730  -26.7350   19.5990 C   0  0  0  0  0  3  0  0  0  0  0  0
  -24.8590  -27.6170   19.5770 C   0  0  0  0  0  3  0  0  0  0  0  0
  -23.6670  -29.7900   20.2570 C   0  0  0  0  0  2  0  0  0  0  0  0
  -24.7160  -31.0480   22.1760 N   0  0  0  0  0  0  0  0  0  0  0  0
  -23.5510  -32.1870   23.7780 O   0  0  0  0  0  0  0  0  0  0  0  0
  -22.7420  -29.4990   22.6000 C   0  0  0  0  0  0  0  0  0  0  0  0
  -21.4110  -29.3360   22.4740 N   0  0  0  0  0  0  0  0  0  0  0  0
  -23.4040  -28.8800   23.4350 O   0  0  0  0  0  0  0  0  0  0  0  0
  -20.9270  -29.8890   21.7810 H   0  0  0  0  0  0  0  0  0  0  0  0
  -18.0270  -28.1250   22.9720 C   0  0  0  0  0  0  0  0  0  0  0  0
  -20.5840  -28.4040   23.2520 C   0  0  0  0  0  3  0  0  0  0  0  0
  -20.6950  -26.9640   22.6990 C   0  0  0  0  0  2  0  0  0  0  0  0
  -19.6030  -26.6240   21.6790 C   0  0  0  0  0  2  0  0  0  0  0  0
  -18.2140  -26.7700   22.3110 C   0  0  0  0  0  2  0  0  0  0  0  0
  -19.1400  -28.8990   23.3980 C   0  0  0  0  0  0  0  0  0  0  0  0
  -18.9070  -30.1670   23.9780 C   0  0  0  0  0  3  0  0  0  0  0  0
  -17.5980  -30.6610   24.1290 C   0  0  0  0  0  3  0  0  0  0  0  0
  -16.5010  -29.8840   23.7170 C   0  0  0  0  0  3  0  0  0  0  0  0
  -16.7160  -28.6180   23.1460 C   0  0  0  0  0  3  0  0  0  0  0  0
  -25.9140  -32.5290   23.8880 C   0  0  0  0  0  3  0  0  0  0  0  0
  -26.4110  -31.7760   25.1840 C   0  0  1  0  0  0  0  0  0  0  0  0
  -25.3060  -31.5710   26.2480 C   0  0  0  0  0  1  0  0  0  0  0  0
  -26.9830  -30.3850   24.8290 C   0  0  0  0  0  1  0  0  0  0  0  0
  -27.5640  -32.5720   25.8400 C   0  0  0  0  0  1  0  0  0  0  0  0
  -25.6070  -33.9360   24.2060 N   0  0  0  0  0  0  0  0  0  0  0  0
  -25.9470  -34.9860   23.4470 C   0  0  0  0  0  0  0  0  0  0  0  0
  -26.6150  -34.8720   22.4160 O   0  0  0  0  0  0  0  0  0  0  0  0
  -25.0190  -34.0970   25.0100 H   0  0  0  0  0  0  0  0  0  0  0  0
  -24.2330  -36.7960   23.0920 C   0  0  0  0  0  1  0  0  0  0  0  0
  -25.4730  -36.3830   23.9010 C   0  0  0  0  0  3  0  0  0  0  0  0
  -27.6180  -37.2590   24.7200 C   0  0  0  0  0  1  0  0  0  0  0  0
  -26.5140  -37.4270   23.7770 N   0  0  0  0  0  0  0  0  0  0  0  0
  -26.1160  -38.3520   23.9180 H   0  0  0  0  0  0  0  0  0  0  0  0
  -29.7210  -18.2100   19.8820 C   0  0  0  0  0  0  0  0  0  0  0  0
  -30.4400  -15.3250   20.2340 C   0  0  0  0  0  0  0  0  0  0  0  0
  -30.4040  -12.8810   19.3700 C   0  0  0  0  0  2  0  0  0  0  0  0
  -29.4820  -12.6890   18.1400 C   0  0  0  0  0  2  0  0  0  0  0  0
  -28.0380  -12.4000   18.5880 C   0  0  0  0  0  2  0  0  0  0  0  0
  -27.5840  -13.3600   19.7160 C   0  0  0  0  0  3  0  0  0  0  0  0
  -28.6370  -13.5100   20.8380 C   0  0  0  0  0  2  0  0  0  0  0  0
  -29.8710  -14.0160   20.2140 N   0  0  0  0  0  0  0  0  0  0  0  0
  -31.6440  -15.3160   19.9470 O   0  0  0  0  0  0  0  0  0  0  0  0
  -29.6870  -16.5990   20.3770 N   0  0  0  0  0  4  0  0  0  0  0  0
  -28.7670  -16.3830   20.7300 H   0  0  0  0  0  0  0  0  0  0  0  0
  -25.2090  -13.9040   20.4710 C   0  0  0  0  0  0  0  0  0  0  0  0
  -24.1520  -13.1230   20.8430 C   0  0  0  0  0  0  0  0  0  0  0  0
  -24.6260  -11.7750   20.8140 C   0  0  0  0  0  0  0  0  0  0  0  0
  -26.2580  -13.0370   20.2280 N   0  0  0  0  0  0  0  0  0  0  0  0
  -25.9190  -11.7490   20.5010 N   0  0  0  0  0  0  0  0  0  0  0  0
  -23.9040  -10.5090   21.0040 C   0  0  0  0  0  0  0  0  0  0  0  0
  -24.3370   -9.5450   21.9410 C   0  0  0  0  0  3  0  0  0  0  0  0
  -23.6130   -8.3470   22.1220 C   0  0  0  0  0  3  0  0  0  0  0  0
  -22.4410   -8.1050   21.3680 C   0  0  0  0  0  0  0  0  0  0  0  0
  -22.0260   -9.0580   20.4220 C   0  0  0  0  0  3  0  0  0  0  0  0
  -22.7500  -10.2480   20.2380 C   0  0  0  0  0  3  0  0  0  0  0  0
  -21.6870   -6.9600   21.4580 O   0  0  0  0  0  0  0  0  0  0  0  0
  -21.6420   -6.2170   22.6110 C   0  0  0  0  0  0  0  0  0  0  0  0
  -21.2140   -6.7710   23.8380 C   0  0  0  0  0  3  0  0  0  0  0  0
  -21.1160   -5.9550   24.9820 C   0  0  0  0  0  3  0  0  0  0  0  0
  -21.4340   -4.5850   24.9010 C   0  0  0  0  0  0  0  0  0  0  0  0
  -21.8530   -4.0310   23.6780 C   0  0  0  0  0  3  0  0  0  0  0  0
  -21.9540   -4.8440   22.5370 C   0  0  0  0  0  0  0  0  0  0  0  0
  -22.3390   -4.3010   21.3560 F   0  0  0  0  0  0  0  0  0  0  0  0
  -21.3320   -3.7990   25.9980 F   0  0  0  0  0  0  0  0  0  0  0  0
  -22.7510  -13.5950   21.1050 C   0  0  0  0  0  0  0  0  0  0  0  0
  -22.0190  -12.9000   21.9680 N   0  0  0  0  0  0  0  0  0  0  0  0
  -22.3140  -14.6170   20.5780 O   0  0  0  0  0  0  0  0  0  0  0  0
  -22.3840  -12.0770   22.4230 H   0  0  0  0  0  0  0  0  0  0  0  0
  -21.0780  -13.2000   22.1780 H   0  0  0  0  0  0  0  0  0  0  0  0
  -25.3590  -15.2760   20.2880 N   0  0  0  0  0  0  0  0  0  0  0  0
  -24.5770  -15.9120   20.3830 H   0  0  0  0  0  0  0  0  0  0  0  0
  -26.1900  -15.7200   19.9190 H   0  0  0  0  0  0  0  0  0  0  0  0
  -31.0200  -18.4620   19.0730 C   0  0  0  0  0  2  0  0  0  0  0  0
  -30.9090  -18.0500   17.5860 C   0  0  0  0  0  2  0  0  0  0  0  0
  -32.2120  -18.2350   16.7820 C   0  0  0  0  0  2  0  0  0  0  0  0
  -33.2130  -17.0730   16.9140 C   0  0  0  0  0  2  0  0  0  0  0  0
  -33.8860  -14.7370   16.0930 C   0  0  0  0  0  1  0  0  0  0  0  0
  -32.8160  -15.8370   16.0860 C   0  0  0  0  0  2  0  0  0  0  0  0
  2  1  1  0
  2  5  1  0
  3  2  1  0
  4  2  1  0
  6  7  1  0
  6  5  2  0
  8 19  2  0
  9  7  1  0
  9 14  1  0
 10 18  1  0
 10 20  1  0
 11 17  1  0
 11 13  1  0
 12 18  1  0
 13 14  2  0
 13 12  1  0
 15  9  2  0
 16 15  1  0
 16 11  2  0
 17 10  1  0
 18  8  1  0
 20 22  2  0
 21 20  1  0
 23 21  1  0
 24 33  2  0
 24 29  1  0
 25 21  1  0
 25 29  1  0
 26 25  1  0
 27 28  1  0
 27 26  1  0
 28 24  1  0
 29 30  2  0
 30 31  1  0
 32 31  2  0
 33 32  1  0
 34  8  1  0
 34 39  1  0
 34 35  1  0
 35 38  1  1
 35 36  1  0
 37 35  1  0
 39 42  1  0
 40 44  1  0
 40 39  1  0
 41 40  2  0
 44 43  1  0
 46 44  1  0
 46 47  1  0
 46 45  1  0
 48 57  2  0
 48  1  1  0
 49 57  1  0
 50 55  1  0
 51 52  1  0
 51 50  1  0
 53 52  1  0
 53 62  1  0
 53 54  1  0
 55 49  1  0
 55 54  1  0
 56 49  2  0
 57 58  1  0
 59 60  2  0
 60 79  1  0
 61 60  1  0
 61 64  1  0
 62 59  1  0
 62 63  1  0
 63 61  2  0
 64 65  1  0
 65 66  2  0
 67 70  1  0
 67 66  1  0
 68 67  2  0
 69 68  1  0
 69 64  2  0
 70 71  1  0
 71 72  1  0
 72 73  2  0
 74 73  1  0
 74 78  1  0
 75 74  2  0
 76 71  2  0
 76 75  1  0
 77 76  1  0
 79 80  1  0
 80 83  1  0
 80 82  1  0
 81 79  2  0
 84 85  1  0
 84 59  1  0
 86 84  1  0
 87 48  1  0
 88 87  1  0
 89 90  1  0
 89 88  1  0
 92 91  1  0
 92 90  1  0
M  ISO  4   6 101   7 101  49 100  57 100
M  END
>  <TORSDO>  (2) 
F 25

>  <SCORE>  (2) 
-14.088

>  <name>  (2) 
1

>  <ligand_id>  (2) 
1

>  <original_smiles>  (2) 
[H]c1c([H])c([H])c2c(c1[H])C([H])([H])C([H])([H])C([H])([H])C2([H])N([H])C(=O)C1([H])N(C(=O)C([H])(N([H])C(=O)C([H])(N([H])C([H])([H])[H])C([H])([H])[H])C(C([H])([H])[H])(C([H])([H])[H])C([H])([H])[H])C([H])([H])c2c([H])c(OC([H])([H])C([H])([H])[N+]([H])([H])C([H])([H])C([H])(N([H])C(=O)N3C([H])([H])C([H])([H])C([H])([H])C([H])(n4nc(-c5c([H])c([H])c(Oc6c([H])c([H])c(F)c([H])c6F)c([H])c5[H])c(C(=O)N([H])[H])c4N([H])[H])C3([H])[H])C([H])([H])C([H])([H])C([H])([H])C([H])([H])C([H])([H])C([H])([H])[H])c([H])c([H])c2C1([H])[H]

>  <smiles>  (2) 
[H]c1c([H])c([H])c2c(c1[H])C([H])([H])C([H])([H])C([H])([H])C2([H])N([H])C(=O)C1([H])N(C(=O)C([H])(N([H])C(=O)C([H])(N([H])C([H])([H])[H])C([H])([H])[H])C(C([H])([H])[H])(C([H])([H])[H])C([H])([H])[H])C([H])([H])c2c([H])c(OC([H])([H])C([H])([H])[N+]([H])([H])C([H])([H])C([H])(N([H])C(=O)N3C([H])([H])C([H])([H])C([H])([H])C([H])(n4nc(-c5c([H])c([H])c(Oc6c([H])c([H])c(F)c([H])c6F)c([H])c5[H])c(C(=O)N([H])[H])c4N([H])[H])C3([H])[H])C([H])([H])C([H])([H])C([H])([H])C([H])([H])C([H])([H])C([H])([H])[H])c([H])c([H])c2C1([H])[H]

$$$$
2:0:0
     RDKit          3D

 86 93  0  0  1  0  0  0  0  0999 V2000
  -28.9030  -22.2810   20.2400 C   0  0  0  0  0  3  0  0  0  0  0  0
  -28.6780  -20.3660   20.2870 C   0  0  0  0  0  2  0  0  0  0  0  0
  -29.7500  -18.7770   20.1860 C   0  0  0  0  0  0  0  0  0  0  0  0
  -30.2580  -15.6810   20.0960 C   0  0  0  0  0  0  0  0  0  0  0  0
  -30.3140  -13.1820   19.1890 C   0  0  0  0  0  2  0  0  0  0  0  0
  -29.3740  -12.8340   18.0010 C   0  0  0  0  0  2  0  0  0  0  0  0
  -27.9660  -12.4760   18.5020 C   0  0  0  0  0  2  0  0  0  0  0  0
  -27.5030  -13.4390   19.6190 C   0  0  0  0  0  3  0  0  0  0  0  0
  -28.5770  -13.7000   20.7000 C   0  0  0  0  0  2  0  0  0  0  0  0
  -29.7250  -14.3300   20.0090 N   0  0  0  0  0  0  0  0  0  0  0  0
  -31.4840  -15.6330   19.8910 O   0  0  0  0  0  0  0  0  0  0  0  0
  -29.4980  -17.0280   20.1790 N   0  0  0  0  0  4  0  0  0  0  0  0
  -28.5140  -16.8320   20.2730 H   0  0  0  0  0  0  0  0  0  0  0  0
  -25.1590  -13.9270   20.4710 C   0  0  0  0  0  0  0  0  0  0  0  0
  -24.1240  -13.1250   20.8590 C   0  0  0  0  0  0  0  0  0  0  0  0
  -24.6130  -11.7840   20.7910 C   0  0  0  0  0  0  0  0  0  0  0  0
  -26.2070  -13.0770   20.1780 N   0  0  0  0  0  0  0  0  0  0  0  0
  -25.8970  -11.7790   20.4390 N   0  0  0  0  0  0  0  0  0  0  0  0
  -23.9130  -10.5070   20.9830 C   0  0  0  0  0  0  0  0  0  0  0  0
  -24.3620   -9.5480   21.9150 C   0  0  0  0  0  3  0  0  0  0  0  0
  -23.6550   -8.3400   22.0970 C   0  0  0  0  0  3  0  0  0  0  0  0
  -22.4840   -8.0830   21.3480 C   0  0  0  0  0  0  0  0  0  0  0  0
  -22.0520   -9.0310   20.4040 C   0  0  0  0  0  3  0  0  0  0  0  0
  -22.7600  -10.2310   20.2190 C   0  0  0  0  0  3  0  0  0  0  0  0
  -21.7480   -6.9250   21.4390 O   0  0  0  0  0  0  0  0  0  0  0  0
  -21.6840   -6.2010   22.6020 C   0  0  0  0  0  0  0  0  0  0  0  0
  -21.1780   -6.7580   23.7970 C   0  0  0  0  0  3  0  0  0  0  0  0
  -21.0650   -5.9600   24.9520 C   0  0  0  0  0  3  0  0  0  0  0  0
  -21.4500   -4.6060   24.9140 C   0  0  0  0  0  0  0  0  0  0  0  0
  -21.9490   -4.0490   23.7240 C   0  0  0  0  0  3  0  0  0  0  0  0
  -22.0630   -4.8440   22.5700 C   0  0  0  0  0  0  0  0  0  0  0  0
  -22.5250   -4.2970   21.4200 F   0  0  0  0  0  0  0  0  0  0  0  0
  -21.3350   -3.8350   26.0220 F   0  0  0  0  0  0  0  0  0  0  0  0
  -22.7280  -13.5760   21.1730 C   0  0  0  0  0  0  0  0  0  0  0  0
  -22.0390  -12.8620   22.0550 N   0  0  0  0  0  0  0  0  0  0  0  0
  -22.2610  -14.5990   20.6750 O   0  0  0  0  0  0  0  0  0  0  0  0
  -22.4320  -12.0340   22.4790 H   0  0  0  0  0  0  0  0  0  0  0  0
  -21.1040  -13.1470   22.3110 H   0  0  0  0  0  0  0  0  0  0  0  0
  -25.2900  -15.3040   20.3080 N   0  0  0  0  0  0  0  0  0  0  0  0
  -24.5120  -15.9390   20.4550 H   0  0  0  0  0  0  0  0  0  0  0  0
  -26.1070  -15.7620   19.9290 H   0  0  0  0  0  0  0  0  0  0  0  0
  -30.9870  -19.0450   21.0460 C   0  0  0  0  0  0  0  0  0  0  0  0
  -31.8610  -20.2310   20.6560 C   0  0  0  0  0  1  0  0  0  0  0  0
  -31.2690  -18.3810   22.0460 O   0  0  0  0  0  0  0  0  0  0  0  0
  -27.9020  -23.9230   20.2240 C   0  0  0  0  0  3  0  0  0  0  0  0
  -28.1120  -25.6550   20.2810 O   0  0  0  0  0  0  0  0  0  0  0  0
  -24.6520  -31.9230   23.2160 C   0  0  0  0  0  0  0  0  0  0  0  0
  -27.1340  -26.8470   20.2390 C   0  0  0  0  0  0  0  0  0  0  0  0
  -23.4440  -30.5170   21.6020 C   0  0  0  0  0  3  0  0  0  0  0  0
  -24.8710  -28.8620   20.1860 C   0  0  0  0  0  0  0  0  0  0  0  0
  -26.0190  -30.6610   21.4500 C   0  0  0  0  0  2  0  0  0  0  0  0
  -26.0730  -29.2260   20.8050 C   0  0  0  0  0  0  0  0  0  0  0  0
  -27.1920  -28.2460   20.7970 C   0  0  0  0  0  3  0  0  0  0  0  0
  -25.8970  -26.6800   19.5670 C   0  0  0  0  0  3  0  0  0  0  0  0
  -24.8190  -27.6140   19.5450 C   0  0  0  0  0  3  0  0  0  0  0  0
  -23.6680  -29.8140   20.2320 C   0  0  0  0  0  2  0  0  0  0  0  0
  -24.7300  -31.0660   22.1420 N   0  0  0  0  0  0  0  0  0  0  0  0
  -23.5640  -32.2300   23.7360 O   0  0  0  0  0  0  0  0  0  0  0  0
  -22.7370  -29.5470   22.5850 C   0  0  0  0  0  0  0  0  0  0  0  0
  -21.4070  -29.3790   22.4590 N   0  0  0  0  0  0  0  0  0  0  0  0
  -23.3970  -28.9410   23.4330 O   0  0  0  0  0  0  0  0  0  0  0  0
  -20.9260  -29.9190   21.7550 H   0  0  0  0  0  0  0  0  0  0  0  0
  -18.0310  -28.1380   22.9760 C   0  0  0  0  0  0  0  0  0  0  0  0
  -20.5870  -28.4490   23.2450 C   0  0  0  0  0  3  0  0  0  0  0  0
  -20.7090  -27.0060   22.7030 C   0  0  0  0  0  2  0  0  0  0  0  0
  -19.6180  -26.6460   21.6890 C   0  0  0  0  0  2  0  0  0  0  0  0
  -18.2310  -26.7820   22.3220 C   0  0  0  0  0  2  0  0  0  0  0  0
  -19.1360  -28.9280   23.3940 C   0  0  0  0  0  0  0  0  0  0  0  0
  -18.8930  -30.1930   23.9720 C   0  0  0  0  0  3  0  0  0  0  0  0
  -17.5790  -30.6730   24.1300 C   0  0  0  0  0  3  0  0  0  0  0  0
  -16.4890  -29.8830   23.7220 C   0  0  0  0  0  3  0  0  0  0  0  0
  -16.7150  -28.6180   23.1530 C   0  0  0  0  0  3  0  0  0  0  0  0
  -25.9240  -32.5720   23.8410 C   0  0  0  0  0  3  0  0  0  0  0  0
  -26.4270  -31.8250   25.1380 C   0  0  1  0  0  0  0  0  0  0  0  0
  -25.3250  -31.6180   26.2060 C   0  0  0  0  0  1  0  0  0  0  0  0
  -27.0020  -30.4350   24.7900 C   0  0  0  0  0  1  0  0  0  0  0  0
  -27.5830  -32.6240   25.7880 C   0  0  0  0  0  1  0  0  0  0  0  0
  -25.6120  -33.9780   24.1630 N   0  0  0  0  0  0  0  0  0  0  0  0
  -25.9180  -35.0340   23.3970 C   0  0  0  0  0  0  0  0  0  0  0  0
  -26.5530  -34.9270   22.3450 O   0  0  0  0  0  0  0  0  0  0  0  0
  -25.0400  -34.1360   24.9820 H   0  0  0  0  0  0  0  0  0  0  0  0
  -24.1700  -36.8290   23.1180 C   0  0  0  0  0  1  0  0  0  0  0  0
  -25.4530  -36.4290   23.8670 C   0  0  0  0  0  3  0  0  0  0  0  0
  -27.6180  -37.3360   24.5910 C   0  0  0  0  0  1  0  0  0  0  0  0
  -26.4740  -37.4840   23.6940 N   0  0  0  0  0  0  0  0  0  0  0  0
  -26.0720  -38.4040   23.8470 H   0  0  0  0  0  0  0  0  0  0  0  0
  1  2  1  0
  3  2  1  0
  3 42  1  0
  4 12  1  0
  5 10  1  0
  6  7  1  0
  6  5  1  0
  8  7  1  0
  8 17  1  0
  8  9  1  0
 10  4  1  0
 10  9  1  0
 11  4  2  0
 12  3  2  0
 12 13  1  0
 14 15  2  0
 15 34  1  0
 16 15  1  0
 16 19  1  0
 17 18  1  0
 17 14  1  0
 18 16  2  0
 19 20  1  0
 20 21  2  0
 22 25  1  0
 22 21  1  0
 23 22  2  0
 24 23  1  0
 24 19  2  0
 25 26  1  0
 26 27  1  0
 27 28  2  0
 29 28  1  0
 29 33  1  0
 30 29  2  0
 31 26  2  0
 31 30  1  0
 32 31  1  0
 34 35  1  0
 35 38  1  0
 35 37  1  0
 36 34  2  0
 39 40  1  0
 39 14  1  0
 41 39  1  0
 42 44  2  0
 43 42  1  0
 45  1  2  0
 45 46  1  0
 47 58  2  0
 48 46  1  0
 48 53  1  0
 49 57  1  0
 49 59  1  0
 50 56  1  0
 50 52  1  0
 51 57  1  0
 52 51  1  0
 53 52  2  0
 54 48  2  0
 55 54  1  0
 55 50  2  0
 56 49  1  0
 57 47  1  0
 59 61  2  0
 60 59  1  0
 62 60  1  0
 63 72  2  0
 63 68  1  0
 64 60  1  0
 64 68  1  0
 65 64  1  0
 66 67  1  0
 66 65  1  0
 67 63  1  0
 68 69  2  0
 69 70  1  0
 71 70  2  0
 72 71  1  0
 73 47  1  0
 73 78  1  0
 73 74  1  0
 74 77  1  1
 74 75  1  0
 76 74  1  0
 78 81  1  0
 79 83  1  0
 79 78  1  0
 80 79  2  0
 83 82  1  0
 85 86  1  0
 85 83  1  0
 85 84  1  0
M  ISO  4   4 100  12 100  45 101  46 101
M  END
>  <TORSDO>  (3) 
F 20

>  <SCORE>  (3) 
-16.389

>  <name>  (3) 
2

>  <ligand_id>  (3) 
2

>  <original_smiles>  (3) 
[H]c1c([H])c([H])c2c(c1[H])C([H])([H])C([H])([H])C([H])([H])C2([H])N([H])C(=O)C1([H])N(C(=O)C([H])(N([H])C(=O)C([H])(N([H])C([H])([H])[H])C([H])([H])[H])C(C([H])([H])[H])(C([H])([H])[H])C([H])([H])[H])C([H])([H])c2c([H])c(OC([H])([H])C([H])([H])C([H])([H])C([H])(C(=O)C([H])([H])[H])N([H])C(=O)N3C([H])([H])C([H])([H])C([H])([H])C([H])(n4nc(-c5c([H])c([H])c(Oc6c([H])c([H])c(F)c([H])c6F)c([H])c5[H])c(C(=O)N([H])[H])c4N([H])[H])C3([H])[H])c([H])c([H])c2C1([H])[H]

>  <smiles>  (3) 
[H]c1c([H])c([H])c2c(c1[H])C([H])([H])C([H])([H])C([H])([H])C2([H])N([H])C(=O)C1([H])N(C(=O)C([H])(N([H])C(=O)C([H])(N([H])C([H])([H])[H])C([H])([H])[H])C(C([H])([H])[H])(C([H])([H])[H])C([H])([H])[H])C([H])([H])c2c([H])c(OC([H])([H])C([H])([H])C([H])([H])C([H])(C(=O)C([H])([H])[H])N([H])C(=O)N3C([H])([H])C([H])([H])C([H])([H])C([H])(n4nc(-c5c([H])c([H])c(Oc6c([H])c([H])c(F)c([H])c6F)c([H])c5[H])c(C(=O)N([H])[H])c4N([H])[H])C3([H])[H])c([H])c([H])c2C1([H])[H]

$$$$
3:0:0
     RDKit          3D

 90 97  0  0  1  0  0  0  0  0999 V2000
  -29.2670  -22.5990   19.6860 C   0  0  0  0  0  3  0  0  0  0  0  0
  -30.0950  -23.7450   17.4750 C   0  0  0  0  0  1  0  0  0  0  0  0
  -30.3370  -22.6870   18.5640 C   0  0  0  0  0  2  0  0  0  0  0  0
  -29.1420  -24.0000   20.4170 C   0  0  0  0  0  0  0  0  0  0  0  0
  -29.8680  -24.2660   21.3800 O   0  0  0  0  0  0  0  0  0  0  0  0
  -28.0870  -25.0460   19.8970 C   0  0  0  0  0  2  0  0  0  0  0  0
  -28.3060  -26.4700   20.2330 O   0  0  0  0  0  0  0  0  0  0  0  0
  -24.5990  -31.8720   23.2360 C   0  0  0  0  0  0  0  0  0  0  0  0
  -27.1880  -27.3170   20.1700 C   0  0  0  0  0  0  0  0  0  0  0  0
  -23.3830  -30.4750   21.6030 C   0  0  0  0  0  3  0  0  0  0  0  0
  -24.8220  -28.9250   20.1720 C   0  0  0  0  0  0  0  0  0  0  0  0
  -25.9210  -30.7880   21.4110 C   0  0  0  0  0  2  0  0  0  0  0  0
  -25.9950  -29.4130   20.7650 C   0  0  0  0  0  0  0  0  0  0  0  0
  -27.1790  -28.6170   20.7590 C   0  0  0  0  0  3  0  0  0  0  0  0
  -25.9920  -26.8880   19.5420 C   0  0  0  0  0  3  0  0  0  0  0  0
  -24.8240  -27.6690   19.5520 C   0  0  0  0  0  3  0  0  0  0  0  0
  -23.5880  -29.8000   20.2230 C   0  0  0  0  0  2  0  0  0  0  0  0
  -24.6530  -31.0620   22.1390 N   0  0  0  0  0  0  0  0  0  0  0  0
  -23.5190  -32.1550   23.7750 O   0  0  0  0  0  0  0  0  0  0  0  0
  -22.7230  -29.4610   22.5660 C   0  0  0  0  0  0  0  0  0  0  0  0
  -21.3980  -29.2830   22.4400 N   0  0  0  0  0  0  0  0  0  0  0  0
  -23.4020  -28.8380   23.3870 O   0  0  0  0  0  0  0  0  0  0  0  0
  -20.9100  -29.8350   21.7490 H   0  0  0  0  0  0  0  0  0  0  0  0
  -18.0210  -28.0840   22.9340 C   0  0  0  0  0  0  0  0  0  0  0  0
  -20.5760  -28.3510   23.2150 C   0  0  0  0  0  3  0  0  0  0  0  0
  -20.6850  -26.9140   22.6510 C   0  0  0  0  0  2  0  0  0  0  0  0
  -19.5880  -26.5810   21.6350 C   0  0  0  0  0  2  0  0  0  0  0  0
  -18.2030  -26.7300   22.2710 C   0  0  0  0  0  2  0  0  0  0  0  0
  -19.1360  -28.8520   23.3630 C   0  0  0  0  0  0  0  0  0  0  0  0
  -18.9120  -30.1190   23.9430 C   0  0  0  0  0  3  0  0  0  0  0  0
  -17.6060  -30.6190   24.0990 C   0  0  0  0  0  3  0  0  0  0  0  0
  -16.5050  -29.8490   23.6870 C   0  0  0  0  0  3  0  0  0  0  0  0
  -16.7140  -28.5840   23.1110 C   0  0  0  0  0  3  0  0  0  0  0  0
  -25.8870  -32.5000   23.8520 C   0  0  0  0  0  3  0  0  0  0  0  0
  -25.5840  -33.8990   24.1820 N   0  0  0  0  0  0  0  0  0  0  0  0
  -25.9120  -34.9500   23.4190 C   0  0  0  0  0  0  0  0  0  0  0  0
  -26.5720  -34.8450   22.3820 O   0  0  0  0  0  0  0  0  0  0  0  0
  -24.9970  -34.0560   24.9890 H   0  0  0  0  0  0  0  0  0  0  0  0
  -24.1820  -36.7460   23.0820 C   0  0  0  0  0  1  0  0  0  0  0  0
  -25.4320  -36.3410   23.8800 C   0  0  0  0  0  3  0  0  0  0  0  0
  -27.5780  -37.2230   24.6830 C   0  0  0  0  0  1  0  0  0  0  0  0
  -26.4650  -37.3920   23.7520 N   0  0  0  0  0  0  0  0  0  0  0  0
  -26.0620  -38.3130   23.9040 H   0  0  0  0  0  0  0  0  0  0  0  0
  -26.4070  -31.7280   25.1260 C   0  0  1  0  0  0  0  0  0  0  0  0
  -25.3180  -31.4960   26.2000 C   0  0  0  0  0  1  0  0  0  0  0  0
  -26.9820  -30.3470   24.7330 C   0  0  0  0  0  1  0  0  0  0  0  0
  -27.5640  -32.5170   25.7810 C   0  0  0  0  0  1  0  0  0  0  0  0
  -29.5490  -21.3180   20.6040 C   0  0  0  0  0  2  0  0  0  0  0  0
  -29.5210  -19.8710   19.9260 C   0  0  0  0  0  3  0  0  0  0  0  0
  -29.8460  -18.5850   20.8100 C   0  0  0  0  0  3  0  0  0  0  0  0
  -29.7820  -17.1710   20.1140 C   0  0  0  0  0  0  0  0  0  0  0  0
  -29.5430  -17.0880   18.8720 N   0  0  0  0  0  0  0  0  0  0  0  0
  -29.4440  -18.0010   18.4420 H   0  0  0  0  0  0  0  0  0  0  0  0
  -29.9390  -15.8850   21.0090 C   0  0  0  0  0  2  0  0  0  0  0  0
  -30.6190  -14.6020   20.3720 C   0  0  0  0  0  0  0  0  0  0  0  0
  -30.3600  -12.3920   19.2510 C   0  0  0  0  0  2  0  0  0  0  0  0
  -29.4070  -12.5580   18.0470 C   0  0  0  0  0  2  0  0  0  0  0  0
  -27.9350  -12.4110   18.4820 C   0  0  0  0  0  2  0  0  0  0  0  0
  -27.6010  -13.2530   19.7430 C   0  0  0  0  0  3  0  0  0  0  0  0
  -28.6670  -13.0500   20.8420 C   0  0  0  0  0  2  0  0  0  0  0  0
  -29.9740  -13.3950   20.2640 N   0  0  0  0  0  0  0  0  0  0  0  0
  -31.7620  -14.7260   19.9120 O   0  0  0  0  0  0  0  0  0  0  0  0
  -25.2110  -13.8640   20.4630 C   0  0  0  0  0  0  0  0  0  0  0  0
  -24.1430  -13.0970   20.8420 C   0  0  0  0  0  0  0  0  0  0  0  0
  -24.5990  -11.7430   20.8180 C   0  0  0  0  0  0  0  0  0  0  0  0
  -26.2520  -12.9790   20.2330 N   0  0  0  0  0  0  0  0  0  0  0  0
  -25.8890  -11.6990   20.5040 N   0  0  0  0  0  0  0  0  0  0  0  0
  -23.8680  -10.4860   21.0200 C   0  0  0  0  0  0  0  0  0  0  0  0
  -24.3110   -9.5140   21.9440 C   0  0  0  0  0  3  0  0  0  0  0  0
  -23.5820   -8.3210   22.1330 C   0  0  0  0  0  3  0  0  0  0  0  0
  -22.3940   -8.0900   21.3990 C   0  0  0  0  0  0  0  0  0  0  0  0
  -21.9690   -9.0510   20.4630 C   0  0  0  0  0  3  0  0  0  0  0  0
  -22.7000  -10.2360   20.2720 C   0  0  0  0  0  3  0  0  0  0  0  0
  -21.6350   -6.9500   21.4980 O   0  0  0  0  0  0  0  0  0  0  0  0
  -21.6150   -6.1960   22.6450 C   0  0  0  0  0  0  0  0  0  0  0  0
  -21.2380   -6.7440   23.8900 C   0  0  0  0  0  3  0  0  0  0  0  0
  -21.1640   -5.9170   25.0300 C   0  0  0  0  0  3  0  0  0  0  0  0
  -21.4560   -4.5450   24.9240 C   0  0  0  0  0  0  0  0  0  0  0  0
  -21.8250   -3.9960   23.6840 C   0  0  0  0  0  3  0  0  0  0  0  0
  -21.9010   -4.8200   22.5470 C   0  0  0  0  0  0  0  0  0  0  0  0
  -22.2360   -4.2830   21.3500 F   0  0  0  0  0  0  0  0  0  0  0  0
  -21.3770   -3.7480   26.0160 F   0  0  0  0  0  0  0  0  0  0  0  0
  -22.7480  -13.5820   21.1170 C   0  0  0  0  0  0  0  0  0  0  0  0
  -22.0230  -12.8940   21.9930 N   0  0  0  0  0  0  0  0  0  0  0  0
  -22.3110  -14.6060   20.5930 O   0  0  0  0  0  0  0  0  0  0  0  0
  -22.3890  -12.0670   22.4400 H   0  0  0  0  0  0  0  0  0  0  0  0
  -21.0880  -13.2020   22.2200 H   0  0  0  0  0  0  0  0  0  0  0  0
  -25.3820  -15.2330   20.2760 N   0  0  0  0  0  0  0  0  0  0  0  0
  -24.6180  -15.8920   20.3740 H   0  0  0  0  0  0  0  0  0  0  0  0
  -26.2320  -15.6600   19.9300 H   0  0  0  0  0  0  0  0  0  0  0  0
  1  3  1  0
  1  4  1  0
  1 48  1  0
  2  3  1  0
  4  5  2  0
  6  7  1  0
  6  4  1  0
  8 19  2  0
  9  7  1  0
  9 14  1  0
 10 18  1  0
 10 20  1  0
 11 17  1  0
 11 13  1  0
 12 18  1  0
 13 12  1  0
 14 13  2  0
 15 16  1  0
 15  9  2  0
 16 11  2  0
 17 10  1  0
 18  8  1  0
 20 22  2  0
 21 20  1  0
 23 21  1  0
 24 33  2  0
 24 29  1  0
 25 21  1  0
 25 29  1  0
 26 25  1  0
 27 28  1  0
 27 26  1  0
 28 24  1  0
 29 30  2  0
 30 31  1  0
 32 31  2  0
 33 32  1  0
 34  8  1  0
 34 35  1  0
 34 44  1  0
 35 38  1  0
 36 40  1  0
 36 35  1  0
 37 36  2  0
 40 39  1  0
 42 40  1  0
 42 43  1  0
 42 41  1  0
 44 47  1  1
 44 45  1  0
 46 44  1  0
 49 48  1  0
 49 50  2  0
 51 50  1  0
 51 54  1  0
 52 51  2  0
 53 52  1  0
 55 54  1  0
 56 61  1  0
 57 58  1  0
 57 56  1  0
 59 58  1  0
 59 66  1  0
 59 60  1  0
 61 55  1  0
 61 60  1  0
 62 55  2  0
 63 64  2  0
 64 83  1  0
 65 64  1  0
 65 68  1  0
 66 63  1  0
 66 67  1  0
 67 65  2  0
 68 69  1  0
 69 70  2  0
 71 74  1  0
 71 70  1  0
 72 71  2  0
 73 72  1  0
 73 68  2  0
 74 75  1  0
 75 76  1  0
 76 77  2  0
 78 77  1  0
 78 82  1  0
 79 78  2  0
 80 75  2  0
 80 79  1  0
 81 80  1  0
 83 84  1  0
 84 87  1  0
 84 86  1  0
 85 83  2  0
 88 89  1  0
 88 63  1  0
 90 88  1  0
M  ISO  4   6 101   7 101  54 100  55 100
M  END
>  <TORSDO>  (4) 
F 24

>  <SCORE>  (4) 
-12.494

>  <name>  (4) 
3

>  <ligand_id>  (4) 
3

>  <original_smiles>  (4) 
[H]N=C(C([H])([H])C(=O)N1C([H])([H])C([H])([H])C([H])([H])C([H])(n2nc(-c3c([H])c([H])c(Oc4c([H])c([H])c(F)c([H])c4F)c([H])c3[H])c(C(=O)N([H])[H])c2N([H])[H])C1([H])[H])C([H])([H])C([H])([H])C([H])([H])C([H])(C(=O)C([H])([H])Oc1c([H])c([H])c2c(c1[H])C([H])([H])N(C(=O)C([H])(N([H])C(=O)C([H])(N([H])C([H])([H])[H])C([H])([H])[H])C(C([H])([H])[H])(C([H])([H])[H])C([H])([H])[H])C([H])(C(=O)N([H])C1([H])c3c([H])c([H])c([H])c([H])c3C([H])([H])C([H])([H])C1([H])[H])C2([H])[H])C([H])([H])C([H])([H])[H]

>  <smiles>  (4) 
[H]N=C(C([H])([H])C(=O)N1C([H])([H])C([H])([H])C([H])([H])C([H])(n2nc(-c3c([H])c([H])c(Oc4c([H])c([H])c(F)c([H])c4F)c([H])c3[H])c(C(=O)N([H])[H])c2N([H])[H])C1([H])[H])C([H])([H])C([H])([H])C([H])([H])C([H])(C(=O)C([H])([H])Oc1c([H])c([H])c2c(c1[H])C([H])([H])N(C(=O)C([H])(N([H])C(=O)C([H])(N([H])C([H])([H])[H])C([H])([H])[H])C(C([H])([H])[H])(C([H])([H])[H])C([H])([H])[H])C([H])(C(=O)N([H])C1([H])c3c([H])c([H])c([H])c([H])c3C([H])([H])C([H])([H])C1([H])[H])C2([H])[H])C([H])([H])C([H])([H])[H]

$$$$
4:0:0
     RDKit          3D

 98106  0  0  1  0  0  0  0  0999 V2000
  -27.2540  -22.5900   21.7130 C   0  0  0  0  0  0  0  0  0  0  0  0
  -28.4090  -22.8830   19.6220 C   0  0  0  0  0  2  0  0  0  0  0  0
  -28.3350  -21.9510   20.8470 C   0  0  0  0  0  3  0  0  0  0  0  0
  -26.7450  -23.8680   21.0700 C   0  0  0  0  0  3  0  0  0  0  0  0
  -27.8690  -24.2490   20.0840 C   0  0  0  0  0  3  0  0  0  0  0  0
  -26.8750  -22.1200   22.7900 O   0  0  0  0  0  0  0  0  0  0  0  0
  -26.4890  -24.8460   22.1370 N   0  0  0  0  0  4  0  0  0  0  0  0
  -27.3380  -25.0880   22.6140 H   0  0  0  0  0  0  0  0  0  0  0  0
  -25.8710  -24.4160   22.8040 H   0  0  0  0  0  0  0  0  0  0  0  0
  -26.0500  -25.6740   21.7760 H   0  0  0  0  0  0  0  0  0  0  0  0
  -28.0410  -20.4670   20.5440 C   0  0  0  0  0  2  0  0  0  0  0  0
  -28.8710  -19.8240   19.4080 C   0  0  0  0  0  3  0  0  0  0  0  0
  -31.2580  -20.4100   20.2990 C   0  0  0  0  0  1  0  0  0  0  0  0
  -30.2250  -20.5380   19.1670 C   0  0  0  0  0  2  0  0  0  0  0  0
  -29.0220  -18.3110   19.6890 C   0  0  0  0  0  2  0  0  0  0  0  0
  -30.2060  -17.7920   17.4840 C   0  0  0  0  0  1  0  0  0  0  0  0
  -30.2090  -17.5830   19.0180 C   0  0  0  0  0  3  0  0  0  0  0  0
  -30.9620  -15.1620   19.2350 C   0  0  0  0  0  0  0  0  0  0  0  0
  -30.9430  -12.7240   18.9310 C   0  0  0  0  0  2  0  0  0  0  0  0
  -29.9520  -12.3930   17.7960 C   0  0  0  0  0  2  0  0  0  0  0  0
  -28.5170  -12.2420   18.3410 C   0  0  0  0  0  2  0  0  0  0  0  0
  -28.0940  -13.4100   19.2780 C   0  0  0  0  0  3  0  0  0  0  0  0
  -29.2030  -13.7100   20.3140 C   0  0  0  0  0  2  0  0  0  0  0  0
  -30.4620  -13.9470   19.5830 N   0  0  0  0  0  0  0  0  0  0  0  0
  -32.0480  -15.3200   18.6780 O   0  0  0  0  0  0  0  0  0  0  0  0
  -30.0940  -16.1710   19.3940 N   0  0  0  0  0  0  0  0  0  0  0  0
  -29.2230  -15.9020   19.8220 H   0  0  0  0  0  0  0  0  0  0  0  0
  -25.8540  -14.0410   20.3870 C   0  0  0  0  0  0  0  0  0  0  0  0
  -24.8040  -13.2820   20.8290 C   0  0  0  0  0  0  0  0  0  0  0  0
  -25.1780  -11.9230   20.5980 C   0  0  0  0  0  0  0  0  0  0  0  0
  -26.8050  -13.1460   19.9180 N   0  0  0  0  0  0  0  0  0  0  0  0
  -26.4070  -11.8610   20.0990 N   0  0  0  0  0  0  0  0  0  0  0  0
  -24.4160  -10.6800   20.7710 C   0  0  0  0  0  0  0  0  0  0  0  0
  -24.8340   -9.6730   21.6680 C   0  0  0  0  0  3  0  0  0  0  0  0
  -24.0730   -8.4960   21.8280 C   0  0  0  0  0  3  0  0  0  0  0  0
  -22.8780   -8.3150   21.0920 C   0  0  0  0  0  0  0  0  0  0  0  0
  -22.4760   -9.3120   20.1850 C   0  0  0  0  0  3  0  0  0  0  0  0
  -23.2370  -10.4820   20.0230 C   0  0  0  0  0  3  0  0  0  0  0  0
  -22.0930   -7.1900   21.1660 O   0  0  0  0  0  0  0  0  0  0  0  0
  -21.8960   -6.5220   22.3490 C   0  0  0  0  0  0  0  0  0  0  0  0
  -21.3380   -7.1570   23.4800 C   0  0  0  0  0  3  0  0  0  0  0  0
  -21.0890   -6.4160   24.6520 C   0  0  0  0  0  3  0  0  0  0  0  0
  -21.3850   -5.0430   24.6950 C   0  0  0  0  0  0  0  0  0  0  0  0
  -21.9330   -4.4040   23.5680 C   0  0  0  0  0  3  0  0  0  0  0  0
  -22.1870   -5.1430   22.3980 C   0  0  0  0  0  0  0  0  0  0  0  0
  -22.6960   -4.5200   21.3080 F   0  0  0  0  0  0  0  0  0  0  0  0
  -21.1400   -4.3300   25.8180 F   0  0  0  0  0  0  0  0  0  0  0  0
  -23.4890  -13.7870   21.3480 C   0  0  0  0  0  0  0  0  0  0  0  0
  -22.8580  -13.0500   22.2560 N   0  0  0  0  0  0  0  0  0  0  0  0
  -23.0300  -14.8700   20.9840 O   0  0  0  0  0  0  0  0  0  0  0  0
  -23.2410  -12.1730   22.5780 H   0  0  0  0  0  0  0  0  0  0  0  0
  -21.9810  -13.3700   22.6410 H   0  0  0  0  0  0  0  0  0  0  0  0
  -26.0730  -15.4140   20.3270 N   0  0  0  0  0  0  0  0  0  0  0  0
  -25.3840  -16.0860   20.6500 H   0  0  0  0  0  0  0  0  0  0  0  0
  -26.9050  -15.8470   19.9450 H   0  0  0  0  0  0  0  0  0  0  0  0
  -27.4130  -25.1760   18.9340 C   0  0  0  0  0  2  0  0  0  0  0  0
  -28.0750  -26.5700   18.9640 C   0  0  0  0  0  2  0  0  0  0  0  0
  -27.5260  -27.4380   17.9700 O   0  0  0  0  0  0  0  0  0  0  0  0
  -24.4710  -31.5010   22.9450 C   0  0  0  0  0  0  0  0  0  0  0  0
  -26.3920  -28.0890   18.3920 C   0  0  0  0  0  0  0  0  0  0  0  0
  -22.9340  -30.4410   21.3220 C   0  0  0  0  0  3  0  0  0  0  0  0
  -24.0460  -29.3710   19.2910 C   0  0  0  0  0  0  0  0  0  0  0  0
  -25.3460  -30.9960   20.6720 C   0  0  0  0  0  2  0  0  0  0  0  0
  -25.3010  -29.8230   19.7200 C   0  0  0  0  0  0  0  0  0  0  0  0
  -26.4820  -29.1860   19.2730 C   0  0  0  0  0  3  0  0  0  0  0  0
  -25.1240  -27.6540   17.9510 C   0  0  0  0  0  3  0  0  0  0  0  0
  -23.9510  -28.2820   18.4070 C   0  0  0  0  0  3  0  0  0  0  0  0
  -22.8340  -30.1130   19.8090 C   0  0  0  0  0  2  0  0  0  0  0  0
  -24.2800  -30.9800   21.7010 N   0  0  0  0  0  0  0  0  0  0  0  0
  -23.5390  -31.5740   23.7580 O   0  0  0  0  0  0  0  0  0  0  0  0
  -22.5310  -29.1840   22.1240 C   0  0  0  0  0  0  0  0  0  0  0  0
  -21.2380  -28.8380   22.0810 N   0  0  0  0  0  0  0  0  0  0  0  0
  -23.3780  -28.5290   22.7430 O   0  0  0  0  0  0  0  0  0  0  0  0
  -20.6130  -29.4330   21.5550 H   0  0  0  0  0  0  0  0  0  0  0  0
  -18.1670  -26.9640   22.4180 C   0  0  0  0  0  0  0  0  0  0  0  0
  -20.6300  -27.6800   22.7340 C   0  0  0  0  0  3  0  0  0  0  0  0
  -20.9980  -26.3660   22.0060 C   0  0  0  0  0  2  0  0  0  0  0  0
  -19.9680  -25.9530   20.9500 C   0  0  0  0  0  2  0  0  0  0  0  0
  -18.5860  -25.7640   21.5830 C   0  0  0  0  0  2  0  0  0  0  0  0
  -19.1250  -27.8710   22.9430 C   0  0  0  0  0  0  0  0  0  0  0  0
  -18.6800  -28.9900   23.6810 C   0  0  0  0  0  3  0  0  0  0  0  0
  -17.3060  -29.2040   23.9040 C   0  0  0  0  0  3  0  0  0  0  0  0
  -16.3630  -28.2940   23.3970 C   0  0  0  0  0  3  0  0  0  0  0  0
  -16.7940  -27.1780   22.6550 C   0  0  0  0  0  3  0  0  0  0  0  0
  -25.8590  -32.0500   23.4020 C   0  0  0  0  0  3  0  0  0  0  0  0
  -26.6100  -31.0860   24.4000 C   0  0  1  0  0  0  0  0  0  0  0  0
  -25.7440  -30.6430   25.6040 C   0  0  0  0  0  1  0  0  0  0  0  0
  -27.0910  -29.8120   23.6690 C   0  0  0  0  0  1  0  0  0  0  0  0
  -27.8770  -31.7850   24.9530 C   0  0  0  0  0  1  0  0  0  0  0  0
  -25.6350  -33.3630   24.0190 N   0  0  0  0  0  0  0  0  0  0  0  0
  -25.8660  -34.5360   23.4140 C   0  0  0  0  0  0  0  0  0  0  0  0
  -26.3690  -34.6200   22.2900 O   0  0  0  0  0  0  0  0  0  0  0  0
  -25.1790  -33.3700   24.9200 H   0  0  0  0  0  0  0  0  0  0  0  0
  -24.1510  -36.3610   23.6270 C   0  0  0  0  0  1  0  0  0  0  0  0
  -25.4800  -35.8180   24.1780 C   0  0  0  0  0  3  0  0  0  0  0  0
  -27.7290  -36.5310   24.8550 C   0  0  0  0  0  1  0  0  0  0  0  0
  -26.5160  -36.8720   24.1160 N   0  0  0  0  0  0  0  0  0  0  0  0
  -26.1600  -37.7490   24.4850 H   0  0  0  0  0  0  0  0  0  0  0  0
  1  6  2  0
  2  5  1  0
  2  3  1  0
  3 11  1  0
  3  1  1  0
  4  1  1  0
  4  7  1  0
  5 56  1  0
  5  4  1  0
  7  8  1  0
  7  9  1  0
 10  7  1  0
 12 14  1  0
 12 15  1  0
 12 11  1  0
 14 13  1  0
 17 16  1  0
 17 26  1  0
 17 15  1  0
 18 26  1  0
 18 24  1  0
 19 24  1  0
 20 21  1  0
 20 19  1  0
 22 21  1  0
 22 31  1  0
 22 23  1  0
 24 23  1  0
 25 18  2  0
 26 27  1  0
 28 29  2  0
 29 48  1  0
 30 33  1  0
 30 29  1  0
 31 32  1  0
 31 28  1  0
 32 30  2  0
 33 34  1  0
 34 35  2  0
 36 39  1  0
 36 35  1  0
 37 36  2  0
 38 37  1  0
 38 33  2  0
 39 40  1  0
 40 45  2  0
 40 41  1  0
 41 42  2  0
 42 43  1  0
 43 47  1  0
 44 43  2  0
 45 44  1  0
 46 45  1  0
 48 49  1  0
 49 51  1  0
 49 52  1  0
 50 48  2  0
 53 28  1  0
 53 54  1  0
 55 53  1  0
 56 57  1  0
 58 60  1  0
 58 57  1  0
 59 70  2  0
 60 65  1  0
 61 69  1  0
 61 71  1  0
 62 64  1  0
 62 68  1  0
 63 69  1  0
 64 63  1  0
 65 64  2  0
 66 60  2  0
 66 67  1  0
 67 62  2  0
 68 61  1  0
 69 59  1  0
 71 73  2  0
 72 71  1  0
 74 72  1  0
 75 84  2  0
 75 80  1  0
 76 72  1  0
 76 80  1  0
 77 76  1  0
 78 79  1  0
 78 77  1  0
 79 75  1  0
 80 81  2  0
 81 82  1  0
 83 82  2  0
 84 83  1  0
 85 59  1  0
 85 90  1  0
 85 86  1  0
 86 89  1  1
 86 87  1  0
 88 86  1  0
 90 93  1  0
 91 90  1  0
 91 95  1  0
 92 91  2  0
 95 94  1  0
 97 95  1  0
 97 98  1  0
 97 96  1  0
M  ISO  4  18 100  26 100  57 101  58 101
M  END
>  <TORSDO>  (5) 
F 24

>  <SCORE>  (5) 
-8.278

>  <name>  (5) 
4

>  <ligand_id>  (5) 
4

>  <original_smiles>  (5) 
[H]c1c([H])c([H])c2c(c1[H])C([H])([H])C([H])([H])C([H])([H])C2([H])N([H])C(=O)C1([H])N(C(=O)C([H])(N([H])C(=O)C([H])(N([H])C([H])([H])[H])C([H])([H])[H])C(C([H])([H])[H])(C([H])([H])[H])C([H])([H])[H])C([H])([H])c2c([H])c(OC([H])([H])C([H])([H])C3([H])C([H])([H])C([H])(C([H])([H])C([H])(C([H])([H])C([H])([H])[H])C([H])([H])C([H])(N([H])C(=O)N4C([H])([H])C([H])([H])C([H])([H])C([H])(n5nc(-c6c([H])c([H])c(Oc7c([H])c([H])c(F)c([H])c7F)c([H])c6[H])c(C(=O)N([H])[H])c5N([H])[H])C4([H])[H])C([H])([H])[H])C(=O)C3([H])[N+]([H])([H])[H])c([H])c([H])c2C1([H])[H]

>  <smiles>  (5) 
[H]c1c([H])c([H])c2c(c1[H])C([H])([H])C([H])([H])C([H])([H])C2([H])N([H])C(=O)C1([H])N(C(=O)C([H])(N([H])C(=O)C([H])(N([H])C([H])([H])[H])C([H])([H])[H])C(C([H])([H])[H])(C([H])([H])[H])C([H])([H])[H])C([H])([H])c2c([H])c(OC([H])([H])C([H])([H])C3([H])C([H])([H])C([H])(C([H])([H])C([H])(C([H])([H])C([H])([H])[H])C([H])([H])C([H])(N([H])C(=O)N4C([H])([H])C([H])([H])C([H])([H])C([H])(n5nc(-c6c([H])c([H])c(Oc7c([H])c([H])c(F)c([H])c7F)c([H])c6[H])c(C(=O)N([H])[H])c5N([H])[H])C4([H])[H])C([H])([H])[H])C(=O)C3([H])[N+]([H])([H])[H])c([H])c([H])c2C1([H])[H]

$$$$
5:0:0
     RDKit          3D

 93101  0  0  1  0  0  0  0  0999 V2000
  -31.4340  -19.3870   21.7050 C   0  0  0  0  0  3  0  0  0  0  0  0
  -30.5750  -18.1830   22.0550 C   0  0  0  0  0  2  0  0  0  0  0  0
  -29.0860  -18.8530   20.1630 C   0  0  0  0  0  2  0  0  0  0  0  0
  -30.0570  -17.6230   20.7010 C   0  0  0  0  0  3  0  0  0  0  0  0
  -29.5070  -20.4230   20.5430 C   0  0  0  0  0  3  0  0  0  0  0  0
  -30.9690  -20.3710   20.8730 N   0  0  0  0  0  0  0  0  0  0  0  0
  -32.6820  -19.4350   22.2220 N   0  0  0  0  0  0  0  0  0  0  0  0
  -32.9530  -18.8420   22.9930 H   0  0  0  0  0  0  0  0  0  0  0  0
  -33.3540  -20.1440   21.9590 H   0  0  0  0  0  0  0  0  0  0  0  0
  -30.4710  -14.9390   20.4160 C   0  0  0  0  0  0  0  0  0  0  0  0
  -30.3750  -12.6360   19.3960 C   0  0  0  0  0  2  0  0  0  0  0  0
  -29.4570  -12.6820   18.1550 C   0  0  0  0  0  2  0  0  0  0  0  0
  -27.9910  -12.4330   18.5470 C   0  0  0  0  0  2  0  0  0  0  0  0
  -27.5720  -13.3130   19.7570 C   0  0  0  0  0  3  0  0  0  0  0  0
  -28.6010  -13.2520   20.9070 C   0  0  0  0  0  2  0  0  0  0  0  0
  -29.8940  -13.6800   20.3450 N   0  0  0  0  0  0  0  0  0  0  0  0
  -31.6430  -15.0560   20.0340 O   0  0  0  0  0  0  0  0  0  0  0  0
  -29.6990  -16.0830   20.7200 N   0  0  0  0  0  0  0  0  0  0  0  0
  -28.7820  -15.8670   21.0860 H   0  0  0  0  0  0  0  0  0  0  0  0
  -25.1790  -13.8930   20.4470 C   0  0  0  0  0  0  0  0  0  0  0  0
  -24.1150  -13.1200   20.8130 C   0  0  0  0  0  0  0  0  0  0  0  0
  -24.5800  -11.7670   20.7950 C   0  0  0  0  0  0  0  0  0  0  0  0
  -26.2240  -13.0140   20.2240 N   0  0  0  0  0  0  0  0  0  0  0  0
  -25.8740  -11.7330   20.4950 N   0  0  0  0  0  0  0  0  0  0  0  0
  -23.8600  -10.5060   20.9920 C   0  0  0  0  0  0  0  0  0  0  0  0
  -24.2910   -9.5520   21.9410 C   0  0  0  0  0  3  0  0  0  0  0  0
  -23.5740   -8.3490   22.1230 C   0  0  0  0  0  3  0  0  0  0  0  0
  -22.4120   -8.0930   21.3550 C   0  0  0  0  0  0  0  0  0  0  0  0
  -22.0040   -9.0300   20.3950 C   0  0  0  0  0  3  0  0  0  0  0  0
  -22.7180  -10.2250   20.2100 C   0  0  0  0  0  3  0  0  0  0  0  0
  -21.6680   -6.9370   21.4460 O   0  0  0  0  0  0  0  0  0  0  0  0
  -21.6060   -6.2120   22.6050 C   0  0  0  0  0  0  0  0  0  0  0  0
  -21.1510   -6.7720   23.8190 C   0  0  0  0  0  3  0  0  0  0  0  0
  -21.0430   -5.9670   24.9690 C   0  0  0  0  0  3  0  0  0  0  0  0
  -21.3800   -4.6010   24.9090 C   0  0  0  0  0  0  0  0  0  0  0  0
  -21.8260   -4.0370   23.6990 C   0  0  0  0  0  3  0  0  0  0  0  0
  -21.9360   -4.8410   22.5500 C   0  0  0  0  0  0  0  0  0  0  0  0
  -22.3470   -4.2930   21.3820 F   0  0  0  0  0  0  0  0  0  0  0  0
  -21.2650   -3.8250   26.0100 F   0  0  0  0  0  0  0  0  0  0  0  0
  -22.7130  -13.5920   21.0670 C   0  0  0  0  0  0  0  0  0  0  0  0
  -21.9690  -12.8990   21.9240 N   0  0  0  0  0  0  0  0  0  0  0  0
  -22.2850  -14.6150   20.5340 O   0  0  0  0  0  0  0  0  0  0  0  0
  -22.3220  -12.0800   22.3910 H   0  0  0  0  0  0  0  0  0  0  0  0
  -21.0230  -13.2040   22.1150 H   0  0  0  0  0  0  0  0  0  0  0  0
  -25.3470  -15.2580   20.2600 N   0  0  0  0  0  0  0  0  0  0  0  0
  -24.5910  -15.9260   20.3620 H   0  0  0  0  0  0  0  0  0  0  0  0
  -26.2170  -15.6870   19.9660 H   0  0  0  0  0  0  0  0  0  0  0  0
  -31.9600  -22.6640   20.9300 C   0  0  0  0  0  1  0  0  0  0  0  0
  -31.9350  -21.2980   20.2490 C   0  0  0  0  0  2  0  0  0  0  0  0
  -28.9900  -21.8420   19.7480 C   0  0  0  0  0  2  0  0  0  0  0  0
  -28.5230  -23.3230   20.4320 C   0  0  0  0  0  3  0  0  0  0  0  0
  -28.4930  -24.8590   19.6950 C   0  0  0  0  0  3  0  0  0  0  0  0
  -28.3220  -26.2740   20.3230 O   0  0  0  0  0  0  0  0  0  0  0  0
  -24.5870  -31.9090   23.2500 C   0  0  0  0  0  0  0  0  0  0  0  0
  -27.2170  -27.2060   20.2290 C   0  0  0  0  0  0  0  0  0  0  0  0
  -23.3940  -30.5010   21.6060 C   0  0  0  0  0  3  0  0  0  0  0  0
  -24.8560  -28.9190   20.1960 C   0  0  0  0  0  0  0  0  0  0  0  0
  -25.9400  -30.7700   21.4560 C   0  0  0  0  0  2  0  0  0  0  0  0
  -26.0260  -29.3700   20.8220 C   0  0  0  0  0  0  0  0  0  0  0  0
  -27.1980  -28.5280   20.8290 C   0  0  0  0  0  3  0  0  0  0  0  0
  -26.0220  -26.8280   19.5890 C   0  0  0  0  0  3  0  0  0  0  0  0
  -24.8700  -27.6540   19.5630 C   0  0  0  0  0  3  0  0  0  0  0  0
  -23.6190  -29.8050   20.2340 C   0  0  0  0  0  2  0  0  0  0  0  0
  -24.6560  -31.0840   22.1580 N   0  0  0  0  0  0  0  0  0  0  0  0
  -23.4990  -32.1970   23.7770 O   0  0  0  0  0  0  0  0  0  0  0  0
  -22.7070  -29.5110   22.5760 C   0  0  0  0  0  0  0  0  0  0  0  0
  -21.3790  -29.3500   22.4530 N   0  0  0  0  0  0  0  0  0  0  0  0
  -23.3740  -28.8880   23.4080 O   0  0  0  0  0  0  0  0  0  0  0  0
  -20.8980  -29.9080   21.7640 H   0  0  0  0  0  0  0  0  0  0  0  0
  -17.9910  -28.1550   22.9450 C   0  0  0  0  0  0  0  0  0  0  0  0
  -20.5510  -28.4180   23.2240 C   0  0  0  0  0  3  0  0  0  0  0  0
  -20.6500  -26.9820   22.6600 C   0  0  0  0  0  2  0  0  0  0  0  0
  -19.5540  -26.6550   21.6410 C   0  0  0  0  0  2  0  0  0  0  0  0
  -18.1670  -26.8040   22.2750 C   0  0  0  0  0  2  0  0  0  0  0  0
  -19.1080  -28.9210   23.3770 C   0  0  0  0  0  0  0  0  0  0  0  0
  -18.8840  -30.1840   23.9620 C   0  0  0  0  0  3  0  0  0  0  0  0
  -17.5780  -30.6820   24.1290 C   0  0  0  0  0  3  0  0  0  0  0  0
  -16.4740  -29.9140   23.7120 C   0  0  0  0  0  3  0  0  0  0  0  0
  -16.6820  -28.6550   23.1190 C   0  0  0  0  0  3  0  0  0  0  0  0
  -25.8600  -32.5460   23.8830 C   0  0  0  0  0  3  0  0  0  0  0  0
  -26.3450  -31.7910   25.1840 C   0  0  1  0  0  0  0  0  0  0  0  0
  -25.2350  -31.5930   26.2460 C   0  0  0  0  0  1  0  0  0  0  0  0
  -26.9090  -30.3920   24.8350 C   0  0  0  0  0  1  0  0  0  0  0  0
  -27.4910  -32.5880   25.8520 C   0  0  0  0  0  1  0  0  0  0  0  0
  -25.5570  -33.9510   24.1910 N   0  0  0  0  0  0  0  0  0  0  0  0
  -25.9120  -34.9980   23.4300 C   0  0  0  0  0  0  0  0  0  0  0  0
  -26.5980  -34.8770   22.4120 O   0  0  0  0  0  0  0  0  0  0  0  0
  -24.9380  -34.1150   24.9720 H   0  0  0  0  0  0  0  0  0  0  0  0
  -24.2110  -36.8180   23.0360 C   0  0  0  0  0  1  0  0  0  0  0  0
  -25.4340  -36.3970   23.8660 C   0  0  0  0  0  3  0  0  0  0  0  0
  -27.5710  -37.2710   24.7190 C   0  0  0  0  0  1  0  0  0  0  0  0
  -26.4800  -37.4390   23.7620 N   0  0  0  0  0  0  0  0  0  0  0  0
  -26.0790  -38.3650   23.8930 H   0  0  0  0  0  0  0  0  0  0  0  0
  1  2  1  0
  1  7  1  0
  3  5  1  0
  3  4  1  0
  4 18  1  0
  4  2  1  0
  5 50  1  0
  5  6  1  0
  6  1  1  0
  7  8  1  0
  9  7  1  0
 10 18  1  0
 11 16  1  0
 12 13  1  0
 12 11  1  0
 14 13  1  0
 14 23  1  0
 14 15  1  0
 16 10  1  0
 16 15  1  0
 17 10  2  0
 18 19  1  0
 20 21  2  0
 21 40  1  0
 22 21  1  0
 22 25  1  0
 23 20  1  0
 23 24  1  0
 24 22  2  0
 25 26  1  0
 26 27  2  0
 28 31  1  0
 28 27  1  0
 29 28  2  0
 30 29  1  0
 30 25  2  0
 31 32  1  0
 32 33  1  0
 33 34  2  0
 35 34  1  0
 35 39  1  0
 36 35  2  0
 37 32  2  0
 37 36  1  0
 38 37  1  0
 40 41  1  0
 41 44  1  0
 41 43  1  0
 42 40  2  0
 45 46  1  0
 45 20  1  0
 47 45  1  0
 49  6  1  0
 49 48  1  0
 50 51  1  0
 52 53  1  0
 52 51  2  0
 54 65  2  0
 55 53  1  0
 55 60  1  0
 56 64  1  0
 56 66  1  0
 57 63  1  0
 57 59  1  0
 58 64  1  0
 59 60  2  0
 59 58  1  0
 61 55  2  0
 62 61  1  0
 62 57  2  0
 63 56  1  0
 64 54  1  0
 66 68  2  0
 67 66  1  0
 69 67  1  0
 70 79  2  0
 70 75  1  0
 71 67  1  0
 71 75  1  0
 72 71  1  0
 73 74  1  0
 73 72  1  0
 74 70  1  0
 75 76  2  0
 76 77  1  0
 78 77  2  0
 79 78  1  0
 80 54  1  0
 80 85  1  0
 80 81  1  0
 81 84  1  1
 81 82  1  0
 83 81  1  0
 85 88  1  0
 86 90  1  0
 86 85  1  0
 87 86  2  0
 90 89  1  0
 92 90  1  0
 92 93  1  0
 92 91  1  0
M  ISO  4  10 100  18 100  52 101  53 101
M  END
>  <TORSDO>  (6) 
F 20

>  <SCORE>  (6) 
-15.082

>  <name>  (6) 
5

>  <ligand_id>  (6) 
5

>  <original_smiles>  (6) 
[H]c1c([H])c([H])c2c(c1[H])C([H])([H])C([H])([H])C([H])([H])C2([H])N([H])C(=O)C1([H])N(C(=O)C([H])(N([H])C(=O)C([H])(N([H])C([H])([H])[H])C([H])([H])[H])C(C([H])([H])[H])(C([H])([H])[H])C([H])([H])[H])C([H])([H])c2c([H])c(OC([H])([H])C([H])([H])C([H])([H])C3([H])N(C([H])([H])C([H])([H])[H])C(=[N+]([H])[H])C([H])([H])C([H])(N([H])C(=O)N4C([H])([H])C([H])([H])C([H])([H])C([H])(n5nc(-c6c([H])c([H])c(Oc7c([H])c([H])c(F)c([H])c7F)c([H])c6[H])c(C(=O)N([H])[H])c5N([H])[H])C4([H])[H])C3([H])[H])c([H])c([H])c2C1([H])[H]

>  <smiles>  (6) 
[H]c1c([H])c([H])c2c(c1[H])C([H])([H])C([H])([H])C([H])([H])C2([H])N([H])C(=O)C1([H])N(C(=O)C([H])(N([H])C(=O)C([H])(N([H])C([H])([H])[H])C([H])([H])[H])C(C([H])([H])[H])(C([H])([H])[H])C([H])([H])[H])C([H])([H])c2c([H])c(OC([H])([H])C([H])([H])C([H])([H])C3([H])N(C([H])([H])C([H])([H])[H])C(=[N+]([H])[H])C([H])([H])C([H])(N([H])C(=O)N4C([H])([H])C([H])([H])C([H])([H])C([H])(n5nc(-c6c([H])c([H])c(Oc7c([H])c([H])c(F)c([H])c7F)c([H])c6[H])c(C(=O)N([H])[H])c5N([H])[H])C4([H])[H])C3([H])[H])c([H])c([H])c2C1([H])[H]

$$$$
6:0:0
     RDKit          3D

 92100  0  0  1  0  0  0  0  0999 V2000
  -28.9310  -20.5670   20.2370 C   0  0  0  0  0  0  0  0  0  0  0  0
  -29.2420  -21.9510   20.4430 N   0  0  0  0  0  0  0  0  0  0  0  0
  -27.8460  -20.3200   19.7100 O   0  0  0  0  0  0  0  0  0  0  0  0
  -30.0970  -22.0680   20.9710 H   0  0  0  0  0  0  0  0  0  0  0  0
  -30.7700  -15.2580   21.2080 C   0  0  0  0  0  0  0  0  0  0  0  0
  -30.8120  -12.8340   20.4400 C   0  0  0  0  0  2  0  0  0  0  0  0
  -30.1140  -12.5920   19.0820 C   0  0  0  0  0  2  0  0  0  0  0  0
  -28.6010  -12.3920   19.2720 C   0  0  0  0  0  2  0  0  0  0  0  0
  -27.9750  -13.4150   20.2560 C   0  0  0  0  0  3  0  0  0  0  0  0
  -28.8200  -13.6030   21.5320 C   0  0  0  0  0  2  0  0  0  0  0  0
  -30.1570  -14.0090   21.0850 N   0  0  0  0  0  0  0  0  0  0  0  0
  -32.0010  -15.2190   21.3410 O   0  0  0  0  0  0  0  0  0  0  0  0
  -30.3220  -18.5340   19.2120 C   0  0  0  0  0  2  0  0  0  0  0  0
  -29.5500  -17.7620   21.2640 C   0  0  0  0  0  2  0  0  0  0  0  0
  -29.9130  -19.2220   20.5290 C   0  0  0  0  0  3  0  0  0  0  0  0
  -30.9110  -17.1110   19.5140 C   0  0  0  0  0  3  0  0  0  0  0  0
  -30.1930  -16.4650   20.6520 N   0  0  0  0  0  0  0  0  0  0  0  0
  -25.5020  -13.9740   20.5690 C   0  0  0  0  0  0  0  0  0  0  0  0
  -24.3990  -13.1920   20.7810 C   0  0  0  0  0  0  0  0  0  0  0  0
  -24.8790  -11.8510   20.8940 C   0  0  0  0  0  0  0  0  0  0  0  0
  -26.5800  -13.1090   20.5500 N   0  0  0  0  0  0  0  0  0  0  0  0
  -26.2060  -11.8300   20.8190 N   0  0  0  0  0  0  0  0  0  0  0  0
  -24.1480  -10.5820   21.0080 C   0  0  0  0  0  0  0  0  0  0  0  0
  -24.4220   -9.6610   22.0430 C   0  0  0  0  0  3  0  0  0  0  0  0
  -23.6890   -8.4570   22.1440 C   0  0  0  0  0  3  0  0  0  0  0  0
  -22.6670   -8.1680   21.2090 C   0  0  0  0  0  0  0  0  0  0  0  0
  -22.4140   -9.0790   20.1670 C   0  0  0  0  0  3  0  0  0  0  0  0
  -23.1470  -10.2720   20.0640 C   0  0  0  0  0  3  0  0  0  0  0  0
  -21.9190   -7.0160   21.2150 O   0  0  0  0  0  0  0  0  0  0  0  0
  -21.6300   -6.3510   22.3800 C   0  0  0  0  0  0  0  0  0  0  0  0
  -20.9670   -6.9830   23.4540 C   0  0  0  0  0  3  0  0  0  0  0  0
  -20.6280   -6.2450   24.6060 C   0  0  0  0  0  3  0  0  0  0  0  0
  -20.9410   -4.8740   24.6800 C   0  0  0  0  0  0  0  0  0  0  0  0
  -21.5970   -4.2400   23.6100 C   0  0  0  0  0  3  0  0  0  0  0  0
  -21.9370   -4.9760   22.4610 C   0  0  0  0  0  0  0  0  0  0  0  0
  -22.5500   -4.3560   21.4230 F   0  0  0  0  0  0  0  0  0  0  0  0
  -20.6070   -4.1620   25.7830 F   0  0  0  0  0  0  0  0  0  0  0  0
  -22.9700  -13.6520   20.7750 C   0  0  0  0  0  0  0  0  0  0  0  0
  -22.1090  -12.9920   21.5430 N   0  0  0  0  0  0  0  0  0  0  0  0
  -22.6180  -14.6330   20.1230 O   0  0  0  0  0  0  0  0  0  0  0  0
  -22.3980  -12.1980   22.0940 H   0  0  0  0  0  0  0  0  0  0  0  0
  -21.1440  -13.2870   21.5840 H   0  0  0  0  0  0  0  0  0  0  0  0
  -25.6810  -15.3380   20.3610 N   0  0  0  0  0  0  0  0  0  0  0  0
  -24.9040  -15.9890   20.3090 H   0  0  0  0  0  0  0  0  0  0  0  0
  -26.5770  -15.7760   20.1880 H   0  0  0  0  0  0  0  0  0  0  0  0
  -30.9840  -16.1800   18.2690 C   0  0  0  0  0  2  0  0  0  0  0  0
  -33.3790  -16.7480   17.5840 C   0  0  0  0  0  1  0  0  0  0  0  0
  -31.8340  -15.6140   15.9490 C   0  0  0  0  0  1  0  0  0  0  0  0
  -31.9200  -16.6130   17.1200 C   0  0  0  0  0  3  0  0  0  0  0  0
  -28.7900  -23.3270   19.7400 C   0  0  0  0  0  2  0  0  0  0  0  0
  -28.1850  -24.7710   20.4300 C   0  0  0  0  0  2  0  0  0  0  0  0
  -28.2690  -26.2670   19.9320 O   0  0  0  0  0  0  0  0  0  0  0  0
  -24.6770  -31.9440   23.1210 C   0  0  0  0  0  0  0  0  0  0  0  0
  -27.1940  -27.2330   19.9920 C   0  0  0  0  0  0  0  0  0  0  0  0
  -23.4410  -30.5420   21.5160 C   0  0  0  0  0  3  0  0  0  0  0  0
  -24.8540  -28.9710   20.0490 C   0  0  0  0  0  0  0  0  0  0  0  0
  -25.9890  -30.8200   21.2750 C   0  0  0  0  0  2  0  0  0  0  0  0
  -26.0520  -29.4260   20.6140 C   0  0  0  0  0  0  0  0  0  0  0  0
  -27.2260  -28.5780   20.5550 C   0  0  0  0  0  3  0  0  0  0  0  0
  -25.9630  -26.8800   19.4000 C   0  0  0  0  0  3  0  0  0  0  0  0
  -24.8220  -27.7130   19.4270 C   0  0  0  0  0  3  0  0  0  0  0  0
  -23.6260  -29.8670   20.1300 C   0  0  0  0  0  2  0  0  0  0  0  0
  -24.7240  -31.1260   22.0230 N   0  0  0  0  0  0  0  0  0  0  0  0
  -23.6060  -32.2170   23.6840 O   0  0  0  0  0  0  0  0  0  0  0  0
  -22.7990  -29.5290   22.4980 C   0  0  0  0  0  0  0  0  0  0  0  0
  -21.4710  -29.3350   22.4020 N   0  0  0  0  0  0  0  0  0  0  0  0
  -23.4990  -28.9190   23.3110 O   0  0  0  0  0  0  0  0  0  0  0  0
  -20.9610  -29.8800   21.7200 H   0  0  0  0  0  0  0  0  0  0  0  0
  -18.1280  -28.0570   22.9680 C   0  0  0  0  0  0  0  0  0  0  0  0
  -20.6850  -28.3850   23.1930 C   0  0  0  0  0  3  0  0  0  0  0  0
  -20.8110  -26.9500   22.6290 C   0  0  0  0  0  2  0  0  0  0  0  0
  -19.7020  -26.5910   21.6350 C   0  0  0  0  0  2  0  0  0  0  0  0
  -18.3280  -26.7080   22.3010 C   0  0  0  0  0  2  0  0  0  0  0  0
  -19.2340  -28.8510   23.3740 C   0  0  0  0  0  0  0  0  0  0  0  0
  -18.9910  -30.1120   23.9620 C   0  0  0  0  0  3  0  0  0  0  0  0
  -17.6760  -30.5770   24.1500 C   0  0  0  0  0  3  0  0  0  0  0  0
  -16.5850  -29.7810   23.7590 C   0  0  0  0  0  3  0  0  0  0  0  0
  -16.8130  -28.5230   23.1720 C   0  0  0  0  0  3  0  0  0  0  0  0
  -25.9680  -32.5900   23.7120 C   0  0  0  0  0  3  0  0  0  0  0  0
  -26.5440  -31.8020   24.9530 C   0  0  1  0  0  0  0  0  0  0  0  0
  -25.4950  -31.5320   26.0560 C   0  0  0  0  0  1  0  0  0  0  0  0
  -27.1280  -30.4370   24.5200 C   0  0  0  0  0  1  0  0  0  0  0  0
  -27.7100  -32.5980   25.5820 C   0  0  0  0  0  1  0  0  0  0  0  0
  -25.6440  -33.9750   24.0940 N   0  0  0  0  0  0  0  0  0  0  0  0
  -25.9530  -35.0610   23.3730 C   0  0  0  0  0  0  0  0  0  0  0  0
  -26.6060  -35.0030   22.3290 O   0  0  0  0  0  0  0  0  0  0  0  0
  -25.0630  -34.0950   24.9110 H   0  0  0  0  0  0  0  0  0  0  0  0
  -24.2060  -36.8530   23.1110 C   0  0  0  0  0  1  0  0  0  0  0  0
  -25.4600  -36.4270   23.8890 C   0  0  0  0  0  3  0  0  0  0  0  0
  -27.5980  -37.3010   24.7260 C   0  0  0  0  0  1  0  0  0  0  0  0
  -26.4820  -37.4930   23.8040 N   0  0  0  0  0  0  0  0  0  0  0  0
  -26.0690  -38.4050   23.9880 H   0  0  0  0  0  0  0  0  0  0  0  0
  1  2  1  0
  2  4  1  0
  3  1  2  0
  5 12  2  0
  6 11  1  0
  7  8  1  0
  7  6  1  0
  9  8  1  0
  9 21  1  0
  9 10  1  0
 11  5  1  0
 11 10  1  0
 13 16  1  0
 13 15  1  0
 15  1  1  0
 15 14  1  0
 16 46  1  0
 16 17  1  0
 17  5  1  0
 17 14  1  0
 18 19  2  0
 19 20  1  0
 20 23  1  0
 21 18  1  0
 21 22  1  0
 22 20  2  0
 23 24  1  0
 24 25  2  0
 26 29  1  0
 26 25  1  0
 27 26  2  0
 28 27  1  0
 28 23  2  0
 29 30  1  0
 30 35  2  0
 30 31  1  0
 31 32  2  0
 32 33  1  0
 33 37  1  0
 34 33  2  0
 35 34  1  0
 36 35  1  0
 38 19  1  0
 38 39  1  0
 39 42  1  0
 39 41  1  0
 40 38  2  0
 43 18  1  0
 44 43  1  0
 45 43  1  0
 48 49  1  0
 49 47  1  0
 49 46  1  0
 50 51  1  0
 50  2  1  0
 52 54  1  0
 52 51  1  0
 53 64  2  0
 54 59  1  0
 55 63  1  0
 55 65  1  0
 56 62  1  0
 56 58  1  0
 57 63  1  0
 58 57  1  0
 59 58  2  0
 60 61  1  0
 60 54  2  0
 61 56  2  0
 62 55  1  0
 63 53  1  0
 65 67  2  0
 66 65  1  0
 68 66  1  0
 69 78  2  0
 69 74  1  0
 70 66  1  0
 70 74  1  0
 71 70  1  0
 72 73  1  0
 72 71  1  0
 73 69  1  0
 74 75  2  0
 75 76  1  0
 77 76  2  0
 78 77  1  0
 79 53  1  0
 79 84  1  0
 79 80  1  0
 80 83  1  1
 80 81  1  0
 82 80  1  0
 84 87  1  0
 85 89  1  0
 85 84  1  0
 86 85  2  0
 89 88  1  0
 91 89  1  0
 91 92  1  0
 91 90  1  0
M  ISO  4   5 100  17 100  51 101  52 101
M  END
>  <TORSDO>  (7) 
F 20

>  <SCORE>  (7) 
-12.839

>  <name>  (7) 
6

>  <ligand_id>  (7) 
6

>  <original_smiles>  (7) 
[H]c1c([H])c([H])c2c(c1[H])C([H])([H])C([H])([H])C([H])([H])C2([H])N([H])C(=O)C1([H])N(C(=O)C([H])(N([H])C(=O)C([H])(N([H])C([H])([H])[H])C([H])([H])[H])C(C([H])([H])[H])(C([H])([H])[H])C([H])([H])[H])C([H])([H])c2c([H])c(OC([H])([H])C([H])([H])N([H])C(=O)C3([H])C([H])([H])N(C(=O)N4C([H])([H])C([H])([H])C([H])([H])C([H])(n5nc(-c6c([H])c([H])c(Oc7c([H])c([H])c(F)c([H])c7F)c([H])c6[H])c(C(=O)N([H])[H])c5N([H])[H])C4([H])[H])C([H])(C([H])([H])C([H])(C([H])([H])[H])C([H])([H])[H])C3([H])[H])c([H])c([H])c2C1([H])[H]

>  <smiles>  (7) 
[H]c1c([H])c([H])c2c(c1[H])C([H])([H])C([H])([H])C([H])([H])C2([H])N([H])C(=O)C1([H])N(C(=O)C([H])(N([H])C(=O)C([H])(N([H])C([H])([H])[H])C([H])([H])[H])C(C([H])([H])[H])(C([H])([H])[H])C([H])([H])[H])C([H])([H])c2c([H])c(OC([H])([H])C([H])([H])N([H])C(=O)C3([H])C([H])([H])N(C(=O)N4C([H])([H])C([H])([H])C([H])([H])C([H])(n5nc(-c6c([H])c([H])c(Oc7c([H])c([H])c(F)c([H])c7F)c([H])c6[H])c(C(=O)N([H])[H])c5N([H])[H])C4([H])[H])C([H])(C([H])([H])C([H])(C([H])([H])[H])C([H])([H])[H])C3([H])[H])c([H])c([H])c2C1([H])[H]

$$$$
7:0:0
     RDKit          3D

 90 98  0  0  1  0  0  0  0  0999 V2000
  -28.6450  -21.7130   19.8980 C   0  0  0  0  0  2  0  0  0  0  0  0
  -29.7250  -20.5380   19.8650 N   0  0  0  0  0  4  0  0  0  0  0  0
  -30.3210  -20.7680   19.0860 H   0  0  0  0  0  0  0  0  0  0  0  0
  -30.2960  -20.6510   20.6870 H   0  0  0  0  0  0  0  0  0  0  0  0
  -30.7650  -15.0850   19.7770 C   0  0  0  0  0  0  0  0  0  0  0  0
  -30.5650  -12.7160   18.8590 C   0  0  0  0  0  2  0  0  0  0  0  0
  -29.5470  -12.6160   17.7000 C   0  0  0  0  0  2  0  0  0  0  0  0
  -28.1260  -12.3840   18.2450 C   0  0  0  0  0  2  0  0  0  0  0  0
  -27.7930  -13.3190   19.4360 C   0  0  0  0  0  3  0  0  0  0  0  0
  -28.9320  -13.3700   20.4760 C   0  0  0  0  0  2  0  0  0  0  0  0
  -30.1340  -13.8300   19.7620 N   0  0  0  0  0  0  0  0  0  0  0  0
  -31.9390  -15.0870   19.3860 O   0  0  0  0  0  0  0  0  0  0  0  0
  -30.5410  -17.7900   19.5060 C   0  0  0  0  0  2  0  0  0  0  0  0
  -28.9050  -16.6920   20.7370 C   0  0  0  0  0  2  0  0  0  0  0  0
  -29.4060  -18.9680   19.7380 C   0  0  0  0  0  3  0  0  0  0  0  0
  -28.7770  -18.2570   20.9470 C   0  0  0  0  0  3  0  0  0  0  0  0
  -30.0830  -16.3550   19.9090 N   0  0  0  0  0  0  0  0  0  0  0  0
  -29.4720  -18.5950   22.0350 F   0  0  0  0  0  0  0  0  0  0  0  0
  -25.4880  -13.8770   20.3960 C   0  0  0  0  0  0  0  0  0  0  0  0
  -24.4550  -13.0940   20.8300 C   0  0  0  0  0  0  0  0  0  0  0  0
  -24.9060  -11.7440   20.7080 C   0  0  0  0  0  0  0  0  0  0  0  0
  -26.5020  -13.0050   20.0380 N   0  0  0  0  0  0  0  0  0  0  0  0
  -26.1660  -11.7130   20.2890 N   0  0  0  0  0  0  0  0  0  0  0  0
  -24.1850  -10.4800   20.9080 C   0  0  0  0  0  0  0  0  0  0  0  0
  -24.6040   -9.5350   21.8700 C   0  0  0  0  0  3  0  0  0  0  0  0
  -23.8810   -8.3370   22.0580 C   0  0  0  0  0  3  0  0  0  0  0  0
  -22.7260   -8.0750   21.2840 C   0  0  0  0  0  0  0  0  0  0  0  0
  -22.3270   -9.0090   20.3100 C   0  0  0  0  0  3  0  0  0  0  0  0
  -23.0500  -10.1990   20.1200 C   0  0  0  0  0  3  0  0  0  0  0  0
  -21.9760   -6.9290   21.3790 O   0  0  0  0  0  0  0  0  0  0  0  0
  -21.8010   -6.2810   22.5770 C   0  0  0  0  0  0  0  0  0  0  0  0
  -21.1960   -6.9150   23.6840 C   0  0  0  0  0  3  0  0  0  0  0  0
  -20.9730   -6.1920   24.8730 C   0  0  0  0  0  3  0  0  0  0  0  0
  -21.3420   -4.8360   24.9540 C   0  0  0  0  0  0  0  0  0  0  0  0
  -21.9400   -4.2020   23.8500 C   0  0  0  0  0  3  0  0  0  0  0  0
  -22.1650   -4.9230   22.6630 C   0  0  0  0  0  0  0  0  0  0  0  0
  -22.7210   -4.3020   21.5950 F   0  0  0  0  0  0  0  0  0  0  0  0
  -21.1210   -4.1390   26.0920 F   0  0  0  0  0  0  0  0  0  0  0  0
  -23.0900  -13.5690   21.2310 C   0  0  0  0  0  0  0  0  0  0  0  0
  -22.4460  -12.8690   22.1570 N   0  0  0  0  0  0  0  0  0  0  0  0
  -22.6080  -14.5990   20.7600 O   0  0  0  0  0  0  0  0  0  0  0  0
  -22.8510  -12.0370   22.5590 H   0  0  0  0  0  0  0  0  0  0  0  0
  -21.5330  -13.1700   22.4700 H   0  0  0  0  0  0  0  0  0  0  0  0
  -25.6350  -15.2510   20.2490 N   0  0  0  0  0  0  0  0  0  0  0  0
  -24.8670  -15.8910   20.4250 H   0  0  0  0  0  0  0  0  0  0  0  0
  -26.4170  -15.6910   19.7840 H   0  0  0  0  0  0  0  0  0  0  0  0
  -29.0580  -23.3240   20.0920 C   0  0  0  0  0  0  0  0  0  0  0  0
  -30.2350  -23.5750   20.3710 O   0  0  0  0  0  0  0  0  0  0  0  0
  -27.9970  -24.6100   19.9320 C   0  0  0  0  0  2  0  0  0  0  0  0
  -28.3310  -26.1250   20.2090 O   0  0  0  0  0  0  0  0  0  0  0  0
  -24.6700  -31.7940   23.2680 C   0  0  0  0  0  0  0  0  0  0  0  0
  -27.2980  -27.1440   20.1460 C   0  0  0  0  0  0  0  0  0  0  0  0
  -23.5040  -30.4550   21.5590 C   0  0  0  0  0  3  0  0  0  0  0  0
  -24.9800  -28.9200   20.1160 C   0  0  0  0  0  0  0  0  0  0  0  0
  -26.0650  -30.7090   21.4630 C   0  0  0  0  0  2  0  0  0  0  0  0
  -26.1490  -29.3360   20.7670 C   0  0  0  0  0  0  0  0  0  0  0  0
  -27.3090  -28.4660   20.7640 C   0  0  0  0  0  3  0  0  0  0  0  0
  -26.1020  -26.8440   19.4560 C   0  0  0  0  0  3  0  0  0  0  0  0
  -24.9720  -27.6900   19.4450 C   0  0  0  0  0  3  0  0  0  0  0  0
  -23.7550  -29.8230   20.1650 C   0  0  0  0  0  2  0  0  0  0  0  0
  -24.7650  -31.0070   22.1520 N   0  0  0  0  0  0  0  0  0  0  0  0
  -23.5720  -32.0660   23.7780 O   0  0  0  0  0  0  0  0  0  0  0  0
  -22.7990  -29.4220   22.4730 C   0  0  0  0  0  0  0  0  0  0  0  0
  -21.4750  -29.2520   22.3050 N   0  0  0  0  0  0  0  0  0  0  0  0
  -23.4480  -28.7750   23.3000 O   0  0  0  0  0  0  0  0  0  0  0  0
  -21.0090  -29.8260   21.6150 H   0  0  0  0  0  0  0  0  0  0  0  0
  -18.0780  -28.0570   22.7040 C   0  0  0  0  0  0  0  0  0  0  0  0
  -20.6340  -28.2950   23.0260 C   0  0  0  0  0  3  0  0  0  0  0  0
  -20.7360  -26.8820   22.4020 C   0  0  0  0  0  2  0  0  0  0  0  0
  -19.6520  -26.6040   21.3560 C   0  0  0  0  0  2  0  0  0  0  0  0
  -18.2600  -26.7340   21.9800 C   0  0  0  0  0  2  0  0  0  0  0  0
  -19.1930  -28.7970   23.1800 C   0  0  0  0  0  0  0  0  0  0  0  0
  -18.9670  -30.0380   23.8170 C   0  0  0  0  0  3  0  0  0  0  0  0
  -17.6620  -30.5370   23.9810 C   0  0  0  0  0  3  0  0  0  0  0  0
  -16.5620  -29.7930   23.5190 C   0  0  0  0  0  3  0  0  0  0  0  0
  -16.7700  -28.5550   22.8860 C   0  0  0  0  0  3  0  0  0  0  0  0
  -25.9340  -32.4060   23.9440 C   0  0  0  0  0  3  0  0  0  0  0  0
  -26.3650  -31.6420   25.2570 C   0  0  1  0  0  0  0  0  0  0  0  0
  -25.2140  -31.4480   26.2710 C   0  0  0  0  0  1  0  0  0  0  0  0
  -26.9330  -30.2430   24.9180 C   0  0  0  0  0  1  0  0  0  0  0  0
  -27.5020  -32.4180   25.9640 C   0  0  0  0  0  1  0  0  0  0  0  0
  -25.6430  -33.8170   24.2470 N   0  0  0  0  0  0  0  0  0  0  0  0
  -26.0050  -34.8550   23.4820 C   0  0  0  0  0  0  0  0  0  0  0  0
  -26.6860  -34.7240   22.4610 O   0  0  0  0  0  0  0  0  0  0  0  0
  -25.0410  -33.9930   25.0380 H   0  0  0  0  0  0  0  0  0  0  0  0
  -24.3040  -36.6710   23.1000 C   0  0  0  0  0  1  0  0  0  0  0  0
  -25.5410  -36.2590   23.9160 C   0  0  0  0  0  3  0  0  0  0  0  0
  -27.6840  -37.1360   24.7360 C   0  0  0  0  0  1  0  0  0  0  0  0
  -26.5900  -37.2950   23.7820 N   0  0  0  0  0  0  0  0  0  0  0  0
  -26.1960  -38.2240   23.9020 H   0  0  0  0  0  0  0  0  0  0  0  0
  1 47  1  0
  2  1  1  0
  2  4  1  0
  3  2  1  0
  5 17  1  0
  6 11  1  0
  7  8  1  0
  7  6  1  0
  9  8  1  0
  9 22  1  0
  9 10  1  0
 11  5  1  0
 11 10  1  0
 12  5  2  0
 13 15  1  0
 13 17  1  0
 14 16  1  0
 15  2  1  0
 15 16  1  0
 16 18  1  0
 17 14  1  0
 19 20  2  0
 20 39  1  0
 21 20  1  0
 21 24  1  0
 22 23  1  0
 22 19  1  0
 23 21  2  0
 24 25  1  0
 25 26  2  0
 27 30  1  0
 27 26  1  0
 28 27  2  0
 29 28  1  0
 29 24  2  0
 30 31  1  0
 31 36  2  0
 31 32  1  0
 32 33  2  0
 33 34  1  0
 34 38  1  0
 35 34  2  0
 36 35  1  0
 37 36  1  0
 39 40  1  0
 40 43  1  0
 40 42  1  0
 41 39  2  0
 44 19  1  0
 44 45  1  0
 46 44  1  0
 47 48  2  0
 49 47  1  0
 49 50  1  0
 51 62  2  0
 52 50  1  0
 52 57  1  0
 53 61  1  0
 53 63  1  0
 54 60  1  0
 54 56  1  0
 55 61  1  0
 56 55  1  0
 57 56  2  0
 58 52  2  0
 59 58  1  0
 59 54  2  0
 60 53  1  0
 61 51  1  0
 63 65  2  0
 64 63  1  0
 66 64  1  0
 67 76  2  0
 67 72  1  0
 68 64  1  0
 68 72  1  0
 69 68  1  0
 70 71  1  0
 70 69  1  0
 71 67  1  0
 72 73  2  0
 73 74  1  0
 75 74  2  0
 76 75  1  0
 77 51  1  0
 77 82  1  0
 77 78  1  0
 78 81  1  1
 78 79  1  0
 80 78  1  0
 82 85  1  0
 83 87  1  0
 83 82  1  0
 84 83  2  0
 87 86  1  0
 89 90  1  0
 89 87  1  0
 89 88  1  0
M  ISO  4   5 100  17 100  49 101  50 101
M  END
>  <TORSDO>  (8) 
F 19

>  <SCORE>  (8) 
-12.948

>  <name>  (8) 
7

>  <ligand_id>  (8) 
7

>  <original_smiles>  (8) 
[H]c1c([H])c([H])c2c(c1[H])C([H])([H])C([H])([H])C([H])([H])C2([H])N([H])C(=O)C1([H])N(C(=O)C([H])(N([H])C(=O)C([H])(N([H])C([H])([H])[H])C([H])([H])[H])C(C([H])([H])[H])(C([H])([H])[H])C([H])([H])[H])C([H])([H])c2c([H])c(OC([H])([H])C(=O)C([H])([H])[N+]([H])([H])C3([H])C([H])([H])N(C(=O)N4C([H])([H])C([H])([H])C([H])([H])C([H])(n5nc(-c6c([H])c([H])c(Oc7c([H])c([H])c(F)c([H])c7F)c([H])c6[H])c(C(=O)N([H])[H])c5N([H])[H])C4([H])[H])C([H])([H])C3([H])F)c([H])c([H])c2C1([H])[H]

>  <smiles>  (8) 
[H]c1c([H])c([H])c2c(c1[H])C([H])([H])C([H])([H])C([H])([H])C2([H])N([H])C(=O)C1([H])N(C(=O)C([H])(N([H])C(=O)C([H])(N([H])C([H])([H])[H])C([H])([H])[H])C(C([H])([H])[H])(C([H])([H])[H])C([H])([H])[H])C([H])([H])c2c([H])c(OC([H])([H])C(=O)C([H])([H])[N+]([H])([H])C3([H])C([H])([H])N(C(=O)N4C([H])([H])C([H])([H])C([H])([H])C([H])(n5nc(-c6c([H])c([H])c(Oc7c([H])c([H])c(F)c([H])c7F)c([H])c6[H])c(C(=O)N([H])[H])c5N([H])[H])C4([H])[H])C([H])([H])C3([H])F)c([H])c([H])c2C1([H])[H]

$$$$
8:0:0
     RDKit          3D

 95103  0  0  1  0  0  0  0  0999 V2000
  -30.7530  -21.1660   19.8660 C   0  0  0  0  0  2  0  0  0  0  0  0
  -30.3900  -23.6220   19.8880 C   0  0  0  0  0  3  0  0  0  0  0  0
  -29.3900  -20.8050   20.4890 C   0  0  0  0  0  3  0  0  0  0  0  0
  -28.9070  -23.5020   20.3620 C   0  0  0  0  0  3  0  0  0  0  0  0
  -31.2150  -22.4700   20.3540 N   0  0  0  0  0  0  0  0  0  0  0  0
  -28.4430  -22.0050   20.0970 N   0  0  0  0  0  4  0  0  0  0  0  0
  -32.1830  -22.5950   20.0660 H   0  0  0  0  0  0  0  0  0  0  0  0
  -27.5590  -21.8630   20.5570 H   0  0  0  0  0  0  0  0  0  0  0  0
  -28.2680  -21.9250   19.1090 H   0  0  0  0  0  0  0  0  0  0  0  0
  -31.0080  -24.9360   20.4130 C   0  0  0  0  0  0  0  0  0  0  0  0
  -31.0360  -25.2110   21.6170 O   0  0  0  0  0  0  0  0  0  0  0  0
  -32.2070  -27.1750   20.0060 C   0  0  0  0  0  1  0  0  0  0  0  0
  -31.6290  -25.8870   19.3880 C   0  0  0  0  0  2  0  0  0  0  0  0
  -29.0080  -19.1650   20.2420 C   0  0  0  0  0  3  0  0  0  0  0  0
  -30.0000  -17.8480   20.6470 C   0  0  0  0  0  3  0  0  0  0  0  0
  -30.4600  -15.1370   20.3420 C   0  0  0  0  0  0  0  0  0  0  0  0
  -30.3780  -12.8090   19.3480 C   0  0  0  0  0  2  0  0  0  0  0  0
  -29.4240  -12.7640   18.1330 C   0  0  0  0  0  2  0  0  0  0  0  0
  -27.9760  -12.5020   18.5860 C   0  0  0  0  0  2  0  0  0  0  0  0
  -27.5650  -13.4070   19.7780 C   0  0  0  0  0  3  0  0  0  0  0  0
  -28.6340  -13.4250   20.8880 C   0  0  0  0  0  2  0  0  0  0  0  0
  -29.8860  -13.8720   20.2680 N   0  0  0  0  0  0  0  0  0  0  0  0
  -31.6610  -15.2310   20.0660 O   0  0  0  0  0  0  0  0  0  0  0  0
  -29.6600  -16.3010   20.5260 N   0  0  0  0  0  0  0  0  0  0  0  0
  -28.6910  -16.0710   20.6930 H   0  0  0  0  0  0  0  0  0  0  0  0
  -25.1830  -13.9320   20.5580 C   0  0  0  0  0  0  0  0  0  0  0  0
  -24.1390  -13.1310   20.9320 C   0  0  0  0  0  0  0  0  0  0  0  0
  -24.6270  -11.7900   20.8710 C   0  0  0  0  0  0  0  0  0  0  0  0
  -26.2390  -13.0770   20.2910 N   0  0  0  0  0  0  0  0  0  0  0  0
  -25.9150  -11.7830   20.5460 N   0  0  0  0  0  0  0  0  0  0  0  0
  -23.9270  -10.5120   21.0460 C   0  0  0  0  0  0  0  0  0  0  0  0
  -24.3630   -9.5530   21.9890 C   0  0  0  0  0  3  0  0  0  0  0  0
  -23.6600   -8.3410   22.1540 C   0  0  0  0  0  3  0  0  0  0  0  0
  -22.5080   -8.0780   21.3750 C   0  0  0  0  0  0  0  0  0  0  0  0
  -22.0920   -9.0250   20.4220 C   0  0  0  0  0  3  0  0  0  0  0  0
  -22.7960  -10.2280   20.2540 C   0  0  0  0  0  3  0  0  0  0  0  0
  -21.7760   -6.9170   21.4490 O   0  0  0  0  0  0  0  0  0  0  0  0
  -21.6740   -6.2000   22.6140 C   0  0  0  0  0  0  0  0  0  0  0  0
  -21.1000   -6.7540   23.7800 C   0  0  0  0  0  3  0  0  0  0  0  0
  -20.9500   -5.9620   24.9340 C   0  0  0  0  0  3  0  0  0  0  0  0
  -21.3680   -4.6170   24.9250 C   0  0  0  0  0  0  0  0  0  0  0  0
  -21.9330   -4.0620   23.7630 C   0  0  0  0  0  3  0  0  0  0  0  0
  -22.0830   -4.8520   22.6100 C   0  0  0  0  0  0  0  0  0  0  0  0
  -22.6090   -4.3050   21.4860 F   0  0  0  0  0  0  0  0  0  0  0  0
  -21.2180   -3.8530   26.0320 F   0  0  0  0  0  0  0  0  0  0  0  0
  -22.7370  -13.5800   21.2270 C   0  0  0  0  0  0  0  0  0  0  0  0
  -22.0260  -12.8480   22.0770 N   0  0  0  0  0  0  0  0  0  0  0  0
  -22.2810  -14.6120   20.7370 O   0  0  0  0  0  0  0  0  0  0  0  0
  -22.4090  -12.0100   22.4890 H   0  0  0  0  0  0  0  0  0  0  0  0
  -21.0880  -13.1340   22.3200 H   0  0  0  0  0  0  0  0  0  0  0  0
  -25.3150  -15.3090   20.3950 N   0  0  0  0  0  0  0  0  0  0  0  0
  -24.5230  -15.9340   20.5020 H   0  0  0  0  0  0  0  0  0  0  0  0
  -26.1230  -15.7650   19.9890 H   0  0  0  0  0  0  0  0  0  0  0  0
  -27.9650  -24.8210   19.8630 C   0  0  0  0  0  2  0  0  0  0  0  0
  -28.1990  -26.3400   20.1280 O   0  0  0  0  0  0  0  0  0  0  0  0
  -24.5510  -31.9330   23.2260 C   0  0  0  0  0  0  0  0  0  0  0  0
  -27.1320  -27.3080   20.0770 C   0  0  0  0  0  0  0  0  0  0  0  0
  -23.3430  -30.5560   21.5770 C   0  0  0  0  0  3  0  0  0  0  0  0
  -24.7860  -29.0220   20.1060 C   0  0  0  0  0  0  0  0  0  0  0  0
  -25.8910  -30.8510   21.3830 C   0  0  0  0  0  2  0  0  0  0  0  0
  -25.9680  -29.4720   20.7070 C   0  0  0  0  0  0  0  0  0  0  0  0
  -27.1430  -28.6310   20.6760 C   0  0  0  0  0  3  0  0  0  0  0  0
  -25.9250  -26.9620   19.4320 C   0  0  0  0  0  3  0  0  0  0  0  0
  -24.7760  -27.7810   19.4530 C   0  0  0  0  0  3  0  0  0  0  0  0
  -23.5510  -29.9040   20.1840 C   0  0  0  0  0  2  0  0  0  0  0  0
  -24.6160  -31.1350   22.1160 N   0  0  0  0  0  0  0  0  0  0  0  0
  -23.4700  -32.1970   23.7720 O   0  0  0  0  0  0  0  0  0  0  0  0
  -22.6850  -29.5250   22.5290 C   0  0  0  0  0  0  0  0  0  0  0  0
  -21.3580  -29.3360   22.4080 N   0  0  0  0  0  0  0  0  0  0  0  0
  -23.3700  -28.8990   23.3420 O   0  0  0  0  0  0  0  0  0  0  0  0
  -20.8600  -29.8970   21.7310 H   0  0  0  0  0  0  0  0  0  0  0  0
  -17.9990  -28.0830   22.9200 C   0  0  0  0  0  0  0  0  0  0  0  0
  -20.5570  -28.3760   23.1720 C   0  0  0  0  0  3  0  0  0  0  0  0
  -20.6710  -26.9520   22.5790 C   0  0  0  0  0  2  0  0  0  0  0  0
  -19.5670  -26.6270   21.5690 C   0  0  0  0  0  2  0  0  0  0  0  0
  -18.1890  -26.7450   22.2250 C   0  0  0  0  0  2  0  0  0  0  0  0
  -19.1110  -28.8550   23.3510 C   0  0  0  0  0  0  0  0  0  0  0  0
  -18.8760  -30.1050   23.9650 C   0  0  0  0  0  3  0  0  0  0  0  0
  -17.5660  -30.5830   24.1490 C   0  0  0  0  0  3  0  0  0  0  0  0
  -16.4700  -29.8080   23.7330 C   0  0  0  0  0  3  0  0  0  0  0  0
  -16.6880  -28.5590   23.1230 C   0  0  0  0  0  3  0  0  0  0  0  0
  -25.8310  -32.5690   23.8470 C   0  0  0  0  0  3  0  0  0  0  0  0
  -25.5240  -33.9720   24.1680 N   0  0  0  0  0  0  0  0  0  0  0  0
  -25.8710  -35.0230   23.4120 C   0  0  0  0  0  0  0  0  0  0  0  0
  -26.5510  -34.9130   22.3880 O   0  0  0  0  0  0  0  0  0  0  0  0
  -24.9210  -34.1310   24.9620 H   0  0  0  0  0  0  0  0  0  0  0  0
  -24.1820  -36.8480   23.0180 C   0  0  0  0  0  1  0  0  0  0  0  0
  -25.3920  -36.4180   23.8630 C   0  0  0  0  0  3  0  0  0  0  0  0
  -27.5030  -37.2790   24.7760 C   0  0  0  0  0  1  0  0  0  0  0  0
  -26.4430  -37.4560   23.7880 N   0  0  0  0  0  0  0  0  0  0  0  0
  -26.0430  -38.3810   23.9130 H   0  0  0  0  0  0  0  0  0  0  0  0
  -26.3390  -31.8100   25.1350 C   0  0  1  0  0  0  0  0  0  0  0  0
  -25.2410  -31.5880   26.2020 C   0  0  0  0  0  1  0  0  0  0  0  0
  -26.9190  -30.4260   24.7650 C   0  0  0  0  0  1  0  0  0  0  0  0
  -27.4880  -32.6090   25.7930 C   0  0  0  0  0  1  0  0  0  0  0  0
  1  5  1  0
  1  3  1  0
  2  5  1  0
  2  4  1  0
  2 10  1  0
  3 14  1  0
  4 54  1  0
  6  4  1  0
  6  3  1  0
  6  8  1  0
  7  5  1  0
  9  6  1  0
 10 11  2  0
 13 12  1  0
 13 10  1  0
 14 15  2  0
 16 24  1  0
 17 22  1  0
 18 19  1  0
 18 17  1  0
 20 19  1  0
 20 29  1  0
 20 21  1  0
 22 16  1  0
 22 21  1  0
 23 16  2  0
 24 15  1  0
 24 25  1  0
 26 27  2  0
 27 46  1  0
 28 27  1  0
 28 31  1  0
 29 30  1  0
 29 26  1  0
 30 28  2  0
 31 32  1  0
 32 33  2  0
 34 37  1  0
 34 33  1  0
 35 34  2  0
 36 35  1  0
 36 31  2  0
 37 38  1  0
 38 39  1  0
 39 40  2  0
 41 40  1  0
 41 45  1  0
 42 41  2  0
 43 38  2  0
 43 42  1  0
 44 43  1  0
 46 47  1  0
 47 50  1  0
 47 49  1  0
 48 46  2  0
 51 52  1  0
 51 26  1  0
 53 51  1  0
 54 55  1  0
 56 67  2  0
 57 55  1  0
 57 62  1  0
 58 66  1  0
 58 68  1  0
 59 65  1  0
 59 61  1  0
 60 66  1  0
 61 60  1  0
 62 61  2  0
 63 64  1  0
 63 57  2  0
 64 59  2  0
 65 58  1  0
 66 56  1  0
 68 70  2  0
 69 68  1  0
 71 69  1  0
 72 81  2  0
 72 77  1  0
 73 69  1  0
 73 77  1  0
 74 73  1  0
 75 76  1  0
 75 74  1  0
 76 72  1  0
 77 78  2  0
 78 79  1  0
 80 79  2  0
 81 80  1  0
 82 56  1  0
 82 83  1  0
 82 92  1  0
 83 86  1  0
 84 88  1  0
 84 83  1  0
 85 84  2  0
 88 87  1  0
 90 88  1  0
 90 91  1  0
 90 89  1  0
 92 95  1  1
 92 93  1  0
 94 92  1  0
M  ISO  4  16 100  24 100  54 101  55 101
M  END
>  <TORSDO>  (9) 
F 21

>  <SCORE>  (9) 
-15.098

>  <name>  (9) 
8

>  <ligand_id>  (9) 
8

>  <original_smiles>  (9) 
[H]c1c([H])c([H])c2c(c1[H])C([H])([H])C([H])([H])C([H])([H])C2([H])N([H])C(=O)C1([H])N(C(=O)C([H])(N([H])C(=O)C([H])(N([H])C([H])([H])[H])C([H])([H])[H])C(C([H])([H])[H])(C([H])([H])[H])C([H])([H])[H])C([H])([H])c2c([H])c(OC([H])([H])C3([H])C([H])(C(=O)C([H])([H])C([H])([H])[H])N([H])C([H])([H])C([H])(C([H])([H])C([H])([H])N([H])C(=O)N4C([H])([H])C([H])([H])C([H])([H])C([H])(n5nc(-c6c([H])c([H])c(Oc7c([H])c([H])c(F)c([H])c7F)c([H])c6[H])c(C(=O)N([H])[H])c5N([H])[H])C4([H])[H])[N+]3([H])[H])c([H])c([H])c2C1([H])[H]

>  <smiles>  (9) 
[H]c1c([H])c([H])c2c(c1[H])C([H])([H])C([H])([H])C([H])([H])C2([H])N([H])C(=O)C1([H])N(C(=O)C([H])(N([H])C(=O)C([H])(N([H])C([H])([H])[H])C([H])([H])[H])C(C([H])([H])[H])(C([H])([H])[H])C([H])([H])[H])C([H])([H])c2c([H])c(OC([H])([H])C3([H])C([H])(C(=O)C([H])([H])C([H])([H])[H])N([H])C([H])([H])C([H])(C([H])([H])C([H])([H])N([H])C(=O)N4C([H])([H])C([H])([H])C([H])([H])C([H])(n5nc(-c6c([H])c([H])c(Oc7c([H])c([H])c(F)c([H])c7F)c([H])c6[H])c(C(=O)N([H])[H])c5N([H])[H])C4([H])[H])[N+]3([H])[H])c([H])c([H])c2C1([H])[H]

$$$$
9:0:0
     RDKit          3D

 96104  0  0  1  0  0  0  0  0999 V2000
  -29.8600  -21.6390   21.5220 C   0  0  0  0  0  3  0  0  0  0  0  0
  -30.3810  -21.3710   19.1680 C   0  0  0  0  0  3  0  0  0  0  0  0
  -30.1820  -20.2770   21.7440 C   0  0  0  0  0  3  0  0  0  0  0  0
  -30.7060  -20.0160   19.3860 C   0  0  0  0  0  3  0  0  0  0  0  0
  -29.9550  -22.2050   20.2270 C   0  0  0  0  0  0  0  0  0  0  0  0
  -30.6090  -19.4540   20.6770 C   0  0  0  0  0  0  0  0  0  0  0  0
  -29.6640  -23.6470   19.9640 C   0  0  0  0  0  0  0  0  0  0  0  0
  -30.5030  -24.3790   19.3590 N   0  0  0  0  0  0  0  0  0  0  0  0
  -31.3450  -23.8570   19.1370 H   0  0  0  0  0  0  0  0  0  0  0  0
  -28.3080  -24.2200   20.3830 C   0  0  0  0  0  2  0  0  0  0  0  0
  -28.3630  -25.5870   21.1200 C   0  0  0  0  0  2  0  0  0  0  0  0
  -28.4060  -26.7290   20.2370 O   0  0  0  0  0  0  0  0  0  0  0  0
  -24.5780  -31.8970   23.2490 C   0  0  0  0  0  0  0  0  0  0  0  0
  -27.2490  -27.4710   20.2000 C   0  0  0  0  0  0  0  0  0  0  0  0
  -23.3810  -30.4870   21.6020 C   0  0  0  0  0  3  0  0  0  0  0  0
  -24.8460  -28.9580   20.1770 C   0  0  0  0  0  0  0  0  0  0  0  0
  -25.9040  -30.8660   21.4080 C   0  0  0  0  0  2  0  0  0  0  0  0
  -25.9980  -29.4980   20.7620 C   0  0  0  0  0  0  0  0  0  0  0  0
  -27.2070  -28.7650   20.7630 C   0  0  0  0  0  3  0  0  0  0  0  0
  -26.0840  -26.9410   19.6080 C   0  0  0  0  0  3  0  0  0  0  0  0
  -24.8840  -27.6790   19.5910 C   0  0  0  0  0  3  0  0  0  0  0  0
  -23.5950  -29.8090   20.2200 C   0  0  0  0  0  2  0  0  0  0  0  0
  -24.6370  -31.0990   22.1430 N   0  0  0  0  0  0  0  0  0  0  0  0
  -23.4950  -32.1650   23.7880 O   0  0  0  0  0  0  0  0  0  0  0  0
  -22.7330  -29.4650   22.5630 C   0  0  0  0  0  0  0  0  0  0  0  0
  -21.4090  -29.2820   22.4380 N   0  0  0  0  0  0  0  0  0  0  0  0
  -23.4190  -28.8430   23.3770 O   0  0  0  0  0  0  0  0  0  0  0  0
  -20.9210  -29.8410   21.7520 H   0  0  0  0  0  0  0  0  0  0  0  0
  -18.0330  -28.0910   22.9450 C   0  0  0  0  0  0  0  0  0  0  0  0
  -20.5930  -28.3420   23.2080 C   0  0  0  0  0  3  0  0  0  0  0  0
  -20.6890  -26.9150   22.6210 C   0  0  0  0  0  2  0  0  0  0  0  0
  -19.5800  -26.5990   21.6120 C   0  0  0  0  0  2  0  0  0  0  0  0
  -18.2020  -26.7440   22.2600 C   0  0  0  0  0  2  0  0  0  0  0  0
  -19.1560  -28.8480   23.3740 C   0  0  0  0  0  0  0  0  0  0  0  0
  -18.9410  -30.1090   23.9730 C   0  0  0  0  0  3  0  0  0  0  0  0
  -17.6380  -30.6120   24.1460 C   0  0  0  0  0  3  0  0  0  0  0  0
  -16.5310  -29.8510   23.7320 C   0  0  0  0  0  3  0  0  0  0  0  0
  -16.7290  -28.5920   23.1380 C   0  0  0  0  0  3  0  0  0  0  0  0
  -25.8640  -32.5290   23.8730 C   0  0  0  0  0  3  0  0  0  0  0  0
  -25.5570  -33.9310   24.1950 N   0  0  0  0  0  0  0  0  0  0  0  0
  -25.8930  -34.9770   23.4290 C   0  0  0  0  0  0  0  0  0  0  0  0
  -26.5670  -34.8660   22.4020 O   0  0  0  0  0  0  0  0  0  0  0  0
  -24.9680  -34.0910   24.9970 H   0  0  0  0  0  0  0  0  0  0  0  0
  -24.1720  -36.7700   23.0450 C   0  0  0  0  0  1  0  0  0  0  0  0
  -25.4010  -36.3680   23.8740 C   0  0  0  0  0  3  0  0  0  0  0  0
  -27.5290  -37.2520   24.7240 C   0  0  0  0  0  1  0  0  0  0  0  0
  -26.4360  -37.4200   23.7680 N   0  0  0  0  0  0  0  0  0  0  0  0
  -26.0310  -38.3420   23.9040 H   0  0  0  0  0  0  0  0  0  0  0  0
  -26.3770  -31.7640   25.1550 C   0  0  1  0  0  0  0  0  0  0  0  0
  -25.2810  -31.5270   26.2200 C   0  0  0  0  0  1  0  0  0  0  0  0
  -26.9650  -30.3850   24.7690 C   0  0  0  0  0  1  0  0  0  0  0  0
  -27.5250  -32.5610   25.8180 C   0  0  0  0  0  1  0  0  0  0  0  0
  -31.0120  -17.9950   20.9120 C   0  0  0  0  0  2  0  0  0  0  0  0
  -29.8420  -16.9680   20.9250 C   0  0  0  0  0  3  0  0  0  0  0  0
  -29.1560  -16.8710   19.5470 C   0  0  0  0  0  0  0  0  0  0  0  0
  -27.8490  -17.0960   19.4910 N   0  0  0  0  0  0  0  0  0  0  0  0
  -29.7860  -16.6000   18.5270 O   0  0  0  0  0  0  0  0  0  0  0  0
  -27.3470  -17.4180   20.3050 H   0  0  0  0  0  0  0  0  0  0  0  0
  -27.3780  -17.0690   18.5970 H   0  0  0  0  0  0  0  0  0  0  0  0
  -30.2590  -15.5770   21.5240 C   0  0  0  0  0  2  0  0  0  0  0  0
  -30.7600  -14.4730   20.5560 C   0  0  0  0  0  0  0  0  0  0  0  0
  -30.4240  -12.3890   19.2600 C   0  0  0  0  0  2  0  0  0  0  0  0
  -29.4790  -12.6510   18.0710 C   0  0  0  0  0  2  0  0  0  0  0  0
  -28.0020  -12.5070   18.4860 C   0  0  0  0  0  2  0  0  0  0  0  0
  -27.6770  -13.2830   19.7890 C   0  0  0  0  0  3  0  0  0  0  0  0
  -28.7280  -12.9850   20.8790 C   0  0  0  0  0  2  0  0  0  0  0  0
  -30.0580  -13.3210   20.3400 N   0  0  0  0  0  0  0  0  0  0  0  0
  -31.8310  -14.6920   19.9830 O   0  0  0  0  0  0  0  0  0  0  0  0
  -25.2710  -13.8900   20.4620 C   0  0  0  0  0  0  0  0  0  0  0  0
  -24.1960  -13.1220   20.8190 C   0  0  0  0  0  0  0  0  0  0  0  0
  -24.6610  -11.7710   20.8060 C   0  0  0  0  0  0  0  0  0  0  0  0
  -26.3190  -13.0090   20.2520 N   0  0  0  0  0  0  0  0  0  0  0  0
  -25.9540  -11.7280   20.5080 N   0  0  0  0  0  0  0  0  0  0  0  0
  -23.9340  -10.5090   21.0050 C   0  0  0  0  0  0  0  0  0  0  0  0
  -24.3620   -9.5490   21.9500 C   0  0  0  0  0  3  0  0  0  0  0  0
  -23.6370   -8.3510   22.1320 C   0  0  0  0  0  3  0  0  0  0  0  0
  -22.4690   -8.1070   21.3690 C   0  0  0  0  0  0  0  0  0  0  0  0
  -22.0660   -9.0520   20.4100 C   0  0  0  0  0  3  0  0  0  0  0  0
  -22.7910  -10.2400   20.2250 C   0  0  0  0  0  3  0  0  0  0  0  0
  -21.7140   -6.9620   21.4600 O   0  0  0  0  0  0  0  0  0  0  0  0
  -21.6550   -6.2260   22.6160 C   0  0  0  0  0  0  0  0  0  0  0  0
  -21.2180   -6.7930   23.8340 C   0  0  0  0  0  3  0  0  0  0  0  0
  -21.1120   -5.9890   24.9850 C   0  0  0  0  0  3  0  0  0  0  0  0
  -21.4280   -4.6180   24.9190 C   0  0  0  0  0  0  0  0  0  0  0  0
  -21.8590   -4.0510   23.7060 C   0  0  0  0  0  3  0  0  0  0  0  0
  -21.9710   -4.8530   22.5580 C   0  0  0  0  0  0  0  0  0  0  0  0
  -22.3690   -4.3000   21.3860 F   0  0  0  0  0  0  0  0  0  0  0  0
  -21.3130   -3.8440   26.0220 F   0  0  0  0  0  0  0  0  0  0  0  0
  -22.7950  -13.6010   21.0710 C   0  0  0  0  0  0  0  0  0  0  0  0
  -22.0580  -12.9050   21.9310 N   0  0  0  0  0  0  0  0  0  0  0  0
  -22.3600  -14.6190   20.5370 O   0  0  0  0  0  0  0  0  0  0  0  0
  -22.4280  -12.0850   22.3850 H   0  0  0  0  0  0  0  0  0  0  0  0
  -21.1160  -13.1990   22.1420 H   0  0  0  0  0  0  0  0  0  0  0  0
  -25.4430  -15.2570   20.2860 N   0  0  0  0  0  0  0  0  0  0  0  0
  -24.6950  -15.9310   20.3960 H   0  0  0  0  0  0  0  0  0  0  0  0
  -26.3220  -15.6630   19.9860 H   0  0  0  0  0  0  0  0  0  0  0  0
  1  3  1  0
  2  4  2  0
  2  5  1  0
  4  6  1  0
  5  1  2  0
  6 53  1  0
  6  3  2  0
  7  5  1  0
  7 10  1  0
  8  7  2  0
  9  8  1  0
 10 11  1  0
 12 11  1  0
 13 24  2  0
 14 12  1  0
 14 19  1  0
 15 23  1  0
 15 25  1  0
 16 22  1  0
 16 18  1  0
 17 23  1  0
 18 19  2  0
 18 17  1  0
 20 14  2  0
 21 20  1  0
 21 16  2  0
 22 15  1  0
 23 13  1  0
 25 27  2  0
 26 25  1  0
 28 26  1  0
 29 38  2  0
 29 34  1  0
 30 26  1  0
 30 34  1  0
 31 30  1  0
 32 33  1  0
 32 31  1  0
 33 29  1  0
 34 35  2  0
 35 36  1  0
 37 36  2  0
 38 37  1  0
 39 13  1  0
 39 40  1  0
 39 49  1  0
 40 43  1  0
 41 45  1  0
 41 40  1  0
 42 41  2  0
 45 44  1  0
 47 45  1  0
 47 48  1  0
 47 46  1  0
 49 52  1  1
 49 50  1  0
 51 49  1  0
 54 53  1  0
 54 60  1  0
 55 54  1  0
 56 55  1  0
 56 58  1  0
 57 55  2  0
 59 56  1  0
 61 60  1  0
 62 67  1  0
 63 64  1  0
 63 62  1  0
 65 64  1  0
 65 72  1  0
 65 66  1  0
 67 61  1  0
 67 66  1  0
 68 61  2  0
 69 70  2  0
 70 89  1  0
 71 70  1  0
 71 74  1  0
 72 69  1  0
 72 73  1  0
 73 71  2  0
 74 75  1  0
 75 76  2  0
 77 80  1  0
 77 76  1  0
 78 77  2  0
 79 78  1  0
 79 74  2  0
 80 81  1  0
 81 82  1  0
 82 83  2  0
 84 83  1  0
 84 88  1  0
 85 84  2  0
 86 81  2  0
 86 85  1  0
 87 86  1  0
 89 90  1  0
 90 93  1  0
 90 92  1  0
 91 89  2  0
 94 95  1  0
 94 69  1  0
 96 94  1  0
M  ISO  4  11 101  12 101  60 100  61 100
M  END
>  <TORSDO>  (10) 
F 23

>  <SCORE>  (10) 
-12.957

>  <name>  (10) 
9

>  <ligand_id>  (10) 
9

>  <original_smiles>  (10) 
[H]N=C(c1c([H])c([H])c(C([H])([H])C([H])(C(=O)N([H])[H])C([H])([H])C(=O)N2C([H])([H])C([H])([H])C([H])([H])C([H])(n3nc(-c4c([H])c([H])c(Oc5c([H])c([H])c(F)c([H])c5F)c([H])c4[H])c(C(=O)N([H])[H])c3N([H])[H])C2([H])[H])c([H])c1[H])C([H])([H])C([H])([H])Oc1c([H])c([H])c2c(c1[H])C([H])([H])N(C(=O)C([H])(N([H])C(=O)C([H])(N([H])C([H])([H])[H])C([H])([H])[H])C(C([H])([H])[H])(C([H])([H])[H])C([H])([H])[H])C([H])(C(=O)N([H])C1([H])c3c([H])c([H])c([H])c([H])c3C([H])([H])C([H])([H])C1([H])[H])C2([H])[H]

>  <smiles>  (10) 
[H]N=C(c1c([H])c([H])c(C([H])([H])C([H])(C(=O)N([H])[H])C([H])([H])C(=O)N2C([H])([H])C([H])([H])C([H])([H])C([H])(n3nc(-c4c([H])c([H])c(Oc5c([H])c([H])c(F)c([H])c5F)c([H])c4[H])c(C(=O)N([H])[H])c3N([H])[H])C2([H])[H])c([H])c1[H])C([H])([H])C([H])([H])Oc1c([H])c([H])c2c(c1[H])C([H])([H])N(C(=O)C([H])(N([H])C(=O)C([H])(N([H])C([H])([H])[H])C([H])([H])[H])C(C([H])([H])[H])(C([H])([H])[H])C([H])([H])[H])C([H])(C(=O)N([H])C1([H])c3c([H])c([H])c([H])c([H])c3C([H])([H])C([H])([H])C1([H])[H])C2([H])[H]

$$$$
10:0:0
     RDKit          3D

 95103  0  0  1  0  0  0  0  0999 V2000
  -29.7840  -20.0010   20.4060 N   0  0  0  0  0  4  0  0  0  0  0  0
  -30.6440  -20.1020   19.8930 H   0  0  0  0  0  0  0  0  0  0  0  0
  -30.0420  -20.1520   21.3730 H   0  0  0  0  0  0  0  0  0  0  0  0
  -30.5660  -14.8800   19.9840 C   0  0  0  0  0  0  0  0  0  0  0  0
  -30.3030  -12.6180   18.9590 C   0  0  0  0  0  2  0  0  0  0  0  0
  -29.2950  -12.6810   17.7900 C   0  0  0  0  0  2  0  0  0  0  0  0
  -27.8580  -12.4610   18.3050 C   0  0  0  0  0  2  0  0  0  0  0  0
  -27.5310  -13.3380   19.5390 C   0  0  0  0  0  3  0  0  0  0  0  0
  -28.6580  -13.3060   20.5970 C   0  0  0  0  0  2  0  0  0  0  0  0
  -29.9130  -13.6670   19.9250 N   0  0  0  0  0  0  0  0  0  0  0  0
  -31.7620  -14.9450   19.6900 O   0  0  0  0  0  0  0  0  0  0  0  0
  -29.0260  -18.0190   18.9230 C   0  0  0  0  0  2  0  0  0  0  0  0
  -28.8840  -16.4970   19.1390 C   0  0  0  0  0  2  0  0  0  0  0  0
  -29.3410  -18.5350   20.3160 C   0  0  0  0  0  3  0  0  0  0  0  0
  -30.3170  -17.3570   20.7880 C   0  0  0  0  0  3  0  0  0  0  0  0
  -29.8290  -16.0510   20.1830 N   0  0  0  0  0  0  0  0  0  0  0  0
  -25.2020  -13.9170   20.4450 C   0  0  0  0  0  0  0  0  0  0  0  0
  -24.1590  -13.1340   20.8510 C   0  0  0  0  0  0  0  0  0  0  0  0
  -24.6190  -11.7840   20.7510 C   0  0  0  0  0  0  0  0  0  0  0  0
  -26.2260  -13.0430   20.1110 N   0  0  0  0  0  0  0  0  0  0  0  0
  -25.8870  -11.7540   20.3640 N   0  0  0  0  0  0  0  0  0  0  0  0
  -23.9070  -10.5170   20.9430 C   0  0  0  0  0  0  0  0  0  0  0  0
  -24.3630   -9.5480   21.8640 C   0  0  0  0  0  3  0  0  0  0  0  0
  -23.6550   -8.3420   22.0430 C   0  0  0  0  0  3  0  0  0  0  0  0
  -22.4740   -8.0960   21.3030 C   0  0  0  0  0  0  0  0  0  0  0  0
  -22.0350   -9.0550   20.3710 C   0  0  0  0  0  3  0  0  0  0  0  0
  -22.7460  -10.2530   20.1900 C   0  0  0  0  0  3  0  0  0  0  0  0
  -21.7330   -6.9440   21.3930 O   0  0  0  0  0  0  0  0  0  0  0  0
  -21.6770   -6.2130   22.5530 C   0  0  0  0  0  0  0  0  0  0  0  0
  -21.1870   -6.7640   23.7580 C   0  0  0  0  0  3  0  0  0  0  0  0
  -21.0830   -5.9580   24.9100 C   0  0  0  0  0  3  0  0  0  0  0  0
  -21.4590   -4.6020   24.8570 C   0  0  0  0  0  0  0  0  0  0  0  0
  -21.9420   -4.0520   23.6570 C   0  0  0  0  0  3  0  0  0  0  0  0
  -22.0480   -4.8550   22.5080 C   0  0  0  0  0  0  0  0  0  0  0  0
  -22.4960   -4.3140   21.3490 F   0  0  0  0  0  0  0  0  0  0  0  0
  -21.3520   -3.8250   25.9600 F   0  0  0  0  0  0  0  0  0  0  0  0
  -22.7790  -13.6010   21.2150 C   0  0  0  0  0  0  0  0  0  0  0  0
  -22.0940  -12.8760   22.0920 N   0  0  0  0  0  0  0  0  0  0  0  0
  -22.3170  -14.6450   20.7550 O   0  0  0  0  0  0  0  0  0  0  0  0
  -22.4790  -12.0320   22.4900 H   0  0  0  0  0  0  0  0  0  0  0  0
  -21.1690  -13.1700   22.3680 H   0  0  0  0  0  0  0  0  0  0  0  0
  -25.3570  -15.2930   20.3050 N   0  0  0  0  0  0  0  0  0  0  0  0
  -24.6020  -15.9450   20.4920 H   0  0  0  0  0  0  0  0  0  0  0  0
  -26.1900  -15.7440   19.9510 H   0  0  0  0  0  0  0  0  0  0  0  0
  -30.4360  -17.2000   22.3290 C   0  0  0  0  0  2  0  0  0  0  0  0
  -30.9790  -18.4140   23.0960 C   0  0  0  0  0  0  0  0  0  0  0  0
  -30.8570  -18.4100   24.4170 N   0  0  0  0  0  0  0  0  0  0  0  0
  -31.4990  -19.3630   22.5160 O   0  0  0  0  0  0  0  0  0  0  0  0
  -30.4200  -17.6330   24.8980 H   0  0  0  0  0  0  0  0  0  0  0  0
  -31.2030  -19.1870   24.9630 H   0  0  0  0  0  0  0  0  0  0  0  0
  -28.8430  -21.1260   19.9620 C   0  0  0  0  0  3  0  0  0  0  0  0
  -29.0600  -22.6010   20.5780 C   0  0  0  0  0  3  0  0  0  0  0  0
  -28.4480  -23.9080   19.8540 C   0  0  0  0  0  2  0  0  0  0  0  0
  -28.2550  -25.2620   20.7010 C   0  0  0  0  0  2  0  0  0  0  0  0
  -28.2890  -26.6100   20.0750 O   0  0  0  0  0  0  0  0  0  0  0  0
  -24.5600  -31.9480   23.2540 C   0  0  0  0  0  0  0  0  0  0  0  0
  -27.1540  -27.4320   20.1260 C   0  0  0  0  0  0  0  0  0  0  0  0
  -23.3410  -30.5710   21.6040 C   0  0  0  0  0  3  0  0  0  0  0  0
  -24.7810  -29.0290   20.1520 C   0  0  0  0  0  0  0  0  0  0  0  0
  -25.8770  -30.8950   21.4000 C   0  0  0  0  0  2  0  0  0  0  0  0
  -25.9530  -29.5220   20.7390 C   0  0  0  0  0  0  0  0  0  0  0  0
  -27.1460  -28.7370   20.7090 C   0  0  0  0  0  3  0  0  0  0  0  0
  -25.9590  -26.9810   19.5300 C   0  0  0  0  0  3  0  0  0  0  0  0
  -24.7860  -27.7640   19.5380 C   0  0  0  0  0  3  0  0  0  0  0  0
  -23.5430  -29.9040   20.2170 C   0  0  0  0  0  2  0  0  0  0  0  0
  -24.6120  -31.1560   22.1430 N   0  0  0  0  0  0  0  0  0  0  0  0
  -23.4820  -32.2170   23.8020 O   0  0  0  0  0  0  0  0  0  0  0  0
  -22.6860  -29.5460   22.5580 C   0  0  0  0  0  0  0  0  0  0  0  0
  -21.3600  -29.3640   22.4350 N   0  0  0  0  0  0  0  0  0  0  0  0
  -23.3700  -28.9140   23.3680 O   0  0  0  0  0  0  0  0  0  0  0  0
  -20.8660  -29.9260   21.7560 H   0  0  0  0  0  0  0  0  0  0  0  0
  -17.9880  -28.1540   22.9400 C   0  0  0  0  0  0  0  0  0  0  0  0
  -20.5480  -28.4140   23.1970 C   0  0  0  0  0  3  0  0  0  0  0  0
  -20.6480  -26.9900   22.6020 C   0  0  0  0  0  2  0  0  0  0  0  0
  -19.5400  -26.6800   21.5910 C   0  0  0  0  0  2  0  0  0  0  0  0
  -18.1620  -26.8150   22.2450 C   0  0  0  0  0  2  0  0  0  0  0  0
  -19.1090  -28.9120   23.3730 C   0  0  0  0  0  0  0  0  0  0  0  0
  -18.8920  -30.1670   23.9830 C   0  0  0  0  0  3  0  0  0  0  0  0
  -17.5880  -30.6650   24.1630 C   0  0  0  0  0  3  0  0  0  0  0  0
  -16.4820  -29.9030   23.7480 C   0  0  0  0  0  3  0  0  0  0  0  0
  -16.6830  -28.6500   23.1420 C   0  0  0  0  0  3  0  0  0  0  0  0
  -25.8500  -32.5710   23.8740 C   0  0  0  0  0  3  0  0  0  0  0  0
  -25.5530  -33.9740   24.1970 N   0  0  0  0  0  0  0  0  0  0  0  0
  -25.8910  -35.0200   23.4310 C   0  0  0  0  0  0  0  0  0  0  0  0
  -26.5540  -34.9050   22.3960 O   0  0  0  0  0  0  0  0  0  0  0  0
  -24.9650  -34.1370   25.0010 H   0  0  0  0  0  0  0  0  0  0  0  0
  -24.1900  -36.8360   23.0620 C   0  0  0  0  0  1  0  0  0  0  0  0
  -25.4190  -36.4160   23.8840 C   0  0  0  0  0  3  0  0  0  0  0  0
  -27.5520  -37.2770   24.7390 C   0  0  0  0  0  1  0  0  0  0  0  0
  -26.4670  -37.4540   23.7780 N   0  0  0  0  0  0  0  0  0  0  0  0
  -26.0710  -38.3800   23.9110 H   0  0  0  0  0  0  0  0  0  0  0  0
  -26.3550  -31.8030   25.1570 C   0  0  1  0  0  0  0  0  0  0  0  0
  -25.2510  -31.5670   26.2160 C   0  0  0  0  0  1  0  0  0  0  0  0
  -26.9400  -30.4240   24.7740 C   0  0  0  0  0  1  0  0  0  0  0  0
  -27.4980  -32.5970   25.8290 C   0  0  0  0  0  1  0  0  0  0  0  0
  1  3  1  0
  2  1  1  0
  4 16  1  0
  5 10  1  0
  6  7  1  0
  6  5  1  0
  8  7  1  0
  8 20  1  0
  8  9  1  0
 10  4  1  0
 10  9  1  0
 11  4  2  0
 12 13  1  0
 12 14  1  0
 13 16  1  0
 14  1  1  0
 14 15  1  0
 15 45  1  0
 16 15  1  0
 17 18  2  0
 18 37  1  0
 19 18  1  0
 19 22  1  0
 20 21  1  0
 20 17  1  0
 21 19  2  0
 22 23  1  0
 23 24  2  0
 25 28  1  0
 25 24  1  0
 26 25  2  0
 27 26  1  0
 27 22  2  0
 28 29  1  0
 29 30  1  0
 30 31  2  0
 32 31  1  0
 32 36  1  0
 33 32  2  0
 34 29  2  0
 34 33  1  0
 35 34  1  0
 37 38  1  0
 38 41  1  0
 38 40  1  0
 39 37  2  0
 42 17  1  0
 42 43  1  0
 44 42  1  0
 45 46  1  0
 46 47  1  0
 47 49  1  0
 47 50  1  0
 48 46  2  0
 51  1  1  0
 51 52  2  0
 53 52  1  0
 53 54  1  0
 55 57  1  0
 55 54  1  0
 56 67  2  0
 57 62  1  0
 58 66  1  0
 58 68  1  0
 59 65  1  0
 59 61  1  0
 60 66  1  0
 61 60  1  0
 62 61  2  0
 63 64  1  0
 63 57  2  0
 64 59  2  0
 65 58  1  0
 66 56  1  0
 68 70  2  0
 69 68  1  0
 71 69  1  0
 72 81  2  0
 72 77  1  0
 73 69  1  0
 73 77  1  0
 74 73  1  0
 75 76  1  0
 75 74  1  0
 76 72  1  0
 77 78  2  0
 78 79  1  0
 80 79  2  0
 81 80  1  0
 82 56  1  0
 82 83  1  0
 82 92  1  0
 83 86  1  0
 84 88  1  0
 84 83  1  0
 85 84  2  0
 88 87  1  0
 90 88  1  0
 90 91  1  0
 90 89  1  0
 92 95  1  1
 92 93  1  0
 94 92  1  0
M  ISO  4   4 100  16 100  54 101  55 101
M  END
>  <TORSDO>  (11) 
F 22

>  <SCORE>  (11) 
-12.849

>  <name>  (11) 
10

>  <ligand_id>  (11) 
10

>  <original_smiles>  (11) 
[H]c1c([H])c([H])c2c(c1[H])C([H])([H])C([H])([H])C([H])([H])C2([H])N([H])C(=O)C1([H])N(C(=O)C([H])(N([H])C(=O)C([H])(N([H])C([H])([H])[H])C([H])([H])[H])C(C([H])([H])[H])(C([H])([H])[H])C([H])([H])[H])C([H])([H])c2c([H])c(OC([H])([H])C([H])([H])C([H])([H])C([H])([H])[N+]([H])([H])C3([H])C([H])([H])C([H])([H])N(C(=O)N4C([H])([H])C([H])([H])C([H])([H])C([H])(n5nc(-c6c([H])c([H])c(Oc7c([H])c([H])c(F)c([H])c7F)c([H])c6[H])c(C(=O)N([H])[H])c5N([H])[H])C4([H])[H])C3([H])C([H])([H])C(=O)N([H])[H])c([H])c([H])c2C1([H])[H]

>  <smiles>  (11) 
[H]c1c([H])c([H])c2c(c1[H])C([H])([H])C([H])([H])C([H])([H])C2([H])N([H])C(=O)C1([H])N(C(=O)C([H])(N([H])C(=O)C([H])(N([H])C([H])([H])[H])C([H])([H])[H])C(C([H])([H])[H])(C([H])([H])[H])C([H])([H])[H])C([H])([H])c2c([H])c(OC([H])([H])C([H])([H])C([H])([H])C([H])([H])[N+]([H])([H])C3([H])C([H])([H])C([H])([H])N(C(=O)N4C([H])([H])C([H])([H])C([H])([H])C([H])(n5nc(-c6c([H])c([H])c(Oc7c([H])c([H])c(F)c([H])c7F)c([H])c6[H])c(C(=O)N([H])[H])c5N([H])[H])C4([H])[H])C3([H])C([H])([H])C(=O)N([H])[H])c([H])c([H])c2C1([H])[H]

$$$$
11:0:0
     RDKit          3D

 98106  0  0  1  0  0  0  0  0999 V2000
  -30.3990  -20.6350   19.0150 C   0  0  0  0  0  2  0  0  0  0  0  0
  -29.0970  -19.0460   20.5470 C   0  0  0  0  0  2  0  0  0  0  0  0
  -29.5680  -20.6290   20.3150 C   0  0  0  0  0  3  0  0  0  0  0  0
  -31.4750  -19.5130   18.9040 C   0  0  0  0  0  3  0  0  0  0  0  0
  -30.8790  -18.0610   18.9790 C   0  0  0  0  0  3  0  0  0  0  0  0
  -30.1760  -17.7930   20.3450 C   0  0  0  0  0  3  0  0  0  0  0  0
  -30.5950  -15.0890   20.3760 C   0  0  0  0  0  0  0  0  0  0  0  0
  -30.4590  -12.7810   19.3720 C   0  0  0  0  0  2  0  0  0  0  0  0
  -29.5220  -12.7920   18.1410 C   0  0  0  0  0  2  0  0  0  0  0  0
  -28.0590  -12.5740   18.5730 C   0  0  0  0  0  2  0  0  0  0  0  0
  -27.6580  -13.4580   19.7830 C   0  0  0  0  0  3  0  0  0  0  0  0
  -28.7180  -13.4290   20.9060 C   0  0  0  0  0  2  0  0  0  0  0  0
  -29.9910  -13.8410   20.3030 N   0  0  0  0  0  0  0  0  0  0  0  0
  -31.7930  -15.1660   20.0900 O   0  0  0  0  0  0  0  0  0  0  0  0
  -29.8200  -16.2670   20.5210 N   0  0  0  0  0  0  0  0  0  0  0  0
  -28.8520  -16.0840   20.7450 H   0  0  0  0  0  0  0  0  0  0  0  0
  -25.2690  -14.0010   20.5240 C   0  0  0  0  0  0  0  0  0  0  0  0
  -24.2140  -13.2090   20.8840 C   0  0  0  0  0  0  0  0  0  0  0  0
  -24.6960  -11.8640   20.8400 C   0  0  0  0  0  0  0  0  0  0  0  0
  -26.3230  -13.1390   20.2760 N   0  0  0  0  0  0  0  0  0  0  0  0
  -25.9880  -11.8480   20.5320 N   0  0  0  0  0  0  0  0  0  0  0  0
  -23.9850  -10.5900   21.0140 C   0  0  0  0  0  0  0  0  0  0  0  0
  -24.4130   -9.6280   21.9550 C   0  0  0  0  0  3  0  0  0  0  0  0
  -23.6990   -8.4200   22.1180 C   0  0  0  0  0  3  0  0  0  0  0  0
  -22.5450   -8.1670   21.3400 C   0  0  0  0  0  0  0  0  0  0  0  0
  -22.1380   -9.1180   20.3880 C   0  0  0  0  0  3  0  0  0  0  0  0
  -22.8510  -10.3170   20.2230 C   0  0  0  0  0  3  0  0  0  0  0  0
  -21.8040   -7.0120   21.4110 O   0  0  0  0  0  0  0  0  0  0  0  0
  -21.7210   -6.2820   22.5700 C   0  0  0  0  0  0  0  0  0  0  0  0
  -21.1870   -6.8270   23.7570 C   0  0  0  0  0  3  0  0  0  0  0  0
  -21.0560   -6.0210   24.9050 C   0  0  0  0  0  3  0  0  0  0  0  0
  -21.4460   -4.6690   24.8660 C   0  0  0  0  0  0  0  0  0  0  0  0
  -21.9730   -4.1230   23.6820 C   0  0  0  0  0  3  0  0  0  0  0  0
  -22.1060   -4.9270   22.5360 C   0  0  0  0  0  0  0  0  0  0  0  0
  -22.5940   -4.3890   21.3920 F   0  0  0  0  0  0  0  0  0  0  0  0
  -21.3140   -3.8920   25.9660 F   0  0  0  0  0  0  0  0  0  0  0  0
  -22.8100  -13.6650   21.1540 C   0  0  0  0  0  0  0  0  0  0  0  0
  -22.0890  -12.9530   22.0120 N   0  0  0  0  0  0  0  0  0  0  0  0
  -22.3630  -14.6900   20.6420 O   0  0  0  0  0  0  0  0  0  0  0  0
  -22.4650  -12.1230   22.4480 H   0  0  0  0  0  0  0  0  0  0  0  0
  -21.1470  -13.2400   22.2370 H   0  0  0  0  0  0  0  0  0  0  0  0
  -25.4130  -15.3760   20.3600 N   0  0  0  0  0  0  0  0  0  0  0  0
  -24.6330  -16.0130   20.4770 H   0  0  0  0  0  0  0  0  0  0  0  0
  -26.2450  -15.8310   20.0100 H   0  0  0  0  0  0  0  0  0  0  0  0
  -28.5250  -21.9440   20.2960 C   0  0  0  0  0  2  0  0  0  0  0  0
  -28.9630  -23.5660   20.2840 C   0  0  0  0  0  3  0  0  0  0  0  0
  -27.8940  -24.8400   20.0860 C   0  0  0  0  0  3  0  0  0  0  0  0
  -28.1800  -26.3610   20.1710 O   0  0  0  0  0  0  0  0  0  0  0  0
  -24.5490  -31.9810   23.2290 C   0  0  0  0  0  0  0  0  0  0  0  0
  -27.1080  -27.3190   20.1340 C   0  0  0  0  0  0  0  0  0  0  0  0
  -23.3280  -30.5770   21.6130 C   0  0  0  0  0  3  0  0  0  0  0  0
  -24.7600  -29.0250   20.1560 C   0  0  0  0  0  0  0  0  0  0  0  0
  -25.8730  -30.8740   21.3950 C   0  0  0  0  0  2  0  0  0  0  0  0
  -25.9470  -29.4860   20.7380 C   0  0  0  0  0  0  0  0  0  0  0  0
  -27.1220  -28.6490   20.7100 C   0  0  0  0  0  3  0  0  0  0  0  0
  -25.8900  -26.9530   19.5170 C   0  0  0  0  0  3  0  0  0  0  0  0
  -24.7420  -27.7700   19.5300 C   0  0  0  0  0  3  0  0  0  0  0  0
  -23.5260  -29.9080   20.2270 C   0  0  0  0  0  2  0  0  0  0  0  0
  -24.6040  -31.1640   22.1340 N   0  0  0  0  0  0  0  0  0  0  0  0
  -23.4710  -32.2540   23.7800 O   0  0  0  0  0  0  0  0  0  0  0  0
  -22.6810  -29.5590   22.5860 C   0  0  0  0  0  0  0  0  0  0  0  0
  -21.3590  -29.3460   22.4580 N   0  0  0  0  0  0  0  0  0  0  0  0
  -23.3700  -28.9650   23.4180 O   0  0  0  0  0  0  0  0  0  0  0  0
  -20.8590  -29.8790   21.7600 H   0  0  0  0  0  0  0  0  0  0  0  0
  -18.0150  -28.0470   22.9610 C   0  0  0  0  0  0  0  0  0  0  0  0
  -20.5630  -28.3960   23.2400 C   0  0  0  0  0  3  0  0  0  0  0  0
  -20.7150  -26.9580   22.6910 C   0  0  0  0  0  2  0  0  0  0  0  0
  -19.6310  -26.5820   21.6760 C   0  0  0  0  0  2  0  0  0  0  0  0
  -18.2400  -26.6930   22.3090 C   0  0  0  0  0  2  0  0  0  0  0  0
  -19.1060  -28.8520   23.3850 C   0  0  0  0  0  0  0  0  0  0  0  0
  -18.8420  -30.1160   23.9560 C   0  0  0  0  0  3  0  0  0  0  0  0
  -17.5200  -30.5750   24.1090 C   0  0  0  0  0  3  0  0  0  0  0  0
  -16.4440  -29.7670   23.7020 C   0  0  0  0  0  3  0  0  0  0  0  0
  -16.6930  -28.5050   23.1340 C   0  0  0  0  0  3  0  0  0  0  0  0
  -25.8340  -32.6270   23.8300 C   0  0  0  0  0  3  0  0  0  0  0  0
  -26.3750  -31.8620   25.1010 C   0  0  1  0  0  0  0  0  0  0  0  0
  -25.2950  -31.5990   26.1760 C   0  0  0  0  0  1  0  0  0  0  0  0
  -26.9850  -30.4980   24.7040 C   0  0  0  0  0  1  0  0  0  0  0  0
  -27.5150  -32.6780   25.7550 C   0  0  0  0  0  1  0  0  0  0  0  0
  -25.5170  -34.0220   24.1690 N   0  0  0  0  0  0  0  0  0  0  0  0
  -25.8240  -35.0820   23.4090 C   0  0  0  0  0  0  0  0  0  0  0  0
  -26.4730  -34.9880   22.3640 O   0  0  0  0  0  0  0  0  0  0  0  0
  -24.9370  -34.1680   24.9810 H   0  0  0  0  0  0  0  0  0  0  0  0
  -24.0860  -36.8740   23.0870 C   0  0  0  0  0  1  0  0  0  0  0  0
  -25.3370  -36.4660   23.8830 C   0  0  0  0  0  3  0  0  0  0  0  0
  -27.4700  -37.3600   24.7090 C   0  0  0  0  0  1  0  0  0  0  0  0
  -26.3640  -37.5240   23.7680 N   0  0  0  0  0  0  0  0  0  0  0  0
  -25.9550  -38.4420   23.9170 H   0  0  0  0  0  0  0  0  0  0  0  0
  -32.6520  -19.7770   19.8850 C   0  0  0  0  0  2  0  0  0  0  0  0
  -33.8340  -18.9330   19.6290 N   0  0  0  0  0  4  0  0  0  0  0  0
  -33.6360  -17.9580   19.7670 H   0  0  0  0  0  0  0  0  0  0  0  0
  -34.5680  -19.1860   20.2670 H   0  0  0  0  0  0  0  0  0  0  0  0
  -34.1850  -19.0710   18.6970 H   0  0  0  0  0  0  0  0  0  0  0  0
  -29.9480  -17.7150   17.7770 C   0  0  0  0  0  2  0  0  0  0  0  0
  -30.6020  -17.8400   16.4590 N   0  0  0  0  0  4  0  0  0  0  0  0
  -30.8670  -18.7880   16.2640 H   0  0  0  0  0  0  0  0  0  0  0  0
  -29.9600  -17.5540   15.7400 H   0  0  0  0  0  0  0  0  0  0  0  0
  -31.4130  -17.2510   16.3920 H   0  0  0  0  0  0  0  0  0  0  0  0
  1  3  1  0
  3 45  1  0
  3  2  1  0
  4  5  1  0
  4  1  1  0
  4 89  1  0
  5 94  1  0
  5  6  1  0
  6 15  1  0
  6  2  1  0
  7 15  1  0
  8 13  1  0
  9 10  1  0
  9  8  1  0
 11 10  1  0
 11 20  1  0
 11 12  1  0
 13  7  1  0
 13 12  1  0
 14  7  2  0
 15 16  1  0
 17 18  2  0
 18 37  1  0
 19 18  1  0
 19 22  1  0
 20 17  1  0
 20 21  1  0
 21 19  2  0
 22 23  1  0
 23 24  2  0
 25 28  1  0
 25 24  1  0
 26 25  2  0
 27 26  1  0
 27 22  2  0
 28 29  1  0
 29 30  1  0
 30 31  2  0
 32 31  1  0
 32 36  1  0
 33 32  2  0
 34 29  2  0
 34 33  1  0
 35 34  1  0
 37 38  1  0
 38 41  1  0
 38 40  1  0
 39 37  2  0
 42 43  1  0
 42 17  1  0
 44 42  1  0
 46 45  1  0
 47 48  1  0
 47 46  2  0
 49 60  2  0
 50 48  1  0
 50 55  1  0
 51 59  1  0
 51 61  1  0
 52 58  1  0
 52 54  1  0
 53 59  1  0
 54 53  1  0
 55 54  2  0
 56 57  1  0
 56 50  2  0
 57 52  2  0
 58 51  1  0
 59 49  1  0
 61 63  2  0
 62 61  1  0
 64 62  1  0
 65 74  2  0
 65 70  1  0
 66 62  1  0
 66 70  1  0
 67 66  1  0
 68 69  1  0
 68 67  1  0
 69 65  1  0
 70 71  2  0
 71 72  1  0
 73 72  2  0
 74 73  1  0
 75 49  1  0
 75 80  1  0
 75 76  1  0
 76 79  1  1
 76 77  1  0
 78 76  1  0
 80 83  1  0
 81 85  1  0
 81 80  1  0
 82 81  2  0
 85 84  1  0
 87 85  1  0
 87 88  1  0
 87 86  1  0
 90 91  1  0
 90 89  1  0
 90 92  1  0
 93 90  1  0
 95 94  1  0
 96 95  1  0
 97 95  1  0
 98 95  1  0
M  ISO  4   7 100  15 100  47 101  48 101
M  END
>  <TORSDO>  (12) 
F 23

>  <SCORE>  (12) 
-13.112

>  <name>  (12) 
11

>  <ligand_id>  (12) 
11

>  <original_smiles>  (12) 
[H]c1c([H])c([H])c2c(c1[H])C([H])([H])C([H])([H])C([H])([H])C2([H])N([H])C(=O)C1([H])N(C(=O)C([H])(N([H])C(=O)C([H])(N([H])C([H])([H])[H])C([H])([H])[H])C(C([H])([H])[H])(C([H])([H])[H])C([H])([H])[H])C([H])([H])c2c([H])c(OC([H])([H])C([H])([H])C([H])([H])C3([H])C([H])([H])C([H])(N([H])C(=O)N4C([H])([H])C([H])([H])C([H])([H])C([H])(n5nc(-c6c([H])c([H])c(Oc7c([H])c([H])c(F)c([H])c7F)c([H])c6[H])c(C(=O)N([H])[H])c5N([H])[H])C4([H])[H])C([H])(C([H])([H])[N+]([H])([H])[H])C([H])(C([H])([H])[N+]([H])([H])[H])C3([H])[H])c([H])c([H])c2C1([H])[H]

>  <smiles>  (12) 
[H]c1c([H])c([H])c2c(c1[H])C([H])([H])C([H])([H])C([H])([H])C2([H])N([H])C(=O)C1([H])N(C(=O)C([H])(N([H])C(=O)C([H])(N([H])C([H])([H])[H])C([H])([H])[H])C(C([H])([H])[H])(C([H])([H])[H])C([H])([H])[H])C([H])([H])c2c([H])c(OC([H])([H])C([H])([H])C([H])([H])C3([H])C([H])([H])C([H])(N([H])C(=O)N4C([H])([H])C([H])([H])C([H])([H])C([H])(n5nc(-c6c([H])c([H])c(Oc7c([H])c([H])c(F)c([H])c7F)c([H])c6[H])c(C(=O)N([H])[H])c5N([H])[H])C4([H])[H])C([H])(C([H])([H])[N+]([H])([H])[H])C([H])(C([H])([H])[N+]([H])([H])[H])C3([H])[H])c([H])c([H])c2C1([H])[H]

$$$$
12:0:0
     RDKit          3D

 92 99  0  0  1  0  0  0  0  0999 V2000
  -28.6580  -23.2190   19.7080 C   0  0  0  0  0  2  0  0  0  0  0  0
  -29.3940  -24.5070   20.1590 C   0  0  0  0  0  2  0  0  0  0  0  0
  -28.4630  -25.5300   20.7990 C   0  0  0  0  0  0  0  0  0  0  0  0
  -27.8400  -25.3100   21.8810 N   0  0  0  0  0  0  0  0  0  0  0  0
  -28.0400  -24.3880   22.2510 H   0  0  0  0  0  0  0  0  0  0  0  0
  -28.3900  -26.7140   20.0940 O   0  0  0  0  0  0  0  0  0  0  0  0
  -24.6050  -31.8740   23.2410 C   0  0  0  0  0  0  0  0  0  0  0  0
  -27.2230  -27.4480   20.1350 C   0  0  0  0  0  0  0  0  0  0  0  0
  -23.3870  -30.4760   21.6040 C   0  0  0  0  0  3  0  0  0  0  0  0
  -24.8290  -28.9430   20.1650 C   0  0  0  0  0  0  0  0  0  0  0  0
  -25.9080  -30.8420   21.3830 C   0  0  0  0  0  2  0  0  0  0  0  0
  -25.9900  -29.4700   20.7460 C   0  0  0  0  0  0  0  0  0  0  0  0
  -27.1930  -28.7300   20.7270 C   0  0  0  0  0  3  0  0  0  0  0  0
  -26.0480  -26.9320   19.5470 C   0  0  0  0  0  3  0  0  0  0  0  0
  -24.8510  -27.6720   19.5640 C   0  0  0  0  0  3  0  0  0  0  0  0
  -23.5840  -29.7980   20.2220 C   0  0  0  0  0  2  0  0  0  0  0  0
  -24.6520  -31.0770   22.1350 N   0  0  0  0  0  0  0  0  0  0  0  0
  -23.5280  -32.1460   23.7890 O   0  0  0  0  0  0  0  0  0  0  0  0
  -22.7430  -29.4530   22.5670 C   0  0  0  0  0  0  0  0  0  0  0  0
  -21.4190  -29.2720   22.4500 N   0  0  0  0  0  0  0  0  0  0  0  0
  -23.4320  -28.8240   23.3740 O   0  0  0  0  0  0  0  0  0  0  0  0
  -20.9230  -29.8310   21.7690 H   0  0  0  0  0  0  0  0  0  0  0  0
  -18.0470  -28.0740   22.9530 C   0  0  0  0  0  0  0  0  0  0  0  0
  -20.6030  -28.3340   23.2210 C   0  0  0  0  0  3  0  0  0  0  0  0
  -20.7080  -26.9030   22.6460 C   0  0  0  0  0  2  0  0  0  0  0  0
  -19.6040  -26.5790   21.6340 C   0  0  0  0  0  2  0  0  0  0  0  0
  -18.2230  -26.7240   22.2800 C   0  0  0  0  0  2  0  0  0  0  0  0
  -19.1640  -28.8370   23.3810 C   0  0  0  0  0  0  0  0  0  0  0  0
  -18.9460  -30.1020   23.9700 C   0  0  0  0  0  3  0  0  0  0  0  0
  -17.6420  -30.6030   24.1350 C   0  0  0  0  0  3  0  0  0  0  0  0
  -16.5370  -29.8360   23.7240 C   0  0  0  0  0  3  0  0  0  0  0  0
  -16.7410  -28.5740   23.1390 C   0  0  0  0  0  3  0  0  0  0  0  0
  -25.8970  -32.5010   23.8520 C   0  0  0  0  0  3  0  0  0  0  0  0
  -25.5920  -33.8970   24.1930 N   0  0  0  0  0  0  0  0  0  0  0  0
  -25.9190  -34.9540   23.4380 C   0  0  0  0  0  0  0  0  0  0  0  0
  -26.5860  -34.8560   22.4030 O   0  0  0  0  0  0  0  0  0  0  0  0
  -25.0010  -34.0470   24.9990 H   0  0  0  0  0  0  0  0  0  0  0  0
  -24.1910  -36.7470   23.1000 C   0  0  0  0  0  1  0  0  0  0  0  0
  -25.4360  -36.3400   23.9040 C   0  0  0  0  0  3  0  0  0  0  0  0
  -27.5770  -37.2140   24.7280 C   0  0  0  0  0  1  0  0  0  0  0  0
  -26.4680  -37.3920   23.7930 N   0  0  0  0  0  0  0  0  0  0  0  0
  -26.0630  -38.3110   23.9520 H   0  0  0  0  0  0  0  0  0  0  0  0
  -26.4300  -31.7200   25.1160 C   0  0  1  0  0  0  0  0  0  0  0  0
  -25.3510  -31.4750   26.1960 C   0  0  0  0  0  1  0  0  0  0  0  0
  -27.0070  -30.3460   24.7010 C   0  0  0  0  0  1  0  0  0  0  0  0
  -27.5890  -32.5080   25.7700 C   0  0  0  0  0  1  0  0  0  0  0  0
  -29.5770  -22.1480   19.0760 C   0  0  0  0  0  2  0  0  0  0  0  0
  -30.3940  -21.4060   20.0680 N   0  0  0  0  0  4  0  0  0  0  0  0
  -30.5110  -21.9890   20.8800 H   0  0  0  0  0  0  0  0  0  0  0  0
  -31.3140  -21.2610   19.6790 H   0  0  0  0  0  0  0  0  0  0  0  0
  -29.8700  -20.0880   20.5070 C   0  0  0  0  0  2  0  0  0  0  0  0
  -30.1490  -18.9620   19.4850 C   0  0  0  0  0  2  0  0  0  0  0  0
  -29.6070  -17.5660   19.8650 C   0  0  0  0  0  2  0  0  0  0  0  0
  -30.3590  -16.8520   21.0110 C   0  0  0  0  0  2  0  0  0  0  0  0
  -30.6680  -14.4340   20.4720 C   0  0  0  0  0  0  0  0  0  0  0  0
  -30.3290  -12.3060   19.2840 C   0  0  0  0  0  2  0  0  0  0  0  0
  -29.3760  -12.5520   18.0980 C   0  0  0  0  0  2  0  0  0  0  0  0
  -27.9050  -12.4210   18.5410 C   0  0  0  0  0  2  0  0  0  0  0  0
  -27.5920  -13.2330   19.8270 C   0  0  0  0  0  3  0  0  0  0  0  0
  -28.6590  -12.9750   20.9160 C   0  0  0  0  0  2  0  0  0  0  0  0
  -29.9820  -13.2690   20.3380 N   0  0  0  0  0  0  0  0  0  0  0  0
  -31.7690  -14.6330   19.9530 O   0  0  0  0  0  0  0  0  0  0  0  0
  -29.9970  -15.4300   21.0720 N   0  0  0  0  0  0  0  0  0  0  0  0
  -29.1040  -15.1930   21.4780 H   0  0  0  0  0  0  0  0  0  0  0  0
  -25.2010  -13.8430   20.5640 C   0  0  0  0  0  0  0  0  0  0  0  0
  -24.1360  -13.0690   20.9390 C   0  0  0  0  0  0  0  0  0  0  0  0
  -24.5940  -11.7170   20.8950 C   0  0  0  0  0  0  0  0  0  0  0  0
  -26.2430  -12.9620   20.3180 N   0  0  0  0  0  0  0  0  0  0  0  0
  -25.8810  -11.6780   20.5730 N   0  0  0  0  0  0  0  0  0  0  0  0
  -23.8670  -10.4560   21.0850 C   0  0  0  0  0  0  0  0  0  0  0  0
  -24.3260   -9.4690   21.9870 C   0  0  0  0  0  3  0  0  0  0  0  0
  -23.6030   -8.2710   22.1660 C   0  0  0  0  0  3  0  0  0  0  0  0
  -22.4050   -8.0500   21.4450 C   0  0  0  0  0  0  0  0  0  0  0  0
  -21.9660   -9.0230   20.5300 C   0  0  0  0  0  3  0  0  0  0  0  0
  -22.6900  -10.2140   20.3490 C   0  0  0  0  0  3  0  0  0  0  0  0
  -21.6500   -6.9050   21.5340 O   0  0  0  0  0  0  0  0  0  0  0  0
  -21.6520   -6.1290   22.6650 C   0  0  0  0  0  0  0  0  0  0  0  0
  -21.3070   -6.6520   23.9310 C   0  0  0  0  0  3  0  0  0  0  0  0
  -21.2550   -5.8030   25.0540 C   0  0  0  0  0  3  0  0  0  0  0  0
  -21.5390   -4.4320   24.9130 C   0  0  0  0  0  0  0  0  0  0  0  0
  -21.8780   -3.9070   23.6540 C   0  0  0  0  0  3  0  0  0  0  0  0
  -21.9330   -4.7540   22.5330 C   0  0  0  0  0  0  0  0  0  0  0  0
  -22.2390   -4.2400   21.3160 F   0  0  0  0  0  0  0  0  0  0  0  0
  -21.4810   -3.6130   25.9900 F   0  0  0  0  0  0  0  0  0  0  0  0
  -22.7410  -13.5460   21.2290 C   0  0  0  0  0  0  0  0  0  0  0  0
  -22.0220  -12.8490   22.1020 N   0  0  0  0  0  0  0  0  0  0  0  0
  -22.2980  -14.5730   20.7180 O   0  0  0  0  0  0  0  0  0  0  0  0
  -22.3920  -12.0170   22.5390 H   0  0  0  0  0  0  0  0  0  0  0  0
  -21.0860  -13.1510   22.3350 H   0  0  0  0  0  0  0  0  0  0  0  0
  -25.3670  -15.2140   20.3910 N   0  0  0  0  0  0  0  0  0  0  0  0
  -24.6030  -15.8700   20.5110 H   0  0  0  0  0  0  0  0  0  0  0  0
  -26.2160  -15.6540   20.0570 H   0  0  0  0  0  0  0  0  0  0  0  0
  1  2  1  0
  2  3  1  0
  3  4  2  0
  4  5  1  0
  6  8  1  0
  6  3  1  0
  7 18  2  0
  8 13  1  0
  9 17  1  0
  9 19  1  0
 10 16  1  0
 10 12  1  0
 11 17  1  0
 12 11  1  0
 13 12  2  0
 14 15  1  0
 14  8  2  0
 15 10  2  0
 16  9  1  0
 17  7  1  0
 19 21  2  0
 20 19  1  0
 22 20  1  0
 23 32  2  0
 23 28  1  0
 24 20  1  0
 24 28  1  0
 25 24  1  0
 26 27  1  0
 26 25  1  0
 27 23  1  0
 28 29  2  0
 29 30  1  0
 31 30  2  0
 32 31  1  0
 33  7  1  0
 33 34  1  0
 33 43  1  0
 34 37  1  0
 35 39  1  0
 35 34  1  0
 36 35  2  0
 39 38  1  0
 41 39  1  0
 41 42  1  0
 41 40  1  0
 43 46  1  1
 43 44  1  0
 45 43  1  0
 47  1  1  0
 47 48  1  0
 48 51  1  0
 48 49  1  0
 50 48  1  0
 52 53  1  0
 52 51  1  0
 53 54  1  0
 54 63  1  0
 55 63  1  0
 56 61  1  0
 57 58  1  0
 57 56  1  0
 59 58  1  0
 59 68  1  0
 59 60  1  0
 61 55  1  0
 61 60  1  0
 62 55  2  0
 63 64  1  0
 65 66  2  0
 66 85  1  0
 67 66  1  0
 67 70  1  0
 68 65  1  0
 68 69  1  0
 69 67  2  0
 70 71  1  0
 71 72  2  0
 73 76  1  0
 73 72  1  0
 74 73  2  0
 75 74  1  0
 75 70  2  0
 76 77  1  0
 77 78  1  0
 78 79  2  0
 80 79  1  0
 80 84  1  0
 81 80  2  0
 82 77  2  0
 82 81  1  0
 83 82  1  0
 85 86  1  0
 86 89  1  0
 86 88  1  0
 87 85  2  0
 90 91  1  0
 90 65  1  0
 92 90  1  0
M  ISO  4   3 101   6 101  55 100  63 100
M  END
>  <TORSDO>  (13) 
F 24

>  <SCORE>  (13) 
-12.358

>  <name>  (13) 
12

>  <ligand_id>  (13) 
12

>  <original_smiles>  (13) 
[H]N=C(Oc1c([H])c([H])c2c(c1[H])C([H])([H])N(C(=O)C([H])(N([H])C(=O)C([H])(N([H])C([H])([H])[H])C([H])([H])[H])C(C([H])([H])[H])(C([H])([H])[H])C([H])([H])[H])C([H])(C(=O)N([H])C1([H])c3c([H])c([H])c([H])c([H])c3C([H])([H])C([H])([H])C1([H])[H])C2([H])[H])C([H])([H])C([H])([H])C([H])([H])[N+]([H])([H])C([H])([H])C([H])([H])C([H])([H])C([H])([H])N([H])C(=O)N1C([H])([H])C([H])([H])C([H])([H])C([H])(n2nc(-c3c([H])c([H])c(Oc4c([H])c([H])c(F)c([H])c4F)c([H])c3[H])c(C(=O)N([H])[H])c2N([H])[H])C1([H])[H]

>  <smiles>  (13) 
[H]N=C(Oc1c([H])c([H])c2c(c1[H])C([H])([H])N(C(=O)C([H])(N([H])C(=O)C([H])(N([H])C([H])([H])[H])C([H])([H])[H])C(C([H])([H])[H])(C([H])([H])[H])C([H])([H])[H])C([H])(C(=O)N([H])C1([H])c3c([H])c([H])c([H])c([H])c3C([H])([H])C([H])([H])C1([H])[H])C2([H])[H])C([H])([H])C([H])([H])C([H])([H])[N+]([H])([H])C([H])([H])C([H])([H])C([H])([H])C([H])([H])N([H])C(=O)N1C([H])([H])C([H])([H])C([H])([H])C([H])(n2nc(-c3c([H])c([H])c(Oc4c([H])c([H])c(F)c([H])c4F)c([H])c3[H])c(C(=O)N([H])[H])c2N([H])[H])C1([H])[H]

$$$$
13:0:0
     RDKit          3D

 97105  0  0  1  0  0  0  0  0999 V2000
  -30.0040  -17.4870   19.5880 C   0  0  0  0  0  0  0  0  0  0  0  0
  -30.0610  -17.5660   22.0860 C   0  0  0  0  0  2  0  0  0  0  0  0
  -30.6330  -18.9700   22.3850 C   0  0  0  0  0  2  0  0  0  0  0  0
  -31.2830  -19.7030   20.1060 C   0  0  0  0  0  2  0  0  0  0  0  0
  -30.6440  -18.7660   19.0400 C   0  0  0  0  0  3  0  0  0  0  0  0
  -30.6290  -16.8590   20.8370 C   0  0  0  0  0  3  0  0  0  0  0  0
  -28.9730  -16.9860   19.0480 N   0  0  0  0  0  0  0  0  0  0  0  0
  -30.4490  -19.9960   21.3140 N   0  0  2  0  0  4  0  0  0  0  0  0
  -28.6720  -17.5150   18.2350 H   0  0  0  0  0  0  0  0  0  0  0  0
  -29.4760  -19.9880   21.0450 H   0  0  0  0  0  0  0  0  0  0  0  0
  -31.0460  -14.4260   20.3530 C   0  0  0  0  0  0  0  0  0  0  0  0
  -30.7540  -12.2550   19.2250 C   0  0  0  0  0  2  0  0  0  0  0  0
  -29.8180  -12.4470   18.0120 C   0  0  0  0  0  2  0  0  0  0  0  0
  -28.3380  -12.3380   18.4320 C   0  0  0  0  0  2  0  0  0  0  0  0
  -28.0030  -13.1980   19.6790 C   0  0  0  0  0  3  0  0  0  0  0  0
  -29.0440  -12.9640   20.7970 C   0  0  0  0  0  2  0  0  0  0  0  0
  -30.3780  -13.2490   20.2390 N   0  0  0  0  0  0  0  0  0  0  0  0
  -32.1650  -14.6240   19.8710 O   0  0  0  0  0  0  0  0  0  0  0  0
  -30.3320  -15.4190   20.9040 N   0  0  0  0  0  0  0  0  0  0  0  0
  -29.3990  -15.1700   21.1950 H   0  0  0  0  0  0  0  0  0  0  0  0
  -25.6140  -13.8600   20.3750 C   0  0  0  0  0  0  0  0  0  0  0  0
  -24.5270  -13.1090   20.7370 C   0  0  0  0  0  0  0  0  0  0  0  0
  -24.9570  -11.7490   20.7010 C   0  0  0  0  0  0  0  0  0  0  0  0
  -26.6400  -12.9560   20.1480 N   0  0  0  0  0  0  0  0  0  0  0  0
  -26.2480  -11.6810   20.3990 N   0  0  0  0  0  0  0  0  0  0  0  0
  -24.2030  -10.5010   20.8820 C   0  0  0  0  0  0  0  0  0  0  0  0
  -24.6040   -9.5260   21.8220 C   0  0  0  0  0  3  0  0  0  0  0  0
  -23.8530   -8.3420   21.9900 C   0  0  0  0  0  3  0  0  0  0  0  0
  -22.6870   -8.1260   21.2170 C   0  0  0  0  0  0  0  0  0  0  0  0
  -22.3060   -9.0900   20.2680 C   0  0  0  0  0  3  0  0  0  0  0  0
  -23.0570  -10.2650   20.0990 C   0  0  0  0  0  3  0  0  0  0  0  0
  -21.9090   -6.9960   21.2940 O   0  0  0  0  0  0  0  0  0  0  0  0
  -21.8200   -6.2620   22.4490 C   0  0  0  0  0  0  0  0  0  0  0  0
  -21.3660   -6.8300   23.6600 C   0  0  0  0  0  3  0  0  0  0  0  0
  -21.2210   -6.0220   24.8040 C   0  0  0  0  0  3  0  0  0  0  0  0
  -21.5210   -4.6480   24.7420 C   0  0  0  0  0  0  0  0  0  0  0  0
  -21.9670   -4.0800   23.5360 C   0  0  0  0  0  3  0  0  0  0  0  0
  -22.1130   -4.8840   22.3920 C   0  0  0  0  0  0  0  0  0  0  0  0
  -22.5230   -4.3280   21.2270 F   0  0  0  0  0  0  0  0  0  0  0  0
  -21.3740   -3.8710   25.8400 F   0  0  0  0  0  0  0  0  0  0  0  0
  -23.1390  -13.6160   21.0070 C   0  0  0  0  0  0  0  0  0  0  0  0
  -22.3960  -12.9330   21.8720 N   0  0  0  0  0  0  0  0  0  0  0  0
  -22.7220  -14.6500   20.4870 O   0  0  0  0  0  0  0  0  0  0  0  0
  -22.7480  -12.0960   22.3140 H   0  0  0  0  0  0  0  0  0  0  0  0
  -21.4650  -13.2530   22.0950 H   0  0  0  0  0  0  0  0  0  0  0  0
  -25.8120  -15.2260   20.2030 N   0  0  0  0  0  0  0  0  0  0  0  0
  -25.0590  -15.8990   20.2980 H   0  0  0  0  0  0  0  0  0  0  0  0
  -26.6670  -15.6390   19.8480 H   0  0  0  0  0  0  0  0  0  0  0  0
  -32.1700  -19.6050   17.1070 C   0  0  0  0  0  1  0  0  0  0  0  0
  -31.6400  -18.4050   17.9100 C   0  0  0  0  0  2  0  0  0  0  0  0
  -30.6960  -21.3760   21.8440 C   0  0  0  0  0  2  0  0  0  0  0  0
  -29.5550  -22.3790   21.5300 C   0  0  0  0  0  2  0  0  0  0  0  0
  -29.7840  -23.7730   23.6720 C   0  0  0  0  0  1  0  0  0  0  0  0
  -29.7750  -23.7990   22.1280 C   0  0  0  0  0  3  0  0  0  0  0  0
  -28.7260  -24.8420   21.6540 C   0  0  0  0  0  2  0  0  0  0  0  0
  -28.9270  -25.3960   20.2230 C   0  0  0  0  0  2  0  0  0  0  0  0
  -28.8390  -26.8270   20.1920 O   0  0  0  0  0  0  0  0  0  0  0  0
  -24.6730  -31.7300   23.1990 C   0  0  0  0  0  0  0  0  0  0  0  0
  -27.6050  -27.4410   20.1660 C   0  0  0  0  0  0  0  0  0  0  0  0
  -23.5750  -30.2900   21.5120 C   0  0  0  0  0  3  0  0  0  0  0  0
  -25.1340  -28.8230   20.1230 C   0  0  0  0  0  0  0  0  0  0  0  0
  -26.0850  -30.7630   21.3860 C   0  0  0  0  0  2  0  0  0  0  0  0
  -26.2490  -29.4000   20.7420 C   0  0  0  0  0  0  0  0  0  0  0  0
  -27.4840  -28.7180   20.7580 C   0  0  0  0  0  3  0  0  0  0  0  0
  -26.4680  -26.8650   19.5520 C   0  0  0  0  0  3  0  0  0  0  0  0
  -25.2390  -27.5520   19.5290 C   0  0  0  0  0  3  0  0  0  0  0  0
  -23.8540  -29.6250   20.1370 C   0  0  0  0  0  2  0  0  0  0  0  0
  -24.7930  -30.9430   22.0930 N   0  0  0  0  0  0  0  0  0  0  0  0
  -23.5670  -31.9480   23.7110 O   0  0  0  0  0  0  0  0  0  0  0  0
  -22.9450  -29.2350   22.4480 C   0  0  0  0  0  0  0  0  0  0  0  0
  -21.6280  -29.0120   22.3000 N   0  0  0  0  0  0  0  0  0  0  0  0
  -23.6370  -28.6150   23.2610 O   0  0  0  0  0  0  0  0  0  0  0  0
  -21.1280  -29.5670   21.6180 H   0  0  0  0  0  0  0  0  0  0  0  0
  -18.2850  -27.7150   22.7310 C   0  0  0  0  0  0  0  0  0  0  0  0
  -20.8310  -28.0360   23.0410 C   0  0  0  0  0  3  0  0  0  0  0  0
  -20.9800  -26.6200   22.4380 C   0  0  0  0  0  2  0  0  0  0  0  0
  -19.9020  -26.2880   21.4010 C   0  0  0  0  0  2  0  0  0  0  0  0
  -18.5080  -26.3820   22.0320 C   0  0  0  0  0  2  0  0  0  0  0  0
  -19.3780  -28.4970   23.1890 C   0  0  0  0  0  0  0  0  0  0  0  0
  -19.1190  -29.7430   23.8020 C   0  0  0  0  0  3  0  0  0  0  0  0
  -17.8010  -30.2080   23.9570 C   0  0  0  0  0  3  0  0  0  0  0  0
  -16.7220  -29.4220   23.5170 C   0  0  0  0  0  3  0  0  0  0  0  0
  -16.9640  -28.1760   22.9100 C   0  0  0  0  0  3  0  0  0  0  0  0
  -25.9140  -32.4100   23.8600 C   0  0  0  0  0  3  0  0  0  0  0  0
  -25.5400  -33.7930   24.1820 N   0  0  0  0  0  0  0  0  0  0  0  0
  -25.8480  -34.8580   23.4310 C   0  0  0  0  0  0  0  0  0  0  0  0
  -26.5450  -34.7830   22.4150 O   0  0  0  0  0  0  0  0  0  0  0  0
  -24.9220  -33.9190   24.9690 H   0  0  0  0  0  0  0  0  0  0  0  0
  -24.0510  -36.5710   23.0350 C   0  0  0  0  0  1  0  0  0  0  0  0
  -25.2910  -36.2230   23.8740 C   0  0  0  0  0  3  0  0  0  0  0  0
  -27.3670  -37.2020   24.7460 C   0  0  0  0  0  1  0  0  0  0  0  0
  -26.2790  -37.3210   23.7800 N   0  0  0  0  0  0  0  0  0  0  0  0
  -25.8320  -38.2240   23.9160 H   0  0  0  0  0  0  0  0  0  0  0  0
  -26.4260  -31.6550   25.1470 C   0  0  1  0  0  0  0  0  0  0  0  0
  -25.3150  -31.3710   26.1850 C   0  0  0  0  0  1  0  0  0  0  0  0
  -27.0710  -30.3040   24.7610 C   0  0  0  0  0  1  0  0  0  0  0  0
  -27.5270  -32.4900   25.8410 C   0  0  0  0  0  1  0  0  0  0  0  0
  1  6  1  0
  2  3  1  0
  4  8  1  0
  5 50  1  0
  5  1  1  0
  5  4  1  0
  6 19  1  0
  6  2  1  0
  7  1  2  0
  8 51  1  0
  8  3  1  0
  9  7  1  0
  8 10  1  6
 11 19  1  0
 12 17  1  0
 13 14  1  0
 13 12  1  0
 15 14  1  0
 15 24  1  0
 15 16  1  0
 17 11  1  0
 17 16  1  0
 18 11  2  0
 19 20  1  0
 21 22  2  0
 22 41  1  0
 23 22  1  0
 23 26  1  0
 24 21  1  0
 24 25  1  0
 25 23  2  0
 26 27  1  0
 27 28  2  0
 29 32  1  0
 29 28  1  0
 30 29  2  0
 31 30  1  0
 31 26  2  0
 32 33  1  0
 33 34  1  0
 34 35  2  0
 36 35  1  0
 36 40  1  0
 37 36  2  0
 38 33  2  0
 38 37  1  0
 39 38  1  0
 41 42  1  0
 42 45  1  0
 42 44  1  0
 43 41  2  0
 46 47  1  0
 46 21  1  0
 48 46  1  0
 49 50  1  0
 52 51  1  0
 52 54  1  0
 54 53  1  0
 55 54  1  0
 56 55  1  0
 57 56  1  0
 58 69  2  0
 59 57  1  0
 59 64  1  0
 60 68  1  0
 60 70  1  0
 61 67  1  0
 61 63  1  0
 62 68  1  0
 63 64  2  0
 63 62  1  0
 65 59  2  0
 66 65  1  0
 66 61  2  0
 67 60  1  0
 68 58  1  0
 70 72  2  0
 71 70  1  0
 73 71  1  0
 74 83  2  0
 74 79  1  0
 75 71  1  0
 75 79  1  0
 76 75  1  0
 77 78  1  0
 77 76  1  0
 78 74  1  0
 79 80  2  0
 80 81  1  0
 82 81  2  0
 83 82  1  0
 84 58  1  0
 84 85  1  0
 84 94  1  0
 85 88  1  0
 86 90  1  0
 86 85  1  0
 87 86  2  0
 90 89  1  0
 92 90  1  0
 92 93  1  0
 92 91  1  0
 94 97  1  1
 94 95  1  0
 96 94  1  0
M  ISO  4  11 100  19 100  56 101  57 101
M  END
>  <TORSDO>  (14) 
F 22

>  <SCORE>  (14) 
-12.659

>  <name>  (14) 
13

>  <ligand_id>  (14) 
13

>  <original_smiles>  (14) 
[H]N=C1C([H])(N([H])C(=O)N2C([H])([H])C([H])([H])C([H])([H])C([H])(n3nc(-c4c([H])c([H])c(Oc5c([H])c([H])c(F)c([H])c5F)c([H])c4[H])c(C(=O)N([H])[H])c3N([H])[H])C2([H])[H])C([H])([H])C([H])([H])[N+]([H])(C([H])([H])C([H])([H])C([H])(C([H])([H])[H])C([H])([H])C([H])([H])Oc2c([H])c([H])c3c(c2[H])C([H])([H])N(C(=O)C([H])(N([H])C(=O)C([H])(N([H])C([H])([H])[H])C([H])([H])[H])C(C([H])([H])[H])(C([H])([H])[H])C([H])([H])[H])C([H])(C(=O)N([H])C2([H])c4c([H])c([H])c([H])c([H])c4C([H])([H])C([H])([H])C2([H])[H])C3([H])[H])C([H])([H])C1([H])C([H])([H])C([H])([H])[H]

>  <smiles>  (14) 
[H]N=C1C([H])(N([H])C(=O)N2C([H])([H])C([H])([H])C([H])([H])C([H])(n3nc(-c4c([H])c([H])c(Oc5c([H])c([H])c(F)c([H])c5F)c([H])c4[H])c(C(=O)N([H])[H])c3N([H])[H])C2([H])[H])C([H])([H])C([H])([H])[N+]([H])(C([H])([H])C([H])([H])C([H])(C([H])([H])[H])C([H])([H])C([H])([H])Oc2c([H])c([H])c3c(c2[H])C([H])([H])N(C(=O)C([H])(N([H])C(=O)C([H])(N([H])C([H])([H])[H])C([H])([H])[H])C(C([H])([H])[H])(C([H])([H])[H])C([H])([H])[H])C([H])(C(=O)N([H])C2([H])c4c([H])c([H])c([H])c([H])c4C([H])([H])C([H])([H])C2([H])[H])C3([H])[H])C([H])([H])C1([H])C([H])([H])C([H])([H])[H]

$$$$
14:0:0
     RDKit          3D

 93101  0  0  1  0  0  0  0  0999 V2000
  -29.6140  -21.8630   20.1500 C   0  0  0  0  0  0  0  0  0  0  0  0
  -29.5000  -23.0410   20.8090 N   0  0  0  0  0  0  0  0  0  0  0  0
  -29.4230  -21.7780   18.9350 O   0  0  0  0  0  0  0  0  0  0  0  0
  -29.6320  -22.9900   21.8110 H   0  0  0  0  0  0  0  0  0  0  0  0
  -31.6310  -20.4700   20.8030 C   0  0  0  0  0  2  0  0  0  0  0  0
  -29.5920  -19.1880   20.5700 C   0  0  0  0  0  2  0  0  0  0  0  0
  -30.1130  -20.6190   20.9550 C   0  0  0  0  0  3  0  0  0  0  0  0
  -31.9460  -19.0210   21.1890 C   0  0  0  0  0  3  0  0  0  0  0  0
  -30.7860  -18.1680   20.6300 C   0  0  0  0  0  3  0  0  0  0  0  0
  -34.4870  -19.3530   21.3580 C   0  0  0  0  0  1  0  0  0  0  0  0
  -33.3400  -18.5580   20.7200 C   0  0  0  0  0  2  0  0  0  0  0  0
  -30.6160  -16.8690   21.5050 C   0  0  0  0  0  2  0  0  0  0  0  0
  -30.7930  -14.6120   20.3450 C   0  0  0  0  0  0  0  0  0  0  0  0
  -30.5160  -12.4350   19.1910 C   0  0  0  0  0  2  0  0  0  0  0  0
  -29.5610  -12.5940   17.9890 C   0  0  0  0  0  2  0  0  0  0  0  0
  -28.0920  -12.4430   18.4330 C   0  0  0  0  0  2  0  0  0  0  0  0
  -27.7530  -13.2970   19.6830 C   0  0  0  0  0  3  0  0  0  0  0  0
  -28.8150  -13.1040   20.7860 C   0  0  0  0  0  2  0  0  0  0  0  0
  -30.1250  -13.4310   20.2010 N   0  0  0  0  0  0  0  0  0  0  0  0
  -31.9370  -14.7820   19.9200 O   0  0  0  0  0  0  0  0  0  0  0  0
  -30.0840  -15.6320   20.8870 N   0  0  0  0  0  0  0  0  0  0  0  0
  -29.1230  -15.4140   21.1040 H   0  0  0  0  0  0  0  0  0  0  0  0
  -25.3590  -13.9060   20.3990 C   0  0  0  0  0  0  0  0  0  0  0  0
  -24.2930  -13.1350   20.7790 C   0  0  0  0  0  0  0  0  0  0  0  0
  -24.7560  -11.7840   20.7600 C   0  0  0  0  0  0  0  0  0  0  0  0
  -26.4040  -13.0230   20.1730 N   0  0  0  0  0  0  0  0  0  0  0  0
  -26.0450  -11.7440   20.4490 N   0  0  0  0  0  0  0  0  0  0  0  0
  -24.0320  -10.5230   20.9650 C   0  0  0  0  0  0  0  0  0  0  0  0
  -24.4680   -9.5660   21.9070 C   0  0  0  0  0  3  0  0  0  0  0  0
  -23.7460   -8.3680   22.0980 C   0  0  0  0  0  3  0  0  0  0  0  0
  -22.5730   -8.1200   21.3460 C   0  0  0  0  0  0  0  0  0  0  0  0
  -22.1560   -9.0660   20.3930 C   0  0  0  0  0  3  0  0  0  0  0  0
  -22.8800  -10.2550   20.1990 C   0  0  0  0  0  3  0  0  0  0  0  0
  -21.8220   -6.9740   21.4450 O   0  0  0  0  0  0  0  0  0  0  0  0
  -21.7680   -6.2470   22.6070 C   0  0  0  0  0  0  0  0  0  0  0  0
  -21.3380   -6.8190   23.8240 C   0  0  0  0  0  3  0  0  0  0  0  0
  -21.2320   -6.0180   24.9790 C   0  0  0  0  0  3  0  0  0  0  0  0
  -21.5460   -4.6470   24.9170 C   0  0  0  0  0  0  0  0  0  0  0  0
  -21.9680   -4.0750   23.7050 C   0  0  0  0  0  3  0  0  0  0  0  0
  -22.0760   -4.8730   22.5520 C   0  0  0  0  0  0  0  0  0  0  0  0
  -22.4630   -4.3120   21.3820 F   0  0  0  0  0  0  0  0  0  0  0  0
  -21.4360   -3.8760   26.0250 F   0  0  0  0  0  0  0  0  0  0  0  0
  -22.8960  -13.6140   21.0500 C   0  0  0  0  0  0  0  0  0  0  0  0
  -22.1710  -12.9240   21.9250 N   0  0  0  0  0  0  0  0  0  0  0  0
  -22.4550  -14.6340   20.5210 O   0  0  0  0  0  0  0  0  0  0  0  0
  -22.5390  -12.1000   22.3740 H   0  0  0  0  0  0  0  0  0  0  0  0
  -21.2340  -13.2270   22.1490 H   0  0  0  0  0  0  0  0  0  0  0  0
  -25.5220  -15.2740   20.2070 N   0  0  0  0  0  0  0  0  0  0  0  0
  -24.7550  -15.9310   20.3100 H   0  0  0  0  0  0  0  0  0  0  0  0
  -26.3680  -15.7090   19.8620 H   0  0  0  0  0  0  0  0  0  0  0  0
  -29.5330  -24.4180   20.2430 C   0  0  0  0  0  2  0  0  0  0  0  0
  -28.2010  -25.2270   20.3210 C   0  0  0  0  0  2  0  0  0  0  0  0
  -28.3600  -26.6720   20.1860 O   0  0  0  0  0  0  0  0  0  0  0  0
  -24.5800  -31.9520   23.2410 C   0  0  0  0  0  0  0  0  0  0  0  0
  -27.2020  -27.4460   20.1760 C   0  0  0  0  0  0  0  0  0  0  0  0
  -23.3690  -30.5380   21.6160 C   0  0  0  0  0  3  0  0  0  0  0  0
  -24.8150  -28.9960   20.1890 C   0  0  0  0  0  0  0  0  0  0  0  0
  -25.8980  -30.8870   21.4050 C   0  0  0  0  0  2  0  0  0  0  0  0
  -25.9820  -29.5100   20.7660 C   0  0  0  0  0  0  0  0  0  0  0  0
  -27.1800  -28.7470   20.7500 C   0  0  0  0  0  3  0  0  0  0  0  0
  -26.0090  -26.9670   19.5850 C   0  0  0  0  0  3  0  0  0  0  0  0
  -24.8270  -27.7260   19.5930 C   0  0  0  0  0  3  0  0  0  0  0  0
  -23.5730  -29.8570   20.2380 C   0  0  0  0  0  2  0  0  0  0  0  0
  -24.6350  -31.1420   22.1440 N   0  0  0  0  0  0  0  0  0  0  0  0
  -23.5000  -32.2240   23.7840 O   0  0  0  0  0  0  0  0  0  0  0  0
  -22.7240  -29.5200   22.5860 C   0  0  0  0  0  0  0  0  0  0  0  0
  -21.4000  -29.3270   22.4610 N   0  0  0  0  0  0  0  0  0  0  0  0
  -23.4110  -28.9080   23.4060 O   0  0  0  0  0  0  0  0  0  0  0  0
  -20.9050  -29.8740   21.7710 H   0  0  0  0  0  0  0  0  0  0  0  0
  -18.0390  -28.0920   22.9570 C   0  0  0  0  0  0  0  0  0  0  0  0
  -20.5910  -28.3900   23.2400 C   0  0  0  0  0  3  0  0  0  0  0  0
  -20.7170  -26.9520   22.6870 C   0  0  0  0  0  2  0  0  0  0  0  0
  -19.6270  -26.5990   21.6710 C   0  0  0  0  0  2  0  0  0  0  0  0
  -18.2380  -26.7350   22.3050 C   0  0  0  0  0  2  0  0  0  0  0  0
  -19.1440  -28.8750   23.3820 C   0  0  0  0  0  0  0  0  0  0  0  0
  -18.9040  -30.1450   23.9530 C   0  0  0  0  0  3  0  0  0  0  0  0
  -17.5920  -30.6310   24.1010 C   0  0  0  0  0  3  0  0  0  0  0  0
  -16.5010  -29.8450   23.6930 C   0  0  0  0  0  3  0  0  0  0  0  0
  -16.7250  -28.5770   23.1260 C   0  0  0  0  0  3  0  0  0  0  0  0
  -25.8660  -32.5920   23.8490 C   0  0  0  0  0  3  0  0  0  0  0  0
  -25.5540  -33.9900   24.1740 N   0  0  0  0  0  0  0  0  0  0  0  0
  -25.8910  -35.0410   23.4160 C   0  0  0  0  0  0  0  0  0  0  0  0
  -26.5670  -34.9360   22.3880 O   0  0  0  0  0  0  0  0  0  0  0  0
  -24.9580  -34.1460   24.9730 H   0  0  0  0  0  0  0  0  0  0  0  0
  -24.1730  -36.8360   23.0360 C   0  0  0  0  0  1  0  0  0  0  0  0
  -25.3990  -36.4300   23.8670 C   0  0  0  0  0  3  0  0  0  0  0  0
  -27.5240  -37.3060   24.7320 C   0  0  0  0  0  1  0  0  0  0  0  0
  -26.4360  -37.4810   23.7730 N   0  0  0  0  0  0  0  0  0  0  0  0
  -26.0300  -38.4020   23.9190 H   0  0  0  0  0  0  0  0  0  0  0  0
  -26.3980  -31.8280   25.1230 C   0  0  1  0  0  0  0  0  0  0  0  0
  -25.3150  -31.5900   26.2020 C   0  0  0  0  0  1  0  0  0  0  0  0
  -26.9820  -30.4530   24.7290 C   0  0  0  0  0  1  0  0  0  0  0  0
  -27.5500  -32.6300   25.7720 C   0  0  0  0  0  1  0  0  0  0  0  0
  1  2  1  0
  2  4  1  0
  3  1  2  0
  5  7  1  0
  5  8  1  0
  6  9  1  0
  6  7  1  0
  7  1  1  0
  8 11  1  0
  9  8  1  0
  9 12  1  0
 11 10  1  0
 13 21  1  0
 14 19  1  0
 15 16  1  0
 15 14  1  0
 17 16  1  0
 17 26  1  0
 17 18  1  0
 19 13  1  0
 19 18  1  0
 20 13  2  0
 21 22  1  0
 21 12  1  0
 23 24  2  0
 24 43  1  0
 25 24  1  0
 25 28  1  0
 26 23  1  0
 26 27  1  0
 27 25  2  0
 28 29  1  0
 29 30  2  0
 31 34  1  0
 31 30  1  0
 32 31  2  0
 33 32  1  0
 33 28  2  0
 34 35  1  0
 35 36  1  0
 36 37  2  0
 38 37  1  0
 38 42  1  0
 39 38  2  0
 40 35  2  0
 40 39  1  0
 41 40  1  0
 43 44  1  0
 44 47  1  0
 44 46  1  0
 45 43  2  0
 48 49  1  0
 48 23  1  0
 50 48  1  0
 51 52  1  0
 51  2  1  0
 53 52  1  0
 54 65  2  0
 55 53  1  0
 55 60  1  0
 56 64  1  0
 56 66  1  0
 57 63  1  0
 57 59  1  0
 58 64  1  0
 59 58  1  0
 60 59  2  0
 61 62  1  0
 61 55  2  0
 62 57  2  0
 63 56  1  0
 64 54  1  0
 66 68  2  0
 67 66  1  0
 69 67  1  0
 70 79  2  0
 70 75  1  0
 71 67  1  0
 71 75  1  0
 72 71  1  0
 73 74  1  0
 73 72  1  0
 74 70  1  0
 75 76  2  0
 76 77  1  0
 78 77  2  0
 79 78  1  0
 80 54  1  0
 80 81  1  0
 80 90  1  0
 81 84  1  0
 82 86  1  0
 82 81  1  0
 83 82  2  0
 86 85  1  0
 88 86  1  0
 88 89  1  0
 88 87  1  0
 90 93  1  1
 90 91  1  0
 92 90  1  0
M  ISO  4  13 100  21 100  52 101  53 101
M  END
>  <TORSDO>  (15) 
F 21

>  <SCORE>  (15) 
-13.604

>  <name>  (15) 
14

>  <ligand_id>  (15) 
14

>  <original_smiles>  (15) 
[H]c1c([H])c([H])c2c(c1[H])C([H])([H])C([H])([H])C([H])([H])C2([H])N([H])C(=O)C1([H])N(C(=O)C([H])(N([H])C(=O)C([H])(N([H])C([H])([H])[H])C([H])([H])[H])C(C([H])([H])[H])(C([H])([H])[H])C([H])([H])[H])C([H])([H])c2c([H])c(OC([H])([H])C([H])([H])N([H])C(=O)C3([H])C([H])([H])C([H])(C([H])([H])N([H])C(=O)N4C([H])([H])C([H])([H])C([H])([H])C([H])(n5nc(-c6c([H])c([H])c(Oc7c([H])c([H])c(F)c([H])c7F)c([H])c6[H])c(C(=O)N([H])[H])c5N([H])[H])C4([H])[H])C([H])(C([H])([H])C([H])([H])[H])C3([H])[H])c([H])c([H])c2C1([H])[H]

>  <smiles>  (15) 
[H]c1c([H])c([H])c2c(c1[H])C([H])([H])C([H])([H])C([H])([H])C2([H])N([H])C(=O)C1([H])N(C(=O)C([H])(N([H])C(=O)C([H])(N([H])C([H])([H])[H])C([H])([H])[H])C(C([H])([H])[H])(C([H])([H])[H])C([H])([H])[H])C([H])([H])c2c([H])c(OC([H])([H])C([H])([H])N([H])C(=O)C3([H])C([H])([H])C([H])(C([H])([H])N([H])C(=O)N4C([H])([H])C([H])([H])C([H])([H])C([H])(n5nc(-c6c([H])c([H])c(Oc7c([H])c([H])c(F)c([H])c7F)c([H])c6[H])c(C(=O)N([H])[H])c5N([H])[H])C4([H])[H])C([H])(C([H])([H])C([H])([H])[H])C3([H])[H])c([H])c([H])c2C1([H])[H]

$$$$
15:0:0
     RDKit          3D

 99107  0  0  1  0  0  0  0  0999 V2000
  -30.7590  -13.9900   19.5440 C   0  0  0  0  0  0  0  0  0  0  0  0
  -30.3460  -11.6250   18.6870 C   0  0  0  0  0  2  0  0  0  0  0  0
  -29.2800  -11.6170   17.5660 C   0  0  0  0  0  2  0  0  0  0  0  0
  -27.8650  -11.5200   18.1640 C   0  0  0  0  0  2  0  0  0  0  0  0
  -27.6640  -12.4940   19.3520 C   0  0  0  0  0  3  0  0  0  0  0  0
  -28.8370  -12.4510   20.3530 C   0  0  0  0  0  2  0  0  0  0  0  0
  -30.0580  -12.7750   19.6030 N   0  0  0  0  0  0  0  0  0  0  0  0
  -31.8610  -13.9470   18.9860 O   0  0  0  0  0  0  0  0  0  0  0  0
  -29.9790  -16.6110   19.1400 C   0  0  0  0  0  2  0  0  0  0  0  0
  -30.3620  -15.5260   21.4020 C   0  0  0  0  0  2  0  0  0  0  0  0
  -31.0900  -17.9700   21.0070 C   0  0  0  0  0  3  0  0  0  0  0  0
  -30.4110  -18.1830   19.6270 C   0  0  0  0  0  3  0  0  0  0  0  0
  -30.2300  -17.0080   21.8740 C   0  0  0  0  0  3  0  0  0  0  0  0
  -30.2040  -15.2570   19.9540 N   0  0  0  0  0  0  0  0  0  0  0  0
  -25.5080  -13.2730   20.4840 C   0  0  0  0  0  0  0  0  0  0  0  0
  -24.4030  -12.5980   20.9260 C   0  0  0  0  0  0  0  0  0  0  0  0
  -24.6660  -11.2130   20.6950 C   0  0  0  0  0  0  0  0  0  0  0  0
  -26.3760  -12.3050   20.0080 N   0  0  0  0  0  0  0  0  0  0  0  0
  -25.8870  -11.0520   20.1990 N   0  0  0  0  0  0  0  0  0  0  0  0
  -23.8010  -10.0380   20.8650 C   0  0  0  0  0  0  0  0  0  0  0  0
  -24.0840   -9.0440   21.8290 C   0  0  0  0  0  3  0  0  0  0  0  0
  -23.2250   -7.9350   21.9860 C   0  0  0  0  0  3  0  0  0  0  0  0
  -22.0690   -7.8110   21.1790 C   0  0  0  0  0  0  0  0  0  0  0  0
  -21.8050   -8.7910   20.2060 C   0  0  0  0  0  3  0  0  0  0  0  0
  -22.6630   -9.8910   20.0460 C   0  0  0  0  0  3  0  0  0  0  0  0
  -21.1910   -6.7560   21.2440 O   0  0  0  0  0  0  0  0  0  0  0  0
  -20.8080   -6.2120   22.4440 C   0  0  0  0  0  0  0  0  0  0  0  0
  -20.1140   -6.9650   23.4160 C   0  0  0  0  0  3  0  0  0  0  0  0
  -19.6770   -6.3480   24.6060 C   0  0  0  0  0  3  0  0  0  0  0  0
  -19.9230   -4.9780   24.8200 C   0  0  0  0  0  0  0  0  0  0  0  0
  -20.6080   -4.2260   23.8500 C   0  0  0  0  0  3  0  0  0  0  0  0
  -21.0460   -4.8410   22.6640 C   0  0  0  0  0  0  0  0  0  0  0  0
  -21.6870   -4.1050   21.7240 F   0  0  0  0  0  0  0  0  0  0  0  0
  -19.4960   -4.3840   25.9590 F   0  0  0  0  0  0  0  0  0  0  0  0
  -23.1340  -13.2110   21.4400 C   0  0  0  0  0  0  0  0  0  0  0  0
  -22.4390  -12.5230   22.3380 N   0  0  0  0  0  0  0  0  0  0  0  0
  -22.7770  -14.3340   21.0830 O   0  0  0  0  0  0  0  0  0  0  0  0
  -22.7430  -11.6110   22.6480 H   0  0  0  0  0  0  0  0  0  0  0  0
  -21.5900  -12.9130   22.7230 H   0  0  0  0  0  0  0  0  0  0  0  0
  -25.8400  -14.6230   20.4220 N   0  0  0  0  0  0  0  0  0  0  0  0
  -25.1960  -15.3500   20.7110 H   0  0  0  0  0  0  0  0  0  0  0  0
  -26.6950  -14.9860   20.0220 H   0  0  0  0  0  0  0  0  0  0  0  0
  -29.4370  -19.5560   19.6170 C   0  0  0  0  0  0  0  0  0  0  0  0
  -29.8680  -20.9200   19.5840 N   0  0  0  0  0  0  0  0  0  0  0  0
  -28.2300  -19.3470   19.7410 O   0  0  0  0  0  0  0  0  0  0  0  0
  -30.8620  -21.0090   19.4110 H   0  0  0  0  0  0  0  0  0  0  0  0
  -29.2130  -22.2960   20.0730 C   0  0  0  0  0  2  0  0  0  0  0  0
  -29.3860  -23.8470   19.3930 C   0  0  0  0  0  2  0  0  0  0  0  0
  -29.2790  -25.2760   20.0450 O   0  0  0  0  0  0  0  0  0  0  0  0
  -25.3560  -30.5530   23.3770 C   0  0  0  0  0  0  0  0  0  0  0  0
  -28.2090  -26.2490   19.9730 C   0  0  0  0  0  0  0  0  0  0  0  0
  -24.3050  -29.3880   21.4750 C   0  0  0  0  0  3  0  0  0  0  0  0
  -25.8770  -28.0020   19.9770 C   0  0  0  0  0  0  0  0  0  0  0  0
  -26.8620  -29.6560   21.5590 C   0  0  0  0  0  2  0  0  0  0  0  0
  -26.9960  -28.3580   20.7380 C   0  0  0  0  0  0  0  0  0  0  0  0
  -28.1590  -27.4970   20.7220 C   0  0  0  0  0  3  0  0  0  0  0  0
  -27.0650  -25.9980   19.1860 C   0  0  0  0  0  3  0  0  0  0  0  0
  -25.9260  -26.8390   19.1910 C   0  0  0  0  0  3  0  0  0  0  0  0
  -24.6430  -28.8920   20.0420 C   0  0  0  0  0  2  0  0  0  0  0  0
  -25.5230  -29.8820   22.1950 N   0  0  0  0  0  0  0  0  0  0  0  0
  -24.2280  -30.7720   23.8450 O   0  0  0  0  0  0  0  0  0  0  0  0
  -23.5550  -28.2690   22.2390 C   0  0  0  0  0  0  0  0  0  0  0  0
  -22.2520  -28.0960   21.9500 N   0  0  0  0  0  0  0  0  0  0  0  0
  -24.1510  -27.5640   23.0560 O   0  0  0  0  0  0  0  0  0  0  0  0
  -21.8280  -28.7210   21.2790 H   0  0  0  0  0  0  0  0  0  0  0  0
  -18.8680  -26.8040   21.9510 C   0  0  0  0  0  0  0  0  0  0  0  0
  -21.3780  -27.0650   22.5160 C   0  0  0  0  0  3  0  0  0  0  0  0
  -21.5750  -25.7120   21.7940 C   0  0  0  0  0  2  0  0  0  0  0  0
  -20.5920  -25.4980   20.6380 C   0  0  0  0  0  2  0  0  0  0  0  0
  -19.1470  -25.5470   21.1450 C   0  0  0  0  0  2  0  0  0  0  0  0
  -19.9160  -27.5240   22.5820 C   0  0  0  0  0  0  0  0  0  0  0  0
  -19.6040  -28.7050   23.2930 C   0  0  0  0  0  3  0  0  0  0  0  0
  -18.2750  -29.1620   23.3800 C   0  0  0  0  0  3  0  0  0  0  0  0
  -17.2410  -28.4370   22.7660 C   0  0  0  0  0  3  0  0  0  0  0  0
  -17.5360  -27.2590   22.0570 C   0  0  0  0  0  3  0  0  0  0  0  0
  -26.5730  -31.0960   24.1870 C   0  0  0  0  0  3  0  0  0  0  0  0
  -26.2700  -32.4820   24.5800 N   0  0  0  0  0  0  0  0  0  0  0  0
  -26.7510  -33.5730   23.9690 C   0  0  0  0  0  0  0  0  0  0  0  0
  -27.5610  -33.5130   23.0390 O   0  0  0  0  0  0  0  0  0  0  0  0
  -25.5690  -32.6050   25.2960 H   0  0  0  0  0  0  0  0  0  0  0  0
  -25.1830  -35.4890   23.5120 C   0  0  0  0  0  1  0  0  0  0  0  0
  -26.2600  -34.9470   24.4670 C   0  0  0  0  0  3  0  0  0  0  0  0
  -28.2570  -35.6530   25.7100 C   0  0  0  0  0  1  0  0  0  0  0  0
  -27.3430  -35.9450   24.6090 N   0  0  0  0  0  0  0  0  0  0  0  0
  -26.9590  -36.8750   24.7530 H   0  0  0  0  0  0  0  0  0  0  0  0
  -26.9060  -30.2260   25.4630 C   0  0  1  0  0  0  0  0  0  0  0  0
  -25.6870  -29.9740   26.3800 C   0  0  0  0  0  1  0  0  0  0  0  0
  -27.4770  -28.8480   25.0550 C   0  0  0  0  0  1  0  0  0  0  0  0
  -28.0000  -30.9260   26.3030 C   0  0  0  0  0  1  0  0  0  0  0  0
  -30.5610  -17.0970   23.3120 N   0  0  0  0  0  4  0  0  0  0  0  0
  -31.5200  -16.8530   23.4850 H   0  0  0  0  0  0  0  0  0  0  0  0
  -29.9750  -16.4820   23.8490 H   0  0  0  0  0  0  0  0  0  0  0  0
  -30.4090  -18.0310   23.6480 H   0  0  0  0  0  0  0  0  0  0  0  0
  -31.4600  -19.2850   21.6920 C   0  0  0  0  0  3  0  0  0  0  0  0
  -32.6960  -19.8150   21.6880 C   0  0  0  0  0  3  0  0  0  0  0  0
  -34.4470  -20.8930   23.0910 C   0  0  0  0  0  1  0  0  0  0  0  0
  -32.0810  -21.6880   23.3100 C   0  0  0  0  0  1  0  0  0  0  0  0
  -33.3690  -22.1630   21.2150 C   0  0  0  0  0  1  0  0  0  0  0  0
  -33.1320  -21.1300   22.3300 C   0  0  2  0  0  0  0  0  0  0  0  0
  1  7  1  0
  1 14  1  0
  2  7  1  0
  3  4  1  0
  3  2  1  0
  5  4  1  0
  5 18  1  0
  5  6  1  0
  7  6  1  0
  8  1  2  0
  9 12  1  0
  9 14  1  0
 10 13  1  0
 11 94  1  0
 11 13  1  0
 12 43  1  0
 12 11  1  0
 13 90  1  0
 14 10  1  0
 15 16  2  0
 16 35  1  0
 17 20  1  0
 17 16  1  0
 18 19  1  0
 18 15  1  0
 19 17  2  0
 20 21  1  0
 21 22  2  0
 23 26  1  0
 23 22  1  0
 24 23  2  0
 25 24  1  0
 25 20  2  0
 26 27  1  0
 27 32  2  0
 27 28  1  0
 28 29  2  0
 29 30  1  0
 30 34  1  0
 31 30  2  0
 32 31  1  0
 33 32  1  0
 35 36  1  0
 36 38  1  0
 36 39  1  0
 37 35  2  0
 40 15  1  0
 40 41  1  0
 42 40  1  0
 43 45  2  0
 44 43  1  0
 44 47  1  0
 46 44  1  0
 48 49  1  0
 48 47  1  0
 50 61  2  0
 51 49  1  0
 51 56  1  0
 52 60  1  0
 52 62  1  0
 53 59  1  0
 53 55  1  0
 54 60  1  0
 55 54  1  0
 56 55  2  0
 57 58  1  0
 57 51  2  0
 58 53  2  0
 59 52  1  0
 60 50  1  0
 62 64  2  0
 63 62  1  0
 65 63  1  0
 66 75  2  0
 66 71  1  0
 67 63  1  0
 67 71  1  0
 68 67  1  0
 69 70  1  0
 69 68  1  0
 70 66  1  0
 71 72  2  0
 72 73  1  0
 74 73  2  0
 75 74  1  0
 76 50  1  0
 76 77  1  0
 76 86  1  0
 77 80  1  0
 78 82  1  0
 78 77  1  0
 79 78  2  0
 82 81  1  0
 82 84  1  0
 84 85  1  0
 84 83  1  0
 86 89  1  1
 86 87  1  0
 88 86  1  0
 90 91  1  0
 90 93  1  0
 90 92  1  0
 95 94  2  0
 95 99  1  0
 99 98  1  6
 99 96  1  0
 99 97  1  0
M  ISO  4   1 100  14 100  48 101  49 101
M  END
>  <TORSDO>  (16) 
F 21

>  <SCORE>  (16) 
-9.288

>  <name>  (16) 
15

>  <ligand_id>  (16) 
15

>  <original_smiles>  (16) 
[H]C(=C([H])C(C([H])([H])[H])(C([H])([H])[H])C([H])([H])[H])C1([H])C([H])(C(=O)N([H])C([H])([H])C([H])([H])Oc2c([H])c([H])c3c(c2[H])C([H])([H])N(C(=O)C([H])(N([H])C(=O)C([H])(N([H])C([H])([H])[H])C([H])([H])[H])C(C([H])([H])[H])(C([H])([H])[H])C([H])([H])[H])C([H])(C(=O)N([H])C2([H])c4c([H])c([H])c([H])c([H])c4C([H])([H])C([H])([H])C2([H])[H])C3([H])[H])C([H])([H])N(C(=O)N2C([H])([H])C([H])([H])C([H])([H])C([H])(n3nc(-c4c([H])c([H])c(Oc5c([H])c([H])c(F)c([H])c5F)c([H])c4[H])c(C(=O)N([H])[H])c3N([H])[H])C2([H])[H])C([H])([H])C1([H])[N+]([H])([H])[H]

>  <smiles>  (16) 
[H]C(=C([H])C(C([H])([H])[H])(C([H])([H])[H])C([H])([H])[H])C1([H])C([H])(C(=O)N([H])C([H])([H])C([H])([H])Oc2c([H])c([H])c3c(c2[H])C([H])([H])N(C(=O)C([H])(N([H])C(=O)C([H])(N([H])C([H])([H])[H])C([H])([H])[H])C(C([H])([H])[H])(C([H])([H])[H])C([H])([H])[H])C([H])(C(=O)N([H])C2([H])c4c([H])c([H])c([H])c([H])c4C([H])([H])C([H])([H])C2([H])[H])C3([H])[H])C([H])([H])N(C(=O)N2C([H])([H])C([H])([H])C([H])([H])C([H])(n3nc(-c4c([H])c([H])c(Oc5c([H])c([H])c(F)c([H])c5F)c([H])c4[H])c(C(=O)N([H])[H])c3N([H])[H])C2([H])[H])C([H])([H])C1([H])[N+]([H])([H])[H]

$$$$
16:0:0
     RDKit          3D

 89 96  0  0  1  0  0  0  0  0999 V2000
  -29.4940  -22.7760   19.6950 C   0  0  0  0  0  2  0  0  0  0  0  0
  -29.4930  -24.2330   21.8950 C   0  0  0  0  0  1  0  0  0  0  0  0
  -29.4680  -24.2470   20.3600 C   0  0  0  0  0  3  0  0  0  0  0  0
  -28.4120  -25.3020   19.8080 C   0  0  0  0  0  2  0  0  0  0  0  0
  -28.5570  -26.7410   20.1380 O   0  0  0  0  0  0  0  0  0  0  0  0
  -24.6180  -31.8700   23.3150 C   0  0  0  0  0  0  0  0  0  0  0  0
  -27.4120  -27.5550   20.0860 C   0  0  0  0  0  0  0  0  0  0  0  0
  -23.4760  -30.5040   21.6060 C   0  0  0  0  0  3  0  0  0  0  0  0
  -24.9900  -29.0790   20.1230 C   0  0  0  0  0  0  0  0  0  0  0  0
  -26.0020  -30.9260   21.4560 C   0  0  0  0  0  2  0  0  0  0  0  0
  -26.1360  -29.5830   20.7490 C   0  0  0  0  0  0  0  0  0  0  0  0
  -27.3500  -28.8340   20.7230 C   0  0  0  0  0  3  0  0  0  0  0  0
  -26.2420  -27.1130   19.4240 C   0  0  0  0  0  3  0  0  0  0  0  0
  -25.0440  -27.8490   19.4520 C   0  0  0  0  0  3  0  0  0  0  0  0
  -23.7210  -29.9020   20.1990 C   0  0  0  0  0  2  0  0  0  0  0  0
  -24.7160  -31.1140   22.1840 N   0  0  0  0  0  0  0  0  0  0  0  0
  -23.5210  -32.0840   23.8540 O   0  0  0  0  0  0  0  0  0  0  0  0
  -22.8480  -29.4170   22.5130 C   0  0  0  0  0  0  0  0  0  0  0  0
  -21.5430  -29.1560   22.3310 N   0  0  0  0  0  0  0  0  0  0  0  0
  -23.5340  -28.8170   23.3430 O   0  0  0  0  0  0  0  0  0  0  0  0
  -21.0460  -29.6960   21.6350 H   0  0  0  0  0  0  0  0  0  0  0  0
  -18.2410  -27.7160   22.6530 C   0  0  0  0  0  0  0  0  0  0  0  0
  -20.7590  -28.1500   23.0480 C   0  0  0  0  0  3  0  0  0  0  0  0
  -20.9890  -26.7400   22.4570 C   0  0  0  0  0  2  0  0  0  0  0  0
  -19.9610  -26.3600   21.3870 C   0  0  0  0  0  2  0  0  0  0  0  0
  -18.5430  -26.3950   21.9680 C   0  0  0  0  0  2  0  0  0  0  0  0
  -19.2810  -28.5470   23.1470 C   0  0  0  0  0  0  0  0  0  0  0  0
  -18.9460  -29.7820   23.7460 C   0  0  0  0  0  3  0  0  0  0  0  0
  -17.6030  -30.1870   23.8560 C   0  0  0  0  0  3  0  0  0  0  0  0
  -16.5760  -29.3540   23.3790 C   0  0  0  0  0  3  0  0  0  0  0  0
  -16.8960  -28.1200   22.7840 C   0  0  0  0  0  3  0  0  0  0  0  0
  -25.8730  -32.5210   23.9710 C   0  0  0  0  0  3  0  0  0  0  0  0
  -25.5480  -33.9270   24.2530 N   0  0  0  0  0  0  0  0  0  0  0  0
  -25.8920  -34.9590   23.4710 C   0  0  0  0  0  0  0  0  0  0  0  0
  -26.5860  -34.8300   22.4590 O   0  0  0  0  0  0  0  0  0  0  0  0
  -24.9340  -34.1010   25.0340 H   0  0  0  0  0  0  0  0  0  0  0  0
  -24.1510  -36.7220   23.0340 C   0  0  0  0  0  1  0  0  0  0  0  0
  -25.3840  -36.3560   23.8750 C   0  0  0  0  0  3  0  0  0  0  0  0
  -27.4890  -37.2960   24.7210 C   0  0  0  0  0  1  0  0  0  0  0  0
  -26.4080  -37.4150   23.7440 N   0  0  0  0  0  0  0  0  0  0  0  0
  -25.9890  -38.3360   23.8470 H   0  0  0  0  0  0  0  0  0  0  0  0
  -26.3380  -31.7840   25.2860 C   0  0  1  0  0  0  0  0  0  0  0  0
  -25.2000  -31.5650   26.3110 C   0  0  0  0  0  1  0  0  0  0  0  0
  -26.9460  -30.4010   24.9540 C   0  0  0  0  0  1  0  0  0  0  0  0
  -27.4530  -32.6030   25.9800 C   0  0  0  0  0  1  0  0  0  0  0  0
  -29.0990  -21.3980   20.4250 C   0  0  0  0  0  3  0  0  0  0  0  0
  -26.6390  -22.2530   20.5450 C   0  0  0  0  0  1  0  0  0  0  0  0
  -27.5900  -21.0860   20.2650 C   0  0  0  0  0  2  0  0  0  0  0  0
  -29.9400  -20.1230   19.9290 C   0  0  0  0  0  2  0  0  0  0  0  0
  -29.5740  -18.6470   20.4290 C   0  0  0  0  0  3  0  0  0  0  0  0
  -30.5890  -17.4740   20.0730 C   0  0  0  0  0  3  0  0  0  0  0  0
  -30.9180  -14.9330   20.0420 C   0  0  0  0  0  0  0  0  0  0  0  0
  -30.6190  -12.7050   18.9890 C   0  0  0  0  0  2  0  0  0  0  0  0
  -29.6420  -12.8620   17.8040 C   0  0  0  0  0  2  0  0  0  0  0  0
  -28.1850  -12.7140   18.2820 C   0  0  0  0  0  2  0  0  0  0  0  0
  -27.8760  -13.5700   19.5390 C   0  0  0  0  0  3  0  0  0  0  0  0
  -28.9720  -13.4150   20.6180 C   0  0  0  0  0  2  0  0  0  0  0  0
  -30.2620  -13.7310   19.9910 N   0  0  0  0  0  0  0  0  0  0  0  0
  -32.0670  -15.0490   19.6090 O   0  0  0  0  0  0  0  0  0  0  0  0
  -30.1920  -16.0480   20.3700 N   0  0  0  0  0  0  0  0  0  0  0  0
  -29.2570  -15.8890   20.7160 H   0  0  0  0  0  0  0  0  0  0  0  0
  -25.5150  -14.1770   20.3440 C   0  0  0  0  0  0  0  0  0  0  0  0
  -24.4570  -13.4070   20.7450 C   0  0  0  0  0  0  0  0  0  0  0  0
  -24.9080  -12.0530   20.6850 C   0  0  0  0  0  0  0  0  0  0  0  0
  -26.5440  -13.2910   20.0660 N   0  0  0  0  0  0  0  0  0  0  0  0
  -26.1860  -12.0080   20.3320 N   0  0  0  0  0  0  0  0  0  0  0  0
  -24.1780  -10.7940   20.8870 C   0  0  0  0  0  0  0  0  0  0  0  0
  -24.5970   -9.8420   21.8440 C   0  0  0  0  0  3  0  0  0  0  0  0
  -23.8670   -8.6480   22.0320 C   0  0  0  0  0  3  0  0  0  0  0  0
  -22.7050   -8.3980   21.2640 C   0  0  0  0  0  0  0  0  0  0  0  0
  -22.3060   -9.3370   20.2980 C   0  0  0  0  0  3  0  0  0  0  0  0
  -23.0370  -10.5230   20.1070 C   0  0  0  0  0  3  0  0  0  0  0  0
  -21.9490   -7.2540   21.3620 O   0  0  0  0  0  0  0  0  0  0  0  0
  -21.8540   -6.5530   22.5370 C   0  0  0  0  0  0  0  0  0  0  0  0
  -21.3250   -7.1330   23.7110 C   0  0  0  0  0  3  0  0  0  0  0  0
  -21.1800   -6.3550   24.8780 C   0  0  0  0  0  3  0  0  0  0  0  0
  -21.5530   -4.9980   24.8700 C   0  0  0  0  0  0  0  0  0  0  0  0
  -22.0730   -4.4160   23.6990 C   0  0  0  0  0  3  0  0  0  0  0  0
  -22.2200   -5.1920   22.5360 C   0  0  0  0  0  0  0  0  0  0  0  0
  -22.7020   -4.6220   21.4060 F   0  0  0  0  0  0  0  0  0  0  0  0
  -21.4070   -4.2480   25.9860 F   0  0  0  0  0  0  0  0  0  0  0  0
  -23.0740  -13.8920   21.0730 C   0  0  0  0  0  0  0  0  0  0  0  0
  -22.3720  -13.1910   21.9570 N   0  0  0  0  0  0  0  0  0  0  0  0
  -22.6280  -14.9270   20.5820 O   0  0  0  0  0  0  0  0  0  0  0  0
  -22.7460  -12.3550   22.3770 H   0  0  0  0  0  0  0  0  0  0  0  0
  -21.4440  -13.4980   22.2180 H   0  0  0  0  0  0  0  0  0  0  0  0
  -25.6840  -15.5470   20.1680 N   0  0  0  0  0  0  0  0  0  0  0  0
  -24.9150  -16.2010   20.2710 H   0  0  0  0  0  0  0  0  0  0  0  0
  -26.5140  -15.9730   19.7760 H   0  0  0  0  0  0  0  0  0  0  0  0
  1  3  1  0
  3  2  1  0
  4  5  1  0
  4  3  1  0
  6 17  2  0
  7  5  1  0
  7 12  1  0
  8 16  1  0
  8 18  1  0
  9 15  1  0
  9 11  1  0
 10 16  1  0
 11 10  1  0
 12 11  2  0
 13 14  1  0
 13  7  2  0
 14  9  2  0
 15  8  1  0
 16  6  1  0
 18 20  2  0
 19 18  1  0
 21 19  1  0
 22 31  2  0
 22 27  1  0
 23 19  1  0
 23 27  1  0
 24 23  1  0
 25 26  1  0
 25 24  1  0
 26 22  1  0
 27 28  2  0
 28 29  1  0
 30 29  2  0
 31 30  1  0
 32  6  1  0
 32 33  1  0
 32 42  1  0
 33 36  1  0
 34 38  1  0
 34 33  1  0
 35 34  2  0
 38 37  1  0
 40 41  1  0
 40 38  1  0
 40 39  1  0
 42 45  1  1
 42 43  1  0
 44 42  1  0
 46  1  1  0
 48 46  1  0
 48 47  1  0
 49 46  1  0
 49 50  1  0
 51 60  1  0
 51 50  2  0
 52 60  1  0
 53 58  1  0
 54 55  1  0
 54 53  1  0
 56 55  1  0
 56 65  1  0
 56 57  1  0
 58 52  1  0
 58 57  1  0
 59 52  2  0
 60 61  1  0
 62 63  2  0
 63 82  1  0
 64 63  1  0
 64 67  1  0
 65 66  1  0
 65 62  1  0
 66 64  2  0
 67 68  1  0
 68 69  2  0
 70 73  1  0
 70 69  1  0
 71 70  2  0
 72 71  1  0
 72 67  2  0
 73 74  1  0
 74 75  1  0
 75 76  2  0
 77 76  1  0
 77 81  1  0
 78 77  2  0
 79 74  2  0
 79 78  1  0
 80 79  1  0
 82 83  1  0
 83 86  1  0
 83 85  1  0
 84 82  2  0
 87 88  1  0
 87 62  1  0
 89 87  1  0
M  ISO  4   4 101   5 101  52 100  60 100
M  END
>  <TORSDO>  (17) 
F 23

>  <SCORE>  (17) 
-11.851

>  <name>  (17) 
16

>  <ligand_id>  (17) 
16

>  <original_smiles>  (17) 
[H]c1c([H])c([H])c2c(c1[H])C([H])([H])C([H])([H])C([H])([H])C2([H])N([H])C(=O)C1([H])N(C(=O)C([H])(N([H])C(=O)C([H])(N([H])C([H])([H])[H])C([H])([H])[H])C(C([H])([H])[H])(C([H])([H])[H])C([H])([H])[H])C([H])([H])c2c([H])c(OC([H])([H])C([H])(C([H])([H])[H])C([H])([H])C([H])(C([H])([H])C([H])([H])[H])C([H])([H])C([H])([H])C([H])([H])N([H])C(=O)N3C([H])([H])C([H])([H])C([H])([H])C([H])(n4nc(-c5c([H])c([H])c(Oc6c([H])c([H])c(F)c([H])c6F)c([H])c5[H])c(C(=O)N([H])[H])c4N([H])[H])C3([H])[H])c([H])c([H])c2C1([H])[H]

>  <smiles>  (17) 
[H]c1c([H])c([H])c2c(c1[H])C([H])([H])C([H])([H])C([H])([H])C2([H])N([H])C(=O)C1([H])N(C(=O)C([H])(N([H])C(=O)C([H])(N([H])C([H])([H])[H])C([H])([H])[H])C(C([H])([H])[H])(C([H])([H])[H])C([H])([H])[H])C([H])([H])c2c([H])c(OC([H])([H])C([H])(C([H])([H])[H])C([H])([H])C([H])(C([H])([H])C([H])([H])[H])C([H])([H])C([H])([H])C([H])([H])N([H])C(=O)N3C([H])([H])C([H])([H])C([H])([H])C([H])(n4nc(-c5c([H])c([H])c(Oc6c([H])c([H])c(F)c([H])c6F)c([H])c5[H])c(C(=O)N([H])[H])c4N([H])[H])C3([H])[H])c([H])c([H])c2C1([H])[H]

$$$$
17:0:0
     RDKit          3D

 88 96  0  0  1  0  0  0  0  0999 V2000
  -29.8810  -20.6300   19.8800 C   0  0  0  0  0  3  0  0  0  0  0  0
  -30.7810  -15.1080   19.7730 C   0  0  0  0  0  0  0  0  0  0  0  0
  -30.5300  -12.7590   18.8510 C   0  0  0  0  0  2  0  0  0  0  0  0
  -29.5150  -12.6860   17.6870 C   0  0  0  0  0  2  0  0  0  0  0  0
  -28.0930  -12.4660   18.2320 C   0  0  0  0  0  2  0  0  0  0  0  0
  -27.7650  -13.4150   19.4110 C   0  0  0  0  0  3  0  0  0  0  0  0
  -28.9000  -13.4580   20.4600 C   0  0  0  0  0  2  0  0  0  0  0  0
  -30.1170  -13.8780   19.7530 N   0  0  0  0  0  0  0  0  0  0  0  0
  -31.9580  -15.0850   19.3940 O   0  0  0  0  0  0  0  0  0  0  0  0
  -28.6270  -18.2490   20.5460 C   0  0  0  0  0  0  0  0  0  0  0  0
  -28.8330  -16.7090   20.5390 C   0  0  0  0  0  2  0  0  0  0  0  0
  -29.5860  -18.9860   19.6190 C   0  0  0  0  0  3  0  0  0  0  0  0
  -30.7130  -17.7990   19.6210 C   0  0  0  0  0  3  0  0  0  0  0  0
  -31.8540  -18.1220   20.6120 C   0  0  0  0  0  1  0  0  0  0  0  0
  -30.1420  -16.3870   19.9300 N   0  0  0  0  0  0  0  0  0  0  0  0
  -27.7680  -18.8150   21.2260 O   0  0  0  0  0  0  0  0  0  0  0  0
  -25.4620  -14.0120   20.3600 C   0  0  0  0  0  0  0  0  0  0  0  0
  -24.4190  -13.2420   20.7900 C   0  0  0  0  0  0  0  0  0  0  0  0
  -24.8550  -11.8870   20.6770 C   0  0  0  0  0  0  0  0  0  0  0  0
  -26.4670  -13.1260   20.0080 N   0  0  0  0  0  0  0  0  0  0  0  0
  -26.1170  -11.8400   20.2660 N   0  0  0  0  0  0  0  0  0  0  0  0
  -24.1210  -10.6320   20.8770 C   0  0  0  0  0  0  0  0  0  0  0  0
  -24.5600   -9.6600   21.8030 C   0  0  0  0  0  3  0  0  0  0  0  0
  -23.8240   -8.4700   21.9940 C   0  0  0  0  0  3  0  0  0  0  0  0
  -22.6360   -8.2460   21.2580 C   0  0  0  0  0  0  0  0  0  0  0  0
  -22.2170   -9.2070   20.3210 C   0  0  0  0  0  3  0  0  0  0  0  0
  -22.9530  -10.3870   20.1290 C   0  0  0  0  0  3  0  0  0  0  0  0
  -21.8720   -7.1080   21.3590 O   0  0  0  0  0  0  0  0  0  0  0  0
  -21.7650   -6.4160   22.5380 C   0  0  0  0  0  0  0  0  0  0  0  0
  -21.2170   -7.0030   23.7000 C   0  0  0  0  0  3  0  0  0  0  0  0
  -21.0590   -6.2350   24.8700 C   0  0  0  0  0  3  0  0  0  0  0  0
  -21.4400   -4.8790   24.8800 C   0  0  0  0  0  0  0  0  0  0  0  0
  -21.9810   -4.2910   23.7230 C   0  0  0  0  0  3  0  0  0  0  0  0
  -22.1390   -5.0570   22.5540 C   0  0  0  0  0  0  0  0  0  0  0  0
  -22.6410   -4.4800   21.4360 F   0  0  0  0  0  0  0  0  0  0  0  0
  -21.2820   -4.1380   26.0010 F   0  0  0  0  0  0  0  0  0  0  0  0
  -23.0570  -13.7340   21.1830 C   0  0  0  0  0  0  0  0  0  0  0  0
  -22.4050  -13.0500   22.1160 N   0  0  0  0  0  0  0  0  0  0  0  0
  -22.5830  -14.7600   20.6970 O   0  0  0  0  0  0  0  0  0  0  0  0
  -22.7990  -12.2190   22.5280 H   0  0  0  0  0  0  0  0  0  0  0  0
  -21.4940  -13.3650   22.4250 H   0  0  0  0  0  0  0  0  0  0  0  0
  -25.6160  -15.3840   20.2060 N   0  0  0  0  0  0  0  0  0  0  0  0
  -24.8460  -16.0220   20.3830 H   0  0  0  0  0  0  0  0  0  0  0  0
  -26.4020  -15.8290   19.7530 H   0  0  0  0  0  0  0  0  0  0  0  0
  -28.8550  -21.9310   19.5870 C   0  0  0  0  0  3  0  0  0  0  0  0
  -29.1950  -23.5460   19.9240 C   0  0  0  0  0  3  0  0  0  0  0  0
  -28.1450  -24.8320   19.6820 C   0  0  0  0  0  3  0  0  0  0  0  0
  -28.3760  -26.3310   20.0020 O   0  0  0  0  0  0  0  0  0  0  0  0
  -24.6350  -31.8090   23.1780 C   0  0  0  0  0  0  0  0  0  0  0  0
  -27.2970  -27.2840   19.9670 C   0  0  0  0  0  0  0  0  0  0  0  0
  -23.4600  -30.4620   21.4790 C   0  0  0  0  0  3  0  0  0  0  0  0
  -24.9360  -28.9740   19.9960 C   0  0  0  0  0  0  0  0  0  0  0  0
  -26.0070  -30.7810   21.3320 C   0  0  0  0  0  2  0  0  0  0  0  0
  -26.1050  -29.4180   20.6260 C   0  0  0  0  0  0  0  0  0  0  0  0
  -27.2870  -28.5900   20.5980 C   0  0  0  0  0  3  0  0  0  0  0  0
  -26.1000  -26.9350   19.3020 C   0  0  0  0  0  3  0  0  0  0  0  0
  -24.9440  -27.7470   19.3190 C   0  0  0  0  0  3  0  0  0  0  0  0
  -23.6940  -29.8480   20.0750 C   0  0  0  0  0  2  0  0  0  0  0  0
  -24.7190  -31.0380   22.0530 N   0  0  0  0  0  0  0  0  0  0  0  0
  -23.5430  -32.0570   23.7140 O   0  0  0  0  0  0  0  0  0  0  0  0
  -22.7960  -29.4050   22.3970 C   0  0  0  0  0  0  0  0  0  0  0  0
  -21.4760  -29.2030   22.2400 N   0  0  0  0  0  0  0  0  0  0  0  0
  -23.4700  -28.7730   23.2140 O   0  0  0  0  0  0  0  0  0  0  0  0
  -20.9900  -29.7700   21.5600 H   0  0  0  0  0  0  0  0  0  0  0  0
  -18.1150  -27.9140   22.6560 C   0  0  0  0  0  0  0  0  0  0  0  0
  -20.6650  -28.2200   22.9630 C   0  0  0  0  0  3  0  0  0  0  0  0
  -20.8040  -26.8120   22.3390 C   0  0  0  0  0  2  0  0  0  0  0  0
  -19.7210  -26.5040   21.2990 C   0  0  0  0  0  2  0  0  0  0  0  0
  -18.3290  -26.5950   21.9320 C   0  0  0  0  0  2  0  0  0  0  0  0
  -19.2130  -28.6840   23.1250 C   0  0  0  0  0  0  0  0  0  0  0  0
  -18.9590  -29.9170   23.7650 C   0  0  0  0  0  3  0  0  0  0  0  0
  -17.6430  -30.3820   23.9370 C   0  0  0  0  0  3  0  0  0  0  0  0
  -16.5590  -29.6080   23.4830 C   0  0  0  0  0  3  0  0  0  0  0  0
  -16.7970  -28.3770   22.8470 C   0  0  0  0  0  3  0  0  0  0  0  0
  -25.9020  -32.4360   23.8350 C   0  0  0  0  0  3  0  0  0  0  0  0
  -26.3620  -31.6800   25.1430 C   0  0  1  0  0  0  0  0  0  0  0  0
  -25.2250  -31.4660   26.1700 C   0  0  0  0  0  1  0  0  0  0  0  0
  -26.9510  -30.2940   24.7970 C   0  0  0  0  0  1  0  0  0  0  0  0
  -27.4920  -32.4770   25.8390 C   0  0  0  0  0  1  0  0  0  0  0  0
  -25.6000  -33.8450   24.1390 N   0  0  0  0  0  0  0  0  0  0  0  0
  -25.9180  -34.8820   23.3530 C   0  0  0  0  0  0  0  0  0  0  0  0
  -26.5690  -34.7550   22.3120 O   0  0  0  0  0  0  0  0  0  0  0  0
  -25.0200  -34.0130   24.9480 H   0  0  0  0  0  0  0  0  0  0  0  0
  -24.1710  -36.6630   23.0160 C   0  0  0  0  0  1  0  0  0  0  0  0
  -25.4430  -36.2820   23.7910 C   0  0  0  0  0  3  0  0  0  0  0  0
  -27.5910  -37.2130   24.5340 C   0  0  0  0  0  1  0  0  0  0  0  0
  -26.4670  -37.3340   23.6090 N   0  0  0  0  0  0  0  0  0  0  0  0
  -26.0600  -38.2570   23.7270 H   0  0  0  0  0  0  0  0  0  0  0  0
  2 15  1  0
  3  8  1  0
  4  5  1  0
  4  3  1  0
  6  5  1  0
  6 20  1  0
  6  7  1  0
  8  2  1  0
  8  7  1  0
  9  2  2  0
 10 16  2  0
 11 10  1  0
 12 13  1  0
 12  1  1  0
 12 10  1  0
 13 15  1  0
 13 14  1  0
 15 11  1  0
 17 18  2  0
 18 37  1  0
 19 18  1  0
 19 22  1  0
 20 21  1  0
 20 17  1  0
 21 19  2  0
 22 23  1  0
 23 24  2  0
 25 28  1  0
 25 24  1  0
 26 25  2  0
 27 26  1  0
 27 22  2  0
 28 29  1  0
 29 34  2  0
 29 30  1  0
 30 31  2  0
 31 32  1  0
 32 36  1  0
 33 32  2  0
 34 33  1  0
 35 34  1  0
 37 38  1  0
 38 41  1  0
 38 40  1  0
 39 37  2  0
 42 17  1  0
 42 43  1  0
 44 42  1  0
 45  1  2  0
 45 46  1  0
 47 46  2  0
 47 48  1  0
 49 60  2  0
 50 48  1  0
 50 55  1  0
 51 59  1  0
 51 61  1  0
 52 58  1  0
 52 54  1  0
 53 59  1  0
 54 53  1  0
 55 54  2  0
 56 57  1  0
 56 50  2  0
 57 52  2  0
 58 51  1  0
 59 49  1  0
 61 63  2  0
 62 61  1  0
 64 62  1  0
 65 74  2  0
 65 70  1  0
 66 62  1  0
 66 70  1  0
 67 66  1  0
 68 69  1  0
 68 67  1  0
 69 65  1  0
 70 71  2  0
 71 72  1  0
 73 72  2  0
 74 73  1  0
 75 49  1  0
 75 80  1  0
 75 76  1  0
 76 79  1  1
 76 77  1  0
 78 76  1  0
 80 83  1  0
 81 85  1  0
 81 80  1  0
 82 81  2  0
 85 84  1  0
 87 88  1  0
 87 85  1  0
 87 86  1  0
M  ISO  4   2 100  15 100  47 101  48 101
M  END
>  <TORSDO>  (18) 
F 19

>  <SCORE>  (18) 
-13.256

>  <name>  (18) 
17

>  <ligand_id>  (18) 
17

>  <original_smiles>  (18) 
[H]c1c([H])c([H])c2c(c1[H])C([H])([H])C([H])([H])C([H])([H])C2([H])N([H])C(=O)C1([H])N(C(=O)C([H])(N([H])C(=O)C([H])(N([H])C([H])([H])[H])C([H])([H])[H])C(C([H])([H])[H])(C([H])([H])[H])C([H])([H])[H])C([H])([H])c2c([H])c(OC([H])([H])C([H])([H])C([H])([H])C([H])([H])C3([H])C(=O)C([H])([H])N(C(=O)N4C([H])([H])C([H])([H])C([H])([H])C([H])(n5nc(-c6c([H])c([H])c(Oc7c([H])c([H])c(F)c([H])c7F)c([H])c6[H])c(C(=O)N([H])[H])c5N([H])[H])C4([H])[H])C3([H])C([H])([H])[H])c([H])c([H])c2C1([H])[H]

>  <smiles>  (18) 
[H]c1c([H])c([H])c2c(c1[H])C([H])([H])C([H])([H])C([H])([H])C2([H])N([H])C(=O)C1([H])N(C(=O)C([H])(N([H])C(=O)C([H])(N([H])C([H])([H])[H])C([H])([H])[H])C(C([H])([H])[H])(C([H])([H])[H])C([H])([H])[H])C([H])([H])c2c([H])c(OC([H])([H])C([H])([H])C([H])([H])C([H])([H])C3([H])C(=O)C([H])([H])N(C(=O)N4C([H])([H])C([H])([H])C([H])([H])C([H])(n5nc(-c6c([H])c([H])c(Oc7c([H])c([H])c(F)c([H])c7F)c([H])c6[H])c(C(=O)N([H])[H])c5N([H])[H])C4([H])[H])C3([H])C([H])([H])[H])c([H])c([H])c2C1([H])[H]

$$$$
18:0:0
     RDKit          3D

 94102  0  0  1  0  0  0  0  0999 V2000
  -27.5590  -24.1250   21.4350 C   0  0  0  0  0  2  0  0  0  0  0  0
  -27.8350  -22.7880   22.1600 C   0  0  0  0  0  3  0  0  0  0  0  0
  -27.8970  -23.9270   19.9500 C   0  0  0  0  0  3  0  0  0  0  0  0
  -28.3520  -21.8160   21.0530 C   0  0  0  0  0  3  0  0  0  0  0  0
  -28.7950  -22.7350   19.9530 N   0  0  0  0  0  4  0  0  0  0  0  0
  -29.7350  -23.0400   20.1390 H   0  0  0  0  0  0  0  0  0  0  0  0
  -28.7710  -22.2510   19.0690 H   0  0  0  0  0  0  0  0  0  0  0  0
  -26.6140  -22.3310   23.0000 C   0  0  0  0  0  2  0  0  0  0  0  0
  -24.4400  -23.0980   24.1810 C   0  0  0  0  0  1  0  0  0  0  0  0
  -25.6620  -23.5110   23.3470 C   0  0  0  0  0  2  0  0  0  0  0  0
  -28.4060  -25.2620   19.2760 C   0  0  0  0  0  2  0  0  0  0  0  0
  -27.6140  -25.7750   18.0290 C   0  0  0  0  0  2  0  0  0  0  0  0
  -27.5600  -27.2240   17.9310 O   0  0  0  0  0  0  0  0  0  0  0  0
  -25.2240  -30.3960   23.8950 C   0  0  0  0  0  0  0  0  0  0  0  0
  -26.5440  -27.9630   18.5250 C   0  0  0  0  0  0  0  0  0  0  0  0
  -23.5750  -30.1870   22.0680 C   0  0  0  0  0  3  0  0  0  0  0  0
  -24.5170  -29.5010   19.7960 C   0  0  0  0  0  0  0  0  0  0  0  0
  -26.0840  -30.3350   21.5560 C   0  0  0  0  0  2  0  0  0  0  0  0
  -25.8220  -29.5120   20.3050 C   0  0  0  0  0  0  0  0  0  0  0  0
  -26.8360  -28.7540   19.6680 C   0  0  0  0  0  3  0  0  0  0  0  0
  -25.2180  -27.9600   18.0440 C   0  0  0  0  0  3  0  0  0  0  0  0
  -24.2160  -28.7330   18.6610 C   0  0  0  0  0  3  0  0  0  0  0  0
  -23.4820  -30.3270   20.5270 C   0  0  0  0  0  2  0  0  0  0  0  0
  -24.9880  -30.2900   22.5570 N   0  0  0  0  0  0  0  0  0  0  0  0
  -24.2930  -30.4420   24.7120 O   0  0  0  0  0  0  0  0  0  0  0  0
  -22.8730  -28.8840   22.4980 C   0  0  0  0  0  0  0  0  0  0  0  0
  -21.5500  -28.8190   22.2770 N   0  0  0  0  0  0  0  0  0  0  0  0
  -23.5090  -27.9540   22.9980 O   0  0  0  0  0  0  0  0  0  0  0  0
  -21.1170  -29.6300   21.8580 H   0  0  0  0  0  0  0  0  0  0  0  0
  -18.2170  -27.5080   21.8210 C   0  0  0  0  0  0  0  0  0  0  0  0
  -20.6850  -27.6760   22.5720 C   0  0  0  0  0  3  0  0  0  0  0  0
  -20.9560  -26.5010   21.6010 C   0  0  0  0  0  2  0  0  0  0  0  0
  -20.0530  -26.5390   20.3630 C   0  0  0  0  0  2  0  0  0  0  0  0
  -18.5740  -26.4720   20.7660 C   0  0  0  0  0  2  0  0  0  0  0  0
  -19.2090  -28.0860   22.6570 C   0  0  0  0  0  0  0  0  0  0  0  0
  -18.8310  -29.0680   23.5990 C   0  0  0  0  0  3  0  0  0  0  0  0
  -17.4850  -29.4640   23.7140 C   0  0  0  0  0  3  0  0  0  0  0  0
  -16.5040  -28.8900   22.8880 C   0  0  0  0  0  3  0  0  0  0  0  0
  -16.8700  -27.9110   21.9500 C   0  0  0  0  0  3  0  0  0  0  0  0
  -26.6740  -30.4790   24.4670 C   0  0  0  0  0  3  0  0  0  0  0  0
  -26.6770  -31.5170   25.5080 N   0  0  0  0  0  0  0  0  0  0  0  0
  -27.2620  -32.7160   25.3790 C   0  0  0  0  0  0  0  0  0  0  0  0
  -27.9240  -33.0400   24.3870 O   0  0  0  0  0  0  0  0  0  0  0  0
  -26.0960  -31.3500   26.3190 H   0  0  0  0  0  0  0  0  0  0  0  0
  -26.0720  -34.7970   26.1350 C   0  0  0  0  0  1  0  0  0  0  0  0
  -27.0920  -33.7210   26.5400 C   0  0  0  0  0  3  0  0  0  0  0  0
  -29.2830  -33.4290   27.6100 C   0  0  0  0  0  1  0  0  0  0  0  0
  -28.3640  -34.3590   26.9540 N   0  0  0  0  0  0  0  0  0  0  0  0
  -28.1880  -35.1340   27.5900 H   0  0  0  0  0  0  0  0  0  0  0  0
  -27.1930  -29.1090   25.0510 C   0  0  1  0  0  0  0  0  0  0  0  0
  -26.2180  -28.4560   26.0590 C   0  0  0  0  0  1  0  0  0  0  0  0
  -27.4430  -28.0910   23.9150 C   0  0  0  0  0  1  0  0  0  0  0  0
  -28.5550  -29.3250   25.7510 C   0  0  0  0  0  1  0  0  0  0  0  0
  -29.4780  -20.8010   21.5230 C   0  0  0  0  0  2  0  0  0  0  0  0
  -29.4540  -19.3290   20.9680 C   0  0  0  0  0  2  0  0  0  0  0  0
  -30.8180  -18.5340   21.0390 C   0  0  0  0  0  2  0  0  0  0  0  0
  -31.5890  -16.0730   20.9460 C   0  0  0  0  0  0  0  0  0  0  0  0
  -31.6750  -13.7000   20.2330 C   0  0  0  0  0  2  0  0  0  0  0  0
  -30.8650  -13.5190   18.9310 C   0  0  0  0  0  2  0  0  0  0  0  0
  -29.3660  -13.3100   19.2310 C   0  0  0  0  0  2  0  0  0  0  0  0
  -28.8110  -14.3560   20.2340 C   0  0  0  0  0  3  0  0  0  0  0  0
  -29.7310  -14.4660   21.4680 C   0  0  0  0  0  2  0  0  0  0  0  0
  -31.0800  -14.8110   20.9930 N   0  0  0  0  0  0  0  0  0  0  0  0
  -32.7680  -16.2980   20.6510 O   0  0  0  0  0  0  0  0  0  0  0  0
  -30.6630  -17.0590   21.0680 N   0  0  0  0  0  0  0  0  0  0  0  0
  -29.7240  -16.7270   21.2300 H   0  0  0  0  0  0  0  0  0  0  0  0
  -26.3810  -14.9480   20.8190 C   0  0  0  0  0  0  0  0  0  0  0  0
  -25.2850  -14.1680   21.0770 C   0  0  0  0  0  0  0  0  0  0  0  0
  -25.7390  -12.8160   21.0070 C   0  0  0  0  0  0  0  0  0  0  0  0
  -27.4320  -14.0660   20.6120 N   0  0  0  0  0  0  0  0  0  0  0  0
  -27.0460  -12.7780   20.7820 N   0  0  0  0  0  0  0  0  0  0  0  0
  -25.0000  -11.5500   21.0840 C   0  0  0  0  0  0  0  0  0  0  0  0
  -25.2160  -10.6370   22.1390 C   0  0  0  0  0  3  0  0  0  0  0  0
  -24.4840   -9.4310   22.2010 C   0  0  0  0  0  3  0  0  0  0  0  0
  -23.5250   -9.1340   21.2070 C   0  0  0  0  0  0  0  0  0  0  0  0
  -23.3280  -10.0390   20.1490 C   0  0  0  0  0  3  0  0  0  0  0  0
  -24.0590  -11.2340   20.0850 C   0  0  0  0  0  3  0  0  0  0  0  0
  -22.7820   -7.9780   21.1690 O   0  0  0  0  0  0  0  0  0  0  0  0
  -22.2740   -7.4130   22.3080 C   0  0  0  0  0  0  0  0  0  0  0  0
  -21.3570   -8.0950   23.1380 C   0  0  0  0  0  3  0  0  0  0  0  0
  -20.8090   -7.4490   24.2630 C   0  0  0  0  0  3  0  0  0  0  0  0
  -21.1680   -6.1210   24.5580 C   0  0  0  0  0  0  0  0  0  0  0  0
  -22.0810   -5.4390   23.7340 C   0  0  0  0  0  3  0  0  0  0  0  0
  -22.6280   -6.0810   22.6110 C   0  0  0  0  0  0  0  0  0  0  0  0
  -23.4870   -5.4100   21.8060 F   0  0  0  0  0  0  0  0  0  0  0  0
  -20.6360   -5.4990   25.6360 F   0  0  0  0  0  0  0  0  0  0  0  0
  -23.8780  -14.6430   21.2790 C   0  0  0  0  0  0  0  0  0  0  0  0
  -23.0920  -13.9230   22.0700 N   0  0  0  0  0  0  0  0  0  0  0  0
  -23.4770  -15.6890   20.7640 O   0  0  0  0  0  0  0  0  0  0  0  0
  -23.4300  -13.0760   22.5060 H   0  0  0  0  0  0  0  0  0  0  0  0
  -22.1420  -14.2220   22.2390 H   0  0  0  0  0  0  0  0  0  0  0  0
  -26.5740  -16.3190   20.7230 N   0  0  0  0  0  0  0  0  0  0  0  0
  -25.8190  -16.9890   20.8290 H   0  0  0  0  0  0  0  0  0  0  0  0
  -27.4480  -16.7480   20.4410 H   0  0  0  0  0  0  0  0  0  0  0  0
  1  2  1  0
  2  8  1  0
  3 11  1  0
  3  5  1  0
  3  1  1  0
  4 54  1  0
  4  2  1  0
  5  6  1  0
  5  4  1  0
  7  5  1  0
  8 10  1  0
 10  9  1  0
 12 11  1  0
 13 12  1  0
 13 15  1  0
 14 25  2  0
 15 20  1  0
 16 26  1  0
 16 24  1  0
 17 19  1  0
 17 23  1  0
 18 24  1  0
 19 18  1  0
 20 19  2  0
 21 15  2  0
 21 22  1  0
 22 17  2  0
 23 16  1  0
 24 14  1  0
 26 28  2  0
 27 26  1  0
 29 27  1  0
 30 39  2  0
 30 35  1  0
 31 27  1  0
 31 35  1  0
 32 31  1  0
 33 34  1  0
 33 32  1  0
 34 30  1  0
 35 36  2  0
 36 37  1  0
 38 37  2  0
 39 38  1  0
 40 14  1  0
 40 50  1  0
 40 41  1  0
 41 44  1  0
 42 41  1  0
 42 46  1  0
 43 42  2  0
 46 45  1  0
 46 48  1  0
 48 49  1  0
 48 47  1  0
 50 53  1  1
 50 51  1  0
 52 50  1  0
 55 56  1  0
 55 54  1  0
 56 65  1  0
 57 63  1  0
 57 65  1  0
 58 63  1  0
 59 60  1  0
 59 58  1  0
 61 60  1  0
 61 70  1  0
 61 62  1  0
 63 62  1  0
 64 57  2  0
 65 66  1  0
 67 68  2  0
 68 87  1  0
 69 68  1  0
 69 72  1  0
 70 71  1  0
 70 67  1  0
 71 69  2  0
 72 73  1  0
 73 74  2  0
 75 74  1  0
 76 75  2  0
 77 76  1  0
 77 72  2  0
 78 75  1  0
 78 79  1  0
 79 84  2  0
 79 80  1  0
 80 81  2  0
 81 82  1  0
 82 86  1  0
 83 82  2  0
 84 83  1  0
 85 84  1  0
 87 88  1  0
 88 91  1  0
 88 90  1  0
 89 87  2  0
 92 67  1  0
 92 93  1  0
 94 92  1  0
M  ISO  4  12 101  13 101  57 100  65 100
M  END
>  <TORSDO>  (19) 
F 23

>  <SCORE>  (19) 
0.545

>  <name>  (19) 
18

>  <ligand_id>  (19) 
18

>  <original_smiles>  (19) 
[H]c1c([H])c([H])c2c(c1[H])C([H])([H])C([H])([H])C([H])([H])C2([H])N([H])C(=O)C1([H])N(C(=O)C([H])(N([H])C(=O)C([H])(N([H])C([H])([H])[H])C([H])([H])[H])C(C([H])([H])[H])(C([H])([H])[H])C([H])([H])[H])C([H])([H])c2c([H])c(OC([H])([H])C([H])([H])C3([H])C([H])([H])C([H])(C([H])([H])C([H])([H])C([H])([H])[H])C([H])(C([H])([H])C([H])([H])C([H])([H])N([H])C(=O)N4C([H])([H])C([H])([H])C([H])([H])C([H])(n5nc(-c6c([H])c([H])c(Oc7c([H])c([H])c(F)c([H])c7F)c([H])c6[H])c(C(=O)N([H])[H])c5N([H])[H])C4([H])[H])[N+]3([H])[H])c([H])c([H])c2C1([H])[H]

>  <smiles>  (19) 
[H]c1c([H])c([H])c2c(c1[H])C([H])([H])C([H])([H])C([H])([H])C2([H])N([H])C(=O)C1([H])N(C(=O)C([H])(N([H])C(=O)C([H])(N([H])C([H])([H])[H])C([H])([H])[H])C(C([H])([H])[H])(C([H])([H])[H])C([H])([H])[H])C([H])([H])c2c([H])c(OC([H])([H])C([H])([H])C3([H])C([H])([H])C([H])(C([H])([H])C([H])([H])C([H])([H])[H])C([H])(C([H])([H])C([H])([H])C([H])([H])N([H])C(=O)N4C([H])([H])C([H])([H])C([H])([H])C([H])(n5nc(-c6c([H])c([H])c(Oc7c([H])c([H])c(F)c([H])c7F)c([H])c6[H])c(C(=O)N([H])[H])c5N([H])[H])C4([H])[H])[N+]3([H])[H])c([H])c([H])c2C1([H])[H]

$$$$
19:0:0
     RDKit          3D

 93101  0  0  1  0  0  0  0  0999 V2000
  -28.1490  -19.9120   20.5520 C   0  0  0  0  0  0  0  0  0  0  0  0
  -26.9810  -20.2310   20.3180 O   0  0  0  0  0  0  0  0  0  0  0  0
  -31.0230  -14.5310   19.5920 C   0  0  0  0  0  0  0  0  0  0  0  0
  -30.4680  -12.3980   18.4740 C   0  0  0  0  0  2  0  0  0  0  0  0
  -29.4180  -12.6010   17.3640 C   0  0  0  0  0  2  0  0  0  0  0  0
  -27.9970  -12.4790   17.9460 C   0  0  0  0  0  2  0  0  0  0  0  0
  -27.8090  -13.3220   19.2360 C   0  0  0  0  0  3  0  0  0  0  0  0
  -28.9770  -13.0930   20.2240 C   0  0  0  0  0  2  0  0  0  0  0  0
  -30.2200  -13.4220   19.5140 N   0  0  0  0  0  0  0  0  0  0  0  0
  -32.1340  -14.4890   19.0550 O   0  0  0  0  0  0  0  0  0  0  0  0
  -29.1780  -17.6190   21.2450 C   0  0  0  0  0  2  0  0  0  0  0  0
  -29.4370  -16.1070   20.8970 C   0  0  0  0  0  2  0  0  0  0  0  0
  -31.3110  -16.9730   19.5400 C   0  0  0  0  0  2  0  0  0  0  0  0
  -30.5300  -17.7810   18.4960 C   0  0  0  0  0  2  0  0  0  0  0  0
  -28.7410  -18.5590   20.0700 C   0  0  0  0  0  3  0  0  0  0  0  0
  -30.5390  -15.7730   19.9560 N   0  0  0  0  0  0  0  0  0  0  0  0
  -29.8170  -18.9110   19.1180 N   0  0  0  0  0  4  0  0  0  0  0  0
  -29.3900  -19.4470   18.3790 H   0  0  0  0  0  0  0  0  0  0  0  0
  -30.4810  -19.5210   19.5670 H   0  0  0  0  0  0  0  0  0  0  0  0
  -25.5240  -13.9780   20.2120 C   0  0  0  0  0  0  0  0  0  0  0  0
  -24.4820  -13.2240   20.6770 C   0  0  0  0  0  0  0  0  0  0  0  0
  -24.8950  -11.8620   20.5650 C   0  0  0  0  0  0  0  0  0  0  0  0
  -26.5120  -13.0740   19.8530 N   0  0  0  0  0  0  0  0  0  0  0  0
  -26.1430  -11.7960   20.1190 N   0  0  0  0  0  0  0  0  0  0  0  0
  -24.1590  -10.6150   20.7940 C   0  0  0  0  0  0  0  0  0  0  0  0
  -24.5910   -9.6670   21.7490 C   0  0  0  0  0  3  0  0  0  0  0  0
  -23.8520   -8.4840   21.9660 C   0  0  0  0  0  3  0  0  0  0  0  0
  -22.6680   -8.2410   21.2300 C   0  0  0  0  0  0  0  0  0  0  0  0
  -22.2560   -9.1750   20.2640 C   0  0  0  0  0  3  0  0  0  0  0  0
  -22.9950  -10.3490   20.0440 C   0  0  0  0  0  3  0  0  0  0  0  0
  -21.9000   -7.1100   21.3570 O   0  0  0  0  0  0  0  0  0  0  0  0
  -21.7590   -6.4680   22.5620 C   0  0  0  0  0  0  0  0  0  0  0  0
  -21.2290   -7.1200   23.6960 C   0  0  0  0  0  3  0  0  0  0  0  0
  -21.0380   -6.4040   24.8940 C   0  0  0  0  0  3  0  0  0  0  0  0
  -21.3650   -5.0360   24.9570 C   0  0  0  0  0  0  0  0  0  0  0  0
  -21.8870   -4.3830   23.8270 C   0  0  0  0  0  3  0  0  0  0  0  0
  -22.0790   -5.0970   22.6310 C   0  0  0  0  0  0  0  0  0  0  0  0
  -22.5630   -4.4590   21.5380 F   0  0  0  0  0  0  0  0  0  0  0  0
  -21.1740   -4.3450   26.1060 F   0  0  0  0  0  0  0  0  0  0  0  0
  -23.1360  -13.7320   21.1080 C   0  0  0  0  0  0  0  0  0  0  0  0
  -22.4980  -13.0470   22.0510 N   0  0  0  0  0  0  0  0  0  0  0  0
  -22.6640  -14.7680   20.6430 O   0  0  0  0  0  0  0  0  0  0  0  0
  -22.8990  -12.2090   22.4460 H   0  0  0  0  0  0  0  0  0  0  0  0
  -21.5960  -13.3590   22.3810 H   0  0  0  0  0  0  0  0  0  0  0  0
  -25.7040  -15.3480   20.0360 N   0  0  0  0  0  0  0  0  0  0  0  0
  -24.9420  -15.9970   20.1890 H   0  0  0  0  0  0  0  0  0  0  0  0
  -26.4750  -15.7540   19.5250 H   0  0  0  0  0  0  0  0  0  0  0  0
  -29.0540  -20.8930   21.3310 C   0  0  0  0  0  2  0  0  0  0  0  0
  -28.7690  -22.4120   21.1370 C   0  0  0  0  0  2  0  0  0  0  0  0
  -29.8150  -23.1590   20.2740 C   0  0  0  0  0  2  0  0  0  0  0  0
  -29.7870  -24.7030   20.4160 C   0  0  0  0  0  2  0  0  0  0  0  0
  -28.5990  -25.3970   19.7280 C   0  0  0  0  0  2  0  0  0  0  0  0
  -28.6530  -26.8170   19.9340 O   0  0  0  0  0  0  0  0  0  0  0  0
  -24.5860  -31.6100   23.2430 C   0  0  0  0  0  0  0  0  0  0  0  0
  -27.4540  -27.5020   19.9180 C   0  0  0  0  0  0  0  0  0  0  0  0
  -23.4620  -30.2760   21.4910 C   0  0  0  0  0  3  0  0  0  0  0  0
  -24.9980  -28.9090   19.9840 C   0  0  0  0  0  0  0  0  0  0  0  0
  -25.9740  -30.7530   21.3620 C   0  0  0  0  0  2  0  0  0  0  0  0
  -26.1240  -29.4360   20.6280 C   0  0  0  0  0  0  0  0  0  0  0  0
  -27.3540  -28.7390   20.5920 C   0  0  0  0  0  3  0  0  0  0  0  0
  -26.3100  -27.0000   19.2520 C   0  0  0  0  0  3  0  0  0  0  0  0
  -25.0860  -27.6910   19.2910 C   0  0  0  0  0  3  0  0  0  0  0  0
  -23.7170  -29.7070   20.0700 C   0  0  0  0  0  2  0  0  0  0  0  0
  -24.6900  -30.8900   22.0910 N   0  0  0  0  0  0  0  0  0  0  0  0
  -23.4870  -31.7990   23.7840 O   0  0  0  0  0  0  0  0  0  0  0  0
  -22.8460  -29.1620   22.3670 C   0  0  0  0  0  0  0  0  0  0  0  0
  -21.5350  -28.9200   22.1970 N   0  0  0  0  0  0  0  0  0  0  0  0
  -23.5440  -28.5200   23.1570 O   0  0  0  0  0  0  0  0  0  0  0  0
  -21.0300  -29.4910   21.5350 H   0  0  0  0  0  0  0  0  0  0  0  0
  -18.2200  -27.5170   22.5280 C   0  0  0  0  0  0  0  0  0  0  0  0
  -20.7530  -27.8930   22.8850 C   0  0  0  0  0  3  0  0  0  0  0  0
  -20.9470  -26.5080   22.2240 C   0  0  0  0  0  2  0  0  0  0  0  0
  -19.8880  -26.1880   21.1650 C   0  0  0  0  0  2  0  0  0  0  0  0
  -18.4850  -26.2220   21.7780 C   0  0  0  0  0  2  0  0  0  0  0  0
  -19.2850  -28.3100   23.0330 C   0  0  0  0  0  0  0  0  0  0  0  0
  -18.9830  -29.5230   23.6920 C   0  0  0  0  0  3  0  0  0  0  0  0
  -17.6490  -29.9460   23.8440 C   0  0  0  0  0  3  0  0  0  0  0  0
  -16.6000  -29.1500   23.3550 C   0  0  0  0  0  3  0  0  0  0  0  0
  -16.8850  -27.9370   22.7030 C   0  0  0  0  0  3  0  0  0  0  0  0
  -25.8370  -32.2520   23.9220 C   0  0  0  0  0  3  0  0  0  0  0  0
  -25.4740  -33.6220   24.3080 N   0  0  0  0  0  0  0  0  0  0  0  0
  -25.7820  -34.7170   23.6020 C   0  0  0  0  0  0  0  0  0  0  0  0
  -26.4720  -34.6820   22.5790 O   0  0  0  0  0  0  0  0  0  0  0  0
  -24.8640  -33.7190   25.1060 H   0  0  0  0  0  0  0  0  0  0  0  0
  -23.9880  -36.4520   23.3020 C   0  0  0  0  0  1  0  0  0  0  0  0
  -25.2370  -36.0660   24.1100 C   0  0  0  0  0  3  0  0  0  0  0  0
  -27.3250  -36.9990   25.0020 C   0  0  0  0  0  1  0  0  0  0  0  0
  -26.2300  -37.1610   24.0500 N   0  0  0  0  0  0  0  0  0  0  0  0
  -25.7880  -38.0600   24.2250 H   0  0  0  0  0  0  0  0  0  0  0  0
  -26.3530  -31.4370   25.1710 C   0  0  1  0  0  0  0  0  0  0  0  0
  -25.2450  -31.1080   26.2000 C   0  0  0  0  0  1  0  0  0  0  0  0
  -26.9910  -30.1010   24.7250 C   0  0  0  0  0  1  0  0  0  0  0  0
  -27.4620  -32.2360   25.8950 C   0  0  0  0  0  1  0  0  0  0  0  0
  1 48  1  0
  2  1  2  0
  3 16  1  0
  4  9  1  0
  5  6  1  0
  5  4  1  0
  7  6  1  0
  7 23  1  0
  7  8  1  0
  9  3  1  0
  9  8  1  0
 10  3  2  0
 12 11  1  0
 13 16  1  0
 14 17  1  0
 14 13  1  0
 15  1  1  0
 15 11  1  0
 16 12  1  0
 17 19  1  0
 17 15  1  0
 18 17  1  0
 20 21  2  0
 21 40  1  0
 22 21  1  0
 22 25  1  0
 23 24  1  0
 23 20  1  0
 24 22  2  0
 25 26  1  0
 26 27  2  0
 28 31  1  0
 28 27  1  0
 29 28  2  0
 30 29  1  0
 30 25  2  0
 31 32  1  0
 32 37  2  0
 32 33  1  0
 33 34  2  0
 34 35  1  0
 35 39  1  0
 36 35  2  0
 37 36  1  0
 38 37  1  0
 40 41  1  0
 41 44  1  0
 41 43  1  0
 42 40  2  0
 45 46  1  0
 45 20  1  0
 47 45  1  0
 49 48  1  0
 50 51  1  0
 50 49  1  0
 52 53  1  0
 52 51  1  0
 54 65  2  0
 55 53  1  0
 55 60  1  0
 56 64  1  0
 56 66  1  0
 57 63  1  0
 57 59  1  0
 58 64  1  0
 59 58  1  0
 60 59  2  0
 61 62  1  0
 61 55  2  0
 62 57  2  0
 63 56  1  0
 64 54  1  0
 66 68  2  0
 67 66  1  0
 69 67  1  0
 70 79  2  0
 70 75  1  0
 71 67  1  0
 71 75  1  0
 72 71  1  0
 73 74  1  0
 73 72  1  0
 74 70  1  0
 75 76  2  0
 76 77  1  0
 78 77  2  0
 79 78  1  0
 80 54  1  0
 80 81  1  0
 80 90  1  0
 81 84  1  0
 82 86  1  0
 82 81  1  0
 83 82  2  0
 86 85  1  0
 88 86  1  0
 88 89  1  0
 88 87  1  0
 90 93  1  1
 90 91  1  0
 92 90  1  0
M  ISO  4   3 100  16 100  52 101  53 101
M  END
>  <TORSDO>  (20) 
F 21

>  <SCORE>  (20) 
-11.485

>  <name>  (20) 
19

>  <ligand_id>  (20) 
19

>  <original_smiles>  (20) 
[H]c1c([H])c([H])c2c(c1[H])C([H])([H])C([H])([H])C([H])([H])C2([H])N([H])C(=O)C1([H])N(C(=O)C([H])(N([H])C(=O)C([H])(N([H])C([H])([H])[H])C([H])([H])[H])C(C([H])([H])[H])(C([H])([H])[H])C([H])([H])[H])C([H])([H])c2c([H])c(OC([H])([H])C([H])([H])C([H])([H])C([H])([H])C([H])([H])C(=O)C3([H])C([H])([H])C([H])([H])N(C(=O)N4C([H])([H])C([H])([H])C([H])([H])C([H])(n5nc(-c6c([H])c([H])c(Oc7c([H])c([H])c(F)c([H])c7F)c([H])c6[H])c(C(=O)N([H])[H])c5N([H])[H])C4([H])[H])C([H])([H])C([H])([H])[N+]3([H])[H])c([H])c([H])c2C1([H])[H]

>  <smiles>  (20) 
[H]c1c([H])c([H])c2c(c1[H])C([H])([H])C([H])([H])C([H])([H])C2([H])N([H])C(=O)C1([H])N(C(=O)C([H])(N([H])C(=O)C([H])(N([H])C([H])([H])[H])C([H])([H])[H])C(C([H])([H])[H])(C([H])([H])[H])C([H])([H])[H])C([H])([H])c2c([H])c(OC([H])([H])C([H])([H])C([H])([H])C([H])([H])C([H])([H])C(=O)C3([H])C([H])([H])C([H])([H])N(C(=O)N4C([H])([H])C([H])([H])C([H])([H])C([H])(n5nc(-c6c([H])c([H])c(Oc7c([H])c([H])c(F)c([H])c7F)c([H])c6[H])c(C(=O)N([H])[H])c5N([H])[H])C4([H])[H])C([H])([H])C([H])([H])[N+]3([H])[H])c([H])c([H])c2C1([H])[H]

$$$$
20:0:0
     RDKit          3D

 95103  0  0  1  0  0  0  0  0999 V2000
  -29.1020  -22.0190   20.4540 C   0  0  0  0  0  3  0  0  0  0  0  0
  -26.4710  -21.4240   17.0360 C   0  0  0  0  0  3  0  0  0  0  0  0
  -26.0290  -21.0990   18.3330 C   0  0  0  0  0  3  0  0  0  0  0  0
  -27.7710  -21.9290   16.8420 C   0  0  0  0  0  3  0  0  0  0  0  0
  -26.8890  -21.2800   19.4340 C   0  0  0  0  0  3  0  0  0  0  0  0
  -28.6320  -22.1100   17.9430 C   0  0  0  0  0  3  0  0  0  0  0  0
  -28.1950  -21.7860   19.2470 C   0  0  0  0  0  0  0  0  0  0  0  0
  -29.4880  -20.5490   21.1860 C   0  0  0  0  0  2  0  0  0  0  0  0
  -29.6920  -19.0830   20.4500 C   0  0  0  0  0  0  0  0  0  0  0  0
  -29.1370  -18.9420   19.3590 O   0  0  0  0  0  0  0  0  0  0  0  0
  -30.5680  -17.7710   21.0200 C   0  0  0  0  0  3  0  0  0  0  0  0
  -30.7960  -17.9990   22.4610 N   0  0  0  0  0  4  0  0  0  0  0  0
  -29.9460  -17.9020   22.9880 H   0  0  0  0  0  0  0  0  0  0  0  0
  -31.1560  -18.9250   22.6110 H   0  0  0  0  0  0  0  0  0  0  0  0
  -31.4750  -17.3520   22.8200 H   0  0  0  0  0  0  0  0  0  0  0  0
  -30.0440  -16.2070   20.7430 C   0  0  0  0  0  2  0  0  0  0  0  0
  -30.9330  -14.8190   20.6900 C   0  0  0  0  0  0  0  0  0  0  0  0
  -30.8070  -12.5260   19.6500 C   0  0  0  0  0  2  0  0  0  0  0  0
  -29.8920  -12.6090   18.4040 C   0  0  0  0  0  2  0  0  0  0  0  0
  -28.4100  -12.4220   18.7940 C   0  0  0  0  0  2  0  0  0  0  0  0
  -28.0120  -13.2900   20.0150 C   0  0  0  0  0  3  0  0  0  0  0  0
  -29.0420  -13.1770   21.1560 C   0  0  0  0  0  2  0  0  0  0  0  0
  -30.3520  -13.5600   20.6160 N   0  0  0  0  0  0  0  0  0  0  0  0
  -32.1470  -14.8980   20.4650 O   0  0  0  0  0  0  0  0  0  0  0  0
  -25.6210  -13.9020   20.7080 C   0  0  0  0  0  0  0  0  0  0  0  0
  -24.5340  -13.1390   21.0400 C   0  0  0  0  0  0  0  0  0  0  0  0
  -24.9770  -11.7820   20.9960 C   0  0  0  0  0  0  0  0  0  0  0  0
  -26.6540  -13.0100   20.4750 N   0  0  0  0  0  0  0  0  0  0  0  0
  -26.2740  -11.7290   20.7140 N   0  0  0  0  0  0  0  0  0  0  0  0
  -24.2260  -10.5290   21.1470 C   0  0  0  0  0  0  0  0  0  0  0  0
  -24.5990   -9.5530   22.0970 C   0  0  0  0  0  3  0  0  0  0  0  0
  -23.8480   -8.3660   22.2360 C   0  0  0  0  0  3  0  0  0  0  0  0
  -22.7110   -8.1450   21.4240 C   0  0  0  0  0  0  0  0  0  0  0  0
  -22.3570   -9.1090   20.4650 C   0  0  0  0  0  3  0  0  0  0  0  0
  -23.1080  -10.2880   20.3240 C   0  0  0  0  0  3  0  0  0  0  0  0
  -21.9390   -7.0100   21.4720 O   0  0  0  0  0  0  0  0  0  0  0  0
  -21.7930   -6.2870   22.6280 C   0  0  0  0  0  0  0  0  0  0  0  0
  -21.2250   -6.8480   23.7920 C   0  0  0  0  0  3  0  0  0  0  0  0
  -21.0310   -6.0480   24.9360 C   0  0  0  0  0  3  0  0  0  0  0  0
  -21.3920   -4.6880   24.9150 C   0  0  0  0  0  0  0  0  0  0  0  0
  -21.9520   -4.1250   23.7550 C   0  0  0  0  0  3  0  0  0  0  0  0
  -22.1490   -4.9220   22.6130 C   0  0  0  0  0  0  0  0  0  0  0  0
  -22.6690   -4.3700   21.4910 F   0  0  0  0  0  0  0  0  0  0  0  0
  -21.1990   -3.9180   26.0120 F   0  0  0  0  0  0  0  0  0  0  0  0
  -23.1390  -13.6370   21.2850 C   0  0  0  0  0  0  0  0  0  0  0  0
  -22.3760  -12.9370   22.1170 N   0  0  0  0  0  0  0  0  0  0  0  0
  -22.7340  -14.6790   20.7730 O   0  0  0  0  0  0  0  0  0  0  0  0
  -22.7160  -12.0940   22.5560 H   0  0  0  0  0  0  0  0  0  0  0  0
  -21.4390  -13.2520   22.3240 H   0  0  0  0  0  0  0  0  0  0  0  0
  -25.8110  -15.2730   20.5590 N   0  0  0  0  0  0  0  0  0  0  0  0
  -25.0440  -15.9310   20.6470 H   0  0  0  0  0  0  0  0  0  0  0  0
  -26.6590  -15.7010   20.2120 H   0  0  0  0  0  0  0  0  0  0  0  0
  -28.3980  -23.2920   21.2780 C   0  0  0  0  0  2  0  0  0  0  0  0
  -28.8770  -24.8770   21.4860 C   0  0  0  0  0  2  0  0  0  0  0  0
  -28.7450  -26.1630   20.6690 O   0  0  0  0  0  0  0  0  0  0  0  0
  -24.7580  -31.7450   23.3550 C   0  0  0  0  0  0  0  0  0  0  0  0
  -27.6190  -27.0350   20.6690 C   0  0  0  0  0  0  0  0  0  0  0  0
  -23.6890  -30.2690   21.6890 C   0  0  0  0  0  3  0  0  0  0  0  0
  -25.2540  -28.6750   20.4290 C   0  0  0  0  0  0  0  0  0  0  0  0
  -26.2370  -30.6020   21.6670 C   0  0  0  0  0  2  0  0  0  0  0  0
  -26.3810  -29.1900   21.0840 C   0  0  0  0  0  0  0  0  0  0  0  0
  -27.5710  -28.3850   21.1830 C   0  0  0  0  0  3  0  0  0  0  0  0
  -26.4660  -26.5930   19.9930 C   0  0  0  0  0  3  0  0  0  0  0  0
  -25.3060  -27.3870   19.8700 C   0  0  0  0  0  3  0  0  0  0  0  0
  -24.0110  -29.5440   20.3550 C   0  0  0  0  0  2  0  0  0  0  0  0
  -24.9100  -30.8960   22.2930 N   0  0  0  0  0  0  0  0  0  0  0  0
  -23.6370  -32.0200   23.8080 O   0  0  0  0  0  0  0  0  0  0  0  0
  -22.9740  -29.2810   22.6420 C   0  0  0  0  0  0  0  0  0  0  0  0
  -21.6630  -29.0670   22.4290 N   0  0  0  0  0  0  0  0  0  0  0  0
  -23.6030  -28.7060   23.5350 O   0  0  0  0  0  0  0  0  0  0  0  0
  -21.2140  -29.5820   21.6840 H   0  0  0  0  0  0  0  0  0  0  0  0
  -18.2860  -27.8010   22.7450 C   0  0  0  0  0  0  0  0  0  0  0  0
  -20.8140  -28.1380   23.1770 C   0  0  0  0  0  3  0  0  0  0  0  0
  -20.9880  -26.6890   22.6670 C   0  0  0  0  0  2  0  0  0  0  0  0
  -19.9680  -26.3010   21.5920 C   0  0  0  0  0  2  0  0  0  0  0  0
  -18.5410  -26.4320   22.1340 C   0  0  0  0  0  2  0  0  0  0  0  0
  -19.3540  -28.6070   23.2210 C   0  0  0  0  0  0  0  0  0  0  0  0
  -19.0640  -29.8830   23.7510 C   0  0  0  0  0  3  0  0  0  0  0  0
  -17.7390  -30.3540   23.8100 C   0  0  0  0  0  3  0  0  0  0  0  0
  -16.6840  -29.5460   23.3510 C   0  0  0  0  0  3  0  0  0  0  0  0
  -16.9580  -28.2710   22.8240 C   0  0  0  0  0  3  0  0  0  0  0  0
  -25.9840  -32.4270   24.0360 C   0  0  0  0  0  3  0  0  0  0  0  0
  -26.4070  -31.7320   25.3900 C   0  0  1  0  0  0  0  0  0  0  0  0
  -25.2360  -31.5280   26.3800 C   0  0  0  0  0  1  0  0  0  0  0  0
  -27.0380  -30.3470   25.1210 C   0  0  0  0  0  1  0  0  0  0  0  0
  -27.4870  -32.5810   26.1000 C   0  0  0  0  0  1  0  0  0  0  0  0
  -25.6380  -33.8370   24.2710 N   0  0  0  0  0  0  0  0  0  0  0  0
  -26.0180  -34.8570   23.4900 C   0  0  0  0  0  0  0  0  0  0  0  0
  -26.7640  -34.7110   22.5180 O   0  0  0  0  0  0  0  0  0  0  0  0
  -24.9840  -34.0220   25.0180 H   0  0  0  0  0  0  0  0  0  0  0  0
  -24.3110  -36.6170   22.9220 C   0  0  0  0  0  1  0  0  0  0  0  0
  -25.4910  -36.2630   23.8420 C   0  0  0  0  0  3  0  0  0  0  0  0
  -27.5430  -37.2170   24.7940 C   0  0  0  0  0  1  0  0  0  0  0  0
  -26.5220  -37.3190   23.7550 N   0  0  0  0  0  0  0  0  0  0  0  0
  -26.0980  -38.2410   23.8190 H   0  0  0  0  0  0  0  0  0  0  0  0
  1  8  1  0
  1 53  1  0
  2  3  1  0
  3  5  2  0
  4  2  2  0
  4  6  1  0
  6  7  2  0
  7  5  1  0
  7  1  1  0
  9 11  1  0
  9  8  1  0
 10  9  2  0
 11 16  1  0
 11 12  1  0
 12 14  1  0
 12 15  1  0
 12 13  1  0
 17 16  1  0
 18 23  1  0
 19 20  1  0
 19 18  1  0
 21 20  1  0
 21 28  1  0
 21 22  1  0
 23 17  1  0
 23 22  1  0
 24 17  2  0
 25 26  2  0
 26 45  1  0
 27 26  1  0
 27 30  1  0
 28 25  1  0
 28 29  1  0
 29 27  2  0
 30 31  1  0
 31 32  2  0
 33 36  1  0
 33 32  1  0
 34 33  2  0
 35 34  1  0
 35 30  2  0
 36 37  1  0
 37 38  1  0
 38 39  2  0
 40 39  1  0
 40 44  1  0
 41 40  2  0
 42 37  2  0
 42 41  1  0
 43 42  1  0
 45 46  1  0
 46 49  1  0
 46 48  1  0
 47 45  2  0
 50 51  1  0
 50 25  1  0
 52 50  1  0
 53 54  1  0
 55 54  1  0
 56 67  2  0
 57 55  1  0
 57 62  1  0
 58 66  1  0
 58 68  1  0
 59 61  1  0
 60 66  1  0
 61 62  2  0
 61 60  1  0
 63 57  2  0
 64 63  1  0
 64 59  2  0
 65 59  1  0
 65 58  1  0
 66 56  1  0
 68 70  2  0
 69 68  1  0
 71 69  1  0
 72 81  2  0
 72 77  1  0
 73 69  1  0
 73 77  1  0
 74 73  1  0
 75 76  1  0
 75 74  1  0
 76 72  1  0
 77 78  2  0
 78 79  1  0
 80 79  2  0
 81 80  1  0
 82 56  1  0
 82 87  1  0
 82 83  1  0
 83 86  1  1
 83 84  1  0
 85 83  1  0
 87 90  1  0
 88 92  1  0
 88 87  1  0
 89 88  2  0
 92 91  1  0
 94 95  1  0
 94 92  1  0
 94 93  1  0
M  ISO  4  16 100  17 100  54 101  55 101
M  END
>  <TORSDO>  (21) 
F 24

>  <SCORE>  (21) 
-10.939

>  <name>  (21) 
20

>  <ligand_id>  (21) 
20

>  <original_smiles>  (21) 
[H]c1c([H])c([H])c(C([H])(C([H])([H])C(=O)C([H])(C([H])([H])C(=O)N2C([H])([H])C([H])([H])C([H])([H])C([H])(n3nc(-c4c([H])c([H])c(Oc5c([H])c([H])c(F)c([H])c5F)c([H])c4[H])c(C(=O)N([H])[H])c3N([H])[H])C2([H])[H])[N+]([H])([H])[H])C([H])([H])C([H])([H])Oc2c([H])c([H])c3c(c2[H])C([H])([H])N(C(=O)C([H])(N([H])C(=O)C([H])(N([H])C([H])([H])[H])C([H])([H])[H])C(C([H])([H])[H])(C([H])([H])[H])C([H])([H])[H])C([H])(C(=O)N([H])C2([H])c4c([H])c([H])c([H])c([H])c4C([H])([H])C([H])([H])C2([H])[H])C3([H])[H])c([H])c1[H]

>  <smiles>  (21) 
[H]c1c([H])c([H])c(C([H])(C([H])([H])C(=O)C([H])(C([H])([H])C(=O)N2C([H])([H])C([H])([H])C([H])([H])C([H])(n3nc(-c4c([H])c([H])c(Oc5c([H])c([H])c(F)c([H])c5F)c([H])c4[H])c(C(=O)N([H])[H])c3N([H])[H])C2([H])[H])[N+]([H])([H])[H])C([H])([H])C([H])([H])Oc2c([H])c([H])c3c(c2[H])C([H])([H])N(C(=O)C([H])(N([H])C(=O)C([H])(N([H])C([H])([H])[H])C([H])([H])[H])C(C([H])([H])[H])(C([H])([H])[H])C([H])([H])[H])C([H])(C(=O)N([H])C2([H])c4c([H])c([H])c([H])c([H])c4C([H])([H])C([H])([H])C2([H])[H])C3([H])[H])c([H])c1[H]

$$$$
21:0:0
     RDKit          3D

 97105  0  0  1  0  0  0  0  0999 V2000
  -30.2440  -17.8070   20.1280 C   0  0  0  0  0  3  0  0  0  0  0  0
  -30.6110  -15.0680   20.1650 C   0  0  0  0  0  0  0  0  0  0  0  0
  -30.3530  -12.8440   18.9940 C   0  0  0  0  0  2  0  0  0  0  0  0
  -29.3770  -12.9720   17.8030 C   0  0  0  0  0  2  0  0  0  0  0  0
  -27.9240  -12.7630   18.2710 C   0  0  0  0  0  2  0  0  0  0  0  0
  -27.5940  -13.5640   19.5580 C   0  0  0  0  0  3  0  0  0  0  0  0
  -28.6930  -13.4270   20.6340 C   0  0  0  0  0  2  0  0  0  0  0  0
  -29.9520  -13.8520   20.0140 N   0  0  0  0  0  0  0  0  0  0  0  0
  -31.8140  -15.0900   19.8930 O   0  0  0  0  0  0  0  0  0  0  0  0
  -29.8880  -16.2780   20.3680 N   0  0  0  0  0  0  0  0  0  0  0  0
  -28.9170  -16.1170   20.5890 H   0  0  0  0  0  0  0  0  0  0  0  0
  -25.2130  -14.1080   20.3210 C   0  0  0  0  0  0  0  0  0  0  0  0
  -24.1670  -13.3190   20.7130 C   0  0  0  0  0  0  0  0  0  0  0  0
  -24.6570  -11.9770   20.6950 C   0  0  0  0  0  0  0  0  0  0  0  0
  -26.2680  -13.2470   20.0790 N   0  0  0  0  0  0  0  0  0  0  0  0
  -25.9450  -11.9610   20.3710 N   0  0  0  0  0  0  0  0  0  0  0  0
  -23.9540  -10.7030   20.9070 C   0  0  0  0  0  0  0  0  0  0  0  0
  -24.4040   -9.7610   21.8580 C   0  0  0  0  0  3  0  0  0  0  0  0
  -23.6990   -8.5550   22.0580 C   0  0  0  0  0  3  0  0  0  0  0  0
  -22.5300   -8.2810   21.3090 C   0  0  0  0  0  0  0  0  0  0  0  0
  -22.1000   -9.2140   20.3490 C   0  0  0  0  0  3  0  0  0  0  0  0
  -22.8060  -10.4110   20.1460 C   0  0  0  0  0  3  0  0  0  0  0  0
  -21.7970   -7.1250   21.4180 O   0  0  0  0  0  0  0  0  0  0  0  0
  -21.7560   -6.4050   22.5860 C   0  0  0  0  0  0  0  0  0  0  0  0
  -21.3390   -6.9860   23.8040 C   0  0  0  0  0  3  0  0  0  0  0  0
  -21.2460   -6.1930   24.9660 C   0  0  0  0  0  3  0  0  0  0  0  0
  -21.5580   -4.8220   24.9100 C   0  0  0  0  0  0  0  0  0  0  0  0
  -21.9670   -4.2410   23.6960 C   0  0  0  0  0  3  0  0  0  0  0  0
  -22.0620   -5.0310   22.5370 C   0  0  0  0  0  0  0  0  0  0  0  0
  -22.4360   -4.4620   21.3650 F   0  0  0  0  0  0  0  0  0  0  0  0
  -21.4610   -4.0570   26.0230 F   0  0  0  0  0  0  0  0  0  0  0  0
  -22.7650  -13.7750   20.9910 C   0  0  0  0  0  0  0  0  0  0  0  0
  -22.0630  -13.0880   21.8870 N   0  0  0  0  0  0  0  0  0  0  0  0
  -22.2990  -14.7750   20.4490 O   0  0  0  0  0  0  0  0  0  0  0  0
  -22.4530  -12.2790   22.3470 H   0  0  0  0  0  0  0  0  0  0  0  0
  -21.1230  -13.3770   22.1170 H   0  0  0  0  0  0  0  0  0  0  0  0
  -25.3470  -15.4800   20.1230 N   0  0  0  0  0  0  0  0  0  0  0  0
  -24.5640  -16.1160   20.2330 H   0  0  0  0  0  0  0  0  0  0  0  0
  -26.1710  -15.9310   19.7490 H   0  0  0  0  0  0  0  0  0  0  0  0
  -29.2460  -17.6900   17.7280 C   0  0  0  0  0  2  0  0  0  0  0  0
  -31.7160  -17.3680   17.9890 C   0  0  0  0  0  2  0  0  0  0  0  0
  -29.4820  -18.1060   16.2620 C   0  0  0  0  0  2  0  0  0  0  0  0
  -30.4700  -18.0420   18.6000 C   0  0  0  0  0  3  0  0  0  0  0  0
  -31.9360  -17.8070   16.5210 C   0  0  0  0  0  3  0  0  0  0  0  0
  -30.7230  -17.5110   15.7190 N   0  0  0  0  0  4  0  0  0  0  0  0
  -30.8550  -17.8640   14.7840 H   0  0  0  0  0  0  0  0  0  0  0  0
  -30.6030  -16.5130   15.6430 H   0  0  0  0  0  0  0  0  0  0  0  0
  -34.5100  -17.5170   16.5520 C   0  0  0  0  0  1  0  0  0  0  0  0
  -33.1770  -17.1440   15.8830 C   0  0  0  0  0  2  0  0  0  0  0  0
  -29.3020  -19.1120   20.6680 C   0  0  0  0  0  3  0  0  0  0  0  0
  -29.7120  -20.7530   20.5160 C   0  0  0  0  0  3  0  0  0  0  0  0
  -28.7090  -21.9660   20.7080 N   0  0  0  0  0  4  0  0  0  0  0  0
  -28.2740  -21.8430   21.6080 H   0  0  0  0  0  0  0  0  0  0  0  0
  -27.9770  -21.8320   20.0280 H   0  0  0  0  0  0  0  0  0  0  0  0
  -29.1460  -23.4940   20.6210 C   0  0  0  0  0  3  0  0  0  0  0  0
  -28.0480  -24.7660   20.5030 C   0  0  0  0  0  3  0  0  0  0  0  0
  -28.3320  -26.3010   20.4980 O   0  0  0  0  0  0  0  0  0  0  0  0
  -24.6330  -32.0370   23.2930 C   0  0  0  0  0  0  0  0  0  0  0  0
  -27.2660  -27.2700   20.4070 C   0  0  0  0  0  0  0  0  0  0  0  0
  -23.4590  -30.5970   21.6760 C   0  0  0  0  0  3  0  0  0  0  0  0
  -24.9310  -28.9990   20.3060 C   0  0  0  0  0  0  0  0  0  0  0  0
  -26.0130  -30.8740   21.5330 C   0  0  0  0  0  2  0  0  0  0  0  0
  -26.1020  -29.4680   20.9160 C   0  0  0  0  0  0  0  0  0  0  0  0
  -27.2710  -28.6200   20.9460 C   0  0  0  0  0  3  0  0  0  0  0  0
  -26.0660  -26.9050   19.7560 C   0  0  0  0  0  3  0  0  0  0  0  0
  -24.9260  -27.7310   19.7120 C   0  0  0  0  0  3  0  0  0  0  0  0
  -23.6980  -29.8900   20.3160 C   0  0  0  0  0  2  0  0  0  0  0  0
  -24.7210  -31.1920   22.2220 N   0  0  0  0  0  0  0  0  0  0  0  0
  -23.5390  -32.3280   23.8020 O   0  0  0  0  0  0  0  0  0  0  0  0
  -22.7740  -29.6080   22.6530 C   0  0  0  0  0  0  0  0  0  0  0  0
  -21.4510  -29.4150   22.5030 N   0  0  0  0  0  0  0  0  0  0  0  0
  -23.4370  -29.0160   23.5090 O   0  0  0  0  0  0  0  0  0  0  0  0
  -20.9730  -29.9440   21.7880 H   0  0  0  0  0  0  0  0  0  0  0  0
  -18.0770  -28.1820   22.9660 C   0  0  0  0  0  0  0  0  0  0  0  0
  -20.6250  -28.4920   23.2860 C   0  0  0  0  0  3  0  0  0  0  0  0
  -20.7620  -27.0420   22.7620 C   0  0  0  0  0  2  0  0  0  0  0  0
  -19.6900  -26.6690   21.7330 C   0  0  0  0  0  2  0  0  0  0  0  0
  -18.2900  -26.8130   22.3390 C   0  0  0  0  0  2  0  0  0  0  0  0
  -19.1740  -28.9750   23.3960 C   0  0  0  0  0  0  0  0  0  0  0  0
  -18.9210  -30.2520   23.9420 C   0  0  0  0  0  3  0  0  0  0  0  0
  -17.6040  -30.7360   24.0640 C   0  0  0  0  0  3  0  0  0  0  0  0
  -16.5220  -29.9390   23.6500 C   0  0  0  0  0  3  0  0  0  0  0  0
  -16.7600  -28.6640   23.1070 C   0  0  0  0  0  3  0  0  0  0  0  0
  -25.9010  -32.6940   23.9200 C   0  0  0  0  0  3  0  0  0  0  0  0
  -25.5730  -34.0950   24.2290 N   0  0  0  0  0  0  0  0  0  0  0  0
  -25.9060  -35.1440   23.4670 C   0  0  0  0  0  0  0  0  0  0  0  0
  -26.5910  -35.0360   22.4450 O   0  0  0  0  0  0  0  0  0  0  0  0
  -24.9660  -34.2510   25.0200 H   0  0  0  0  0  0  0  0  0  0  0  0
  -24.1720  -36.9260   23.0770 C   0  0  0  0  0  1  0  0  0  0  0  0
  -25.4060  -36.5340   23.9070 C   0  0  0  0  0  3  0  0  0  0  0  0
  -27.5260  -37.4410   24.7530 C   0  0  0  0  0  1  0  0  0  0  0  0
  -26.4330  -37.5940   23.7970 N   0  0  0  0  0  0  0  0  0  0  0  0
  -26.0200  -38.5130   23.9320 H   0  0  0  0  0  0  0  0  0  0  0  0
  -26.4090  -31.9500   25.2160 C   0  0  1  0  0  0  0  0  0  0  0  0
  -25.3020  -31.7110   26.2700 C   0  0  0  0  0  1  0  0  0  0  0  0
  -27.0200  -30.5750   24.8580 C   0  0  0  0  0  1  0  0  0  0  0  0
  -27.5350  -32.7720   25.8840 C   0  0  0  0  0  1  0  0  0  0  0  0
  1 10  1  0
  1 50  1  0
  2 10  1  0
  3  8  1  0
  4  5  1  0
  4  3  1  0
  6  5  1  0
  6 15  1  0
  6  7  1  0
  8  2  1  0
  8  7  1  0
  9  2  2  0
 10 11  1  0
 12 13  2  0
 13 32  1  0
 14 13  1  0
 14 17  1  0
 15 12  1  0
 15 16  1  0
 16 14  2  0
 17 18  1  0
 18 19  2  0
 20 23  1  0
 20 19  1  0
 21 20  2  0
 22 21  1  0
 22 17  2  0
 23 24  1  0
 24 25  1  0
 25 26  2  0
 27 26  1  0
 27 31  1  0
 28 27  2  0
 29 24  2  0
 29 28  1  0
 30 29  1  0
 32 33  1  0
 33 36  1  0
 33 35  1  0
 34 32  2  0
 37 38  1  0
 37 12  1  0
 39 37  1  0
 40 43  1  0
 41 43  1  0
 42 40  1  0
 43  1  1  0
 44 49  1  0
 44 41  1  0
 45 42  1  0
 45 44  1  0
 46 45  1  0
 47 45  1  0
 49 48  1  0
 51 50  2  0
 51 52  1  0
 52 53  1  0
 54 52  1  0
 55 52  1  0
 56 55  2  0
 57 56  1  0
 58 69  2  0
 59 57  1  0
 59 64  1  0
 60 68  1  0
 60 70  1  0
 61 67  1  0
 61 63  1  0
 62 68  1  0
 63 64  2  0
 63 62  1  0
 65 59  2  0
 66 65  1  0
 66 61  2  0
 67 60  1  0
 68 58  1  0
 70 72  2  0
 71 70  1  0
 73 71  1  0
 74 83  2  0
 74 79  1  0
 75 71  1  0
 75 79  1  0
 76 75  1  0
 77 78  1  0
 77 76  1  0
 78 74  1  0
 79 80  2  0
 80 81  1  0
 82 81  2  0
 83 82  1  0
 84 58  1  0
 84 85  1  0
 84 94  1  0
 85 88  1  0
 86 90  1  0
 86 85  1  0
 87 86  2  0
 90 89  1  0
 92 90  1  0
 92 93  1  0
 92 91  1  0
 94 97  1  1
 94 95  1  0
 96 94  1  0
M  ISO  4   2 100  10 100  56 101  57 101
M  END
>  <TORSDO>  (22) 
F 23

>  <SCORE>  (22) 
-12.774

>  <name>  (22) 
21

>  <ligand_id>  (22) 
21

>  <original_smiles>  (22) 
[H]c1c([H])c([H])c2c(c1[H])C([H])([H])C([H])([H])C([H])([H])C2([H])N([H])C(=O)C1([H])N(C(=O)C([H])(N([H])C(=O)C([H])(N([H])C([H])([H])[H])C([H])([H])[H])C(C([H])([H])[H])(C([H])([H])[H])C([H])([H])[H])C([H])([H])c2c([H])c(OC([H])([H])C([H])([H])[N+]([H])([H])C([H])([H])C([H])([H])C([H])(N([H])C(=O)N3C([H])([H])C([H])([H])C([H])([H])C([H])(n4nc(-c5c([H])c([H])c(Oc6c([H])c([H])c(F)c([H])c6F)c([H])c5[H])c(C(=O)N([H])[H])c4N([H])[H])C3([H])[H])C3([H])C([H])([H])C([H])([H])[N+]([H])([H])C([H])(C([H])([H])C([H])([H])[H])C3([H])[H])c([H])c([H])c2C1([H])[H]

>  <smiles>  (22) 
[H]c1c([H])c([H])c2c(c1[H])C([H])([H])C([H])([H])C([H])([H])C2([H])N([H])C(=O)C1([H])N(C(=O)C([H])(N([H])C(=O)C([H])(N([H])C([H])([H])[H])C([H])([H])[H])C(C([H])([H])[H])(C([H])([H])[H])C([H])([H])[H])C([H])([H])c2c([H])c(OC([H])([H])C([H])([H])[N+]([H])([H])C([H])([H])C([H])([H])C([H])(N([H])C(=O)N3C([H])([H])C([H])([H])C([H])([H])C([H])(n4nc(-c5c([H])c([H])c(Oc6c([H])c([H])c(F)c([H])c6F)c([H])c5[H])c(C(=O)N([H])[H])c4N([H])[H])C3([H])[H])C3([H])C([H])([H])C([H])([H])[N+]([H])([H])C([H])(C([H])([H])C([H])([H])[H])C3([H])[H])c([H])c([H])c2C1([H])[H]

$$$$
22:0:0
     RDKit          3D

 94102  0  0  1  0  0  0  0  0999 V2000
  -28.5050  -21.0760   20.1000 C   0  0  0  0  0  3  0  0  0  0  0  0
  -30.5710  -15.3230   20.2820 C   0  0  0  0  0  0  0  0  0  0  0  0
  -30.3580  -12.9200   19.3560 C   0  0  0  0  0  2  0  0  0  0  0  0
  -29.4330  -12.6710   18.1480 C   0  0  0  0  0  2  0  0  0  0  0  0
  -28.0040  -12.3940   18.6280 C   0  0  0  0  0  2  0  0  0  0  0  0
  -27.5590  -13.3850   19.7350 C   0  0  0  0  0  3  0  0  0  0  0  0
  -28.6310  -13.6240   20.8250 C   0  0  0  0  0  2  0  0  0  0  0  0
  -29.8300  -14.1180   20.1210 N   0  0  0  0  0  0  0  0  0  0  0  0
  -31.7760  -15.0610   20.2340 O   0  0  0  0  0  0  0  0  0  0  0  0
  -30.7170  -19.3000   19.6930 C   0  0  0  0  0  2  0  0  0  0  0  0
  -29.0130  -17.8580   20.3430 C   0  0  0  0  0  2  0  0  0  0  0  0
  -29.4070  -19.5470   20.4360 C   0  0  0  0  0  3  0  0  0  0  0  0
  -31.2870  -17.8410   19.9960 C   0  0  0  0  0  3  0  0  0  0  0  0
  -30.1990  -16.7820   20.1660 N   0  0  0  0  0  0  0  0  0  0  0  0
  -25.2090  -13.9200   20.5460 C   0  0  0  0  0  0  0  0  0  0  0  0
  -24.1520  -13.1330   20.9110 C   0  0  0  0  0  0  0  0  0  0  0  0
  -24.6240  -11.7860   20.8560 C   0  0  0  0  0  0  0  0  0  0  0  0
  -26.2490  -13.0530   20.2780 N   0  0  0  0  0  0  0  0  0  0  0  0
  -25.9130  -11.7610   20.5350 N   0  0  0  0  0  0  0  0  0  0  0  0
  -23.9010  -10.5180   21.0330 C   0  0  0  0  0  0  0  0  0  0  0  0
  -24.3260   -9.5460   21.9670 C   0  0  0  0  0  3  0  0  0  0  0  0
  -23.5990   -8.3470   22.1370 C   0  0  0  0  0  3  0  0  0  0  0  0
  -22.4330   -8.1100   21.3700 C   0  0  0  0  0  0  0  0  0  0  0  0
  -22.0270   -9.0690   20.4250 C   0  0  0  0  0  3  0  0  0  0  0  0
  -22.7550  -10.2590   20.2550 C   0  0  0  0  0  3  0  0  0  0  0  0
  -21.6800   -6.9630   21.4480 O   0  0  0  0  0  0  0  0  0  0  0  0
  -21.5980   -6.2320   22.6060 C   0  0  0  0  0  0  0  0  0  0  0  0
  -21.0940   -6.7860   23.8020 C   0  0  0  0  0  3  0  0  0  0  0  0
  -20.9630   -5.9800   24.9500 C   0  0  0  0  0  3  0  0  0  0  0  0
  -21.3240   -4.6200   24.9030 C   0  0  0  0  0  0  0  0  0  0  0  0
  -21.8190   -4.0650   23.7100 C   0  0  0  0  0  3  0  0  0  0  0  0
  -21.9530   -4.8680   22.5650 C   0  0  0  0  0  0  0  0  0  0  0  0
  -22.4120   -4.3230   21.4120 F   0  0  0  0  0  0  0  0  0  0  0  0
  -21.1880   -3.8440   26.0040 F   0  0  0  0  0  0  0  0  0  0  0  0
  -22.7540  -13.6020   21.1930 C   0  0  0  0  0  0  0  0  0  0  0  0
  -22.0350  -12.8960   22.0590 N   0  0  0  0  0  0  0  0  0  0  0  0
  -22.3120  -14.6300   20.6830 O   0  0  0  0  0  0  0  0  0  0  0  0
  -22.4090  -12.0660   22.4960 H   0  0  0  0  0  0  0  0  0  0  0  0
  -21.0970  -13.1910   22.2890 H   0  0  0  0  0  0  0  0  0  0  0  0
  -25.3690  -15.2930   20.3840 N   0  0  0  0  0  0  0  0  0  0  0  0
  -24.6110  -15.9530   20.5130 H   0  0  0  0  0  0  0  0  0  0  0  0
  -26.2260  -15.7330   20.0730 H   0  0  0  0  0  0  0  0  0  0  0  0
  -32.4350  -17.5220   18.9740 C   0  0  0  0  0  2  0  0  0  0  0  0
  -33.3840  -18.6380   18.7880 N   0  0  0  0  0  4  0  0  0  0  0  0
  -32.9200  -19.4510   18.4240 H   0  0  0  0  0  0  0  0  0  0  0  0
  -34.0980  -18.3740   18.1310 H   0  0  0  0  0  0  0  0  0  0  0  0
  -33.8380  -18.8800   19.6520 H   0  0  0  0  0  0  0  0  0  0  0  0
  -28.0340  -20.9720   18.7080 N   0  0  0  0  0  4  0  0  0  0  0  0
  -28.7650  -21.2120   18.0620 H   0  0  0  0  0  0  0  0  0  0  0  0
  -27.2600  -21.5940   18.5520 H   0  0  0  0  0  0  0  0  0  0  0  0
  -27.7210  -20.0400   18.5040 H   0  0  0  0  0  0  0  0  0  0  0  0
  -28.8550  -22.8200   20.3770 C   0  0  0  0  0  3  0  0  0  0  0  0
  -27.8920  -24.3250   20.1590 C   0  0  0  0  0  3  0  0  0  0  0  0
  -28.1620  -25.9360   20.3440 O   0  0  0  0  0  0  0  0  0  0  0  0
  -24.6400  -31.9210   23.2630 C   0  0  0  0  0  0  0  0  0  0  0  0
  -27.1570  -27.0310   20.2680 C   0  0  0  0  0  0  0  0  0  0  0  0
  -23.4350  -30.5270   21.6310 C   0  0  0  0  0  3  0  0  0  0  0  0
  -24.8710  -28.9110   20.2130 C   0  0  0  0  0  0  0  0  0  0  0  0
  -26.0000  -30.7250   21.4800 C   0  0  0  0  0  2  0  0  0  0  0  0
  -26.0610  -29.3160   20.8310 C   0  0  0  0  0  0  0  0  0  0  0  0
  -27.1980  -28.3950   20.8370 C   0  0  0  0  0  3  0  0  0  0  0  0
  -25.9430  -26.7730   19.5980 C   0  0  0  0  0  3  0  0  0  0  0  0
  -24.8350  -27.6600   19.5760 C   0  0  0  0  0  3  0  0  0  0  0  0
  -23.6560  -29.8370   20.2570 C   0  0  0  0  0  2  0  0  0  0  0  0
  -24.7140  -31.0840   22.1780 N   0  0  0  0  0  0  0  0  0  0  0  0
  -23.5530  -32.2200   23.7820 O   0  0  0  0  0  0  0  0  0  0  0  0
  -22.7380  -29.5380   22.6030 C   0  0  0  0  0  0  0  0  0  0  0  0
  -21.4090  -29.3690   22.4700 N   0  0  0  0  0  0  0  0  0  0  0  0
  -23.4000  -28.9200   23.4400 O   0  0  0  0  0  0  0  0  0  0  0  0
  -20.9290  -29.9150   21.7670 H   0  0  0  0  0  0  0  0  0  0  0  0
  -18.0240  -28.1670   22.9690 C   0  0  0  0  0  0  0  0  0  0  0  0
  -20.5820  -28.4370   23.2440 C   0  0  0  0  0  3  0  0  0  0  0  0
  -20.6890  -27.0010   22.6790 C   0  0  0  0  0  2  0  0  0  0  0  0
  -19.5920  -26.6710   21.6630 C   0  0  0  0  0  2  0  0  0  0  0  0
  -18.2070  -26.8160   22.2990 C   0  0  0  0  0  2  0  0  0  0  0  0
  -19.1390  -28.9360   23.3980 C   0  0  0  0  0  0  0  0  0  0  0  0
  -18.9130  -30.2000   23.9840 C   0  0  0  0  0  3  0  0  0  0  0  0
  -17.6050  -30.6940   24.1480 C   0  0  0  0  0  3  0  0  0  0  0  0
  -16.5060  -29.9240   23.7340 C   0  0  0  0  0  3  0  0  0  0  0  0
  -16.7150  -28.6620   23.1510 C   0  0  0  0  0  3  0  0  0  0  0  0
  -25.9140  -32.5590   23.8920 C   0  0  0  0  0  3  0  0  0  0  0  0
  -25.6100  -33.9660   24.2100 N   0  0  0  0  0  0  0  0  0  0  0  0
  -25.9350  -35.0150   23.4440 C   0  0  0  0  0  0  0  0  0  0  0  0
  -26.5870  -34.9010   22.4030 O   0  0  0  0  0  0  0  0  0  0  0  0
  -25.0260  -34.1270   25.0180 H   0  0  0  0  0  0  0  0  0  0  0  0
  -24.2050  -36.8160   23.1180 C   0  0  0  0  0  1  0  0  0  0  0  0
  -25.4640  -36.4110   23.9010 C   0  0  0  0  0  3  0  0  0  0  0  0
  -27.6180  -37.3020   24.6770 C   0  0  0  0  0  1  0  0  0  0  0  0
  -26.4970  -37.4610   23.7540 N   0  0  0  0  0  0  0  0  0  0  0  0
  -26.0960  -38.3840   23.8990 H   0  0  0  0  0  0  0  0  0  0  0  0
  -26.4070  -31.8050   25.1890 C   0  0  1  0  0  0  0  0  0  0  0  0
  -25.2980  -31.5940   26.2470 C   0  0  0  0  0  1  0  0  0  0  0  0
  -26.9840  -30.4150   24.8350 C   0  0  0  0  0  1  0  0  0  0  0  0
  -27.5560  -32.6000   25.8530 C   0  0  0  0  0  1  0  0  0  0  0  0
  1 52  1  0
  3  8  1  0
  4  5  1  0
  4  3  1  0
  6  5  1  0
  6 18  1  0
  6  7  1  0
  8  2  1  0
  8  7  1  0
  9  2  2  0
 10 13  1  0
 10 12  1  0
 11 12  1  0
 12  1  1  0
 13 43  1  0
 13 14  1  0
 14  2  1  0
 14 11  1  0
 15 16  2  0
 16 35  1  0
 17 16  1  0
 17 20  1  0
 18 19  1  0
 18 15  1  0
 19 17  2  0
 20 21  1  0
 21 22  2  0
 23 26  1  0
 23 22  1  0
 24 23  2  0
 25 24  1  0
 25 20  2  0
 26 27  1  0
 27 28  1  0
 28 29  2  0
 30 29  1  0
 30 34  1  0
 31 30  2  0
 32 27  2  0
 32 31  1  0
 33 32  1  0
 35 36  1  0
 36 39  1  0
 36 38  1  0
 37 35  2  0
 40 41  1  0
 40 15  1  0
 42 40  1  0
 44 43  1  0
 44 47  1  0
 45 44  1  0
 46 44  1  0
 48  1  1  0
 49 48  1  0
 50 48  1  0
 51 48  1  0
 53 54  1  0
 53 52  2  0
 55 66  2  0
 56 54  1  0
 56 61  1  0
 57 65  1  0
 57 67  1  0
 58 64  1  0
 58 60  1  0
 59 65  1  0
 60 61  2  0
 60 59  1  0
 62 56  2  0
 63 62  1  0
 63 58  2  0
 64 57  1  0
 65 55  1  0
 67 69  2  0
 68 67  1  0
 70 68  1  0
 71 80  2  0
 71 76  1  0
 72 68  1  0
 72 76  1  0
 73 72  1  0
 74 75  1  0
 74 73  1  0
 75 71  1  0
 76 77  2  0
 77 78  1  0
 79 78  2  0
 80 79  1  0
 81 55  1  0
 81 82  1  0
 81 91  1  0
 82 85  1  0
 83 87  1  0
 83 82  1  0
 84 83  2  0
 87 86  1  0
 89 90  1  0
 89 87  1  0
 89 88  1  0
 91 94  1  1
 91 92  1  0
 93 91  1  0
M  ISO  4   2 100  14 100  53 101  54 101
M  END
>  <TORSDO>  (23) 
F 21

>  <SCORE>  (23) 
-15.504

>  <name>  (23) 
22

>  <ligand_id>  (23) 
22

>  <original_smiles>  (23) 
[H]c1c([H])c([H])c2c(c1[H])C([H])([H])C([H])([H])C([H])([H])C2([H])N([H])C(=O)C1([H])N(C(=O)C([H])(N([H])C(=O)C([H])(N([H])C([H])([H])[H])C([H])([H])[H])C(C([H])([H])[H])(C([H])([H])[H])C([H])([H])[H])C([H])([H])c2c([H])c(OC([H])([H])C([H])([H])C([H])(C3([H])C([H])([H])N(C(=O)N4C([H])([H])C([H])([H])C([H])([H])C([H])(n5nc(-c6c([H])c([H])c(Oc7c([H])c([H])c(F)c([H])c7F)c([H])c6[H])c(C(=O)N([H])[H])c5N([H])[H])C4([H])[H])C([H])(C([H])([H])[N+]([H])([H])[H])C3([H])[H])[N+]([H])([H])[H])c([H])c([H])c2C1([H])[H]

>  <smiles>  (23) 
[H]c1c([H])c([H])c2c(c1[H])C([H])([H])C([H])([H])C([H])([H])C2([H])N([H])C(=O)C1([H])N(C(=O)C([H])(N([H])C(=O)C([H])(N([H])C([H])([H])[H])C([H])([H])[H])C(C([H])([H])[H])(C([H])([H])[H])C([H])([H])[H])C([H])([H])c2c([H])c(OC([H])([H])C([H])([H])C([H])(C3([H])C([H])([H])N(C(=O)N4C([H])([H])C([H])([H])C([H])([H])C([H])(n5nc(-c6c([H])c([H])c(Oc7c([H])c([H])c(F)c([H])c7F)c([H])c6[H])c(C(=O)N([H])[H])c5N([H])[H])C4([H])[H])C([H])(C([H])([H])[N+]([H])([H])[H])C3([H])[H])[N+]([H])([H])[H])c([H])c([H])c2C1([H])[H]

$$$$
23:0:0
     RDKit          3D

 95103  0  0  1  0  0  0  0  0999 V2000
  -28.5930  -22.3840   20.8760 C   0  0  0  0  0  3  0  0  0  0  0  0
  -30.4820  -21.0870   19.3770 C   0  0  0  0  0  2  0  0  0  0  0  0
  -29.1030  -19.6280   20.6890 C   0  0  0  0  0  2  0  0  0  0  0  0
  -29.6240  -21.1350   20.6500 C   0  0  0  0  0  3  0  0  0  0  0  0
  -30.7870  -19.6030   19.0260 C   0  0  0  0  0  3  0  0  0  0  0  0
  -30.2320  -18.6560   20.1400 C   0  0  0  0  0  3  0  0  0  0  0  0
  -33.3000  -19.6790   19.7010 C   0  0  0  0  0  1  0  0  0  0  0  0
  -32.2540  -19.3950   18.6070 C   0  0  0  0  0  2  0  0  0  0  0  0
  -29.9140  -17.1770   19.5330 C   0  0  0  0  0  2  0  0  0  0  0  0
  -30.6040  -14.7380   20.1970 C   0  0  0  0  0  0  0  0  0  0  0  0
  -30.3690  -12.4560   19.2260 C   0  0  0  0  0  2  0  0  0  0  0  0
  -29.4270  -12.5680   18.0070 C   0  0  0  0  0  2  0  0  0  0  0  0
  -27.9540  -12.4120   18.4410 C   0  0  0  0  0  2  0  0  0  0  0  0
  -27.6000  -13.2910   19.6740 C   0  0  0  0  0  3  0  0  0  0  0  0
  -28.6700  -13.1750   20.7820 C   0  0  0  0  0  2  0  0  0  0  0  0
  -29.9700  -13.5150   20.1850 N   0  0  0  0  0  0  0  0  0  0  0  0
  -31.7780  -14.8280   19.8360 O   0  0  0  0  0  0  0  0  0  0  0  0
  -29.8340  -15.8780   20.3410 N   0  0  0  0  0  0  0  0  0  0  0  0
  -28.9270  -15.6940   20.7370 H   0  0  0  0  0  0  0  0  0  0  0  0
  -25.2140  -13.8870   20.4250 C   0  0  0  0  0  0  0  0  0  0  0  0
  -24.1470  -13.1130   20.8050 C   0  0  0  0  0  0  0  0  0  0  0  0
  -24.6110  -11.7620   20.7740 C   0  0  0  0  0  0  0  0  0  0  0  0
  -26.2550  -13.0070   20.1800 N   0  0  0  0  0  0  0  0  0  0  0  0
  -25.9000  -11.7240   20.4560 N   0  0  0  0  0  0  0  0  0  0  0  0
  -23.8870  -10.5000   20.9760 C   0  0  0  0  0  0  0  0  0  0  0  0
  -24.3180   -9.5430   21.9220 C   0  0  0  0  0  3  0  0  0  0  0  0
  -23.5930   -8.3460   22.1080 C   0  0  0  0  0  3  0  0  0  0  0  0
  -22.4240   -8.0980   21.3500 C   0  0  0  0  0  0  0  0  0  0  0  0
  -22.0130   -9.0440   20.3950 C   0  0  0  0  0  3  0  0  0  0  0  0
  -22.7410  -10.2310   20.2050 C   0  0  0  0  0  3  0  0  0  0  0  0
  -21.6710   -6.9510   21.4430 O   0  0  0  0  0  0  0  0  0  0  0  0
  -21.6080   -6.2220   22.6030 C   0  0  0  0  0  0  0  0  0  0  0  0
  -21.1440   -6.7860   23.8120 C   0  0  0  0  0  3  0  0  0  0  0  0
  -21.0310   -5.9830   24.9650 C   0  0  0  0  0  3  0  0  0  0  0  0
  -21.3730   -4.6200   24.9090 C   0  0  0  0  0  0  0  0  0  0  0  0
  -21.8300   -4.0550   23.7070 C   0  0  0  0  0  3  0  0  0  0  0  0
  -21.9450   -4.8530   22.5560 C   0  0  0  0  0  0  0  0  0  0  0  0
  -22.3660   -4.2990   21.3940 F   0  0  0  0  0  0  0  0  0  0  0  0
  -21.2560   -3.8470   26.0150 F   0  0  0  0  0  0  0  0  0  0  0  0
  -22.7520  -13.5960   21.0800 C   0  0  0  0  0  0  0  0  0  0  0  0
  -22.0250  -12.9030   21.9510 N   0  0  0  0  0  0  0  0  0  0  0  0
  -22.3150  -14.6210   20.5610 O   0  0  0  0  0  0  0  0  0  0  0  0
  -22.3880  -12.0740   22.3950 H   0  0  0  0  0  0  0  0  0  0  0  0
  -21.0900  -13.2150   22.1760 H   0  0  0  0  0  0  0  0  0  0  0  0
  -25.3710  -15.2550   20.2390 N   0  0  0  0  0  0  0  0  0  0  0  0
  -24.6050  -15.9080   20.3630 H   0  0  0  0  0  0  0  0  0  0  0  0
  -26.2080  -15.7020   19.8860 H   0  0  0  0  0  0  0  0  0  0  0  0
  -28.3310  -22.4410   22.3430 N   0  0  0  0  0  4  0  0  0  0  0  0
  -27.4500  -22.8750   22.5570 H   0  0  0  0  0  0  0  0  0  0  0  0
  -29.0670  -22.9160   22.8420 H   0  0  0  0  0  0  0  0  0  0  0  0
  -28.2830  -21.5090   22.7320 H   0  0  0  0  0  0  0  0  0  0  0  0
  -28.5610  -23.9810   18.7500 C   0  0  0  0  0  1  0  0  0  0  0  0
  -28.9050  -23.8760   20.2570 C   0  0  0  0  0  3  0  0  0  0  0  0
  -28.1890  -25.1710   20.8820 C   0  0  0  0  0  2  0  0  0  0  0  0
  -28.3630  -26.5000   20.2370 O   0  0  0  0  0  0  0  0  0  0  0  0
  -24.6120  -31.8760   23.2310 C   0  0  0  0  0  0  0  0  0  0  0  0
  -27.2460  -27.3420   20.1890 C   0  0  0  0  0  0  0  0  0  0  0  0
  -23.4140  -30.4720   21.5870 C   0  0  0  0  0  3  0  0  0  0  0  0
  -24.8720  -28.9340   20.1510 C   0  0  0  0  0  0  0  0  0  0  0  0
  -25.9440  -30.8070   21.3940 C   0  0  0  0  0  2  0  0  0  0  0  0
  -26.0310  -29.4280   20.7610 C   0  0  0  0  0  0  0  0  0  0  0  0
  -27.2240  -28.6450   20.7730 C   0  0  0  0  0  3  0  0  0  0  0  0
  -26.0720  -26.9010   19.5410 C   0  0  0  0  0  3  0  0  0  0  0  0
  -24.8950  -27.6780   19.5180 C   0  0  0  0  0  3  0  0  0  0  0  0
  -23.6260  -29.8000   20.2030 C   0  0  0  0  0  2  0  0  0  0  0  0
  -24.6770  -31.0700   22.1310 N   0  0  0  0  0  0  0  0  0  0  0  0
  -23.5290  -32.1470   23.7660 O   0  0  0  0  0  0  0  0  0  0  0  0
  -22.7610  -29.4490   22.5470 C   0  0  0  0  0  0  0  0  0  0  0  0
  -21.4360  -29.2650   22.4190 N   0  0  0  0  0  0  0  0  0  0  0  0
  -23.4430  -28.8290   23.3670 O   0  0  0  0  0  0  0  0  0  0  0  0
  -20.9480  -29.8210   21.7310 H   0  0  0  0  0  0  0  0  0  0  0  0
  -18.0610  -28.0570   22.9120 C   0  0  0  0  0  0  0  0  0  0  0  0
  -20.6200  -28.3180   23.1820 C   0  0  0  0  0  3  0  0  0  0  0  0
  -20.7250  -26.8930   22.5920 C   0  0  0  0  0  2  0  0  0  0  0  0
  -19.6200  -26.5760   21.5780 C   0  0  0  0  0  2  0  0  0  0  0  0
  -18.2390  -26.7130   22.2240 C   0  0  0  0  0  2  0  0  0  0  0  0
  -19.1790  -28.8180   23.3440 C   0  0  0  0  0  0  0  0  0  0  0  0
  -18.9550  -30.0790   23.9420 C   0  0  0  0  0  3  0  0  0  0  0  0
  -17.6480  -30.5750   24.1090 C   0  0  0  0  0  3  0  0  0  0  0  0
  -16.5470  -29.8080   23.6940 C   0  0  0  0  0  3  0  0  0  0  0  0
  -16.7540  -28.5500   23.1030 C   0  0  0  0  0  3  0  0  0  0  0  0
  -25.8940  -32.5110   23.8580 C   0  0  0  0  0  3  0  0  0  0  0  0
  -25.5830  -33.9080   24.1890 N   0  0  0  0  0  0  0  0  0  0  0  0
  -25.9090  -34.9620   23.4270 C   0  0  0  0  0  0  0  0  0  0  0  0
  -26.5760  -34.8570   22.3950 O   0  0  0  0  0  0  0  0  0  0  0  0
  -25.0010  -34.0640   24.9990 H   0  0  0  0  0  0  0  0  0  0  0  0
  -24.1810  -36.7490   23.0600 C   0  0  0  0  0  1  0  0  0  0  0  0
  -25.4180  -36.3500   23.8810 C   0  0  0  0  0  3  0  0  0  0  0  0
  -27.5480  -37.2310   24.7280 C   0  0  0  0  0  1  0  0  0  0  0  0
  -26.4540  -37.4030   23.7770 N   0  0  0  0  0  0  0  0  0  0  0  0
  -26.0490  -38.3240   23.9240 H   0  0  0  0  0  0  0  0  0  0  0  0
  -26.4030  -31.7430   25.1380 C   0  0  1  0  0  0  0  0  0  0  0  0
  -25.3080  -31.5030   26.2030 C   0  0  0  0  0  1  0  0  0  0  0  0
  -26.9890  -30.3720   24.7390 C   0  0  0  0  0  1  0  0  0  0  0  0
  -27.5530  -32.5370   25.8020 C   0  0  0  0  0  1  0  0  0  0  0  0
  1 48  1  0
  2  4  1  0
  4  3  1  0
  4  1  1  0
  5  8  1  0
  5  2  1  0
  5  6  1  0
  6  9  1  0
  6  3  1  0
  8  7  1  0
  9 18  1  0
 10 18  1  0
 11 16  1  0
 12 13  1  0
 12 11  1  0
 14 13  1  0
 14 23  1  0
 14 15  1  0
 16 10  1  0
 16 15  1  0
 17 10  2  0
 18 19  1  0
 20 21  2  0
 21 40  1  0
 22 21  1  0
 22 25  1  0
 23 20  1  0
 23 24  1  0
 24 22  2  0
 25 26  1  0
 26 27  2  0
 28 31  1  0
 28 27  1  0
 29 28  2  0
 30 29  1  0
 30 25  2  0
 31 32  1  0
 32 33  1  0
 33 34  2  0
 35 34  1  0
 35 39  1  0
 36 35  2  0
 37 32  2  0
 37 36  1  0
 38 37  1  0
 40 41  1  0
 41 44  1  0
 41 43  1  0
 42 40  2  0
 45 46  1  0
 45 20  1  0
 47 45  1  0
 48 49  1  0
 48 51  1  0
 48 50  1  0
 53 52  1  0
 53  1  1  0
 53 54  1  0
 55 54  1  0
 56 67  2  0
 57 55  1  0
 57 62  1  0
 58 66  1  0
 58 68  1  0
 59 65  1  0
 59 61  1  0
 60 66  1  0
 61 62  2  0
 61 60  1  0
 63 57  2  0
 64 63  1  0
 64 59  2  0
 65 58  1  0
 66 56  1  0
 68 70  2  0
 69 68  1  0
 71 69  1  0
 72 81  2  0
 72 77  1  0
 73 69  1  0
 73 77  1  0
 74 73  1  0
 75 76  1  0
 75 74  1  0
 76 72  1  0
 77 78  2  0
 78 79  1  0
 80 79  2  0
 81 80  1  0
 82 56  1  0
 82 83  1  0
 82 92  1  0
 83 86  1  0
 84 88  1  0
 84 83  1  0
 85 84  2  0
 88 87  1  0
 90 88  1  0
 90 91  1  0
 90 89  1  0
 92 95  1  1
 92 93  1  0
 94 92  1  0
M  ISO  4  10 100  18 100  54 101  55 101
M  END
>  <TORSDO>  (24) 
F 22

>  <SCORE>  (24) 
-13.468

>  <name>  (24) 
23

>  <ligand_id>  (24) 
23

>  <original_smiles>  (24) 
[H]c1c([H])c([H])c2c(c1[H])C([H])([H])C([H])([H])C([H])([H])C2([H])N([H])C(=O)C1([H])N(C(=O)C([H])(N([H])C(=O)C([H])(N([H])C([H])([H])[H])C([H])([H])[H])C(C([H])([H])[H])(C([H])([H])[H])C([H])([H])[H])C([H])([H])c2c([H])c(OC([H])([H])C([H])(C([H])([H])[H])C([H])(C3([H])C([H])([H])C([H])(C([H])([H])N([H])C(=O)N4C([H])([H])C([H])([H])C([H])([H])C([H])(n5nc(-c6c([H])c([H])c(Oc7c([H])c([H])c(F)c([H])c7F)c([H])c6[H])c(C(=O)N([H])[H])c5N([H])[H])C4([H])[H])C([H])(C([H])([H])C([H])([H])[H])C3([H])[H])[N+]([H])([H])[H])c([H])c([H])c2C1([H])[H]

>  <smiles>  (24) 
[H]c1c([H])c([H])c2c(c1[H])C([H])([H])C([H])([H])C([H])([H])C2([H])N([H])C(=O)C1([H])N(C(=O)C([H])(N([H])C(=O)C([H])(N([H])C([H])([H])[H])C([H])([H])[H])C(C([H])([H])[H])(C([H])([H])[H])C([H])([H])[H])C([H])([H])c2c([H])c(OC([H])([H])C([H])(C([H])([H])[H])C([H])(C3([H])C([H])([H])C([H])(C([H])([H])N([H])C(=O)N4C([H])([H])C([H])([H])C([H])([H])C([H])(n5nc(-c6c([H])c([H])c(Oc7c([H])c([H])c(F)c([H])c7F)c([H])c6[H])c(C(=O)N([H])[H])c5N([H])[H])C4([H])[H])C([H])(C([H])([H])C([H])([H])[H])C3([H])[H])[N+]([H])([H])[H])c([H])c([H])c2C1([H])[H]

$$$$
24:0:0
     RDKit          3D

 94102  0  0  1  0  0  0  0  0999 V2000
  -29.6480  -19.9670   20.8960 N   0  0  0  0  0  4  0  0  0  0  0  0
  -30.5540  -20.3080   20.6180 H   0  0  0  0  0  0  0  0  0  0  0  0
  -29.7000  -19.8300   21.8920 H   0  0  0  0  0  0  0  0  0  0  0  0
  -30.7370  -14.8160   20.7870 C   0  0  0  0  0  0  0  0  0  0  0  0
  -30.6520  -12.4790   19.9340 C   0  0  0  0  0  2  0  0  0  0  0  0
  -29.8150  -12.4120   18.6380 C   0  0  0  0  0  2  0  0  0  0  0  0
  -28.3040  -12.3100   18.9540 C   0  0  0  0  0  2  0  0  0  0  0  0
  -27.8190  -13.2600   20.0840 C   0  0  0  0  0  3  0  0  0  0  0  0
  -28.7920  -13.2700   21.2800 C   0  0  0  0  0  2  0  0  0  0  0  0
  -30.1200  -13.5900   20.7490 N   0  0  0  0  0  0  0  0  0  0  0  0
  -31.9680  -14.8920   20.7780 O   0  0  0  0  0  0  0  0  0  0  0  0
  -29.3950  -17.2400   18.2210 C   0  0  0  0  0  2  0  0  0  0  0  0
  -29.9440  -15.9740   18.8830 C   0  0  0  0  0  2  0  0  0  0  0  0
  -30.0400  -17.2970   21.0380 C   0  0  0  0  0  2  0  0  0  0  0  0
  -29.9860  -18.5170   18.8180 C   0  0  0  0  0  3  0  0  0  0  0  0
  -29.4330  -18.5870   20.2630 C   0  0  0  0  0  3  0  0  0  0  0  0
  -29.9930  -15.9200   20.3680 N   0  0  0  0  0  0  0  0  0  0  0  0
  -25.3810  -13.8520   20.6170 C   0  0  0  0  0  0  0  0  0  0  0  0
  -24.2950  -13.0790   20.9210 C   0  0  0  0  0  0  0  0  0  0  0  0
  -24.7710  -11.7310   20.9650 C   0  0  0  0  0  0  0  0  0  0  0  0
  -26.4460  -12.9750   20.4860 N   0  0  0  0  0  0  0  0  0  0  0  0
  -26.0810  -11.6980   20.7620 N   0  0  0  0  0  0  0  0  0  0  0  0
  -24.0440  -10.4660   21.1280 C   0  0  0  0  0  0  0  0  0  0  0  0
  -24.4230   -9.5130   22.1000 C   0  0  0  0  0  3  0  0  0  0  0  0
  -23.6940   -8.3140   22.2490 C   0  0  0  0  0  3  0  0  0  0  0  0
  -22.5720   -8.0580   21.4260 C   0  0  0  0  0  0  0  0  0  0  0  0
  -22.2140   -8.9990   20.4440 C   0  0  0  0  0  3  0  0  0  0  0  0
  -22.9440  -10.1890   20.2920 C   0  0  0  0  0  3  0  0  0  0  0  0
  -21.8200   -6.9100   21.4840 O   0  0  0  0  0  0  0  0  0  0  0  0
  -21.7200   -6.1720   22.6360 C   0  0  0  0  0  0  0  0  0  0  0  0
  -21.2280   -6.7290   23.8360 C   0  0  0  0  0  3  0  0  0  0  0  0
  -21.0750   -5.9180   24.9780 C   0  0  0  0  0  3  0  0  0  0  0  0
  -21.4060   -4.5510   24.9210 C   0  0  0  0  0  0  0  0  0  0  0  0
  -21.8920   -3.9940   23.7260 C   0  0  0  0  0  3  0  0  0  0  0  0
  -22.0450   -4.8020   22.5850 C   0  0  0  0  0  0  0  0  0  0  0  0
  -22.4940   -4.2550   21.4300 F   0  0  0  0  0  0  0  0  0  0  0  0
  -21.2520   -3.7710   26.0160 F   0  0  0  0  0  0  0  0  0  0  0  0
  -22.8770  -13.5490   21.0710 C   0  0  0  0  0  0  0  0  0  0  0  0
  -22.0880  -12.8660   21.8930 N   0  0  0  0  0  0  0  0  0  0  0  0
  -22.4740  -14.5570   20.4930 O   0  0  0  0  0  0  0  0  0  0  0  0
  -22.4250  -12.0520   22.3840 H   0  0  0  0  0  0  0  0  0  0  0  0
  -21.1350  -13.1670   22.0390 H   0  0  0  0  0  0  0  0  0  0  0  0
  -25.5510  -15.2190   20.4180 N   0  0  0  0  0  0  0  0  0  0  0  0
  -24.7770  -15.8740   20.4380 H   0  0  0  0  0  0  0  0  0  0  0  0
  -26.4320  -15.6530   20.1790 H   0  0  0  0  0  0  0  0  0  0  0  0
  -29.7280  -19.7380   17.8980 C   0  0  0  0  0  2  0  0  0  0  0  0
  -30.0940  -20.9260   15.6950 C   0  0  0  0  0  1  0  0  0  0  0  0
  -32.0860  -20.0590   16.9520 C   0  0  0  0  0  1  0  0  0  0  0  0
  -30.6020  -19.8140   16.6230 C   0  0  0  0  0  3  0  0  0  0  0  0
  -28.6060  -21.0810   20.7040 C   0  0  0  0  0  3  0  0  0  0  0  0
  -29.1180  -22.5810   20.4180 C   0  0  0  0  0  3  0  0  0  0  0  0
  -28.1500  -23.8490   20.6350 C   0  0  0  0  0  2  0  0  0  0  0  0
  -28.4350  -25.1770   19.7820 C   0  0  0  0  0  2  0  0  0  0  0  0
  -28.3040  -26.5470   20.3310 O   0  0  0  0  0  0  0  0  0  0  0  0
  -24.5520  -31.9270   23.2430 C   0  0  0  0  0  0  0  0  0  0  0  0
  -27.1580  -27.3510   20.2240 C   0  0  0  0  0  0  0  0  0  0  0  0
  -23.3440  -30.5260   21.6020 C   0  0  0  0  0  3  0  0  0  0  0  0
  -24.7950  -28.9620   20.1830 C   0  0  0  0  0  0  0  0  0  0  0  0
  -25.8830  -30.8390   21.4220 C   0  0  0  0  0  2  0  0  0  0  0  0
  -25.9580  -29.4560   20.7830 C   0  0  0  0  0  0  0  0  0  0  0  0
  -27.1380  -28.6610   20.7940 C   0  0  0  0  0  3  0  0  0  0  0  0
  -25.9740  -26.9000   19.6020 C   0  0  0  0  0  3  0  0  0  0  0  0
  -24.8060  -27.6920   19.5820 C   0  0  0  0  0  3  0  0  0  0  0  0
  -23.5600  -29.8400   20.2260 C   0  0  0  0  0  2  0  0  0  0  0  0
  -24.6100  -31.1180   22.1440 N   0  0  0  0  0  0  0  0  0  0  0  0
  -23.4690  -32.2090   23.7760 O   0  0  0  0  0  0  0  0  0  0  0  0
  -22.6810  -29.5150   22.5690 C   0  0  0  0  0  0  0  0  0  0  0  0
  -21.3540  -29.3440   22.4460 N   0  0  0  0  0  0  0  0  0  0  0  0
  -23.3600  -28.8880   23.3870 O   0  0  0  0  0  0  0  0  0  0  0  0
  -20.8680  -29.9050   21.7600 H   0  0  0  0  0  0  0  0  0  0  0  0
  -17.9730  -28.1650   22.9510 C   0  0  0  0  0  0  0  0  0  0  0  0
  -20.5320  -28.4110   23.2180 C   0  0  0  0  0  3  0  0  0  0  0  0
  -20.6260  -26.9780   22.6450 C   0  0  0  0  0  2  0  0  0  0  0  0
  -19.5230  -26.6600   21.6320 C   0  0  0  0  0  2  0  0  0  0  0  0
  -18.1410  -26.8130   22.2760 C   0  0  0  0  0  2  0  0  0  0  0  0
  -19.0950  -28.9220   23.3790 C   0  0  0  0  0  0  0  0  0  0  0  0
  -18.8850  -30.1880   23.9690 C   0  0  0  0  0  3  0  0  0  0  0  0
  -17.5840  -30.6970   24.1350 C   0  0  0  0  0  3  0  0  0  0  0  0
  -16.4750  -29.9370   23.7240 C   0  0  0  0  0  3  0  0  0  0  0  0
  -16.6700  -28.6730   23.1390 C   0  0  0  0  0  3  0  0  0  0  0  0
  -25.8370  -32.5570   23.8660 C   0  0  0  0  0  3  0  0  0  0  0  0
  -25.5380  -33.9620   24.1800 N   0  0  0  0  0  0  0  0  0  0  0  0
  -25.8830  -35.0040   23.4120 C   0  0  0  0  0  0  0  0  0  0  0  0
  -26.5590  -34.8850   22.3860 O   0  0  0  0  0  0  0  0  0  0  0  0
  -24.9470  -34.1320   24.9810 H   0  0  0  0  0  0  0  0  0  0  0  0
  -24.1750  -36.8080   23.0250 C   0  0  0  0  0  1  0  0  0  0  0  0
  -25.4030  -36.4000   23.8540 C   0  0  0  0  0  3  0  0  0  0  0  0
  -27.5340  -37.2730   24.7060 C   0  0  0  0  0  1  0  0  0  0  0  0
  -26.4460  -37.4440   23.7460 N   0  0  0  0  0  0  0  0  0  0  0  0
  -26.0450  -38.3670   23.8830 H   0  0  0  0  0  0  0  0  0  0  0  0
  -26.3420  -31.7990   25.1550 C   0  0  1  0  0  0  0  0  0  0  0  0
  -25.2410  -31.5830   26.2210 C   0  0  0  0  0  1  0  0  0  0  0  0
  -26.9180  -30.4130   24.7840 C   0  0  0  0  0  1  0  0  0  0  0  0
  -27.4940  -32.5950   25.8130 C   0  0  0  0  0  1  0  0  0  0  0  0
  1  3  1  0
  2  1  1  0
  5 10  1  0
  6  7  1  0
  6  5  1  0
  8  7  1  0
  8 21  1  0
  8  9  1  0
 10  4  1  0
 10  9  1  0
 11  4  2  0
 12 15  1  0
 12 13  1  0
 13 17  1  0
 15 46  1  0
 15 16  1  0
 16  1  1  0
 16 14  1  0
 17  4  1  0
 17 14  1  0
 18 19  2  0
 19 20  1  0
 19 38  1  0
 20 23  1  0
 21 18  1  0
 21 22  1  0
 22 20  2  0
 23 24  1  0
 24 25  2  0
 26 29  1  0
 26 25  1  0
 27 26  2  0
 28 27  1  0
 28 23  2  0
 29 30  1  0
 30 31  1  0
 31 32  2  0
 33 32  1  0
 33 37  1  0
 34 33  2  0
 35 30  2  0
 35 34  1  0
 36 35  1  0
 38 39  1  0
 39 42  1  0
 39 41  1  0
 40 38  2  0
 43 44  1  0
 43 18  1  0
 45 43  1  0
 47 49  1  0
 49 48  1  0
 49 46  1  0
 50  1  1  0
 51 52  1  0
 51 50  2  0
 53 54  1  0
 53 52  1  0
 55 66  2  0
 56 54  1  0
 56 61  1  0
 57 65  1  0
 57 67  1  0
 58 64  1  0
 58 60  1  0
 59 65  1  0
 60 61  2  0
 60 59  1  0
 62 56  2  0
 63 62  1  0
 63 58  2  0
 64 57  1  0
 65 55  1  0
 67 69  2  0
 68 67  1  0
 70 68  1  0
 71 80  2  0
 71 76  1  0
 72 68  1  0
 72 76  1  0
 73 72  1  0
 74 75  1  0
 74 73  1  0
 75 71  1  0
 76 77  2  0
 77 78  1  0
 79 78  2  0
 80 79  1  0
 81 55  1  0
 81 82  1  0
 81 91  1  0
 82 85  1  0
 83 87  1  0
 83 82  1  0
 84 83  2  0
 87 86  1  0
 89 87  1  0
 89 90  1  0
 89 88  1  0
 91 94  1  1
 91 92  1  0
 93 91  1  0
M  ISO  4   4 100  17 100  53 101  54 101
M  END
>  <TORSDO>  (25) 
F 22

>  <SCORE>  (25) 
-12.867

>  <name>  (25) 
24

>  <ligand_id>  (25) 
24

>  <original_smiles>  (25) 
[H]c1c([H])c([H])c2c(c1[H])C([H])([H])C([H])([H])C([H])([H])C2([H])N([H])C(=O)C1([H])N(C(=O)C([H])(N([H])C(=O)C([H])(N([H])C([H])([H])[H])C([H])([H])[H])C(C([H])([H])[H])(C([H])([H])[H])C([H])([H])[H])C([H])([H])c2c([H])c(OC([H])([H])C([H])([H])C([H])([H])C([H])([H])[N+]([H])([H])C3([H])C([H])([H])N(C(=O)N4C([H])([H])C([H])([H])C([H])([H])C([H])(n5nc(-c6c([H])c([H])c(Oc7c([H])c([H])c(F)c([H])c7F)c([H])c6[H])c(C(=O)N([H])[H])c5N([H])[H])C4([H])[H])C([H])([H])C([H])([H])C3([H])C([H])([H])C([H])(C([H])([H])[H])C([H])([H])[H])c([H])c([H])c2C1([H])[H]

>  <smiles>  (25) 
[H]c1c([H])c([H])c2c(c1[H])C([H])([H])C([H])([H])C([H])([H])C2([H])N([H])C(=O)C1([H])N(C(=O)C([H])(N([H])C(=O)C([H])(N([H])C([H])([H])[H])C([H])([H])[H])C(C([H])([H])[H])(C([H])([H])[H])C([H])([H])[H])C([H])([H])c2c([H])c(OC([H])([H])C([H])([H])C([H])([H])C([H])([H])[N+]([H])([H])C3([H])C([H])([H])N(C(=O)N4C([H])([H])C([H])([H])C([H])([H])C([H])(n5nc(-c6c([H])c([H])c(Oc7c([H])c([H])c(F)c([H])c7F)c([H])c6[H])c(C(=O)N([H])[H])c5N([H])[H])C4([H])[H])C([H])([H])C([H])([H])C3([H])C([H])([H])C([H])(C([H])([H])[H])C([H])([H])[H])c([H])c([H])c2C1([H])[H]

$$$$
25:0:0
     RDKit          3D

 95103  0  0  1  0  0  0  0  0999 V2000
  -29.0990  -20.2310   19.4220 C   0  0  0  0  0  2  0  0  0  0  0  0
  -29.1140  -18.8690   20.1930 C   0  0  0  0  0  2  0  0  0  0  0  0
  -30.8380  -21.1140   21.1250 C   0  0  0  0  0  2  0  0  0  0  0  0
  -29.7110  -21.4980   20.1190 C   0  0  0  0  0  3  0  0  0  0  0  0
  -30.4860  -18.5360   20.8280 C   0  0  0  0  0  3  0  0  0  0  0  0
  -30.7620  -19.7160   21.8340 C   0  0  0  0  0  3  0  0  0  0  0  0
  -28.7160  -22.6340   20.5650 C   0  0  0  0  0  0  0  0  0  0  0  0
  -27.5950  -22.3350   20.9820 O   0  0  0  0  0  0  0  0  0  0  0  0
  -29.1470  -24.1480   20.4770 C   0  0  0  0  0  3  0  0  0  0  0  0
  -28.0040  -25.1870   20.1350 C   0  0  0  0  0  3  0  0  0  0  0  0
  -28.2880  -26.6390   20.1460 O   0  0  0  0  0  0  0  0  0  0  0  0
  -24.5600  -31.9420   23.2550 C   0  0  0  0  0  0  0  0  0  0  0  0
  -27.1740  -27.4870   20.0900 C   0  0  0  0  0  0  0  0  0  0  0  0
  -23.3540  -30.5740   21.5910 C   0  0  0  0  0  3  0  0  0  0  0  0
  -24.8030  -29.0750   20.1180 C   0  0  0  0  0  0  0  0  0  0  0  0
  -25.8880  -30.9200   21.3970 C   0  0  0  0  0  2  0  0  0  0  0  0
  -25.9710  -29.5620   20.7180 C   0  0  0  0  0  0  0  0  0  0  0  0
  -27.1620  -28.7790   20.6950 C   0  0  0  0  0  3  0  0  0  0  0  0
  -25.9840  -27.0590   19.4530 C   0  0  0  0  0  3  0  0  0  0  0  0
  -24.8110  -27.8290   19.4760 C   0  0  0  0  0  3  0  0  0  0  0  0
  -23.5610  -29.9360   20.1940 C   0  0  0  0  0  2  0  0  0  0  0  0
  -24.6200  -31.1620   22.1380 N   0  0  0  0  0  0  0  0  0  0  0  0
  -23.4800  -32.1980   23.8050 O   0  0  0  0  0  0  0  0  0  0  0  0
  -22.7070  -29.5290   22.5310 C   0  0  0  0  0  0  0  0  0  0  0  0
  -21.3870  -29.3240   22.3910 N   0  0  0  0  0  0  0  0  0  0  0  0
  -23.3940  -28.9060   23.3460 O   0  0  0  0  0  0  0  0  0  0  0  0
  -20.8910  -29.8830   21.7100 H   0  0  0  0  0  0  0  0  0  0  0  0
  -18.0370  -28.0310   22.8260 C   0  0  0  0  0  0  0  0  0  0  0  0
  -20.5820  -28.3600   23.1450 C   0  0  0  0  0  3  0  0  0  0  0  0
  -20.7330  -26.9340   22.5690 C   0  0  0  0  0  2  0  0  0  0  0  0
  -19.6620  -26.5840   21.5310 C   0  0  0  0  0  2  0  0  0  0  0  0
  -18.2640  -26.6900   22.1480 C   0  0  0  0  0  2  0  0  0  0  0  0
  -19.1250  -28.8230   23.2800 C   0  0  0  0  0  0  0  0  0  0  0  0
  -18.8600  -30.0780   23.8710 C   0  0  0  0  0  3  0  0  0  0  0  0
  -17.5390  -30.5410   24.0120 C   0  0  0  0  0  3  0  0  0  0  0  0
  -16.4640  -29.7470   23.5750 C   0  0  0  0  0  3  0  0  0  0  0  0
  -16.7140  -28.4930   22.9880 C   0  0  0  0  0  3  0  0  0  0  0  0
  -25.8450  -32.5670   23.8820 C   0  0  0  0  0  3  0  0  0  0  0  0
  -25.5420  -33.9670   24.2090 N   0  0  0  0  0  0  0  0  0  0  0  0
  -25.8800  -35.0180   23.4500 C   0  0  0  0  0  0  0  0  0  0  0  0
  -26.5510  -34.9100   22.4200 O   0  0  0  0  0  0  0  0  0  0  0  0
  -24.9490  -34.1250   25.0110 H   0  0  0  0  0  0  0  0  0  0  0  0
  -24.1700  -36.8250   23.0810 C   0  0  0  0  0  1  0  0  0  0  0  0
  -25.3980  -36.4090   23.9060 C   0  0  0  0  0  3  0  0  0  0  0  0
  -27.5260  -37.2780   24.7700 C   0  0  0  0  0  1  0  0  0  0  0  0
  -26.4400  -37.4540   23.8090 N   0  0  0  0  0  0  0  0  0  0  0  0
  -26.0380  -38.3780   23.9480 H   0  0  0  0  0  0  0  0  0  0  0  0
  -26.3540  -31.7940   25.1600 C   0  0  1  0  0  0  0  0  0  0  0  0
  -25.2550  -31.5610   26.2240 C   0  0  0  0  0  1  0  0  0  0  0  0
  -26.9320  -30.4140   24.7710 C   0  0  0  0  0  1  0  0  0  0  0  0
  -27.5060  -32.5830   25.8260 C   0  0  0  0  0  1  0  0  0  0  0  0
  -30.6360  -17.0890   21.4850 C   0  0  0  0  0  2  0  0  0  0  0  0
  -30.9330  -14.7700   20.4210 C   0  0  0  0  0  0  0  0  0  0  0  0
  -30.7270  -12.5130   19.3880 C   0  0  0  0  0  2  0  0  0  0  0  0
  -29.8100  -12.5780   18.1480 C   0  0  0  0  0  2  0  0  0  0  0  0
  -28.3270  -12.4280   18.5500 C   0  0  0  0  0  2  0  0  0  0  0  0
  -27.9340  -13.3530   19.7340 C   0  0  0  0  0  3  0  0  0  0  0  0
  -28.9630  -13.2530   20.8790 C   0  0  0  0  0  2  0  0  0  0  0  0
  -30.2840  -13.5690   20.3160 N   0  0  0  0  0  0  0  0  0  0  0  0
  -32.1090  -14.9050   20.0770 O   0  0  0  0  0  0  0  0  0  0  0  0
  -30.1790  -15.8390   20.8050 N   0  0  0  0  0  0  0  0  0  0  0  0
  -29.1970  -15.6360   20.9040 H   0  0  0  0  0  0  0  0  0  0  0  0
  -25.5310  -13.9880   20.3930 C   0  0  0  0  0  0  0  0  0  0  0  0
  -24.4510  -13.2290   20.7550 C   0  0  0  0  0  0  0  0  0  0  0  0
  -24.9040  -11.8740   20.7630 C   0  0  0  0  0  0  0  0  0  0  0  0
  -26.5740  -13.0950   20.1990 N   0  0  0  0  0  0  0  0  0  0  0  0
  -26.2000  -11.8210   20.4820 N   0  0  0  0  0  0  0  0  0  0  0  0
  -24.1680  -10.6200   20.9590 C   0  0  0  0  0  0  0  0  0  0  0  0
  -24.5640   -9.6770   21.9340 C   0  0  0  0  0  3  0  0  0  0  0  0
  -23.8310   -8.4860   22.1190 C   0  0  0  0  0  3  0  0  0  0  0  0
  -22.6850   -8.2290   21.3310 C   0  0  0  0  0  0  0  0  0  0  0  0
  -22.3060   -9.1610   20.3480 C   0  0  0  0  0  3  0  0  0  0  0  0
  -23.0400  -10.3440   20.1600 C   0  0  0  0  0  3  0  0  0  0  0  0
  -21.9210   -7.0900   21.4250 O   0  0  0  0  0  0  0  0  0  0  0  0
  -21.8100   -6.3930   22.6020 C   0  0  0  0  0  0  0  0  0  0  0  0
  -21.2840   -6.9860   23.7710 C   0  0  0  0  0  3  0  0  0  0  0  0
  -21.1210   -6.2130   24.9370 C   0  0  0  0  0  3  0  0  0  0  0  0
  -21.4750   -4.8510   24.9350 C   0  0  0  0  0  0  0  0  0  0  0  0
  -21.9920   -4.2580   23.7700 C   0  0  0  0  0  3  0  0  0  0  0  0
  -22.1570   -5.0260   22.6050 C   0  0  0  0  0  0  0  0  0  0  0  0
  -22.6370   -4.4460   21.4780 F   0  0  0  0  0  0  0  0  0  0  0  0
  -21.3110   -4.1070   26.0550 F   0  0  0  0  0  0  0  0  0  0  0  0
  -23.0500  -13.7180   20.9870 C   0  0  0  0  0  0  0  0  0  0  0  0
  -22.2990  -13.0480   21.8540 N   0  0  0  0  0  0  0  0  0  0  0  0
  -22.6280  -14.7310   20.4320 O   0  0  0  0  0  0  0  0  0  0  0  0
  -22.6500  -12.2310   22.3310 H   0  0  0  0  0  0  0  0  0  0  0  0
  -21.3580  -13.3600   22.0470 H   0  0  0  0  0  0  0  0  0  0  0  0
  -25.7090  -15.3550   20.1920 N   0  0  0  0  0  0  0  0  0  0  0  0
  -24.9510  -16.0210   20.2870 H   0  0  0  0  0  0  0  0  0  0  0  0
  -26.5680  -15.7840   19.8750 H   0  0  0  0  0  0  0  0  0  0  0  0
  -32.0350  -19.4940   22.7060 C   0  0  0  0  0  2  0  0  0  0  0  0
  -32.2330  -20.5320   23.7340 N   0  0  0  0  0  4  0  0  0  0  0  0
  -32.3510  -21.4400   23.3260 H   0  0  0  0  0  0  0  0  0  0  0  0
  -33.0600  -20.3210   24.2660 H   0  0  0  0  0  0  0  0  0  0  0  0
  -31.4560  -20.5560   24.3720 H   0  0  0  0  0  0  0  0  0  0  0  0
  1  4  1  0
  1  2  1  0
  2  5  1  0
  3  6  1  0
  4  7  1  0
  4  3  1  0
  5 52  1  0
  5  6  1  0
  6 91  1  0
  7  8  2  0
  9  7  1  0
 10 11  1  0
 10  9  2  0
 12 23  2  0
 13 11  1  0
 13 18  1  0
 14 22  1  0
 14 24  1  0
 15 21  1  0
 15 17  1  0
 16 22  1  0
 17 16  1  0
 18 17  2  0
 19 20  1  0
 19 13  2  0
 20 15  2  0
 21 14  1  0
 22 12  1  0
 24 26  2  0
 25 24  1  0
 27 25  1  0
 28 37  2  0
 28 33  1  0
 29 25  1  0
 29 33  1  0
 30 29  1  0
 31 32  1  0
 31 30  1  0
 32 28  1  0
 33 34  2  0
 34 35  1  0
 36 35  2  0
 37 36  1  0
 38 12  1  0
 38 39  1  0
 38 48  1  0
 39 42  1  0
 40 44  1  0
 40 39  1  0
 41 40  2  0
 44 43  1  0
 46 44  1  0
 46 47  1  0
 46 45  1  0
 48 51  1  1
 48 49  1  0
 50 48  1  0
 53 61  1  0
 54 59  1  0
 55 56  1  0
 55 54  1  0
 57 56  1  0
 57 66  1  0
 57 58  1  0
 59 53  1  0
 59 58  1  0
 60 53  2  0
 61 62  1  0
 61 52  1  0
 63 64  2  0
 64 65  1  0
 64 83  1  0
 65 68  1  0
 66 63  1  0
 66 67  1  0
 67 65  2  0
 68 69  1  0
 69 70  2  0
 71 74  1  0
 71 70  1  0
 72 71  2  0
 73 72  1  0
 73 68  2  0
 74 75  1  0
 75 80  2  0
 75 76  1  0
 76 77  2  0
 78 77  1  0
 78 82  1  0
 79 78  2  0
 80 79  1  0
 81 80  1  0
 83 84  1  0
 84 87  1  0
 84 86  1  0
 85 83  2  0
 88 89  1  0
 88 63  1  0
 90 88  1  0
 91 92  1  0
 92 94  1  0
 92 95  1  0
 93 92  1  0
M  ISO  4  10 101  11 101  53 100  61 100
M  END
>  <TORSDO>  (26) 
F 22

>  <SCORE>  (26) 
-13.531

>  <name>  (26) 
25

>  <ligand_id>  (26) 
25

>  <original_smiles>  (26) 
[H]c1c([H])c([H])c2c(c1[H])C([H])([H])C([H])([H])C([H])([H])C2([H])N([H])C(=O)C1([H])N(C(=O)C([H])(N([H])C(=O)C([H])(N([H])C([H])([H])[H])C([H])([H])[H])C(C([H])([H])[H])(C([H])([H])[H])C([H])([H])[H])C([H])([H])c2c([H])c(OC([H])([H])C([H])([H])C(=O)C3([H])C([H])([H])C([H])([H])C([H])(C([H])([H])N([H])C(=O)N4C([H])([H])C([H])([H])C([H])([H])C([H])(n5nc(-c6c([H])c([H])c(Oc7c([H])c([H])c(F)c([H])c7F)c([H])c6[H])c(C(=O)N([H])[H])c5N([H])[H])C4([H])[H])C([H])(C([H])([H])[N+]([H])([H])[H])C3([H])[H])c([H])c([H])c2C1([H])[H]

>  <smiles>  (26) 
[H]c1c([H])c([H])c2c(c1[H])C([H])([H])C([H])([H])C([H])([H])C2([H])N([H])C(=O)C1([H])N(C(=O)C([H])(N([H])C(=O)C([H])(N([H])C([H])([H])[H])C([H])([H])[H])C(C([H])([H])[H])(C([H])([H])[H])C([H])([H])[H])C([H])([H])c2c([H])c(OC([H])([H])C([H])([H])C(=O)C3([H])C([H])([H])C([H])([H])C([H])(C([H])([H])N([H])C(=O)N4C([H])([H])C([H])([H])C([H])([H])C([H])(n5nc(-c6c([H])c([H])c(Oc7c([H])c([H])c(F)c([H])c7F)c([H])c6[H])c(C(=O)N([H])[H])c5N([H])[H])C4([H])[H])C([H])(C([H])([H])[N+]([H])([H])[H])C3([H])[H])c([H])c([H])c2C1([H])[H]

$$$$
26:0:0
     RDKit          3D

 90 97  0  0  1  0  0  0  0  0999 V2000
  -29.1270  -21.8810   19.8340 C   0  0  0  0  0  3  0  0  0  0  0  0
  -30.5030  -21.8630   19.3070 N   0  0  0  0  0  4  0  0  0  0  0  0
  -31.1690  -21.7790   20.0540 H   0  0  0  0  0  0  0  0  0  0  0  0
  -30.6970  -22.7020   18.7900 H   0  0  0  0  0  0  0  0  0  0  0  0
  -30.6190  -21.0840   18.6820 H   0  0  0  0  0  0  0  0  0  0  0  0
  -28.8040  -20.3330   20.4250 C   0  0  0  0  0  0  0  0  0  0  0  0
  -27.6370  -20.0970   20.7510 O   0  0  0  0  0  0  0  0  0  0  0  0
  -29.8300  -19.0460   20.6300 C   0  0  0  0  0  2  0  0  0  0  0  0
  -29.7800  -17.5540   19.8510 C   0  0  0  0  0  2  0  0  0  0  0  0
  -30.5700  -14.9430   20.2240 C   0  0  0  0  0  0  0  0  0  0  0  0
  -30.4340  -12.5990   19.2930 C   0  0  0  0  0  2  0  0  0  0  0  0
  -29.4980  -12.5990   18.0600 C   0  0  0  0  0  2  0  0  0  0  0  0
  -28.0380  -12.3870   18.4980 C   0  0  0  0  0  2  0  0  0  0  0  0
  -27.6420  -13.3080   19.6810 C   0  0  0  0  0  3  0  0  0  0  0  0
  -28.6990  -13.2890   20.8090 C   0  0  0  0  0  2  0  0  0  0  0  0
  -29.9830  -13.6830   20.2130 N   0  0  0  0  0  0  0  0  0  0  0  0
  -31.7360  -15.0370   19.8270 O   0  0  0  0  0  0  0  0  0  0  0  0
  -29.7910  -16.1020   20.4740 N   0  0  0  0  0  0  0  0  0  0  0  0
  -28.9090  -15.8630   20.9010 H   0  0  0  0  0  0  0  0  0  0  0  0
  -25.2570  -13.8910   20.4090 C   0  0  0  0  0  0  0  0  0  0  0  0
  -24.1960  -13.1180   20.7900 C   0  0  0  0  0  0  0  0  0  0  0  0
  -24.6640  -11.7670   20.7750 C   0  0  0  0  0  0  0  0  0  0  0  0
  -26.3030  -13.0140   20.1790 N   0  0  0  0  0  0  0  0  0  0  0  0
  -25.9540  -11.7320   20.4630 N   0  0  0  0  0  0  0  0  0  0  0  0
  -23.9420  -10.5050   20.9770 C   0  0  0  0  0  0  0  0  0  0  0  0
  -24.3760   -9.5460   21.9180 C   0  0  0  0  0  3  0  0  0  0  0  0
  -23.6510   -8.3490   22.1090 C   0  0  0  0  0  3  0  0  0  0  0  0
  -22.4770   -8.1040   21.3580 C   0  0  0  0  0  0  0  0  0  0  0  0
  -22.0620   -9.0510   20.4040 C   0  0  0  0  0  3  0  0  0  0  0  0
  -22.7880  -10.2380   20.2120 C   0  0  0  0  0  3  0  0  0  0  0  0
  -21.7230   -6.9610   21.4600 O   0  0  0  0  0  0  0  0  0  0  0  0
  -21.6790   -6.2270   22.6190 C   0  0  0  0  0  0  0  0  0  0  0  0
  -21.2530   -6.7890   23.8420 C   0  0  0  0  0  3  0  0  0  0  0  0
  -21.1580   -5.9810   24.9930 C   0  0  0  0  0  3  0  0  0  0  0  0
  -21.4790   -4.6120   24.9220 C   0  0  0  0  0  0  0  0  0  0  0  0
  -21.8970   -4.0500   23.7030 C   0  0  0  0  0  3  0  0  0  0  0  0
  -21.9950   -4.8550   22.5560 C   0  0  0  0  0  0  0  0  0  0  0  0
  -22.3800   -4.3020   21.3790 F   0  0  0  0  0  0  0  0  0  0  0  0
  -21.3790   -3.8340   26.0250 F   0  0  0  0  0  0  0  0  0  0  0  0
  -22.7970  -13.5920   21.0570 C   0  0  0  0  0  0  0  0  0  0  0  0
  -22.0690  -12.9030   21.9290 N   0  0  0  0  0  0  0  0  0  0  0  0
  -22.3570  -14.6120   20.5270 O   0  0  0  0  0  0  0  0  0  0  0  0
  -22.4340  -12.0770   22.3800 H   0  0  0  0  0  0  0  0  0  0  0  0
  -21.1310  -13.2060   22.1490 H   0  0  0  0  0  0  0  0  0  0  0  0
  -25.4160  -15.2610   20.2150 N   0  0  0  0  0  0  0  0  0  0  0  0
  -24.6450  -15.9130   20.3150 H   0  0  0  0  0  0  0  0  0  0  0  0
  -26.2560  -15.6970   19.8570 H   0  0  0  0  0  0  0  0  0  0  0  0
  -28.7810  -23.3440   20.6060 C   0  0  0  0  0  2  0  0  0  0  0  0
  -28.1250  -24.7120   19.8750 C   0  0  0  0  0  2  0  0  0  0  0  0
  -28.2480  -26.2040   20.3000 O   0  0  0  0  0  0  0  0  0  0  0  0
  -24.6100  -31.8750   23.2260 C   0  0  0  0  0  0  0  0  0  0  0  0
  -27.1880  -27.1740   20.1900 C   0  0  0  0  0  0  0  0  0  0  0  0
  -23.4100  -30.4820   21.5820 C   0  0  0  0  0  3  0  0  0  0  0  0
  -24.8580  -28.9130   20.1530 C   0  0  0  0  0  0  0  0  0  0  0  0
  -25.9630  -30.7480   21.4230 C   0  0  0  0  0  2  0  0  0  0  0  0
  -26.0340  -29.3590   20.7690 C   0  0  0  0  0  0  0  0  0  0  0  0
  -27.1970  -28.5020   20.7740 C   0  0  0  0  0  3  0  0  0  0  0  0
  -25.9910  -26.8380   19.5170 C   0  0  0  0  0  3  0  0  0  0  0  0
  -24.8480  -27.6650   19.5150 C   0  0  0  0  0  3  0  0  0  0  0  0
  -23.6330  -29.8120   20.2010 C   0  0  0  0  0  2  0  0  0  0  0  0
  -24.6800  -31.0570   22.1320 N   0  0  0  0  0  0  0  0  0  0  0  0
  -23.5230  -32.1580   23.7520 O   0  0  0  0  0  0  0  0  0  0  0  0
  -22.7320  -29.4700   22.5400 C   0  0  0  0  0  0  0  0  0  0  0  0
  -21.4030  -29.3030   22.4160 N   0  0  0  0  0  0  0  0  0  0  0  0
  -23.4020  -28.8400   23.3620 O   0  0  0  0  0  0  0  0  0  0  0  0
  -20.9170  -29.8670   21.7320 H   0  0  0  0  0  0  0  0  0  0  0  0
  -18.0190  -28.1130   22.9180 C   0  0  0  0  0  0  0  0  0  0  0  0
  -20.5780  -28.3660   23.1850 C   0  0  0  0  0  3  0  0  0  0  0  0
  -20.6750  -26.9350   22.6080 C   0  0  0  0  0  2  0  0  0  0  0  0
  -19.5710  -26.6180   21.5930 C   0  0  0  0  0  2  0  0  0  0  0  0
  -18.1910  -26.7650   22.2370 C   0  0  0  0  0  2  0  0  0  0  0  0
  -19.1400  -28.8710   23.3470 C   0  0  0  0  0  0  0  0  0  0  0  0
  -18.9230  -30.1310   23.9440 C   0  0  0  0  0  3  0  0  0  0  0  0
  -17.6190  -30.6360   24.1130 C   0  0  0  0  0  3  0  0  0  0  0  0
  -16.5130  -29.8750   23.6950 C   0  0  0  0  0  3  0  0  0  0  0  0
  -16.7140  -28.6130   23.1060 C   0  0  0  0  0  3  0  0  0  0  0  0
  -25.8880  -32.5060   23.8560 C   0  0  0  0  0  3  0  0  0  0  0  0
  -26.3930  -31.7400   25.1400 C   0  0  1  0  0  0  0  0  0  0  0  0
  -25.2920  -31.5130   26.2040 C   0  0  0  0  0  1  0  0  0  0  0  0
  -26.9720  -30.3570   24.7610 C   0  0  0  0  0  1  0  0  0  0  0  0
  -27.5410  -32.5330   25.8060 C   0  0  0  0  0  1  0  0  0  0  0  0
  -25.5790  -33.9070   24.1860 N   0  0  0  0  0  0  0  0  0  0  0  0
  -25.9070  -34.9610   23.4280 C   0  0  0  0  0  0  0  0  0  0  0  0
  -26.5710  -34.8590   22.3930 O   0  0  0  0  0  0  0  0  0  0  0  0
  -24.9970  -34.0600   24.9960 H   0  0  0  0  0  0  0  0  0  0  0  0
  -24.1770  -36.7570   23.0890 C   0  0  0  0  0  1  0  0  0  0  0  0
  -25.4240  -36.3510   23.8900 C   0  0  0  0  0  3  0  0  0  0  0  0
  -27.5650  -37.2350   24.7070 C   0  0  0  0  0  1  0  0  0  0  0  0
  -26.4570  -37.4040   23.7700 N   0  0  0  0  0  0  0  0  0  0  0  0
  -26.0520  -38.3240   23.9190 H   0  0  0  0  0  0  0  0  0  0  0  0
  1  6  1  0
  1 48  1  0
  2  1  1  0
  2  3  1  0
  4  2  1  0
  5  2  1  0
  6  8  1  0
  6  7  2  0
  9 18  1  0
  9  8  1  0
 10 18  1  0
 11 16  1  0
 12 13  1  0
 12 11  1  0
 14 13  1  0
 14 23  1  0
 14 15  1  0
 16 10  1  0
 16 15  1  0
 17 10  2  0
 18 19  1  0
 20 21  2  0
 21 40  1  0
 22 21  1  0
 22 25  1  0
 23 20  1  0
 23 24  1  0
 24 22  2  0
 25 26  1  0
 26 27  2  0
 28 31  1  0
 28 27  1  0
 29 28  2  0
 30 29  1  0
 30 25  2  0
 31 32  1  0
 32 33  1  0
 33 34  2  0
 35 34  1  0
 35 39  1  0
 36 35  2  0
 37 32  2  0
 37 36  1  0
 38 37  1  0
 40 41  1  0
 41 44  1  0
 41 43  1  0
 42 40  2  0
 45 46  1  0
 45 20  1  0
 47 45  1  0
 49 50  1  0
 49 48  1  0
 51 62  2  0
 52 50  1  0
 52 57  1  0
 53 61  1  0
 53 63  1  0
 54 60  1  0
 54 56  1  0
 55 61  1  0
 56 57  2  0
 56 55  1  0
 58 52  2  0
 59 58  1  0
 59 54  2  0
 60 53  1  0
 61 51  1  0
 63 65  2  0
 64 63  1  0
 66 64  1  0
 67 76  2  0
 67 72  1  0
 68 64  1  0
 68 72  1  0
 69 68  1  0
 70 71  1  0
 70 69  1  0
 71 67  1  0
 72 73  2  0
 73 74  1  0
 75 74  2  0
 76 75  1  0
 77 51  1  0
 77 82  1  0
 77 78  1  0
 78 81  1  1
 78 79  1  0
 80 78  1  0
 82 85  1  0
 83 87  1  0
 83 82  1  0
 84 83  2  0
 87 86  1  0
 89 87  1  0
 89 90  1  0
 89 88  1  0
M  ISO  4  10 100  18 100  49 101  50 101
M  END
>  <TORSDO>  (27) 
F 22

>  <SCORE>  (27) 
-12.908

>  <name>  (27) 
26

>  <ligand_id>  (27) 
26

>  <original_smiles>  (27) 
[H]c1c([H])c([H])c2c(c1[H])C([H])([H])C([H])([H])C([H])([H])C2([H])N([H])C(=O)C1([H])N(C(=O)C([H])(N([H])C(=O)C([H])(N([H])C([H])([H])[H])C([H])([H])[H])C(C([H])([H])[H])(C([H])([H])[H])C([H])([H])[H])C([H])([H])c2c([H])c(OC([H])([H])C([H])([H])C([H])(C(=O)C([H])([H])C([H])([H])N([H])C(=O)N3C([H])([H])C([H])([H])C([H])([H])C([H])(n4nc(-c5c([H])c([H])c(Oc6c([H])c([H])c(F)c([H])c6F)c([H])c5[H])c(C(=O)N([H])[H])c4N([H])[H])C3([H])[H])[N+]([H])([H])[H])c([H])c([H])c2C1([H])[H]

>  <smiles>  (27) 
[H]c1c([H])c([H])c2c(c1[H])C([H])([H])C([H])([H])C([H])([H])C2([H])N([H])C(=O)C1([H])N(C(=O)C([H])(N([H])C(=O)C([H])(N([H])C([H])([H])[H])C([H])([H])[H])C(C([H])([H])[H])(C([H])([H])[H])C([H])([H])[H])C([H])([H])c2c([H])c(OC([H])([H])C([H])([H])C([H])(C(=O)C([H])([H])C([H])([H])N([H])C(=O)N3C([H])([H])C([H])([H])C([H])([H])C([H])(n4nc(-c5c([H])c([H])c(Oc6c([H])c([H])c(F)c([H])c6F)c([H])c5[H])c(C(=O)N([H])[H])c4N([H])[H])C3([H])[H])[N+]([H])([H])[H])c([H])c([H])c2C1([H])[H]

$$$$
27:0:0
     RDKit          3D

 93101  0  0  1  0  0  0  0  0999 V2000
  -29.0170  -19.0950   18.9370 C   0  0  0  0  0  2  0  0  0  0  0  0
  -29.0220  -20.6410   18.7190 C   0  0  0  0  0  2  0  0  0  0  0  0
  -29.6210  -18.7690   20.3320 C   0  0  0  0  0  3  0  0  0  0  0  0
  -30.0790  -20.2460   20.7630 C   0  0  0  0  0  3  0  0  0  0  0  0
  -29.1990  -21.2670   20.0440 N   0  0  1  0  0  4  0  0  0  0  0  0
  -28.2940  -21.2080   20.4890 H   0  0  0  0  0  0  0  0  0  0  0  0
  -31.0540  -15.0740   20.0870 C   0  0  0  0  0  0  0  0  0  0  0  0
  -30.7940  -12.8310   19.0150 C   0  0  0  0  0  2  0  0  0  0  0  0
  -29.8350  -12.9540   17.8110 C   0  0  0  0  0  2  0  0  0  0  0  0
  -28.3720  -12.7820   18.2650 C   0  0  0  0  0  2  0  0  0  0  0  0
  -28.0310  -13.6300   19.5210 C   0  0  0  0  0  3  0  0  0  0  0  0
  -29.1140  -13.5080   20.6150 C   0  0  0  0  0  2  0  0  0  0  0  0
  -30.3990  -13.8650   20.0000 N   0  0  0  0  0  0  0  0  0  0  0  0
  -32.2440  -15.1230   19.7580 O   0  0  0  0  0  0  0  0  0  0  0  0
  -30.6800  -17.5630   20.2790 C   0  0  0  0  0  0  0  0  0  0  0  0
  -30.2990  -16.2220   20.3150 N   0  0  0  0  0  0  0  0  0  0  0  0
  -31.8630  -17.9000   20.1740 O   0  0  0  0  0  0  0  0  0  0  0  0
  -29.3190  -16.0580   20.4650 H   0  0  0  0  0  0  0  0  0  0  0  0
  -25.6490  -14.2000   20.2830 C   0  0  0  0  0  0  0  0  0  0  0  0
  -24.5960  -13.4180   20.6700 C   0  0  0  0  0  0  0  0  0  0  0  0
  -25.0710  -12.0710   20.6350 C   0  0  0  0  0  0  0  0  0  0  0  0
  -26.6970  -13.3300   20.0320 N   0  0  0  0  0  0  0  0  0  0  0  0
  -26.3580  -12.0430   20.3070 N   0  0  0  0  0  0  0  0  0  0  0  0
  -24.3580  -10.8020   20.8360 C   0  0  0  0  0  0  0  0  0  0  0  0
  -24.7540   -9.8800   21.8310 C   0  0  0  0  0  3  0  0  0  0  0  0
  -24.0390   -8.6780   22.0160 C   0  0  0  0  0  3  0  0  0  0  0  0
  -22.9150   -8.3880   21.2080 C   0  0  0  0  0  0  0  0  0  0  0  0
  -22.5380   -9.2980   20.2060 C   0  0  0  0  0  3  0  0  0  0  0  0
  -23.2540  -10.4920   20.0180 C   0  0  0  0  0  3  0  0  0  0  0  0
  -22.1760   -7.2330   21.3020 O   0  0  0  0  0  0  0  0  0  0  0  0
  -21.9910   -6.5910   22.5000 C   0  0  0  0  0  0  0  0  0  0  0  0
  -21.4010   -7.2360   23.6080 C   0  0  0  0  0  3  0  0  0  0  0  0
  -21.1660   -6.5190   24.7980 C   0  0  0  0  0  3  0  0  0  0  0  0
  -21.5110   -5.1560   24.8790 C   0  0  0  0  0  0  0  0  0  0  0  0
  -22.0930   -4.5100   23.7750 C   0  0  0  0  0  3  0  0  0  0  0  0
  -22.3290   -5.2250   22.5870 C   0  0  0  0  0  0  0  0  0  0  0  0
  -22.8710   -4.5920   21.5190 F   0  0  0  0  0  0  0  0  0  0  0  0
  -21.2780   -4.4650   26.0190 F   0  0  0  0  0  0  0  0  0  0  0  0
  -23.1990  -13.8840   20.9590 C   0  0  0  0  0  0  0  0  0  0  0  0
  -22.5060  -13.2160   21.8750 N   0  0  0  0  0  0  0  0  0  0  0  0
  -22.7290  -14.8780   20.4050 O   0  0  0  0  0  0  0  0  0  0  0  0
  -22.8990  -12.4140   22.3440 H   0  0  0  0  0  0  0  0  0  0  0  0
  -21.5700  -13.5130   22.1100 H   0  0  0  0  0  0  0  0  0  0  0  0
  -25.7970  -15.5720   20.0960 N   0  0  0  0  0  0  0  0  0  0  0  0
  -25.0130  -16.2080   20.1980 H   0  0  0  0  0  0  0  0  0  0  0  0
  -26.6090  -16.0110   19.6880 H   0  0  0  0  0  0  0  0  0  0  0  0
  -30.1070  -20.4670   22.2960 C   0  0  0  0  0  2  0  0  0  0  0  0
  -31.3290  -20.1180   24.5080 C   0  0  0  0  0  1  0  0  0  0  0  0
  -31.2360  -19.7230   23.0300 C   0  0  0  0  0  2  0  0  0  0  0  0
  -29.5730  -22.7700   20.0830 C   0  0  0  0  0  2  0  0  0  0  0  0
  -28.6370  -23.9120   19.4040 C   0  0  0  0  0  2  0  0  0  0  0  0
  -28.5700  -25.3760   20.0970 C   0  0  0  0  0  2  0  0  0  0  0  0
  -28.4510  -26.6700   19.3580 O   0  0  0  0  0  0  0  0  0  0  0  0
  -24.6370  -31.6940   22.9680 C   0  0  0  0  0  0  0  0  0  0  0  0
  -27.3000  -27.4650   19.4950 C   0  0  0  0  0  0  0  0  0  0  0  0
  -23.4270  -30.3770   21.2660 C   0  0  0  0  0  3  0  0  0  0  0  0
  -24.8810  -28.9870   19.6810 C   0  0  0  0  0  0  0  0  0  0  0  0
  -25.9450  -30.8070   21.0190 C   0  0  0  0  0  2  0  0  0  0  0  0
  -26.0530  -29.4790   20.2700 C   0  0  0  0  0  0  0  0  0  0  0  0
  -27.2680  -28.7340   20.1600 C   0  0  0  0  0  3  0  0  0  0  0  0
  -26.1040  -27.0230   18.8970 C   0  0  0  0  0  3  0  0  0  0  0  0
  -24.9080  -27.7660   18.9850 C   0  0  0  0  0  3  0  0  0  0  0  0
  -23.6170  -29.8110   19.8340 C   0  0  0  0  0  2  0  0  0  0  0  0
  -24.6910  -30.9740   21.8090 N   0  0  0  0  0  0  0  0  0  0  0  0
  -23.5650  -31.8860   23.5600 O   0  0  0  0  0  0  0  0  0  0  0  0
  -22.8370  -29.2670   22.1690 C   0  0  0  0  0  0  0  0  0  0  0  0
  -21.5080  -29.0740   22.1040 N   0  0  0  0  0  0  0  0  0  0  0  0
  -23.5720  -28.5840   22.8870 O   0  0  0  0  0  0  0  0  0  0  0  0
  -20.9720  -29.6800   21.4980 H   0  0  0  0  0  0  0  0  0  0  0  0
  -18.1850  -27.7680   22.6860 C   0  0  0  0  0  0  0  0  0  0  0  0
  -20.7510  -28.0540   22.8310 C   0  0  0  0  0  3  0  0  0  0  0  0
  -20.8410  -26.6830   22.1220 C   0  0  0  0  0  2  0  0  0  0  0  0
  -19.6870  -26.4300   21.1480 C   0  0  0  0  0  2  0  0  0  0  0  0
  -18.3430  -26.4890   21.8800 C   0  0  0  0  0  2  0  0  0  0  0  0
  -19.3150  -28.5110   23.1190 C   0  0  0  0  0  0  0  0  0  0  0  0
  -19.1110  -29.7100   23.8360 C   0  0  0  0  0  3  0  0  0  0  0  0
  -17.8110  -30.1670   24.1210 C   0  0  0  0  0  3  0  0  0  0  0  0
  -16.6960  -29.4200   23.7030 C   0  0  0  0  0  3  0  0  0  0  0  0
  -16.8850  -28.2210   22.9910 C   0  0  0  0  0  3  0  0  0  0  0  0
  -25.9180  -32.3280   23.5960 C   0  0  0  0  0  3  0  0  0  0  0  0
  -25.5690  -33.6840   24.0440 N   0  0  0  0  0  0  0  0  0  0  0  0
  -25.8730  -34.8070   23.3790 C   0  0  0  0  0  0  0  0  0  0  0  0
  -26.5440  -34.8110   22.3440 O   0  0  0  0  0  0  0  0  0  0  0  0
  -24.9730  -33.7540   24.8550 H   0  0  0  0  0  0  0  0  0  0  0  0
  -24.1000  -36.5790   23.1760 C   0  0  0  0  0  1  0  0  0  0  0  0
  -25.3500  -36.1380   23.9540 C   0  0  0  0  0  3  0  0  0  0  0  0
  -27.4570  -37.0040   24.8690 C   0  0  0  0  0  1  0  0  0  0  0  0
  -26.3550  -37.2230   23.9360 N   0  0  0  0  0  0  0  0  0  0  0  0
  -25.9250  -38.1170   24.1570 H   0  0  0  0  0  0  0  0  0  0  0  0
  -26.5060  -31.4850   24.7930 C   0  0  1  0  0  0  0  0  0  0  0  0
  -25.4650  -31.1390   25.8830 C   0  0  0  0  0  1  0  0  0  0  0  0
  -27.1090  -30.1570   24.2790 C   0  0  0  0  0  1  0  0  0  0  0  0
  -27.6630  -32.2630   25.4640 C   0  0  0  0  0  1  0  0  0  0  0  0
  1  3  1  0
  2  1  1  0
  2  5  1  0
  3 15  1  0
  3  4  1  0
  4 47  1  0
  5 50  1  0
  5  6  1  1
  5  4  1  0
  7 16  1  0
  8 13  1  0
  9 10  1  0
  9  8  1  0
 11 10  1  0
 11 22  1  0
 11 12  1  0
 13  7  1  0
 13 12  1  0
 14  7  2  0
 15 16  1  0
 16 18  1  0
 17 15  2  0
 19 20  2  0
 20 39  1  0
 21 20  1  0
 21 24  1  0
 22 19  1  0
 22 23  1  0
 23 21  2  0
 24 25  1  0
 25 26  2  0
 27 30  1  0
 27 26  1  0
 28 27  2  0
 29 28  1  0
 29 24  2  0
 30 31  1  0
 31 36  2  0
 31 32  1  0
 32 33  2  0
 33 34  1  0
 34 38  1  0
 35 34  2  0
 36 35  1  0
 37 36  1  0
 39 40  1  0
 40 43  1  0
 40 42  1  0
 41 39  2  0
 44 45  1  0
 44 19  1  0
 46 44  1  0
 47 49  1  0
 49 48  1  0
 51 50  1  0
 51 52  1  0
 53 55  1  0
 53 52  1  0
 54 65  2  0
 55 60  1  0
 56 64  1  0
 56 66  1  0
 57 63  1  0
 57 59  1  0
 58 64  1  0
 59 58  1  0
 60 59  2  0
 61 62  1  0
 61 55  2  0
 62 57  2  0
 63 56  1  0
 64 54  1  0
 66 68  2  0
 67 66  1  0
 69 67  1  0
 70 79  2  0
 70 75  1  0
 71 67  1  0
 71 75  1  0
 72 71  1  0
 73 74  1  0
 73 72  1  0
 74 70  1  0
 75 76  2  0
 76 77  1  0
 78 77  2  0
 79 78  1  0
 80 54  1  0
 80 81  1  0
 80 90  1  0
 81 84  1  0
 82 86  1  0
 82 81  1  0
 83 82  2  0
 86 85  1  0
 88 86  1  0
 88 89  1  0
 88 87  1  0
 90 93  1  1
 90 91  1  0
 92 90  1  0
M  ISO  4   7 100  16 100  52 101  53 101
M  END
>  <TORSDO>  (28) 
F 21

>  <SCORE>  (28) 
-11.903

>  <name>  (28) 
27

>  <ligand_id>  (28) 
27

>  <original_smiles>  (28) 
[H]c1c([H])c([H])c2c(c1[H])C([H])([H])C([H])([H])C([H])([H])C2([H])N([H])C(=O)C1([H])N(C(=O)C([H])(N([H])C(=O)C([H])(N([H])C([H])([H])[H])C([H])([H])[H])C(C([H])([H])[H])(C([H])([H])[H])C([H])([H])[H])C([H])([H])c2c([H])c(OC([H])([H])C([H])([H])C([H])([H])[N+]3([H])C([H])([H])C([H])([H])C([H])(C(=O)N([H])C(=O)N4C([H])([H])C([H])([H])C([H])([H])C([H])(n5nc(-c6c([H])c([H])c(Oc7c([H])c([H])c(F)c([H])c7F)c([H])c6[H])c(C(=O)N([H])[H])c5N([H])[H])C4([H])[H])C3([H])C([H])([H])C([H])([H])C([H])([H])[H])c([H])c([H])c2C1([H])[H]

>  <smiles>  (28) 
[H]c1c([H])c([H])c2c(c1[H])C([H])([H])C([H])([H])C([H])([H])C2([H])N([H])C(=O)C1([H])N(C(=O)C([H])(N([H])C(=O)C([H])(N([H])C([H])([H])[H])C([H])([H])[H])C(C([H])([H])[H])(C([H])([H])[H])C([H])([H])[H])C([H])([H])c2c([H])c(OC([H])([H])C([H])([H])C([H])([H])[N+]3([H])C([H])([H])C([H])([H])C([H])(C(=O)N([H])C(=O)N4C([H])([H])C([H])([H])C([H])([H])C([H])(n5nc(-c6c([H])c([H])c(Oc7c([H])c([H])c(F)c([H])c7F)c([H])c6[H])c(C(=O)N([H])[H])c5N([H])[H])C4([H])[H])C3([H])C([H])([H])C([H])([H])C([H])([H])[H])c([H])c([H])c2C1([H])[H]

$$$$
28:0:0
     RDKit          3D

 92100  0  0  1  0  0  0  0  0999 V2000
  -29.6480  -20.5300   20.3540 N   0  0  0  0  0  4  0  0  0  0  0  0
  -30.5880  -20.7880   20.6120 H   0  0  0  0  0  0  0  0  0  0  0  0
  -29.1780  -20.3890   21.2340 H   0  0  0  0  0  0  0  0  0  0  0  0
  -30.6220  -19.1430   18.4350 C   0  0  0  0  0  2  0  0  0  0  0  0
  -29.1820  -18.7470   18.2970 C   0  0  0  0  0  3  0  0  0  0  0  0
  -29.7660  -19.0610   19.7050 C   0  0  2  0  0  0  0  0  0  0  0  0
  -28.2880  -18.9530   15.9280 C   0  0  0  0  0  1  0  0  0  0  0  0
  -26.8310  -19.6160   17.8660 C   0  0  0  0  0  1  0  0  0  0  0  0
  -28.2830  -19.5520   17.3580 C   0  0  0  0  0  3  0  0  0  0  0  0
  -30.1660  -17.7640   20.6620 C   0  0  0  0  0  2  0  0  0  0  0  0
  -30.6440  -15.0660   20.2170 C   0  0  0  0  0  0  0  0  0  0  0  0
  -30.4690  -12.7740   19.1660 C   0  0  0  0  0  2  0  0  0  0  0  0
  -29.4860  -12.7790   17.9740 C   0  0  0  0  0  2  0  0  0  0  0  0
  -28.0470  -12.5420   18.4680 C   0  0  0  0  0  2  0  0  0  0  0  0
  -27.6820  -13.4240   19.6880 C   0  0  0  0  0  3  0  0  0  0  0  0
  -28.7810  -13.4020   20.7700 C   0  0  0  0  0  2  0  0  0  0  0  0
  -30.0260  -13.8270   20.1190 N   0  0  0  0  0  0  0  0  0  0  0  0
  -31.8510  -15.1310   19.9690 O   0  0  0  0  0  0  0  0  0  0  0  0
  -29.8680  -16.2390   20.3850 N   0  0  0  0  0  0  0  0  0  0  0  0
  -28.8880  -16.0200   20.4760 H   0  0  0  0  0  0  0  0  0  0  0  0
  -25.3120  -13.9630   20.4920 C   0  0  0  0  0  0  0  0  0  0  0  0
  -24.2660  -13.1630   20.8770 C   0  0  0  0  0  0  0  0  0  0  0  0
  -24.7480  -11.8220   20.8090 C   0  0  0  0  0  0  0  0  0  0  0  0
  -26.3620  -13.1030   20.2170 N   0  0  0  0  0  0  0  0  0  0  0  0
  -26.0340  -11.8100   20.4750 N   0  0  0  0  0  0  0  0  0  0  0  0
  -24.0440  -10.5470   20.9940 C   0  0  0  0  0  0  0  0  0  0  0  0
  -24.4830   -9.5890   21.9330 C   0  0  0  0  0  3  0  0  0  0  0  0
  -23.7760   -8.3770   22.1060 C   0  0  0  0  0  3  0  0  0  0  0  0
  -22.6160   -8.1170   21.3340 C   0  0  0  0  0  0  0  0  0  0  0  0
  -22.1950   -9.0650   20.3840 C   0  0  0  0  0  3  0  0  0  0  0  0
  -22.9050  -10.2670   20.2120 C   0  0  0  0  0  3  0  0  0  0  0  0
  -21.8820   -6.9570   21.4150 O   0  0  0  0  0  0  0  0  0  0  0  0
  -21.8070   -6.2360   22.5790 C   0  0  0  0  0  0  0  0  0  0  0  0
  -21.2940   -6.7920   23.7720 C   0  0  0  0  0  3  0  0  0  0  0  0
  -21.1660   -5.9910   24.9250 C   0  0  0  0  0  3  0  0  0  0  0  0
  -21.5460   -4.6360   24.8850 C   0  0  0  0  0  0  0  0  0  0  0  0
  -22.0540   -4.0780   23.6980 C   0  0  0  0  0  3  0  0  0  0  0  0
  -22.1810   -4.8760   22.5490 C   0  0  0  0  0  0  0  0  0  0  0  0
  -22.6490   -4.3290   21.4010 F   0  0  0  0  0  0  0  0  0  0  0  0
  -21.4190   -3.8640   25.9900 F   0  0  0  0  0  0  0  0  0  0  0  0
  -22.8680  -13.6140   21.1810 C   0  0  0  0  0  0  0  0  0  0  0  0
  -22.1670  -12.8850   22.0450 N   0  0  0  0  0  0  0  0  0  0  0  0
  -22.4090  -14.6440   20.6970 O   0  0  0  0  0  0  0  0  0  0  0  0
  -22.5610  -12.0530   22.4590 H   0  0  0  0  0  0  0  0  0  0  0  0
  -21.2300  -13.1650   22.2930 H   0  0  0  0  0  0  0  0  0  0  0  0
  -25.4380  -15.3370   20.3310 N   0  0  0  0  0  0  0  0  0  0  0  0
  -24.6350  -15.9480   20.4410 H   0  0  0  0  0  0  0  0  0  0  0  0
  -26.2420  -15.8060   19.9330 H   0  0  0  0  0  0  0  0  0  0  0  0
  -28.9990  -21.8570   19.7550 C   0  0  0  0  0  2  0  0  0  0  0  0
  -29.1220  -23.4070   20.4350 C   0  0  0  0  0  3  0  0  0  0  0  0
  -28.1810  -24.7380   19.9680 C   0  0  0  0  0  3  0  0  0  0  0  0
  -28.3520  -26.2570   20.2910 O   0  0  0  0  0  0  0  0  0  0  0  0
  -24.6340  -31.9570   23.1730 C   0  0  0  0  0  0  0  0  0  0  0  0
  -27.2700  -27.2200   20.2070 C   0  0  0  0  0  0  0  0  0  0  0  0
  -23.4510  -30.5250   21.5560 C   0  0  0  0  0  3  0  0  0  0  0  0
  -24.9150  -28.9380   20.1600 C   0  0  0  0  0  0  0  0  0  0  0  0
  -26.0000  -30.8080   21.3910 C   0  0  0  0  0  2  0  0  0  0  0  0
  -26.0900  -29.4060   20.7600 C   0  0  0  0  0  0  0  0  0  0  0  0
  -27.2680  -28.5630   20.7610 C   0  0  0  0  0  3  0  0  0  0  0  0
  -26.0640  -26.8500   19.5700 C   0  0  0  0  0  3  0  0  0  0  0  0
  -24.9120  -27.6690   19.5570 C   0  0  0  0  0  3  0  0  0  0  0  0
  -23.6780  -29.8230   20.1910 C   0  0  0  0  0  2  0  0  0  0  0  0
  -24.7150  -31.1210   22.0960 N   0  0  0  0  0  0  0  0  0  0  0  0
  -23.5430  -32.2370   23.6960 O   0  0  0  0  0  0  0  0  0  0  0  0
  -22.7800  -29.5280   22.5320 C   0  0  0  0  0  0  0  0  0  0  0  0
  -21.4520  -29.3470   22.4070 N   0  0  0  0  0  0  0  0  0  0  0  0
  -23.4580  -28.9180   23.3620 O   0  0  0  0  0  0  0  0  0  0  0  0
  -20.9600  -29.8820   21.7040 H   0  0  0  0  0  0  0  0  0  0  0  0
  -18.0800  -28.1570   22.9640 C   0  0  0  0  0  0  0  0  0  0  0  0
  -20.6370  -28.4190   23.1970 C   0  0  0  0  0  3  0  0  0  0  0  0
  -20.7330  -26.9810   22.6310 C   0  0  0  0  0  2  0  0  0  0  0  0
  -19.6200  -26.6530   21.6320 C   0  0  0  0  0  2  0  0  0  0  0  0
  -18.2480  -26.8040   22.2940 C   0  0  0  0  0  2  0  0  0  0  0  0
  -19.2010  -28.9220   23.3760 C   0  0  0  0  0  0  0  0  0  0  0  0
  -18.9900  -30.1840   23.9690 C   0  0  0  0  0  3  0  0  0  0  0  0
  -17.6900  -30.6860   24.1490 C   0  0  0  0  0  3  0  0  0  0  0  0
  -16.5770  -29.9210   23.7550 C   0  0  0  0  0  3  0  0  0  0  0  0
  -16.7740  -28.6570   23.1670 C   0  0  0  0  0  3  0  0  0  0  0  0
  -25.9060  -32.6130   23.7890 C   0  0  0  0  0  3  0  0  0  0  0  0
  -25.5600  -34.0050   24.1230 N   0  0  0  0  0  0  0  0  0  0  0  0
  -25.8920  -35.0750   23.3830 C   0  0  0  0  0  0  0  0  0  0  0  0
  -26.5710  -34.9920   22.3560 O   0  0  0  0  0  0  0  0  0  0  0  0
  -24.9270  -34.1260   24.9010 H   0  0  0  0  0  0  0  0  0  0  0  0
  -24.1570  -36.8670   23.0280 C   0  0  0  0  0  1  0  0  0  0  0  0
  -25.3880  -36.4550   23.8520 C   0  0  0  0  0  3  0  0  0  0  0  0
  -27.5040  -37.3460   24.7350 C   0  0  0  0  0  1  0  0  0  0  0  0
  -26.4190  -37.5140   23.7710 N   0  0  0  0  0  0  0  0  0  0  0  0
  -26.0060  -38.4310   23.9170 H   0  0  0  0  0  0  0  0  0  0  0  0
  -26.4420  -31.8460   25.0620 C   0  0  1  0  0  0  0  0  0  0  0  0
  -25.3600  -31.5720   26.1320 C   0  0  0  0  0  1  0  0  0  0  0  0
  -27.0560  -30.4820   24.6700 C   0  0  0  0  0  1  0  0  0  0  0  0
  -27.5870  -32.6620   25.7090 C   0  0  0  0  0  1  0  0  0  0  0  0
  1  2  1  0
  1  3  1  0
  4  6  1  0
  5  9  1  0
  5  4  1  0
  5  6  1  0
  6  1  1  0
  6 10  1  1
  7  9  1  0
  9  8  1  0
 11 19  1  0
 12 17  1  0
 13 14  1  0
 13 12  1  0
 15 14  1  0
 15 24  1  0
 15 16  1  0
 17 11  1  0
 17 16  1  0
 18 11  2  0
 19 20  1  0
 19 10  1  0
 21 22  2  0
 22 41  1  0
 23 22  1  0
 23 26  1  0
 24 25  1  0
 24 21  1  0
 25 23  2  0
 26 27  1  0
 27 28  2  0
 29 32  1  0
 29 28  1  0
 30 29  2  0
 31 30  1  0
 31 26  2  0
 32 33  1  0
 33 34  1  0
 34 35  2  0
 36 35  1  0
 36 40  1  0
 37 36  2  0
 38 33  2  0
 38 37  1  0
 39 38  1  0
 41 42  1  0
 42 45  1  0
 42 44  1  0
 43 41  2  0
 46 47  1  0
 46 21  1  0
 48 46  1  0
 49  1  1  0
 49 50  1  0
 51 52  1  0
 51 50  2  0
 53 64  2  0
 54 52  1  0
 54 59  1  0
 55 63  1  0
 55 65  1  0
 56 62  1  0
 56 58  1  0
 57 63  1  0
 58 59  2  0
 58 57  1  0
 60 54  2  0
 61 60  1  0
 61 56  2  0
 62 55  1  0
 63 53  1  0
 65 67  2  0
 66 65  1  0
 68 66  1  0
 69 78  2  0
 69 74  1  0
 70 66  1  0
 70 74  1  0
 71 70  1  0
 72 73  1  0
 72 71  1  0
 73 69  1  0
 74 75  2  0
 75 76  1  0
 77 76  2  0
 78 77  1  0
 79 53  1  0
 79 80  1  0
 79 89  1  0
 80 83  1  0
 81 85  1  0
 81 80  1  0
 82 81  2  0
 85 84  1  0
 87 85  1  0
 87 88  1  0
 87 86  1  0
 89 92  1  1
 89 90  1  0
 91 89  1  0
M  ISO  4  11 100  19 100  51 101  52 101
M  END
>  <TORSDO>  (29) 
F 22

>  <SCORE>  (29) 
-14.308

>  <name>  (29) 
28

>  <ligand_id>  (29) 
28

>  <original_smiles>  (29) 
[H]c1c([H])c([H])c2c(c1[H])C([H])([H])C([H])([H])C([H])([H])C2([H])N([H])C(=O)C1([H])N(C(=O)C([H])(N([H])C(=O)C([H])(N([H])C([H])([H])[H])C([H])([H])[H])C(C([H])([H])[H])(C([H])([H])[H])C([H])([H])[H])C([H])([H])c2c([H])c(OC([H])([H])C([H])([H])C([H])([H])[N+]([H])([H])C3(C([H])([H])N([H])C(=O)N4C([H])([H])C([H])([H])C([H])([H])C([H])(n5nc(-c6c([H])c([H])c(Oc7c([H])c([H])c(F)c([H])c7F)c([H])c6[H])c(C(=O)N([H])[H])c5N([H])[H])C4([H])[H])C([H])([H])C3([H])C([H])(C([H])([H])[H])C([H])([H])[H])c([H])c([H])c2C1([H])[H]

>  <smiles>  (29) 
[H]c1c([H])c([H])c2c(c1[H])C([H])([H])C([H])([H])C([H])([H])C2([H])N([H])C(=O)C1([H])N(C(=O)C([H])(N([H])C(=O)C([H])(N([H])C([H])([H])[H])C([H])([H])[H])C(C([H])([H])[H])(C([H])([H])[H])C([H])([H])[H])C([H])([H])c2c([H])c(OC([H])([H])C([H])([H])C([H])([H])[N+]([H])([H])C3(C([H])([H])N([H])C(=O)N4C([H])([H])C([H])([H])C([H])([H])C([H])(n5nc(-c6c([H])c([H])c(Oc7c([H])c([H])c(F)c([H])c7F)c([H])c6[H])c(C(=O)N([H])[H])c5N([H])[H])C4([H])[H])C([H])([H])C3([H])C([H])(C([H])([H])[H])C([H])([H])[H])c([H])c([H])c2C1([H])[H]

$$$$
29:0:0
     RDKit          3D

 95103  0  0  1  0  0  0  0  0999 V2000
  -29.2020  -22.8960   19.6030 C   0  0  0  0  0  2  0  0  0  0  0  0
  -30.1340  -24.3490   21.2290 C   0  0  0  0  0  2  0  0  0  0  0  0
  -28.9220  -24.2500   20.2890 C   0  0  0  0  0  3  0  0  0  0  0  0
  -29.6600  -21.9450   20.7340 C   0  0  0  0  0  3  0  0  0  0  0  0
  -30.5290  -22.8920   21.6280 C   0  0  0  0  0  3  0  0  0  0  0  0
  -29.0520  -22.3570   23.7040 C   0  0  0  0  0  1  0  0  0  0  0  0
  -30.4780  -22.6530   23.1700 C   0  0  0  0  0  3  0  0  0  0  0  0
  -31.6810  -21.4590   25.1310 C   0  0  0  0  0  1  0  0  0  0  0  0
  -31.5210  -21.6020   23.6150 C   0  0  0  0  0  2  0  0  0  0  0  0
  -30.3120  -20.6180   20.1930 C   0  0  0  0  0  2  0  0  0  0  0  0
  -30.2620  -19.4190   21.0890 N   0  0  0  0  0  4  0  0  0  0  0  0
  -29.2950  -19.4550   20.8100 H   0  0  0  0  0  0  0  0  0  0  0  0
  -31.1160  -19.2170   20.5960 H   0  0  0  0  0  0  0  0  0  0  0  0
  -29.9960  -18.0120   20.6460 C   0  0  0  0  0  2  0  0  0  0  0  0
  -30.8310  -16.9010   21.3650 C   0  0  0  0  0  2  0  0  0  0  0  0
  -31.1270  -14.5340   20.3650 C   0  0  0  0  0  0  0  0  0  0  0  0
  -30.8180  -12.3430   19.2240 C   0  0  0  0  0  2  0  0  0  0  0  0
  -29.8620  -12.4950   18.0210 C   0  0  0  0  0  2  0  0  0  0  0  0
  -28.3820  -12.4300   18.4600 C   0  0  0  0  0  2  0  0  0  0  0  0
  -28.0800  -13.3030   19.7050 C   0  0  0  0  0  3  0  0  0  0  0  0
  -29.1330  -13.0620   20.8110 C   0  0  0  0  0  2  0  0  0  0  0  0
  -30.4540  -13.3550   20.2320 N   0  0  0  0  0  0  0  0  0  0  0  0
  -32.2380  -14.7250   19.8590 O   0  0  0  0  0  0  0  0  0  0  0  0
  -30.4440  -15.5120   21.0100 N   0  0  0  0  0  0  0  0  0  0  0  0
  -29.5410  -15.2150   21.3540 H   0  0  0  0  0  0  0  0  0  0  0  0
  -25.7230  -14.0240   20.4430 C   0  0  0  0  0  0  0  0  0  0  0  0
  -24.6230  -13.3070   20.8200 C   0  0  0  0  0  0  0  0  0  0  0  0
  -25.0140  -11.9330   20.7750 C   0  0  0  0  0  0  0  0  0  0  0  0
  -26.7200  -13.0940   20.1930 N   0  0  0  0  0  0  0  0  0  0  0  0
  -26.2950  -11.8290   20.4470 N   0  0  0  0  0  0  0  0  0  0  0  0
  -24.2260  -10.7100   20.9690 C   0  0  0  0  0  0  0  0  0  0  0  0
  -24.6060   -9.7240   21.9060 C   0  0  0  0  0  3  0  0  0  0  0  0
  -23.8200   -8.5640   22.0840 C   0  0  0  0  0  3  0  0  0  0  0  0
  -22.6380   -8.3840   21.3240 C   0  0  0  0  0  0  0  0  0  0  0  0
  -22.2780   -9.3590   20.3760 C   0  0  0  0  0  3  0  0  0  0  0  0
  -23.0640  -10.5090   20.1960 C   0  0  0  0  0  3  0  0  0  0  0  0
  -21.8280   -7.2800   21.4120 O   0  0  0  0  0  0  0  0  0  0  0  0
  -21.7170   -6.5640   22.5770 C   0  0  0  0  0  0  0  0  0  0  0  0
  -21.2940   -7.1640   23.7850 C   0  0  0  0  0  3  0  0  0  0  0  0
  -21.1230   -6.3780   24.9410 C   0  0  0  0  0  3  0  0  0  0  0  0
  -21.3650   -4.9910   24.8930 C   0  0  0  0  0  0  0  0  0  0  0  0
  -21.7820   -4.3900   23.6920 C   0  0  0  0  0  3  0  0  0  0  0  0
  -21.9540   -5.1750   22.5370 C   0  0  0  0  0  0  0  0  0  0  0  0
  -22.3360   -4.5880   21.3770 F   0  0  0  0  0  0  0  0  0  0  0  0
  -21.1950   -4.2330   26.0010 F   0  0  0  0  0  0  0  0  0  0  0  0
  -23.2560  -13.8550   21.1110 C   0  0  0  0  0  0  0  0  0  0  0  0
  -22.5100  -13.2100   21.9980 N   0  0  0  0  0  0  0  0  0  0  0  0
  -22.8590  -14.8970   20.5870 O   0  0  0  0  0  0  0  0  0  0  0  0
  -22.8440  -12.3690   22.4470 H   0  0  0  0  0  0  0  0  0  0  0  0
  -21.5940  -13.5640   22.2330 H   0  0  0  0  0  0  0  0  0  0  0  0
  -25.9540  -15.3870   20.2710 N   0  0  0  0  0  0  0  0  0  0  0  0
  -25.2060  -16.0630   20.3770 H   0  0  0  0  0  0  0  0  0  0  0  0
  -26.7920  -15.7840   19.8710 H   0  0  0  0  0  0  0  0  0  0  0  0
  -28.6940  -25.4430   19.3010 C   0  0  0  0  0  2  0  0  0  0  0  0
  -28.5120  -26.7350   19.9120 O   0  0  0  0  0  0  0  0  0  0  0  0
  -24.6490  -31.7690   23.1200 C   0  0  0  0  0  0  0  0  0  0  0  0
  -27.2970  -27.4030   19.9100 C   0  0  0  0  0  0  0  0  0  0  0  0
  -23.4310  -30.3870   21.4710 C   0  0  0  0  0  3  0  0  0  0  0  0
  -24.8740  -28.8910   19.9880 C   0  0  0  0  0  0  0  0  0  0  0  0
  -25.9510  -30.7730   21.2380 C   0  0  0  0  0  2  0  0  0  0  0  0
  -26.0370  -29.4140   20.5680 C   0  0  0  0  0  0  0  0  0  0  0  0
  -27.2440  -28.6760   20.5280 C   0  0  0  0  0  3  0  0  0  0  0  0
  -26.1090  -26.8880   19.3420 C   0  0  0  0  0  3  0  0  0  0  0  0
  -24.9070  -27.6270   19.3730 C   0  0  0  0  0  3  0  0  0  0  0  0
  -23.6230  -29.7430   20.0700 C   0  0  0  0  0  2  0  0  0  0  0  0
  -24.6960  -30.9920   22.0000 N   0  0  0  0  0  0  0  0  0  0  0  0
  -23.5720  -32.0200   23.6830 O   0  0  0  0  0  0  0  0  0  0  0  0
  -22.8100  -29.3390   22.4200 C   0  0  0  0  0  0  0  0  0  0  0  0
  -21.4910  -29.1280   22.2950 N   0  0  0  0  0  0  0  0  0  0  0  0
  -23.5130  -28.7170   23.2220 O   0  0  0  0  0  0  0  0  0  0  0  0
  -20.9900  -29.6910   21.6230 H   0  0  0  0  0  0  0  0  0  0  0  0
  -18.1550  -27.7970   22.7350 C   0  0  0  0  0  0  0  0  0  0  0  0
  -20.6970  -28.1550   23.0470 C   0  0  0  0  0  3  0  0  0  0  0  0
  -20.8650  -26.7310   22.4690 C   0  0  0  0  0  2  0  0  0  0  0  0
  -19.7910  -26.3610   21.4410 C   0  0  0  0  0  2  0  0  0  0  0  0
  -18.3950  -26.4560   22.0640 C   0  0  0  0  0  2  0  0  0  0  0  0
  -19.2360  -28.6020   23.1840 C   0  0  0  0  0  0  0  0  0  0  0  0
  -18.9590  -29.8540   23.7730 C   0  0  0  0  0  3  0  0  0  0  0  0
  -17.6330  -30.3020   23.9190 C   0  0  0  0  0  3  0  0  0  0  0  0
  -16.5670  -29.4930   23.4870 C   0  0  0  0  0  3  0  0  0  0  0  0
  -16.8290  -28.2400   22.9020 C   0  0  0  0  0  3  0  0  0  0  0  0
  -25.9400  -32.3970   23.7330 C   0  0  0  0  0  3  0  0  0  0  0  0
  -25.6170  -33.7760   24.1210 N   0  0  0  0  0  0  0  0  0  0  0  0
  -25.9110  -34.8580   23.3880 C   0  0  0  0  0  0  0  0  0  0  0  0
  -26.5550  -34.8000   22.3380 O   0  0  0  0  0  0  0  0  0  0  0  0
  -25.0360  -33.8920   24.9380 H   0  0  0  0  0  0  0  0  0  0  0  0
  -24.1390  -36.6260   23.1360 C   0  0  0  0  0  1  0  0  0  0  0  0
  -25.4090  -36.2230   23.8990 C   0  0  0  0  0  3  0  0  0  0  0  0
  -27.5530  -37.1250   24.6940 C   0  0  0  0  0  1  0  0  0  0  0  0
  -26.4180  -37.3000   23.7900 N   0  0  0  0  0  0  0  0  0  0  0  0
  -25.9980  -38.2080   23.9760 H   0  0  0  0  0  0  0  0  0  0  0  0
  -26.5000  -31.5870   24.9650 C   0  0  1  0  0  0  0  0  0  0  0  0
  -25.4370  -31.2930   26.0500 C   0  0  0  0  0  1  0  0  0  0  0  0
  -27.0810  -30.2320   24.5040 C   0  0  0  0  0  1  0  0  0  0  0  0
  -27.6610  -32.3640   25.6220 C   0  0  0  0  0  1  0  0  0  0  0  0
  1  3  1  0
  1  4  1  0
  2  5  1  0
  3 54  1  0
  3  2  1  0
  4 10  1  0
  4  5  1  0
  5  7  1  0
  7  9  1  0
  7  6  1  0
  9  8  1  0
 10 11  1  0
 12 11  1  0
 13 11  1  0
 14 11  1  0
 14 15  1  0
 16 24  1  0
 17 22  1  0
 18 19  1  0
 18 17  1  0
 20 19  1  0
 20 29  1  0
 20 21  1  0
 22 16  1  0
 22 21  1  0
 23 16  2  0
 24 25  1  0
 24 15  1  0
 26 27  2  0
 27 46  1  0
 28 27  1  0
 28 31  1  0
 29 26  1  0
 29 30  1  0
 30 28  2  0
 31 32  1  0
 32 33  2  0
 34 37  1  0
 34 33  1  0
 35 34  2  0
 36 35  1  0
 36 31  2  0
 37 38  1  0
 38 39  1  0
 39 40  2  0
 41 40  1  0
 41 45  1  0
 42 41  2  0
 43 38  2  0
 43 42  1  0
 44 43  1  0
 46 47  1  0
 47 50  1  0
 47 49  1  0
 48 46  2  0
 51 52  1  0
 51 26  1  0
 53 51  1  0
 54 55  1  0
 56 67  2  0
 57 55  1  0
 57 62  1  0
 58 66  1  0
 58 68  1  0
 59 65  1  0
 59 61  1  0
 60 66  1  0
 61 60  1  0
 62 61  2  0
 63 64  1  0
 63 57  2  0
 64 59  2  0
 65 58  1  0
 66 56  1  0
 68 70  2  0
 69 68  1  0
 71 69  1  0
 72 81  2  0
 72 77  1  0
 73 69  1  0
 73 77  1  0
 74 73  1  0
 75 76  1  0
 75 74  1  0
 76 72  1  0
 77 78  2  0
 78 79  1  0
 80 79  2  0
 81 80  1  0
 82 56  1  0
 82 83  1  0
 82 92  1  0
 83 86  1  0
 84 88  1  0
 84 83  1  0
 85 84  2  0
 88 87  1  0
 90 88  1  0
 90 91  1  0
 90 89  1  0
 92 95  1  1
 92 93  1  0
 94 92  1  0
M  ISO  4  16 100  24 100  54 101  55 101
M  END
>  <TORSDO>  (30) 
F 23

>  <SCORE>  (30) 
-11.961

>  <name>  (30) 
29

>  <ligand_id>  (30) 
29

>  <original_smiles>  (30) 
[H]c1c([H])c([H])c2c(c1[H])C([H])([H])C([H])([H])C([H])([H])C2([H])N([H])C(=O)C1([H])N(C(=O)C([H])(N([H])C(=O)C([H])(N([H])C([H])([H])[H])C([H])([H])[H])C(C([H])([H])[H])(C([H])([H])[H])C([H])([H])[H])C([H])([H])c2c([H])c(OC([H])([H])C3([H])C([H])([H])C([H])(C([H])(C([H])([H])[H])C([H])([H])C([H])([H])[H])C([H])(C([H])([H])[N+]([H])([H])C([H])([H])C([H])([H])N([H])C(=O)N4C([H])([H])C([H])([H])C([H])([H])C([H])(n5nc(-c6c([H])c([H])c(Oc7c([H])c([H])c(F)c([H])c7F)c([H])c6[H])c(C(=O)N([H])[H])c5N([H])[H])C4([H])[H])C3([H])[H])c([H])c([H])c2C1([H])[H]

>  <smiles>  (30) 
[H]c1c([H])c([H])c2c(c1[H])C([H])([H])C([H])([H])C([H])([H])C2([H])N([H])C(=O)C1([H])N(C(=O)C([H])(N([H])C(=O)C([H])(N([H])C([H])([H])[H])C([H])([H])[H])C(C([H])([H])[H])(C([H])([H])[H])C([H])([H])[H])C([H])([H])c2c([H])c(OC([H])([H])C3([H])C([H])([H])C([H])(C([H])(C([H])([H])[H])C([H])([H])C([H])([H])[H])C([H])(C([H])([H])[N+]([H])([H])C([H])([H])C([H])([H])N([H])C(=O)N4C([H])([H])C([H])([H])C([H])([H])C([H])(n5nc(-c6c([H])c([H])c(Oc7c([H])c([H])c(F)c([H])c7F)c([H])c6[H])c(C(=O)N([H])[H])c5N([H])[H])C4([H])[H])C3([H])[H])c([H])c([H])c2C1([H])[H]

$$$$
30:0:0
     RDKit          3D

 95103  0  0  1  0  0  0  0  0999 V2000
  -26.5500  -22.0690   20.6440 C   0  0  0  0  0  3  0  0  0  0  0  0
  -25.5040  -22.3390   19.8560 C   0  0  0  0  0  3  0  0  0  0  0  0
  -28.0240  -23.8120   19.4780 C   0  0  0  0  0  2  0  0  0  0  0  0
  -27.9490  -22.4030   20.1580 C   0  0  0  0  0  3  0  0  0  0  0  0
  -25.7240  -23.0940   18.5550 C   0  0  0  0  0  3  0  0  0  0  0  0
  -26.6660  -24.3170   18.8700 C   0  0  0  0  0  3  0  0  0  0  0  0
  -24.3470  -23.3910   17.9240 C   0  0  0  0  0  1  0  0  0  0  0  0
  -29.1080  -21.9900   21.0810 C   0  0  0  0  0  0  0  0  0  0  0  0
  -29.0830  -20.7090   21.4670 N   0  0  0  0  0  0  0  0  0  0  0  0
  -30.0350  -22.7580   21.3550 O   0  0  0  0  0  0  0  0  0  0  0  0
  -28.2320  -20.1960   21.2800 H   0  0  0  0  0  0  0  0  0  0  0  0
  -30.2060  -19.8890   21.8980 C   0  0  0  0  0  2  0  0  0  0  0  0
  -30.5850  -18.8840   20.7880 C   0  0  0  0  0  2  0  0  0  0  0  0
  -30.9930  -17.4820   21.2780 C   0  0  0  0  0  2  0  0  0  0  0  0
  -31.6270  -16.6450   20.1490 C   0  0  0  0  0  2  0  0  0  0  0  0
  -31.8170  -14.1900   19.6270 C   0  0  0  0  0  0  0  0  0  0  0  0
  -31.4680  -11.7780   19.2560 C   0  0  0  0  0  2  0  0  0  0  0  0
  -30.5190  -11.5590   18.0660 C   0  0  0  0  0  2  0  0  0  0  0  0
  -29.0610  -11.5290   18.5570 C   0  0  0  0  0  2  0  0  0  0  0  0
  -28.7300  -12.7800   19.4120 C   0  0  0  0  0  3  0  0  0  0  0  0
  -29.7910  -13.0040   20.5130 C   0  0  0  0  0  2  0  0  0  0  0  0
  -31.1290  -13.0540   19.8900 N   0  0  0  0  0  0  0  0  0  0  0  0
  -32.7280  -14.2640   18.7890 O   0  0  0  0  0  0  0  0  0  0  0  0
  -31.4510  -15.2180   20.4090 N   0  0  0  0  0  0  0  0  0  0  0  0
  -30.8320  -14.9790   21.1750 H   0  0  0  0  0  0  0  0  0  0  0  0
  -26.5390  -13.7410   20.3530 C   0  0  0  0  0  0  0  0  0  0  0  0
  -25.3920  -13.1400   20.7850 C   0  0  0  0  0  0  0  0  0  0  0  0
  -25.6090  -11.7320   20.6550 C   0  0  0  0  0  0  0  0  0  0  0  0
  -27.3890  -12.7120   19.9820 N   0  0  0  0  0  0  0  0  0  0  0  0
  -26.8350  -11.4940   20.2120 N   0  0  0  0  0  0  0  0  0  0  0  0
  -24.6970  -10.6050   20.8770 C   0  0  0  0  0  0  0  0  0  0  0  0
  -25.0120   -9.5720   21.7890 C   0  0  0  0  0  3  0  0  0  0  0  0
  -24.1160   -8.5000   21.9890 C   0  0  0  0  0  3  0  0  0  0  0  0
  -22.8890   -8.4620   21.2830 C   0  0  0  0  0  0  0  0  0  0  0  0
  -22.5920   -9.4830   20.3650 C   0  0  0  0  0  3  0  0  0  0  0  0
  -23.4850  -10.5460   20.1630 C   0  0  0  0  0  3  0  0  0  0  0  0
  -21.9690   -7.4490   21.3920 O   0  0  0  0  0  0  0  0  0  0  0  0
  -21.8000   -6.7520   22.5620 C   0  0  0  0  0  0  0  0  0  0  0  0
  -21.4630   -7.3990   23.7700 C   0  0  0  0  0  3  0  0  0  0  0  0
  -21.2220   -6.6370   24.9320 C   0  0  0  0  0  3  0  0  0  0  0  0
  -21.3110   -5.2320   24.8860 C   0  0  0  0  0  0  0  0  0  0  0  0
  -21.6480   -4.5890   23.6820 C   0  0  0  0  0  3  0  0  0  0  0  0
  -21.8850   -5.3460   22.5230 C   0  0  0  0  0  0  0  0  0  0  0  0
  -22.1810   -4.7180   21.3600 F   0  0  0  0  0  0  0  0  0  0  0  0
  -21.0840   -4.5010   26.0010 F   0  0  0  0  0  0  0  0  0  0  0  0
  -24.1280  -13.8280   21.2140 C   0  0  0  0  0  0  0  0  0  0  0  0
  -23.3980  -13.2400   22.1510 N   0  0  0  0  0  0  0  0  0  0  0  0
  -23.8060  -14.9230   20.7510 O   0  0  0  0  0  0  0  0  0  0  0  0
  -23.6760  -12.3500   22.5390 H   0  0  0  0  0  0  0  0  0  0  0  0
  -22.5480  -13.6760   22.4760 H   0  0  0  0  0  0  0  0  0  0  0  0
  -26.9240  -15.0770   20.2340 N   0  0  0  0  0  0  0  0  0  0  0  0
  -26.2990  -15.8410   20.4610 H   0  0  0  0  0  0  0  0  0  0  0  0
  -27.8180  -15.3930   19.8800 H   0  0  0  0  0  0  0  0  0  0  0  0
  -26.8540  -25.3660   17.7070 C   0  0  0  0  0  2  0  0  0  0  0  0
  -27.2390  -26.7210   18.0680 O   0  0  0  0  0  0  0  0  0  0  0  0
  -24.9510  -31.3390   23.0350 C   0  0  0  0  0  0  0  0  0  0  0  0
  -26.2500  -27.6100   18.4650 C   0  0  0  0  0  0  0  0  0  0  0  0
  -23.2700  -30.5300   21.4250 C   0  0  0  0  0  3  0  0  0  0  0  0
  -24.1820  -29.3250   19.3820 C   0  0  0  0  0  0  0  0  0  0  0  0
  -25.7480  -30.6820   20.7630 C   0  0  0  0  0  2  0  0  0  0  0  0
  -25.5040  -29.5370   19.8000 C   0  0  0  0  0  0  0  0  0  0  0  0
  -26.5440  -28.6860   19.3420 C   0  0  0  0  0  3  0  0  0  0  0  0
  -24.9130  -27.4630   18.0330 C   0  0  0  0  0  3  0  0  0  0  0  0
  -23.8850  -28.2880   18.4980 C   0  0  0  0  0  3  0  0  0  0  0  0
  -23.1170  -30.2560   19.9110 C   0  0  0  0  0  2  0  0  0  0  0  0
  -24.6890  -30.8470   21.7920 N   0  0  0  0  0  0  0  0  0  0  0  0
  -24.0400  -31.5570   23.8440 O   0  0  0  0  0  0  0  0  0  0  0  0
  -22.6780  -29.3440   22.2160 C   0  0  0  0  0  0  0  0  0  0  0  0
  -21.3410  -29.2020   22.1800 N   0  0  0  0  0  0  0  0  0  0  0  0
  -23.4100  -28.5650   22.8340 O   0  0  0  0  0  0  0  0  0  0  0  0
  -20.8080  -29.8840   21.6590 H   0  0  0  0  0  0  0  0  0  0  0  0
  -18.0250  -27.8170   22.5430 C   0  0  0  0  0  0  0  0  0  0  0  0
  -20.5680  -28.1490   22.8350 C   0  0  0  0  0  3  0  0  0  0  0  0
  -20.7290  -26.7890   22.1080 C   0  0  0  0  0  2  0  0  0  0  0  0
  -19.6350  -26.5230   21.0710 C   0  0  0  0  0  2  0  0  0  0  0  0
  -18.2540  -26.5530   21.7290 C   0  0  0  0  0  2  0  0  0  0  0  0
  -19.1120  -28.5730   23.0530 C   0  0  0  0  0  0  0  0  0  0  0  0
  -18.8460  -29.7500   23.7850 C   0  0  0  0  0  3  0  0  0  0  0  0
  -17.5220  -30.1750   24.0050 C   0  0  0  0  0  3  0  0  0  0  0  0
  -16.4480  -29.4130   23.5140 C   0  0  0  0  0  3  0  0  0  0  0  0
  -16.7010  -28.2330   22.7920 C   0  0  0  0  0  3  0  0  0  0  0  0
  -26.4060  -31.6730   23.4840 C   0  0  0  0  0  3  0  0  0  0  0  0
  -26.3600  -32.9410   24.2220 N   0  0  0  0  0  0  0  0  0  0  0  0
  -26.7500  -34.1210   23.7250 C   0  0  0  0  0  0  0  0  0  0  0  0
  -27.2600  -34.2420   22.6080 O   0  0  0  0  0  0  0  0  0  0  0  0
  -25.9070  -32.9270   25.1240 H   0  0  0  0  0  0  0  0  0  0  0  0
  -25.3170  -36.1520   24.1030 C   0  0  0  0  0  1  0  0  0  0  0  0
  -26.5380  -35.3650   24.6070 C   0  0  0  0  0  3  0  0  0  0  0  0
  -28.8530  -35.6690   25.3640 C   0  0  0  0  0  1  0  0  0  0  0  0
  -27.7180  -36.2560   24.6580 N   0  0  0  0  0  0  0  0  0  0  0  0
  -27.4870  -37.1390   25.1060 H   0  0  0  0  0  0  0  0  0  0  0  0
  -27.0620  -30.5360   24.3620 C   0  0  1  0  0  0  0  0  0  0  0  0
  -26.1820  -30.0930   25.5550 C   0  0  0  0  0  1  0  0  0  0  0  0
  -27.3670  -29.2830   23.5070 C   0  0  0  0  0  1  0  0  0  0  0  0
  -28.4230  -31.0220   24.9150 C   0  0  0  0  0  1  0  0  0  0  0  0
  2  1  2  0
  3  4  1  0
  4  1  1  0
  4  8  1  0
  5  7  1  0
  5  6  1  0
  5  2  1  0
  6 54  1  0
  6  3  1  0
  8 10  2  0
  8  9  1  0
  9 12  1  0
 11  9  1  0
 13 14  1  0
 13 12  1  0
 15 24  1  0
 15 14  1  0
 16 22  1  0
 16 24  1  0
 17 22  1  0
 18 19  1  0
 18 17  1  0
 20 19  1  0
 20 29  1  0
 20 21  1  0
 22 21  1  0
 23 16  2  0
 24 25  1  0
 26 27  2  0
 27 46  1  0
 28 27  1  0
 28 31  1  0
 29 30  1  0
 29 26  1  0
 30 28  2  0
 31 32  1  0
 32 33  2  0
 34 37  1  0
 34 33  1  0
 35 34  2  0
 36 35  1  0
 36 31  2  0
 37 38  1  0
 38 39  1  0
 39 40  2  0
 41 40  1  0
 41 45  1  0
 42 41  2  0
 43 38  2  0
 43 42  1  0
 44 43  1  0
 46 47  1  0
 47 50  1  0
 47 49  1  0
 48 46  2  0
 51 26  1  0
 51 52  1  0
 53 51  1  0
 54 55  1  0
 55 57  1  0
 56 67  2  0
 57 62  1  0
 58 66  1  0
 58 68  1  0
 59 61  1  0
 59 65  1  0
 60 66  1  0
 61 60  1  0
 62 61  2  0
 63 57  2  0
 63 64  1  0
 64 59  2  0
 65 58  1  0
 66 56  1  0
 68 70  2  0
 69 68  1  0
 71 69  1  0
 72 81  2  0
 72 77  1  0
 73 69  1  0
 73 77  1  0
 74 73  1  0
 75 76  1  0
 75 74  1  0
 76 72  1  0
 77 78  2  0
 78 79  1  0
 80 79  2  0
 81 80  1  0
 82 56  1  0
 82 83  1  0
 82 92  1  0
 83 86  1  0
 84 83  1  0
 84 88  1  0
 85 84  2  0
 88 87  1  0
 88 90  1  0
 90 91  1  0
 90 89  1  0
 92 95  1  1
 92 93  1  0
 94 92  1  0
M  ISO  4  16 100  24 100  54 101  55 101
M  END
>  <TORSDO>  (31) 
F 22

>  <SCORE>  (31) 
-9.852

>  <name>  (31) 
30

>  <ligand_id>  (31) 
30

>  <original_smiles>  (31) 
[H]C1=C([H])C([H])(C([H])([H])[H])C([H])(C([H])([H])Oc2c([H])c([H])c3c(c2[H])C([H])([H])N(C(=O)C([H])(N([H])C(=O)C([H])(N([H])C([H])([H])[H])C([H])([H])[H])C(C([H])([H])[H])(C([H])([H])[H])C([H])([H])[H])C([H])(C(=O)N([H])C2([H])c4c([H])c([H])c([H])c([H])c4C([H])([H])C([H])([H])C2([H])[H])C3([H])[H])C([H])([H])C1([H])C(=O)N([H])C([H])([H])C([H])([H])C([H])([H])C([H])([H])N([H])C(=O)N1C([H])([H])C([H])([H])C([H])([H])C([H])(n2nc(-c3c([H])c([H])c(Oc4c([H])c([H])c(F)c([H])c4F)c([H])c3[H])c(C(=O)N([H])[H])c2N([H])[H])C1([H])[H]

>  <smiles>  (31) 
[H]C1=C([H])C([H])(C([H])([H])[H])C([H])(C([H])([H])Oc2c([H])c([H])c3c(c2[H])C([H])([H])N(C(=O)C([H])(N([H])C(=O)C([H])(N([H])C([H])([H])[H])C([H])([H])[H])C(C([H])([H])[H])(C([H])([H])[H])C([H])([H])[H])C([H])(C(=O)N([H])C2([H])c4c([H])c([H])c([H])c([H])c4C([H])([H])C([H])([H])C2([H])[H])C3([H])[H])C([H])([H])C1([H])C(=O)N([H])C([H])([H])C([H])([H])C([H])([H])C([H])([H])N([H])C(=O)N1C([H])([H])C([H])([H])C([H])([H])C([H])(n2nc(-c3c([H])c([H])c(Oc4c([H])c([H])c(F)c([H])c4F)c([H])c3[H])c(C(=O)N([H])[H])c2N([H])[H])C1([H])[H]

$$$$
31:0:0
     RDKit          3D

 93100  0  0  1  0  0  0  0  0999 V2000
  -29.9380  -19.9900   20.7060 C   0  0  0  0  0  0  0  0  0  0  0  0
  -29.2740  -20.9650   19.9760 N   0  0  0  0  0  0  0  0  0  0  0  0
  -30.4550  -20.3170   21.7770 O   0  0  0  0  0  0  0  0  0  0  0  0
  -28.8040  -20.6090   19.1500 H   0  0  0  0  0  0  0  0  0  0  0  0
  -30.2280  -18.4770   20.2170 C   0  0  0  0  0  2  0  0  0  0  0  0
  -29.2780  -17.2800   20.6970 C   0  0  0  0  0  3  0  0  0  0  0  0
  -30.5350  -14.8130   20.4320 C   0  0  0  0  0  0  0  0  0  0  0  0
  -30.4600  -12.5400   19.3770 C   0  0  0  0  0  2  0  0  0  0  0  0
  -29.5230  -12.6240   18.1520 C   0  0  0  0  0  2  0  0  0  0  0  0
  -28.0440  -12.4350   18.5530 C   0  0  0  0  0  2  0  0  0  0  0  0
  -27.6570  -13.2730   19.8000 C   0  0  0  0  0  3  0  0  0  0  0  0
  -28.7050  -13.1210   20.9230 C   0  0  0  0  0  2  0  0  0  0  0  0
  -30.0060  -13.5400   20.3710 N   0  0  0  0  0  0  0  0  0  0  0  0
  -31.6670  -15.0440   19.9990 O   0  0  0  0  0  0  0  0  0  0  0  0
  -29.6610  -15.7930   20.8640 N   0  0  0  0  0  0  0  0  0  0  0  0
  -28.8580  -15.3160   21.2460 H   0  0  0  0  0  0  0  0  0  0  0  0
  -25.2470  -13.8630   20.4680 C   0  0  0  0  0  0  0  0  0  0  0  0
  -24.1820  -13.0890   20.8390 C   0  0  0  0  0  0  0  0  0  0  0  0
  -24.6550  -11.7430   20.8270 C   0  0  0  0  0  0  0  0  0  0  0  0
  -26.3030  -12.9890   20.2610 N   0  0  0  0  0  0  0  0  0  0  0  0
  -25.9500  -11.7090   20.5340 N   0  0  0  0  0  0  0  0  0  0  0  0
  -23.9370  -10.4780   21.0150 C   0  0  0  0  0  0  0  0  0  0  0  0
  -24.3640   -9.5230   21.9620 C   0  0  0  0  0  3  0  0  0  0  0  0
  -23.6480   -8.3190   22.1380 C   0  0  0  0  0  3  0  0  0  0  0  0
  -22.4920   -8.0630   21.3630 C   0  0  0  0  0  0  0  0  0  0  0  0
  -22.0830   -9.0090   20.4050 C   0  0  0  0  0  3  0  0  0  0  0  0
  -22.8010  -10.2030   20.2290 C   0  0  0  0  0  3  0  0  0  0  0  0
  -21.7460   -6.9130   21.4480 O   0  0  0  0  0  0  0  0  0  0  0  0
  -21.6820   -6.1820   22.6060 C   0  0  0  0  0  0  0  0  0  0  0  0
  -21.2140   -6.7410   23.8160 C   0  0  0  0  0  3  0  0  0  0  0  0
  -21.1000   -5.9340   24.9660 C   0  0  0  0  0  3  0  0  0  0  0  0
  -21.4420   -4.5700   24.9060 C   0  0  0  0  0  0  0  0  0  0  0  0
  -21.9020   -4.0100   23.7010 C   0  0  0  0  0  3  0  0  0  0  0  0
  -22.0190   -4.8150   22.5540 C   0  0  0  0  0  0  0  0  0  0  0  0
  -22.4410   -4.2660   21.3900 F   0  0  0  0  0  0  0  0  0  0  0  0
  -21.3240   -3.7920   26.0070 F   0  0  0  0  0  0  0  0  0  0  0  0
  -22.7770  -13.5590   21.0850 C   0  0  0  0  0  0  0  0  0  0  0  0
  -22.0370  -12.8690   21.9450 N   0  0  0  0  0  0  0  0  0  0  0  0
  -22.3400  -14.5790   20.5510 O   0  0  0  0  0  0  0  0  0  0  0  0
  -22.4010  -12.0510   22.4090 H   0  0  0  0  0  0  0  0  0  0  0  0
  -21.0930  -13.1680   22.1480 H   0  0  0  0  0  0  0  0  0  0  0  0
  -25.3980  -15.2280   20.2630 N   0  0  0  0  0  0  0  0  0  0  0  0
  -24.6000  -15.8510   20.2870 H   0  0  0  0  0  0  0  0  0  0  0  0
  -26.1990  -15.6290   19.7870 H   0  0  0  0  0  0  0  0  0  0  0  0
  -27.9790  -17.3380   19.8900 C   0  0  0  0  0  0  0  0  0  0  0  0
  -27.0210  -18.1660   20.2850 N   0  0  0  0  0  0  0  0  0  0  0  0
  -27.8340  -16.6400   18.8930 O   0  0  0  0  0  0  0  0  0  0  0  0
  -27.1240  -18.7390   21.1080 H   0  0  0  0  0  0  0  0  0  0  0  0
  -26.1540  -18.2060   19.7700 H   0  0  0  0  0  0  0  0  0  0  0  0
  -29.4990  -22.4960   19.9720 C   0  0  0  0  0  2  0  0  0  0  0  0
  -28.3500  -23.6290   20.2360 C   0  0  0  0  0  2  0  0  0  0  0  0
  -28.5270  -25.1280   19.5950 C   0  0  0  0  0  2  0  0  0  0  0  0
  -28.3430  -26.4530   20.2900 O   0  0  0  0  0  0  0  0  0  0  0  0
  -24.5900  -31.9140   23.2360 C   0  0  0  0  0  0  0  0  0  0  0  0
  -27.2160  -27.3050   20.1880 C   0  0  0  0  0  0  0  0  0  0  0  0
  -23.3940  -30.5070   21.5960 C   0  0  0  0  0  3  0  0  0  0  0  0
  -24.8500  -28.9480   20.1680 C   0  0  0  0  0  0  0  0  0  0  0  0
  -25.9350  -30.8100   21.4240 C   0  0  0  0  0  2  0  0  0  0  0  0
  -26.0150  -29.4270   20.7790 C   0  0  0  0  0  0  0  0  0  0  0  0
  -27.1910  -28.6120   20.7880 C   0  0  0  0  0  3  0  0  0  0  0  0
  -26.0290  -26.8910   19.5450 C   0  0  0  0  0  3  0  0  0  0  0  0
  -24.8630  -27.6890   19.5440 C   0  0  0  0  0  3  0  0  0  0  0  0
  -23.6120  -29.8260   20.2180 C   0  0  0  0  0  2  0  0  0  0  0  0
  -24.6580  -31.0980   22.1400 N   0  0  0  0  0  0  0  0  0  0  0  0
  -23.5050  -32.1930   23.7670 O   0  0  0  0  0  0  0  0  0  0  0  0
  -22.7290  -29.4950   22.5600 C   0  0  0  0  0  0  0  0  0  0  0  0
  -21.4020  -29.3240   22.4350 N   0  0  0  0  0  0  0  0  0  0  0  0
  -23.4070  -28.8690   23.3790 O   0  0  0  0  0  0  0  0  0  0  0  0
  -20.9160  -29.8810   21.7460 H   0  0  0  0  0  0  0  0  0  0  0  0
  -18.0190  -28.1460   22.9450 C   0  0  0  0  0  0  0  0  0  0  0  0
  -20.5810  -28.3880   23.2060 C   0  0  0  0  0  3  0  0  0  0  0  0
  -20.6720  -26.9590   22.6200 C   0  0  0  0  0  2  0  0  0  0  0  0
  -19.5630  -26.6490   21.6100 C   0  0  0  0  0  2  0  0  0  0  0  0
  -18.1850  -26.8000   22.2610 C   0  0  0  0  0  2  0  0  0  0  0  0
  -19.1460  -28.8990   23.3740 C   0  0  0  0  0  0  0  0  0  0  0  0
  -18.9380  -30.1610   23.9720 C   0  0  0  0  0  3  0  0  0  0  0  0
  -17.6370  -30.6690   24.1480 C   0  0  0  0  0  3  0  0  0  0  0  0
  -16.5260  -29.9130   23.7370 C   0  0  0  0  0  3  0  0  0  0  0  0
  -16.7180  -28.6530   23.1420 C   0  0  0  0  0  3  0  0  0  0  0  0
  -25.8700  -32.5500   23.8620 C   0  0  0  0  0  3  0  0  0  0  0  0
  -25.5570  -33.9500   24.1900 N   0  0  0  0  0  0  0  0  0  0  0  0
  -25.8930  -35.0040   23.4350 C   0  0  0  0  0  0  0  0  0  0  0  0
  -26.5700  -34.9020   22.4090 O   0  0  0  0  0  0  0  0  0  0  0  0
  -24.9560  -34.1010   24.9870 H   0  0  0  0  0  0  0  0  0  0  0  0
  -24.1710  -36.8010   23.0710 C   0  0  0  0  0  1  0  0  0  0  0  0
  -25.4030  -36.3920   23.8930 C   0  0  0  0  0  3  0  0  0  0  0  0
  -27.5290  -37.2730   24.7490 C   0  0  0  0  0  1  0  0  0  0  0  0
  -26.4390  -37.4440   23.7940 N   0  0  0  0  0  0  0  0  0  0  0  0
  -26.0310  -38.3640   23.9380 H   0  0  0  0  0  0  0  0  0  0  0  0
  -26.3810  -31.7840   25.1450 C   0  0  1  0  0  0  0  0  0  0  0  0
  -25.2840  -31.5490   26.2100 C   0  0  0  0  0  1  0  0  0  0  0  0
  -26.9680  -30.4070   24.7610 C   0  0  0  0  0  1  0  0  0  0  0  0
  -27.5280  -32.5820   25.8100 C   0  0  0  0  0  1  0  0  0  0  0  0
  1  3  2  0
  2  1  1  0
  4  2  1  0
  5  1  1  0
  6  5  1  0
  6 15  1  0
  7 15  1  0
  8 13  1  0
  9 10  1  0
  9  8  1  0
 11 10  1  0
 11 20  1  0
 11 12  1  0
 13  7  1  0
 13 12  1  0
 14  7  2  0
 15 16  1  0
 17 18  2  0
 18 37  1  0
 19 18  1  0
 19 22  1  0
 20 17  1  0
 20 21  1  0
 21 19  2  0
 22 23  1  0
 23 24  2  0
 25 28  1  0
 25 24  1  0
 26 25  2  0
 27 26  1  0
 27 22  2  0
 28 29  1  0
 29 30  1  0
 30 31  2  0
 32 31  1  0
 32 36  1  0
 33 32  2  0
 34 29  2  0
 34 33  1  0
 35 34  1  0
 37 38  1  0
 38 41  1  0
 38 40  1  0
 39 37  2  0
 42 43  1  0
 42 17  1  0
 44 42  1  0
 45 46  1  0
 45  6  1  0
 46 48  1  0
 47 45  2  0
 49 46  1  0
 50  2  1  0
 50 51  1  0
 52 51  1  0
 52 53  1  0
 54 65  2  0
 55 53  1  0
 55 60  1  0
 56 64  1  0
 56 66  1  0
 57 63  1  0
 57 59  1  0
 58 64  1  0
 59 60  2  0
 59 58  1  0
 61 55  2  0
 62 61  1  0
 62 57  2  0
 63 56  1  0
 64 54  1  0
 66 68  2  0
 67 66  1  0
 69 67  1  0
 70 79  2  0
 70 75  1  0
 71 67  1  0
 71 75  1  0
 72 71  1  0
 73 74  1  0
 73 72  1  0
 74 70  1  0
 75 76  2  0
 76 77  1  0
 78 77  2  0
 79 78  1  0
 80 54  1  0
 80 81  1  0
 80 90  1  0
 81 84  1  0
 82 86  1  0
 82 81  1  0
 83 82  2  0
 86 85  1  0
 88 86  1  0
 88 89  1  0
 88 87  1  0
 90 93  1  1
 90 91  1  0
 92 90  1  0
M  ISO  4   7 100  15 100  52 101  53 101
M  END
>  <TORSDO>  (32) 
F 22

>  <SCORE>  (32) 
-13.555

>  <name>  (32) 
31

>  <ligand_id>  (32) 
31

>  <original_smiles>  (32) 
[H]c1c([H])c([H])c2c(c1[H])C([H])([H])C([H])([H])C([H])([H])C2([H])N([H])C(=O)C1([H])N(C(=O)C([H])(N([H])C(=O)C([H])(N([H])C([H])([H])[H])C([H])([H])[H])C(C([H])([H])[H])(C([H])([H])[H])C([H])([H])[H])C([H])([H])c2c([H])c(OC([H])([H])C([H])([H])C([H])([H])N([H])C(=O)C([H])([H])C([H])(C(=O)N([H])[H])N([H])C(=O)N3C([H])([H])C([H])([H])C([H])([H])C([H])(n4nc(-c5c([H])c([H])c(Oc6c([H])c([H])c(F)c([H])c6F)c([H])c5[H])c(C(=O)N([H])[H])c4N([H])[H])C3([H])[H])c([H])c([H])c2C1([H])[H]

>  <smiles>  (32) 
[H]c1c([H])c([H])c2c(c1[H])C([H])([H])C([H])([H])C([H])([H])C2([H])N([H])C(=O)C1([H])N(C(=O)C([H])(N([H])C(=O)C([H])(N([H])C([H])([H])[H])C([H])([H])[H])C(C([H])([H])[H])(C([H])([H])[H])C([H])([H])[H])C([H])([H])c2c([H])c(OC([H])([H])C([H])([H])C([H])([H])N([H])C(=O)C([H])([H])C([H])(C(=O)N([H])[H])N([H])C(=O)N3C([H])([H])C([H])([H])C([H])([H])C([H])(n4nc(-c5c([H])c([H])c(Oc6c([H])c([H])c(F)c([H])c6F)c([H])c5[H])c(C(=O)N([H])[H])c4N([H])[H])C3([H])[H])c([H])c([H])c2C1([H])[H]

$$$$
32:0:0
     RDKit          3D

 95103  0  0  1  0  0  0  0  0999 V2000
  -30.2870  -20.6170   20.7530 C   0  0  0  0  0  2  0  0  0  0  0  0
  -29.1570  -21.7170   20.6340 C   0  0  0  0  0  2  0  0  0  0  0  0
  -29.6220  -23.1250   20.3440 N   0  0  0  0  0  4  0  0  0  0  0  0
  -30.1060  -23.5000   21.1450 H   0  0  0  0  0  0  0  0  0  0  0  0
  -30.3070  -23.0620   19.6080 H   0  0  0  0  0  0  0  0  0  0  0  0
  -28.6040  -24.1410   19.8620 C   0  0  0  0  0  2  0  0  0  0  0  0
  -28.3300  -25.3510   20.8250 C   0  0  0  0  0  2  0  0  0  0  0  0
  -28.3770  -26.6700   20.2030 O   0  0  0  0  0  0  0  0  0  0  0  0
  -24.5860  -31.9190   23.2490 C   0  0  0  0  0  0  0  0  0  0  0  0
  -27.2160  -27.4310   20.2010 C   0  0  0  0  0  0  0  0  0  0  0  0
  -23.3740  -30.5130   21.6130 C   0  0  0  0  0  3  0  0  0  0  0  0
  -24.8280  -28.9700   20.1820 C   0  0  0  0  0  0  0  0  0  0  0  0
  -25.8940  -30.8770   21.3900 C   0  0  0  0  0  2  0  0  0  0  0  0
  -25.9860  -29.4930   20.7690 C   0  0  0  0  0  0  0  0  0  0  0  0
  -27.1860  -28.7340   20.7660 C   0  0  0  0  0  3  0  0  0  0  0  0
  -26.0440  -26.9360   19.5940 C   0  0  0  0  0  3  0  0  0  0  0  0
  -24.8580  -27.6990   19.5780 C   0  0  0  0  0  3  0  0  0  0  0  0
  -23.5760  -29.8240   20.2350 C   0  0  0  0  0  2  0  0  0  0  0  0
  -24.6380  -31.1180   22.1450 N   0  0  0  0  0  0  0  0  0  0  0  0
  -23.5050  -32.1870   23.7950 O   0  0  0  0  0  0  0  0  0  0  0  0
  -22.7250  -29.4970   22.5770 C   0  0  0  0  0  0  0  0  0  0  0  0
  -21.3980  -29.3170   22.4570 N   0  0  0  0  0  0  0  0  0  0  0  0
  -23.4120  -28.8710   23.3910 O   0  0  0  0  0  0  0  0  0  0  0  0
  -20.9060  -29.8800   21.7780 H   0  0  0  0  0  0  0  0  0  0  0  0
  -18.0310  -28.1180   22.9450 C   0  0  0  0  0  0  0  0  0  0  0  0
  -20.5860  -28.3790   23.2320 C   0  0  0  0  0  3  0  0  0  0  0  0
  -20.6940  -26.9450   22.6680 C   0  0  0  0  0  2  0  0  0  0  0  0
  -19.6030  -26.6160   21.6450 C   0  0  0  0  0  2  0  0  0  0  0  0
  -18.2130  -26.7710   22.2620 C   0  0  0  0  0  2  0  0  0  0  0  0
  -19.1460  -28.8800   23.3840 C   0  0  0  0  0  0  0  0  0  0  0  0
  -18.9230  -30.1440   23.9730 C   0  0  0  0  0  3  0  0  0  0  0  0
  -17.6160  -30.6410   24.1360 C   0  0  0  0  0  3  0  0  0  0  0  0
  -16.5150  -29.8740   23.7160 C   0  0  0  0  0  3  0  0  0  0  0  0
  -16.7230  -28.6140   23.1270 C   0  0  0  0  0  3  0  0  0  0  0  0
  -25.8720  -32.5540   23.8620 C   0  0  0  0  0  3  0  0  0  0  0  0
  -25.5650  -33.9530   24.1940 N   0  0  0  0  0  0  0  0  0  0  0  0
  -25.8940  -35.0050   23.4320 C   0  0  0  0  0  0  0  0  0  0  0  0
  -26.5610  -34.9000   22.4000 O   0  0  0  0  0  0  0  0  0  0  0  0
  -24.9850  -34.1080   25.0060 H   0  0  0  0  0  0  0  0  0  0  0  0
  -24.1670  -36.7950   23.0670 C   0  0  0  0  0  1  0  0  0  0  0  0
  -25.4060  -36.3960   23.8880 C   0  0  0  0  0  3  0  0  0  0  0  0
  -27.5410  -37.2700   24.7220 C   0  0  0  0  0  1  0  0  0  0  0  0
  -26.4380  -37.4500   23.7800 N   0  0  0  0  0  0  0  0  0  0  0  0
  -26.0320  -38.3670   23.9430 H   0  0  0  0  0  0  0  0  0  0  0  0
  -26.3990  -31.7800   25.1320 C   0  0  1  0  0  0  0  0  0  0  0  0
  -25.3150  -31.5360   26.2080 C   0  0  0  0  0  1  0  0  0  0  0  0
  -26.9740  -30.4060   24.7230 C   0  0  0  0  0  1  0  0  0  0  0  0
  -27.5570  -32.5690   25.7850 C   0  0  0  0  0  1  0  0  0  0  0  0
  -29.7030  -19.3040   20.9600 O   0  0  0  0  0  0  0  0  0  0  0  0
  -30.5610  -14.5710   20.1010 C   0  0  0  0  0  0  0  0  0  0  0  0
  -30.1620  -12.4240   18.9200 C   0  0  0  0  0  2  0  0  0  0  0  0
  -29.1770  -12.6800   17.7640 C   0  0  0  0  0  2  0  0  0  0  0  0
  -27.7200  -12.5470   18.2550 C   0  0  0  0  0  2  0  0  0  0  0  0
  -27.4590  -13.3350   19.5720 C   0  0  0  0  0  3  0  0  0  0  0  0
  -28.5690  -13.0930   20.6180 C   0  0  0  0  0  2  0  0  0  0  0  0
  -29.8660  -13.3960   19.9870 N   0  0  0  0  0  0  0  0  0  0  0  0
  -31.5780  -14.8020   19.4400 O   0  0  0  0  0  0  0  0  0  0  0  0
  -31.7250  -16.4430   22.4590 C   0  0  0  0  0  2  0  0  0  0  0  0
  -30.5310  -15.4780   22.3270 C   0  0  0  0  0  2  0  0  0  0  0  0
  -29.5880  -16.8730   20.5640 C   0  0  0  0  0  2  0  0  0  0  0  0
  -31.3190  -17.9150   22.2360 C   0  0  0  0  0  3  0  0  0  0  0  0
  -30.5250  -18.1000   20.9050 C   0  0  0  0  0  3  0  0  0  0  0  0
  -30.0580  -15.5080   20.9480 N   0  0  0  0  0  0  0  0  0  0  0  0
  -25.1020  -13.9160   20.4180 C   0  0  0  0  0  0  0  0  0  0  0  0
  -24.0610  -13.1310   20.8350 C   0  0  0  0  0  0  0  0  0  0  0  0
  -24.5260  -11.7800   20.7680 C   0  0  0  0  0  0  0  0  0  0  0  0
  -26.1360  -13.0440   20.1210 N   0  0  0  0  0  0  0  0  0  0  0  0
  -25.8000  -11.7560   20.3910 N   0  0  0  0  0  0  0  0  0  0  0  0
  -23.8170  -10.5120   20.9810 C   0  0  0  0  0  0  0  0  0  0  0  0
  -24.2930   -9.5390   21.8910 C   0  0  0  0  0  3  0  0  0  0  0  0
  -23.5770   -8.3420   22.0970 C   0  0  0  0  0  3  0  0  0  0  0  0
  -22.3740   -8.1020   21.3910 C   0  0  0  0  0  0  0  0  0  0  0  0
  -21.9210   -9.0580   20.4670 C   0  0  0  0  0  3  0  0  0  0  0  0
  -22.6350  -10.2500   20.2600 C   0  0  0  0  0  3  0  0  0  0  0  0
  -21.6280   -6.9530   21.5070 O   0  0  0  0  0  0  0  0  0  0  0  0
  -21.6230   -6.2090   22.6600 C   0  0  0  0  0  0  0  0  0  0  0  0
  -21.2570   -6.7660   23.9060 C   0  0  0  0  0  3  0  0  0  0  0  0
  -21.1980   -5.9500   25.0530 C   0  0  0  0  0  3  0  0  0  0  0  0
  -21.4970   -4.5770   24.9570 C   0  0  0  0  0  0  0  0  0  0  0  0
  -21.8560   -4.0200   23.7170 C   0  0  0  0  0  3  0  0  0  0  0  0
  -21.9150   -4.8340   22.5730 C   0  0  0  0  0  0  0  0  0  0  0  0
  -22.2400   -4.2870   21.3760 F   0  0  0  0  0  0  0  0  0  0  0  0
  -21.4300   -3.7900   26.0560 F   0  0  0  0  0  0  0  0  0  0  0  0
  -22.6780  -13.5970   21.1850 C   0  0  0  0  0  0  0  0  0  0  0  0
  -22.0020  -12.8960   22.0880 N   0  0  0  0  0  0  0  0  0  0  0  0
  -22.2070  -14.6210   20.6880 O   0  0  0  0  0  0  0  0  0  0  0  0
  -22.3840  -12.0620   22.5090 H   0  0  0  0  0  0  0  0  0  0  0  0
  -21.0800  -13.2020   22.3610 H   0  0  0  0  0  0  0  0  0  0  0  0
  -25.2540  -15.2900   20.2460 N   0  0  0  0  0  0  0  0  0  0  0  0
  -24.5130  -15.9560   20.4290 H   0  0  0  0  0  0  0  0  0  0  0  0
  -26.1080  -15.7320   19.9310 H   0  0  0  0  0  0  0  0  0  0  0  0
  -30.6050  -18.4570   23.4200 N   0  0  0  0  0  4  0  0  0  0  0  0
  -29.6460  -18.1560   23.4390 H   0  0  0  0  0  0  0  0  0  0  0  0
  -30.6150  -19.4640   23.4250 H   0  0  0  0  0  0  0  0  0  0  0  0
  -31.0510  -18.1600   24.2710 H   0  0  0  0  0  0  0  0  0  0  0  0
  1 49  1  0
  2  1  1  0
  3  2  1  0
  3  4  1  0
  5  3  1  0
  6  3  1  0
  6  7  1  0
  8  7  1  0
  9 20  2  0
 10  8  1  0
 10 15  1  0
 11 19  1  0
 11 21  1  0
 12 18  1  0
 12 14  1  0
 13 19  1  0
 14 13  1  0
 15 14  2  0
 16 10  2  0
 17 16  1  0
 17 12  2  0
 18 11  1  0
 19  9  1  0
 21 23  2  0
 22 21  1  0
 24 22  1  0
 25 34  2  0
 25 30  1  0
 26 22  1  0
 26 30  1  0
 27 26  1  0
 28 29  1  0
 28 27  1  0
 29 25  1  0
 30 31  2  0
 31 32  1  0
 33 32  2  0
 34 33  1  0
 35  9  1  0
 35 36  1  0
 35 45  1  0
 36 39  1  0
 37 41  1  0
 37 36  1  0
 38 37  2  0
 41 40  1  0
 43 41  1  0
 43 44  1  0
 43 42  1  0
 45 48  1  1
 45 46  1  0
 47 45  1  0
 50 63  1  0
 51 56  1  0
 52 53  1  0
 52 51  1  0
 54 53  1  0
 54 67  1  0
 54 55  1  0
 56 50  1  0
 56 55  1  0
 57 50  2  0
 59 58  1  0
 60 62  1  0
 60 63  1  0
 61 58  1  0
 61 92  1  0
 62 49  1  0
 62 61  1  0
 63 59  1  0
 64 65  2  0
 65 84  1  0
 66 65  1  0
 66 69  1  0
 67 68  1  0
 67 64  1  0
 68 66  2  0
 69 70  1  0
 70 71  2  0
 72 75  1  0
 72 71  1  0
 73 72  2  0
 74 73  1  0
 74 69  2  0
 75 76  1  0
 76 77  1  0
 77 78  2  0
 79 78  1  0
 79 83  1  0
 80 79  2  0
 81 76  2  0
 81 80  1  0
 82 81  1  0
 84 85  1  0
 85 88  1  0
 85 87  1  0
 86 84  2  0
 89 64  1  0
 89 90  1  0
 91 89  1  0
 92 94  1  0
 92 93  1  0
 92 95  1  0
M  ISO  4   7 101   8 101  50 100  63 100
M  END
>  <TORSDO>  (33) 
F 22

>  <SCORE>  (33) 
-11.250

>  <name>  (33) 
32

>  <ligand_id>  (33) 
32

>  <original_smiles>  (33) 
[H]c1c([H])c([H])c2c(c1[H])C([H])([H])C([H])([H])C([H])([H])C2([H])N([H])C(=O)C1([H])N(C(=O)C([H])(N([H])C(=O)C([H])(N([H])C([H])([H])[H])C([H])([H])[H])C(C([H])([H])[H])(C([H])([H])[H])C([H])([H])[H])C([H])([H])c2c([H])c(OC([H])([H])C([H])([H])[N+]([H])([H])C([H])([H])C([H])([H])OC3([H])C([H])([H])N(C(=O)N4C([H])([H])C([H])([H])C([H])([H])C([H])(n5nc(-c6c([H])c([H])c(Oc7c([H])c([H])c(F)c([H])c7F)c([H])c6[H])c(C(=O)N([H])[H])c5N([H])[H])C4([H])[H])C([H])([H])C([H])([H])C3([H])[N+]([H])([H])[H])c([H])c([H])c2C1([H])[H]

>  <smiles>  (33) 
[H]c1c([H])c([H])c2c(c1[H])C([H])([H])C([H])([H])C([H])([H])C2([H])N([H])C(=O)C1([H])N(C(=O)C([H])(N([H])C(=O)C([H])(N([H])C([H])([H])[H])C([H])([H])[H])C(C([H])([H])[H])(C([H])([H])[H])C([H])([H])[H])C([H])([H])c2c([H])c(OC([H])([H])C([H])([H])[N+]([H])([H])C([H])([H])C([H])([H])OC3([H])C([H])([H])N(C(=O)N4C([H])([H])C([H])([H])C([H])([H])C([H])(n5nc(-c6c([H])c([H])c(Oc7c([H])c([H])c(F)c([H])c7F)c([H])c6[H])c(C(=O)N([H])[H])c5N([H])[H])C4([H])[H])C([H])([H])C([H])([H])C3([H])[N+]([H])([H])[H])c([H])c([H])c2C1([H])[H]

$$$$
33:0:0
     RDKit          3D

 92100  0  0  1  0  0  0  0  0999 V2000
  -28.7630  -21.7570   19.7280 C   0  0  0  0  0  3  0  0  0  0  0  0
  -29.6250  -19.8080   21.5680 C   0  0  0  0  0  2  0  0  0  0  0  0
  -29.5840  -18.9180   19.4000 C   0  0  0  0  0  2  0  0  0  0  0  0
  -29.7000  -20.3840   20.1230 C   0  0  0  0  0  3  0  0  0  0  0  0
  -30.1010  -18.2890   21.6210 C   0  0  0  0  0  3  0  0  0  0  0  0
  -30.4070  -17.7530   20.1910 C   0  0  0  0  0  3  0  0  0  0  0  0
  -30.9730  -15.0360   20.1040 C   0  0  0  0  0  0  0  0  0  0  0  0
  -30.8720  -12.6190   19.3660 C   0  0  0  0  0  2  0  0  0  0  0  0
  -29.9590  -12.4840   18.1290 C   0  0  0  0  0  2  0  0  0  0  0  0
  -28.4750  -12.3520   18.5340 C   0  0  0  0  0  2  0  0  0  0  0  0
  -28.0610  -13.3550   19.6460 C   0  0  0  0  0  3  0  0  0  0  0  0
  -29.1010  -13.4330   20.7780 C   0  0  0  0  0  2  0  0  0  0  0  0
  -30.3810  -13.7820   20.1490 N   0  0  0  0  0  0  0  0  0  0  0  0
  -32.1930  -15.0910   19.9070 O   0  0  0  0  0  0  0  0  0  0  0  0
  -30.1590  -16.1980   20.0620 N   0  0  0  0  0  0  0  0  0  0  0  0
  -29.1810  -15.9590   20.0130 H   0  0  0  0  0  0  0  0  0  0  0  0
  -25.7070  -14.0260   20.4000 C   0  0  0  0  0  0  0  0  0  0  0  0
  -24.6130  -13.2930   20.7640 C   0  0  0  0  0  0  0  0  0  0  0  0
  -25.0210  -11.9230   20.7210 C   0  0  0  0  0  0  0  0  0  0  0  0
  -26.7140  -13.1060   20.1490 N   0  0  0  0  0  0  0  0  0  0  0  0
  -26.3090  -11.8350   20.4080 N   0  0  0  0  0  0  0  0  0  0  0  0
  -24.2400  -10.6950   20.9100 C   0  0  0  0  0  0  0  0  0  0  0  0
  -24.6090   -9.7260   21.8680 C   0  0  0  0  0  3  0  0  0  0  0  0
  -23.8340   -8.5620   22.0460 C   0  0  0  0  0  3  0  0  0  0  0  0
  -22.6750   -8.3560   21.2620 C   0  0  0  0  0  0  0  0  0  0  0  0
  -22.3250   -9.3100   20.2910 C   0  0  0  0  0  3  0  0  0  0  0  0
  -23.1000  -10.4670   20.1140 C   0  0  0  0  0  3  0  0  0  0  0  0
  -21.8750   -7.2420   21.3420 O   0  0  0  0  0  0  0  0  0  0  0  0
  -21.7210   -6.5460   22.5170 C   0  0  0  0  0  0  0  0  0  0  0  0
  -21.2490   -7.1680   23.6930 C   0  0  0  0  0  3  0  0  0  0  0  0
  -21.0430   -6.4040   24.8600 C   0  0  0  0  0  3  0  0  0  0  0  0
  -21.2950   -5.0200   24.8490 C   0  0  0  0  0  0  0  0  0  0  0  0
  -21.7590   -4.3970   23.6790 C   0  0  0  0  0  3  0  0  0  0  0  0
  -21.9690   -5.1590   22.5140 C   0  0  0  0  0  0  0  0  0  0  0  0
  -22.3950   -4.5510   21.3810 F   0  0  0  0  0  0  0  0  0  0  0  0
  -21.0890   -4.2830   25.9660 F   0  0  0  0  0  0  0  0  0  0  0  0
  -23.2390  -13.8270   21.0400 C   0  0  0  0  0  0  0  0  0  0  0  0
  -22.4880  -13.1720   21.9180 N   0  0  0  0  0  0  0  0  0  0  0  0
  -22.8380  -14.8610   20.5090 O   0  0  0  0  0  0  0  0  0  0  0  0
  -22.8250  -12.3380   22.3730 H   0  0  0  0  0  0  0  0  0  0  0  0
  -21.5630  -13.5090   22.1380 H   0  0  0  0  0  0  0  0  0  0  0  0
  -25.9150  -15.3930   20.2390 N   0  0  0  0  0  0  0  0  0  0  0  0
  -25.1570  -16.0520   20.3870 H   0  0  0  0  0  0  0  0  0  0  0  0
  -26.7680  -15.8370   19.9220 H   0  0  0  0  0  0  0  0  0  0  0  0
  -30.9340  -18.3090   24.0780 C   0  0  0  0  0  1  0  0  0  0  0  0
  -31.2510  -17.9890   22.6100 C   0  0  0  0  0  2  0  0  0  0  0  0
  -29.7480  -22.5970   17.4190 C   0  0  0  0  0  1  0  0  0  0  0  0
  -28.6320  -21.8610   18.1820 C   0  0  0  0  0  2  0  0  0  0  0  0
  -30.2860  -23.6740   20.8060 C   0  0  0  0  0  1  0  0  0  0  0  0
  -28.8490  -23.3160   20.4140 C   0  0  0  0  0  3  0  0  0  0  0  0
  -28.1490  -24.7050   19.7580 C   0  0  0  0  0  2  0  0  0  0  0  0
  -28.2440  -26.1750   20.2790 O   0  0  0  0  0  0  0  0  0  0  0  0
  -24.6610  -31.8590   23.2870 C   0  0  0  0  0  0  0  0  0  0  0  0
  -27.1990  -27.1640   20.1870 C   0  0  0  0  0  0  0  0  0  0  0  0
  -23.4500  -30.4790   21.6480 C   0  0  0  0  0  3  0  0  0  0  0  0
  -24.8820  -28.9230   20.1930 C   0  0  0  0  0  0  0  0  0  0  0  0
  -26.0060  -30.7380   21.4740 C   0  0  0  0  0  2  0  0  0  0  0  0
  -26.0680  -29.3560   20.8020 C   0  0  0  0  0  0  0  0  0  0  0  0
  -27.2250  -28.4900   20.7860 C   0  0  0  0  0  3  0  0  0  0  0  0
  -25.9960  -26.8510   19.5170 C   0  0  0  0  0  3  0  0  0  0  0  0
  -24.8640  -27.6880   19.5330 C   0  0  0  0  0  3  0  0  0  0  0  0
  -23.6560  -29.8180   20.2610 C   0  0  0  0  0  2  0  0  0  0  0  0
  -24.7260  -31.0450   22.1910 N   0  0  0  0  0  0  0  0  0  0  0  0
  -23.5780  -32.1420   23.8230 O   0  0  0  0  0  0  0  0  0  0  0  0
  -22.7740  -29.4630   22.6020 C   0  0  0  0  0  0  0  0  0  0  0  0
  -21.4480  -29.2880   22.4740 N   0  0  0  0  0  0  0  0  0  0  0  0
  -23.4490  -28.8330   23.4220 O   0  0  0  0  0  0  0  0  0  0  0  0
  -20.9590  -29.8470   21.7870 H   0  0  0  0  0  0  0  0  0  0  0  0
  -18.0740  -28.0620   22.9650 C   0  0  0  0  0  0  0  0  0  0  0  0
  -20.6300  -28.3460   23.2420 C   0  0  0  0  0  3  0  0  0  0  0  0
  -20.7430  -26.9130   22.6710 C   0  0  0  0  0  2  0  0  0  0  0  0
  -19.6480  -26.5800   21.6520 C   0  0  0  0  0  2  0  0  0  0  0  0
  -18.2620  -26.7160   22.2910 C   0  0  0  0  0  2  0  0  0  0  0  0
  -19.1840  -28.8360   23.3990 C   0  0  0  0  0  0  0  0  0  0  0  0
  -18.9530  -30.0980   23.9880 C   0  0  0  0  0  3  0  0  0  0  0  0
  -17.6430  -30.5870   24.1510 C   0  0  0  0  0  3  0  0  0  0  0  0
  -16.5470  -29.8120   23.7340 C   0  0  0  0  0  3  0  0  0  0  0  0
  -16.7620  -28.5520   23.1470 C   0  0  0  0  0  3  0  0  0  0  0  0
  -25.9440  -32.4890   23.9130 C   0  0  0  0  0  3  0  0  0  0  0  0
  -25.6350  -33.8890   24.2460 N   0  0  0  0  0  0  0  0  0  0  0  0
  -25.9560  -34.9450   23.4850 C   0  0  0  0  0  0  0  0  0  0  0  0
  -26.6110  -34.8430   22.4460 O   0  0  0  0  0  0  0  0  0  0  0  0
  -25.0500  -34.0430   25.0540 H   0  0  0  0  0  0  0  0  0  0  0  0
  -24.2160  -36.7370   23.1670 C   0  0  0  0  0  1  0  0  0  0  0  0
  -25.4760  -36.3330   23.9530 C   0  0  0  0  0  3  0  0  0  0  0  0
  -27.6290  -37.2200   24.7320 C   0  0  0  0  0  1  0  0  0  0  0  0
  -26.5020  -37.3910   23.8200 N   0  0  0  0  0  0  0  0  0  0  0  0
  -26.0950  -38.3070   23.9880 H   0  0  0  0  0  0  0  0  0  0  0  0
  -26.4510  -31.7180   25.1960 C   0  0  1  0  0  0  0  0  0  0  0  0
  -25.3510  -31.4840   26.2580 C   0  0  0  0  0  1  0  0  0  0  0  0
  -27.0350  -30.3380   24.8180 C   0  0  0  0  0  1  0  0  0  0  0  0
  -27.6040  -32.5060   25.8610 C   0  0  0  0  0  1  0  0  0  0  0  0
  1 48  1  0
  1 50  1  0
  2  5  1  0
  3  4  1  0
  3  6  1  0
  4  1  1  0
  4  2  1  0
  5 46  1  0
  6 15  1  0
  6  5  1  0
  7 13  1  0
  8 13  1  0
  9 10  1  0
  9  8  1  0
 11 10  1  0
 11 20  1  0
 11 12  1  0
 13 12  1  0
 14  7  2  0
 15  7  1  0
 16 15  1  0
 17 18  2  0
 18 37  1  0
 19 18  1  0
 19 22  1  0
 20 17  1  0
 20 21  1  0
 21 19  2  0
 22 23  1  0
 23 24  2  0
 25 28  1  0
 25 24  1  0
 26 25  2  0
 27 26  1  0
 27 22  2  0
 28 29  1  0
 29 30  1  0
 30 31  2  0
 32 31  1  0
 32 36  1  0
 33 32  2  0
 34 29  2  0
 34 33  1  0
 35 34  1  0
 37 38  1  0
 38 41  1  0
 38 40  1  0
 39 37  2  0
 42 43  1  0
 42 17  1  0
 44 42  1  0
 46 45  1  0
 47 48  1  0
 50 49  1  0
 51 52  1  0
 51 50  1  0
 53 64  2  0
 54 52  1  0
 54 59  1  0
 55 63  1  0
 55 65  1  0
 56 62  1  0
 56 58  1  0
 57 63  1  0
 58 57  1  0
 59 58  2  0
 60 61  1  0
 60 54  2  0
 61 56  2  0
 62 55  1  0
 63 53  1  0
 65 67  2  0
 66 65  1  0
 68 66  1  0
 69 78  2  0
 69 74  1  0
 70 66  1  0
 70 74  1  0
 71 70  1  0
 72 73  1  0
 72 71  1  0
 73 69  1  0
 74 75  2  0
 75 76  1  0
 77 76  2  0
 78 77  1  0
 79 53  1  0
 79 80  1  0
 79 89  1  0
 80 83  1  0
 81 85  1  0
 81 80  1  0
 82 81  2  0
 85 84  1  0
 87 85  1  0
 87 88  1  0
 87 86  1  0
 89 92  1  1
 89 90  1  0
 91 89  1  0
M  ISO  4   7 100  15 100  51 101  52 101
M  END
>  <TORSDO>  (34) 
F 21

>  <SCORE>  (34) 
-12.760

>  <name>  (34) 
33

>  <ligand_id>  (34) 
33

>  <original_smiles>  (34) 
[H]c1c([H])c([H])c2c(c1[H])C([H])([H])C([H])([H])C([H])([H])C2([H])N([H])C(=O)C1([H])N(C(=O)C([H])(N([H])C(=O)C([H])(N([H])C([H])([H])[H])C([H])([H])[H])C(C([H])([H])[H])(C([H])([H])[H])C([H])([H])[H])C([H])([H])c2c([H])c(OC([H])([H])C([H])(C([H])([H])[H])C([H])(C([H])([H])C([H])([H])[H])C3([H])C([H])([H])C([H])(N([H])C(=O)N4C([H])([H])C([H])([H])C([H])([H])C([H])(n5nc(-c6c([H])c([H])c(Oc7c([H])c([H])c(F)c([H])c7F)c([H])c6[H])c(C(=O)N([H])[H])c5N([H])[H])C4([H])[H])C([H])(C([H])([H])C([H])([H])[H])C3([H])[H])c([H])c([H])c2C1([H])[H]

>  <smiles>  (34) 
[H]c1c([H])c([H])c2c(c1[H])C([H])([H])C([H])([H])C([H])([H])C2([H])N([H])C(=O)C1([H])N(C(=O)C([H])(N([H])C(=O)C([H])(N([H])C([H])([H])[H])C([H])([H])[H])C(C([H])([H])[H])(C([H])([H])[H])C([H])([H])[H])C([H])([H])c2c([H])c(OC([H])([H])C([H])(C([H])([H])[H])C([H])(C([H])([H])C([H])([H])[H])C3([H])C([H])([H])C([H])(N([H])C(=O)N4C([H])([H])C([H])([H])C([H])([H])C([H])(n5nc(-c6c([H])c([H])c(Oc7c([H])c([H])c(F)c([H])c7F)c([H])c6[H])c(C(=O)N([H])[H])c5N([H])[H])C4([H])[H])C([H])(C([H])([H])C([H])([H])[H])C3([H])[H])c([H])c([H])c2C1([H])[H]

$$$$
34:0:0
     RDKit          3D

 94102  0  0  1  0  0  0  0  0999 V2000
  -31.1250  -15.5290   20.8120 C   0  0  0  0  0  0  0  0  0  0  0  0
  -31.0260  -13.2770   19.6690 C   0  0  0  0  0  2  0  0  0  0  0  0
  -30.1370  -13.3200   18.4050 C   0  0  0  0  0  2  0  0  0  0  0  0
  -28.6510  -13.1080   18.7670 C   0  0  0  0  0  2  0  0  0  0  0  0
  -28.1980  -13.9120   20.0160 C   0  0  0  0  0  3  0  0  0  0  0  0
  -29.2230  -13.8410   21.1660 C   0  0  0  0  0  2  0  0  0  0  0  0
  -30.5080  -14.2940   20.6200 N   0  0  0  0  0  0  0  0  0  0  0  0
  -32.3590  -15.5620   20.7550 O   0  0  0  0  0  0  0  0  0  0  0  0
  -29.2300  -19.4510   19.6820 C   0  0  0  0  0  2  0  0  0  0  0  0
  -29.9540  -17.0430   19.3550 C   0  0  0  0  0  2  0  0  0  0  0  0
  -30.7120  -18.1540   21.3540 C   0  0  0  0  0  2  0  0  0  0  0  0
  -28.7750  -18.0390   19.2670 C   0  0  0  0  0  3  0  0  0  0  0  0
  -29.7230  -19.4970   21.1370 C   0  0  0  0  0  3  0  0  0  0  0  0
  -30.3780  -16.7460   20.7370 N   0  0  0  0  0  0  0  0  0  0  0  0
  -25.7750  -14.4040   20.6690 C   0  0  0  0  0  0  0  0  0  0  0  0
  -24.7110  -13.5880   20.9370 C   0  0  0  0  0  0  0  0  0  0  0  0
  -25.2110  -12.2510   20.8670 C   0  0  0  0  0  0  0  0  0  0  0  0
  -26.8500  -13.5610   20.4420 N   0  0  0  0  0  0  0  0  0  0  0  0
  -26.5170  -12.2580   20.6280 N   0  0  0  0  0  0  0  0  0  0  0  0
  -24.5080  -10.9650   20.9550 C   0  0  0  0  0  0  0  0  0  0  0  0
  -24.8470  -10.0030   21.9300 C   0  0  0  0  0  3  0  0  0  0  0  0
  -24.1430   -8.7820   22.0070 C   0  0  0  0  0  3  0  0  0  0  0  0
  -23.0850   -8.5150   21.1050 C   0  0  0  0  0  0  0  0  0  0  0  0
  -22.7670   -9.4670   20.1200 C   0  0  0  0  0  3  0  0  0  0  0  0
  -23.4730  -10.6790   20.0420 C   0  0  0  0  0  3  0  0  0  0  0  0
  -22.3610   -7.3470   21.0870 O   0  0  0  0  0  0  0  0  0  0  0  0
  -22.0680   -6.6670   22.2420 C   0  0  0  0  0  0  0  0  0  0  0  0
  -21.3280   -7.2580   23.2890 C   0  0  0  0  0  3  0  0  0  0  0  0
  -20.9890   -6.5010   24.4270 C   0  0  0  0  0  3  0  0  0  0  0  0
  -21.3790   -5.1510   24.5170 C   0  0  0  0  0  0  0  0  0  0  0  0
  -22.1110   -4.5580   23.4720 C   0  0  0  0  0  3  0  0  0  0  0  0
  -22.4520   -5.3140   22.3370 C   0  0  0  0  0  0  0  0  0  0  0  0
  -23.1400   -4.7330   21.3250 F   0  0  0  0  0  0  0  0  0  0  0  0
  -21.0480   -4.4190   25.6060 F   0  0  0  0  0  0  0  0  0  0  0  0
  -23.2910  -14.0200   21.1560 C   0  0  0  0  0  0  0  0  0  0  0  0
  -22.5450  -13.2820   21.9710 N   0  0  0  0  0  0  0  0  0  0  0  0
  -22.8490  -15.0480   20.6440 O   0  0  0  0  0  0  0  0  0  0  0  0
  -22.9140  -12.4490   22.4050 H   0  0  0  0  0  0  0  0  0  0  0  0
  -21.5920  -13.5550   22.1620 H   0  0  0  0  0  0  0  0  0  0  0  0
  -25.9180  -15.7850   20.5780 N   0  0  0  0  0  0  0  0  0  0  0  0
  -25.1520  -16.4170   20.7840 H   0  0  0  0  0  0  0  0  0  0  0  0
  -26.8170  -16.2470   20.5310 H   0  0  0  0  0  0  0  0  0  0  0  0
  -28.1890  -18.0540   17.8460 C   0  0  0  0  0  0  0  0  0  0  0  0
  -26.9330  -17.6610   17.6890 N   0  0  0  0  0  0  0  0  0  0  0  0
  -28.8670  -18.4170   16.8860 O   0  0  0  0  0  0  0  0  0  0  0  0
  -26.3810  -17.3590   18.4800 H   0  0  0  0  0  0  0  0  0  0  0  0
  -26.5130  -17.6620   16.7700 H   0  0  0  0  0  0  0  0  0  0  0  0
  -30.7380  -21.0510   22.9750 C   0  0  0  0  0  1  0  0  0  0  0  0
  -30.1530  -21.0740   21.5520 C   0  0  0  0  0  3  0  0  0  0  0  0
  -29.1510  -22.3880   21.4360 C   0  0  0  0  0  0  0  0  0  0  0  0
  -27.9420  -22.1920   21.5780 O   0  0  0  0  0  0  0  0  0  0  0  0
  -29.6220  -23.9450   21.1680 C   0  0  0  0  0  3  0  0  0  0  0  0
  -28.6030  -25.1490   20.6090 C   0  0  0  0  0  3  0  0  0  0  0  0
  -28.8160  -26.6830   20.6600 O   0  0  0  0  0  0  0  0  0  0  0  0
  -24.9140  -32.1780   23.5900 C   0  0  0  0  0  0  0  0  0  0  0  0
  -27.7070  -27.5970   20.5850 C   0  0  0  0  0  0  0  0  0  0  0  0
  -23.7800  -30.7260   21.9530 C   0  0  0  0  0  3  0  0  0  0  0  0
  -25.2990  -29.2160   20.5390 C   0  0  0  0  0  0  0  0  0  0  0  0
  -26.3180  -31.1120   21.7920 C   0  0  0  0  0  2  0  0  0  0  0  0
  -26.4550  -29.7240   21.1450 C   0  0  0  0  0  0  0  0  0  0  0  0
  -27.6600  -28.9310   21.1480 C   0  0  0  0  0  3  0  0  0  0  0  0
  -26.5190  -27.1810   19.9430 C   0  0  0  0  0  3  0  0  0  0  0  0
  -25.3420  -27.9570   19.9230 C   0  0  0  0  0  3  0  0  0  0  0  0
  -24.0320  -30.0550   20.5780 C   0  0  0  0  0  2  0  0  0  0  0  0
  -25.0230  -31.3600   22.5000 N   0  0  0  0  0  0  0  0  0  0  0  0
  -23.8160  -32.4160   24.1160 O   0  0  0  0  0  0  0  0  0  0  0  0
  -23.1450  -29.6930   22.9180 C   0  0  0  0  0  0  0  0  0  0  0  0
  -21.9160  -29.2420   22.6100 N   0  0  0  0  0  0  0  0  0  0  0  0
  -23.7670  -29.2960   23.9070 O   0  0  0  0  0  0  0  0  0  0  0  0
  -21.4620  -29.6230   21.7920 H   0  0  0  0  0  0  0  0  0  0  0  0
  -18.7240  -27.5440   22.8260 C   0  0  0  0  0  0  0  0  0  0  0  0
  -21.1600  -28.2330   23.3570 C   0  0  0  0  0  3  0  0  0  0  0  0
  -21.5510  -26.8030   22.9130 C   0  0  0  0  0  2  0  0  0  0  0  0
  -20.6450  -26.2450   21.8110 C   0  0  0  0  0  2  0  0  0  0  0  0
  -19.1880  -26.2030   22.2820 C   0  0  0  0  0  2  0  0  0  0  0  0
  -19.6520  -28.5020   23.3170 C   0  0  0  0  0  0  0  0  0  0  0  0
  -19.1680  -29.7450   23.7800 C   0  0  0  0  0  3  0  0  0  0  0  0
  -17.7910  -30.0350   23.7610 C   0  0  0  0  0  3  0  0  0  0  0  0
  -16.8770  -29.0780   23.2880 C   0  0  0  0  0  3  0  0  0  0  0  0
  -17.3440  -27.8340   22.8260 C   0  0  0  0  0  3  0  0  0  0  0  0
  -26.1620  -32.8720   24.2180 C   0  0  0  0  0  3  0  0  0  0  0  0
  -26.6800  -32.1530   25.5240 C   0  0  1  0  0  0  0  0  0  0  0  0
  -25.5500  -31.7120   26.4820 C   0  0  0  0  0  1  0  0  0  0  0  0
  -27.5100  -30.8970   25.1670 C   0  0  0  0  0  1  0  0  0  0  0  0
  -27.6260  -33.0980   26.3020 C   0  0  0  0  0  1  0  0  0  0  0  0
  -25.8000  -34.2670   24.5110 N   0  0  0  0  0  0  0  0  0  0  0  0
  -26.0380  -35.3060   23.6990 C   0  0  0  0  0  0  0  0  0  0  0  0
  -26.6540  -35.1940   22.6360 O   0  0  0  0  0  0  0  0  0  0  0  0
  -25.2450  -34.4240   25.3400 H   0  0  0  0  0  0  0  0  0  0  0  0
  -24.2040  -37.0010   23.3920 C   0  0  0  0  0  1  0  0  0  0  0  0
  -25.5120  -36.6870   24.1350 C   0  0  0  0  0  3  0  0  0  0  0  0
  -27.6430  -37.7130   24.7990 C   0  0  0  0  0  1  0  0  0  0  0  0
  -26.4810  -37.7840   23.9170 N   0  0  0  0  0  0  0  0  0  0  0  0
  -26.0360  -38.6880   24.0490 H   0  0  0  0  0  0  0  0  0  0  0  0
  2  7  1  0
  3  4  1  0
  3  2  1  0
  5  4  1  0
  5 18  1  0
  5  6  1  0
  7  1  1  0
  7  6  1  0
  8  1  2  0
  9 13  1  0
 10 14  1  0
 12 43  1  0
 12 10  1  0
 12  9  1  0
 13 11  1  0
 13 49  1  0
 14  1  1  0
 14 11  1  0
 15 16  2  0
 16 35  1  0
 17 16  1  0
 17 20  1  0
 18 19  1  0
 18 15  1  0
 19 17  2  0
 20 21  1  0
 21 22  2  0
 23 22  1  0
 24 23  2  0
 25 24  1  0
 25 20  2  0
 26 23  1  0
 26 27  1  0
 27 32  2  0
 27 28  1  0
 28 29  2  0
 29 30  1  0
 30 34  1  0
 31 30  2  0
 32 31  1  0
 33 32  1  0
 35 36  1  0
 36 39  1  0
 36 38  1  0
 37 35  2  0
 40 15  1  0
 40 41  1  0
 42 40  1  0
 44 43  1  0
 44 46  1  0
 45 43  2  0
 47 44  1  0
 49 48  1  0
 50 49  1  0
 50 51  2  0
 52 50  1  0
 53 54  1  0
 53 52  2  0
 55 66  2  0
 56 54  1  0
 56 61  1  0
 57 65  1  0
 57 67  1  0
 58 64  1  0
 58 60  1  0
 59 65  1  0
 60 61  2  0
 60 59  1  0
 62 56  2  0
 63 62  1  0
 63 58  2  0
 64 57  1  0
 65 55  1  0
 67 69  2  0
 68 67  1  0
 70 68  1  0
 71 76  1  0
 72 68  1  0
 73 72  1  0
 74 75  1  0
 74 73  1  0
 75 71  1  0
 76 72  1  0
 76 77  2  0
 78 77  1  0
 79 78  2  0
 80 71  2  0
 80 79  1  0
 81 55  1  0
 81 86  1  0
 81 82  1  0
 82 85  1  1
 82 83  1  0
 84 82  1  0
 86 89  1  0
 87 91  1  0
 87 86  1  0
 88 87  2  0
 91 90  1  0
 93 94  1  0
 93 91  1  0
 93 92  1  0
M  ISO  4   1 100  14 100  53 101  54 101
M  END
>  <TORSDO>  (35) 
F 20

>  <SCORE>  (35) 
-11.291

>  <name>  (35) 
34

>  <ligand_id>  (35) 
34

>  <original_smiles>  (35) 
[H]c1c([H])c([H])c2c(c1[H])C([H])([H])C([H])([H])C([H])([H])C2([H])N([H])C(=O)C1([H])N(C(=O)C([H])(N([H])C(=O)C([H])(N([H])C([H])([H])[H])C([H])([H])[H])C(C([H])([H])[H])(C([H])([H])[H])C([H])([H])[H])C([H])([H])c2c([H])c(OC([H])([H])C([H])([H])C(=O)C([H])(C([H])([H])[H])C3([H])C([H])([H])N(C(=O)N4C([H])([H])C([H])([H])C([H])([H])C([H])(n5nc(-c6c([H])c([H])c(Oc7c([H])c([H])c(F)c([H])c7F)c([H])c6[H])c(C(=O)N([H])[H])c5N([H])[H])C4([H])[H])C([H])([H])C([H])(C(=O)N([H])[H])C3([H])[H])c([H])c([H])c2C1([H])[H]

>  <smiles>  (35) 
[H]c1c([H])c([H])c2c(c1[H])C([H])([H])C([H])([H])C([H])([H])C2([H])N([H])C(=O)C1([H])N(C(=O)C([H])(N([H])C(=O)C([H])(N([H])C([H])([H])[H])C([H])([H])[H])C(C([H])([H])[H])(C([H])([H])[H])C([H])([H])[H])C([H])([H])c2c([H])c(OC([H])([H])C([H])([H])C(=O)C([H])(C([H])([H])[H])C3([H])C([H])([H])N(C(=O)N4C([H])([H])C([H])([H])C([H])([H])C([H])(n5nc(-c6c([H])c([H])c(Oc7c([H])c([H])c(F)c([H])c7F)c([H])c6[H])c(C(=O)N([H])[H])c5N([H])[H])C4([H])[H])C([H])([H])C([H])(C(=O)N([H])[H])C3([H])[H])c([H])c([H])c2C1([H])[H]

$$$$
35:0:0
     RDKit          3D

 92100  0  0  1  0  0  0  0  0999 V2000
  -31.7210  -21.2550   22.3310 C   0  0  0  0  0  3  0  0  0  0  0  0
  -29.4730  -20.3220   22.2490 C   0  0  0  0  0  3  0  0  0  0  0  0
  -31.1820  -22.5590   22.3110 C   0  0  0  0  0  3  0  0  0  0  0  0
  -28.9370  -21.6230   22.2170 C   0  0  0  0  0  3  0  0  0  0  0  0
  -30.8700  -20.1280   22.3190 C   0  0  0  0  0  0  0  0  0  0  0  0
  -29.7850  -22.7490   22.2700 C   0  0  0  0  0  0  0  0  0  0  0  0
  -31.4510  -18.7270   22.4770 C   0  0  0  0  0  2  0  0  0  0  0  0
  -30.8560  -17.6520   21.5450 C   0  0  0  0  0  2  0  0  0  0  0  0
  -31.4080  -16.2530   21.8860 C   0  0  0  0  0  2  0  0  0  0  0  0
  -30.9310  -14.4680   20.2020 C   0  0  0  0  0  0  0  0  0  0  0  0
  -30.4760  -12.4110   18.9150 C   0  0  0  0  0  2  0  0  0  0  0  0
  -29.4940  -12.6550   17.7550 C   0  0  0  0  0  2  0  0  0  0  0  0
  -28.0400  -12.5180   18.2400 C   0  0  0  0  0  2  0  0  0  0  0  0
  -27.7620  -13.3490   19.5200 C   0  0  0  0  0  3  0  0  0  0  0  0
  -28.8480  -13.0950   20.5910 C   0  0  0  0  0  2  0  0  0  0  0  0
  -30.1700  -13.3620   19.9930 N   0  0  0  0  0  0  0  0  0  0  0  0
  -31.8990  -14.7700   19.4970 O   0  0  0  0  0  0  0  0  0  0  0  0
  -30.6200  -15.1710   21.2980 N   0  0  0  0  0  0  0  0  0  0  0  0
  -29.8290  -14.8370   21.8290 H   0  0  0  0  0  0  0  0  0  0  0  0
  -25.3880  -13.9800   20.2920 C   0  0  0  0  0  0  0  0  0  0  0  0
  -24.3280  -13.2180   20.7050 C   0  0  0  0  0  0  0  0  0  0  0  0
  -24.7810  -11.8630   20.6750 C   0  0  0  0  0  0  0  0  0  0  0  0
  -26.4210  -13.0910   20.0420 N   0  0  0  0  0  0  0  0  0  0  0  0
  -26.0600  -11.8120   20.3270 N   0  0  0  0  0  0  0  0  0  0  0  0
  -24.0550  -10.6070   20.9050 C   0  0  0  0  0  0  0  0  0  0  0  0
  -24.4730   -9.6810   21.8860 C   0  0  0  0  0  3  0  0  0  0  0  0
  -23.7500   -8.4890   22.1000 C   0  0  0  0  0  3  0  0  0  0  0  0
  -22.5920   -8.2140   21.3330 C   0  0  0  0  0  0  0  0  0  0  0  0
  -22.1920   -9.1280   20.3440 C   0  0  0  0  0  3  0  0  0  0  0  0
  -22.9160  -10.3130   20.1280 C   0  0  0  0  0  3  0  0  0  0  0  0
  -21.8410   -7.0700   21.4540 O   0  0  0  0  0  0  0  0  0  0  0  0
  -21.7260   -6.4060   22.6490 C   0  0  0  0  0  0  0  0  0  0  0  0
  -21.2240   -7.0380   23.8070 C   0  0  0  0  0  3  0  0  0  0  0  0
  -21.0580   -6.3000   24.9970 C   0  0  0  0  0  3  0  0  0  0  0  0
  -21.3860   -4.9310   25.0280 C   0  0  0  0  0  0  0  0  0  0  0  0
  -21.8810   -4.2980   23.8730 C   0  0  0  0  0  3  0  0  0  0  0  0
  -22.0480   -5.0340   22.6870 C   0  0  0  0  0  0  0  0  0  0  0  0
  -22.5060   -4.4160   21.5720 F   0  0  0  0  0  0  0  0  0  0  0  0
  -21.2190   -4.2190   26.1670 F   0  0  0  0  0  0  0  0  0  0  0  0
  -22.9420  -13.7060   21.0170 C   0  0  0  0  0  0  0  0  0  0  0  0
  -22.2410  -13.0230   21.9150 N   0  0  0  0  0  0  0  0  0  0  0  0
  -22.4920  -14.7260   20.4990 O   0  0  0  0  0  0  0  0  0  0  0  0
  -22.6180  -12.1960   22.3540 H   0  0  0  0  0  0  0  0  0  0  0  0
  -21.3110  -13.3300   22.1650 H   0  0  0  0  0  0  0  0  0  0  0  0
  -25.5550  -15.3470   20.0910 N   0  0  0  0  0  0  0  0  0  0  0  0
  -24.7980  -16.0100   20.2140 H   0  0  0  0  0  0  0  0  0  0  0  0
  -26.4050  -15.7750   19.7440 H   0  0  0  0  0  0  0  0  0  0  0  0
  -29.1780  -24.1390   22.3900 C   0  0  0  0  0  2  0  0  0  0  0  0
  -30.2810  -26.3670   21.8760 C   0  0  0  0  0  1  0  0  0  0  0  0
  -29.5490  -25.1540   21.2730 C   0  0  0  0  0  3  0  0  0  0  0  0
  -28.2810  -25.5890   20.5080 C   0  0  0  0  0  2  0  0  0  0  0  0
  -28.4440  -26.8180   19.7940 O   0  0  0  0  0  0  0  0  0  0  0  0
  -24.5280  -31.7140   23.0970 C   0  0  0  0  0  0  0  0  0  0  0  0
  -27.2790  -27.5440   19.7770 C   0  0  0  0  0  0  0  0  0  0  0  0
  -23.3510  -30.3600   21.3930 C   0  0  0  0  0  3  0  0  0  0  0  0
  -24.8410  -28.9490   19.8780 C   0  0  0  0  0  0  0  0  0  0  0  0
  -25.8610  -30.8180   21.1940 C   0  0  0  0  0  2  0  0  0  0  0  0
  -25.9840  -29.4880   20.4800 C   0  0  0  0  0  0  0  0  0  0  0  0
  -27.2120  -28.7940   20.4260 C   0  0  0  0  0  3  0  0  0  0  0  0
  -26.1220  -27.0090   19.1720 C   0  0  0  0  0  3  0  0  0  0  0  0
  -24.9030  -27.7090   19.2180 C   0  0  0  0  0  3  0  0  0  0  0  0
  -23.5690  -29.7590   19.9780 C   0  0  0  0  0  2  0  0  0  0  0  0
  -24.5990  -30.9740   21.9540 N   0  0  0  0  0  0  0  0  0  0  0  0
  -23.4430  -31.9240   23.6560 O   0  0  0  0  0  0  0  0  0  0  0  0
  -22.7420  -29.2720   22.3040 C   0  0  0  0  0  0  0  0  0  0  0  0
  -21.4210  -29.0620   22.1820 N   0  0  0  0  0  0  0  0  0  0  0  0
  -23.4530  -28.6200   23.0740 O   0  0  0  0  0  0  0  0  0  0  0  0
  -20.9090  -29.6430   21.5330 H   0  0  0  0  0  0  0  0  0  0  0  0
  -18.0780  -27.7800   22.6650 C   0  0  0  0  0  0  0  0  0  0  0  0
  -20.6350  -28.0660   22.9100 C   0  0  0  0  0  3  0  0  0  0  0  0
  -20.7530  -26.6740   22.2480 C   0  0  0  0  0  2  0  0  0  0  0  0
  -19.6390  -26.3910   21.2370 C   0  0  0  0  0  2  0  0  0  0  0  0
  -18.2660  -26.4740   21.9120 C   0  0  0  0  0  2  0  0  0  0  0  0
  -19.1910  -28.5350   23.1210 C   0  0  0  0  0  0  0  0  0  0  0  0
  -18.9630  -29.7580   23.7870 C   0  0  0  0  0  3  0  0  0  0  0  0
  -17.6530  -30.2260   24.0040 C   0  0  0  0  0  3  0  0  0  0  0  0
  -16.5550  -29.4660   23.5660 C   0  0  0  0  0  3  0  0  0  0  0  0
  -16.7690  -28.2460   22.9020 C   0  0  0  0  0  3  0  0  0  0  0  0
  -25.8010  -32.3510   23.7390 C   0  0  0  0  0  3  0  0  0  0  0  0
  -25.4660  -33.7320   24.1090 N   0  0  0  0  0  0  0  0  0  0  0  0
  -25.7870  -34.8120   23.3850 C   0  0  0  0  0  0  0  0  0  0  0  0
  -26.4700  -34.7510   22.3580 O   0  0  0  0  0  0  0  0  0  0  0  0
  -24.8600  -33.8530   24.9070 H   0  0  0  0  0  0  0  0  0  0  0  0
  -24.0350  -36.5850   23.0600 C   0  0  0  0  0  1  0  0  0  0  0  0
  -25.2700  -36.1760   23.8770 C   0  0  0  0  0  3  0  0  0  0  0  0
  -27.3780  -37.0710   24.7670 C   0  0  0  0  0  1  0  0  0  0  0  0
  -26.2880  -37.2490   23.8110 N   0  0  0  0  0  0  0  0  0  0  0  0
  -25.8650  -38.1570   23.9800 H   0  0  0  0  0  0  0  0  0  0  0  0
  -26.3330  -31.5500   24.9890 C   0  0  1  0  0  0  0  0  0  0  0  0
  -25.2450  -31.2540   26.0470 C   0  0  0  0  0  1  0  0  0  0  0  0
  -26.9460  -30.1990   24.5480 C   0  0  0  0  0  1  0  0  0  0  0  0
  -27.4670  -32.3460   25.6790 C   0  0  0  0  0  1  0  0  0  0  0  0
  2  5  2  0
  3  1  2  0
  4  2  1  0
  4  6  2  0
  5  1  1  0
  5  7  1  0
  6  3  1  0
  6 48  1  0
  8  9  1  0
  8  7  1  0
 10 18  1  0
 11 16  1  0
 12 13  1  0
 12 11  1  0
 14 13  1  0
 14 23  1  0
 14 15  1  0
 16 10  1  0
 16 15  1  0
 17 10  2  0
 18 19  1  0
 18  9  1  0
 20 21  2  0
 21 40  1  0
 22 21  1  0
 22 25  1  0
 23 20  1  0
 23 24  1  0
 24 22  2  0
 25 26  1  0
 26 27  2  0
 28 31  1  0
 28 27  1  0
 29 28  2  0
 30 29  1  0
 30 25  2  0
 31 32  1  0
 32 37  2  0
 32 33  1  0
 33 34  2  0
 34 35  1  0
 35 39  1  0
 36 35  2  0
 37 36  1  0
 38 37  1  0
 40 41  1  0
 41 44  1  0
 41 43  1  0
 42 40  2  0
 45 46  1  0
 45 20  1  0
 47 45  1  0
 50 49  1  0
 50 48  1  0
 51 50  1  0
 52 51  1  0
 53 64  2  0
 54 52  1  0
 54 59  1  0
 55 63  1  0
 55 65  1  0
 56 62  1  0
 56 58  1  0
 57 63  1  0
 58 57  1  0
 59 58  2  0
 60 61  1  0
 60 54  2  0
 61 56  2  0
 62 55  1  0
 63 53  1  0
 65 67  2  0
 66 65  1  0
 68 66  1  0
 69 78  2  0
 69 74  1  0
 70 66  1  0
 70 74  1  0
 71 70  1  0
 72 73  1  0
 72 71  1  0
 73 69  1  0
 74 75  2  0
 75 76  1  0
 77 76  2  0
 78 77  1  0
 79 53  1  0
 79 80  1  0
 79 89  1  0
 80 83  1  0
 81 85  1  0
 81 80  1  0
 82 81  2  0
 85 84  1  0
 87 85  1  0
 87 88  1  0
 87 86  1  0
 89 92  1  1
 89 90  1  0
 91 89  1  0
M  ISO  4  10 100  18 100  51 101  52 101
M  END
>  <TORSDO>  (36) 
F 22

>  <SCORE>  (36) 
-11.676

>  <name>  (36) 
35

>  <ligand_id>  (36) 
35

>  <original_smiles>  (36) 
[H]c1c([H])c([H])c2c(c1[H])C([H])([H])C([H])([H])C([H])([H])C2([H])N([H])C(=O)C1([H])N(C(=O)C([H])(N([H])C(=O)C([H])(N([H])C([H])([H])[H])C([H])([H])[H])C(C([H])([H])[H])(C([H])([H])[H])C([H])([H])[H])C([H])([H])c2c([H])c(OC([H])([H])C([H])(C([H])([H])[H])C([H])([H])c3c([H])c([H])c(C([H])([H])C([H])([H])C([H])([H])N([H])C(=O)N4C([H])([H])C([H])([H])C([H])([H])C([H])(n5nc(-c6c([H])c([H])c(Oc7c([H])c([H])c(F)c([H])c7F)c([H])c6[H])c(C(=O)N([H])[H])c5N([H])[H])C4([H])[H])c([H])c3[H])c([H])c([H])c2C1([H])[H]

>  <smiles>  (36) 
[H]c1c([H])c([H])c2c(c1[H])C([H])([H])C([H])([H])C([H])([H])C2([H])N([H])C(=O)C1([H])N(C(=O)C([H])(N([H])C(=O)C([H])(N([H])C([H])([H])[H])C([H])([H])[H])C(C([H])([H])[H])(C([H])([H])[H])C([H])([H])[H])C([H])([H])c2c([H])c(OC([H])([H])C([H])(C([H])([H])[H])C([H])([H])c3c([H])c([H])c(C([H])([H])C([H])([H])C([H])([H])N([H])C(=O)N4C([H])([H])C([H])([H])C([H])([H])C([H])(n5nc(-c6c([H])c([H])c(Oc7c([H])c([H])c(F)c([H])c7F)c([H])c6[H])c(C(=O)N([H])[H])c5N([H])[H])C4([H])[H])c([H])c3[H])c([H])c([H])c2C1([H])[H]

$$$$
36:0:0
     RDKit          3D

 91 99  0  0  1  0  0  0  0  0999 V2000
  -29.6520  -19.2270   20.3650 C   0  0  0  0  0  3  0  0  0  0  0  0
  -28.2480  -20.8800   19.3140 C   0  0  0  0  0  2  0  0  0  0  0  0
  -29.2230  -21.7190   20.1630 C   0  0  0  0  0  3  0  0  0  0  0  0
  -28.7350  -19.4570   19.3970 N   0  0  0  0  0  0  0  0  0  0  0  0
  -29.8620  -20.5090   20.9220 N   0  0  0  0  0  0  0  0  0  0  0  0
  -30.5980  -20.6830   21.5970 H   0  0  0  0  0  0  0  0  0  0  0  0
  -27.2770  -17.4970   19.0170 C   0  0  0  0  0  1  0  0  0  0  0  0
  -28.3050  -18.4570   18.4190 C   0  0  0  0  0  2  0  0  0  0  0  0
  -31.1730  -17.9640   22.0030 C   0  0  0  0  0  1  0  0  0  0  0  0
  -30.4370  -17.7800   20.6650 C   0  0  0  0  0  3  0  0  0  0  0  0
  -30.5780  -15.0380   20.3670 C   0  0  0  0  0  0  0  0  0  0  0  0
  -30.3810  -12.7080   19.3680 C   0  0  0  0  0  2  0  0  0  0  0  0
  -29.4360  -12.6480   18.1450 C   0  0  0  0  0  2  0  0  0  0  0  0
  -27.9890  -12.3880   18.6020 C   0  0  0  0  0  2  0  0  0  0  0  0
  -27.5800  -13.3170   19.7760 C   0  0  0  0  0  3  0  0  0  0  0  0
  -28.6510  -13.3810   20.8930 C   0  0  0  0  0  2  0  0  0  0  0  0
  -29.9180  -13.8020   20.2750 N   0  0  0  0  0  0  0  0  0  0  0  0
  -31.7750  -15.0380   20.0720 O   0  0  0  0  0  0  0  0  0  0  0  0
  -29.9000  -16.2780   20.5860 N   0  0  0  0  0  0  0  0  0  0  0  0
  -28.9140  -16.1810   20.7660 H   0  0  0  0  0  0  0  0  0  0  0  0
  -25.2030  -13.8710   20.5460 C   0  0  0  0  0  0  0  0  0  0  0  0
  -24.1480  -13.0870   20.9180 C   0  0  0  0  0  0  0  0  0  0  0  0
  -24.6270  -11.7420   20.8750 C   0  0  0  0  0  0  0  0  0  0  0  0
  -26.2520  -13.0050   20.2880 N   0  0  0  0  0  0  0  0  0  0  0  0
  -25.9160  -11.7170   20.5560 N   0  0  0  0  0  0  0  0  0  0  0  0
  -23.9090  -10.4750   21.0600 C   0  0  0  0  0  0  0  0  0  0  0  0
  -24.3550   -9.5030   21.9820 C   0  0  0  0  0  3  0  0  0  0  0  0
  -23.6360   -8.3010   22.1600 C   0  0  0  0  0  3  0  0  0  0  0  0
  -22.4570   -8.0640   21.4140 C   0  0  0  0  0  0  0  0  0  0  0  0
  -22.0310   -9.0240   20.4800 C   0  0  0  0  0  3  0  0  0  0  0  0
  -22.7490  -10.2180   20.3010 C   0  0  0  0  0  3  0  0  0  0  0  0
  -21.7020   -6.9160   21.5080 O   0  0  0  0  0  0  0  0  0  0  0  0
  -21.6730   -6.1670   22.6550 C   0  0  0  0  0  0  0  0  0  0  0  0
  -21.2600   -6.7070   23.8930 C   0  0  0  0  0  3  0  0  0  0  0  0
  -21.1820   -5.8800   25.0310 C   0  0  0  0  0  3  0  0  0  0  0  0
  -21.5030   -4.5120   24.9350 C   0  0  0  0  0  0  0  0  0  0  0  0
  -21.9100   -3.9720   23.7030 C   0  0  0  0  0  3  0  0  0  0  0  0
  -21.9920   -4.7960   22.5670 C   0  0  0  0  0  0  0  0  0  0  0  0
  -22.3660   -4.2690   21.3770 F   0  0  0  0  0  0  0  0  0  0  0  0
  -21.4170   -3.7130   26.0250 F   0  0  0  0  0  0  0  0  0  0  0  0
  -22.7490  -13.5550   21.1960 C   0  0  0  0  0  0  0  0  0  0  0  0
  -22.0320  -12.8510   22.0660 N   0  0  0  0  0  0  0  0  0  0  0  0
  -22.3030  -14.5780   20.6780 O   0  0  0  0  0  0  0  0  0  0  0  0
  -22.4070  -12.0260   22.5100 H   0  0  0  0  0  0  0  0  0  0  0  0
  -21.0910  -13.1410   22.2920 H   0  0  0  0  0  0  0  0  0  0  0  0
  -25.3490  -15.2380   20.3770 N   0  0  0  0  0  0  0  0  0  0  0  0
  -24.5590  -15.8670   20.4730 H   0  0  0  0  0  0  0  0  0  0  0  0
  -26.1720  -15.6840   20.0000 H   0  0  0  0  0  0  0  0  0  0  0  0
  -28.7680  -23.2360   20.8140 C   0  0  0  0  0  2  0  0  0  0  0  0
  -28.2230  -24.6340   19.9850 C   0  0  0  0  0  2  0  0  0  0  0  0
  -28.2660  -26.1530   20.4090 O   0  0  0  0  0  0  0  0  0  0  0  0
  -24.6120  -31.8920   23.2570 C   0  0  0  0  0  0  0  0  0  0  0  0
  -27.2050  -27.1390   20.2740 C   0  0  0  0  0  0  0  0  0  0  0  0
  -23.4170  -30.4840   21.6190 C   0  0  0  0  0  3  0  0  0  0  0  0
  -24.8760  -28.9050   20.2020 C   0  0  0  0  0  0  0  0  0  0  0  0
  -25.9720  -30.7490   21.4660 C   0  0  0  0  0  2  0  0  0  0  0  0
  -26.0490  -29.3510   20.8200 C   0  0  0  0  0  0  0  0  0  0  0  0
  -27.2100  -28.4850   20.8390 C   0  0  0  0  0  3  0  0  0  0  0  0
  -26.0080  -26.8110   19.5960 C   0  0  0  0  0  3  0  0  0  0  0  0
  -24.8720  -27.6510   19.5700 C   0  0  0  0  0  3  0  0  0  0  0  0
  -23.6450  -29.7990   20.2430 C   0  0  0  0  0  2  0  0  0  0  0  0
  -24.6860  -31.0660   22.1670 N   0  0  0  0  0  0  0  0  0  0  0  0
  -23.5250  -32.1790   23.7800 O   0  0  0  0  0  0  0  0  0  0  0  0
  -22.7360  -29.4860   22.5870 C   0  0  0  0  0  0  0  0  0  0  0  0
  -21.4060  -29.3170   22.4630 N   0  0  0  0  0  0  0  0  0  0  0  0
  -23.4060  -28.8650   23.4170 O   0  0  0  0  0  0  0  0  0  0  0  0
  -20.9210  -29.8690   21.7700 H   0  0  0  0  0  0  0  0  0  0  0  0
  -18.0240  -28.1210   22.9690 C   0  0  0  0  0  0  0  0  0  0  0  0
  -20.5830  -28.3840   23.2380 C   0  0  0  0  0  3  0  0  0  0  0  0
  -20.6840  -26.9490   22.6720 C   0  0  0  0  0  2  0  0  0  0  0  0
  -19.5850  -26.6210   21.6580 C   0  0  0  0  0  2  0  0  0  0  0  0
  -18.2010  -26.7690   22.2980 C   0  0  0  0  0  2  0  0  0  0  0  0
  -19.1430  -28.8870   23.3950 C   0  0  0  0  0  0  0  0  0  0  0  0
  -18.9210  -30.1510   23.9820 C   0  0  0  0  0  3  0  0  0  0  0  0
  -17.6150  -30.6520   24.1450 C   0  0  0  0  0  3  0  0  0  0  0  0
  -16.5120  -29.8840   23.7340 C   0  0  0  0  0  3  0  0  0  0  0  0
  -16.7170  -28.6210   23.1530 C   0  0  0  0  0  3  0  0  0  0  0  0
  -25.8900  -32.5300   23.8820 C   0  0  0  0  0  3  0  0  0  0  0  0
  -26.3950  -31.7740   25.1730 C   0  0  1  0  0  0  0  0  0  0  0  0
  -25.2940  -31.5550   26.2360 C   0  0  0  0  0  1  0  0  0  0  0  0
  -26.9750  -30.3870   24.8060 C   0  0  0  0  0  1  0  0  0  0  0  0
  -27.5410  -32.5730   25.8370 C   0  0  0  0  0  1  0  0  0  0  0  0
  -25.5780  -33.9330   24.2020 N   0  0  0  0  0  0  0  0  0  0  0  0
  -25.9080  -34.9830   23.4370 C   0  0  0  0  0  0  0  0  0  0  0  0
  -26.5730  -34.8730   22.4040 O   0  0  0  0  0  0  0  0  0  0  0  0
  -24.9890  -34.0930   25.0040 H   0  0  0  0  0  0  0  0  0  0  0  0
  -24.1770  -36.7770   23.0950 C   0  0  0  0  0  1  0  0  0  0  0  0
  -25.4270  -36.3750   23.8940 C   0  0  0  0  0  3  0  0  0  0  0  0
  -27.5680  -37.2700   24.6980 C   0  0  0  0  0  1  0  0  0  0  0  0
  -26.4570  -37.4290   23.7620 N   0  0  0  0  0  0  0  0  0  0  0  0
  -26.0500  -38.3470   23.9060 H   0  0  0  0  0  0  0  0  0  0  0  0
  1 10  1  0
  1  5  1  0
  2  4  1  0
  2  3  1  0
  3 49  1  0
  3  5  1  0
  4  1  1  0
  5  6  1  0
  8  7  1  0
  8  4  1  0
 10  9  1  0
 11 19  1  0
 12 17  1  0
 13 14  1  0
 13 12  1  0
 15 14  1  0
 15 24  1  0
 15 16  1  0
 17 11  1  0
 17 16  1  0
 18 11  2  0
 19 10  1  0
 19 20  1  0
 21 22  2  0
 22 41  1  0
 23 22  1  0
 23 26  1  0
 24 21  1  0
 24 25  1  0
 25 23  2  0
 26 27  1  0
 27 28  2  0
 29 32  1  0
 29 28  1  0
 30 29  2  0
 31 30  1  0
 31 26  2  0
 32 33  1  0
 33 34  1  0
 34 35  2  0
 36 35  1  0
 36 40  1  0
 37 36  2  0
 38 33  2  0
 38 37  1  0
 39 38  1  0
 41 42  1  0
 42 45  1  0
 42 44  1  0
 43 41  2  0
 46 47  1  0
 46 21  1  0
 48 46  1  0
 50 51  1  0
 50 49  1  0
 52 63  2  0
 53 51  1  0
 53 58  1  0
 54 62  1  0
 54 64  1  0
 55 61  1  0
 55 57  1  0
 56 62  1  0
 57 58  2  0
 57 56  1  0
 59 53  2  0
 60 59  1  0
 60 55  2  0
 61 54  1  0
 62 52  1  0
 64 66  2  0
 65 64  1  0
 67 65  1  0
 68 77  2  0
 68 73  1  0
 69 65  1  0
 69 73  1  0
 70 69  1  0
 71 72  1  0
 71 70  1  0
 72 68  1  0
 73 74  2  0
 74 75  1  0
 76 75  2  0
 77 76  1  0
 78 52  1  0
 78 83  1  0
 78 79  1  0
 79 82  1  1
 79 80  1  0
 81 79  1  0
 83 86  1  0
 84 88  1  0
 84 83  1  0
 85 84  2  0
 88 87  1  0
 90 88  1  0
 90 91  1  0
 90 89  1  0
M  ISO  4  11 100  19 100  50 101  51 101
M  END
>  <TORSDO>  (37) 
F 20

>  <SCORE>  (37) 
-14.991

>  <name>  (37) 
36

>  <ligand_id>  (37) 
36

>  <original_smiles>  (37) 
[H]c1c([H])c([H])c2c(c1[H])C([H])([H])C([H])([H])C([H])([H])C2([H])N([H])C(=O)C1([H])N(C(=O)C([H])(N([H])C(=O)C([H])(N([H])C([H])([H])[H])C([H])([H])[H])C(C([H])([H])[H])(C([H])([H])[H])C([H])([H])[H])C([H])([H])c2c([H])c(OC([H])([H])C([H])([H])C3([H])[N+]([H])=C(C([H])(N([H])C(=O)N4C([H])([H])C([H])([H])C([H])([H])C([H])(n5nc(-c6c([H])c([H])c(Oc7c([H])c([H])c(F)c([H])c7F)c([H])c6[H])c(C(=O)N([H])[H])c5N([H])[H])C4([H])[H])C([H])([H])[H])N(C([H])([H])C([H])([H])[H])C3([H])[H])c([H])c([H])c2C1([H])[H]

>  <smiles>  (37) 
[H]c1c([H])c([H])c2c(c1[H])C([H])([H])C([H])([H])C([H])([H])C2([H])N([H])C(=O)C1([H])N(C(=O)C([H])(N([H])C(=O)C([H])(N([H])C([H])([H])[H])C([H])([H])[H])C(C([H])([H])[H])(C([H])([H])[H])C([H])([H])[H])C([H])([H])c2c([H])c(OC([H])([H])C([H])([H])C3([H])[N+]([H])=C(C([H])(N([H])C(=O)N4C([H])([H])C([H])([H])C([H])([H])C([H])(n5nc(-c6c([H])c([H])c(Oc7c([H])c([H])c(F)c([H])c7F)c([H])c6[H])c(C(=O)N([H])[H])c5N([H])[H])C4([H])[H])C([H])([H])[H])N(C([H])([H])C([H])([H])[H])C3([H])[H])c([H])c([H])c2C1([H])[H]

$$$$
38:0:0
     RDKit          3D

 95103  0  0  1  0  0  0  0  0999 V2000
  -28.9560  -19.1190   21.2320 C   0  0  0  0  0  2  0  0  0  0  0  0
  -28.8270  -20.6670   21.0150 C   0  0  0  0  0  2  0  0  0  0  0  0
  -29.6400  -18.8120   18.8320 C   0  0  0  0  0  2  0  0  0  0  0  0
  -30.0110  -18.4660   20.2990 C   0  0  0  0  0  3  0  0  0  0  0  0
  -28.4860  -21.0410   19.5500 C   0  0  0  0  0  3  0  0  0  0  0  0
  -29.4830  -20.3600   18.5620 C   0  0  0  0  0  3  0  0  0  0  0  0
  -30.7880  -21.0470   18.5510 N   0  0  0  0  0  4  0  0  0  0  0  0
  -31.2280  -21.0250   19.4530 H   0  0  0  0  0  0  0  0  0  0  0  0
  -30.6740  -22.0060   18.2790 H   0  0  0  0  0  0  0  0  0  0  0  0
  -31.4030  -20.6150   17.8840 H   0  0  0  0  0  0  0  0  0  0  0  0
  -27.9490  -22.5130   19.2420 C   0  0  0  0  0  2  0  0  0  0  0  0
  -28.6510  -23.8980   19.5790 C   0  0  0  0  0  2  0  0  0  0  0  0
  -27.6840  -25.1160   19.2580 C   0  0  0  0  0  2  0  0  0  0  0  0
  -27.9690  -26.5310   19.5780 O   0  0  0  0  0  0  0  0  0  0  0  0
  -24.4260  -31.7240   23.1150 C   0  0  0  0  0  0  0  0  0  0  0  0
  -26.8580  -27.3930   19.6240 C   0  0  0  0  0  0  0  0  0  0  0  0
  -23.1280  -30.4200   21.4720 C   0  0  0  0  0  3  0  0  0  0  0  0
  -24.4930  -28.9840   19.8620 C   0  0  0  0  0  0  0  0  0  0  0  0
  -25.6500  -30.7710   21.1520 C   0  0  0  0  0  2  0  0  0  0  0  0
  -25.6950  -29.4390   20.4180 C   0  0  0  0  0  0  0  0  0  0  0  0
  -26.8800  -28.6530   20.2960 C   0  0  0  0  0  3  0  0  0  0  0  0
  -25.6300  -27.0090   19.0300 C   0  0  0  0  0  3  0  0  0  0  0  0
  -24.4610  -27.7730   19.1610 C   0  0  0  0  0  3  0  0  0  0  0  0
  -23.2560  -29.8380   20.0420 C   0  0  0  0  0  2  0  0  0  0  0  0
  -24.4240  -30.9840   21.9700 N   0  0  0  0  0  0  0  0  0  0  0  0
  -23.3770  -31.9590   23.7310 O   0  0  0  0  0  0  0  0  0  0  0  0
  -22.5330  -29.3370   22.4040 C   0  0  0  0  0  0  0  0  0  0  0  0
  -21.2180  -29.0870   22.2780 N   0  0  0  0  0  0  0  0  0  0  0  0
  -23.2520  -28.7260   23.1980 O   0  0  0  0  0  0  0  0  0  0  0  0
  -20.6950  -29.6340   21.6100 H   0  0  0  0  0  0  0  0  0  0  0  0
  -17.9300  -27.6460   22.7120 C   0  0  0  0  0  0  0  0  0  0  0  0
  -20.4580  -28.0860   23.0270 C   0  0  0  0  0  3  0  0  0  0  0  0
  -20.6720  -26.6710   22.4410 C   0  0  0  0  0  2  0  0  0  0  0  0
  -19.6120  -26.2790   21.4070 C   0  0  0  0  0  2  0  0  0  0  0  0
  -18.2130  -26.3190   22.0280 C   0  0  0  0  0  2  0  0  0  0  0  0
  -18.9840  -28.4820   23.1660 C   0  0  0  0  0  0  0  0  0  0  0  0
  -18.6650  -29.7210   23.7650 C   0  0  0  0  0  3  0  0  0  0  0  0
  -17.3250  -30.1260   23.9120 C   0  0  0  0  0  3  0  0  0  0  0  0
  -16.2850  -29.2880   23.4740 C   0  0  0  0  0  3  0  0  0  0  0  0
  -16.5880  -28.0490   22.8800 C   0  0  0  0  0  3  0  0  0  0  0  0
  -25.7420  -32.3280   23.6920 C   0  0  0  0  0  3  0  0  0  0  0  0
  -25.4570  -33.7150   24.0840 N   0  0  0  0  0  0  0  0  0  0  0  0
  -25.7350  -34.7890   23.3330 C   0  0  0  0  0  0  0  0  0  0  0  0
  -26.3290  -34.7160   22.2540 O   0  0  0  0  0  0  0  0  0  0  0  0
  -24.9210  -33.8460   24.9290 H   0  0  0  0  0  0  0  0  0  0  0  0
  -23.9770  -36.5810   23.1690 C   0  0  0  0  0  1  0  0  0  0  0  0
  -25.2840  -36.1630   23.8620 C   0  0  0  0  0  3  0  0  0  0  0  0
  -27.4690  -37.0500   24.5450 C   0  0  0  0  0  1  0  0  0  0  0  0
  -26.3000  -37.2240   23.6880 N   0  0  0  0  0  0  0  0  0  0  0  0
  -25.9010  -38.1400   23.8800 H   0  0  0  0  0  0  0  0  0  0  0  0
  -26.3150  -31.5100   24.9150 C   0  0  1  0  0  0  0  0  0  0  0  0
  -25.2700  -31.2320   26.0210 C   0  0  0  0  0  1  0  0  0  0  0  0
  -26.8770  -30.1480   24.4470 C   0  0  0  0  0  1  0  0  0  0  0  0
  -27.4950  -32.2800   25.5520 C   0  0  0  0  0  1  0  0  0  0  0  0
  -30.5310  -16.9860   20.6240 C   0  0  0  0  0  3  0  0  0  0  0  0
  -30.3360  -14.6790   19.5650 C   0  0  0  0  0  0  0  0  0  0  0  0
  -29.9100  -12.4830   18.4860 C   0  0  0  0  0  2  0  0  0  0  0  0
  -28.8210  -12.6210   17.4040 C   0  0  0  0  0  2  0  0  0  0  0  0
  -27.4230  -12.4420   18.0250 C   0  0  0  0  0  2  0  0  0  0  0  0
  -27.2240  -13.2940   19.3070 C   0  0  0  0  0  3  0  0  0  0  0  0
  -28.4220  -13.1650   20.2730 C   0  0  0  0  0  2  0  0  0  0  0  0
  -29.6400  -13.5010   19.5220 N   0  0  0  0  0  0  0  0  0  0  0  0
  -31.4140  -14.7930   18.9790 O   0  0  0  0  0  0  0  0  0  0  0  0
  -29.7760  -15.7610   20.1910 N   0  0  0  0  0  0  0  0  0  0  0  0
  -28.8510  -15.6320   20.5730 H   0  0  0  0  0  0  0  0  0  0  0  0
  -24.9680  -13.8520   20.3980 C   0  0  0  0  0  0  0  0  0  0  0  0
  -23.9530  -13.0610   20.8650 C   0  0  0  0  0  0  0  0  0  0  0  0
  -24.3870  -11.7120   20.6810 C   0  0  0  0  0  0  0  0  0  0  0  0
  -25.9560  -12.9850   19.9620 N   0  0  0  0  0  0  0  0  0  0  0  0
  -25.6200  -11.6890   20.1920 N   0  0  0  0  0  0  0  0  0  0  0  0
  -23.6760  -10.4440   20.8900 C   0  0  0  0  0  0  0  0  0  0  0  0
  -24.1510   -9.4710   21.7980 C   0  0  0  0  0  3  0  0  0  0  0  0
  -23.4390   -8.2690   21.9960 C   0  0  0  0  0  3  0  0  0  0  0  0
  -22.2380   -8.0290   21.2860 C   0  0  0  0  0  0  0  0  0  0  0  0
  -21.7820   -8.9900   20.3680 C   0  0  0  0  0  3  0  0  0  0  0  0
  -22.4940  -10.1840   20.1670 C   0  0  0  0  0  3  0  0  0  0  0  0
  -21.4940   -6.8790   21.3960 O   0  0  0  0  0  0  0  0  0  0  0  0
  -21.4200   -6.1780   22.5730 C   0  0  0  0  0  0  0  0  0  0  0  0
  -20.9060   -6.7570   23.7540 C   0  0  0  0  0  3  0  0  0  0  0  0
  -20.7840   -5.9800   24.9230 C   0  0  0  0  0  3  0  0  0  0  0  0
  -21.1660   -4.6250   24.9130 C   0  0  0  0  0  0  0  0  0  0  0  0
  -21.6720   -4.0460   23.7360 C   0  0  0  0  0  3  0  0  0  0  0  0
  -21.7960   -4.8190   22.5690 C   0  0  0  0  0  0  0  0  0  0  0  0
  -22.2650   -4.2510   21.4320 F   0  0  0  0  0  0  0  0  0  0  0  0
  -21.0410   -3.8760   26.0330 F   0  0  0  0  0  0  0  0  0  0  0  0
  -22.6160  -13.5260   21.3640 C   0  0  0  0  0  0  0  0  0  0  0  0
  -22.0040  -12.7740   22.2720 N   0  0  0  0  0  0  0  0  0  0  0  0
  -22.1260  -14.5880   20.9820 O   0  0  0  0  0  0  0  0  0  0  0  0
  -22.4160  -11.9120   22.5990 H   0  0  0  0  0  0  0  0  0  0  0  0
  -21.1130  -13.0640   22.6460 H   0  0  0  0  0  0  0  0  0  0  0  0
  -25.1240  -15.2300   20.2870 N   0  0  0  0  0  0  0  0  0  0  0  0
  -24.3880  -15.8800   20.5440 H   0  0  0  0  0  0  0  0  0  0  0  0
  -25.9230  -15.6840   19.8640 H   0  0  0  0  0  0  0  0  0  0  0  0
  -31.4550  -15.5110   22.5620 C   0  0  0  0  0  1  0  0  0  0  0  0
  -30.8660  -16.8640   22.1320 C   0  0  0  0  0  2  0  0  0  0  0  0
  2  1  1  0
  3  4  1  0
  4 55  1  0
  4  1  1  0
  5 11  1  0
  5  2  1  0
  6  7  1  0
  6  3  1  0
  6  5  1  0
  7  8  1  0
  9  7  1  0
 10  7  1  0
 11 12  1  0
 13 14  1  0
 13 12  1  0
 14 16  1  0
 15 26  2  0
 16 21  1  0
 17 25  1  0
 17 27  1  0
 18 24  1  0
 18 20  1  0
 19 25  1  0
 20 19  1  0
 21 20  2  0
 22 23  1  0
 22 16  2  0
 23 18  2  0
 24 17  1  0
 25 15  1  0
 27 29  2  0
 28 27  1  0
 30 28  1  0
 31 40  2  0
 31 36  1  0
 32 28  1  0
 32 36  1  0
 33 32  1  0
 34 35  1  0
 34 33  1  0
 35 31  1  0
 36 37  2  0
 37 38  1  0
 39 38  2  0
 40 39  1  0
 41 15  1  0
 41 42  1  0
 41 51  1  0
 42 45  1  0
 43 47  1  0
 43 42  1  0
 44 43  2  0
 47 46  1  0
 49 47  1  0
 49 50  1  0
 49 48  1  0
 51 54  1  1
 51 52  1  0
 53 51  1  0
 55 95  1  0
 56 64  1  0
 57 62  1  0
 58 59  1  0
 58 57  1  0
 60 59  1  0
 60 69  1  0
 60 61  1  0
 62 56  1  0
 62 61  1  0
 63 56  2  0
 64 65  1  0
 64 55  1  0
 66 67  2  0
 67 86  1  0
 68 67  1  0
 68 71  1  0
 69 70  1  0
 69 66  1  0
 70 68  2  0
 71 72  1  0
 72 73  2  0
 74 77  1  0
 74 73  1  0
 75 74  2  0
 76 75  1  0
 76 71  2  0
 77 78  1  0
 78 79  1  0
 79 80  2  0
 81 80  1  0
 81 85  1  0
 82 81  2  0
 83 78  2  0
 83 82  1  0
 84 83  1  0
 86 87  1  0
 87 89  1  0
 87 90  1  0
 88 86  2  0
 91 66  1  0
 91 92  1  0
 93 91  1  0
 95 94  1  0
M  ISO  4  13 101  14 101  56 100  64 100
M  END
>  <TORSDO>  (38) 
F 22

>  <SCORE>  (38) 
-10.655

>  <name>  (38) 
38

>  <ligand_id>  (38) 
38

>  <original_smiles>  (38) 
[H]c1c([H])c([H])c2c(c1[H])C([H])([H])C([H])([H])C([H])([H])C2([H])N([H])C(=O)C1([H])N(C(=O)C([H])(N([H])C(=O)C([H])(N([H])C([H])([H])[H])C([H])([H])[H])C(C([H])([H])[H])(C([H])([H])[H])C([H])([H])[H])C([H])([H])c2c([H])c(OC([H])([H])C([H])([H])C([H])([H])C3([H])C([H])([H])C([H])([H])C([H])(C([H])(N([H])C(=O)N4C([H])([H])C([H])([H])C([H])([H])C([H])(n5nc(-c6c([H])c([H])c(Oc7c([H])c([H])c(F)c([H])c7F)c([H])c6[H])c(C(=O)N([H])[H])c5N([H])[H])C4([H])[H])C([H])([H])C([H])([H])[H])C([H])([H])C3([H])[N+]([H])([H])[H])c([H])c([H])c2C1([H])[H]

>  <smiles>  (38) 
[H]c1c([H])c([H])c2c(c1[H])C([H])([H])C([H])([H])C([H])([H])C2([H])N([H])C(=O)C1([H])N(C(=O)C([H])(N([H])C(=O)C([H])(N([H])C([H])([H])[H])C([H])([H])[H])C(C([H])([H])[H])(C([H])([H])[H])C([H])([H])[H])C([H])([H])c2c([H])c(OC([H])([H])C([H])([H])C([H])([H])C3([H])C([H])([H])C([H])([H])C([H])(C([H])(N([H])C(=O)N4C([H])([H])C([H])([H])C([H])([H])C([H])(n5nc(-c6c([H])c([H])c(Oc7c([H])c([H])c(F)c([H])c7F)c([H])c6[H])c(C(=O)N([H])[H])c5N([H])[H])C4([H])[H])C([H])([H])C([H])([H])[H])C([H])([H])C3([H])[N+]([H])([H])[H])c([H])c([H])c2C1([H])[H]

$$$$
39:0:0
     RDKit          3D

 96104  0  0  1  0  0  0  0  0999 V2000
  -30.0840  -22.2360   21.3700 C   0  0  0  0  0  3  0  0  0  0  0  0
  -28.8910  -23.0530   21.0200 N   0  0  0  0  0  4  0  0  0  0  0  0
  -28.2580  -22.4950   20.4700 H   0  0  0  0  0  0  0  0  0  0  0  0
  -28.4120  -23.2520   21.8850 H   0  0  0  0  0  0  0  0  0  0  0  0
  -29.1440  -24.3520   20.3250 C   0  0  0  0  0  2  0  0  0  0  0  0
  -28.3440  -25.5140   20.9470 C   0  0  0  0  0  2  0  0  0  0  0  0
  -28.4290  -26.7160   20.1580 O   0  0  0  0  0  0  0  0  0  0  0  0
  -24.6560  -31.8970   23.2460 C   0  0  0  0  0  0  0  0  0  0  0  0
  -27.2740  -27.4660   20.1530 C   0  0  0  0  0  0  0  0  0  0  0  0
  -23.4340  -30.4940   21.6160 C   0  0  0  0  0  3  0  0  0  0  0  0
  -24.8780  -28.9630   20.1720 C   0  0  0  0  0  0  0  0  0  0  0  0
  -25.9540  -30.8620   21.3860 C   0  0  0  0  0  2  0  0  0  0  0  0
  -26.0390  -29.4890   20.7540 C   0  0  0  0  0  0  0  0  0  0  0  0
  -27.2440  -28.7500   20.7400 C   0  0  0  0  0  3  0  0  0  0  0  0
  -26.1040  -26.9540   19.5550 C   0  0  0  0  0  3  0  0  0  0  0  0
  -24.9060  -27.6930   19.5640 C   0  0  0  0  0  3  0  0  0  0  0  0
  -23.6330  -29.8160   20.2320 C   0  0  0  0  0  2  0  0  0  0  0  0
  -24.7020  -31.1000   22.1420 N   0  0  0  0  0  0  0  0  0  0  0  0
  -23.5820  -32.1670   23.7990 O   0  0  0  0  0  0  0  0  0  0  0  0
  -22.7940  -29.4730   22.5820 C   0  0  0  0  0  0  0  0  0  0  0  0
  -21.4690  -29.2850   22.4670 N   0  0  0  0  0  0  0  0  0  0  0  0
  -23.4880  -28.8500   23.3930 O   0  0  0  0  0  0  0  0  0  0  0  0
  -20.9720  -29.8470   21.7900 H   0  0  0  0  0  0  0  0  0  0  0  0
  -18.1080  -28.0560   22.9630 C   0  0  0  0  0  0  0  0  0  0  0  0
  -20.6610  -28.3450   23.2430 C   0  0  0  0  0  3  0  0  0  0  0  0
  -20.7830  -26.9100   22.6810 C   0  0  0  0  0  2  0  0  0  0  0  0
  -19.6900  -26.5640   21.6660 C   0  0  0  0  0  2  0  0  0  0  0  0
  -18.3030  -26.7010   22.3030 C   0  0  0  0  0  2  0  0  0  0  0  0
  -19.2160  -28.8330   23.3900 C   0  0  0  0  0  0  0  0  0  0  0  0
  -18.9790  -30.1010   23.9650 C   0  0  0  0  0  3  0  0  0  0  0  0
  -17.6680  -30.5890   24.1210 C   0  0  0  0  0  3  0  0  0  0  0  0
  -16.5750  -29.8060   23.7100 C   0  0  0  0  0  3  0  0  0  0  0  0
  -16.7960  -28.5430   23.1320 C   0  0  0  0  0  3  0  0  0  0  0  0
  -25.9490  -32.5280   23.8550 C   0  0  0  0  0  3  0  0  0  0  0  0
  -26.4960  -31.7380   25.1070 C   0  0  1  0  0  0  0  0  0  0  0  0
  -25.4260  -31.4810   26.1930 C   0  0  0  0  0  1  0  0  0  0  0  0
  -27.0790  -30.3710   24.6770 C   0  0  0  0  0  1  0  0  0  0  0  0
  -27.6630  -32.5240   25.7540 C   0  0  0  0  0  1  0  0  0  0  0  0
  -25.6390  -33.9180   24.2120 N   0  0  0  0  0  0  0  0  0  0  0  0
  -25.9520  -34.9830   23.4610 C   0  0  0  0  0  0  0  0  0  0  0  0
  -26.6040  -34.8970   22.4160 O   0  0  0  0  0  0  0  0  0  0  0  0
  -25.0580  -34.0570   25.0250 H   0  0  0  0  0  0  0  0  0  0  0  0
  -24.2050  -36.7650   23.1630 C   0  0  0  0  0  1  0  0  0  0  0  0
  -25.4650  -36.3610   23.9440 C   0  0  0  0  0  3  0  0  0  0  0  0
  -27.6150  -37.2480   24.7350 C   0  0  0  0  0  1  0  0  0  0  0  0
  -26.4890  -37.4220   23.8210 N   0  0  0  0  0  0  0  0  0  0  0  0
  -26.0810  -38.3380   23.9900 H   0  0  0  0  0  0  0  0  0  0  0  0
  -31.2320  -21.1130   23.4380 C   0  0  0  0  0  2  0  0  0  0  0  0
  -30.6950  -22.4190   23.9620 C   0  0  0  0  0  3  0  0  0  0  0  0
  -29.9930  -21.7190   22.8070 C   0  0  0  0  0  3  0  0  0  0  0  0
  -29.2670  -23.6600   25.6770 C   0  0  0  0  0  1  0  0  0  0  0  0
  -30.1630  -22.4510   25.3820 C   0  0  0  0  0  2  0  0  0  0  0  0
  -30.6490  -21.6590   18.9230 C   0  0  0  0  0  1  0  0  0  0  0  0
  -30.3630  -21.1000   20.3350 C   0  0  0  0  0  3  0  0  0  0  0  0
  -29.3540  -19.9140   20.3290 C   0  0  0  0  0  2  0  0  0  0  0  0
  -29.7650  -18.8040   19.3350 C   0  0  0  0  0  2  0  0  0  0  0  0
  -29.3150  -17.3740   19.6820 C   0  0  0  0  0  2  0  0  0  0  0  0
  -29.9960  -16.8180   20.9530 C   0  0  0  0  0  2  0  0  0  0  0  0
  -30.5620  -14.4330   20.4790 C   0  0  0  0  0  0  0  0  0  0  0  0
  -30.3000  -12.3060   19.2780 C   0  0  0  0  0  2  0  0  0  0  0  0
  -29.3390  -12.5330   18.0950 C   0  0  0  0  0  2  0  0  0  0  0  0
  -27.8650  -12.3940   18.5360 C   0  0  0  0  0  2  0  0  0  0  0  0
  -27.5400  -13.1940   19.8270 C   0  0  0  0  0  3  0  0  0  0  0  0
  -28.6070  -12.9170   20.9100 C   0  0  0  0  0  2  0  0  0  0  0  0
  -29.9260  -13.2460   20.3410 N   0  0  0  0  0  0  0  0  0  0  0  0
  -31.6590  -14.6950   19.9750 O   0  0  0  0  0  0  0  0  0  0  0  0
  -29.8080  -15.3770   21.0550 N   0  0  0  0  0  0  0  0  0  0  0  0
  -28.9320  -15.0570   21.4390 H   0  0  0  0  0  0  0  0  0  0  0  0
  -25.1350  -13.7830   20.5470 C   0  0  0  0  0  0  0  0  0  0  0  0
  -24.0790  -13.0010   20.9230 C   0  0  0  0  0  0  0  0  0  0  0  0
  -24.5500  -11.6530   20.8850 C   0  0  0  0  0  0  0  0  0  0  0  0
  -26.1890  -12.9120   20.3080 N   0  0  0  0  0  0  0  0  0  0  0  0
  -25.8370  -11.6250   20.5660 N   0  0  0  0  0  0  0  0  0  0  0  0
  -23.8380  -10.3830   21.0800 C   0  0  0  0  0  0  0  0  0  0  0  0
  -24.3010   -9.4110   21.9950 C   0  0  0  0  0  3  0  0  0  0  0  0
  -23.5950   -8.2040   22.1730 C   0  0  0  0  0  3  0  0  0  0  0  0
  -22.4050   -7.9640   21.4460 C   0  0  0  0  0  0  0  0  0  0  0  0
  -21.9590   -8.9240   20.5220 C   0  0  0  0  0  3  0  0  0  0  0  0
  -22.6660  -10.1240   20.3390 C   0  0  0  0  0  3  0  0  0  0  0  0
  -21.6660   -6.8110   21.5360 O   0  0  0  0  0  0  0  0  0  0  0  0
  -21.6660   -6.0420   22.6730 C   0  0  0  0  0  0  0  0  0  0  0  0
  -21.2960   -6.5710   23.9290 C   0  0  0  0  0  3  0  0  0  0  0  0
  -21.2430   -5.7310   25.0610 C   0  0  0  0  0  3  0  0  0  0  0  0
  -21.5480   -4.3610   24.9350 C   0  0  0  0  0  0  0  0  0  0  0  0
  -21.9070   -3.8320   23.6800 C   0  0  0  0  0  3  0  0  0  0  0  0
  -21.9600   -4.6710   22.5540 C   0  0  0  0  0  0  0  0  0  0  0  0
  -22.2850   -4.1510   21.3460 F   0  0  0  0  0  0  0  0  0  0  0  0
  -21.4880   -3.5500   26.0160 F   0  0  0  0  0  0  0  0  0  0  0  0
  -22.6750  -13.4660   21.2060 C   0  0  0  0  0  0  0  0  0  0  0  0
  -21.9550  -12.7710   22.0770 N   0  0  0  0  0  0  0  0  0  0  0  0
  -22.2200  -14.4840   20.6880 O   0  0  0  0  0  0  0  0  0  0  0  0
  -22.3240  -11.9460   22.5250 H   0  0  0  0  0  0  0  0  0  0  0  0
  -21.0180  -13.0770   22.3010 H   0  0  0  0  0  0  0  0  0  0  0  0
  -25.2840  -15.1590   20.3690 N   0  0  0  0  0  0  0  0  0  0  0  0
  -24.5220  -15.8110   20.5170 H   0  0  0  0  0  0  0  0  0  0  0  0
  -26.1400  -15.6130   20.0800 H   0  0  0  0  0  0  0  0  0  0  0  0
  1  2  1  0
  2  4  1  0
  3  2  1  0
  5  6  1  0
  5  2  1  0
  7  6  1  0
  8 19  2  0
  9  7  1  0
  9 14  1  0
 10 18  1  0
 10 20  1  0
 11 17  1  0
 11 13  1  0
 12 18  1  0
 13 12  1  0
 14 13  2  0
 15 16  1  0
 15  9  2  0
 16 11  2  0
 17 10  1  0
 18  8  1  0
 20 22  2  0
 21 20  1  0
 23 21  1  0
 24 33  2  0
 24 29  1  0
 25 21  1  0
 25 29  1  0
 26 25  1  0
 27 28  1  0
 27 26  1  0
 28 24  1  0
 29 30  2  0
 30 31  1  0
 32 31  2  0
 33 32  1  0
 34  8  1  0
 34 39  1  0
 34 35  1  0
 35 38  1  1
 35 36  1  0
 37 35  1  0
 39 42  1  0
 40 44  1  0
 40 39  1  0
 41 40  2  0
 44 43  1  0
 46 44  1  0
 46 47  1  0
 46 45  1  0
 48 49  1  0
 49 52  1  0
 50  1  1  0
 50 48  1  0
 50 49  1  0
 52 51  1  0
 54 53  1  0
 54  1  1  0
 55 54  1  0
 56 57  1  0
 56 55  1  0
 57 58  1  0
 58 67  1  0
 59 67  1  0
 60 65  1  0
 61 62  1  0
 61 60  1  0
 63 62  1  0
 63 72  1  0
 63 64  1  0
 65 59  1  0
 65 64  1  0
 66 59  2  0
 67 68  1  0
 69 70  2  0
 70 89  1  0
 71 70  1  0
 71 74  1  0
 72 69  1  0
 72 73  1  0
 73 71  2  0
 74 75  1  0
 75 76  2  0
 77 80  1  0
 77 76  1  0
 78 77  2  0
 79 78  1  0
 79 74  2  0
 80 81  1  0
 81 82  1  0
 82 83  2  0
 84 83  1  0
 84 88  1  0
 85 84  2  0
 86 81  2  0
 86 85  1  0
 87 86  1  0
 89 90  1  0
 90 93  1  0
 90 92  1  0
 91 89  2  0
 94 95  1  0
 94 69  1  0
 96 94  1  0
M  ISO  4   6 101   7 101  59 100  67 100
M  END
>  <TORSDO>  (39) 
F 26

>  <SCORE>  (39) 
-9.790

>  <name>  (39) 
39

>  <ligand_id>  (39) 
39

>  <original_smiles>  (39) 
[H]c1c([H])c([H])c2c(c1[H])C([H])([H])C([H])([H])C([H])([H])C2([H])N([H])C(=O)C1([H])N(C(=O)C([H])(N([H])C(=O)C([H])(N([H])C([H])([H])[H])C([H])([H])[H])C(C([H])([H])[H])(C([H])([H])[H])C([H])([H])[H])C([H])([H])c2c([H])c(OC([H])([H])C([H])([H])[N+]([H])([H])C([H])(C([H])(C([H])([H])[H])C([H])([H])C([H])([H])C([H])([H])C([H])([H])N([H])C(=O)N3C([H])([H])C([H])([H])C([H])([H])C([H])(n4nc(-c5c([H])c([H])c(Oc6c([H])c([H])c(F)c([H])c6F)c([H])c5[H])c(C(=O)N([H])[H])c4N([H])[H])C3([H])[H])C3([H])C([H])([H])C3([H])C([H])([H])C([H])([H])[H])c([H])c([H])c2C1([H])[H]

>  <smiles>  (39) 
[H]c1c([H])c([H])c2c(c1[H])C([H])([H])C([H])([H])C([H])([H])C2([H])N([H])C(=O)C1([H])N(C(=O)C([H])(N([H])C(=O)C([H])(N([H])C([H])([H])[H])C([H])([H])[H])C(C([H])([H])[H])(C([H])([H])[H])C([H])([H])[H])C([H])([H])c2c([H])c(OC([H])([H])C([H])([H])[N+]([H])([H])C([H])(C([H])(C([H])([H])[H])C([H])([H])C([H])([H])C([H])([H])C([H])([H])N([H])C(=O)N3C([H])([H])C([H])([H])C([H])([H])C([H])(n4nc(-c5c([H])c([H])c(Oc6c([H])c([H])c(F)c([H])c6F)c([H])c5[H])c(C(=O)N([H])[H])c4N([H])[H])C3([H])[H])C3([H])C([H])([H])C3([H])C([H])([H])C([H])([H])[H])c([H])c([H])c2C1([H])[H]

$$$$
40:0:0
     RDKit          3D

 95103  0  0  1  0  0  0  0  0999 V2000
  -29.3370  -20.0410   20.0670 N   0  0  0  0  0  4  0  0  0  0  0  0
  -28.3420  -20.0290   19.9110 H   0  0  0  0  0  0  0  0  0  0  0  0
  -29.7620  -20.0030   19.1530 H   0  0  0  0  0  0  0  0  0  0  0  0
  -30.7420  -14.6300   20.1960 C   0  0  0  0  0  0  0  0  0  0  0  0
  -30.3640  -12.4590   19.0400 C   0  0  0  0  0  2  0  0  0  0  0  0
  -29.3810  -12.6140   17.8620 C   0  0  0  0  0  2  0  0  0  0  0  0
  -27.9320  -12.4280   18.3460 C   0  0  0  0  0  2  0  0  0  0  0  0
  -27.6260  -13.2720   19.6090 C   0  0  0  0  0  3  0  0  0  0  0  0
  -28.7310  -13.0970   20.6840 C   0  0  0  0  0  2  0  0  0  0  0  0
  -30.0110  -13.4710   20.0670 N   0  0  0  0  0  0  0  0  0  0  0  0
  -31.8600  -14.6910   19.6750 O   0  0  0  0  0  0  0  0  0  0  0  0
  -28.6820  -17.6220   20.3730 C   0  0  0  0  0  2  0  0  0  0  0  0
  -28.9230  -16.2650   21.0970 C   0  0  0  0  0  2  0  0  0  0  0  0
  -31.2330  -16.7840   21.3860 C   0  0  0  0  0  2  0  0  0  0  0  0
  -31.0910  -18.1950   20.7010 C   0  0  0  0  0  3  0  0  0  0  0  0
  -29.6350  -18.7640   20.8280 C   0  0  0  0  0  3  0  0  0  0  0  0
  -30.2900  -15.7440   20.8890 N   0  0  0  0  0  0  0  0  0  0  0  0
  -25.2630  -13.8720   20.4250 C   0  0  0  0  0  0  0  0  0  0  0  0
  -24.2110  -13.0950   20.8280 C   0  0  0  0  0  0  0  0  0  0  0  0
  -24.6720  -11.7430   20.7600 C   0  0  0  0  0  0  0  0  0  0  0  0
  -26.2970  -12.9930   20.1410 N   0  0  0  0  0  0  0  0  0  0  0  0
  -25.9490  -11.7090   20.4040 N   0  0  0  0  0  0  0  0  0  0  0  0
  -23.9530  -10.4790   20.9580 C   0  0  0  0  0  0  0  0  0  0  0  0
  -24.3930   -9.5190   21.8960 C   0  0  0  0  0  3  0  0  0  0  0  0
  -23.6750   -8.3200   22.0820 C   0  0  0  0  0  3  0  0  0  0  0  0
  -22.5030   -8.0710   21.3280 C   0  0  0  0  0  0  0  0  0  0  0  0
  -22.0840   -9.0190   20.3780 C   0  0  0  0  0  3  0  0  0  0  0  0
  -22.8030  -10.2110   20.1910 C   0  0  0  0  0  3  0  0  0  0  0  0
  -21.7550   -6.9230   21.4220 O   0  0  0  0  0  0  0  0  0  0  0  0
  -21.6790   -6.2080   22.5910 C   0  0  0  0  0  0  0  0  0  0  0  0
  -21.1870   -6.7820   23.7840 C   0  0  0  0  0  3  0  0  0  0  0  0
  -21.0590   -5.9920   24.9450 C   0  0  0  0  0  3  0  0  0  0  0  0
  -21.4140   -4.6290   24.9120 C   0  0  0  0  0  0  0  0  0  0  0  0
  -21.8990   -4.0550   23.7240 C   0  0  0  0  0  3  0  0  0  0  0  0
  -22.0280   -4.8420   22.5660 C   0  0  0  0  0  0  0  0  0  0  0  0
  -22.4750   -4.2790   21.4170 F   0  0  0  0  0  0  0  0  0  0  0  0
  -21.2840   -3.8680   26.0250 F   0  0  0  0  0  0  0  0  0  0  0  0
  -22.8260  -13.5670   21.1580 C   0  0  0  0  0  0  0  0  0  0  0  0
  -22.1290  -12.8540   22.0360 N   0  0  0  0  0  0  0  0  0  0  0  0
  -22.3710  -14.6030   20.6720 O   0  0  0  0  0  0  0  0  0  0  0  0
  -22.5140  -12.0170   22.4490 H   0  0  0  0  0  0  0  0  0  0  0  0
  -21.2010  -13.1500   22.3000 H   0  0  0  0  0  0  0  0  0  0  0  0
  -25.4150  -15.2450   20.2540 N   0  0  0  0  0  0  0  0  0  0  0  0
  -24.6450  -15.8890   20.3920 H   0  0  0  0  0  0  0  0  0  0  0  0
  -26.2320  -15.6870   19.8570 H   0  0  0  0  0  0  0  0  0  0  0  0
  -32.1430  -19.1450   21.3050 C   0  0  0  0  0  0  0  0  0  0  0  0
  -33.2210  -19.4310   20.5840 N   0  0  0  0  0  0  0  0  0  0  0  0
  -31.9820  -19.6380   22.4190 O   0  0  0  0  0  0  0  0  0  0  0  0
  -33.3730  -19.0080   19.6780 H   0  0  0  0  0  0  0  0  0  0  0  0
  -33.9240  -20.0600   20.9500 H   0  0  0  0  0  0  0  0  0  0  0  0
  -29.6170  -21.3890   20.6850 C   0  0  0  0  0  2  0  0  0  0  0  0
  -28.8040  -22.5770   20.0310 C   0  0  0  0  0  2  0  0  0  0  0  0
  -29.1600  -24.0660   20.4260 C   0  0  0  0  0  2  0  0  0  0  0  0
  -28.1090  -25.1290   19.9440 C   0  0  0  0  0  2  0  0  0  0  0  0
  -28.3180  -26.5540   20.2300 O   0  0  0  0  0  0  0  0  0  0  0  0
  -24.6000  -31.9330   23.2290 C   0  0  0  0  0  0  0  0  0  0  0  0
  -27.1920  -27.3850   20.1720 C   0  0  0  0  0  0  0  0  0  0  0  0
  -23.3840  -30.5300   21.6000 C   0  0  0  0  0  3  0  0  0  0  0  0
  -24.8250  -28.9770   20.1750 C   0  0  0  0  0  0  0  0  0  0  0  0
  -25.9220  -30.8490   21.4040 C   0  0  0  0  0  2  0  0  0  0  0  0
  -25.9960  -29.4720   20.7630 C   0  0  0  0  0  0  0  0  0  0  0  0
  -27.1820  -28.6840   20.7570 C   0  0  0  0  0  3  0  0  0  0  0  0
  -25.9960  -26.9420   19.5530 C   0  0  0  0  0  3  0  0  0  0  0  0
  -24.8240  -27.7160   19.5650 C   0  0  0  0  0  3  0  0  0  0  0  0
  -23.5890  -29.8490   20.2220 C   0  0  0  0  0  2  0  0  0  0  0  0
  -24.6550  -31.1190   22.1330 N   0  0  0  0  0  0  0  0  0  0  0  0
  -23.5190  -32.2150   23.7650 O   0  0  0  0  0  0  0  0  0  0  0  0
  -22.7250  -29.5160   22.5650 C   0  0  0  0  0  0  0  0  0  0  0  0
  -21.4000  -29.3380   22.4360 N   0  0  0  0  0  0  0  0  0  0  0  0
  -23.4040  -28.8940   23.3860 O   0  0  0  0  0  0  0  0  0  0  0  0
  -20.9110  -29.8900   21.7450 H   0  0  0  0  0  0  0  0  0  0  0  0
  -18.0170  -28.1680   22.9550 C   0  0  0  0  0  0  0  0  0  0  0  0
  -20.5780  -28.4090   23.2130 C   0  0  0  0  0  3  0  0  0  0  0  0
  -20.6670  -26.9750   22.6400 C   0  0  0  0  0  2  0  0  0  0  0  0
  -19.5570  -26.6580   21.6330 C   0  0  0  0  0  2  0  0  0  0  0  0
  -18.1800  -26.8160   22.2830 C   0  0  0  0  0  2  0  0  0  0  0  0
  -19.1430  -28.9230   23.3770 C   0  0  0  0  0  0  0  0  0  0  0  0
  -18.9360  -30.1900   23.9650 C   0  0  0  0  0  3  0  0  0  0  0  0
  -17.6350  -30.7020   24.1360 C   0  0  0  0  0  3  0  0  0  0  0  0
  -16.5230  -29.9430   23.7300 C   0  0  0  0  0  3  0  0  0  0  0  0
  -16.7160  -28.6780   23.1460 C   0  0  0  0  0  3  0  0  0  0  0  0
  -25.8870  -32.5620   23.8420 C   0  0  0  0  0  3  0  0  0  0  0  0
  -25.5760  -33.9550   24.1910 N   0  0  0  0  0  0  0  0  0  0  0  0
  -25.8940  -35.0170   23.4380 C   0  0  0  0  0  0  0  0  0  0  0  0
  -26.5500  -34.9260   22.3960 O   0  0  0  0  0  0  0  0  0  0  0  0
  -24.9930  -34.0980   25.0020 H   0  0  0  0  0  0  0  0  0  0  0  0
  -24.1570  -36.8080   23.1190 C   0  0  0  0  0  1  0  0  0  0  0  0
  -25.4060  -36.3980   23.9150 C   0  0  0  0  0  3  0  0  0  0  0  0
  -27.5400  -37.2810   24.7490 C   0  0  0  0  0  1  0  0  0  0  0  0
  -26.4350  -37.4550   23.8090 N   0  0  0  0  0  0  0  0  0  0  0  0
  -26.0270  -38.3730   23.9660 H   0  0  0  0  0  0  0  0  0  0  0  0
  -26.4210  -31.7780   25.1030 C   0  0  1  0  0  0  0  0  0  0  0  0
  -25.3400  -31.5150   26.1780 C   0  0  0  0  0  1  0  0  0  0  0  0
  -27.0140  -30.4120   24.6890 C   0  0  0  0  0  1  0  0  0  0  0  0
  -27.5720  -32.5750   25.7650 C   0  0  0  0  0  1  0  0  0  0  0  0
  1 51  1  0
  2  1  1  0
  3  1  1  0
  4 17  1  0
  5 10  1  0
  6  7  1  0
  6  5  1  0
  8  7  1  0
  8 21  1  0
  8  9  1  0
 10  4  1  0
 10  9  1  0
 11  4  2  0
 12 16  1  0
 12 13  1  0
 15 16  1  0
 15 46  1  0
 15 14  1  0
 16  1  1  0
 17 13  1  0
 17 14  1  0
 18 19  2  0
 19 38  1  0
 20 19  1  0
 20 23  1  0
 21 22  1  0
 21 18  1  0
 22 20  2  0
 23 24  1  0
 24 25  2  0
 26 29  1  0
 26 25  1  0
 27 26  2  0
 28 27  1  0
 28 23  2  0
 29 30  1  0
 30 31  1  0
 31 32  2  0
 33 32  1  0
 33 37  1  0
 34 33  2  0
 35 30  2  0
 35 34  1  0
 36 35  1  0
 38 39  1  0
 39 42  1  0
 39 41  1  0
 40 38  2  0
 43 44  1  0
 43 18  1  0
 45 43  1  0
 46 48  2  0
 47 50  1  0
 47 46  1  0
 49 47  1  0
 52 53  1  0
 52 51  1  0
 54 55  1  0
 54 53  1  0
 56 67  2  0
 57 55  1  0
 57 62  1  0
 58 66  1  0
 58 68  1  0
 59 65  1  0
 59 61  1  0
 60 66  1  0
 61 60  1  0
 62 61  2  0
 63 64  1  0
 63 57  2  0
 64 59  2  0
 65 58  1  0
 66 56  1  0
 68 70  2  0
 69 68  1  0
 71 69  1  0
 72 81  2  0
 72 77  1  0
 73 69  1  0
 73 77  1  0
 74 73  1  0
 75 76  1  0
 75 74  1  0
 76 72  1  0
 77 78  2  0
 78 79  1  0
 80 79  2  0
 81 80  1  0
 82 56  1  0
 82 83  1  0
 82 92  1  0
 83 86  1  0
 84 88  1  0
 84 83  1  0
 85 84  2  0
 88 87  1  0
 90 88  1  0
 90 91  1  0
 90 89  1  0
 92 95  1  1
 92 93  1  0
 94 92  1  0
M  ISO  4   4 100  17 100  54 101  55 101
M  END
>  <TORSDO>  (40) 
F 21

>  <SCORE>  (40) 
-13.713

>  <name>  (40) 
40

>  <ligand_id>  (40) 
40

>  <original_smiles>  (40) 
[H]c1c([H])c([H])c2c(c1[H])C([H])([H])C([H])([H])C([H])([H])C2([H])N([H])C(=O)C1([H])N(C(=O)C([H])(N([H])C(=O)C([H])(N([H])C([H])([H])[H])C([H])([H])[H])C(C([H])([H])[H])(C([H])([H])[H])C([H])([H])[H])C([H])([H])c2c([H])c(OC([H])([H])C([H])([H])C([H])([H])C([H])([H])[N+]([H])([H])C3([H])C([H])([H])C([H])([H])N(C(=O)N4C([H])([H])C([H])([H])C([H])([H])C([H])(n5nc(-c6c([H])c([H])c(Oc7c([H])c([H])c(F)c([H])c7F)c([H])c6[H])c(C(=O)N([H])[H])c5N([H])[H])C4([H])[H])C([H])([H])C3([H])C(=O)N([H])[H])c([H])c([H])c2C1([H])[H]

>  <smiles>  (40) 
[H]c1c([H])c([H])c2c(c1[H])C([H])([H])C([H])([H])C([H])([H])C2([H])N([H])C(=O)C1([H])N(C(=O)C([H])(N([H])C(=O)C([H])(N([H])C([H])([H])[H])C([H])([H])[H])C(C([H])([H])[H])(C([H])([H])[H])C([H])([H])[H])C([H])([H])c2c([H])c(OC([H])([H])C([H])([H])C([H])([H])C([H])([H])[N+]([H])([H])C3([H])C([H])([H])C([H])([H])N(C(=O)N4C([H])([H])C([H])([H])C([H])([H])C([H])(n5nc(-c6c([H])c([H])c(Oc7c([H])c([H])c(F)c([H])c7F)c([H])c6[H])c(C(=O)N([H])[H])c5N([H])[H])C4([H])[H])C([H])([H])C3([H])C(=O)N([H])[H])c([H])c([H])c2C1([H])[H]

$$$$
41:0:0
     RDKit          3D

 94102  0  0  1  0  0  0  0  0999 V2000
  -27.4050  -18.8320   18.5890 C   0  0  0  0  0  2  0  0  0  0  0  0
  -28.5650  -19.2570   17.6990 C   0  0  0  0  0  2  0  0  0  0  0  0
  -28.0080  -17.7260   19.4730 C   0  0  0  0  0  3  0  0  0  0  0  0
  -29.5600  -17.9220   19.3640 C   0  0  0  0  0  3  0  0  0  0  0  0
  -29.7300  -19.2530   18.6080 N   0  0  2  0  0  4  0  0  0  0  0  0
  -30.5700  -19.2010   18.0460 H   0  0  0  0  0  0  0  0  0  0  0  0
  -27.8750  -18.5530   21.9800 C   0  0  0  0  0  1  0  0  0  0  0  0
  -25.8250  -17.6760   20.8660 C   0  0  0  0  0  1  0  0  0  0  0  0
  -27.3650  -17.5880   20.8950 C   0  0  0  0  0  3  0  0  0  0  0  0
  -30.2800  -16.6390   18.6810 C   0  0  0  0  0  2  0  0  0  0  0  0
  -30.8220  -14.1060   18.9370 C   0  0  0  0  0  0  0  0  0  0  0  0
  -30.4020  -11.8000   18.1010 C   0  0  0  0  0  2  0  0  0  0  0  0
  -29.2570  -11.8510   17.0650 C   0  0  0  0  0  2  0  0  0  0  0  0
  -27.8850  -11.7570   17.7580 C   0  0  0  0  0  2  0  0  0  0  0  0
  -27.7620  -12.7100   18.9750 C   0  0  0  0  0  3  0  0  0  0  0  0
  -29.0010  -12.6280   19.8940 C   0  0  0  0  0  2  0  0  0  0  0  0
  -30.1850  -12.9000   19.0680 N   0  0  0  0  0  0  0  0  0  0  0  0
  -31.8990  -14.1830   18.3360 O   0  0  0  0  0  0  0  0  0  0  0  0
  -30.1180  -15.2440   19.2690 N   0  0  0  0  0  0  0  0  0  0  0  0
  -29.2740  -15.0800   19.7960 H   0  0  0  0  0  0  0  0  0  0  0  0
  -25.6170  -13.4270   20.1810 C   0  0  0  0  0  0  0  0  0  0  0  0
  -24.5870  -12.7210   20.7370 C   0  0  0  0  0  0  0  0  0  0  0  0
  -24.9190  -11.3440   20.5540 C   0  0  0  0  0  0  0  0  0  0  0  0
  -26.5200  -12.4910   19.7110 N   0  0  0  0  0  0  0  0  0  0  0  0
  -26.1160  -11.2260   19.9900 N   0  0  0  0  0  0  0  0  0  0  0  0
  -24.1350  -10.1350   20.8300 C   0  0  0  0  0  0  0  0  0  0  0  0
  -24.5210   -9.2200   21.8330 C   0  0  0  0  0  3  0  0  0  0  0  0
  -23.7440   -8.0710   22.0900 C   0  0  0  0  0  3  0  0  0  0  0  0
  -22.5650   -7.8310   21.3430 C   0  0  0  0  0  0  0  0  0  0  0  0
  -22.1990   -8.7320   20.3280 C   0  0  0  0  0  3  0  0  0  0  0  0
  -22.9780   -9.8720   20.0700 C   0  0  0  0  0  3  0  0  0  0  0  0
  -21.7620   -6.7280   21.5090 O   0  0  0  0  0  0  0  0  0  0  0  0
  -21.4880   -6.2180   22.7530 C   0  0  0  0  0  0  0  0  0  0  0  0
  -20.8370   -6.9830   23.7450 C   0  0  0  0  0  3  0  0  0  0  0  0
  -20.5120   -6.3990   24.9850 C   0  0  0  0  0  3  0  0  0  0  0  0
  -20.8290   -5.0500   25.2320 C   0  0  0  0  0  0  0  0  0  0  0  0
  -21.4720   -4.2840   24.2430 C   0  0  0  0  0  3  0  0  0  0  0  0
  -21.7990   -4.8660   23.0060 C   0  0  0  0  0  0  0  0  0  0  0  0
  -22.3990   -4.1200   22.0490 F   0  0  0  0  0  0  0  0  0  0  0  0
  -20.5100   -4.4840   26.4200 F   0  0  0  0  0  0  0  0  0  0  0  0
  -23.3180  -13.2910   21.3060 C   0  0  0  0  0  0  0  0  0  0  0  0
  -22.7340  -12.6190   22.2910 N   0  0  0  0  0  0  0  0  0  0  0  0
  -22.8660  -14.3650   20.9120 O   0  0  0  0  0  0  0  0  0  0  0  0
  -23.1170  -11.7490   22.6290 H   0  0  0  0  0  0  0  0  0  0  0  0
  -21.8930  -12.9840   22.7170 H   0  0  0  0  0  0  0  0  0  0  0  0
  -25.8520  -14.7780   20.0040 N   0  0  0  0  0  0  0  0  0  0  0  0
  -25.1750  -15.4750   20.2900 H   0  0  0  0  0  0  0  0  0  0  0  0
  -26.5930  -15.1520   19.4300 H   0  0  0  0  0  0  0  0  0  0  0  0
  -29.8330  -20.5570   19.4240 C   0  0  0  0  0  3  0  0  0  0  0  0
  -29.4490  -21.9650   18.7220 C   0  0  0  0  0  3  0  0  0  0  0  0
  -28.2580  -23.2120   20.6530 C   0  0  0  0  0  1  0  0  0  0  0  0
  -29.3210  -23.3340   19.5570 C   0  0  0  0  0  3  0  0  0  0  0  0
  -29.0220  -24.6520   18.6960 C   0  0  0  0  0  2  0  0  0  0  0  0
  -28.8720  -25.9710   19.3600 O   0  0  0  0  0  0  0  0  0  0  0  0
  -24.8130  -30.8270   22.7960 C   0  0  0  0  0  0  0  0  0  0  0  0
  -27.6950  -26.7420   19.3340 C   0  0  0  0  0  0  0  0  0  0  0  0
  -23.7180  -29.6060   20.9480 C   0  0  0  0  0  3  0  0  0  0  0  0
  -25.2750  -28.2750   19.4150 C   0  0  0  0  0  0  0  0  0  0  0  0
  -26.2530  -30.0120   20.9150 C   0  0  0  0  0  2  0  0  0  0  0  0
  -26.4000  -28.7260   20.1140 C   0  0  0  0  0  0  0  0  0  0  0  0
  -27.6090  -27.9700   20.0640 C   0  0  0  0  0  3  0  0  0  0  0  0
  -26.5380  -26.3410   18.6270 C   0  0  0  0  0  3  0  0  0  0  0  0
  -25.3450  -27.0900   18.6670 C   0  0  0  0  0  3  0  0  0  0  0  0
  -24.0060  -29.1010   19.5100 C   0  0  0  0  0  2  0  0  0  0  0  0
  -24.9440  -30.1610   21.6110 N   0  0  0  0  0  0  0  0  0  0  0  0
  -23.7010  -31.0100   23.3150 O   0  0  0  0  0  0  0  0  0  0  0  0
  -23.0500  -28.4660   21.7520 C   0  0  0  0  0  0  0  0  0  0  0  0
  -21.7250  -28.3100   21.5940 N   0  0  0  0  0  0  0  0  0  0  0  0
  -23.7250  -27.7300   22.4770 O   0  0  0  0  0  0  0  0  0  0  0  0
  -21.2390  -28.9660   21.0000 H   0  0  0  0  0  0  0  0  0  0  0  0
  -18.3430  -27.0980   21.9230 C   0  0  0  0  0  0  0  0  0  0  0  0
  -20.9040  -27.2740   22.2170 C   0  0  0  0  0  3  0  0  0  0  0  0
  -20.9780  -25.9480   21.4240 C   0  0  0  0  0  2  0  0  0  0  0  0
  -19.8770  -25.8180   20.3710 C   0  0  0  0  0  2  0  0  0  0  0  0
  -18.4970  -25.8740   21.0360 C   0  0  0  0  0  2  0  0  0  0  0  0
  -19.4750  -27.7640   22.4630 C   0  0  0  0  0  0  0  0  0  0  0  0
  -19.2810  -28.9180   23.2510 C   0  0  0  0  0  3  0  0  0  0  0  0
  -17.9870  -29.4090   23.5020 C   0  0  0  0  0  3  0  0  0  0  0  0
  -16.8670  -28.7390   22.9740 C   0  0  0  0  0  3  0  0  0  0  0  0
  -17.0470  -27.5840   22.1910 C   0  0  0  0  0  3  0  0  0  0  0  0
  -26.0510  -31.4110   23.5440 C   0  0  0  0  0  3  0  0  0  0  0  0
  -25.6730  -32.7340   24.0630 N   0  0  0  0  0  0  0  0  0  0  0  0
  -26.0100  -33.8990   23.4960 C   0  0  0  0  0  0  0  0  0  0  0  0
  -26.7420  -33.9700   22.5050 O   0  0  0  0  0  0  0  0  0  0  0  0
  -25.0240  -32.7470   24.8370 H   0  0  0  0  0  0  0  0  0  0  0  0
  -24.2490  -35.6840   23.3060 C   0  0  0  0  0  1  0  0  0  0  0  0
  -25.4500  -35.1880   24.1270 C   0  0  0  0  0  3  0  0  0  0  0  0
  -27.4910  -35.9850   25.2320 C   0  0  0  0  0  1  0  0  0  0  0  0
  -26.4520  -36.2700   24.2470 N   0  0  0  0  0  0  0  0  0  0  0  0
  -26.0040  -37.1460   24.5020 H   0  0  0  0  0  0  0  0  0  0  0  0
  -26.5630  -30.4830   24.7130 C   0  0  1  0  0  0  0  0  0  0  0  0
  -25.4530  -30.0600   25.7030 C   0  0  0  0  0  1  0  0  0  0  0  0
  -27.2070  -29.1960   24.1500 C   0  0  0  0  0  1  0  0  0  0  0  0
  -27.6640  -31.2120   25.5170 C   0  0  0  0  0  1  0  0  0  0  0  0
  1  3  1  0
  2  1  1  0
  2  5  1  0
  3  9  1  0
  4 10  1  0
  4  3  1  0
  5  4  1  0
  5 49  1  0
  5  6  1  6
  8  9  1  0
  9  7  1  0
 10 19  1  0
 11 17  1  0
 11 19  1  0
 12 17  1  0
 13 14  1  0
 13 12  1  0
 15 14  1  0
 15 24  1  0
 15 16  1  0
 17 16  1  0
 18 11  2  0
 19 20  1  0
 21 22  2  0
 22 41  1  0
 23 22  1  0
 23 26  1  0
 24 25  1  0
 24 21  1  0
 25 23  2  0
 26 27  1  0
 27 28  2  0
 29 32  1  0
 29 28  1  0
 30 29  2  0
 31 30  1  0
 31 26  2  0
 32 33  1  0
 33 38  2  0
 33 34  1  0
 34 35  2  0
 35 36  1  0
 36 40  1  0
 37 36  2  0
 38 37  1  0
 39 38  1  0
 41 42  1  0
 42 44  1  0
 42 45  1  0
 43 41  2  0
 46 21  1  0
 46 47  1  0
 48 46  1  0
 50 49  2  0
 50 52  1  0
 52 51  1  0
 53 54  1  0
 53 52  1  0
 55 66  2  0
 56 54  1  0
 56 61  1  0
 57 65  1  0
 57 67  1  0
 58 64  1  0
 58 60  1  0
 59 65  1  0
 60 59  1  0
 61 60  2  0
 62 63  1  0
 62 56  2  0
 63 58  2  0
 64 57  1  0
 65 55  1  0
 67 69  2  0
 68 67  1  0
 70 68  1  0
 71 80  2  0
 71 76  1  0
 72 68  1  0
 72 76  1  0
 73 72  1  0
 74 75  1  0
 74 73  1  0
 75 71  1  0
 76 77  2  0
 77 78  1  0
 79 78  2  0
 80 79  1  0
 81 55  1  0
 81 82  1  0
 81 91  1  0
 82 85  1  0
 83 82  1  0
 83 87  1  0
 84 83  2  0
 87 86  1  0
 87 89  1  0
 89 90  1  0
 89 88  1  0
 91 94  1  1
 91 92  1  0
 93 91  1  0
M  ISO  4  11 100  19 100  53 101  54 101
M  END
>  <TORSDO>  (41) 
F 22

>  <SCORE>  (41) 
-3.120

>  <name>  (41) 
41

>  <ligand_id>  (41) 
41

>  <original_smiles>  (41) 
[H]c1c([H])c([H])c2c(c1[H])C([H])([H])C([H])([H])C([H])([H])C2([H])N([H])C(=O)C1([H])N(C(=O)C([H])(N([H])C(=O)C([H])(N([H])C([H])([H])[H])C([H])([H])[H])C(C([H])([H])[H])(C([H])([H])[H])C([H])([H])[H])C([H])([H])c2c([H])c(OC([H])([H])C([H])(C([H])([H])[H])C([H])([H])C([H])([H])[N+]3([H])C([H])([H])C([H])([H])C([H])(C([H])(C([H])([H])[H])C([H])([H])[H])C3([H])C([H])([H])N([H])C(=O)N3C([H])([H])C([H])([H])C([H])([H])C([H])(n4nc(-c5c([H])c([H])c(Oc6c([H])c([H])c(F)c([H])c6F)c([H])c5[H])c(C(=O)N([H])[H])c4N([H])[H])C3([H])[H])c([H])c([H])c2C1([H])[H]

>  <smiles>  (41) 
[H]c1c([H])c([H])c2c(c1[H])C([H])([H])C([H])([H])C([H])([H])C2([H])N([H])C(=O)C1([H])N(C(=O)C([H])(N([H])C(=O)C([H])(N([H])C([H])([H])[H])C([H])([H])[H])C(C([H])([H])[H])(C([H])([H])[H])C([H])([H])[H])C([H])([H])c2c([H])c(OC([H])([H])C([H])(C([H])([H])[H])C([H])([H])C([H])([H])[N+]3([H])C([H])([H])C([H])([H])C([H])(C([H])(C([H])([H])[H])C([H])([H])[H])C3([H])C([H])([H])N([H])C(=O)N3C([H])([H])C([H])([H])C([H])([H])C([H])(n4nc(-c5c([H])c([H])c(Oc6c([H])c([H])c(F)c([H])c6F)c([H])c5[H])c(C(=O)N([H])[H])c4N([H])[H])C3([H])[H])c([H])c([H])c2C1([H])[H]

$$$$
42:0:0
     RDKit          3D

 93101  0  0  1  0  0  0  0  0999 V2000
  -30.5040  -20.4360   19.0330 C   0  0  0  0  0  3  0  0  0  0  0  0
  -30.9070  -14.7630   19.1640 C   0  0  0  0  0  0  0  0  0  0  0  0
  -30.4490  -12.4970   18.1110 C   0  0  0  0  0  2  0  0  0  0  0  0
  -29.3140  -12.5750   17.0630 C   0  0  0  0  0  2  0  0  0  0  0  0
  -27.9350  -12.3880   17.7220 C   0  0  0  0  0  2  0  0  0  0  0  0
  -27.7840  -13.2260   19.0190 C   0  0  0  0  0  3  0  0  0  0  0  0
  -29.0280  -13.1160   19.9290 C   0  0  0  0  0  2  0  0  0  0  0  0
  -30.1970  -13.5520   19.1420 N   0  0  0  0  0  0  0  0  0  0  0  0
  -31.9730  -14.7870   18.5480 O   0  0  0  0  0  0  0  0  0  0  0  0
  -30.6450  -18.7540   21.1370 C   0  0  0  0  0  2  0  0  0  0  0  0
  -30.3150  -17.3970   18.8970 C   0  0  0  0  0  2  0  0  0  0  0  0
  -30.2380  -16.1590   21.1120 C   0  0  0  0  0  3  0  0  0  0  0  0
  -30.7390  -18.8510   19.6160 C   0  0  0  0  0  3  0  0  0  0  0  0
  -31.0970  -17.3640   21.6460 C   0  0  0  0  0  3  0  0  0  0  0  0
  -31.1960  -17.4000   23.1840 C   0  0  0  0  0  1  0  0  0  0  0  0
  -30.3620  -16.0030   19.6380 N   0  0  0  0  0  0  0  0  0  0  0  0
  -25.5810  -13.8070   20.1980 C   0  0  0  0  0  0  0  0  0  0  0  0
  -24.5650  -13.0390   20.6980 C   0  0  0  0  0  0  0  0  0  0  0  0
  -24.9640  -11.6830   20.4970 C   0  0  0  0  0  0  0  0  0  0  0  0
  -26.5390  -12.9260   19.7280 N   0  0  0  0  0  0  0  0  0  0  0  0
  -26.1850  -11.6340   19.9690 N   0  0  0  0  0  0  0  0  0  0  0  0
  -24.2240  -10.4340   20.7280 C   0  0  0  0  0  0  0  0  0  0  0  0
  -24.6650   -9.4760   21.6700 C   0  0  0  0  0  3  0  0  0  0  0  0
  -23.9230   -8.2960   21.8910 C   0  0  0  0  0  3  0  0  0  0  0  0
  -22.7270   -8.0620   21.1700 C   0  0  0  0  0  0  0  0  0  0  0  0
  -22.3050   -9.0080   20.2200 C   0  0  0  0  0  3  0  0  0  0  0  0
  -23.0490  -10.1810   19.9970 C   0  0  0  0  0  3  0  0  0  0  0  0
  -21.9620   -6.9290   21.2950 O   0  0  0  0  0  0  0  0  0  0  0  0
  -21.8100   -6.2910   22.5010 C   0  0  0  0  0  0  0  0  0  0  0  0
  -21.2910   -6.9550   23.6330 C   0  0  0  0  0  3  0  0  0  0  0  0
  -21.0850   -6.2430   24.8320 C   0  0  0  0  0  3  0  0  0  0  0  0
  -21.3920   -4.8720   24.8980 C   0  0  0  0  0  0  0  0  0  0  0  0
  -21.9090   -4.2100   23.7710 C   0  0  0  0  0  3  0  0  0  0  0  0
  -22.1130   -4.9150   22.5740 C   0  0  0  0  0  0  0  0  0  0  0  0
  -22.5900   -4.2690   21.4830 F   0  0  0  0  0  0  0  0  0  0  0  0
  -21.1820   -4.1860   26.0480 F   0  0  0  0  0  0  0  0  0  0  0  0
  -23.2600  -13.5440   21.2390 C   0  0  0  0  0  0  0  0  0  0  0  0
  -22.6930  -12.8590   22.2220 N   0  0  0  0  0  0  0  0  0  0  0  0
  -22.7580  -14.5870   20.8260 O   0  0  0  0  0  0  0  0  0  0  0  0
  -23.1020  -12.0130   22.5930 H   0  0  0  0  0  0  0  0  0  0  0  0
  -21.8210  -13.1910   22.6070 H   0  0  0  0  0  0  0  0  0  0  0  0
  -25.7530  -15.1800   20.0970 N   0  0  0  0  0  0  0  0  0  0  0  0
  -25.0760  -15.8270   20.4890 H   0  0  0  0  0  0  0  0  0  0  0  0
  -26.6290  -15.6380   19.8730 H   0  0  0  0  0  0  0  0  0  0  0  0
  -28.7650  -16.2930   21.5510 C   0  0  0  0  0  0  0  0  0  0  0  0
  -28.1440  -15.0840   22.2490 C   0  0  0  0  0  1  0  0  0  0  0  0
  -28.0870  -17.3060   21.3750 O   0  0  0  0  0  0  0  0  0  0  0  0
  -32.5220  -20.4110   17.3460 C   0  0  0  0  0  1  0  0  0  0  0  0
  -31.9060  -20.9980   18.6310 C   0  0  0  0  0  2  0  0  0  0  0  0
  -29.7060  -21.6830   19.8510 C   0  0  0  0  0  2  0  0  0  0  0  0
  -29.7370  -23.3340   19.4640 C   0  0  0  0  0  3  0  0  0  0  0  0
  -28.5920  -24.4940   19.8830 C   0  0  0  0  0  3  0  0  0  0  0  0
  -28.7290  -26.0370   19.7770 O   0  0  0  0  0  0  0  0  0  0  0  0
  -24.7850  -31.5380   22.7120 C   0  0  0  0  0  0  0  0  0  0  0  0
  -27.5960  -26.9340   19.7370 C   0  0  0  0  0  0  0  0  0  0  0  0
  -23.6650  -30.1080   21.0480 C   0  0  0  0  0  3  0  0  0  0  0  0
  -25.1950  -28.5810   19.6620 C   0  0  0  0  0  0  0  0  0  0  0  0
  -26.2090  -30.4660   20.9280 C   0  0  0  0  0  2  0  0  0  0  0  0
  -26.3470  -29.0750   20.2870 C   0  0  0  0  0  0  0  0  0  0  0  0
  -27.5470  -28.2680   20.2990 C   0  0  0  0  0  3  0  0  0  0  0  0
  -26.4040  -26.5250   19.0920 C   0  0  0  0  0  3  0  0  0  0  0  0
  -25.2350  -27.3180   19.0510 C   0  0  0  0  0  3  0  0  0  0  0  0
  -23.9360  -29.4360   19.6760 C   0  0  0  0  0  2  0  0  0  0  0  0
  -24.9050  -30.7240   21.6210 N   0  0  0  0  0  0  0  0  0  0  0  0
  -23.6770  -31.7860   23.2160 O   0  0  0  0  0  0  0  0  0  0  0  0
  -22.9980  -29.0800   21.9950 C   0  0  0  0  0  0  0  0  0  0  0  0
  -21.6590  -28.9690   21.9320 N   0  0  0  0  0  0  0  0  0  0  0  0
  -23.6840  -28.3810   22.7440 O   0  0  0  0  0  0  0  0  0  0  0  0
  -21.1610  -29.5730   21.2940 H   0  0  0  0  0  0  0  0  0  0  0  0
  -18.2510  -28.0070   22.6840 C   0  0  0  0  0  0  0  0  0  0  0  0
  -20.8390  -28.0320   22.7020 C   0  0  0  0  0  3  0  0  0  0  0  0
  -20.7550  -26.6610   21.9920 C   0  0  0  0  0  2  0  0  0  0  0  0
  -19.5330  -26.5300   21.0780 C   0  0  0  0  0  2  0  0  0  0  0  0
  -18.2390  -26.7210   21.8740 C   0  0  0  0  0  2  0  0  0  0  0  0
  -19.4720  -28.6290   23.0590 C   0  0  0  0  0  0  0  0  0  0  0  0
  -19.4230  -29.8410   23.7850 C   0  0  0  0  0  3  0  0  0  0  0  0
  -18.1920  -30.4230   24.1360 C   0  0  0  0  0  3  0  0  0  0  0  0
  -16.9870  -29.7950   23.7740 C   0  0  0  0  0  3  0  0  0  0  0  0
  -17.0190  -28.5870   23.0510 C   0  0  0  0  0  3  0  0  0  0  0  0
  -26.0280  -32.2140   23.3650 C   0  0  0  0  0  3  0  0  0  0  0  0
  -25.5910  -33.4940   23.9430 N   0  0  0  0  0  0  0  0  0  0  0  0
  -25.7520  -34.6880   23.3560 C   0  0  0  0  0  0  0  0  0  0  0  0
  -26.3490  -34.8320   22.2880 O   0  0  0  0  0  0  0  0  0  0  0  0
  -25.0430  -33.4440   24.7880 H   0  0  0  0  0  0  0  0  0  0  0  0
  -23.8200  -36.2960   23.4180 C   0  0  0  0  0  1  0  0  0  0  0  0
  -25.1580  -35.9160   24.0710 C   0  0  0  0  0  3  0  0  0  0  0  0
  -27.2390  -36.9100   24.9170 C   0  0  0  0  0  1  0  0  0  0  0  0
  -26.0580  -37.0900   24.0770 N   0  0  0  0  0  0  0  0  0  0  0  0
  -25.5670  -37.9200   24.3970 H   0  0  0  0  0  0  0  0  0  0  0  0
  -26.7070  -31.3110   24.4680 C   0  0  1  0  0  0  0  0  0  0  0  0
  -25.7090  -30.7440   25.5080 C   0  0  0  0  0  1  0  0  0  0  0  0
  -27.4380  -30.1120   23.8200 C   0  0  0  0  0  1  0  0  0  0  0  0
  -27.7800  -32.1280   25.2250 C   0  0  0  0  0  1  0  0  0  0  0  0
  1 49  1  0
  1 50  1  0
  2 16  1  0
  3  8  1  0
  4  5  1  0
  4  3  1  0
  6  5  1  0
  6 20  1  0
  6  7  1  0
  8  2  1  0
  8  7  1  0
  9  2  2  0
 10 14  1  0
 11 13  1  0
 11 16  1  0
 12 45  1  0
 12 14  1  0
 13  1  1  0
 13 10  1  0
 14 15  1  0
 16 12  1  0
 17 18  2  0
 18 37  1  0
 19 18  1  0
 19 22  1  0
 20 21  1  0
 20 17  1  0
 21 19  2  0
 22 23  1  0
 23 24  2  0
 25 28  1  0
 25 24  1  0
 26 25  2  0
 27 26  1  0
 27 22  2  0
 28 29  1  0
 29 34  2  0
 29 30  1  0
 30 31  2  0
 31 32  1  0
 32 36  1  0
 33 32  2  0
 34 33  1  0
 35 34  1  0
 37 38  1  0
 38 40  1  0
 38 41  1  0
 39 37  2  0
 42 17  1  0
 42 43  1  0
 44 42  1  0
 45 46  1  0
 47 45  2  0
 48 49  1  0
 51 50  1  0
 51 52  2  0
 53 52  1  0
 54 65  2  0
 55 53  1  0
 55 60  1  0
 56 64  1  0
 56 66  1  0
 57 63  1  0
 57 59  1  0
 58 64  1  0
 59 60  2  0
 59 58  1  0
 61 55  2  0
 62 61  1  0
 62 57  2  0
 63 56  1  0
 64 54  1  0
 66 68  2  0
 67 66  1  0
 69 67  1  0
 70 79  2  0
 70 75  1  0
 71 67  1  0
 71 75  1  0
 72 71  1  0
 73 74  1  0
 73 72  1  0
 74 70  1  0
 75 76  2  0
 76 77  1  0
 78 77  2  0
 79 78  1  0
 80 54  1  0
 80 81  1  0
 80 90  1  0
 81 84  1  0
 82 81  1  0
 82 86  1  0
 83 82  2  0
 86 85  1  0
 86 88  1  0
 88 89  1  0
 88 87  1  0
 90 93  1  1
 90 91  1  0
 92 90  1  0
M  ISO  4   2 100  16 100  52 101  53 101
M  END
>  <TORSDO>  (42) 
F 21

>  <SCORE>  (42) 
-7.595

>  <name>  (42) 
42

>  <ligand_id>  (42) 
42

>  <original_smiles>  (42) 
[H]c1c([H])c([H])c2c(c1[H])C([H])([H])C([H])([H])C([H])([H])C2([H])N([H])C(=O)C1([H])N(C(=O)C([H])(N([H])C(=O)C([H])(N([H])C([H])([H])[H])C([H])([H])[H])C(C([H])([H])[H])(C([H])([H])[H])C([H])([H])[H])C([H])([H])c2c([H])c(OC([H])([H])C([H])([H])C([H])([H])C([H])(C([H])([H])C([H])([H])[H])C3([H])C([H])([H])N(C(=O)N4C([H])([H])C([H])([H])C([H])([H])C([H])(n5nc(-c6c([H])c([H])c(Oc7c([H])c([H])c(F)c([H])c7F)c([H])c6[H])c(C(=O)N([H])[H])c5N([H])[H])C4([H])[H])C([H])(C(=O)C([H])([H])[H])C([H])(C([H])([H])[H])C3([H])[H])c([H])c([H])c2C1([H])[H]

>  <smiles>  (42) 
[H]c1c([H])c([H])c2c(c1[H])C([H])([H])C([H])([H])C([H])([H])C2([H])N([H])C(=O)C1([H])N(C(=O)C([H])(N([H])C(=O)C([H])(N([H])C([H])([H])[H])C([H])([H])[H])C(C([H])([H])[H])(C([H])([H])[H])C([H])([H])[H])C([H])([H])c2c([H])c(OC([H])([H])C([H])([H])C([H])([H])C([H])(C([H])([H])C([H])([H])[H])C3([H])C([H])([H])N(C(=O)N4C([H])([H])C([H])([H])C([H])([H])C([H])(n5nc(-c6c([H])c([H])c(Oc7c([H])c([H])c(F)c([H])c7F)c([H])c6[H])c(C(=O)N([H])[H])c5N([H])[H])C4([H])[H])C([H])(C(=O)C([H])([H])[H])C([H])(C([H])([H])[H])C3([H])[H])c([H])c([H])c2C1([H])[H]

$$$$
43:0:0
     RDKit          3D

 90 98  0  0  1  0  0  0  0  0999 V2000
  -30.4200  -21.4120   22.0200 C   0  0  0  0  0  1  0  0  0  0  0  0
  -29.8290  -20.9330   20.6690 C   0  0  0  0  0  3  0  0  0  0  0  0
  -30.6040  -14.8380   20.2350 C   0  0  0  0  0  0  0  0  0  0  0  0
  -30.3700  -12.5610   19.2150 C   0  0  0  0  0  2  0  0  0  0  0  0
  -29.4010  -12.6270   18.0160 C   0  0  0  0  0  2  0  0  0  0  0  0
  -27.9450  -12.4410   18.4860 C   0  0  0  0  0  2  0  0  0  0  0  0
  -27.5980  -13.3190   19.7190 C   0  0  0  0  0  3  0  0  0  0  0  0
  -28.6900  -13.2540   20.8090 C   0  0  0  0  0  2  0  0  0  0  0  0
  -29.9580  -13.6190   20.1690 N   0  0  0  0  0  0  0  0  0  0  0  0
  -31.7870  -14.9060   19.8890 O   0  0  0  0  0  0  0  0  0  0  0  0
  -30.5800  -18.3270   21.3220 C   0  0  0  0  0  0  0  0  0  0  0  0
  -30.1270  -16.8630   21.6350 C   0  0  0  0  0  2  0  0  0  0  0  0
  -29.5280  -16.9120   19.2640 C   0  0  0  0  0  2  0  0  0  0  0  0
  -29.4950  -19.2920   20.7400 C   0  0  0  0  0  3  0  0  0  0  0  0
  -28.9850  -18.4290   19.4960 C   0  0  0  0  0  3  0  0  0  0  0  0
  -29.1200  -19.1930   18.1690 C   0  0  0  0  0  1  0  0  0  0  0  0
  -29.8700  -16.0170   20.4320 N   0  0  0  0  0  0  0  0  0  0  0  0
  -31.7710  -18.6340   21.4100 O   0  0  0  0  0  0  0  0  0  0  0  0
  -25.2350  -13.8830   20.5310 C   0  0  0  0  0  0  0  0  0  0  0  0
  -24.1830  -13.0980   20.9160 C   0  0  0  0  0  0  0  0  0  0  0  0
  -24.6500  -11.7490   20.8500 C   0  0  0  0  0  0  0  0  0  0  0  0
  -26.2740  -13.0130   20.2490 N   0  0  0  0  0  0  0  0  0  0  0  0
  -25.9320  -11.7230   20.5050 N   0  0  0  0  0  0  0  0  0  0  0  0
  -23.9330  -10.4810   21.0380 C   0  0  0  0  0  0  0  0  0  0  0  0
  -24.3820   -9.5070   21.9560 C   0  0  0  0  0  3  0  0  0  0  0  0
  -23.6630   -8.3050   22.1340 C   0  0  0  0  0  3  0  0  0  0  0  0
  -22.4820   -8.0690   21.3940 C   0  0  0  0  0  0  0  0  0  0  0  0
  -22.0510   -9.0320   20.4640 C   0  0  0  0  0  3  0  0  0  0  0  0
  -22.7700  -10.2250   20.2840 C   0  0  0  0  0  3  0  0  0  0  0  0
  -21.7330   -6.9200   21.4810 O   0  0  0  0  0  0  0  0  0  0  0  0
  -21.6860   -6.1770   22.6340 C   0  0  0  0  0  0  0  0  0  0  0  0
  -21.2470   -6.7290   23.8590 C   0  0  0  0  0  3  0  0  0  0  0  0
  -21.1490   -5.9130   25.0030 C   0  0  0  0  0  3  0  0  0  0  0  0
  -21.4780   -4.5460   24.9250 C   0  0  0  0  0  0  0  0  0  0  0  0
  -21.9080   -3.9940   23.7050 C   0  0  0  0  0  3  0  0  0  0  0  0
  -22.0090   -4.8080   22.5620 C   0  0  0  0  0  0  0  0  0  0  0  0
  -22.4040   -4.2670   21.3850 F   0  0  0  0  0  0  0  0  0  0  0  0
  -21.3760   -3.7590   26.0210 F   0  0  0  0  0  0  0  0  0  0  0  0
  -22.7920  -13.5650   21.2340 C   0  0  0  0  0  0  0  0  0  0  0  0
  -22.0940  -12.8560   22.1140 N   0  0  0  0  0  0  0  0  0  0  0  0
  -22.3350  -14.5940   20.7380 O   0  0  0  0  0  0  0  0  0  0  0  0
  -22.4790  -12.0240   22.5350 H   0  0  0  0  0  0  0  0  0  0  0  0
  -21.1630  -13.1510   22.3710 H   0  0  0  0  0  0  0  0  0  0  0  0
  -25.3930  -15.2580   20.3740 N   0  0  0  0  0  0  0  0  0  0  0  0
  -24.6320  -15.9120   20.5250 H   0  0  0  0  0  0  0  0  0  0  0  0
  -26.2420  -15.7030   20.0520 H   0  0  0  0  0  0  0  0  0  0  0  0
  -28.7320  -22.1040   20.2960 C   0  0  0  0  0  2  0  0  0  0  0  0
  -29.0870  -23.7100   20.4300 C   0  0  0  0  0  3  0  0  0  0  0  0
  -28.0280  -24.8870   20.0440 C   0  0  0  0  0  3  0  0  0  0  0  0
  -28.2920  -26.3670   20.2540 O   0  0  0  0  0  0  0  0  0  0  0  0
  -24.6440  -31.9260   23.2380 C   0  0  0  0  0  0  0  0  0  0  0  0
  -27.2110  -27.2880   20.1910 C   0  0  0  0  0  0  0  0  0  0  0  0
  -23.4320  -30.5330   21.6040 C   0  0  0  0  0  3  0  0  0  0  0  0
  -24.8700  -28.9690   20.1750 C   0  0  0  0  0  0  0  0  0  0  0  0
  -25.9780  -30.8190   21.4200 C   0  0  0  0  0  2  0  0  0  0  0  0
  -26.0480  -29.4350   20.7720 C   0  0  0  0  0  0  0  0  0  0  0  0
  -27.2210  -28.6070   20.7670 C   0  0  0  0  0  3  0  0  0  0  0  0
  -26.0060  -26.9010   19.5580 C   0  0  0  0  0  3  0  0  0  0  0  0
  -24.8560  -27.7120   19.5550 C   0  0  0  0  0  3  0  0  0  0  0  0
  -23.6410  -29.8580   20.2240 C   0  0  0  0  0  2  0  0  0  0  0  0
  -24.7050  -31.1120   22.1440 N   0  0  0  0  0  0  0  0  0  0  0  0
  -23.5630  -32.2120   23.7730 O   0  0  0  0  0  0  0  0  0  0  0  0
  -22.7620  -29.5230   22.5680 C   0  0  0  0  0  0  0  0  0  0  0  0
  -21.4330  -29.3540   22.4460 N   0  0  0  0  0  0  0  0  0  0  0  0
  -23.4370  -28.8940   23.3860 O   0  0  0  0  0  0  0  0  0  0  0  0
  -20.9460  -29.9160   21.7610 H   0  0  0  0  0  0  0  0  0  0  0  0
  -18.0500  -28.1760   22.9610 C   0  0  0  0  0  0  0  0  0  0  0  0
  -20.6110  -28.4210   23.2200 C   0  0  0  0  0  3  0  0  0  0  0  0
  -20.7020  -26.9890   22.6460 C   0  0  0  0  0  2  0  0  0  0  0  0
  -19.5950  -26.6710   21.6360 C   0  0  0  0  0  2  0  0  0  0  0  0
  -18.2160  -26.8250   22.2860 C   0  0  0  0  0  2  0  0  0  0  0  0
  -19.1750  -28.9320   23.3860 C   0  0  0  0  0  0  0  0  0  0  0  0
  -18.9640  -30.1960   23.9790 C   0  0  0  0  0  3  0  0  0  0  0  0
  -17.6630  -30.7040   24.1510 C   0  0  0  0  0  3  0  0  0  0  0  0
  -16.5530  -29.9440   23.7420 C   0  0  0  0  0  3  0  0  0  0  0  0
  -16.7480  -28.6820   23.1530 C   0  0  0  0  0  3  0  0  0  0  0  0
  -25.9290  -32.5570   23.8580 C   0  0  0  0  0  3  0  0  0  0  0  0
  -26.4510  -31.7780   25.1280 C   0  0  1  0  0  0  0  0  0  0  0  0
  -25.3640  -31.5320   26.1990 C   0  0  0  0  0  1  0  0  0  0  0  0
  -27.0340  -30.4040   24.7260 C   0  0  0  0  0  1  0  0  0  0  0  0
  -27.6040  -32.5690   25.7900 C   0  0  0  0  0  1  0  0  0  0  0  0
  -25.6200  -33.9530   24.2020 N   0  0  0  0  0  0  0  0  0  0  0  0
  -25.9270  -35.0120   23.4410 C   0  0  0  0  0  0  0  0  0  0  0  0
  -26.5690  -34.9170   22.3920 O   0  0  0  0  0  0  0  0  0  0  0  0
  -25.0460  -34.1000   25.0200 H   0  0  0  0  0  0  0  0  0  0  0  0
  -24.1740  -36.7950   23.1540 C   0  0  0  0  0  1  0  0  0  0  0  0
  -25.4470  -36.3970   23.9190 C   0  0  0  0  0  3  0  0  0  0  0  0
  -27.6010  -37.2990   24.6760 C   0  0  0  0  0  1  0  0  0  0  0  0
  -26.4670  -37.4570   23.7710 N   0  0  0  0  0  0  0  0  0  0  0  0
  -26.0580  -38.3740   23.9310 H   0  0  0  0  0  0  0  0  0  0  0  0
  2  1  1  0
  3 17  1  0
  4  9  1  0
  5  6  1  0
  5  4  1  0
  7  6  1  0
  7 22  1  0
  7  8  1  0
  9  3  1  0
  9  8  1  0
 10  3  2  0
 11 18  2  0
 11 12  1  0
 13 15  1  0
 13 17  1  0
 14  2  1  0
 14 11  1  0
 15 16  1  0
 15 14  1  0
 17 12  1  0
 19 20  2  0
 20 39  1  0
 21 20  1  0
 21 24  1  0
 22 23  1  0
 22 19  1  0
 23 21  2  0
 24 25  1  0
 25 26  2  0
 27 30  1  0
 27 26  1  0
 28 27  2  0
 29 28  1  0
 29 24  2  0
 30 31  1  0
 31 32  1  0
 32 33  2  0
 34 33  1  0
 34 38  1  0
 35 34  2  0
 36 31  2  0
 36 35  1  0
 37 36  1  0
 39 40  1  0
 40 43  1  0
 40 42  1  0
 41 39  2  0
 44 45  1  0
 44 19  1  0
 46 44  1  0
 47 48  1  0
 47  2  1  0
 49 50  1  0
 49 48  2  0
 51 62  2  0
 52 50  1  0
 52 57  1  0
 53 61  1  0
 53 63  1  0
 54 60  1  0
 54 56  1  0
 55 61  1  0
 56 55  1  0
 57 56  2  0
 58 52  2  0
 59 58  1  0
 59 54  2  0
 60 53  1  0
 61 51  1  0
 63 65  2  0
 64 63  1  0
 66 64  1  0
 67 76  2  0
 67 72  1  0
 68 64  1  0
 68 72  1  0
 69 68  1  0
 70 71  1  0
 70 69  1  0
 71 67  1  0
 72 73  2  0
 73 74  1  0
 75 74  2  0
 76 75  1  0
 77 51  1  0
 77 82  1  0
 77 78  1  0
 78 81  1  1
 78 79  1  0
 80 78  1  0
 82 85  1  0
 83 87  1  0
 83 82  1  0
 84 83  2  0
 87 86  1  0
 89 87  1  0
 89 90  1  0
 89 88  1  0
M  ISO  4   3 100  17 100  49 101  50 101
M  END
>  <TORSDO>  (43) 
F 19

>  <SCORE>  (43) 
-14.527

>  <name>  (43) 
43

>  <ligand_id>  (43) 
43

>  <original_smiles>  (43) 
[H]c1c([H])c([H])c2c(c1[H])C([H])([H])C([H])([H])C([H])([H])C2([H])N([H])C(=O)C1([H])N(C(=O)C([H])(N([H])C(=O)C([H])(N([H])C([H])([H])[H])C([H])([H])[H])C(C([H])([H])[H])(C([H])([H])[H])C([H])([H])[H])C([H])([H])c2c([H])c(OC([H])([H])C([H])([H])C([H])([H])C([H])(C([H])([H])[H])C3([H])C(=O)C([H])([H])N(C(=O)N4C([H])([H])C([H])([H])C([H])([H])C([H])(n5nc(-c6c([H])c([H])c(Oc7c([H])c([H])c(F)c([H])c7F)c([H])c6[H])c(C(=O)N([H])[H])c5N([H])[H])C4([H])[H])C([H])([H])C3([H])C([H])([H])[H])c([H])c([H])c2C1([H])[H]

>  <smiles>  (43) 
[H]c1c([H])c([H])c2c(c1[H])C([H])([H])C([H])([H])C([H])([H])C2([H])N([H])C(=O)C1([H])N(C(=O)C([H])(N([H])C(=O)C([H])(N([H])C([H])([H])[H])C([H])([H])[H])C(C([H])([H])[H])(C([H])([H])[H])C([H])([H])[H])C([H])([H])c2c([H])c(OC([H])([H])C([H])([H])C([H])([H])C([H])(C([H])([H])[H])C3([H])C(=O)C([H])([H])N(C(=O)N4C([H])([H])C([H])([H])C([H])([H])C([H])(n5nc(-c6c([H])c([H])c(Oc7c([H])c([H])c(F)c([H])c7F)c([H])c6[H])c(C(=O)N([H])[H])c5N([H])[H])C4([H])[H])C([H])([H])C3([H])C([H])([H])[H])c([H])c([H])c2C1([H])[H]

$$$$
44:0:0
     RDKit          3D

 96104  0  0  1  0  0  0  0  0999 V2000
  -29.5620  -19.7370   19.9980 C   0  0  0  0  0  3  0  0  0  0  0  0
  -29.1210  -21.3450   20.6510 C   0  0  0  0  0  2  0  0  0  0  0  0
  -29.0000  -22.9850   19.9560 C   0  0  0  0  0  3  0  0  0  0  0  0
  -28.2270  -24.5010   20.4940 C   0  0  0  0  0  3  0  0  0  0  0  0
  -28.3490  -26.0900   20.1480 O   0  0  0  0  0  0  0  0  0  0  0  0
  -24.6520  -31.8750   23.2630 C   0  0  0  0  0  0  0  0  0  0  0  0
  -27.2930  -27.1250   20.1810 C   0  0  0  0  0  0  0  0  0  0  0  0
  -23.4900  -30.5040   21.5790 C   0  0  0  0  0  3  0  0  0  0  0  0
  -24.9680  -28.9460   20.1470 C   0  0  0  0  0  0  0  0  0  0  0  0
  -26.0510  -30.7570   21.4610 C   0  0  0  0  0  2  0  0  0  0  0  0
  -26.1440  -29.3650   20.7830 C   0  0  0  0  0  0  0  0  0  0  0  0
  -27.3070  -28.4770   20.7690 C   0  0  0  0  0  3  0  0  0  0  0  0
  -26.0840  -26.8390   19.5140 C   0  0  0  0  0  3  0  0  0  0  0  0
  -24.9590  -27.7030   19.4940 C   0  0  0  0  0  3  0  0  0  0  0  0
  -23.7400  -29.8520   20.1930 C   0  0  0  0  0  2  0  0  0  0  0  0
  -24.7520  -31.0700   22.1560 N   0  0  0  0  0  0  0  0  0  0  0  0
  -23.5540  -32.1410   23.7790 O   0  0  0  0  0  0  0  0  0  0  0  0
  -22.7970  -29.4790   22.5140 C   0  0  0  0  0  0  0  0  0  0  0  0
  -21.4760  -29.2790   22.3470 N   0  0  0  0  0  0  0  0  0  0  0  0
  -23.4540  -28.8640   23.3570 O   0  0  0  0  0  0  0  0  0  0  0  0
  -20.9970  -29.8310   21.6490 H   0  0  0  0  0  0  0  0  0  0  0  0
  -18.1160  -27.9670   22.7250 C   0  0  0  0  0  0  0  0  0  0  0  0
  -20.6550  -28.3130   23.0840 C   0  0  0  0  0  3  0  0  0  0  0  0
  -20.8240  -26.8860   22.5090 C   0  0  0  0  0  2  0  0  0  0  0  0
  -19.7700  -26.5320   21.4550 C   0  0  0  0  0  2  0  0  0  0  0  0
  -18.3620  -26.6280   22.0470 C   0  0  0  0  0  2  0  0  0  0  0  0
  -19.1920  -28.7650   23.1960 C   0  0  0  0  0  0  0  0  0  0  0  0
  -18.9080  -30.0130   23.7900 C   0  0  0  0  0  3  0  0  0  0  0  0
  -17.5810  -30.4660   23.9150 C   0  0  0  0  0  3  0  0  0  0  0  0
  -16.5190  -29.6660   23.4580 C   0  0  0  0  0  3  0  0  0  0  0  0
  -16.7870  -28.4180   22.8690 C   0  0  0  0  0  3  0  0  0  0  0  0
  -25.9100  -32.5130   23.9240 C   0  0  0  0  0  3  0  0  0  0  0  0
  -26.3680  -31.7630   25.2370 C   0  0  1  0  0  0  0  0  0  0  0  0
  -25.2370  -31.5790   26.2750 C   0  0  0  0  0  1  0  0  0  0  0  0
  -26.9320  -30.3640   24.9040 C   0  0  0  0  0  1  0  0  0  0  0  0
  -27.5130  -32.5500   25.9160 C   0  0  0  0  0  1  0  0  0  0  0  0
  -25.5980  -33.9200   24.2280 N   0  0  0  0  0  0  0  0  0  0  0  0
  -25.9680  -34.9670   23.4770 C   0  0  0  0  0  0  0  0  0  0  0  0
  -26.6700  -34.8510   22.4690 O   0  0  0  0  0  0  0  0  0  0  0  0
  -24.9810  -34.0860   25.0080 H   0  0  0  0  0  0  0  0  0  0  0  0
  -24.2690  -36.7800   23.0680 C   0  0  0  0  0  1  0  0  0  0  0  0
  -25.4840  -36.3660   23.9130 C   0  0  0  0  0  3  0  0  0  0  0  0
  -27.5930  -37.2530   24.8050 C   0  0  0  0  0  1  0  0  0  0  0  0
  -26.5300  -37.4090   23.8170 N   0  0  0  0  0  0  0  0  0  0  0  0
  -26.1250  -38.3340   23.9300 H   0  0  0  0  0  0  0  0  0  0  0  0
  -28.5680  -19.4380   18.8600 C   0  0  0  0  0  2  0  0  0  0  0  0
  -27.0830  -19.6770   19.2230 C   0  0  0  0  0  2  0  0  0  0  0  0
  -26.1880  -23.1880   17.9540 C   0  0  0  0  0  2  0  0  0  0  0  0
  -24.3780  -21.5960   17.2750 C   0  0  0  0  0  2  0  0  0  0  0  0
  -26.7480  -22.1080   18.8950 C   0  0  0  0  0  2  0  0  0  0  0  0
  -24.9900  -20.5370   18.2160 C   0  0  0  0  0  2  0  0  0  0  0  0
  -24.6690  -23.0310   17.7600 C   0  0  0  0  0  3  0  0  0  0  0  0
  -26.4530  -20.7380   18.3920 N   0  0  2  0  0  4  0  0  0  0  0  0
  -26.8590  -20.6590   17.4720 H   0  0  0  0  0  0  0  0  0  0  0  0
  -24.1230  -24.1160   16.8080 C   0  0  0  0  0  2  0  0  0  0  0  0
  -22.1030  -25.4580   16.0190 C   0  0  0  0  0  1  0  0  0  0  0  0
  -22.5920  -24.2540   16.8320 C   0  0  0  0  0  2  0  0  0  0  0  0
  -29.9580  -18.1950   20.8070 C   0  0  0  0  0  2  0  0  0  0  0  0
  -30.4700  -15.3940   20.1360 C   0  0  0  0  0  0  0  0  0  0  0  0
  -30.3900  -13.0900   18.9640 C   0  0  0  0  0  2  0  0  0  0  0  0
  -29.3820  -13.0340   17.7900 C   0  0  0  0  0  2  0  0  0  0  0  0
  -27.9670  -12.7030   18.2990 C   0  0  0  0  0  2  0  0  0  0  0  0
  -27.5970  -13.5230   19.5610 C   0  0  0  0  0  3  0  0  0  0  0  0
  -28.7210  -13.5340   20.6150 C   0  0  0  0  0  2  0  0  0  0  0  0
  -29.9030  -14.1080   19.9570 N   0  0  0  0  0  0  0  0  0  0  0  0
  -31.6780  -15.4480   19.8710 O   0  0  0  0  0  0  0  0  0  0  0  0
  -29.6880  -16.6100   20.4110 N   0  0  0  0  0  0  0  0  0  0  0  0
  -28.7090  -16.3740   20.4730 H   0  0  0  0  0  0  0  0  0  0  0  0
  -25.2380  -13.9540   20.4300 C   0  0  0  0  0  0  0  0  0  0  0  0
  -24.2330  -13.1190   20.8300 C   0  0  0  0  0  0  0  0  0  0  0  0
  -24.7610  -11.7940   20.7440 C   0  0  0  0  0  0  0  0  0  0  0  0
  -26.3090  -13.1360   20.1200 N   0  0  0  0  0  0  0  0  0  0  0  0
  -26.0370  -11.8300   20.3760 N   0  0  0  0  0  0  0  0  0  0  0  0
  -24.1040  -10.4930   20.9290 C   0  0  0  0  0  0  0  0  0  0  0  0
  -24.5210   -9.5900   21.9300 C   0  0  0  0  0  3  0  0  0  0  0  0
  -23.8590   -8.3550   22.1010 C   0  0  0  0  0  3  0  0  0  0  0  0
  -22.7650   -8.0140   21.2710 C   0  0  0  0  0  0  0  0  0  0  0  0
  -22.3680   -8.9070   20.2600 C   0  0  0  0  0  3  0  0  0  0  0  0
  -23.0330  -10.1330   20.0870 C   0  0  0  0  0  3  0  0  0  0  0  0
  -22.0770   -6.8270   21.3490 O   0  0  0  0  0  0  0  0  0  0  0  0
  -21.8740   -6.1900   22.5470 C   0  0  0  0  0  0  0  0  0  0  0  0
  -21.1360   -6.7860   23.5920 C   0  0  0  0  0  3  0  0  0  0  0  0
  -20.8930   -6.0680   24.7810 C   0  0  0  0  0  3  0  0  0  0  0  0
  -21.3790   -4.7550   24.9230 C   0  0  0  0  0  0  0  0  0  0  0  0
  -22.1100   -4.1580   23.8810 C   0  0  0  0  0  3  0  0  0  0  0  0
  -22.3540   -4.8720   22.6950 C   0  0  0  0  0  0  0  0  0  0  0  0
  -23.0410   -4.2850   21.6860 F   0  0  0  0  0  0  0  0  0  0  0  0
  -21.1390   -4.0620   26.0610 F   0  0  0  0  0  0  0  0  0  0  0  0
  -22.8270  -13.5220   21.1670 C   0  0  0  0  0  0  0  0  0  0  0  0
  -22.1840  -12.7990   22.0770 N   0  0  0  0  0  0  0  0  0  0  0  0
  -22.3110  -14.5150   20.6560 O   0  0  0  0  0  0  0  0  0  0  0  0
  -22.6170  -11.9970   22.5090 H   0  0  0  0  0  0  0  0  0  0  0  0
  -21.2440  -13.0530   22.3450 H   0  0  0  0  0  0  0  0  0  0  0  0
  -25.3190  -15.3350   20.2640 N   0  0  0  0  0  0  0  0  0  0  0  0
  -24.4400  -15.8380   20.2270 H   0  0  0  0  0  0  0  0  0  0  0  0
  -26.0200  -15.7240   19.6500 H   0  0  0  0  0  0  0  0  0  0  0  0
  1 46  1  0
  1  2  1  0
  1 58  1  0
  3  4  2  0
  3  2  1  0
  5  7  1  0
  5  4  1  0
  6 17  2  0
  7 12  1  0
  8 16  1  0
  8 18  1  0
  9 15  1  0
  9 11  1  0
 10 16  1  0
 11 10  1  0
 12 11  2  0
 13  7  2  0
 14 13  1  0
 14  9  2  0
 15  8  1  0
 16  6  1  0
 18 20  2  0
 19 18  1  0
 21 19  1  0
 22 31  2  0
 22 27  1  0
 23 19  1  0
 23 27  1  0
 24 23  1  0
 25 26  1  0
 25 24  1  0
 26 22  1  0
 27 28  2  0
 28 29  1  0
 30 29  2  0
 31 30  1  0
 32  6  1  0
 32 37  1  0
 32 33  1  0
 33 36  1  1
 33 34  1  0
 35 33  1  0
 37 40  1  0
 38 42  1  0
 38 37  1  0
 39 38  2  0
 42 41  1  0
 44 42  1  0
 44 45  1  0
 44 43  1  0
 46 47  1  0
 48 50  1  0
 49 52  1  0
 49 51  1  0
 51 53  1  0
 52 55  1  0
 52 48  1  0
 53 50  1  0
 53 47  1  0
 53 54  1  6
 55 57  1  0
 56 57  1  0
 59 67  1  0
 60 65  1  0
 61 62  1  0
 61 60  1  0
 63 62  1  0
 63 72  1  0
 63 64  1  0
 65 59  1  0
 65 64  1  0
 66 59  2  0
 67 68  1  0
 67 58  1  0
 69 70  2  0
 70 89  1  0
 71 70  1  0
 71 74  1  0
 72 73  1  0
 72 69  1  0
 73 71  2  0
 74 75  1  0
 75 76  2  0
 77 80  1  0
 77 76  1  0
 78 77  2  0
 79 78  1  0
 79 74  2  0
 80 81  1  0
 81 86  2  0
 81 82  1  0
 82 83  2  0
 83 84  1  0
 84 88  1  0
 85 84  2  0
 86 85  1  0
 87 86  1  0
 89 90  1  0
 90 93  1  0
 90 92  1  0
 91 89  2  0
 94 69  1  0
 95 94  1  0
 96 94  1  0
M  ISO  4   4 101   5 101  59 100  67 100
M  END
>  <TORSDO>  (44) 
F 25

>  <SCORE>  (44) 
-13.691

>  <name>  (44) 
44

>  <ligand_id>  (44) 
44

>  <original_smiles>  (44) 
[H]c1c([H])c([H])c2c(c1[H])C([H])([H])C([H])([H])C([H])([H])C2([H])N([H])C(=O)C1([H])N(C(=O)C([H])(N([H])C(=O)C([H])(N([H])C([H])([H])[H])C([H])([H])[H])C(C([H])([H])[H])(C([H])([H])[H])C([H])([H])[H])C([H])([H])c2c([H])c(OC([H])([H])C([H])([H])C([H])([H])C([H])(C([H])([H])N([H])C(=O)N3C([H])([H])C([H])([H])C([H])([H])C([H])(n4nc(-c5c([H])c([H])c(Oc6c([H])c([H])c(F)c([H])c6F)c([H])c5[H])c(C(=O)N([H])[H])c4N([H])[H])C3([H])[H])C([H])([H])C([H])([H])[N+]3([H])C([H])([H])C([H])([H])C([H])(C([H])([H])C([H])([H])C([H])([H])[H])C([H])([H])C3([H])[H])c([H])c([H])c2C1([H])[H]

>  <smiles>  (44) 
[H]c1c([H])c([H])c2c(c1[H])C([H])([H])C([H])([H])C([H])([H])C2([H])N([H])C(=O)C1([H])N(C(=O)C([H])(N([H])C(=O)C([H])(N([H])C([H])([H])[H])C([H])([H])[H])C(C([H])([H])[H])(C([H])([H])[H])C([H])([H])[H])C([H])([H])c2c([H])c(OC([H])([H])C([H])([H])C([H])([H])C([H])(C([H])([H])N([H])C(=O)N3C([H])([H])C([H])([H])C([H])([H])C([H])(n4nc(-c5c([H])c([H])c(Oc6c([H])c([H])c(F)c([H])c6F)c([H])c5[H])c(C(=O)N([H])[H])c4N([H])[H])C3([H])[H])C([H])([H])C([H])([H])[N+]3([H])C([H])([H])C([H])([H])C([H])(C([H])([H])C([H])([H])C([H])([H])[H])C([H])([H])C3([H])[H])c([H])c([H])c2C1([H])[H]

$$$$
45:0:0
     RDKit          3D

 94 95  0  0  1  0  0  0  0  0999 V2000
  -28.9990  -24.5900   18.3530 C   0  0  0  0  0  2  0  0  0  0  0  0
  -27.2160  -21.7780   20.0140 C   0  0  0  0  0 15  0  0  0  0  0  0
  -30.0950  -22.4610   20.5420 C   0  0  0  0  0 15  0  0  0  0  0  0
  -26.9780  -23.4940   18.6860 C   0  0  0  0  0  1  0  0  0  0  0  0
  -28.9360  -20.6380   20.3730 C   0  0  0  0  0 15  0  0  0  0  0  0
  -30.1570  -24.1040   19.3690 N   0  0  0  0  0  1  0  0  0  0  0  0
  -29.9430  -16.7980   20.2100 C   0  0  0  0  0  0  0  0  0  0  0  0
  -30.2990  -13.9890   19.4240 C   0  0  0  0  0  2  0  0  0  0  0  0
  -29.5660  -13.1040   18.3200 C   0  0  0  0  0  2  0  0  0  0  0  0
  -28.2470  -12.5100   18.8140 C   0  0  0  0  0  2  0  0  0  0  0  0
  -27.5760  -13.5450   19.7270 C   0  0  0  0  0  3  0  0  0  0  0  0
  -28.5120  -14.2960   20.7620 C   0  0  0  0  0  2  0  0  0  0  0  0
  -29.5090  -15.2480   20.0620 N   0  0  0  0  0  0  0  0  0  0  0  0
  -31.1890  -16.5260   20.1660 O   0  0  0  0  0  0  0  0  0  0  0  0
  -29.2310  -18.4770   20.2530 N   0  0  0  0  0  2  0  0  0  0  0  0
  -28.2660  -18.1810   20.1970 H   0  0  0  0  0  0  0  0  0  0  0  0
  -25.2020  -13.9470   20.4630 C   0  0  0  0  0  0  0  0  0  0  0  0
  -24.1560  -13.1460   20.8130 C   0  0  0  0  0  0  0  0  0  0  0  0
  -24.6540  -11.8050   20.7940 C   0  0  0  0  0  0  0  0  0  0  0  0
  -26.2790  -13.1140   20.2530 N   0  0  0  0  0  0  0  0  0  0  0  0
  -25.9610  -11.8070   20.5010 N   0  0  0  0  0  0  0  0  0  0  0  0
  -23.9290  -10.5330   20.9840 C   0  0  0  0  0  0  0  0  0  0  0  0
  -24.3390   -9.5770   21.9390 C   0  0  0  0  0  3  0  0  0  0  0  0
  -23.6030   -8.3850   22.1260 C   0  0  0  0  0  3  0  0  0  0  0  0
  -22.4420   -8.1360   21.3560 C   0  0  0  0  0  0  0  0  0  0  0  0
  -22.0470   -9.0820   20.3930 C   0  0  0  0  0  3  0  0  0  0  0  0
  -22.7840  -10.2650   20.2060 C   0  0  0  0  0  3  0  0  0  0  0  0
  -21.6830   -6.9930   21.4470 O   0  0  0  0  0  0  0  0  0  0  0  0
  -21.6130   -6.2610   22.6070 C   0  0  0  0  0  0  0  0  0  0  0  0
  -21.1590   -6.8280   23.8170 C   0  0  0  0  0  3  0  0  0  0  0  0
  -21.0370   -6.0260   24.9690 C   0  0  0  0  0  3  0  0  0  0  0  0
  -21.3580   -4.6570   24.9110 C   0  0  0  0  0  0  0  0  0  0  0  0
  -21.8030   -4.0880   23.7050 C   0  0  0  0  0  3  0  0  0  0  0  0
  -21.9260   -4.8870   22.5550 C   0  0  0  0  0  0  0  0  0  0  0  0
  -22.3350   -4.3290   21.3910 F   0  0  0  0  0  0  0  0  0  0  0  0
  -21.2340   -3.8830   26.0160 F   0  0  0  0  0  0  0  0  0  0  0  0
  -22.7480  -13.6040   21.0460 C   0  0  0  0  0  0  0  0  0  0  0  0
  -22.0120  -12.9140   21.9080 N   0  0  0  0  0  0  0  0  0  0  0  0
  -22.3120  -14.6190   20.5030 O   0  0  0  0  0  0  0  0  0  0  0  0
  -22.3810  -12.0970   22.3690 H   0  0  0  0  0  0  0  0  0  0  0  0
  -21.0660  -13.2090   22.1070 H   0  0  0  0  0  0  0  0  0  0  0  0
  -25.3260  -15.3210   20.2640 N   0  0  0  0  0  0  0  0  0  0  0  0
  -24.5310  -15.9470   20.3320 H   0  0  0  0  0  0  0  0  0  0  0  0
  -26.1680  -15.7750   19.9390 H   0  0  0  0  0  0  0  0  0  0  0  0
  -26.2620  -23.1780   17.4280 N   0  0  0  0  0  4  0  0  0  0  0  0
  -26.7590  -22.5180   16.8590 H   0  0  0  0  0  0  0  0  0  0  0  0
  -26.1060  -24.0110   16.8870 H   0  0  0  0  0  0  0  0  0  0  0  0
  -25.3650  -22.7800   17.6440 H   0  0  0  0  0  0  0  0  0  0  0  0
  -29.3420  -24.4240   16.9530 C   0  0  0  0  0  3  0  0  0  0  0  0
  -31.0210  -24.8160   15.0480 C   0  0  0  0  0  1  0  0  0  0  0  0
  -30.6660  -25.1030   16.5150 C   0  0  0  0  0  2  0  0  0  0  0  0
  -29.3610  -22.9060   17.0830 C   0  0  0  0  0  2  0  0  0  0  0  0
  -28.8790  -22.3730   18.5440 C   0  0  0  0  0  1  0  0  0  0  0  0
  -27.9920  -24.2610   20.2970 O   0  0  0  0  0  1  0  0  0  0  0  0
  -24.6610  -31.7230   23.0900 C   0  0  0  0  0  0  0  0  0  0  0  0
  -27.2270  -25.9440   20.2250 C   0  0  0  0  0  0  0  0  0  0  0  0
  -23.5240  -30.2730   21.4790 C   0  0  0  0  0  3  0  0  0  0  0  0
  -25.0140  -28.4850   20.1430 C   0  0  0  0  0  0  0  0  0  0  0  0
  -26.1280  -30.1840   21.4980 C   0  0  0  0  0  2  0  0  0  0  0  0
  -26.1940  -28.6610   20.8680 C   0  0  0  0  0  0  0  0  0  0  0  0
  -27.2170  -27.4400   20.9010 C   0  0  0  0  0  3  0  0  0  0  0  0
  -26.0910  -26.3030   19.3440 C   0  0  0  0  0  3  0  0  0  0  0  0
  -25.0560  -27.3320   19.3480 C   0  0  0  0  0  3  0  0  0  0  0  0
  -23.8220  -29.5020   20.1470 C   0  0  0  0  0  2  0  0  0  0  0  0
  -24.8050  -30.7820   22.0690 N   0  0  0  0  0  0  0  0  0  0  0  0
  -23.5470  -32.0570   23.5420 O   0  0  0  0  0  0  0  0  0  0  0  0
  -22.7370  -29.3710   22.4730 C   0  0  0  0  0  0  0  0  0  0  0  0
  -21.3950  -29.2650   22.3600 N   0  0  0  0  0  0  0  0  0  0  0  0
  -23.3610  -28.7550   23.3390 O   0  0  0  0  0  0  0  0  0  0  0  0
  -20.9290  -29.8100   21.6480 H   0  0  0  0  0  0  0  0  0  0  0  0
  -17.9840  -28.0880   22.9350 C   0  0  0  0  0  0  0  0  0  0  0  0
  -20.5530  -28.3470   23.1510 C   0  0  0  0  0  3  0  0  0  0  0  0
  -20.6280  -26.9060   22.5900 C   0  0  0  0  0  2  0  0  0  0  0  0
  -19.5140  -26.5910   21.5870 C   0  0  0  0  0  2  0  0  0  0  0  0
  -18.1420  -26.7420   22.2490 C   0  0  0  0  0  2  0  0  0  0  0  0
  -19.1140  -28.8500   23.3420 C   0  0  0  0  0  0  0  0  0  0  0  0
  -18.9020  -30.1050   23.9540 C   0  0  0  0  0  3  0  0  0  0  0  0
  -17.5990  -30.5990   24.1560 C   0  0  0  0  0  3  0  0  0  0  0  0
  -16.4870  -29.8360   23.7580 C   0  0  0  0  0  3  0  0  0  0  0  0
  -16.6800  -28.5810   23.1540 C   0  0  0  0  0  3  0  0  0  0  0  0
  -25.8790  -32.4380   23.7540 C   0  0  0  0  0  3  0  0  0  0  0  0
  -25.5060  -33.8390   24.0790 N   0  0  0  0  0  0  0  0  0  0  0  0
  -25.8400  -34.9320   23.3740 C   0  0  0  0  0  0  0  0  0  0  0  0
  -26.5330  -34.8680   22.3570 O   0  0  0  0  0  0  0  0  0  0  0  0
  -24.8840  -33.9590   24.8650 H   0  0  0  0  0  0  0  0  0  0  0  0
  -24.1010  -36.7380   23.0590 C   0  0  0  0  0  1  0  0  0  0  0  0
  -25.3360  -36.3100   23.8680 C   0  0  0  0  0  3  0  0  0  0  0  0
  -27.4510  -37.2100   24.7490 C   0  0  0  0  0  1  0  0  0  0  0  0
  -26.3590  -37.3810   23.7950 N   0  0  0  0  0  0  0  0  0  0  0  0
  -25.9380  -38.2920   23.9540 H   0  0  0  0  0  0  0  0  0  0  0  0
  -26.3610  -31.7220   25.0760 C   0  0  1  0  0  0  0  0  0  0  0  0
  -25.2390  -31.5110   26.1220 C   0  0  0  0  0  1  0  0  0  0  0  0
  -26.9690  -30.3380   24.7820 C   0  0  0  0  0  1  0  0  0  0  0  0
  -27.4830  -32.5520   25.7440 C   0  0  0  0  0  1  0  0  0  0  0  0
  1  6  1  0
  7 15  1  0
  8 13  1  0
  9 10  1  0
  9  8  1  0
 11 10  1  0
 11 20  1  0
 11 12  1  0
 13  7  1  0
 13 12  1  0
 14  7  2  0
 16 15  1  0
 17 18  2  0
 18 37  1  0
 19 18  1  0
 19 22  1  0
 20 17  1  0
 20 21  1  0
 21 19  2  0
 22 23  1  0
 23 24  2  0
 25 28  1  0
 25 24  1  0
 26 25  2  0
 27 26  1  0
 27 22  2  0
 28 29  1  0
 29 30  1  0
 30 31  2  0
 32 31  1  0
 32 36  1  0
 33 32  2  0
 34 29  2  0
 34 33  1  0
 35 34  1  0
 37 38  1  0
 38 41  1  0
 38 40  1  0
 39 37  2  0
 42 43  1  0
 42 17  1  0
 44 42  1  0
 45 48  1  0
 45  4  1  0
 46 45  1  0
 47 45  1  0
 49 52  1  0
 49  1  1  0
 50 51  1  0
 51 49  1  0
 52 53  1  0
 55 66  2  0
 56 54  1  0
 56 61  1  0
 57 65  1  0
 57 67  1  0
 58 64  1  0
 58 60  1  0
 59 65  1  0
 60 61  2  0
 60 59  1  0
 62 63  1  0
 62 56  2  0
 63 58  2  0
 64 57  1  0
 65 55  1  0
 67 69  2  0
 68 67  1  0
 70 68  1  0
 71 80  2  0
 71 76  1  0
 72 68  1  0
 72 76  1  0
 73 72  1  0
 74 75  1  0
 74 73  1  0
 75 71  1  0
 76 77  2  0
 77 78  1  0
 79 78  2  0
 80 79  1  0
 81 55  1  0
 81 82  1  0
 81 91  1  0
 82 85  1  0
 83 87  1  0
 83 82  1  0
 84 83  2  0
 87 86  1  0
 89 87  1  0
 89 90  1  0
 89 88  1  0
 91 94  1  1
 91 92  1  0
 93 91  1  0
M  ISO  4   7 100  15 100  53 101  54 101
M  END
>  <TORSDO>  (45) 
F 21

>  <SCORE>  (45) 
-14.329

>  <name>  (45) 
45

>  <ligand_id>  (45) 
45

>  <original_smiles>  (45) 
[H]c1c([H])c([H])c2c(c1[H])C([H])([H])C([H])([H])C([H])([H])C2([H])N([H])C(=O)C1([H])N(C(=O)C([H])(N([H])C(=O)C([H])(N([H])C([H])([H])[H])C([H])([H])[H])C(C([H])([H])[H])(C([H])([H])[H])C([H])([H])[H])C([H])([H])c2c([H])c(OC([H])([H])C([H])([H])C([H])(C3=NC([H])([H])C([H])(N([H])C(=O)N4C([H])([H])C([H])([H])C([H])([H])C([H])(n5nc(-c6c([H])c([H])c(Oc7c([H])c([H])c(F)c([H])c7F)c([H])c6[H])c(C(=O)N([H])[H])c5N([H])[H])C4([H])[H])C([H])([H])C3([H])[N+]([H])([H])[H])C([H])([H])C([H])([H])[H])c([H])c([H])c2C1([H])[H]

>  <smiles>  (45) 
[H]c1c([H])c([H])c2c(c1[H])C([H])([H])C([H])([H])C([H])([H])C2([H])N([H])C(=O)C1([H])N(C(=O)C([H])(N([H])C(=O)C([H])(N([H])C([H])([H])[H])C([H])([H])[H])C(C([H])([H])[H])(C([H])([H])[H])C([H])([H])[H])C([H])([H])c2c([H])c(OC([H])([H])C([H])([H])C([H])(C3=NC([H])([H])C([H])(N([H])C(=O)N4C([H])([H])C([H])([H])C([H])([H])C([H])(n5nc(-c6c([H])c([H])c(Oc7c([H])c([H])c(F)c([H])c7F)c([H])c6[H])c(C(=O)N([H])[H])c5N([H])[H])C4([H])[H])C([H])([H])C3([H])[N+]([H])([H])[H])C([H])([H])C([H])([H])[H])c([H])c([H])c2C1([H])[H]

$$$$
46:0:0
     RDKit          3D

 88 95  0  0  1  0  0  0  0  0999 V2000
  -28.7490  -22.7770   20.5450 C   0  0  0  0  0  2  0  0  0  0  0  0
  -29.7090  -24.6050   22.0580 C   0  0  0  0  0  1  0  0  0  0  0  0
  -29.2580  -24.2520   20.6300 C   0  0  0  0  0  3  0  0  0  0  0  0
  -28.1330  -25.2110   20.1450 C   0  0  0  0  0  2  0  0  0  0  0  0
  -28.3610  -26.6360   20.2420 O   0  0  0  0  0  0  0  0  0  0  0  0
  -24.6210  -31.9070   23.2650 C   0  0  0  0  0  0  0  0  0  0  0  0
  -27.2190  -27.4240   20.1860 C   0  0  0  0  0  0  0  0  0  0  0  0
  -23.4020  -30.5170   21.6250 C   0  0  0  0  0  3  0  0  0  0  0  0
  -24.8410  -28.9790   20.1890 C   0  0  0  0  0  0  0  0  0  0  0  0
  -25.9330  -30.8510   21.4270 C   0  0  0  0  0  2  0  0  0  0  0  0
  -26.0080  -29.4810   20.7810 C   0  0  0  0  0  0  0  0  0  0  0  0
  -27.1990  -28.7130   20.7770 C   0  0  0  0  0  3  0  0  0  0  0  0
  -26.0320  -26.9600   19.5660 C   0  0  0  0  0  3  0  0  0  0  0  0
  -24.8500  -27.7180   19.5770 C   0  0  0  0  0  3  0  0  0  0  0  0
  -23.6050  -29.8450   20.2420 C   0  0  0  0  0  2  0  0  0  0  0  0
  -24.6700  -31.1050   22.1630 N   0  0  0  0  0  0  0  0  0  0  0  0
  -23.5410  -32.1870   23.8050 O   0  0  0  0  0  0  0  0  0  0  0  0
  -22.7450  -29.4970   22.5840 C   0  0  0  0  0  0  0  0  0  0  0  0
  -21.4190  -29.3240   22.4590 N   0  0  0  0  0  0  0  0  0  0  0  0
  -23.4250  -28.8660   23.3960 O   0  0  0  0  0  0  0  0  0  0  0  0
  -20.9300  -29.8820   21.7730 H   0  0  0  0  0  0  0  0  0  0  0  0
  -18.0380  -28.1520   22.9620 C   0  0  0  0  0  0  0  0  0  0  0  0
  -20.5970  -28.3930   23.2310 C   0  0  0  0  0  3  0  0  0  0  0  0
  -20.6900  -26.9620   22.6540 C   0  0  0  0  0  2  0  0  0  0  0  0
  -19.5850  -26.6470   21.6410 C   0  0  0  0  0  2  0  0  0  0  0  0
  -18.2040  -26.8020   22.2860 C   0  0  0  0  0  2  0  0  0  0  0  0
  -19.1610  -28.9070   23.3910 C   0  0  0  0  0  0  0  0  0  0  0  0
  -18.9520  -30.1710   23.9820 C   0  0  0  0  0  3  0  0  0  0  0  0
  -17.6510  -30.6830   24.1480 C   0  0  0  0  0  3  0  0  0  0  0  0
  -16.5410  -29.9260   23.7360 C   0  0  0  0  0  3  0  0  0  0  0  0
  -16.7350  -28.6630   23.1490 C   0  0  0  0  0  3  0  0  0  0  0  0
  -25.9120  -32.5280   23.8810 C   0  0  0  0  0  3  0  0  0  0  0  0
  -26.4330  -31.7460   25.1490 C   0  0  1  0  0  0  0  0  0  0  0  0
  -25.3440  -31.5090   26.2200 C   0  0  0  0  0  1  0  0  0  0  0  0
  -27.0060  -30.3680   24.7460 C   0  0  0  0  0  1  0  0  0  0  0  0
  -27.5900  -32.5310   25.8080 C   0  0  0  0  0  1  0  0  0  0  0  0
  -25.6100  -33.9250   24.2200 N   0  0  0  0  0  0  0  0  0  0  0  0
  -25.9290  -34.9780   23.4550 C   0  0  0  0  0  0  0  0  0  0  0  0
  -26.5770  -34.8760   22.4110 O   0  0  0  0  0  0  0  0  0  0  0  0
  -25.0320  -34.0790   25.0320 H   0  0  0  0  0  0  0  0  0  0  0  0
  -24.1820  -36.7610   23.1540 C   0  0  0  0  0  1  0  0  0  0  0  0
  -25.4520  -36.3650   23.9240 C   0  0  0  0  0  3  0  0  0  0  0  0
  -27.6120  -37.2600   24.6770 C   0  0  0  0  0  1  0  0  0  0  0  0
  -26.4770  -37.4220   23.7730 N   0  0  0  0  0  0  0  0  0  0  0  0
  -26.0720  -38.3410   23.9320 H   0  0  0  0  0  0  0  0  0  0  0  0
  -29.7790  -21.6230   20.7020 C   0  0  0  0  0  2  0  0  0  0  0  0
  -29.1300  -20.2240   20.5010 C   0  0  0  0  0  2  0  0  0  0  0  0
  -30.0800  -19.0360   20.6520 C   0  0  0  0  0  3  0  0  0  0  0  0
  -29.8000  -17.8820   21.3010 C   0  0  0  0  0  3  0  0  0  0  0  0
  -30.7650  -16.7060   21.4440 C   0  0  0  0  0  2  0  0  0  0  0  0
  -30.7290  -14.4220   20.4070 C   0  0  0  0  0  0  0  0  0  0  0  0
  -30.3700  -12.2780   19.2340 C   0  0  0  0  0  2  0  0  0  0  0  0
  -29.4400  -12.5020   18.0260 C   0  0  0  0  0  2  0  0  0  0  0  0
  -27.9630  -12.3830   18.4490 C   0  0  0  0  0  2  0  0  0  0  0  0
  -27.6350  -13.2220   19.7150 C   0  0  0  0  0  3  0  0  0  0  0  0
  -28.6840  -12.9940   20.8270 C   0  0  0  0  0  2  0  0  0  0  0  0
  -30.0180  -13.2710   20.2640 N   0  0  0  0  0  0  0  0  0  0  0  0
  -31.8160  -14.6070   19.8490 O   0  0  0  0  0  0  0  0  0  0  0  0
  -30.1630  -15.3930   21.1480 N   0  0  0  0  0  0  0  0  0  0  0  0
  -29.2850  -15.1680   21.5920 H   0  0  0  0  0  0  0  0  0  0  0  0
  -25.2400  -13.8550   20.4120 C   0  0  0  0  0  0  0  0  0  0  0  0
  -24.1650  -13.0960   20.7880 C   0  0  0  0  0  0  0  0  0  0  0  0
  -24.6130  -11.7400   20.7710 C   0  0  0  0  0  0  0  0  0  0  0  0
  -26.2780  -12.9620   20.1910 N   0  0  0  0  0  0  0  0  0  0  0  0
  -25.9030  -11.6850   20.4630 N   0  0  0  0  0  0  0  0  0  0  0  0
  -23.8740  -10.4870   20.9750 C   0  0  0  0  0  0  0  0  0  0  0  0
  -24.2980   -9.5220   21.9150 C   0  0  0  0  0  3  0  0  0  0  0  0
  -23.5610   -8.3340   22.1040 C   0  0  0  0  0  3  0  0  0  0  0  0
  -22.3840   -8.1020   21.3530 C   0  0  0  0  0  0  0  0  0  0  0  0
  -21.9790   -9.0540   20.4040 C   0  0  0  0  0  3  0  0  0  0  0  0
  -22.7160  -10.2330   20.2120 C   0  0  0  0  0  3  0  0  0  0  0  0
  -21.6170   -6.9670   21.4530 O   0  0  0  0  0  0  0  0  0  0  0  0
  -21.5610   -6.2350   22.6130 C   0  0  0  0  0  0  0  0  0  0  0  0
  -21.1500   -6.8060   23.8370 C   0  0  0  0  0  3  0  0  0  0  0  0
  -21.0400   -6.0020   24.9880 C   0  0  0  0  0  3  0  0  0  0  0  0
  -21.3300   -4.6260   24.9180 C   0  0  0  0  0  0  0  0  0  0  0  0
  -21.7340   -4.0540   23.6990 C   0  0  0  0  0  3  0  0  0  0  0  0
  -21.8470   -4.8560   22.5500 C   0  0  0  0  0  0  0  0  0  0  0  0
  -22.2170   -4.2940   21.3740 F   0  0  0  0  0  0  0  0  0  0  0  0
  -21.2170   -3.8530   26.0230 F   0  0  0  0  0  0  0  0  0  0  0  0
  -22.7730  -13.5900   21.0570 C   0  0  0  0  0  0  0  0  0  0  0  0
  -22.0390  -12.9150   21.9350 N   0  0  0  0  0  0  0  0  0  0  0  0
  -22.3430  -14.6120   20.5220 O   0  0  0  0  0  0  0  0  0  0  0  0
  -22.3990  -12.0920   22.3940 H   0  0  0  0  0  0  0  0  0  0  0  0
  -21.1040  -13.2290   22.1520 H   0  0  0  0  0  0  0  0  0  0  0  0
  -25.4160  -15.2230   20.2210 N   0  0  0  0  0  0  0  0  0  0  0  0
  -24.6510  -15.8820   20.3190 H   0  0  0  0  0  0  0  0  0  0  0  0
  -26.2720  -15.6540   19.8920 H   0  0  0  0  0  0  0  0  0  0  0  0
  1  3  1  0
  1 46  1  0
  3  2  1  0
  4  5  1  0
  4  3  1  0
  6 17  2  0
  7  5  1  0
  7 12  1  0
  8 16  1  0
  8 18  1  0
  9 15  1  0
  9 11  1  0
 10 16  1  0
 11 10  1  0
 12 11  2  0
 13 14  1  0
 13  7  2  0
 14  9  2  0
 15  8  1  0
 16  6  1  0
 18 20  2  0
 19 18  1  0
 21 19  1  0
 22 31  2  0
 22 27  1  0
 23 19  1  0
 23 27  1  0
 24 23  1  0
 25 26  1  0
 25 24  1  0
 26 22  1  0
 27 28  2  0
 28 29  1  0
 30 29  2  0
 31 30  1  0
 32  6  1  0
 32 37  1  0
 32 33  1  0
 33 36  1  1
 33 34  1  0
 35 33  1  0
 37 40  1  0
 38 42  1  0
 38 37  1  0
 39 38  2  0
 42 41  1  0
 44 42  1  0
 44 45  1  0
 44 43  1  0
 47 48  1  0
 47 46  1  0
 48 49  2  0
 49 50  1  0
 51 59  1  0
 52 57  1  0
 53 54  1  0
 53 52  1  0
 55 54  1  0
 55 64  1  0
 55 56  1  0
 57 51  1  0
 57 56  1  0
 58 51  2  0
 59 50  1  0
 59 60  1  0
 61 62  2  0
 62 81  1  0
 63 62  1  0
 63 66  1  0
 64 61  1  0
 64 65  1  0
 65 63  2  0
 66 67  1  0
 67 68  2  0
 69 72  1  0
 69 68  1  0
 70 69  2  0
 71 70  1  0
 71 66  2  0
 72 73  1  0
 73 74  1  0
 74 75  2  0
 76 75  1  0
 76 80  1  0
 77 76  2  0
 78 73  2  0
 78 77  1  0
 79 78  1  0
 81 82  1  0
 82 85  1  0
 82 84  1  0
 83 81  2  0
 86 87  1  0
 86 61  1  0
 88 86  1  0
M  ISO  4   4 101   5 101  51 100  59 100
M  END
>  <TORSDO>  (46) 
F 22

>  <SCORE>  (46) 
-13.003

>  <name>  (46) 
46

>  <ligand_id>  (46) 
46

>  <original_smiles>  (46) 
[H]C(=C([H])C([H])([H])C([H])([H])C([H])([H])C([H])(C([H])([H])[H])C([H])([H])Oc1c([H])c([H])c2c(c1[H])C([H])([H])N(C(=O)C([H])(N([H])C(=O)C([H])(N([H])C([H])([H])[H])C([H])([H])[H])C(C([H])([H])[H])(C([H])([H])[H])C([H])([H])[H])C([H])(C(=O)N([H])C1([H])c3c([H])c([H])c([H])c([H])c3C([H])([H])C([H])([H])C1([H])[H])C2([H])[H])C([H])([H])N([H])C(=O)N1C([H])([H])C([H])([H])C([H])([H])C([H])(n2nc(-c3c([H])c([H])c(Oc4c([H])c([H])c(F)c([H])c4F)c([H])c3[H])c(C(=O)N([H])[H])c2N([H])[H])C1([H])[H]

>  <smiles>  (46) 
[H]C(=C([H])C([H])([H])C([H])([H])C([H])([H])C([H])(C([H])([H])[H])C([H])([H])Oc1c([H])c([H])c2c(c1[H])C([H])([H])N(C(=O)C([H])(N([H])C(=O)C([H])(N([H])C([H])([H])[H])C([H])([H])[H])C(C([H])([H])[H])(C([H])([H])[H])C([H])([H])[H])C([H])(C(=O)N([H])C1([H])c3c([H])c([H])c([H])c([H])c3C([H])([H])C([H])([H])C1([H])[H])C2([H])[H])C([H])([H])N([H])C(=O)N1C([H])([H])C([H])([H])C([H])([H])C([H])(n2nc(-c3c([H])c([H])c(Oc4c([H])c([H])c(F)c([H])c4F)c([H])c3[H])c(C(=O)N([H])[H])c2N([H])[H])C1([H])[H]

$$$$
47:0:0
     RDKit          3D

 94102  0  0  1  0  0  0  0  0999 V2000
  -30.9680  -17.9030   19.1990 C   0  0  0  0  0  2  0  0  0  0  0  0
  -30.2520  -19.2220   18.7630 C   0  0  0  0  0  2  0  0  0  0  0  0
  -29.2690  -18.0670   21.0880 C   0  0  0  0  0  2  0  0  0  0  0  0
  -30.5240  -17.2990   20.5650 C   0  0  0  0  0  3  0  0  0  0  0  0
  -29.3060  -19.6410   21.0630 C   0  0  0  0  0  3  0  0  0  0  0  0
  -30.0930  -20.2960   19.8770 C   0  0  0  0  0  3  0  0  0  0  0  0
  -31.0620  -14.7520   20.2810 C   0  0  0  0  0  0  0  0  0  0  0  0
  -30.8200  -12.4780   19.3190 C   0  0  0  0  0  2  0  0  0  0  0  0
  -29.8900  -12.5700   18.0910 C   0  0  0  0  0  2  0  0  0  0  0  0
  -28.4090  -12.4660   18.5100 C   0  0  0  0  0  2  0  0  0  0  0  0
  -28.0570  -13.4020   19.6970 C   0  0  0  0  0  3  0  0  0  0  0  0
  -29.0970  -13.2700   20.8320 C   0  0  0  0  0  2  0  0  0  0  0  0
  -30.4220  -13.5440   20.2540 N   0  0  0  0  0  0  0  0  0  0  0  0
  -32.2320  -14.8830   19.9100 O   0  0  0  0  0  0  0  0  0  0  0  0
  -30.2640  -15.8220   20.5500 N   0  0  0  0  0  0  0  0  0  0  0  0
  -29.3250  -15.5580   20.8040 H   0  0  0  0  0  0  0  0  0  0  0  0
  -25.6890  -14.1020   20.4140 C   0  0  0  0  0  0  0  0  0  0  0  0
  -24.5900  -13.3730   20.7790 C   0  0  0  0  0  0  0  0  0  0  0  0
  -24.9930  -12.0030   20.7400 C   0  0  0  0  0  0  0  0  0  0  0  0
  -26.6950  -13.1790   20.1760 N   0  0  0  0  0  0  0  0  0  0  0  0
  -26.2810  -11.9110   20.4300 N   0  0  0  0  0  0  0  0  0  0  0  0
  -24.2150  -10.7720   20.9210 C   0  0  0  0  0  0  0  0  0  0  0  0
  -24.5930   -9.7910   21.8630 C   0  0  0  0  0  3  0  0  0  0  0  0
  -23.8190   -8.6230   22.0320 C   0  0  0  0  0  3  0  0  0  0  0  0
  -22.6510   -8.4290   21.2570 C   0  0  0  0  0  0  0  0  0  0  0  0
  -22.2910   -9.3970   20.3030 C   0  0  0  0  0  3  0  0  0  0  0  0
  -23.0660  -10.5560   20.1330 C   0  0  0  0  0  3  0  0  0  0  0  0
  -21.8510   -7.3140   21.3350 O   0  0  0  0  0  0  0  0  0  0  0  0
  -21.7470   -6.5810   22.4900 C   0  0  0  0  0  0  0  0  0  0  0  0
  -21.2810   -7.1520   23.6950 C   0  0  0  0  0  3  0  0  0  0  0  0
  -21.1250   -6.3460   24.8410 C   0  0  0  0  0  3  0  0  0  0  0  0
  -21.4250   -4.9710   24.7810 C   0  0  0  0  0  0  0  0  0  0  0  0
  -21.8830   -4.4010   23.5820 C   0  0  0  0  0  3  0  0  0  0  0  0
  -22.0410   -5.2040   22.4380 C   0  0  0  0  0  0  0  0  0  0  0  0
  -22.4630   -4.6460   21.2780 F   0  0  0  0  0  0  0  0  0  0  0  0
  -21.2670   -4.1960   25.8800 F   0  0  0  0  0  0  0  0  0  0  0  0
  -23.2130  -13.9070   21.0520 C   0  0  0  0  0  0  0  0  0  0  0  0
  -22.4540  -13.2340   21.9110 N   0  0  0  0  0  0  0  0  0  0  0  0
  -22.8210  -14.9550   20.5410 O   0  0  0  0  0  0  0  0  0  0  0  0
  -22.7840  -12.3850   22.3460 H   0  0  0  0  0  0  0  0  0  0  0  0
  -21.5310  -13.5740   22.1380 H   0  0  0  0  0  0  0  0  0  0  0  0
  -25.9120  -15.4650   20.2450 N   0  0  0  0  0  0  0  0  0  0  0  0
  -25.1720  -16.1500   20.3580 H   0  0  0  0  0  0  0  0  0  0  0  0
  -26.7710  -15.8680   19.8940 H   0  0  0  0  0  0  0  0  0  0  0  0
  -29.8040  -20.1130   22.3480 N   0  0  0  0  0  0  0  0  0  0  0  0
  -29.7480  -21.1230   22.4100 H   0  0  0  0  0  0  0  0  0  0  0  0
  -30.7930  -19.9040   22.4370 H   0  0  0  0  0  0  0  0  0  0  0  0
  -29.4700  -21.5670   19.3360 N   0  0  0  0  0  4  0  0  0  0  0  0
  -28.5690  -21.3400   18.9480 H   0  0  0  0  0  0  0  0  0  0  0  0
  -30.0540  -21.8500   18.5660 H   0  0  0  0  0  0  0  0  0  0  0  0
  -29.3160  -22.7850   20.2140 C   0  0  0  0  0  2  0  0  0  0  0  0
  -28.9430  -24.1280   19.4500 C   0  0  0  0  0  3  0  0  0  0  0  0
  -28.5530  -25.3690   20.3410 C   0  0  0  0  0  3  0  0  0  0  0  0
  -28.5460  -26.6910   19.7120 O   0  0  0  0  0  0  0  0  0  0  0  0
  -24.5330  -31.6410   23.0330 C   0  0  0  0  0  0  0  0  0  0  0  0
  -27.3650  -27.4210   19.7610 C   0  0  0  0  0  0  0  0  0  0  0  0
  -23.3920  -30.2680   21.3240 C   0  0  0  0  0  3  0  0  0  0  0  0
  -24.9130  -28.8600   19.8280 C   0  0  0  0  0  0  0  0  0  0  0  0
  -25.9040  -30.7360   21.1490 C   0  0  0  0  0  2  0  0  0  0  0  0
  -26.0520  -29.3980   20.4410 C   0  0  0  0  0  0  0  0  0  0  0  0
  -27.2830  -28.6920   20.3960 C   0  0  0  0  0  3  0  0  0  0  0  0
  -26.2050  -26.9100   19.1420 C   0  0  0  0  0  3  0  0  0  0  0  0
  -24.9880  -27.6190   19.1720 C   0  0  0  0  0  3  0  0  0  0  0  0
  -23.6330  -29.6640   19.9140 C   0  0  0  0  0  2  0  0  0  0  0  0
  -24.6270  -30.8960   21.8940 N   0  0  0  0  0  0  0  0  0  0  0  0
  -23.4400  -31.8380   23.5840 O   0  0  0  0  0  0  0  0  0  0  0  0
  -22.7840  -29.1760   22.2340 C   0  0  0  0  0  0  0  0  0  0  0  0
  -21.4690  -28.9380   22.0940 N   0  0  0  0  0  0  0  0  0  0  0  0
  -23.4940  -28.5460   23.0230 O   0  0  0  0  0  0  0  0  0  0  0  0
  -20.9550  -29.5020   21.4320 H   0  0  0  0  0  0  0  0  0  0  0  0
  -18.1530  -27.5680   22.5320 C   0  0  0  0  0  0  0  0  0  0  0  0
  -20.6970  -27.9270   22.8160 C   0  0  0  0  0  3  0  0  0  0  0  0
  -20.8620  -26.5330   22.1680 C   0  0  0  0  0  2  0  0  0  0  0  0
  -19.7730  -26.2130   21.1380 C   0  0  0  0  0  2  0  0  0  0  0  0
  -18.3880  -26.2630   21.7880 C   0  0  0  0  0  2  0  0  0  0  0  0
  -19.2360  -28.3560   23.0010 C   0  0  0  0  0  0  0  0  0  0  0  0
  -18.9630  -29.5770   23.6550 C   0  0  0  0  0  3  0  0  0  0  0  0
  -17.6370  -30.0110   23.8450 C   0  0  0  0  0  3  0  0  0  0  0  0
  -16.5670  -29.2180   23.3930 C   0  0  0  0  0  3  0  0  0  0  0  0
  -16.8260  -27.9990   22.7420 C   0  0  0  0  0  3  0  0  0  0  0  0
  -25.7870  -32.3000   23.6860 C   0  0  0  0  0  3  0  0  0  0  0  0
  -25.4250  -33.6770   24.0510 N   0  0  0  0  0  0  0  0  0  0  0  0
  -25.7420  -34.7630   23.3340 C   0  0  0  0  0  0  0  0  0  0  0  0
  -26.4380  -34.7130   22.3160 O   0  0  0  0  0  0  0  0  0  0  0  0
  -24.8080  -33.7870   24.8430 H   0  0  0  0  0  0  0  0  0  0  0  0
  -23.9790  -36.5200   22.9770 C   0  0  0  0  0  1  0  0  0  0  0  0
  -25.1990  -36.1200   23.8220 C   0  0  0  0  0  3  0  0  0  0  0  0
  -27.2690  -37.0340   24.7730 C   0  0  0  0  0  1  0  0  0  0  0  0
  -26.2050  -37.2040   23.7870 N   0  0  0  0  0  0  0  0  0  0  0  0
  -25.7680  -38.1070   23.9450 H   0  0  0  0  0  0  0  0  0  0  0  0
  -26.3210  -31.5120   24.9450 C   0  0  1  0  0  0  0  0  0  0  0  0
  -25.2280  -31.2090   25.9980 C   0  0  0  0  0  1  0  0  0  0  0  0
  -26.9520  -30.1670   24.5200 C   0  0  0  0  0  1  0  0  0  0  0  0
  -27.4380  -32.3260   25.6390 C   0  0  0  0  0  1  0  0  0  0  0  0
  1  4  1  0
  2  1  1  0
  2  6  1  0
  4 15  1  0
  4  3  1  0
  5  3  1  0
  5 45  1  0
  6 48  1  0
  6  5  1  0
  7 15  1  0
  8 13  1  0
  9 10  1  0
  9  8  1  0
 11 10  1  0
 11 20  1  0
 11 12  1  0
 13  7  1  0
 13 12  1  0
 14  7  2  0
 15 16  1  0
 17 18  2  0
 18 37  1  0
 19 18  1  0
 19 22  1  0
 20 17  1  0
 20 21  1  0
 21 19  2  0
 22 23  1  0
 23 24  2  0
 25 28  1  0
 25 24  1  0
 26 25  2  0
 27 26  1  0
 27 22  2  0
 28 29  1  0
 29 30  1  0
 30 31  2  0
 32 31  1  0
 32 36  1  0
 33 32  2  0
 34 29  2  0
 34 33  1  0
 35 34  1  0
 37 38  1  0
 38 41  1  0
 38 40  1  0
 39 37  2  0
 42 43  1  0
 42 17  1  0
 44 42  1  0
 45 46  1  0
 45 47  1  0
 48 51  1  0
 49 48  1  0
 50 48  1  0
 52 51  1  0
 52 53  2  0
 54 56  1  0
 54 53  1  0
 55 66  2  0
 56 61  1  0
 57 65  1  0
 57 67  1  0
 58 64  1  0
 58 60  1  0
 59 65  1  0
 60 59  1  0
 61 60  2  0
 62 63  1  0
 62 56  2  0
 63 58  2  0
 64 57  1  0
 65 55  1  0
 67 69  2  0
 68 67  1  0
 70 68  1  0
 71 80  2  0
 71 76  1  0
 72 68  1  0
 72 76  1  0
 73 72  1  0
 74 75  1  0
 74 73  1  0
 75 71  1  0
 76 77  2  0
 77 78  1  0
 79 78  2  0
 80 79  1  0
 81 55  1  0
 81 82  1  0
 81 91  1  0
 82 85  1  0
 83 87  1  0
 83 82  1  0
 84 83  2  0
 87 86  1  0
 89 87  1  0
 89 90  1  0
 89 88  1  0
 91 94  1  1
 91 92  1  0
 93 91  1  0
M  ISO  4   7 100  15 100  53 101  54 101
M  END
>  <TORSDO>  (47) 
F 21

>  <SCORE>  (47) 
-12.410

>  <name>  (47) 
47

>  <ligand_id>  (47) 
47

>  <original_smiles>  (47) 
[H]c1c([H])c([H])c2c(c1[H])C([H])([H])C([H])([H])C([H])([H])C2([H])N([H])C(=O)C1([H])N(C(=O)C([H])(N([H])C(=O)C([H])(N([H])C([H])([H])[H])C([H])([H])[H])C(C([H])([H])[H])(C([H])([H])[H])C([H])([H])[H])C([H])([H])c2c([H])c(OC([H])([H])C([H])([H])C([H])([H])[N+]([H])([H])C3([H])C([H])([H])C([H])([H])C([H])(N([H])C(=O)N4C([H])([H])C([H])([H])C([H])([H])C([H])(n5nc(-c6c([H])c([H])c(Oc7c([H])c([H])c(F)c([H])c7F)c([H])c6[H])c(C(=O)N([H])[H])c5N([H])[H])C4([H])[H])C([H])([H])C3([H])N([H])[H])c([H])c([H])c2C1([H])[H]

>  <smiles>  (47) 
[H]c1c([H])c([H])c2c(c1[H])C([H])([H])C([H])([H])C([H])([H])C2([H])N([H])C(=O)C1([H])N(C(=O)C([H])(N([H])C(=O)C([H])(N([H])C([H])([H])[H])C([H])([H])[H])C(C([H])([H])[H])(C([H])([H])[H])C([H])([H])[H])C([H])([H])c2c([H])c(OC([H])([H])C([H])([H])C([H])([H])[N+]([H])([H])C3([H])C([H])([H])C([H])([H])C([H])(N([H])C(=O)N4C([H])([H])C([H])([H])C([H])([H])C([H])(n5nc(-c6c([H])c([H])c(Oc7c([H])c([H])c(F)c([H])c7F)c([H])c6[H])c(C(=O)N([H])[H])c5N([H])[H])C4([H])[H])C([H])([H])C3([H])N([H])[H])c([H])c([H])c2C1([H])[H]

$$$$
48:0:0
     RDKit          3D

 94102  0  0  1  0  0  0  0  0999 V2000
  -29.4990  -21.1010   20.3610 C   0  0  0  0  0  0  0  0  0  0  0  0
  -30.6780  -21.2640   20.0400 O   0  0  0  0  0  0  0  0  0  0  0  0
  -29.9060  -18.4310   20.8970 C   0  0  0  0  0  2  0  0  0  0  0  0
  -28.4230  -17.5350   19.2310 C   0  0  0  0  0  2  0  0  0  0  0  0
  -28.9220  -19.6210   20.4780 C   0  0  0  0  0  3  0  0  0  0  0  0
  -29.7580  -17.1860   19.9240 C   0  0  0  0  0  3  0  0  0  0  0  0
  -28.3200  -19.0820   19.1520 C   0  0  0  0  0  3  0  0  0  0  0  0
  -30.5600  -14.7040   20.2520 C   0  0  0  0  0  0  0  0  0  0  0  0
  -30.3600  -12.4540   19.2170 C   0  0  0  0  0  2  0  0  0  0  0  0
  -29.4030  -12.5970   18.0090 C   0  0  0  0  0  2  0  0  0  0  0  0
  -27.9390  -12.4230   18.4600 C   0  0  0  0  0  2  0  0  0  0  0  0
  -27.5950  -13.2700   19.7130 C   0  0  0  0  0  3  0  0  0  0  0  0
  -28.6700  -13.1160   20.8150 C   0  0  0  0  0  2  0  0  0  0  0  0
  -29.9670  -13.4650   20.2200 N   0  0  0  0  0  0  0  0  0  0  0  0
  -31.7160  -14.8650   19.8590 O   0  0  0  0  0  0  0  0  0  0  0  0
  -29.7220  -15.7750   20.4880 N   0  0  0  0  0  0  0  0  0  0  0  0
  -28.8250  -15.4940   20.8530 H   0  0  0  0  0  0  0  0  0  0  0  0
  -25.2120  -13.8530   20.4720 C   0  0  0  0  0  0  0  0  0  0  0  0
  -24.1530  -13.0740   20.8540 C   0  0  0  0  0  0  0  0  0  0  0  0
  -24.6200  -11.7260   20.8060 C   0  0  0  0  0  0  0  0  0  0  0  0
  -26.2560  -12.9790   20.2170 N   0  0  0  0  0  0  0  0  0  0  0  0
  -25.9060  -11.6940   20.4760 N   0  0  0  0  0  0  0  0  0  0  0  0
  -23.9030  -10.4580   20.9970 C   0  0  0  0  0  0  0  0  0  0  0  0
  -24.3340   -9.5010   21.9420 C   0  0  0  0  0  3  0  0  0  0  0  0
  -23.6180   -8.3000   22.1200 C   0  0  0  0  0  3  0  0  0  0  0  0
  -22.4560   -8.0470   21.3540 C   0  0  0  0  0  0  0  0  0  0  0  0
  -22.0430   -8.9920   20.3990 C   0  0  0  0  0  3  0  0  0  0  0  0
  -22.7600  -10.1860   20.2180 C   0  0  0  0  0  3  0  0  0  0  0  0
  -21.7090   -6.8980   21.4420 O   0  0  0  0  0  0  0  0  0  0  0  0
  -21.6300   -6.1790   22.6080 C   0  0  0  0  0  0  0  0  0  0  0  0
  -21.1440   -6.7500   23.8040 C   0  0  0  0  0  3  0  0  0  0  0  0
  -21.0170   -5.9560   24.9610 C   0  0  0  0  0  3  0  0  0  0  0  0
  -21.3610   -4.5920   24.9230 C   0  0  0  0  0  0  0  0  0  0  0  0
  -21.8380   -4.0200   23.7310 C   0  0  0  0  0  3  0  0  0  0  0  0
  -21.9690   -4.8110   22.5750 C   0  0  0  0  0  0  0  0  0  0  0  0
  -22.4100   -4.2510   21.4240 F   0  0  0  0  0  0  0  0  0  0  0  0
  -21.2300   -3.8260   26.0320 F   0  0  0  0  0  0  0  0  0  0  0  0
  -22.7600  -13.5460   21.1510 C   0  0  0  0  0  0  0  0  0  0  0  0
  -22.0460  -12.8360   22.0180 N   0  0  0  0  0  0  0  0  0  0  0  0
  -22.3140  -14.5760   20.6500 O   0  0  0  0  0  0  0  0  0  0  0  0
  -22.4180  -11.9990   22.4430 H   0  0  0  0  0  0  0  0  0  0  0  0
  -21.1120  -13.1340   22.2630 H   0  0  0  0  0  0  0  0  0  0  0  0
  -25.3670  -15.2230   20.2910 N   0  0  0  0  0  0  0  0  0  0  0  0
  -24.5790  -15.8580   20.3610 H   0  0  0  0  0  0  0  0  0  0  0  0
  -26.1780  -15.6390   19.8580 H   0  0  0  0  0  0  0  0  0  0  0  0
  -26.9310  -19.5230   18.8820 N   0  0  0  0  0  4  0  0  0  0  0  0
  -26.3250  -19.3490   19.6660 H   0  0  0  0  0  0  0  0  0  0  0  0
  -26.5590  -19.0270   18.0880 H   0  0  0  0  0  0  0  0  0  0  0  0
  -26.8880  -20.5000   18.6550 H   0  0  0  0  0  0  0  0  0  0  0  0
  -28.5750  -22.3700   20.6170 C   0  0  0  0  0  2  0  0  0  0  0  0
  -30.2020  -24.2660   21.3590 C   0  0  0  0  0  1  0  0  0  0  0  0
  -29.1030  -23.8670   20.3630 C   0  0  0  0  0  3  0  0  0  0  0  0
  -27.9720  -24.9910   20.3670 C   0  0  0  0  0  2  0  0  0  0  0  0
  -28.2890  -26.4420   20.2380 O   0  0  0  0  0  0  0  0  0  0  0  0
  -24.6160  -31.9200   23.2410 C   0  0  0  0  0  0  0  0  0  0  0  0
  -27.1960  -27.3280   20.1910 C   0  0  0  0  0  0  0  0  0  0  0  0
  -23.4100  -30.5190   21.6110 C   0  0  0  0  0  3  0  0  0  0  0  0
  -24.8510  -28.9730   20.1820 C   0  0  0  0  0  0  0  0  0  0  0  0
  -25.9530  -30.8230   21.4290 C   0  0  0  0  0  2  0  0  0  0  0  0
  -26.0260  -29.4460   20.7770 C   0  0  0  0  0  0  0  0  0  0  0  0
  -27.2030  -28.6360   20.7730 C   0  0  0  0  0  3  0  0  0  0  0  0
  -25.9990  -26.9260   19.5540 C   0  0  0  0  0  3  0  0  0  0  0  0
  -24.8400  -27.7200   19.5600 C   0  0  0  0  0  3  0  0  0  0  0  0
  -23.6230  -29.8530   20.2290 C   0  0  0  0  0  2  0  0  0  0  0  0
  -24.6790  -31.1040   22.1490 N   0  0  0  0  0  0  0  0  0  0  0  0
  -23.5320  -32.2050   23.7700 O   0  0  0  0  0  0  0  0  0  0  0  0
  -22.7420  -29.5020   22.5680 C   0  0  0  0  0  0  0  0  0  0  0  0
  -21.4160  -29.3320   22.4380 N   0  0  0  0  0  0  0  0  0  0  0  0
  -23.4160  -28.8780   23.3930 O   0  0  0  0  0  0  0  0  0  0  0  0
  -20.9320  -29.8920   21.7490 H   0  0  0  0  0  0  0  0  0  0  0  0
  -18.0280  -28.1580   22.9250 C   0  0  0  0  0  0  0  0  0  0  0  0
  -20.5880  -28.4010   23.2020 C   0  0  0  0  0  3  0  0  0  0  0  0
  -20.6860  -26.9690   22.6310 C   0  0  0  0  0  2  0  0  0  0  0  0
  -19.5860  -26.6500   21.6140 C   0  0  0  0  0  2  0  0  0  0  0  0
  -18.2000  -26.8050   22.2540 C   0  0  0  0  0  2  0  0  0  0  0  0
  -19.1520  -28.9140   23.3540 C   0  0  0  0  0  0  0  0  0  0  0  0
  -18.9460  -30.1790   23.9430 C   0  0  0  0  0  3  0  0  0  0  0  0
  -17.6450  -30.6900   24.1130 C   0  0  0  0  0  3  0  0  0  0  0  0
  -16.5340  -29.9320   23.7020 C   0  0  0  0  0  3  0  0  0  0  0  0
  -16.7270  -28.6700   23.1110 C   0  0  0  0  0  3  0  0  0  0  0  0
  -25.9030  -32.5450   23.8600 C   0  0  0  0  0  3  0  0  0  0  0  0
  -25.5960  -33.9430   24.1880 N   0  0  0  0  0  0  0  0  0  0  0  0
  -25.9220  -34.9950   23.4270 C   0  0  0  0  0  0  0  0  0  0  0  0
  -26.5820  -34.8910   22.3880 O   0  0  0  0  0  0  0  0  0  0  0  0
  -25.0170  -34.1070   24.9970 H   0  0  0  0  0  0  0  0  0  0  0  0
  -24.1910  -36.7930   23.0940 C   0  0  0  0  0  1  0  0  0  0  0  0
  -25.4410  -36.3850   23.8900 C   0  0  0  0  0  3  0  0  0  0  0  0
  -27.5790  -37.2740   24.7030 C   0  0  0  0  0  1  0  0  0  0  0  0
  -26.4710  -37.4380   23.7680 N   0  0  0  0  0  0  0  0  0  0  0  0
  -26.0620  -38.3560   23.9160 H   0  0  0  0  0  0  0  0  0  0  0  0
  -26.4190  -31.7750   25.1370 C   0  0  1  0  0  0  0  0  0  0  0  0
  -25.3270  -31.5420   26.2040 C   0  0  0  0  0  1  0  0  0  0  0  0
  -27.0020  -30.3950   24.7450 C   0  0  0  0  0  1  0  0  0  0  0  0
  -27.5650  -32.5730   25.8030 C   0  0  0  0  0  1  0  0  0  0  0  0
  1 50  1  0
  2  1  2  0
  4  6  1  0
  5  1  1  0
  5  3  1  0
  6 16  1  0
  6  3  1  0
  7 46  1  0
  7  4  1  0
  7  5  1  0
  8 16  1  0
  9 14  1  0
 10 11  1  0
 10  9  1  0
 12 11  1  0
 12 21  1  0
 12 13  1  0
 14  8  1  0
 14 13  1  0
 15  8  2  0
 16 17  1  0
 18 19  2  0
 19 38  1  0
 20 19  1  0
 20 23  1  0
 21 18  1  0
 21 22  1  0
 22 20  2  0
 23 24  1  0
 24 25  2  0
 26 29  1  0
 26 25  1  0
 27 26  2  0
 28 27  1  0
 28 23  2  0
 29 30  1  0
 30 31  1  0
 31 32  2  0
 33 32  1  0
 33 37  1  0
 34 33  2  0
 35 30  2  0
 35 34  1  0
 36 35  1  0
 38 39  1  0
 39 42  1  0
 39 41  1  0
 40 38  2  0
 43 44  1  0
 43 18  1  0
 45 43  1  0
 46 47  1  0
 48 46  1  0
 49 46  1  0
 52 53  1  0
 52 50  1  0
 52 51  1  0
 54 53  1  0
 55 66  2  0
 56 54  1  0
 56 61  1  0
 57 65  1  0
 57 67  1  0
 58 64  1  0
 58 60  1  0
 59 65  1  0
 60 59  1  0
 61 60  2  0
 62 63  1  0
 62 56  2  0
 63 58  2  0
 64 57  1  0
 65 55  1  0
 67 69  2  0
 68 67  1  0
 70 68  1  0
 71 80  2  0
 71 76  1  0
 72 68  1  0
 72 76  1  0
 73 72  1  0
 74 75  1  0
 74 73  1  0
 75 71  1  0
 76 77  2  0
 77 78  1  0
 79 78  2  0
 80 79  1  0
 81 55  1  0
 81 82  1  0
 81 91  1  0
 82 85  1  0
 83 87  1  0
 83 82  1  0
 84 83  2  0
 87 86  1  0
 89 87  1  0
 89 90  1  0
 89 88  1  0
 91 94  1  1
 91 92  1  0
 93 91  1  0
M  ISO  4   8 100  16 100  53 101  54 101
M  END
>  <TORSDO>  (48) 
F 21

>  <SCORE>  (48) 
-14.017

>  <name>  (48) 
48

>  <ligand_id>  (48) 
48

>  <original_smiles>  (48) 
[H]c1c([H])c([H])c2c(c1[H])C([H])([H])C([H])([H])C([H])([H])C2([H])N([H])C(=O)C1([H])N(C(=O)C([H])(N([H])C(=O)C([H])(N([H])C([H])([H])[H])C([H])([H])[H])C(C([H])([H])[H])(C([H])([H])[H])C([H])([H])[H])C([H])([H])c2c([H])c(OC([H])([H])C([H])(C([H])([H])[H])C([H])([H])C(=O)C3([H])C([H])([H])C([H])(N([H])C(=O)N4C([H])([H])C([H])([H])C([H])([H])C([H])(n5nc(-c6c([H])c([H])c(Oc7c([H])c([H])c(F)c([H])c7F)c([H])c6[H])c(C(=O)N([H])[H])c5N([H])[H])C4([H])[H])C([H])([H])C3([H])[N+]([H])([H])[H])c([H])c([H])c2C1([H])[H]

>  <smiles>  (48) 
[H]c1c([H])c([H])c2c(c1[H])C([H])([H])C([H])([H])C([H])([H])C2([H])N([H])C(=O)C1([H])N(C(=O)C([H])(N([H])C(=O)C([H])(N([H])C([H])([H])[H])C([H])([H])[H])C(C([H])([H])[H])(C([H])([H])[H])C([H])([H])[H])C([H])([H])c2c([H])c(OC([H])([H])C([H])(C([H])([H])[H])C([H])([H])C(=O)C3([H])C([H])([H])C([H])(N([H])C(=O)N4C([H])([H])C([H])([H])C([H])([H])C([H])(n5nc(-c6c([H])c([H])c(Oc7c([H])c([H])c(F)c([H])c7F)c([H])c6[H])c(C(=O)N([H])[H])c5N([H])[H])C4([H])[H])C([H])([H])C3([H])[N+]([H])([H])[H])c([H])c([H])c2C1([H])[H]

$$$$
49:0:0
     RDKit          3D

100108  0  0  1  0  0  0  0  0999 V2000
  -30.1380  -21.1080   20.4250 C   0  0  0  0  0  2  0  0  0  0  0  0
  -29.1240  -23.1230   22.2530 C   0  0  0  0  0  2  0  0  0  0  0  0
  -29.7910  -22.5290   19.9260 C   0  0  0  0  0  3  0  0  0  0  0  0
  -30.0540  -23.5280   21.0870 C   0  0  0  0  0  3  0  0  0  0  0  0
  -29.4180  -20.6770   21.7270 C   0  0  0  0  0  3  0  0  0  0  0  0
  -29.4290  -21.7620   22.7430 N   0  0  0  0  0  4  0  0  0  0  0  0
  -28.7660  -21.5370   23.4680 H   0  0  0  0  0  0  0  0  0  0  0  0
  -30.3360  -21.7840   23.1810 H   0  0  0  0  0  0  0  0  0  0  0  0
  -30.6130  -22.8170   18.6590 C   0  0  0  0  0  0  0  0  0  0  0  0
  -29.9560  -22.9950   17.5220 N   0  0  0  0  0  0  0  0  0  0  0  0
  -31.8410  -22.8690   18.6990 O   0  0  0  0  0  0  0  0  0  0  0  0
  -28.9470  -22.9400   17.4950 H   0  0  0  0  0  0  0  0  0  0  0  0
  -30.4600  -23.1720   16.6630 H   0  0  0  0  0  0  0  0  0  0  0  0
  -30.0830  -19.4270   22.3630 C   0  0  0  0  0  2  0  0  0  0  0  0
  -30.4000  -18.2310   21.4370 C   0  0  0  0  0  2  0  0  0  0  0  0
  -31.2240  -17.1530   22.1730 C   0  0  0  0  0  2  0  0  0  0  0  0
  -31.9880  -16.1980   21.2410 C   0  0  0  0  0  2  0  0  0  0  0  0
  -31.4230  -14.3500   19.6860 C   0  0  0  0  0  0  0  0  0  0  0  0
  -30.8930  -12.2020   18.5930 C   0  0  0  0  0  2  0  0  0  0  0  0
  -29.8480  -12.3350   17.4710 C   0  0  0  0  0  2  0  0  0  0  0  0
  -28.4160  -12.2920   18.0410 C   0  0  0  0  0  2  0  0  0  0  0  0
  -28.2220  -13.2470   19.2470 C   0  0  0  0  0  3  0  0  0  0  0  0
  -29.3510  -13.0430   20.2790 C   0  0  0  0  0  2  0  0  0  0  0  0
  -30.6420  -13.2450   19.5950 N   0  0  0  0  0  0  0  0  0  0  0  0
  -32.3850  -14.5750   18.9410 O   0  0  0  0  0  0  0  0  0  0  0  0
  -31.1320  -15.1430   20.7200 N   0  0  0  0  0  0  0  0  0  0  0  0
  -30.3380  -14.8770   21.2820 H   0  0  0  0  0  0  0  0  0  0  0  0
  -25.9740  -14.0320   20.2390 C   0  0  0  0  0  0  0  0  0  0  0  0
  -24.8870  -13.3320   20.6970 C   0  0  0  0  0  0  0  0  0  0  0  0
  -25.2240  -11.9510   20.5650 C   0  0  0  0  0  0  0  0  0  0  0  0
  -26.9080  -13.0770   19.8640 N   0  0  0  0  0  0  0  0  0  0  0  0
  -26.4650  -11.8200   20.1170 N   0  0  0  0  0  0  0  0  0  0  0  0
  -24.4160  -10.7450   20.7800 C   0  0  0  0  0  0  0  0  0  0  0  0
  -24.7900   -9.7620   21.7210 C   0  0  0  0  0  3  0  0  0  0  0  0
  -23.9810   -8.6230   21.9220 C   0  0  0  0  0  3  0  0  0  0  0  0
  -22.7830   -8.4630   21.1840 C   0  0  0  0  0  0  0  0  0  0  0  0
  -22.4310   -9.4330   20.2300 C   0  0  0  0  0  3  0  0  0  0  0  0
  -23.2390  -10.5630   20.0270 C   0  0  0  0  0  3  0  0  0  0  0  0
  -21.9460   -7.3780   21.2990 O   0  0  0  0  0  0  0  0  0  0  0  0
  -21.7600   -6.7350   22.4960 C   0  0  0  0  0  0  0  0  0  0  0  0
  -21.2660   -7.4060   23.6350 C   0  0  0  0  0  3  0  0  0  0  0  0
  -21.0220   -6.6910   24.8240 C   0  0  0  0  0  3  0  0  0  0  0  0
  -21.2620   -5.3040   24.8750 C   0  0  0  0  0  0  0  0  0  0  0  0
  -21.7540   -4.6350   23.7410 C   0  0  0  0  0  3  0  0  0  0  0  0
  -21.9960   -5.3450   22.5520 C   0  0  0  0  0  0  0  0  0  0  0  0
  -22.4450   -4.6900   21.4560 F   0  0  0  0  0  0  0  0  0  0  0  0
  -21.0230   -4.6150   26.0150 F   0  0  0  0  0  0  0  0  0  0  0  0
  -23.5730  -13.9130   21.1320 C   0  0  0  0  0  0  0  0  0  0  0  0
  -22.8750  -13.2430   22.0450 N   0  0  0  0  0  0  0  0  0  0  0  0
  -23.1780  -14.9930   20.7000 O   0  0  0  0  0  0  0  0  0  0  0  0
  -23.2050  -12.3670   22.4210 H   0  0  0  0  0  0  0  0  0  0  0  0
  -21.9970  -13.6190   22.3710 H   0  0  0  0  0  0  0  0  0  0  0  0
  -26.2380  -15.3910   20.0940 N   0  0  0  0  0  0  0  0  0  0  0  0
  -25.5450  -16.0980   20.3120 H   0  0  0  0  0  0  0  0  0  0  0  0
  -27.0790  -15.7740   19.6790 H   0  0  0  0  0  0  0  0  0  0  0  0
  -29.9910  -25.0530   20.7430 C   0  0  0  0  0  3  0  0  0  0  0  0
  -31.2300  -27.1960   21.5330 C   0  0  0  0  0  1  0  0  0  0  0  0
  -30.4520  -25.9270   21.9430 C   0  0  0  0  0  2  0  0  0  0  0  0
  -28.6110  -25.4860   20.1980 C   0  0  0  0  0  2  0  0  0  0  0  0
  -28.6410  -26.8610   19.8310 O   0  0  0  0  0  0  0  0  0  0  0  0
  -24.6180  -31.7240   23.0860 C   0  0  0  0  0  0  0  0  0  0  0  0
  -27.4330  -27.5090   19.8650 C   0  0  0  0  0  0  0  0  0  0  0  0
  -23.4640  -30.3130   21.4120 C   0  0  0  0  0  3  0  0  0  0  0  0
  -24.9740  -28.8820   19.9430 C   0  0  0  0  0  0  0  0  0  0  0  0
  -25.9690  -30.7960   21.2110 C   0  0  0  0  0  2  0  0  0  0  0  0
  -26.1100  -29.4500   20.5330 C   0  0  0  0  0  0  0  0  0  0  0  0
  -27.3470  -28.7720   20.4870 C   0  0  0  0  0  3  0  0  0  0  0  0
  -26.2820  -26.9460   19.2740 C   0  0  0  0  0  3  0  0  0  0  0  0
  -25.0530  -27.6290   19.3110 C   0  0  0  0  0  3  0  0  0  0  0  0
  -23.6930  -29.6800   20.0150 C   0  0  0  0  0  2  0  0  0  0  0  0
  -24.7020  -30.9570   21.9610 N   0  0  0  0  0  0  0  0  0  0  0  0
  -23.5280  -31.9320   23.6390 O   0  0  0  0  0  0  0  0  0  0  0  0
  -22.8660  -29.2400   22.3490 C   0  0  0  0  0  0  0  0  0  0  0  0
  -21.5520  -29.0010   22.2220 N   0  0  0  0  0  0  0  0  0  0  0  0
  -23.5820  -28.6210   23.1410 O   0  0  0  0  0  0  0  0  0  0  0  0
  -21.0350  -29.5560   21.5560 H   0  0  0  0  0  0  0  0  0  0  0  0
  -18.2350  -27.6550   22.6980 C   0  0  0  0  0  0  0  0  0  0  0  0
  -20.7800  -28.0100   22.9710 C   0  0  0  0  0  3  0  0  0  0  0  0
  -20.9410  -26.6000   22.3580 C   0  0  0  0  0  2  0  0  0  0  0  0
  -19.8490  -26.2590   21.3390 C   0  0  0  0  0  2  0  0  0  0  0  0
  -18.4630  -26.3310   21.9890 C   0  0  0  0  0  2  0  0  0  0  0  0
  -19.3230  -28.4510   23.1450 C   0  0  0  0  0  0  0  0  0  0  0  0
  -19.0530  -29.6880   23.7680 C   0  0  0  0  0  3  0  0  0  0  0  0
  -17.7300  -30.1320   23.9500 C   0  0  0  0  0  3  0  0  0  0  0  0
  -16.6570  -29.3310   23.5220 C   0  0  0  0  0  3  0  0  0  0  0  0
  -16.9100  -28.0950   22.9000 C   0  0  0  0  0  3  0  0  0  0  0  0
  -25.8790  -32.3950   23.7140 C   0  0  0  0  0  3  0  0  0  0  0  0
  -25.5150  -33.7710   24.0780 N   0  0  0  0  0  0  0  0  0  0  0  0
  -25.8070  -34.8540   23.3460 C   0  0  0  0  0  0  0  0  0  0  0  0
  -26.4810  -34.8010   22.3140 O   0  0  0  0  0  0  0  0  0  0  0  0
  -24.9160  -33.8820   24.8830 H   0  0  0  0  0  0  0  0  0  0  0  0
  -24.0130  -36.5830   23.0170 C   0  0  0  0  0  1  0  0  0  0  0  0
  -25.2610  -36.2080   23.8330 C   0  0  0  0  0  3  0  0  0  0  0  0
  -27.3480  -37.1530   24.7130 C   0  0  0  0  0  1  0  0  0  0  0  0
  -26.2530  -37.3040   23.7590 N   0  0  0  0  0  0  0  0  0  0  0  0
  -25.8090  -38.2040   23.9260 H   0  0  0  0  0  0  0  0  0  0  0  0
  -26.4380  -31.6160   24.9670 C   0  0  1  0  0  0  0  0  0  0  0  0
  -25.3610  -31.2930   26.0280 C   0  0  0  0  0  1  0  0  0  0  0  0
  -27.0890  -30.2820   24.5340 C   0  0  0  0  0  1  0  0  0  0  0  0
  -27.5480  -32.4470   25.6500 C   0  0  0  0  0  1  0  0  0  0  0  0
  1  5  1  0
  2  6  1  0
  3  9  1  0
  3  1  1  0
  3  4  1  0
  4 56  1  0
  4  2  1  0
  5 14  1  0
  5  6  1  0
  6  8  1  0
  6  7  1  0
  9 11  2  0
 10  9  1  0
 12 10  1  0
 13 10  1  0
 15 16  1  0
 15 14  1  0
 17 16  1  0
 18 26  1  0
 19 24  1  0
 20 21  1  0
 20 19  1  0
 22 21  1  0
 22 31  1  0
 22 23  1  0
 24 18  1  0
 24 23  1  0
 25 18  2  0
 26 17  1  0
 26 27  1  0
 28 29  2  0
 29 48  1  0
 30 29  1  0
 30 33  1  0
 31 32  1  0
 31 28  1  0
 32 30  2  0
 33 34  1  0
 34 35  2  0
 36 39  1  0
 36 35  1  0
 37 36  2  0
 38 37  1  0
 38 33  2  0
 39 40  1  0
 40 45  2  0
 40 41  1  0
 41 42  2  0
 42 43  1  0
 43 47  1  0
 44 43  2  0
 45 44  1  0
 46 45  1  0
 48 49  1  0
 49 52  1  0
 49 51  1  0
 50 48  2  0
 53 28  1  0
 53 54  1  0
 55 53  1  0
 56 59  1  0
 56 58  1  0
 57 58  1  0
 60 62  1  0
 60 59  1  0
 61 72  2  0
 62 67  1  0
 63 71  1  0
 63 73  1  0
 64 70  1  0
 64 66  1  0
 65 71  1  0
 66 65  1  0
 67 66  2  0
 68 69  1  0
 68 62  2  0
 69 64  2  0
 70 63  1  0
 71 61  1  0
 73 75  2  0
 74 73  1  0
 76 74  1  0
 77 86  2  0
 77 82  1  0
 78 74  1  0
 78 82  1  0
 79 78  1  0
 80 81  1  0
 80 79  1  0
 81 77  1  0
 82 83  2  0
 83 84  1  0
 85 84  2  0
 86 85  1  0
 87 61  1  0
 87 88  1  0
 87 97  1  0
 88 91  1  0
 89 93  1  0
 89 88  1  0
 90 89  2  0
 93 92  1  0
 95 93  1  0
 95 96  1  0
 95 94  1  0
 97100  1  1
 97 98  1  0
 99 97  1  0
M  ISO  4  18 100  26 100  59 101  60 101
M  END
>  <TORSDO>  (49) 
F 24

>  <SCORE>  (49) 
-10.495

>  <name>  (49) 
49

>  <ligand_id>  (49) 
49

>  <original_smiles>  (49) 
[H]c1c([H])c([H])c2c(c1[H])C([H])([H])C([H])([H])C([H])([H])C2([H])N([H])C(=O)C1([H])N(C(=O)C([H])(N([H])C(=O)C([H])(N([H])C([H])([H])[H])C([H])([H])[H])C(C([H])([H])[H])(C([H])([H])[H])C([H])([H])[H])C([H])([H])c2c([H])c(OC([H])([H])C([H])(C([H])([H])C([H])([H])[H])C3([H])C([H])(C(=O)N([H])[H])C([H])([H])C([H])(C([H])([H])C([H])([H])C([H])([H])C([H])([H])N([H])C(=O)N4C([H])([H])C([H])([H])C([H])([H])C([H])(n5nc(-c6c([H])c([H])c(Oc7c([H])c([H])c(F)c([H])c7F)c([H])c6[H])c(C(=O)N([H])[H])c5N([H])[H])C4([H])[H])[N+]([H])([H])C3([H])[H])c([H])c([H])c2C1([H])[H]

>  <smiles>  (49) 
[H]c1c([H])c([H])c2c(c1[H])C([H])([H])C([H])([H])C([H])([H])C2([H])N([H])C(=O)C1([H])N(C(=O)C([H])(N([H])C(=O)C([H])(N([H])C([H])([H])[H])C([H])([H])[H])C(C([H])([H])[H])(C([H])([H])[H])C([H])([H])[H])C([H])([H])c2c([H])c(OC([H])([H])C([H])(C([H])([H])C([H])([H])[H])C3([H])C([H])(C(=O)N([H])[H])C([H])([H])C([H])(C([H])([H])C([H])([H])C([H])([H])C([H])([H])N([H])C(=O)N4C([H])([H])C([H])([H])C([H])([H])C([H])(n5nc(-c6c([H])c([H])c(Oc7c([H])c([H])c(F)c([H])c7F)c([H])c6[H])c(C(=O)N([H])[H])c5N([H])[H])C4([H])[H])[N+]([H])([H])C3([H])[H])c([H])c([H])c2C1([H])[H]

$$$$
50:0:0
     RDKit          3D

 91 99  0  0  1  0  0  0  0  0999 V2000
  -29.2050  -18.9910   20.5140 C   0  0  0  0  0  0  0  0  0  0  0  0
  -28.0160  -18.7730   20.2740 O   0  0  0  0  0  0  0  0  0  0  0  0
  -30.5930  -14.9950   20.5120 C   0  0  0  0  0  0  0  0  0  0  0  0
  -30.4550  -12.6460   19.6000 C   0  0  0  0  0  2  0  0  0  0  0  0
  -29.5660  -12.5270   18.3420 C   0  0  0  0  0  2  0  0  0  0  0  0
  -28.0850  -12.3540   18.7320 C   0  0  0  0  0  2  0  0  0  0  0  0
  -27.6320  -13.3200   19.8610 C   0  0  0  0  0  3  0  0  0  0  0  0
  -28.6510  -13.3950   21.0160 C   0  0  0  0  0  2  0  0  0  0  0  0
  -29.9350  -13.7740   20.4170 N   0  0  0  0  0  0  0  0  0  0  0  0
  -31.8250  -14.9500   20.5230 O   0  0  0  0  0  0  0  0  0  0  0  0
  -30.6300  -17.4070   18.0800 C   0  0  0  0  0  2  0  0  0  0  0  0
  -31.6690  -18.0370   20.3450 C   0  0  0  0  0  2  0  0  0  0  0  0
  -29.6580  -16.4010   18.7840 C   0  0  0  0  0  2  0  0  0  0  0  0
  -30.2330  -17.6770   20.7930 C   0  0  0  0  0  3  0  0  0  0  0  0
  -31.9450  -17.6710   18.8620 C   0  0  0  0  0  3  0  0  0  0  0  0
  -29.9320  -16.2350   20.2290 N   0  0  0  0  0  0  0  0  0  0  0  0
  -25.2260  -13.8950   20.5160 C   0  0  0  0  0  0  0  0  0  0  0  0
  -24.1530  -13.1190   20.8550 C   0  0  0  0  0  0  0  0  0  0  0  0
  -24.6280  -11.7700   20.8650 C   0  0  0  0  0  0  0  0  0  0  0  0
  -26.2830  -13.0200   20.3280 N   0  0  0  0  0  0  0  0  0  0  0  0
  -25.9320  -11.7380   20.6110 N   0  0  0  0  0  0  0  0  0  0  0  0
  -23.9010  -10.5060   21.0450 C   0  0  0  0  0  0  0  0  0  0  0  0
  -24.3040   -9.5520   22.0040 C   0  0  0  0  0  3  0  0  0  0  0  0
  -23.5750   -8.3530   22.1710 C   0  0  0  0  0  3  0  0  0  0  0  0
  -22.4290   -8.1030   21.3800 C   0  0  0  0  0  0  0  0  0  0  0  0
  -22.0460   -9.0460   20.4110 C   0  0  0  0  0  3  0  0  0  0  0  0
  -22.7750  -10.2340   20.2420 C   0  0  0  0  0  3  0  0  0  0  0  0
  -21.6740   -6.9550   21.4560 O   0  0  0  0  0  0  0  0  0  0  0  0
  -21.5930   -6.2230   22.6140 C   0  0  0  0  0  0  0  0  0  0  0  0
  -21.1250   -6.7860   23.8220 C   0  0  0  0  0  3  0  0  0  0  0  0
  -20.9900   -5.9790   24.9680 C   0  0  0  0  0  3  0  0  0  0  0  0
  -21.3120   -4.6100   24.9090 C   0  0  0  0  0  0  0  0  0  0  0  0
  -21.7740   -4.0470   23.7070 C   0  0  0  0  0  3  0  0  0  0  0  0
  -21.9090   -4.8500   22.5620 C   0  0  0  0  0  0  0  0  0  0  0  0
  -22.3340   -4.2970   21.4000 F   0  0  0  0  0  0  0  0  0  0  0  0
  -21.1760   -3.8340   26.0100 F   0  0  0  0  0  0  0  0  0  0  0  0
  -22.7420  -13.5900   21.0550 C   0  0  0  0  0  0  0  0  0  0  0  0
  -21.9840  -12.9150   21.9100 N   0  0  0  0  0  0  0  0  0  0  0  0
  -22.3190  -14.5970   20.4870 O   0  0  0  0  0  0  0  0  0  0  0  0
  -22.3400  -12.1060   22.3960 H   0  0  0  0  0  0  0  0  0  0  0  0
  -21.0340  -13.2110   22.0830 H   0  0  0  0  0  0  0  0  0  0  0  0
  -25.3880  -15.2650   20.3290 N   0  0  0  0  0  0  0  0  0  0  0  0
  -24.6120  -15.9140   20.4120 H   0  0  0  0  0  0  0  0  0  0  0  0
  -26.2570  -15.7160   20.0740 H   0  0  0  0  0  0  0  0  0  0  0  0
  -34.3000  -18.6910   18.7820 C   0  0  0  0  0  1  0  0  0  0  0  0
  -32.8820  -18.6850   18.1790 C   0  0  0  0  0  2  0  0  0  0  0  0
  -29.6340  -20.5820   20.5650 C   0  0  0  0  0  3  0  0  0  0  0  0
  -28.5910  -21.8760   20.3570 C   0  0  0  0  0  3  0  0  0  0  0  0
  -29.0030  -23.4960   20.4680 C   0  0  0  0  0  3  0  0  0  0  0  0
  -27.9560  -24.7650   20.1790 C   0  0  0  0  0  3  0  0  0  0  0  0
  -28.2460  -26.2770   20.3100 O   0  0  0  0  0  0  0  0  0  0  0  0
  -24.6230  -31.9300   23.2770 C   0  0  0  0  0  0  0  0  0  0  0  0
  -27.1830  -27.2410   20.2390 C   0  0  0  0  0  0  0  0  0  0  0  0
  -23.4150  -30.5380   21.6420 C   0  0  0  0  0  3  0  0  0  0  0  0
  -24.8540  -28.9680   20.2090 C   0  0  0  0  0  0  0  0  0  0  0  0
  -25.9650  -30.8080   21.4660 C   0  0  0  0  0  2  0  0  0  0  0  0
  -26.0350  -29.4180   20.8140 C   0  0  0  0  0  0  0  0  0  0  0  0
  -27.2020  -28.5700   20.8120 C   0  0  0  0  0  3  0  0  0  0  0  0
  -25.9750  -26.8840   19.5960 C   0  0  0  0  0  3  0  0  0  0  0  0
  -24.8370  -27.7140   19.5820 C   0  0  0  0  0  3  0  0  0  0  0  0
  -23.6280  -29.8640   20.2600 C   0  0  0  0  0  2  0  0  0  0  0  0
  -24.6880  -31.1120   22.1830 N   0  0  0  0  0  0  0  0  0  0  0  0
  -23.5390  -32.2160   23.8090 O   0  0  0  0  0  0  0  0  0  0  0  0
  -22.7400  -29.5280   22.6050 C   0  0  0  0  0  0  0  0  0  0  0  0
  -21.4130  -29.3530   22.4780 N   0  0  0  0  0  0  0  0  0  0  0  0
  -23.4140  -28.9030   23.4280 O   0  0  0  0  0  0  0  0  0  0  0  0
  -20.9280  -29.9090   21.7890 H   0  0  0  0  0  0  0  0  0  0  0  0
  -18.0340  -28.1460   22.9680 C   0  0  0  0  0  0  0  0  0  0  0  0
  -20.5900  -28.4180   23.2500 C   0  0  0  0  0  3  0  0  0  0  0  0
  -20.7000  -26.9830   22.6850 C   0  0  0  0  0  2  0  0  0  0  0  0
  -19.6040  -26.6500   21.6680 C   0  0  0  0  0  2  0  0  0  0  0  0
  -18.2190  -26.7950   22.3010 C   0  0  0  0  0  2  0  0  0  0  0  0
  -19.1470  -28.9160   23.3980 C   0  0  0  0  0  0  0  0  0  0  0  0
  -18.9180  -30.1810   23.9820 C   0  0  0  0  0  3  0  0  0  0  0  0
  -17.6100  -30.6770   24.1380 C   0  0  0  0  0  3  0  0  0  0  0  0
  -16.5120  -29.9060   23.7200 C   0  0  0  0  0  3  0  0  0  0  0  0
  -16.7240  -28.6410   23.1420 C   0  0  0  0  0  3  0  0  0  0  0  0
  -25.9060  -32.5610   23.8980 C   0  0  0  0  0  3  0  0  0  0  0  0
  -25.6030  -33.9640   24.2190 N   0  0  0  0  0  0  0  0  0  0  0  0
  -25.9300  -35.0110   23.4510 C   0  0  0  0  0  0  0  0  0  0  0  0
  -26.5840  -34.8980   22.4110 O   0  0  0  0  0  0  0  0  0  0  0  0
  -25.0230  -34.1260   25.0290 H   0  0  0  0  0  0  0  0  0  0  0  0
  -24.1950  -36.8040   23.1200 C   0  0  0  0  0  1  0  0  0  0  0  0
  -25.4550  -36.4060   23.9050 C   0  0  0  0  0  3  0  0  0  0  0  0
  -27.6100  -37.3000   24.6770 C   0  0  0  0  0  1  0  0  0  0  0  0
  -26.4860  -37.4570   23.7560 N   0  0  0  0  0  0  0  0  0  0  0  0
  -26.0850  -38.3790   23.9010 H   0  0  0  0  0  0  0  0  0  0  0  0
  -26.4080  -31.8000   25.1860 C   0  0  1  0  0  0  0  0  0  0  0  0
  -25.3060  -31.5820   26.2500 C   0  0  0  0  0  1  0  0  0  0  0  0
  -26.9800  -30.4120   24.8110 C   0  0  0  0  0  1  0  0  0  0  0  0
  -27.5630  -32.5900   25.8430 C   0  0  0  0  0  1  0  0  0  0  0  0
  1 47  1  0
  2  1  2  0
  3 10  2  0
  4  9  1  0
  5  6  1  0
  5  4  1  0
  7  6  1  0
  7 20  1  0
  7  8  1  0
  9  3  1  0
  9  8  1  0
 11 13  1  0
 11 15  1  0
 12 14  1  0
 13 16  1  0
 14  1  1  0
 15 46  1  0
 15 12  1  0
 16  3  1  0
 16 14  1  0
 17 18  2  0
 18 19  1  0
 18 37  1  0
 19 22  1  0
 20 17  1  0
 20 21  1  0
 21 19  2  0
 22 23  1  0
 23 24  2  0
 25 28  1  0
 25 24  1  0
 26 25  2  0
 27 26  1  0
 27 22  2  0
 28 29  1  0
 29 30  1  0
 30 31  2  0
 32 31  1  0
 32 36  1  0
 33 32  2  0
 34 29  2  0
 34 33  1  0
 35 34  1  0
 37 38  1  0
 38 41  1  0
 38 40  1  0
 39 37  2  0
 42 43  1  0
 42 17  1  0
 44 42  1  0
 46 45  1  0
 48 49  1  0
 48 47  2  0
 50 51  1  0
 50 49  2  0
 52 63  2  0
 53 51  1  0
 53 58  1  0
 54 62  1  0
 54 64  1  0
 55 61  1  0
 55 57  1  0
 56 62  1  0
 57 56  1  0
 58 57  2  0
 59 53  2  0
 60 59  1  0
 60 55  2  0
 61 54  1  0
 62 52  1  0
 64 66  2  0
 65 64  1  0
 67 65  1  0
 68 77  2  0
 68 73  1  0
 69 65  1  0
 69 73  1  0
 70 69  1  0
 71 72  1  0
 71 70  1  0
 72 68  1  0
 73 74  2  0
 74 75  1  0
 76 75  2  0
 77 76  1  0
 78 52  1  0
 78 79  1  0
 78 88  1  0
 79 82  1  0
 80 84  1  0
 80 79  1  0
 81 80  2  0
 84 83  1  0
 86 87  1  0
 86 84  1  0
 86 85  1  0
 88 91  1  1
 88 89  1  0
 90 88  1  0
M  ISO  4   3 100  16 100  50 101  51 101
M  END
>  <TORSDO>  (50) 
F 21

>  <SCORE>  (50) 
-13.305

>  <name>  (50) 
50

>  <ligand_id>  (50) 
50

>  <original_smiles>  (50) 
[H]c1c([H])c([H])c2c(c1[H])C([H])([H])C([H])([H])C([H])([H])C2([H])N([H])C(=O)C1([H])N(C(=O)C([H])(N([H])C(=O)C([H])(N([H])C([H])([H])[H])C([H])([H])[H])C(C([H])([H])[H])(C([H])([H])[H])C([H])([H])[H])C([H])([H])c2c([H])c(OC([H])([H])C([H])([H])C([H])([H])C([H])([H])C(=O)C3([H])N(C(=O)N4C([H])([H])C([H])([H])C([H])([H])C([H])(n5nc(-c6c([H])c([H])c(Oc7c([H])c([H])c(F)c([H])c7F)c([H])c6[H])c(C(=O)N([H])[H])c5N([H])[H])C4([H])[H])C([H])([H])C([H])([H])C([H])(C([H])([H])C([H])([H])[H])C3([H])[H])c([H])c([H])c2C1([H])[H]

>  <smiles>  (50) 
[H]c1c([H])c([H])c2c(c1[H])C([H])([H])C([H])([H])C([H])([H])C2([H])N([H])C(=O)C1([H])N(C(=O)C([H])(N([H])C(=O)C([H])(N([H])C([H])([H])[H])C([H])([H])[H])C(C([H])([H])[H])(C([H])([H])[H])C([H])([H])[H])C([H])([H])c2c([H])c(OC([H])([H])C([H])([H])C([H])([H])C([H])([H])C(=O)C3([H])N(C(=O)N4C([H])([H])C([H])([H])C([H])([H])C([H])(n5nc(-c6c([H])c([H])c(Oc7c([H])c([H])c(F)c([H])c7F)c([H])c6[H])c(C(=O)N([H])[H])c5N([H])[H])C4([H])[H])C([H])([H])C([H])([H])C([H])(C([H])([H])C([H])([H])[H])C3([H])[H])c([H])c([H])c2C1([H])[H]

$$$$
51:0:0
     RDKit          3D

 95103  0  0  1  0  0  0  0  0999 V2000
  -31.4430  -17.8170   18.0940 C   0  0  0  0  0  2  0  0  0  0  0  0
  -31.9430  -19.2510   17.7460 C   0  0  0  0  0  2  0  0  0  0  0  0
  -29.6790  -20.0400   18.4000 C   0  0  0  0  0  2  0  0  0  0  0  0
  -29.4380  -19.5520   19.8470 C   0  0  0  0  0  3  0  0  0  0  0  0
  -29.7870  -18.0450   20.1040 C   0  0  0  0  0  3  0  0  0  0  0  0
  -31.1720  -17.4950   19.5890 C   0  0  0  0  0  3  0  0  0  0  0  0
  -27.9630  -19.8580   20.2020 C   0  0  0  0  0  1  0  0  0  0  0  0
  -31.1030  -20.3960   18.2000 N   0  0  2  0  0  4  0  0  0  0  0  0
  -31.4510  -20.6310   19.1180 H   0  0  0  0  0  0  0  0  0  0  0  0
  -31.8810  -14.9820   19.5270 C   0  0  0  0  0  0  0  0  0  0  0  0
  -31.6090  -12.5950   18.9510 C   0  0  0  0  0  2  0  0  0  0  0  0
  -30.6430  -12.4900   17.7480 C   0  0  0  0  0  2  0  0  0  0  0  0
  -29.1690  -12.4920   18.2060 C   0  0  0  0  0  2  0  0  0  0  0  0
  -28.8570  -13.6200   19.2250 C   0  0  0  0  0  3  0  0  0  0  0  0
  -29.9200  -13.6310   20.3470 C   0  0  0  0  0  2  0  0  0  0  0  0
  -31.2430  -13.7960   19.7120 N   0  0  0  0  0  0  0  0  0  0  0  0
  -32.9970  -15.0870   19.0080 O   0  0  0  0  0  0  0  0  0  0  0  0
  -31.0960  -16.0370   19.8100 N   0  0  0  0  0  0  0  0  0  0  0  0
  -30.2310  -15.7450   20.2400 H   0  0  0  0  0  0  0  0  0  0  0  0
  -26.5700  -14.5050   20.0170 C   0  0  0  0  0  0  0  0  0  0  0  0
  -25.4410  -13.8590   20.4470 C   0  0  0  0  0  0  0  0  0  0  0  0
  -25.7510  -12.4650   20.4220 C   0  0  0  0  0  0  0  0  0  0  0  0
  -27.5000  -13.5090   19.7610 N   0  0  0  0  0  0  0  0  0  0  0  0
  -27.0140  -12.2790   20.0610 N   0  0  0  0  0  0  0  0  0  0  0  0
  -24.9040  -11.2920   20.6660 C   0  0  0  0  0  0  0  0  0  0  0  0
  -25.2100  -10.3590   21.6830 C   0  0  0  0  0  3  0  0  0  0  0  0
  -24.3690   -9.2470   21.9090 C   0  0  0  0  0  3  0  0  0  0  0  0
  -23.2100   -9.0610   21.1180 C   0  0  0  0  0  0  0  0  0  0  0  0
  -22.9250   -9.9820   20.0940 C   0  0  0  0  0  3  0  0  0  0  0  0
  -23.7640  -11.0840   19.8660 C   0  0  0  0  0  3  0  0  0  0  0  0
  -22.3520   -7.9960   21.2470 O   0  0  0  0  0  0  0  0  0  0  0  0
  -22.0690   -7.4450   22.4710 C   0  0  0  0  0  0  0  0  0  0  0  0
  -21.4940   -8.2040   23.5150 C   0  0  0  0  0  3  0  0  0  0  0  0
  -21.1520   -7.5790   24.7310 C   0  0  0  0  0  3  0  0  0  0  0  0
  -21.3790   -6.2010   24.9040 C   0  0  0  0  0  0  0  0  0  0  0  0
  -21.9470   -5.4450   23.8650 C   0  0  0  0  0  3  0  0  0  0  0  0
  -22.2880   -6.0640   22.6490 C   0  0  0  0  0  0  0  0  0  0  0  0
  -22.8140   -5.3270   21.6430 F   0  0  0  0  0  0  0  0  0  0  0  0
  -21.0470   -5.5990   26.0690 F   0  0  0  0  0  0  0  0  0  0  0  0
  -24.1170  -14.4900   20.7680 C   0  0  0  0  0  0  0  0  0  0  0  0
  -23.3660  -13.8950   21.6880 N   0  0  0  0  0  0  0  0  0  0  0  0
  -23.7630  -15.5410   20.2390 O   0  0  0  0  0  0  0  0  0  0  0  0
  -23.6690  -13.0440   22.1350 H   0  0  0  0  0  0  0  0  0  0  0  0
  -22.4770  -14.2990   21.9460 H   0  0  0  0  0  0  0  0  0  0  0  0
  -26.8750  -15.8460   19.8040 N   0  0  0  0  0  0  0  0  0  0  0  0
  -26.1920  -16.5840   19.9400 H   0  0  0  0  0  0  0  0  0  0  0  0
  -27.7380  -16.1790   19.3930 H   0  0  0  0  0  0  0  0  0  0  0  0
  -30.5770  -18.1970   22.5970 C   0  0  0  0  0  1  0  0  0  0  0  0
  -29.5450  -17.6500   21.5980 C   0  0  0  0  0  2  0  0  0  0  0  0
  -31.3140  -21.6330   17.3810 C   0  0  0  0  0  2  0  0  0  0  0  0
  -31.0420  -22.9700   18.1330 C   0  0  0  0  0  2  0  0  0  0  0  0
  -31.1710  -24.2330   17.2480 C   0  0  0  0  0  2  0  0  0  0  0  0
  -30.9530  -25.5470   18.0390 C   0  0  0  0  0  2  0  0  0  0  0  0
  -31.0260  -26.8320   17.1870 C   0  0  0  0  0  2  0  0  0  0  0  0
  -29.8520  -26.9400   16.3830 O   0  0  0  0  0  0  0  0  0  0  0  0
  -26.0310  -27.8800   22.3740 C   0  0  0  0  0  0  0  0  0  0  0  0
  -28.6570  -27.2070   17.0090 C   0  0  0  0  0  0  0  0  0  0  0  0
  -24.7480  -27.7430   20.2620 C   0  0  0  0  0  3  0  0  0  0  0  0
  -26.1330  -27.8330   18.1220 C   0  0  0  0  0  0  0  0  0  0  0  0
  -27.1600  -28.5910   20.2720 C   0  0  0  0  0  2  0  0  0  0  0  0
  -27.2990  -28.0300   18.8720 C   0  0  0  0  0  0  0  0  0  0  0  0
  -28.5630  -27.7170   18.3260 C   0  0  0  0  0  3  0  0  0  0  0  0
  -27.4750  -27.0210   16.2630 C   0  0  0  0  0  3  0  0  0  0  0  0
  -26.2140  -27.3190   16.8150 C   0  0  0  0  0  3  0  0  0  0  0  0
  -24.8240  -28.2050   18.7810 C   0  0  0  0  0  2  0  0  0  0  0  0
  -26.0040  -28.0450   21.0210 N   0  0  0  0  0  0  0  0  0  0  0  0
  -25.0200  -27.5220   22.9950 O   0  0  0  0  0  0  0  0  0  0  0  0
  -24.3590  -26.2480   20.2910 C   0  0  0  0  0  0  0  0  0  0  0  0
  -23.0800  -25.9580   20.0080 N   0  0  0  0  0  0  0  0  0  0  0  0
  -25.2020  -25.3810   20.5400 O   0  0  0  0  0  0  0  0  0  0  0  0
  -22.4510  -26.7260   19.8240 H   0  0  0  0  0  0  0  0  0  0  0  0
  -20.0350  -24.1390   19.3220 C   0  0  0  0  0  0  0  0  0  0  0  0
  -22.4980  -24.6170   19.9410 C   0  0  0  0  0  3  0  0  0  0  0  0
  -22.8600  -23.9180   18.6120 C   0  0  0  0  0  2  0  0  0  0  0  0
  -21.8090  -24.1200   17.5170 C   0  0  0  0  0  2  0  0  0  0  0  0
  -20.4500  -23.5780   17.9720 C   0  0  0  0  0  2  0  0  0  0  0  0
  -20.9950  -24.6410   20.2400 C   0  0  0  0  0  0  0  0  0  0  0  0
  -20.5520  -25.1820   21.4660 C   0  0  0  0  0  3  0  0  0  0  0  0
  -19.1810  -25.2260   21.7810 C   0  0  0  0  0  3  0  0  0  0  0  0
  -18.2360  -24.7140   20.8740 C   0  0  0  0  0  3  0  0  0  0  0  0
  -18.6630  -24.1690   19.6500 C   0  0  0  0  0  3  0  0  0  0  0  0
  -27.3220  -28.1530   23.2070 C   0  0  0  0  0  3  0  0  0  0  0  0
  -26.9110  -28.7980   24.4610 N   0  0  0  0  0  0  0  0  0  0  0  0
  -27.0410  -30.1060   24.7190 C   0  0  0  0  0  0  0  0  0  0  0  0
  -27.5920  -30.8910   23.9440 O   0  0  0  0  0  0  0  0  0  0  0  0
  -26.3990  -28.2260   25.1160 H   0  0  0  0  0  0  0  0  0  0  0  0
  -25.1210  -31.3210   25.7970 C   0  0  0  0  0  1  0  0  0  0  0  0
  -26.4670  -30.6250   26.0520 C   0  0  0  0  0  3  0  0  0  0  0  0
  -28.5710  -30.8870   27.2910 C   0  0  0  0  0  1  0  0  0  0  0  0
  -27.3770  -31.5450   26.7660 N   0  0  0  0  0  0  0  0  0  0  0  0
  -26.8970  -31.9960   27.5400 H   0  0  0  0  0  0  0  0  0  0  0  0
  -28.1630  -26.8510   23.4960 C   0  0  1  0  0  0  0  0  0  0  0  0
  -27.3320  -25.6970   24.1050 C   0  0  0  0  0  1  0  0  0  0  0  0
  -28.8230  -26.3270   22.1990 C   0  0  0  0  0  1  0  0  0  0  0  0
  -29.3160  -27.1800   24.4740 C   0  0  0  0  0  1  0  0  0  0  0  0
  1  6  1  0
  2  1  1  0
  2  8  1  0
  3  4  1  0
  4  5  1  0
  4  7  1  0
  5 49  1  0
  6 18  1  0
  6  5  1  0
  8  3  1  0
  8  9  1  1
 10 16  1  0
 10 18  1  0
 11 16  1  0
 12 13  1  0
 12 11  1  0
 14 13  1  0
 14 23  1  0
 14 15  1  0
 16 15  1  0
 17 10  2  0
 18 19  1  0
 20 21  2  0
 21 40  1  0
 22 21  1  0
 22 25  1  0
 23 20  1  0
 23 24  1  0
 24 22  2  0
 25 26  1  0
 26 27  2  0
 28 31  1  0
 28 27  1  0
 29 28  2  0
 30 29  1  0
 30 25  2  0
 31 32  1  0
 32 37  2  0
 32 33  1  0
 33 34  2  0
 34 35  1  0
 35 39  1  0
 36 35  2  0
 37 36  1  0
 38 37  1  0
 40 41  1  0
 41 44  1  0
 41 43  1  0
 42 40  2  0
 45 46  1  0
 45 20  1  0
 47 45  1  0
 49 48  1  0
 50 51  1  0
 50  8  1  0
 52 53  1  0
 52 51  1  0
 54 53  1  0
 55 57  1  0
 55 54  1  0
 56 67  2  0
 57 62  1  0
 58 68  1  0
 58 66  1  0
 59 65  1  0
 59 61  1  0
 60 66  1  0
 61 60  1  0
 62 61  2  0
 63 64  1  0
 63 57  2  0
 64 59  2  0
 65 58  1  0
 66 56  1  0
 68 70  2  0
 69 68  1  0
 71 69  1  0
 72 81  2  0
 72 77  1  0
 73 69  1  0
 73 77  1  0
 74 73  1  0
 75 76  1  0
 75 74  1  0
 76 72  1  0
 77 78  2  0
 78 79  1  0
 80 79  2  0
 81 80  1  0
 82 56  1  0
 82 92  1  0
 82 83  1  0
 83 84  1  0
 83 86  1  0
 84 88  1  0
 85 84  2  0
 88 87  1  0
 88 90  1  0
 90 89  1  0
 90 91  1  0
 92 93  1  1
 92 95  1  0
 94 92  1  0
M  ISO  4  10 100  18 100  54 101  55 101
M  END
>  <TORSDO>  (51) 
F 22

>  <SCORE>  (51) 
-7.546

>  <name>  (51) 
51

>  <ligand_id>  (51) 
51

>  <original_smiles>  (51) 
[H]c1c([H])c([H])c2c(c1[H])C([H])([H])C([H])([H])C([H])([H])C2([H])N([H])C(=O)C1([H])N(C(=O)C([H])(N([H])C(=O)C([H])(N([H])C([H])([H])[H])C([H])([H])[H])C(C([H])([H])[H])(C([H])([H])[H])C([H])([H])[H])C([H])([H])c2c([H])c(OC([H])([H])C([H])([H])C([H])([H])C([H])([H])C([H])([H])[N+]3([H])C([H])([H])C([H])([H])C([H])(N([H])C(=O)N4C([H])([H])C([H])([H])C([H])([H])C([H])(n5nc(-c6c([H])c([H])c(Oc7c([H])c([H])c(F)c([H])c7F)c([H])c6[H])c(C(=O)N([H])[H])c5N([H])[H])C4([H])[H])C([H])(C([H])([H])C([H])([H])[H])C([H])(C([H])([H])[H])C3([H])[H])c([H])c([H])c2C1([H])[H]

>  <smiles>  (51) 
[H]c1c([H])c([H])c2c(c1[H])C([H])([H])C([H])([H])C([H])([H])C2([H])N([H])C(=O)C1([H])N(C(=O)C([H])(N([H])C(=O)C([H])(N([H])C([H])([H])[H])C([H])([H])[H])C(C([H])([H])[H])(C([H])([H])[H])C([H])([H])[H])C([H])([H])c2c([H])c(OC([H])([H])C([H])([H])C([H])([H])C([H])([H])C([H])([H])[N+]3([H])C([H])([H])C([H])([H])C([H])(N([H])C(=O)N4C([H])([H])C([H])([H])C([H])([H])C([H])(n5nc(-c6c([H])c([H])c(Oc7c([H])c([H])c(F)c([H])c7F)c([H])c6[H])c(C(=O)N([H])[H])c5N([H])[H])C4([H])[H])C([H])(C([H])([H])C([H])([H])[H])C([H])(C([H])([H])[H])C3([H])[H])c([H])c([H])c2C1([H])[H]

$$$$
52:0:0
     RDKit          3D

 94102  0  0  1  0  0  0  0  0999 V2000
  -29.3460  -21.9620   19.3740 C   0  0  0  0  0  3  0  0  0  0  0  0
  -30.6030  -22.5130   18.8350 N   0  0  0  0  0  4  0  0  0  0  0  0
  -31.1850  -22.8380   19.5860 H   0  0  0  0  0  0  0  0  0  0  0  0
  -30.4230  -23.2720   18.2030 H   0  0  0  0  0  0  0  0  0  0  0  0
  -31.1120  -21.8040   18.3370 H   0  0  0  0  0  0  0  0  0  0  0  0
  -29.7980  -20.5660   20.2080 C   0  0  0  0  0  0  0  0  0  0  0  0
  -30.5370  -20.7530   21.1800 O   0  0  0  0  0  0  0  0  0  0  0  0
  -30.8430  -14.9560   19.6080 C   0  0  0  0  0  0  0  0  0  0  0  0
  -30.5570  -12.6500   18.5620 C   0  0  0  0  0  2  0  0  0  0  0  0
  -29.5260  -12.6560   17.4080 C   0  0  0  0  0  2  0  0  0  0  0  0
  -28.0950  -12.4580   17.9440 C   0  0  0  0  0  2  0  0  0  0  0  0
  -27.8100  -13.3480   19.1790 C   0  0  0  0  0  3  0  0  0  0  0  0
  -28.9480  -13.2680   20.2130 C   0  0  0  0  0  2  0  0  0  0  0  0
  -30.1810  -13.7180   19.5440 N   0  0  0  0  0  0  0  0  0  0  0  0
  -31.9640  -14.9980   19.0880 O   0  0  0  0  0  0  0  0  0  0  0  0
  -29.7920  -16.3260   21.4080 C   0  0  0  0  0  2  0  0  0  0  0  0
  -30.4750  -17.6780   19.5630 C   0  0  0  0  0  2  0  0  0  0  0  0
  -28.4960  -17.1570   21.4980 C   0  0  0  0  0  2  0  0  0  0  0  0
  -29.3940  -18.9360   19.9080 C   0  0  0  0  0  3  0  0  0  0  0  0
  -30.2040  -16.1810   20.0080 N   0  0  0  0  0  0  0  0  0  0  0  0
  -28.7150  -18.5900   21.1830 N   0  0  0  0  0  4  0  0  0  0  0  0
  -29.2920  -19.0000   21.9050 H   0  0  0  0  0  0  0  0  0  0  0  0
  -27.8320  -19.0730   21.2250 H   0  0  0  0  0  0  0  0  0  0  0  0
  -25.5040  -13.9580   20.1090 C   0  0  0  0  0  0  0  0  0  0  0  0
  -24.4650  -13.1990   20.5690 C   0  0  0  0  0  0  0  0  0  0  0  0
  -24.9040  -11.8410   20.4890 C   0  0  0  0  0  0  0  0  0  0  0  0
  -26.5100  -13.0670   19.7770 N   0  0  0  0  0  0  0  0  0  0  0  0
  -26.1630  -11.7870   20.0720 N   0  0  0  0  0  0  0  0  0  0  0  0
  -24.1730  -10.5900   20.7260 C   0  0  0  0  0  0  0  0  0  0  0  0
  -24.5930   -9.6630   21.7050 C   0  0  0  0  0  3  0  0  0  0  0  0
  -23.8610   -8.4770   21.9280 C   0  0  0  0  0  3  0  0  0  0  0  0
  -22.6960   -8.2090   21.1700 C   0  0  0  0  0  0  0  0  0  0  0  0
  -22.2950   -9.1240   20.1810 C   0  0  0  0  0  3  0  0  0  0  0  0
  -23.0280  -10.3020   19.9570 C   0  0  0  0  0  3  0  0  0  0  0  0
  -21.9360   -7.0720   21.3000 O   0  0  0  0  0  0  0  0  0  0  0  0
  -21.7910   -6.4370   22.5080 C   0  0  0  0  0  0  0  0  0  0  0  0
  -21.2610   -7.0990   23.6380 C   0  0  0  0  0  3  0  0  0  0  0  0
  -21.0640   -6.3900   24.8400 C   0  0  0  0  0  3  0  0  0  0  0  0
  -21.3860   -5.0210   24.9130 C   0  0  0  0  0  0  0  0  0  0  0  0
  -21.9090   -4.3600   23.7870 C   0  0  0  0  0  3  0  0  0  0  0  0
  -22.1080   -5.0660   22.5870 C   0  0  0  0  0  0  0  0  0  0  0  0
  -22.5920   -4.4190   21.5000 F   0  0  0  0  0  0  0  0  0  0  0  0
  -21.1900   -4.3390   26.0650 F   0  0  0  0  0  0  0  0  0  0  0  0
  -23.1030  -13.6970   20.9550 C   0  0  0  0  0  0  0  0  0  0  0  0
  -22.4530  -13.0320   21.9030 N   0  0  0  0  0  0  0  0  0  0  0  0
  -22.6300  -14.7130   20.4500 O   0  0  0  0  0  0  0  0  0  0  0  0
  -22.8530  -12.2110   22.3320 H   0  0  0  0  0  0  0  0  0  0  0  0
  -21.5430  -13.3490   22.2040 H   0  0  0  0  0  0  0  0  0  0  0  0
  -25.6640  -15.3260   19.9110 N   0  0  0  0  0  0  0  0  0  0  0  0
  -24.8600  -15.9390   19.9900 H   0  0  0  0  0  0  0  0  0  0  0  0
  -26.3780  -15.6900   19.2940 H   0  0  0  0  0  0  0  0  0  0  0  0
  -28.3340  -23.2400   19.8750 C   0  0  0  0  0  2  0  0  0  0  0  0
  -28.6170  -24.7400   20.5920 C   0  0  0  0  0  2  0  0  0  0  0  0
  -28.5300  -26.1990   20.0560 O   0  0  0  0  0  0  0  0  0  0  0  0
  -24.5110  -31.6480   23.0300 C   0  0  0  0  0  0  0  0  0  0  0  0
  -27.3860  -27.0670   20.0870 C   0  0  0  0  0  0  0  0  0  0  0  0
  -23.4230  -30.2100   21.3470 C   0  0  0  0  0  3  0  0  0  0  0  0
  -24.9810  -28.6920   19.9780 C   0  0  0  0  0  0  0  0  0  0  0  0
  -25.9660  -30.5880   21.2610 C   0  0  0  0  0  2  0  0  0  0  0  0
  -26.1190  -29.1990   20.6180 C   0  0  0  0  0  0  0  0  0  0  0  0
  -27.3250  -28.4050   20.6460 C   0  0  0  0  0  3  0  0  0  0  0  0
  -26.2160  -26.6430   19.4250 C   0  0  0  0  0  3  0  0  0  0  0  0
  -25.0410  -27.4280   19.3670 C   0  0  0  0  0  3  0  0  0  0  0  0
  -23.7170  -29.5400   19.9780 C   0  0  0  0  0  2  0  0  0  0  0  0
  -24.6510  -30.8380   21.9360 N   0  0  0  0  0  0  0  0  0  0  0  0
  -23.3990  -31.8860   23.5240 O   0  0  0  0  0  0  0  0  0  0  0  0
  -22.7560  -29.1750   22.2860 C   0  0  0  0  0  0  0  0  0  0  0  0
  -21.4370  -28.9650   22.1270 N   0  0  0  0  0  0  0  0  0  0  0  0
  -23.4280  -28.5610   23.1190 O   0  0  0  0  0  0  0  0  0  0  0  0
  -20.9500  -29.5130   21.4320 H   0  0  0  0  0  0  0  0  0  0  0  0
  -18.0800  -27.6740   22.5560 C   0  0  0  0  0  0  0  0  0  0  0  0
  -20.6270  -27.9950   22.8700 C   0  0  0  0  0  3  0  0  0  0  0  0
  -20.7740  -26.5760   22.2730 C   0  0  0  0  0  2  0  0  0  0  0  0
  -19.6970  -26.2420   21.2360 C   0  0  0  0  0  2  0  0  0  0  0  0
  -18.3020  -26.3400   21.8600 C   0  0  0  0  0  2  0  0  0  0  0  0
  -19.1710  -28.4570   23.0160 C   0  0  0  0  0  0  0  0  0  0  0  0
  -18.9100  -29.7020   23.6280 C   0  0  0  0  0  3  0  0  0  0  0  0
  -17.5900  -30.1650   23.7830 C   0  0  0  0  0  3  0  0  0  0  0  0
  -16.5130  -29.3790   23.3390 C   0  0  0  0  0  3  0  0  0  0  0  0
  -16.7580  -28.1340   22.7320 C   0  0  0  0  0  3  0  0  0  0  0  0
  -25.7410  -32.3320   23.7010 C   0  0  0  0  0  3  0  0  0  0  0  0
  -26.2580  -31.5640   24.9790 C   0  0  1  0  0  0  0  0  0  0  0  0
  -25.1470  -31.2500   26.0100 C   0  0  0  0  0  1  0  0  0  0  0  0
  -26.9220  -30.2250   24.5840 C   0  0  0  0  0  1  0  0  0  0  0  0
  -27.3490  -32.4000   25.6900 C   0  0  0  0  0  1  0  0  0  0  0  0
  -25.3530  -33.7070   24.0540 N   0  0  0  0  0  0  0  0  0  0  0  0
  -25.6460  -34.7950   23.3290 C   0  0  0  0  0  0  0  0  0  0  0  0
  -26.3380  -34.7490   22.3080 O   0  0  0  0  0  0  0  0  0  0  0  0
  -24.7370  -33.8130   24.8470 H   0  0  0  0  0  0  0  0  0  0  0  0
  -23.8360  -36.5110   22.9910 C   0  0  0  0  0  1  0  0  0  0  0  0
  -25.0840  -36.1470   23.8100 C   0  0  0  0  0  3  0  0  0  0  0  0
  -27.1580  -37.1220   24.6970 C   0  0  0  0  0  1  0  0  0  0  0  0
  -26.0650  -37.2540   23.7360 N   0  0  0  0  0  0  0  0  0  0  0  0
  -25.6110  -38.1490   23.8930 H   0  0  0  0  0  0  0  0  0  0  0  0
  1 52  1  0
  1  6  1  0
  2  1  1  0
  2  3  1  0
  4  2  1  0
  5  2  1  0
  6  7  2  0
  8 20  1  0
  9 14  1  0
 10 11  1  0
 10  9  1  0
 12 11  1  0
 12 27  1  0
 12 13  1  0
 14  8  1  0
 14 13  1  0
 15  8  2  0
 16 18  1  0
 17 19  1  0
 17 20  1  0
 19  6  1  0
 19 21  1  0
 20 16  1  0
 21 23  1  0
 21 18  1  0
 21 22  1  0
 24 25  2  0
 25 44  1  0
 26 25  1  0
 26 29  1  0
 27 28  1  0
 27 24  1  0
 28 26  2  0
 29 30  1  0
 30 31  2  0
 32 35  1  0
 32 31  1  0
 33 32  2  0
 34 33  1  0
 34 29  2  0
 35 36  1  0
 36 41  2  0
 36 37  1  0
 37 38  2  0
 38 39  1  0
 39 43  1  0
 40 39  2  0
 41 40  1  0
 42 41  1  0
 44 45  1  0
 45 48  1  0
 45 47  1  0
 46 44  2  0
 49 50  1  0
 49 24  1  0
 51 49  1  0
 52 53  1  0
 54 56  1  0
 54 53  1  0
 55 66  2  0
 56 61  1  0
 57 65  1  0
 57 67  1  0
 58 60  1  0
 59 65  1  0
 60 61  2  0
 60 59  1  0
 62 56  2  0
 63 62  1  0
 63 58  2  0
 64 58  1  0
 64 57  1  0
 65 55  1  0
 67 69  2  0
 68 67  1  0
 70 68  1  0
 71 80  2  0
 71 76  1  0
 72 68  1  0
 72 76  1  0
 73 72  1  0
 74 75  1  0
 74 73  1  0
 75 71  1  0
 76 77  2  0
 77 78  1  0
 79 78  2  0
 80 79  1  0
 81 55  1  0
 81 86  1  0
 81 82  1  0
 82 85  1  1
 82 83  1  0
 84 82  1  0
 86 89  1  0
 87 91  1  0
 87 86  1  0
 88 87  2  0
 91 90  1  0
 93 91  1  0
 93 94  1  0
 93 92  1  0
M  ISO  4   8 100  20 100  53 101  54 101
M  END
>  <TORSDO>  (52) 
F 20

>  <SCORE>  (52) 
-12.501

>  <name>  (52) 
52

>  <ligand_id>  (52) 
52

>  <original_smiles>  (52) 
[H]c1c([H])c([H])c2c(c1[H])C([H])([H])C([H])([H])C([H])([H])C2([H])N([H])C(=O)C1([H])N(C(=O)C([H])(N([H])C(=O)C([H])(N([H])C([H])([H])[H])C([H])([H])[H])C(C([H])([H])[H])(C([H])([H])[H])C([H])([H])[H])C([H])([H])c2c([H])c(OC([H])([H])C([H])([H])C([H])(C(=O)C3([H])C([H])([H])N(C(=O)N4C([H])([H])C([H])([H])C([H])([H])C([H])(n5nc(-c6c([H])c([H])c(Oc7c([H])c([H])c(F)c([H])c7F)c([H])c6[H])c(C(=O)N([H])[H])c5N([H])[H])C4([H])[H])C([H])([H])C([H])([H])[N+]3([H])[H])[N+]([H])([H])[H])c([H])c([H])c2C1([H])[H]

>  <smiles>  (52) 
[H]c1c([H])c([H])c2c(c1[H])C([H])([H])C([H])([H])C([H])([H])C2([H])N([H])C(=O)C1([H])N(C(=O)C([H])(N([H])C(=O)C([H])(N([H])C([H])([H])[H])C([H])([H])[H])C(C([H])([H])[H])(C([H])([H])[H])C([H])([H])[H])C([H])([H])c2c([H])c(OC([H])([H])C([H])([H])C([H])(C(=O)C3([H])C([H])([H])N(C(=O)N4C([H])([H])C([H])([H])C([H])([H])C([H])(n5nc(-c6c([H])c([H])c(Oc7c([H])c([H])c(F)c([H])c7F)c([H])c6[H])c(C(=O)N([H])[H])c5N([H])[H])C4([H])[H])C([H])([H])C([H])([H])[N+]3([H])[H])[N+]([H])([H])[H])c([H])c([H])c2C1([H])[H]

$$$$
53:0:0
     RDKit          3D

 97105  0  0  1  0  0  0  0  0999 V2000
  -31.1730  -20.0930   19.4740 C   0  0  0  0  0  2  0  0  0  0  0  0
  -29.4850  -18.5270   20.8360 C   0  0  0  0  0  2  0  0  0  0  0  0
  -29.7640  -19.9690   20.1290 C   0  0  0  0  0  3  0  0  0  0  0  0
  -32.2040  -19.0430   19.9210 C   0  0  0  0  0  3  0  0  0  0  0  0
  -30.5230  -17.2930   20.7330 C   0  0  0  0  0  3  0  0  0  0  0  0
  -31.6600  -17.6100   19.7260 C   0  0  0  0  0  3  0  0  0  0  0  0
  -30.6420  -14.6790   20.4100 C   0  0  0  0  0  0  0  0  0  0  0  0
  -30.3510  -12.4390   19.3740 C   0  0  0  0  0  2  0  0  0  0  0  0
  -29.4190  -12.5330   18.1470 C   0  0  0  0  0  2  0  0  0  0  0  0
  -27.9510  -12.3680   18.5800 C   0  0  0  0  0  2  0  0  0  0  0  0
  -27.5820  -13.2670   19.7890 C   0  0  0  0  0  3  0  0  0  0  0  0
  -28.6390  -13.1930   20.9140 C   0  0  0  0  0  2  0  0  0  0  0  0
  -29.9430  -13.5020   20.3190 N   0  0  0  0  0  0  0  0  0  0  0  0
  -31.8260  -14.7090   20.0810 O   0  0  0  0  0  0  0  0  0  0  0  0
  -29.9690  -15.8650   20.6250 N   0  0  0  0  0  0  0  0  0  0  0  0
  -28.9830  -15.7660   20.8160 H   0  0  0  0  0  0  0  0  0  0  0  0
  -25.1950  -13.8600   20.5200 C   0  0  0  0  0  0  0  0  0  0  0  0
  -24.1280  -13.0860   20.8890 C   0  0  0  0  0  0  0  0  0  0  0  0
  -24.5900  -11.7370   20.8610 C   0  0  0  0  0  0  0  0  0  0  0  0
  -26.2390  -12.9800   20.2840 N   0  0  0  0  0  0  0  0  0  0  0  0
  -25.8820  -11.6970   20.5570 N   0  0  0  0  0  0  0  0  0  0  0  0
  -23.8640  -10.4730   21.0520 C   0  0  0  0  0  0  0  0  0  0  0  0
  -24.3020   -9.5020   21.9800 C   0  0  0  0  0  3  0  0  0  0  0  0
  -23.5770   -8.3050   22.1570 C   0  0  0  0  0  3  0  0  0  0  0  0
  -22.4000   -8.0700   21.4070 C   0  0  0  0  0  0  0  0  0  0  0  0
  -21.9830   -9.0290   20.4690 C   0  0  0  0  0  3  0  0  0  0  0  0
  -22.7080  -10.2170   20.2880 C   0  0  0  0  0  3  0  0  0  0  0  0
  -21.6440   -6.9260   21.4990 O   0  0  0  0  0  0  0  0  0  0  0  0
  -21.6020   -6.1770   22.6470 C   0  0  0  0  0  0  0  0  0  0  0  0
  -21.1960   -6.7270   23.8820 C   0  0  0  0  0  3  0  0  0  0  0  0
  -21.1020   -5.9040   25.0220 C   0  0  0  0  0  3  0  0  0  0  0  0
  -21.4060   -4.5330   24.9290 C   0  0  0  0  0  0  0  0  0  0  0  0
  -21.8070   -3.9830   23.6980 C   0  0  0  0  0  3  0  0  0  0  0  0
  -21.9020   -4.8030   22.5600 C   0  0  0  0  0  0  0  0  0  0  0  0
  -22.2670   -4.2610   21.3720 F   0  0  0  0  0  0  0  0  0  0  0  0
  -21.3090   -3.7390   26.0210 F   0  0  0  0  0  0  0  0  0  0  0  0
  -22.7280  -13.5640   21.1520 C   0  0  0  0  0  0  0  0  0  0  0  0
  -21.9980  -12.8690   22.0180 N   0  0  0  0  0  0  0  0  0  0  0  0
  -22.2920  -14.5890   20.6280 O   0  0  0  0  0  0  0  0  0  0  0  0
  -22.3650  -12.0420   22.4650 H   0  0  0  0  0  0  0  0  0  0  0  0
  -21.0570  -13.1670   22.2350 H   0  0  0  0  0  0  0  0  0  0  0  0
  -25.3590  -15.2280   20.3350 N   0  0  0  0  0  0  0  0  0  0  0  0
  -24.5880  -15.8770   20.4390 H   0  0  0  0  0  0  0  0  0  0  0  0
  -26.2020  -15.6670   19.9890 H   0  0  0  0  0  0  0  0  0  0  0  0
  -29.4740  -21.3220   20.9200 C   0  0  0  0  0  0  0  0  0  0  0  0
  -29.0050  -22.4370   20.2620 N   0  0  0  0  0  0  0  0  0  0  0  0
  -29.7710  -21.3780   22.1150 O   0  0  0  0  0  0  0  0  0  0  0  0
  -28.7450  -22.2850   19.2960 H   0  0  0  0  0  0  0  0  0  0  0  0
  -29.0760  -23.8920   20.6970 C   0  0  0  0  0  3  0  0  0  0  0  0
  -28.0520  -24.9530   20.0680 C   0  0  0  0  0  3  0  0  0  0  0  0
  -28.2780  -26.4200   20.2560 O   0  0  0  0  0  0  0  0  0  0  0  0
  -24.5970  -31.8710   23.2470 C   0  0  0  0  0  0  0  0  0  0  0  0
  -27.1770  -27.3000   20.1760 C   0  0  0  0  0  0  0  0  0  0  0  0
  -23.3850  -30.4850   21.6070 C   0  0  0  0  0  3  0  0  0  0  0  0
  -24.8260  -28.9390   20.1650 C   0  0  0  0  0  0  0  0  0  0  0  0
  -25.9270  -30.7930   21.4190 C   0  0  0  0  0  2  0  0  0  0  0  0
  -25.9990  -29.4180   20.7630 C   0  0  0  0  0  0  0  0  0  0  0  0
  -27.1750  -28.6070   20.7620 C   0  0  0  0  0  3  0  0  0  0  0  0
  -25.9830  -26.8890   19.5380 C   0  0  0  0  0  3  0  0  0  0  0  0
  -24.8200  -27.6840   19.5400 C   0  0  0  0  0  3  0  0  0  0  0  0
  -23.5920  -29.8180   20.2220 C   0  0  0  0  0  2  0  0  0  0  0  0
  -24.6560  -31.0660   22.1480 N   0  0  0  0  0  0  0  0  0  0  0  0
  -23.5180  -32.1480   23.7910 O   0  0  0  0  0  0  0  0  0  0  0  0
  -22.7230  -29.4630   22.5610 C   0  0  0  0  0  0  0  0  0  0  0  0
  -21.3970  -29.2840   22.4340 N   0  0  0  0  0  0  0  0  0  0  0  0
  -23.4010  -28.8370   23.3780 O   0  0  0  0  0  0  0  0  0  0  0  0
  -20.9070  -29.8400   21.7460 H   0  0  0  0  0  0  0  0  0  0  0  0
  -18.0240  -28.0770   22.9200 C   0  0  0  0  0  0  0  0  0  0  0  0
  -20.5800  -28.3450   23.2030 C   0  0  0  0  0  3  0  0  0  0  0  0
  -20.6890  -26.9120   22.6330 C   0  0  0  0  0  2  0  0  0  0  0  0
  -19.5940  -26.5830   21.6130 C   0  0  0  0  0  2  0  0  0  0  0  0
  -18.2090  -26.7270   22.2480 C   0  0  0  0  0  2  0  0  0  0  0  0
  -19.1380  -28.8440   23.3550 C   0  0  0  0  0  0  0  0  0  0  0  0
  -18.9110  -30.1070   23.9400 C   0  0  0  0  0  3  0  0  0  0  0  0
  -17.6040  -30.6060   24.0970 C   0  0  0  0  0  3  0  0  0  0  0  0
  -16.5040  -29.8380   23.6820 C   0  0  0  0  0  3  0  0  0  0  0  0
  -16.7170  -28.5760   23.0990 C   0  0  0  0  0  3  0  0  0  0  0  0
  -25.8830  -32.5000   23.8670 C   0  0  0  0  0  3  0  0  0  0  0  0
  -25.5790  -33.8990   24.1960 N   0  0  0  0  0  0  0  0  0  0  0  0
  -25.9090  -34.9520   23.4350 C   0  0  0  0  0  0  0  0  0  0  0  0
  -26.5710  -34.8490   22.4000 O   0  0  0  0  0  0  0  0  0  0  0  0
  -24.9940  -34.0530   25.0040 H   0  0  0  0  0  0  0  0  0  0  0  0
  -24.1810  -36.7470   23.0950 C   0  0  0  0  0  1  0  0  0  0  0  0
  -25.4280  -36.3420   23.8960 C   0  0  0  0  0  3  0  0  0  0  0  0
  -27.5710  -37.2220   24.7080 C   0  0  0  0  0  1  0  0  0  0  0  0
  -26.4610  -37.3920   23.7720 N   0  0  0  0  0  0  0  0  0  0  0  0
  -26.0580  -38.3130   23.9260 H   0  0  0  0  0  0  0  0  0  0  0  0
  -26.3980  -31.7290   25.1430 C   0  0  1  0  0  0  0  0  0  0  0  0
  -25.3050  -31.4980   26.2120 C   0  0  0  0  0  1  0  0  0  0  0  0
  -26.9720  -30.3480   24.7510 C   0  0  0  0  0  1  0  0  0  0  0  0
  -27.5510  -32.5200   25.8020 C   0  0  0  0  0  1  0  0  0  0  0  0
  -31.2530  -17.3310   18.3330 N   0  0  0  0  0  4  0  0  0  0  0  0
  -30.4750  -17.9050   18.0550 H   0  0  0  0  0  0  0  0  0  0  0  0
  -30.9840  -16.3670   18.2470 H   0  0  0  0  0  0  0  0  0  0  0  0
  -32.0170  -17.4950   17.7000 H   0  0  0  0  0  0  0  0  0  0  0  0
  -34.3290  -20.5080   19.6710 C   0  0  0  0  0  1  0  0  0  0  0  0
  -33.5890  -19.2270   19.2550 C   0  0  0  0  0  2  0  0  0  0  0  0
  1  4  1  0
  1  3  1  0
  3  2  1  0
  3 45  1  0
  4 97  1  0
  5 15  1  0
  5  2  1  0
  6 92  1  0
  6  4  1  0
  6  5  1  0
  7 15  1  0
  8 13  1  0
  9 10  1  0
  9  8  1  0
 11 10  1  0
 11 20  1  0
 11 12  1  0
 13  7  1  0
 13 12  1  0
 14  7  2  0
 15 16  1  0
 17 18  2  0
 18 37  1  0
 19 18  1  0
 19 22  1  0
 20 17  1  0
 20 21  1  0
 21 19  2  0
 22 23  1  0
 23 24  2  0
 25 28  1  0
 25 24  1  0
 26 25  2  0
 27 26  1  0
 27 22  2  0
 28 29  1  0
 29 30  1  0
 30 31  2  0
 32 31  1  0
 32 36  1  0
 33 32  2  0
 34 29  2  0
 34 33  1  0
 35 34  1  0
 37 38  1  0
 38 41  1  0
 38 40  1  0
 39 37  2  0
 42 43  1  0
 42 17  1  0
 44 42  1  0
 45 47  2  0
 46 49  1  0
 46 45  1  0
 48 46  1  0
 50 51  1  0
 50 49  2  0
 52 63  2  0
 53 51  1  0
 53 58  1  0
 54 62  1  0
 54 64  1  0
 55 61  1  0
 55 57  1  0
 56 62  1  0
 57 56  1  0
 58 57  2  0
 59 60  1  0
 59 53  2  0
 60 55  2  0
 61 54  1  0
 62 52  1  0
 64 66  2  0
 65 64  1  0
 67 65  1  0
 68 77  2  0
 68 73  1  0
 69 65  1  0
 69 73  1  0
 70 69  1  0
 71 72  1  0
 71 70  1  0
 72 68  1  0
 73 74  2  0
 74 75  1  0
 76 75  2  0
 77 76  1  0
 78 52  1  0
 78 79  1  0
 78 88  1  0
 79 82  1  0
 80 84  1  0
 80 79  1  0
 81 80  2  0
 84 83  1  0
 86 84  1  0
 86 87  1  0
 86 85  1  0
 88 91  1  1
 88 89  1  0
 90 88  1  0
 93 92  1  0
 94 92  1  0
 95 92  1  0
 97 96  1  0
M  ISO  4   7 100  15 100  50 101  51 101
M  END
>  <TORSDO>  (53) 
F 21

>  <SCORE>  (53) 
-13.800

>  <name>  (53) 
53

>  <ligand_id>  (53) 
53

>  <original_smiles>  (53) 
[H]c1c([H])c([H])c2c(c1[H])C([H])([H])C([H])([H])C([H])([H])C2([H])N([H])C(=O)C1([H])N(C(=O)C([H])(N([H])C(=O)C([H])(N([H])C([H])([H])[H])C([H])([H])[H])C(C([H])([H])[H])(C([H])([H])[H])C([H])([H])[H])C([H])([H])c2c([H])c(OC([H])([H])C([H])([H])N([H])C(=O)C3([H])C([H])([H])C([H])(N([H])C(=O)N4C([H])([H])C([H])([H])C([H])([H])C([H])(n5nc(-c6c([H])c([H])c(Oc7c([H])c([H])c(F)c([H])c7F)c([H])c6[H])c(C(=O)N([H])[H])c5N([H])[H])C4([H])[H])C([H])([N+]([H])([H])[H])C([H])(C([H])([H])C([H])([H])[H])C3([H])[H])c([H])c([H])c2C1([H])[H]

>  <smiles>  (53) 
[H]c1c([H])c([H])c2c(c1[H])C([H])([H])C([H])([H])C([H])([H])C2([H])N([H])C(=O)C1([H])N(C(=O)C([H])(N([H])C(=O)C([H])(N([H])C([H])([H])[H])C([H])([H])[H])C(C([H])([H])[H])(C([H])([H])[H])C([H])([H])[H])C([H])([H])c2c([H])c(OC([H])([H])C([H])([H])N([H])C(=O)C3([H])C([H])([H])C([H])(N([H])C(=O)N4C([H])([H])C([H])([H])C([H])([H])C([H])(n5nc(-c6c([H])c([H])c(Oc7c([H])c([H])c(F)c([H])c7F)c([H])c6[H])c(C(=O)N([H])[H])c5N([H])[H])C4([H])[H])C([H])([N+]([H])([H])[H])C([H])(C([H])([H])C([H])([H])[H])C3([H])[H])c([H])c([H])c2C1([H])[H]

$$$$
54:0:0
     RDKit          3D

 91 99  0  0  1  0  0  0  0  0999 V2000
  -29.0290  -20.8910   19.5020 N   0  0  0  0  0  4  0  0  0  0  0  0
  -29.9610  -21.0880   19.1780 H   0  0  0  0  0  0  0  0  0  0  0  0
  -28.4720  -20.9180   18.6630 H   0  0  0  0  0  0  0  0  0  0  0  0
  -30.1310  -15.4700   19.1600 C   0  0  0  0  0  0  0  0  0  0  0  0
  -29.8630  -13.0570   18.1470 C   0  0  0  0  0  2  0  0  0  0  0  0
  -28.7220  -12.8700   17.1130 C   0  0  0  0  0  2  0  0  0  0  0  0
  -27.3950  -12.5620   17.8220 C   0  0  0  0  0  2  0  0  0  0  0  0
  -27.1830  -13.4720   19.0560 C   0  0  0  0  0  3  0  0  0  0  0  0
  -28.4310  -13.6070   19.9560 C   0  0  0  0  0  2  0  0  0  0  0  0
  -29.5030  -14.1730   19.1170 N   0  0  0  0  0  0  0  0  0  0  0  0
  -31.2820  -15.3900   18.6930 O   0  0  0  0  0  0  0  0  0  0  0  0
  -28.7870  -17.9490   18.8080 C   0  0  0  0  0  2  0  0  0  0  0  0
  -29.0390  -19.2030   19.8610 C   0  0  0  0  0  3  0  0  0  0  0  0
  -30.2940  -18.1480   20.0810 C   0  0  0  0  0  3  0  0  0  0  0  0
  -29.5640  -16.8220   19.5870 N   0  0  0  0  0  0  0  0  0  0  0  0
  -25.0170  -13.9880   20.2810 C   0  0  0  0  0  0  0  0  0  0  0  0
  -24.0390  -13.1930   20.8130 C   0  0  0  0  0  0  0  0  0  0  0  0
  -24.4840  -11.8450   20.6400 C   0  0  0  0  0  0  0  0  0  0  0  0
  -25.9850  -13.1230   19.8070 N   0  0  0  0  0  0  0  0  0  0  0  0
  -25.6930  -11.8270   20.0880 N   0  0  0  0  0  0  0  0  0  0  0  0
  -23.7970  -10.5760   20.9160 C   0  0  0  0  0  0  0  0  0  0  0  0
  -24.3300   -9.6240   21.8130 C   0  0  0  0  0  3  0  0  0  0  0  0
  -23.6360   -8.4230   22.0790 C   0  0  0  0  0  3  0  0  0  0  0  0
  -22.3950   -8.1670   21.4480 C   0  0  0  0  0  0  0  0  0  0  0  0
  -21.8800   -9.1070   20.5400 C   0  0  0  0  0  3  0  0  0  0  0  0
  -22.5740  -10.2990   20.2730 C   0  0  0  0  0  3  0  0  0  0  0  0
  -21.6650   -7.0160   21.6250 O   0  0  0  0  0  0  0  0  0  0  0  0
  -21.6720   -6.3350   22.8170 C   0  0  0  0  0  0  0  0  0  0  0  0
  -21.2730   -6.9430   24.0260 C   0  0  0  0  0  3  0  0  0  0  0  0
  -21.2280   -6.1870   25.2140 C   0  0  0  0  0  3  0  0  0  0  0  0
  -21.5750   -4.8230   25.1940 C   0  0  0  0  0  0  0  0  0  0  0  0
  -21.9690   -4.2140   23.9910 C   0  0  0  0  0  3  0  0  0  0  0  0
  -22.0160   -4.9670   22.8040 C   0  0  0  0  0  0  0  0  0  0  0  0
  -22.3750   -4.3710   21.6420 F   0  0  0  0  0  0  0  0  0  0  0  0
  -21.5260   -4.0940   26.3340 F   0  0  0  0  0  0  0  0  0  0  0  0
  -22.7210  -13.6590   21.3550 C   0  0  0  0  0  0  0  0  0  0  0  0
  -22.1750  -12.9480   22.3370 N   0  0  0  0  0  0  0  0  0  0  0  0
  -22.1950  -14.6910   20.9450 O   0  0  0  0  0  0  0  0  0  0  0  0
  -22.6210  -12.1110   22.6830 H   0  0  0  0  0  0  0  0  0  0  0  0
  -21.2990  -13.2460   22.7430 H   0  0  0  0  0  0  0  0  0  0  0  0
  -25.1560  -15.3630   20.1280 N   0  0  0  0  0  0  0  0  0  0  0  0
  -24.4320  -16.0160   20.4060 H   0  0  0  0  0  0  0  0  0  0  0  0
  -25.9480  -15.8100   19.6830 H   0  0  0  0  0  0  0  0  0  0  0  0
  -30.7840  -18.0130   21.5300 C   0  0  0  0  0  2  0  0  0  0  0  0
  -31.7160  -16.8270   21.8570 C   0  0  0  0  0  2  0  0  0  0  0  0
  -31.9310  -14.4580   22.7900 C   0  0  0  0  0  1  0  0  0  0  0  0
  -30.9840  -15.6350   22.4960 C   0  0  0  0  0  3  0  0  0  0  0  0
  -30.0130  -15.2280   21.6700 F   0  0  0  0  0  0  0  0  0  0  0  0
  -28.5360  -22.3340   20.2960 C   0  0  0  0  0  2  0  0  0  0  0  0
  -28.1220  -24.0760   19.7260 C   0  0  0  0  0  2  0  0  0  0  0  0
  -28.0680  -25.6890   20.3080 O   0  0  0  0  0  0  0  0  0  0  0  0
  -24.7690  -31.9470   23.1960 C   0  0  0  0  0  0  0  0  0  0  0  0
  -27.1050  -26.8660   20.1950 C   0  0  0  0  0  0  0  0  0  0  0  0
  -23.5050  -30.5760   21.5900 C   0  0  0  0  0  3  0  0  0  0  0  0
  -24.8830  -28.8970   20.1510 C   0  0  0  0  0  0  0  0  0  0  0  0
  -26.0810  -30.6690   21.4140 C   0  0  0  0  0  2  0  0  0  0  0  0
  -26.0920  -29.2420   20.7650 C   0  0  0  0  0  0  0  0  0  0  0  0
  -27.1880  -28.2500   20.7630 C   0  0  0  0  0  3  0  0  0  0  0  0
  -25.8710  -26.7010   19.5170 C   0  0  0  0  0  3  0  0  0  0  0  0
  -24.8040  -27.6490   19.5040 C   0  0  0  0  0  3  0  0  0  0  0  0
  -23.6970  -29.8690   20.2160 C   0  0  0  0  0  2  0  0  0  0  0  0
  -24.8100  -31.0940   22.1180 N   0  0  0  0  0  0  0  0  0  0  0  0
  -23.6990  -32.2830   23.7300 O   0  0  0  0  0  0  0  0  0  0  0  0
  -22.7850  -29.6200   22.5760 C   0  0  0  0  0  0  0  0  0  0  0  0
  -21.4560  -29.4640   22.4370 N   0  0  0  0  0  0  0  0  0  0  0  0
  -23.4340  -29.0210   23.4380 O   0  0  0  0  0  0  0  0  0  0  0  0
  -20.9860  -29.9930   21.7140 H   0  0  0  0  0  0  0  0  0  0  0  0
  -18.0690  -28.2540   22.9020 C   0  0  0  0  0  0  0  0  0  0  0  0
  -20.6180  -28.5560   23.2270 C   0  0  0  0  0  3  0  0  0  0  0  0
  -20.7490  -27.1010   22.7170 C   0  0  0  0  0  2  0  0  0  0  0  0
  -19.6790  -26.7270   21.6870 C   0  0  0  0  0  2  0  0  0  0  0  0
  -18.2770  -26.8810   22.2840 C   0  0  0  0  0  2  0  0  0  0  0  0
  -19.1660  -29.0470   23.3290 C   0  0  0  0  0  0  0  0  0  0  0  0
  -18.9160  -30.3260   23.8680 C   0  0  0  0  0  3  0  0  0  0  0  0
  -17.5990  -30.8130   23.9900 C   0  0  0  0  0  3  0  0  0  0  0  0
  -16.5150  -30.0180   23.5810 C   0  0  0  0  0  3  0  0  0  0  0  0
  -16.7520  -28.7420   23.0380 C   0  0  0  0  0  3  0  0  0  0  0  0
  -26.0690  -32.5530   23.8060 C   0  0  0  0  0  3  0  0  0  0  0  0
  -25.7970  -33.9610   24.1530 N   0  0  0  0  0  0  0  0  0  0  0  0
  -26.1290  -35.0190   23.4010 C   0  0  0  0  0  0  0  0  0  0  0  0
  -26.7530  -34.9120   22.3440 O   0  0  0  0  0  0  0  0  0  0  0  0
  -25.2440  -34.1200   24.9820 H   0  0  0  0  0  0  0  0  0  0  0  0
  -24.4300  -36.8620   23.1550 C   0  0  0  0  0  1  0  0  0  0  0  0
  -25.7010  -36.4160   23.8960 C   0  0  0  0  0  3  0  0  0  0  0  0
  -27.8930  -37.2490   24.6250 C   0  0  0  0  0  1  0  0  0  0  0  0
  -26.7490  -37.4470   23.7400 N   0  0  0  0  0  0  0  0  0  0  0  0
  -26.3680  -38.3730   23.9160 H   0  0  0  0  0  0  0  0  0  0  0  0
  -26.5780  -31.7730   25.0830 C   0  0  1  0  0  0  0  0  0  0  0  0
  -25.4830  -31.5470   26.1510 C   0  0  0  0  0  1  0  0  0  0  0  0
  -27.1450  -30.3880   24.6970 C   0  0  0  0  0  1  0  0  0  0  0  0
  -27.7360  -32.5550   25.7470 C   0  0  0  0  0  1  0  0  0  0  0  0
  1 49  1  0
  2  1  1  0
  3  1  1  0
  4 15  1  0
  5 10  1  0
  6  7  1  0
  6  5  1  0
  8  7  1  0
  8 19  1  0
  8  9  1  0
 10  4  1  0
 10  9  1  0
 11  4  2  0
 12 15  1  0
 12 13  1  0
 13  1  1  0
 13 14  1  0
 14 44  1  0
 15 14  1  0
 16 17  2  0
 17 36  1  0
 18 17  1  0
 18 21  1  0
 19 20  1  0
 19 16  1  0
 20 18  2  0
 21 22  1  0
 22 23  2  0
 24 27  1  0
 24 23  1  0
 25 24  2  0
 26 25  1  0
 26 21  2  0
 27 28  1  0
 28 29  1  0
 29 30  2  0
 31 30  1  0
 31 35  1  0
 32 31  2  0
 33 28  2  0
 33 32  1  0
 34 33  1  0
 36 37  1  0
 37 39  1  0
 37 40  1  0
 38 36  2  0
 41 16  1  0
 41 42  1  0
 43 41  1  0
 44 45  1  0
 45 47  1  0
 47 46  1  0
 48 47  1  0
 50 49  1  0
 50 51  1  0
 52 63  2  0
 53 51  1  0
 53 58  1  0
 54 62  1  0
 54 64  1  0
 55 61  1  0
 55 57  1  0
 56 62  1  0
 57 56  1  0
 58 57  2  0
 59 53  2  0
 60 59  1  0
 60 55  2  0
 61 54  1  0
 62 52  1  0
 64 66  2  0
 65 64  1  0
 67 65  1  0
 68 77  2  0
 68 73  1  0
 69 65  1  0
 69 73  1  0
 70 69  1  0
 71 72  1  0
 71 70  1  0
 72 68  1  0
 73 74  2  0
 74 75  1  0
 76 75  2  0
 77 76  1  0
 78 52  1  0
 78 79  1  0
 78 88  1  0
 79 82  1  0
 80 84  1  0
 80 79  1  0
 81 80  2  0
 84 83  1  0
 86 84  1  0
 86 87  1  0
 86 85  1  0
 88 91  1  1
 88 89  1  0
 90 88  1  0
M  ISO  4   4 100  15 100  50 101  51 101
M  END
>  <TORSDO>  (54) 
F 21

>  <SCORE>  (54) 
-9.397

>  <name>  (54) 
54

>  <ligand_id>  (54) 
54

>  <original_smiles>  (54) 
[H]c1c([H])c([H])c2c(c1[H])C([H])([H])C([H])([H])C([H])([H])C2([H])N([H])C(=O)C1([H])N(C(=O)C([H])(N([H])C(=O)C([H])(N([H])C([H])([H])[H])C([H])([H])[H])C(C([H])([H])[H])(C([H])([H])[H])C([H])([H])[H])C([H])([H])c2c([H])c(OC([H])([H])C([H])([H])[N+]([H])([H])C3([H])C([H])([H])N(C(=O)N4C([H])([H])C([H])([H])C([H])([H])C([H])(n5nc(-c6c([H])c([H])c(Oc7c([H])c([H])c(F)c([H])c7F)c([H])c6[H])c(C(=O)N([H])[H])c5N([H])[H])C4([H])[H])C3([H])C([H])([H])C([H])([H])C([H])(F)C([H])([H])[H])c([H])c([H])c2C1([H])[H]

>  <smiles>  (54) 
[H]c1c([H])c([H])c2c(c1[H])C([H])([H])C([H])([H])C([H])([H])C2([H])N([H])C(=O)C1([H])N(C(=O)C([H])(N([H])C(=O)C([H])(N([H])C([H])([H])[H])C([H])([H])[H])C(C([H])([H])[H])(C([H])([H])[H])C([H])([H])[H])C([H])([H])c2c([H])c(OC([H])([H])C([H])([H])[N+]([H])([H])C3([H])C([H])([H])N(C(=O)N4C([H])([H])C([H])([H])C([H])([H])C([H])(n5nc(-c6c([H])c([H])c(Oc7c([H])c([H])c(F)c([H])c7F)c([H])c6[H])c(C(=O)N([H])[H])c5N([H])[H])C4([H])[H])C3([H])C([H])([H])C([H])([H])C([H])(F)C([H])([H])[H])c([H])c([H])c2C1([H])[H]

$$$$
55:0:0
     RDKit          3D

 96104  0  0  1  0  0  0  0  0999 V2000
  -30.9600  -14.5810   19.6700 C   0  0  0  0  0  0  0  0  0  0  0  0
  -30.8410  -12.1380   19.8960 C   0  0  0  0  0  2  0  0  0  0  0  0
  -30.0090  -11.5600   18.7320 C   0  0  0  0  0  2  0  0  0  0  0  0
  -28.5100  -11.5480   19.0900 C   0  0  0  0  0  2  0  0  0  0  0  0
  -28.0120  -12.8920   19.6760 C   0  0  0  0  0  3  0  0  0  0  0  0
  -28.9750  -13.4210   20.7640 C   0  0  0  0  0  2  0  0  0  0  0  0
  -30.3250  -13.4870   20.1770 N   0  0  0  0  0  0  0  0  0  0  0  0
  -32.1330  -14.5460   19.2950 O   0  0  0  0  0  0  0  0  0  0  0  0
  -29.9880  -15.8760   17.8090 C   0  0  0  0  0  2  0  0  0  0  0  0
  -30.4420  -17.2430   17.1790 C   0  0  0  0  0  2  0  0  0  0  0  0
  -28.7430  -18.5320   18.6180 C   0  0  0  0  0  2  0  0  0  0  0  0
  -29.8770  -16.7120   20.2310 C   0  0  0  0  0  3  0  0  0  0  0  0
  -28.5960  -17.4520   19.7320 C   0  0  0  0  0  3  0  0  0  0  0  0
  -27.7200  -17.9460   20.8990 C   0  0  0  0  0  1  0  0  0  0  0  0
  -30.1900  -15.6270   19.2740 N   0  0  0  0  0  0  0  0  0  0  0  0
  -29.9850  -18.5370   17.7880 N   0  0  2  0  0  4  0  0  0  0  0  0
  -30.6990  -18.6940   18.4910 H   0  0  0  0  0  0  0  0  0  0  0  0
  -25.6860  -13.7720   20.3190 C   0  0  0  0  0  0  0  0  0  0  0  0
  -24.5380  -13.1250   20.7150 C   0  0  0  0  0  0  0  0  0  0  0  0
  -24.8620  -11.7400   20.7660 C   0  0  0  0  0  0  0  0  0  0  0  0
  -26.6380  -12.7770   20.1550 N   0  0  0  0  0  0  0  0  0  0  0  0
  -26.1440  -11.5510   20.4810 N   0  0  0  0  0  0  0  0  0  0  0  0
  -24.0070  -10.5680   21.0140 C   0  0  0  0  0  0  0  0  0  0  0  0
  -24.3870   -9.5550   21.9190 C   0  0  0  0  0  3  0  0  0  0  0  0
  -23.5420   -8.4480   22.1500 C   0  0  0  0  0  3  0  0  0  0  0  0
  -22.3020   -8.3490   21.4760 C   0  0  0  0  0  0  0  0  0  0  0  0
  -21.9380   -9.3520   20.5610 C   0  0  0  0  0  3  0  0  0  0  0  0
  -22.7840  -10.4470   20.3270 C   0  0  0  0  0  3  0  0  0  0  0  0
  -21.4270   -7.2970   21.6190 O   0  0  0  0  0  0  0  0  0  0  0  0
  -21.4520   -6.4850   22.7240 C   0  0  0  0  0  0  0  0  0  0  0  0
  -21.2770   -6.9970   24.0280 C   0  0  0  0  0  3  0  0  0  0  0  0
  -21.2420   -6.1200   25.1310 C   0  0  0  0  0  3  0  0  0  0  0  0
  -21.3780   -4.7310   24.9290 C   0  0  0  0  0  0  0  0  0  0  0  0
  -21.5480   -4.2200   23.6290 C   0  0  0  0  0  3  0  0  0  0  0  0
  -21.5830   -5.0960   22.5320 C   0  0  0  0  0  0  0  0  0  0  0  0
  -21.7260   -4.5970   21.2790 F   0  0  0  0  0  0  0  0  0  0  0  0
  -21.3380   -3.8870   25.9850 F   0  0  0  0  0  0  0  0  0  0  0  0
  -23.1940  -13.7590   20.9410 C   0  0  0  0  0  0  0  0  0  0  0  0
  -22.4040  -13.2010   21.8570 N   0  0  0  0  0  0  0  0  0  0  0  0
  -22.8540  -14.7730   20.3390 O   0  0  0  0  0  0  0  0  0  0  0  0
  -22.6940  -12.3750   22.3560 H   0  0  0  0  0  0  0  0  0  0  0  0
  -21.5000  -13.6030   22.0500 H   0  0  0  0  0  0  0  0  0  0  0  0
  -25.9950  -15.0990   20.0610 N   0  0  0  0  0  0  0  0  0  0  0  0
  -25.3120  -15.8510   20.1090 H   0  0  0  0  0  0  0  0  0  0  0  0
  -26.8940  -15.4070   19.7070 H   0  0  0  0  0  0  0  0  0  0  0  0
  -31.1020  -17.6190   20.5650 C   0  0  0  0  0  0  0  0  0  0  0  0
  -32.2520  -17.0460   20.8730 N   0  0  0  0  0  0  0  0  0  0  0  0
  -31.0410  -18.8430   20.4670 O   0  0  0  0  0  0  0  0  0  0  0  0
  -33.0730  -17.6140   21.0500 H   0  0  0  0  0  0  0  0  0  0  0  0
  -32.3610  -16.0410   20.8650 H   0  0  0  0  0  0  0  0  0  0  0  0
  -30.1430  -19.7540   16.8970 C   0  0  0  0  0  2  0  0  0  0  0  0
  -28.9560  -20.7930   16.8110 C   0  0  0  0  0  2  0  0  0  0  0  0
  -29.3310  -22.2730   17.1890 C   0  0  0  0  0  2  0  0  0  0  0  0
  -28.7650  -23.5380   16.4490 C   0  0  0  0  0  2  0  0  0  0  0  0
  -27.8950  -24.5030   17.3260 C   0  0  0  0  0  2  0  0  0  0  0  0
  -28.2550  -25.9150   17.2670 O   0  0  0  0  0  0  0  0  0  0  0  0
  -25.7260  -29.4210   23.0370 C   0  0  0  0  0  0  0  0  0  0  0  0
  -27.3140  -26.7780   17.8050 C   0  0  0  0  0  0  0  0  0  0  0  0
  -24.2480  -29.2080   21.1010 C   0  0  0  0  0  3  0  0  0  0  0  0
  -25.2960  -28.4510   18.9050 C   0  0  0  0  0  0  0  0  0  0  0  0
  -26.7710  -29.2160   20.7590 C   0  0  0  0  0  2  0  0  0  0  0  0
  -26.5550  -28.3770   19.5140 C   0  0  0  0  0  0  0  0  0  0  0  0
  -27.5720  -27.5470   18.9700 C   0  0  0  0  0  3  0  0  0  0  0  0
  -26.0510  -26.9160   17.1860 C   0  0  0  0  0  3  0  0  0  0  0  0
  -25.0560  -27.7420   17.7180 C   0  0  0  0  0  3  0  0  0  0  0  0
  -24.2520  -29.3400   19.5560 C   0  0  0  0  0  2  0  0  0  0  0  0
  -25.6120  -29.2640   21.6860 N   0  0  0  0  0  0  0  0  0  0  0  0
  -24.7270  -29.5400   23.7630 O   0  0  0  0  0  0  0  0  0  0  0  0
  -23.4550  -27.9430   21.5040 C   0  0  0  0  0  0  0  0  0  0  0  0
  -22.1390  -28.1110   21.4410 N   0  0  0  0  0  0  0  0  0  0  0  0
  -24.0030  -26.8870   21.8240 O   0  0  0  0  0  0  0  0  0  0  0  0
  -21.8540  -29.0620   21.2510 H   0  0  0  0  0  0  0  0  0  0  0  0
  -18.5430  -27.1050   21.2610 C   0  0  0  0  0  0  0  0  0  0  0  0
  -21.0510  -27.1730   21.3600 C   0  0  0  0  0  3  0  0  0  0  0  0
  -21.1320  -25.8860   20.5280 C   0  0  0  0  0  2  0  0  0  0  0  0
  -20.0110  -25.9260   19.4670 C   0  0  0  0  0  2  0  0  0  0  0  0
  -18.6110  -26.1160   20.0940 C   0  0  0  0  0  2  0  0  0  0  0  0
  -19.7070  -27.5340   21.9440 C   0  0  0  0  0  0  0  0  0  0  0  0
  -19.6080  -28.4350   23.0220 C   0  0  0  0  0  3  0  0  0  0  0  0
  -18.3520  -28.9490   23.3950 C   0  0  0  0  0  3  0  0  0  0  0  0
  -17.1950  -28.5500   22.6990 C   0  0  0  0  0  3  0  0  0  0  0  0
  -17.2940  -27.6260   21.6440 C   0  0  0  0  0  3  0  0  0  0  0  0
  -27.1170  -29.4740   23.7260 C   0  0  0  0  0  3  0  0  0  0  0  0
  -27.0400  -30.4770   24.8010 N   0  0  0  0  0  0  0  0  0  0  0  0
  -27.5300  -31.7200   24.7220 C   0  0  0  0  0  0  0  0  0  0  0  0
  -28.1690  -32.1250   23.7450 O   0  0  0  0  0  0  0  0  0  0  0  0
  -26.4820  -30.2330   25.6060 H   0  0  0  0  0  0  0  0  0  0  0  0
  -26.1170  -33.6280   25.5680 C   0  0  0  0  0  1  0  0  0  0  0  0
  -27.2730  -32.6720   25.9080 C   0  0  0  0  0  3  0  0  0  0  0  0
  -29.5170  -32.6280   26.9050 C   0  0  0  0  0  1  0  0  0  0  0  0
  -28.4690  -33.4480   26.3070 N   0  0  0  0  0  0  0  0  0  0  0  0
  -28.2220  -34.1820   26.9670 H   0  0  0  0  0  0  0  0  0  0  0  0
  -27.5690  -28.0770   24.3070 C   0  0  1  0  0  0  0  0  0  0  0  0
  -26.5050  -27.3950   25.2030 C   0  0  0  0  0  1  0  0  0  0  0  0
  -27.9030  -27.1030   23.1560 C   0  0  0  0  0  1  0  0  0  0  0  0
  -28.8650  -28.2470   25.1370 C   0  0  0  0  0  1  0  0  0  0  0  0
  1  7  1  0
  2  7  1  0
  3  4  1  0
  3  2  1  0
  5  4  1  0
  5 21  1  0
  5  6  1  0
  7  6  1  0
  8  1  2  0
  9 15  1  0
 10 16  1  0
 10  9  1  0
 11 13  1  0
 12 46  1  0
 13 12  1  0
 13 14  1  0
 15  1  1  0
 15 12  1  0
 16 17  1  1
 16 11  1  0
 18 19  2  0
 19 20  1  0
 19 38  1  0
 20 23  1  0
 21 18  1  0
 21 22  1  0
 22 20  2  0
 23 24  1  0
 24 25  2  0
 26 29  1  0
 26 25  1  0
 27 26  2  0
 28 27  1  0
 28 23  2  0
 29 30  1  0
 30 31  1  0
 31 32  2  0
 33 32  1  0
 33 37  1  0
 34 33  2  0
 35 30  2  0
 35 34  1  0
 36 35  1  0
 38 39  1  0
 39 42  1  0
 39 41  1  0
 40 38  2  0
 43 44  1  0
 43 18  1  0
 45 43  1  0
 46 47  1  0
 47 49  1  0
 48 46  2  0
 50 47  1  0
 51 16  1  0
 52 51  1  0
 52 53  1  0
 54 53  1  0
 54 55  1  0
 56 55  1  0
 56 58  1  0
 57 68  2  0
 58 63  1  0
 59 69  1  0
 59 67  1  0
 60 62  1  0
 60 66  1  0
 61 67  1  0
 62 61  1  0
 63 62  2  0
 64 65  1  0
 64 58  2  0
 65 60  2  0
 66 59  1  0
 67 57  1  0
 69 71  2  0
 70 69  1  0
 72 70  1  0
 73 82  2  0
 73 78  1  0
 74 70  1  0
 74 78  1  0
 75 74  1  0
 76 77  1  0
 76 75  1  0
 77 73  1  0
 78 79  2  0
 79 80  1  0
 81 80  2  0
 82 81  1  0
 83 57  1  0
 83 93  1  0
 83 84  1  0
 84 87  1  0
 85 84  1  0
 85 89  1  0
 86 85  2  0
 89 88  1  0
 89 91  1  0
 91 90  1  0
 91 92  1  0
 93 96  1  1
 93 94  1  0
 95 93  1  0
M  ISO  4   1 100  15 100  55 101  56 101
M  END
>  <TORSDO>  (55) 
F 21

>  <SCORE>  (55) 
-7.854

>  <name>  (55) 
55

>  <ligand_id>  (55) 
55

>  <original_smiles>  (55) 
[H]c1c([H])c([H])c2c(c1[H])C([H])([H])C([H])([H])C([H])([H])C2([H])N([H])C(=O)C1([H])N(C(=O)C([H])(N([H])C(=O)C([H])(N([H])C([H])([H])[H])C([H])([H])[H])C(C([H])([H])[H])(C([H])([H])[H])C([H])([H])[H])C([H])([H])c2c([H])c(OC([H])([H])C([H])([H])C([H])([H])C([H])([H])C([H])([H])[N+]3([H])C([H])([H])C([H])([H])N(C(=O)N4C([H])([H])C([H])([H])C([H])([H])C([H])(n5nc(-c6c([H])c([H])c(Oc7c([H])c([H])c(F)c([H])c7F)c([H])c6[H])c(C(=O)N([H])[H])c5N([H])[H])C4([H])[H])C([H])(C(=O)N([H])[H])C([H])(C([H])([H])[H])C3([H])[H])c([H])c([H])c2C1([H])[H]

>  <smiles>  (55) 
[H]c1c([H])c([H])c2c(c1[H])C([H])([H])C([H])([H])C([H])([H])C2([H])N([H])C(=O)C1([H])N(C(=O)C([H])(N([H])C(=O)C([H])(N([H])C([H])([H])[H])C([H])([H])[H])C(C([H])([H])[H])(C([H])([H])[H])C([H])([H])[H])C([H])([H])c2c([H])c(OC([H])([H])C([H])([H])C([H])([H])C([H])([H])C([H])([H])[N+]3([H])C([H])([H])C([H])([H])N(C(=O)N4C([H])([H])C([H])([H])C([H])([H])C([H])(n5nc(-c6c([H])c([H])c(Oc7c([H])c([H])c(F)c([H])c7F)c([H])c6[H])c(C(=O)N([H])[H])c5N([H])[H])C4([H])[H])C([H])(C(=O)N([H])[H])C([H])(C([H])([H])[H])C3([H])[H])c([H])c([H])c2C1([H])[H]

$$$$
56:0:0
     RDKit          3D

 95103  0  0  1  0  0  0  0  0999 V2000
  -27.7060  -19.3300   17.3910 C   0  0  0  0  0  2  0  0  0  0  0  0
  -28.6850  -17.9350   19.1760 C   0  0  0  0  0  2  0  0  0  0  0  0
  -27.9030  -20.5710   18.2740 C   0  0  0  0  0  2  0  0  0  0  0  0
  -28.9140  -19.2000   20.0600 C   0  0  0  0  0  3  0  0  0  0  0  0
  -27.5010  -18.0470   18.2030 C   0  0  0  0  0  3  0  0  0  0  0  0
  -29.0580  -20.4710   19.2280 N   0  0  2  0  0  4  0  0  0  0  0  0
  -29.8810  -20.3440   18.6570 H   0  0  0  0  0  0  0  0  0  0  0  0
  -27.4880  -15.4500   17.8700 C   0  0  0  0  0  1  0  0  0  0  0  0
  -27.3910  -16.8450   17.2350 C   0  0  0  0  0  2  0  0  0  0  0  0
  -30.0810  -18.9220   21.0790 C   0  0  0  0  0  0  0  0  0  0  0  0
  -30.1780  -19.5780   22.1180 O   0  0  0  0  0  0  0  0  0  0  0  0
  -31.1250  -17.7880   20.8480 C   0  0  0  0  0  2  0  0  0  0  0  0
  -31.4350  -15.3060   21.0720 C   0  0  0  0  0  0  0  0  0  0  0  0
  -31.2980  -13.0160   20.1700 C   0  0  0  0  0  2  0  0  0  0  0  0
  -30.4880  -13.0550   18.8560 C   0  0  0  0  0  2  0  0  0  0  0  0
  -28.9860  -12.9000   19.1550 C   0  0  0  0  0  2  0  0  0  0  0  0
  -28.4930  -13.8750   20.2570 C   0  0  0  0  0  3  0  0  0  0  0  0
  -29.4250  -13.8350   21.4890 C   0  0  0  0  0  2  0  0  0  0  0  0
  -30.7940  -14.1050   21.0280 N   0  0  0  0  0  0  0  0  0  0  0  0
  -32.6320  -15.4230   20.8050 O   0  0  0  0  0  0  0  0  0  0  0  0
  -30.6570  -16.4090   21.1740 N   0  0  0  0  0  0  0  0  0  0  0  0
  -29.6820  -16.2760   21.3910 H   0  0  0  0  0  0  0  0  0  0  0  0
  -26.0700  -14.5290   20.8140 C   0  0  0  0  0  0  0  0  0  0  0  0
  -24.9500  -13.7780   21.0370 C   0  0  0  0  0  0  0  0  0  0  0  0
  -25.3660  -12.4140   20.9480 C   0  0  0  0  0  0  0  0  0  0  0  0
  -27.1010  -13.6260   20.6080 N   0  0  0  0  0  0  0  0  0  0  0  0
  -26.6750  -12.3450   20.7460 N   0  0  0  0  0  0  0  0  0  0  0  0
  -24.5840  -11.1730   20.9810 C   0  0  0  0  0  0  0  0  0  0  0  0
  -24.8870  -10.1330   21.8880 C   0  0  0  0  0  3  0  0  0  0  0  0
  -24.1090   -8.9560   21.9120 C   0  0  0  0  0  3  0  0  0  0  0  0
  -23.0120   -8.8120   21.0290 C   0  0  0  0  0  0  0  0  0  0  0  0
  -22.7300   -9.8410   20.1130 C   0  0  0  0  0  3  0  0  0  0  0  0
  -23.5080  -11.0080   20.0860 C   0  0  0  0  0  3  0  0  0  0  0  0
  -22.2150   -7.6930   20.9670 O   0  0  0  0  0  0  0  0  0  0  0  0
  -21.9730   -6.9200   22.0740 C   0  0  0  0  0  0  0  0  0  0  0  0
  -21.4030   -7.4580   23.2480 C   0  0  0  0  0  3  0  0  0  0  0  0
  -21.1060   -6.6140   24.3380 C   0  0  0  0  0  3  0  0  0  0  0  0
  -21.3700   -5.2340   24.2520 C   0  0  0  0  0  0  0  0  0  0  0  0
  -21.9350   -4.6950   23.0820 C   0  0  0  0  0  3  0  0  0  0  0  0
  -22.2330   -5.5370   21.9950 C   0  0  0  0  0  0  0  0  0  0  0  0
  -22.7560   -5.0090   20.8620 F   0  0  0  0  0  0  0  0  0  0  0  0
  -21.0800   -4.4210   25.2960 F   0  0  0  0  0  0  0  0  0  0  0  0
  -23.5510  -14.2910   21.2270 C   0  0  0  0  0  0  0  0  0  0  0  0
  -22.7310  -13.5730   21.9860 N   0  0  0  0  0  0  0  0  0  0  0  0
  -23.1930  -15.3640   20.7380 O   0  0  0  0  0  0  0  0  0  0  0  0
  -23.0300  -12.7020   22.3990 H   0  0  0  0  0  0  0  0  0  0  0  0
  -21.7890  -13.8990   22.1550 H   0  0  0  0  0  0  0  0  0  0  0  0
  -26.2950  -15.9020   20.7450 N   0  0  0  0  0  0  0  0  0  0  0  0
  -25.5290  -16.5630   20.8040 H   0  0  0  0  0  0  0  0  0  0  0  0
  -27.1540  -16.3180   20.4200 H   0  0  0  0  0  0  0  0  0  0  0  0
  -29.2900  -21.7770   19.9800 C   0  0  0  0  0  3  0  0  0  0  0  0
  -28.9450  -23.1030   19.1850 C   0  0  0  0  0  3  0  0  0  0  0  0
  -29.3600  -24.5250   19.7230 C   0  0  0  0  0  2  0  0  0  0  0  0
  -28.3300  -25.6170   19.2840 C   0  0  0  0  0  2  0  0  0  0  0  0
  -28.5040  -27.0410   19.5920 O   0  0  0  0  0  0  0  0  0  0  0  0
  -24.5340  -31.8430   23.1990 C   0  0  0  0  0  0  0  0  0  0  0  0
  -27.3340  -27.8060   19.6420 C   0  0  0  0  0  0  0  0  0  0  0  0
  -23.3680  -30.4970   21.4900 C   0  0  0  0  0  3  0  0  0  0  0  0
  -24.8630  -29.2140   19.8750 C   0  0  0  0  0  0  0  0  0  0  0  0
  -25.8640  -31.0320   21.2470 C   0  0  0  0  0  2  0  0  0  0  0  0
  -26.0180  -29.7270   20.4800 C   0  0  0  0  0  0  0  0  0  0  0  0
  -27.2550  -29.0280   20.3720 C   0  0  0  0  0  3  0  0  0  0  0  0
  -26.1520  -27.3650   18.9900 C   0  0  0  0  0  3  0  0  0  0  0  0
  -24.9290  -28.0340   19.1270 C   0  0  0  0  0  3  0  0  0  0  0  0
  -23.5700  -29.9780   20.0450 C   0  0  0  0  0  2  0  0  0  0  0  0
  -24.6090  -31.1340   22.0380 N   0  0  0  0  0  0  0  0  0  0  0  0
  -23.4540  -31.9940   23.7920 O   0  0  0  0  0  0  0  0  0  0  0  0
  -22.8310  -29.3450   22.3700 C   0  0  0  0  0  0  0  0  0  0  0  0
  -21.5250  -29.0520   22.2460 N   0  0  0  0  0  0  0  0  0  0  0  0
  -23.5820  -28.7270   23.1290 O   0  0  0  0  0  0  0  0  0  0  0  0
  -20.9750  -29.6150   21.6130 H   0  0  0  0  0  0  0  0  0  0  0  0
  -18.3060  -27.4430   22.6090 C   0  0  0  0  0  0  0  0  0  0  0  0
  -20.8110  -27.9860   22.9490 C   0  0  0  0  0  3  0  0  0  0  0  0
  -21.0910  -26.6060   22.3100 C   0  0  0  0  0  2  0  0  0  0  0  0
  -20.0530  -26.2060   21.2580 C   0  0  0  0  0  2  0  0  0  0  0  0
  -18.6540  -26.1580   21.8750 C   0  0  0  0  0  2  0  0  0  0  0  0
  -19.3200  -28.3090   23.1000 C   0  0  0  0  0  0  0  0  0  0  0  0
  -18.9480  -29.5080   23.7420 C   0  0  0  0  0  3  0  0  0  0  0  0
  -17.5910  -29.8490   23.8990 C   0  0  0  0  0  3  0  0  0  0  0  0
  -16.5900  -28.9810   23.4270 C   0  0  0  0  0  3  0  0  0  0  0  0
  -16.9490  -27.7790   22.7890 C   0  0  0  0  0  3  0  0  0  0  0  0
  -25.7930  -32.5150   23.8270 C   0  0  0  0  0  3  0  0  0  0  0  0
  -25.4120  -33.8750   24.2280 N   0  0  0  0  0  0  0  0  0  0  0  0
  -25.7120  -34.9830   23.5390 C   0  0  0  0  0  0  0  0  0  0  0  0
  -26.4110  -34.9710   22.5230 O   0  0  0  0  0  0  0  0  0  0  0  0
  -24.7840  -33.9550   25.0140 H   0  0  0  0  0  0  0  0  0  0  0  0
  -23.9220  -36.7260   23.2250 C   0  0  0  0  0  1  0  0  0  0  0  0
  -25.1470  -36.3170   24.0590 C   0  0  0  0  0  3  0  0  0  0  0  0
  -27.2130  -37.2280   25.0260 C   0  0  0  0  0  1  0  0  0  0  0  0
  -26.1360  -37.4150   24.0570 N   0  0  0  0  0  0  0  0  0  0  0  0
  -25.6860  -38.3040   24.2570 H   0  0  0  0  0  0  0  0  0  0  0  0
  -26.3770  -31.7130   25.0550 C   0  0  1  0  0  0  0  0  0  0  0  0
  -25.3230  -31.3680   26.1330 C   0  0  0  0  0  1  0  0  0  0  0  0
  -27.0240  -30.3860   24.5870 C   0  0  0  0  0  1  0  0  0  0  0  0
  -27.5010  -32.5360   25.7290 C   0  0  0  0  0  1  0  0  0  0  0  0
  1  5  1  0
  1  3  1  0
  2  4  1  0
  3  6  1  0
  4 10  1  0
  5  9  1  0
  5  2  1  0
  6 51  1  0
  6  4  1  0
  6  7  1  6
  9  8  1  0
 10 11  2  0
 12 10  1  0
 12 21  1  0
 13 21  1  0
 14 19  1  0
 15 16  1  0
 15 14  1  0
 17 16  1  0
 17 26  1  0
 17 18  1  0
 19 13  1  0
 19 18  1  0
 20 13  2  0
 21 22  1  0
 23 24  2  0
 24 43  1  0
 25 28  1  0
 25 24  1  0
 26 27  1  0
 26 23  1  0
 27 25  2  0
 28 29  1  0
 29 30  2  0
 31 30  1  0
 32 31  2  0
 33 32  1  0
 33 28  2  0
 34 31  1  0
 34 35  1  0
 35 36  1  0
 36 37  2  0
 38 37  1  0
 38 42  1  0
 39 38  2  0
 40 35  2  0
 40 39  1  0
 41 40  1  0
 43 44  1  0
 44 47  1  0
 44 46  1  0
 45 43  2  0
 48 49  1  0
 48 23  1  0
 50 48  1  0
 52 53  1  0
 52 51  2  0
 54 55  1  0
 54 53  1  0
 55 57  1  0
 56 67  2  0
 57 62  1  0
 58 66  1  0
 58 68  1  0
 59 65  1  0
 59 61  1  0
 60 66  1  0
 61 60  1  0
 62 61  2  0
 63 64  1  0
 63 57  2  0
 64 59  2  0
 65 58  1  0
 66 56  1  0
 68 70  2  0
 69 68  1  0
 71 69  1  0
 72 81  2  0
 72 77  1  0
 73 69  1  0
 73 77  1  0
 74 73  1  0
 75 76  1  0
 75 74  1  0
 76 72  1  0
 77 78  2  0
 78 79  1  0
 80 79  2  0
 81 80  1  0
 82 56  1  0
 82 83  1  0
 82 92  1  0
 83 86  1  0
 84 88  1  0
 84 83  1  0
 85 84  2  0
 88 87  1  0
 90 88  1  0
 90 91  1  0
 90 89  1  0
 92 95  1  1
 92 93  1  0
 94 92  1  0
M  ISO  4  13 100  21 100  54 101  55 101
M  END
>  <TORSDO>  (56) 
F 23

>  <SCORE>  (56) 
-4.887

>  <name>  (56) 
56

>  <ligand_id>  (56) 
56

>  <original_smiles>  (56) 
[H]c1c([H])c([H])c2c(c1[H])C([H])([H])C([H])([H])C([H])([H])C2([H])N([H])C(=O)C1([H])N(C(=O)C([H])(N([H])C(=O)C([H])(N([H])C([H])([H])[H])C([H])([H])[H])C(C([H])([H])[H])(C([H])([H])[H])C([H])([H])[H])C([H])([H])c2c([H])c(OC([H])([H])C([H])([H])C([H])([H])C([H])([H])[N+]3([H])C([H])([H])C([H])([H])C([H])(C([H])([H])C([H])([H])[H])C([H])([H])C3([H])C(=O)C([H])([H])N([H])C(=O)N3C([H])([H])C([H])([H])C([H])([H])C([H])(n4nc(-c5c([H])c([H])c(Oc6c([H])c([H])c(F)c([H])c6F)c([H])c5[H])c(C(=O)N([H])[H])c4N([H])[H])C3([H])[H])c([H])c([H])c2C1([H])[H]

>  <smiles>  (56) 
[H]c1c([H])c([H])c2c(c1[H])C([H])([H])C([H])([H])C([H])([H])C2([H])N([H])C(=O)C1([H])N(C(=O)C([H])(N([H])C(=O)C([H])(N([H])C([H])([H])[H])C([H])([H])[H])C(C([H])([H])[H])(C([H])([H])[H])C([H])([H])[H])C([H])([H])c2c([H])c(OC([H])([H])C([H])([H])C([H])([H])C([H])([H])[N+]3([H])C([H])([H])C([H])([H])C([H])(C([H])([H])C([H])([H])[H])C([H])([H])C3([H])C(=O)C([H])([H])N([H])C(=O)N3C([H])([H])C([H])([H])C([H])([H])C([H])(n4nc(-c5c([H])c([H])c(Oc6c([H])c([H])c(F)c([H])c6F)c([H])c5[H])c(C(=O)N([H])[H])c4N([H])[H])C3([H])[H])c([H])c([H])c2C1([H])[H]

$$$$
57:0:0
     RDKit          3D

 93101  0  0  1  0  0  0  0  0999 V2000
  -30.7450  -15.4020   20.3730 C   0  0  0  0  0  0  0  0  0  0  0  0
  -30.5720  -13.0310   19.3560 C   0  0  0  0  0  2  0  0  0  0  0  0
  -29.6570  -12.9420   18.1120 C   0  0  0  0  0  2  0  0  0  0  0  0
  -28.1840  -12.7340   18.5210 C   0  0  0  0  0  2  0  0  0  0  0  0
  -27.7660  -13.6380   19.7090 C   0  0  0  0  0  3  0  0  0  0  0  0
  -28.8160  -13.6910   20.8380 C   0  0  0  0  0  2  0  0  0  0  0  0
  -30.0730  -14.1580   20.2180 N   0  0  0  0  0  0  0  0  0  0  0  0
  -31.9780  -15.2850   20.3750 O   0  0  0  0  0  0  0  0  0  0  0  0
  -30.4890  -18.2900   20.7530 C   0  0  0  0  0  2  0  0  0  0  0  0
  -27.6120  -18.2660   20.4800 C   0  0  0  0  0  2  0  0  0  0  0  0
  -29.5930  -19.8090   20.4630 C   0  0  0  0  0  3  0  0  0  0  0  0
  -28.0010  -17.6720   19.0840 C   0  0  0  0  0  3  0  0  0  0  0  0
  -29.4150  -16.9870   18.9680 C   0  0  0  0  0  3  0  0  0  0  0  0
  -30.4060  -17.5690   17.9230 C   0  0  0  0  0  1  0  0  0  0  0  0
  -30.1060  -16.7500   20.2630 N   0  0  0  0  0  0  0  0  0  0  0  0
  -28.1800  -19.5970   20.8110 N   0  0  0  0  0  4  0  0  0  0  0  0
  -28.0620  -19.7650   21.7990 H   0  0  0  0  0  0  0  0  0  0  0  0
  -27.6370  -20.2970   20.3370 H   0  0  0  0  0  0  0  0  0  0  0  0
  -25.3890  -14.2600   20.4030 C   0  0  0  0  0  0  0  0  0  0  0  0
  -24.2920  -13.5120   20.7200 C   0  0  0  0  0  0  0  0  0  0  0  0
  -24.7240  -12.1510   20.6920 C   0  0  0  0  0  0  0  0  0  0  0  0
  -26.4180  -13.3590   20.1850 N   0  0  0  0  0  0  0  0  0  0  0  0
  -26.0260  -12.0830   20.4290 N   0  0  0  0  0  0  0  0  0  0  0  0
  -23.9550  -10.9090   20.8350 C   0  0  0  0  0  0  0  0  0  0  0  0
  -24.3220   -9.9200   21.7730 C   0  0  0  0  0  3  0  0  0  0  0  0
  -23.5500   -8.7460   21.9120 C   0  0  0  0  0  3  0  0  0  0  0  0
  -22.4000   -8.5560   21.1090 C   0  0  0  0  0  0  0  0  0  0  0  0
  -22.0510   -9.5350   20.1620 C   0  0  0  0  0  3  0  0  0  0  0  0
  -22.8240  -10.6990   20.0210 C   0  0  0  0  0  3  0  0  0  0  0  0
  -21.6070   -7.4350   21.1560 O   0  0  0  0  0  0  0  0  0  0  0  0
  -21.4950   -6.6800   22.2960 C   0  0  0  0  0  0  0  0  0  0  0  0
  -21.0530   -7.2380   23.5150 C   0  0  0  0  0  3  0  0  0  0  0  0
  -20.8830   -6.4120   24.6450 C   0  0  0  0  0  3  0  0  0  0  0  0
  -21.1490   -5.0340   24.5550 C   0  0  0  0  0  0  0  0  0  0  0  0
  -21.5870   -4.4770   23.3400 C   0  0  0  0  0  3  0  0  0  0  0  0
  -21.7550   -5.2980   22.2110 C   0  0  0  0  0  0  0  0  0  0  0  0
  -22.1570   -4.7540   21.0370 F   0  0  0  0  0  0  0  0  0  0  0  0
  -20.9750   -4.2390   25.6360 F   0  0  0  0  0  0  0  0  0  0  0  0
  -22.9030  -14.0360   20.9390 C   0  0  0  0  0  0  0  0  0  0  0  0
  -22.1290  -13.3710   21.7870 N   0  0  0  0  0  0  0  0  0  0  0  0
  -22.5140  -15.0660   20.3910 O   0  0  0  0  0  0  0  0  0  0  0  0
  -22.4580  -12.5380   22.2550 H   0  0  0  0  0  0  0  0  0  0  0  0
  -21.1970  -13.7070   21.9790 H   0  0  0  0  0  0  0  0  0  0  0  0
  -25.5780  -15.6230   20.2560 N   0  0  0  0  0  0  0  0  0  0  0  0
  -24.7950  -16.2690   20.2940 H   0  0  0  0  0  0  0  0  0  0  0  0
  -26.4360  -16.0420   19.9340 H   0  0  0  0  0  0  0  0  0  0  0  0
  -29.9760  -21.5210   20.8540 C   0  0  0  0  0  0  0  0  0  0  0  0
  -31.1500  -21.7590   21.1450 O   0  0  0  0  0  0  0  0  0  0  0  0
  -28.9790  -22.9410   20.8700 C   0  0  0  0  0  2  0  0  0  0  0  0
  -29.0960  -24.6150   20.2500 C   0  0  0  0  0  2  0  0  0  0  0  0
  -28.9350  -26.1620   20.7530 O   0  0  0  0  0  0  0  0  0  0  0  0
  -24.7370  -31.8640   23.2870 C   0  0  0  0  0  0  0  0  0  0  0  0
  -27.8430  -27.1460   20.5580 C   0  0  0  0  0  0  0  0  0  0  0  0
  -23.7610  -30.3390   21.6230 C   0  0  0  0  0  3  0  0  0  0  0  0
  -25.4150  -28.8200   20.3430 C   0  0  0  0  0  0  0  0  0  0  0  0
  -26.3060  -30.7490   21.6290 C   0  0  0  0  0  2  0  0  0  0  0  0
  -26.5260  -29.3350   21.0200 C   0  0  0  0  0  0  0  0  0  0  0  0
  -27.7340  -28.5140   21.1080 C   0  0  0  0  0  3  0  0  0  0  0  0
  -26.6920  -26.7700   19.8330 C   0  0  0  0  0  3  0  0  0  0  0  0
  -25.5180  -27.5580   19.7400 C   0  0  0  0  0  3  0  0  0  0  0  0
  -24.1320  -29.6440   20.2860 C   0  0  0  0  0  2  0  0  0  0  0  0
  -24.9510  -31.0080   22.2370 N   0  0  0  0  0  0  0  0  0  0  0  0
  -23.5980  -32.0830   23.7270 O   0  0  0  0  0  0  0  0  0  0  0  0
  -23.0790  -29.3140   22.5680 C   0  0  0  0  0  0  0  0  0  0  0  0
  -21.7780  -29.0390   22.3610 N   0  0  0  0  0  0  0  0  0  0  0  0
  -23.7310  -28.7670   23.4600 O   0  0  0  0  0  0  0  0  0  0  0  0
  -21.2920  -29.5360   21.6250 H   0  0  0  0  0  0  0  0  0  0  0  0
  -18.4740  -27.5880   22.7060 C   0  0  0  0  0  0  0  0  0  0  0  0
  -20.9850  -28.0600   23.1130 C   0  0  0  0  0  3  0  0  0  0  0  0
  -21.2290  -26.6230   22.5970 C   0  0  0  0  0  2  0  0  0  0  0  0
  -20.2230  -26.1880   21.5270 C   0  0  0  0  0  2  0  0  0  0  0  0
  -18.7960  -26.2410   22.0810 C   0  0  0  0  0  2  0  0  0  0  0  0
  -19.5020  -28.4480   23.1780 C   0  0  0  0  0  0  0  0  0  0  0  0
  -19.1460  -29.7020   23.7200 C   0  0  0  0  0  3  0  0  0  0  0  0
  -17.7980  -30.1000   23.7950 C   0  0  0  0  0  3  0  0  0  0  0  0
  -16.7850  -29.2410   23.3370 C   0  0  0  0  0  3  0  0  0  0  0  0
  -17.1230  -27.9850   22.8000 C   0  0  0  0  0  3  0  0  0  0  0  0
  -25.9140  -32.6230   23.9720 C   0  0  0  0  0  3  0  0  0  0  0  0
  -26.4040  -31.9270   25.3020 C   0  0  1  0  0  0  0  0  0  0  0  0
  -25.2550  -31.5720   26.2740 C   0  0  0  0  0  1  0  0  0  0  0  0
  -27.1760  -30.6250   24.9980 C   0  0  0  0  0  1  0  0  0  0  0  0
  -27.3870  -32.8580   26.0490 C   0  0  0  0  0  1  0  0  0  0  0  0
  -25.4660  -33.9970   24.2550 N   0  0  0  0  0  0  0  0  0  0  0  0
  -25.7350  -35.0660   23.4920 C   0  0  0  0  0  0  0  0  0  0  0  0
  -26.4500  -35.0030   22.4880 O   0  0  0  0  0  0  0  0  0  0  0  0
  -24.8310  -34.1110   25.0340 H   0  0  0  0  0  0  0  0  0  0  0  0
  -23.8740  -36.7000   23.0490 C   0  0  0  0  0  1  0  0  0  0  0  0
  -25.1180  -36.4170   23.9050 C   0  0  0  0  0  3  0  0  0  0  0  0
  -27.1420  -37.4970   24.7800 C   0  0  0  0  0  1  0  0  0  0  0  0
  -26.0600  -37.5520   23.8020 N   0  0  0  0  0  0  0  0  0  0  0  0
  -25.5700  -38.4360   23.9200 H   0  0  0  0  0  0  0  0  0  0  0  0
  -26.1210  -19.0550   17.9420 C   0  0  0  0  0  1  0  0  0  0  0  0
  -27.5650  -18.5360   17.8690 C   0  0  0  0  0  2  0  0  0  0  0  0
  1  8  2  0
  2  7  1  0
  3  4  1  0
  3  2  1  0
  5  4  1  0
  5 22  1  0
  5  6  1  0
  7  1  1  0
  7  6  1  0
 10 16  1  0
 11  9  1  0
 11 16  1  0
 11 47  1  0
 12 93  1  0
 12 10  1  0
 13 14  1  0
 13 12  1  0
 13 15  1  0
 15  1  1  0
 15  9  1  0
 16 17  1  0
 18 16  1  0
 19 20  2  0
 20 39  1  0
 21 20  1  0
 21 24  1  0
 22 19  1  0
 22 23  1  0
 23 21  2  0
 24 25  1  0
 25 26  2  0
 27 30  1  0
 27 26  1  0
 28 27  2  0
 29 28  1  0
 29 24  2  0
 30 31  1  0
 31 32  1  0
 32 33  2  0
 34 33  1  0
 34 38  1  0
 35 34  2  0
 36 31  2  0
 36 35  1  0
 37 36  1  0
 39 40  1  0
 40 43  1  0
 40 42  1  0
 41 39  2  0
 44 45  1  0
 44 19  1  0
 46 44  1  0
 47 49  1  0
 47 48  2  0
 50 51  1  0
 50 49  1  0
 52 63  2  0
 53 51  1  0
 53 58  1  0
 54 62  1  0
 54 64  1  0
 55 57  1  0
 56 62  1  0
 57 58  2  0
 57 56  1  0
 59 53  2  0
 60 59  1  0
 60 55  2  0
 61 55  1  0
 61 54  1  0
 62 52  1  0
 64 66  2  0
 65 64  1  0
 67 65  1  0
 68 77  2  0
 68 73  1  0
 69 65  1  0
 69 73  1  0
 70 69  1  0
 71 72  1  0
 71 70  1  0
 72 68  1  0
 73 74  2  0
 74 75  1  0
 76 75  2  0
 77 76  1  0
 78 52  1  0
 78 83  1  0
 78 79  1  0
 79 82  1  1
 79 80  1  0
 81 79  1  0
 83 86  1  0
 84 88  1  0
 84 83  1  0
 85 84  2  0
 88 87  1  0
 90 88  1  0
 90 91  1  0
 90 89  1  0
 93 92  1  0
M  ISO  4   1 100  15 100  50 101  51 101
M  END
>  <TORSDO>  (57) 
F 19

>  <SCORE>  (57) 
-14.260

>  <name>  (57) 
57

>  <ligand_id>  (57) 
57

>  <original_smiles>  (57) 
[H]c1c([H])c([H])c2c(c1[H])C([H])([H])C([H])([H])C([H])([H])C2([H])N([H])C(=O)C1([H])N(C(=O)C([H])(N([H])C(=O)C([H])(N([H])C([H])([H])[H])C([H])([H])[H])C(C([H])([H])[H])(C([H])([H])[H])C([H])([H])[H])C([H])([H])c2c([H])c(OC([H])([H])C([H])([H])C(=O)C3([H])C([H])([H])N(C(=O)N4C([H])([H])C([H])([H])C([H])([H])C([H])(n5nc(-c6c([H])c([H])c(Oc7c([H])c([H])c(F)c([H])c7F)c([H])c6[H])c(C(=O)N([H])[H])c5N([H])[H])C4([H])[H])C([H])(C([H])([H])[H])C([H])(C([H])([H])C([H])([H])[H])C([H])([H])[N+]3([H])[H])c([H])c([H])c2C1([H])[H]

>  <smiles>  (57) 
[H]c1c([H])c([H])c2c(c1[H])C([H])([H])C([H])([H])C([H])([H])C2([H])N([H])C(=O)C1([H])N(C(=O)C([H])(N([H])C(=O)C([H])(N([H])C([H])([H])[H])C([H])([H])[H])C(C([H])([H])[H])(C([H])([H])[H])C([H])([H])[H])C([H])([H])c2c([H])c(OC([H])([H])C([H])([H])C(=O)C3([H])C([H])([H])N(C(=O)N4C([H])([H])C([H])([H])C([H])([H])C([H])(n5nc(-c6c([H])c([H])c(Oc7c([H])c([H])c(F)c([H])c7F)c([H])c6[H])c(C(=O)N([H])[H])c5N([H])[H])C4([H])[H])C([H])(C([H])([H])[H])C([H])(C([H])([H])C([H])([H])[H])C([H])([H])[N+]3([H])[H])c([H])c([H])c2C1([H])[H]

$$$$
58:0:0
     RDKit          3D

 88 96  0  0  1  0  0  0  0  0999 V2000
  -28.8710  -21.1520   20.6240 C   0  0  0  0  0  0  0  0  0  0  0  0
  -28.4140  -21.0850   21.7680 O   0  0  0  0  0  0  0  0  0  0  0  0
  -30.4800  -15.3760   20.2060 C   0  0  0  0  0  0  0  0  0  0  0  0
  -30.4170  -12.9390   19.3160 C   0  0  0  0  0  2  0  0  0  0  0  0
  -29.4900  -12.7000   18.0980 C   0  0  0  0  0  2  0  0  0  0  0  0
  -28.0530  -12.4100   18.5610 C   0  0  0  0  0  2  0  0  0  0  0  0
  -27.5950  -13.3830   19.6760 C   0  0  0  0  0  3  0  0  0  0  0  0
  -28.6530  -13.5830   20.7820 C   0  0  0  0  0  2  0  0  0  0  0  0
  -29.8660  -14.0920   20.1170 N   0  0  0  0  0  0  0  0  0  0  0  0
  -31.7130  -15.3000   20.0960 O   0  0  0  0  0  0  0  0  0  0  0  0
  -28.1700  -18.6280   19.6200 C   0  0  0  0  0  2  0  0  0  0  0  0
  -28.5920  -17.0850   19.4890 C   0  0  0  0  0  2  0  0  0  0  0  0
  -29.3480  -19.5820   19.9780 C   0  0  0  0  0  3  0  0  0  0  0  0
  -30.1690  -18.2360   20.6920 C   0  0  0  0  0  3  0  0  0  0  0  0
  -29.7990  -16.7160   20.2630 N   0  0  0  0  0  0  0  0  0  0  0  0
  -25.2280  -13.9200   20.4530 C   0  0  0  0  0  0  0  0  0  0  0  0
  -24.1760  -13.1350   20.8270 C   0  0  0  0  0  0  0  0  0  0  0  0
  -24.6560  -11.7900   20.7980 C   0  0  0  0  0  0  0  0  0  0  0  0
  -26.2770  -13.0560   20.2040 N   0  0  0  0  0  0  0  0  0  0  0  0
  -25.9470  -11.7680   20.4820 N   0  0  0  0  0  0  0  0  0  0  0  0
  -23.9420  -10.5220   20.9930 C   0  0  0  0  0  0  0  0  0  0  0  0
  -24.3770   -9.5650   21.9360 C   0  0  0  0  0  3  0  0  0  0  0  0
  -23.6570   -8.3650   22.1200 C   0  0  0  0  0  3  0  0  0  0  0  0
  -22.4900   -8.1120   21.3600 C   0  0  0  0  0  0  0  0  0  0  0  0
  -22.0750   -9.0580   20.4070 C   0  0  0  0  0  3  0  0  0  0  0  0
  -22.7950  -10.2500   20.2200 C   0  0  0  0  0  3  0  0  0  0  0  0
  -21.7430   -6.9620   21.4530 O   0  0  0  0  0  0  0  0  0  0  0  0
  -21.6890   -6.2320   22.6130 C   0  0  0  0  0  0  0  0  0  0  0  0
  -21.2360   -6.7940   23.8260 C   0  0  0  0  0  3  0  0  0  0  0  0
  -21.1300   -5.9890   24.9790 C   0  0  0  0  0  3  0  0  0  0  0  0
  -21.4660   -4.6230   24.9160 C   0  0  0  0  0  0  0  0  0  0  0  0
  -21.9130   -4.0610   23.7080 C   0  0  0  0  0  3  0  0  0  0  0  0
  -22.0200   -4.8630   22.5580 C   0  0  0  0  0  0  0  0  0  0  0  0
  -22.4310   -4.3130   21.3910 F   0  0  0  0  0  0  0  0  0  0  0  0
  -21.3570   -3.8470   26.0210 F   0  0  0  0  0  0  0  0  0  0  0  0
  -22.7740  -13.6010   21.0940 C   0  0  0  0  0  0  0  0  0  0  0  0
  -22.0500  -12.9020   21.9600 N   0  0  0  0  0  0  0  0  0  0  0  0
  -22.3310  -14.6220   20.5690 O   0  0  0  0  0  0  0  0  0  0  0  0
  -22.4230  -12.0770   22.4080 H   0  0  0  0  0  0  0  0  0  0  0  0
  -21.1100  -13.1960   22.1820 H   0  0  0  0  0  0  0  0  0  0  0  0
  -25.3670  -15.2930   20.2740 N   0  0  0  0  0  0  0  0  0  0  0  0
  -24.5900  -15.9320   20.4020 H   0  0  0  0  0  0  0  0  0  0  0  0
  -26.2070  -15.7500   19.9490 H   0  0  0  0  0  0  0  0  0  0  0  0
  -32.1380  -19.7430   21.4120 C   0  0  0  0  0  1  0  0  0  0  0  0
  -31.6960  -18.4440   20.7240 C   0  0  0  0  0  2  0  0  0  0  0  0
  -28.9010  -22.7890   19.9930 C   0  0  0  0  0  2  0  0  0  0  0  0
  -28.0310  -24.3100   20.4460 C   0  0  0  0  0  2  0  0  0  0  0  0
  -28.2340  -25.9380   20.2240 O   0  0  0  0  0  0  0  0  0  0  0  0
  -24.6260  -31.8900   23.2070 C   0  0  0  0  0  0  0  0  0  0  0  0
  -27.2000  -27.0130   20.2130 C   0  0  0  0  0  0  0  0  0  0  0  0
  -23.4330  -30.4810   21.5790 C   0  0  0  0  0  3  0  0  0  0  0  0
  -24.8860  -28.8750   20.1630 C   0  0  0  0  0  0  0  0  0  0  0  0
  -25.9990  -30.7070   21.4210 C   0  0  0  0  0  2  0  0  0  0  0  0
  -26.0740  -29.2930   20.7770 C   0  0  0  0  0  0  0  0  0  0  0  0
  -27.2270  -28.3850   20.7700 C   0  0  0  0  0  3  0  0  0  0  0  0
  -25.9780  -26.7440   19.5570 C   0  0  0  0  0  3  0  0  0  0  0  0
  -24.8620  -27.6210   19.5330 C   0  0  0  0  0  3  0  0  0  0  0  0
  -23.6630  -29.7910   20.2060 C   0  0  0  0  0  2  0  0  0  0  0  0
  -24.7070  -31.0530   22.1220 N   0  0  0  0  0  0  0  0  0  0  0  0
  -23.5360  -32.1760   23.7310 O   0  0  0  0  0  0  0  0  0  0  0  0
  -22.7470  -29.4860   22.5510 C   0  0  0  0  0  0  0  0  0  0  0  0
  -21.4160  -29.3170   22.4330 N   0  0  0  0  0  0  0  0  0  0  0  0
  -23.4190  -28.8660   23.3800 O   0  0  0  0  0  0  0  0  0  0  0  0
  -20.9280  -29.8690   21.7410 H   0  0  0  0  0  0  0  0  0  0  0  0
  -18.0400  -28.0970   22.9590 C   0  0  0  0  0  0  0  0  0  0  0  0
  -20.6010  -28.3790   23.2110 C   0  0  0  0  0  3  0  0  0  0  0  0
  -20.7060  -26.9450   22.6420 C   0  0  0  0  0  2  0  0  0  0  0  0
  -19.6010  -26.6120   21.6340 C   0  0  0  0  0  2  0  0  0  0  0  0
  -18.2220  -26.7490   22.2840 C   0  0  0  0  0  2  0  0  0  0  0  0
  -19.1560  -28.8690   23.3810 C   0  0  0  0  0  0  0  0  0  0  0  0
  -18.9290  -30.1290   23.9780 C   0  0  0  0  0  3  0  0  0  0  0  0
  -17.6210  -30.6170   24.1540 C   0  0  0  0  0  3  0  0  0  0  0  0
  -16.5210  -29.8440   23.7460 C   0  0  0  0  0  3  0  0  0  0  0  0
  -16.7310  -28.5860   23.1550 C   0  0  0  0  0  3  0  0  0  0  0  0
  -25.8950  -32.5420   23.8340 C   0  0  0  0  0  3  0  0  0  0  0  0
  -26.4020  -31.7880   25.1270 C   0  0  1  0  0  0  0  0  0  0  0  0
  -25.3020  -31.5660   26.1930 C   0  0  0  0  0  1  0  0  0  0  0  0
  -26.9870  -30.4050   24.7660 C   0  0  0  0  0  1  0  0  0  0  0  0
  -27.5480  -32.5930   25.7850 C   0  0  0  0  0  1  0  0  0  0  0  0
  -25.5720  -33.9420   24.1580 N   0  0  0  0  0  0  0  0  0  0  0  0
  -25.9070  -35.0010   23.4070 C   0  0  0  0  0  0  0  0  0  0  0  0
  -26.5810  -34.9010   22.3790 O   0  0  0  0  0  0  0  0  0  0  0  0
  -24.9730  -34.0940   24.9560 H   0  0  0  0  0  0  0  0  0  0  0  0
  -24.1830  -36.8040   23.0520 C   0  0  0  0  0  1  0  0  0  0  0  0
  -25.4190  -36.3910   23.8670 C   0  0  0  0  0  3  0  0  0  0  0  0
  -27.5490  -37.2760   24.7140 C   0  0  0  0  0  1  0  0  0  0  0  0
  -26.4540  -37.4440   23.7620 N   0  0  0  0  0  0  0  0  0  0  0  0
  -26.0480  -38.3650   23.9040 H   0  0  0  0  0  0  0  0  0  0  0  0
  1  2  2  0
  3 15  1  0
  4  9  1  0
  5  6  1  0
  5  4  1  0
  7  6  1  0
  7 19  1  0
  7  8  1  0
  9  3  1  0
  9  8  1  0
 10  3  2  0
 11 13  1  0
 12 11  1  0
 12 15  1  0
 13  1  1  0
 13 14  1  0
 14 45  1  0
 15 14  1  0
 16 17  2  0
 17 36  1  0
 18 17  1  0
 18 21  1  0
 19 16  1  0
 19 20  1  0
 20 18  2  0
 21 22  1  0
 22 23  2  0
 24 27  1  0
 24 23  1  0
 25 24  2  0
 26 25  1  0
 26 21  2  0
 27 28  1  0
 28 29  1  0
 29 30  2  0
 31 30  1  0
 31 35  1  0
 32 31  2  0
 33 28  2  0
 33 32  1  0
 34 33  1  0
 36 37  1  0
 37 40  1  0
 37 39  1  0
 38 36  2  0
 41 42  1  0
 41 16  1  0
 43 41  1  0
 45 44  1  0
 46 47  1  0
 46  1  1  0
 48 47  1  0
 49 60  2  0
 50 48  1  0
 50 55  1  0
 51 59  1  0
 51 61  1  0
 52 58  1  0
 52 54  1  0
 53 59  1  0
 54 53  1  0
 55 54  2  0
 56 50  2  0
 57 56  1  0
 57 52  2  0
 58 51  1  0
 59 49  1  0
 61 63  2  0
 62 61  1  0
 64 62  1  0
 65 74  2  0
 65 70  1  0
 66 62  1  0
 66 70  1  0
 67 66  1  0
 68 69  1  0
 68 67  1  0
 69 65  1  0
 70 71  2  0
 71 72  1  0
 73 72  2  0
 74 73  1  0
 75 49  1  0
 75 80  1  0
 75 76  1  0
 76 79  1  1
 76 77  1  0
 78 76  1  0
 80 83  1  0
 81 85  1  0
 81 80  1  0
 82 81  2  0
 85 84  1  0
 87 85  1  0
 87 88  1  0
 87 86  1  0
M  ISO  4   3 100  15 100  47 101  48 101
M  END
>  <TORSDO>  (58) 
F 19

>  <SCORE>  (58) 
-16.362

>  <name>  (58) 
58

>  <ligand_id>  (58) 
58

>  <original_smiles>  (58) 
[H]c1c([H])c([H])c2c(c1[H])C([H])([H])C([H])([H])C([H])([H])C2([H])N([H])C(=O)C1([H])N(C(=O)C([H])(N([H])C(=O)C([H])(N([H])C([H])([H])[H])C([H])([H])[H])C(C([H])([H])[H])(C([H])([H])[H])C([H])([H])[H])C([H])([H])c2c([H])c(OC([H])([H])C([H])([H])C(=O)C3([H])C([H])([H])C([H])([H])N(C(=O)N4C([H])([H])C([H])([H])C([H])([H])C([H])(n5nc(-c6c([H])c([H])c(Oc7c([H])c([H])c(F)c([H])c7F)c([H])c6[H])c(C(=O)N([H])[H])c5N([H])[H])C4([H])[H])C3([H])C([H])([H])C([H])([H])[H])c([H])c([H])c2C1([H])[H]

>  <smiles>  (58) 
[H]c1c([H])c([H])c2c(c1[H])C([H])([H])C([H])([H])C([H])([H])C2([H])N([H])C(=O)C1([H])N(C(=O)C([H])(N([H])C(=O)C([H])(N([H])C([H])([H])[H])C([H])([H])[H])C(C([H])([H])[H])(C([H])([H])[H])C([H])([H])[H])C([H])([H])c2c([H])c(OC([H])([H])C([H])([H])C(=O)C3([H])C([H])([H])C([H])([H])N(C(=O)N4C([H])([H])C([H])([H])C([H])([H])C([H])(n5nc(-c6c([H])c([H])c(Oc7c([H])c([H])c(F)c([H])c7F)c([H])c6[H])c(C(=O)N([H])[H])c5N([H])[H])C4([H])[H])C3([H])C([H])([H])C([H])([H])[H])c([H])c([H])c2C1([H])[H]

$$$$
59:0:0
     RDKit          3D

 95103  0  0  1  0  0  0  0  0999 V2000
  -29.1530  -19.7970   20.9270 N   0  0  0  0  0  4  0  0  0  0  0  0
  -29.9500  -19.9930   21.5080 H   0  0  0  0  0  0  0  0  0  0  0  0
  -28.3510  -19.7820   21.5370 H   0  0  0  0  0  0  0  0  0  0  0  0
  -30.8820  -14.8990   21.0710 C   0  0  0  0  0  0  0  0  0  0  0  0
  -30.7890  -12.5490   20.2580 C   0  0  0  0  0  2  0  0  0  0  0  0
  -30.0180  -12.5130   18.9240 C   0  0  0  0  0  2  0  0  0  0  0  0
  -28.5090  -12.3410   19.1840 C   0  0  0  0  0  2  0  0  0  0  0  0
  -27.9710  -13.3190   20.2650 C   0  0  0  0  0  3  0  0  0  0  0  0
  -28.8850  -13.3830   21.5050 C   0  0  0  0  0  2  0  0  0  0  0  0
  -30.2400  -13.6860   21.0290 N   0  0  0  0  0  0  0  0  0  0  0  0
  -32.1130  -14.9280   21.1330 O   0  0  0  0  0  0  0  0  0  0  0  0
  -29.8110  -17.2260   21.3750 C   0  0  0  0  0  2  0  0  0  0  0  0
  -30.2230  -18.1110   19.2320 C   0  0  0  0  0  3  0  0  0  0  0  0
  -29.2770  -18.3580   20.4010 C   0  0  0  0  0  3  0  0  0  0  0  0
  -30.3960  -16.5550   19.1780 C   0  0  0  0  0  3  0  0  0  0  0  0
  -30.2120  -16.0150   20.5730 N   0  0  0  0  0  0  0  0  0  0  0  0
  -25.5150  -13.9060   20.6870 C   0  0  0  0  0  0  0  0  0  0  0  0
  -24.4150  -13.1350   20.9540 C   0  0  0  0  0  0  0  0  0  0  0  0
  -24.8880  -11.7890   21.0310 C   0  0  0  0  0  0  0  0  0  0  0  0
  -26.5840  -13.0310   20.6120 N   0  0  0  0  0  0  0  0  0  0  0  0
  -26.2080  -11.7540   20.8860 N   0  0  0  0  0  0  0  0  0  0  0  0
  -24.1530  -10.5230   21.1710 C   0  0  0  0  0  0  0  0  0  0  0  0
  -24.5080   -9.5710   22.1510 C   0  0  0  0  0  3  0  0  0  0  0  0
  -23.7740   -8.3720   22.2830 C   0  0  0  0  0  3  0  0  0  0  0  0
  -22.6700   -8.1200   21.4340 C   0  0  0  0  0  0  0  0  0  0  0  0
  -22.3320   -9.0620   20.4450 C   0  0  0  0  0  3  0  0  0  0  0  0
  -23.0680  -10.2520   20.3130 C   0  0  0  0  0  3  0  0  0  0  0  0
  -21.9140   -6.9730   21.4740 O   0  0  0  0  0  0  0  0  0  0  0  0
  -21.7720   -6.2430   22.6250 C   0  0  0  0  0  0  0  0  0  0  0  0
  -21.2200   -6.8000   23.8000 C   0  0  0  0  0  3  0  0  0  0  0  0
  -21.0320   -5.9930   24.9410 C   0  0  0  0  0  3  0  0  0  0  0  0
  -21.3810   -4.6300   24.9040 C   0  0  0  0  0  0  0  0  0  0  0  0
  -21.9250   -4.0720   23.7350 C   0  0  0  0  0  3  0  0  0  0  0  0
  -22.1160   -4.8760   22.5960 C   0  0  0  0  0  0  0  0  0  0  0  0
  -22.6190   -4.3280   21.4640 F   0  0  0  0  0  0  0  0  0  0  0  0
  -21.1920   -3.8530   25.9970 F   0  0  0  0  0  0  0  0  0  0  0  0
  -22.9930  -13.6080   21.0320 C   0  0  0  0  0  0  0  0  0  0  0  0
  -22.1770  -12.9510   21.8500 N   0  0  0  0  0  0  0  0  0  0  0  0
  -22.6090  -14.5910   20.3980 O   0  0  0  0  0  0  0  0  0  0  0  0
  -22.4970  -12.1560   22.3840 H   0  0  0  0  0  0  0  0  0  0  0  0
  -21.2180  -13.2480   21.9450 H   0  0  0  0  0  0  0  0  0  0  0  0
  -25.7000  -15.2680   20.4780 N   0  0  0  0  0  0  0  0  0  0  0  0
  -24.9300  -15.9300   20.4690 H   0  0  0  0  0  0  0  0  0  0  0  0
  -26.5930  -15.6910   20.2660 H   0  0  0  0  0  0  0  0  0  0  0  0
  -29.6720  -18.6140   17.9850 N   0  0  0  0  0  0  0  0  0  0  0  0
  -28.7990  -18.1450   17.7690 H   0  0  0  0  0  0  0  0  0  0  0  0
  -30.2930  -18.3390   17.2300 H   0  0  0  0  0  0  0  0  0  0  0  0
  -31.5270  -16.2690   16.8320 C   0  0  0  0  0  1  0  0  0  0  0  0
  -32.9890  -16.7820   18.8170 C   0  0  0  0  0  1  0  0  0  0  0  0
  -31.6740  -16.1060   18.3650 C   0  0  0  0  0  3  0  0  0  0  0  0
  -28.9570  -20.9970   19.9900 C   0  0  0  0  0  3  0  0  0  0  0  0
  -28.5270  -22.4060   20.6560 C   0  0  0  0  0  3  0  0  0  0  0  0
  -28.4990  -23.7760   19.8000 C   0  0  0  0  0  3  0  0  0  0  0  0
  -28.0090  -25.1300   20.5180 C   0  0  0  0  0  3  0  0  0  0  0  0
  -28.1810  -26.4750   19.8930 O   0  0  0  0  0  0  0  0  0  0  0  0
  -24.5650  -31.8680   23.1070 C   0  0  0  0  0  0  0  0  0  0  0  0
  -27.0870  -27.3510   19.9170 C   0  0  0  0  0  0  0  0  0  0  0  0
  -23.3250  -30.4980   21.4720 C   0  0  0  0  0  3  0  0  0  0  0  0
  -24.7390  -28.9740   19.9870 C   0  0  0  0  0  0  0  0  0  0  0  0
  -25.8620  -30.8180   21.2360 C   0  0  0  0  0  2  0  0  0  0  0  0
  -25.9250  -29.4520   20.5590 C   0  0  0  0  0  0  0  0  0  0  0  0
  -27.1070  -28.6550   20.5060 C   0  0  0  0  0  3  0  0  0  0  0  0
  -25.8830  -26.9250   19.3230 C   0  0  0  0  0  3  0  0  0  0  0  0
  -24.7200  -27.7170   19.3620 C   0  0  0  0  0  3  0  0  0  0  0  0
  -23.5060  -29.8470   20.0770 C   0  0  0  0  0  2  0  0  0  0  0  0
  -24.6050  -31.0790   21.9950 N   0  0  0  0  0  0  0  0  0  0  0  0
  -23.4910  -32.1330   23.6690 O   0  0  0  0  0  0  0  0  0  0  0  0
  -22.6820  -29.4630   22.4290 C   0  0  0  0  0  0  0  0  0  0  0  0
  -21.3530  -29.2920   22.3290 N   0  0  0  0  0  0  0  0  0  0  0  0
  -23.3800  -28.8210   23.2170 O   0  0  0  0  0  0  0  0  0  0  0  0
  -20.8550  -29.8620   21.6620 H   0  0  0  0  0  0  0  0  0  0  0  0
  -17.9820  -28.1100   22.9020 C   0  0  0  0  0  0  0  0  0  0  0  0
  -20.5490  -28.3430   23.1010 C   0  0  0  0  0  3  0  0  0  0  0  0
  -20.6230  -26.9230   22.4920 C   0  0  0  0  0  2  0  0  0  0  0  0
  -19.4890  -26.6320   21.5040 C   0  0  0  0  0  2  0  0  0  0  0  0
  -18.1290  -26.7750   22.1900 C   0  0  0  0  0  2  0  0  0  0  0  0
  -19.1190  -28.8530   23.3160 C   0  0  0  0  0  0  0  0  0  0  0  0
  -18.9280  -30.1050   23.9420 C   0  0  0  0  0  3  0  0  0  0  0  0
  -17.6320  -30.6130   24.1550 C   0  0  0  0  0  3  0  0  0  0  0  0
  -16.5120  -29.8640   23.7640 C   0  0  0  0  0  3  0  0  0  0  0  0
  -16.6860  -28.6140   23.1430 C   0  0  0  0  0  3  0  0  0  0  0  0
  -25.8590  -32.4940   23.7120 C   0  0  0  0  0  3  0  0  0  0  0  0
  -25.5550  -33.8850   24.0750 N   0  0  0  0  0  0  0  0  0  0  0  0
  -25.8860  -34.9520   23.3350 C   0  0  0  0  0  0  0  0  0  0  0  0
  -26.5450  -34.8690   22.2980 O   0  0  0  0  0  0  0  0  0  0  0  0
  -24.9650  -34.0240   24.8820 H   0  0  0  0  0  0  0  0  0  0  0  0
  -24.1720  -36.7690   23.0180 C   0  0  0  0  0  1  0  0  0  0  0  0
  -25.4050  -36.3350   23.8280 C   0  0  0  0  0  3  0  0  0  0  0  0
  -27.5390  -37.1810   24.6970 C   0  0  0  0  0  1  0  0  0  0  0  0
  -26.4470  -37.3820   23.7480 N   0  0  0  0  0  0  0  0  0  0  0  0
  -26.0490  -38.3030   23.9120 H   0  0  0  0  0  0  0  0  0  0  0  0
  -26.4040  -31.7020   24.9630 C   0  0  1  0  0  0  0  0  0  0  0  0
  -25.3340  -31.4450   26.0530 C   0  0  0  0  0  1  0  0  0  0  0  0
  -26.9770  -30.3300   24.5410 C   0  0  0  0  0  1  0  0  0  0  0  0
  -27.5760  -32.4800   25.6030 C   0  0  0  0  0  1  0  0  0  0  0  0
  1  2  1  0
  1  3  1  0
  4 11  2  0
  5 10  1  0
  6  7  1  0
  6  5  1  0
  8  7  1  0
  8 20  1  0
  8  9  1  0
 10  4  1  0
 10  9  1  0
 13 45  1  0
 13 14  1  0
 14  1  1  0
 14 12  1  0
 15 50  1  0
 15 13  1  0
 15 16  1  0
 16  4  1  0
 16 12  1  0
 17 18  2  0
 18 19  1  0
 18 37  1  0
 19 22  1  0
 20 17  1  0
 20 21  1  0
 21 19  2  0
 22 23  1  0
 23 24  2  0
 25 28  1  0
 25 24  1  0
 26 25  2  0
 27 26  1  0
 27 22  2  0
 28 29  1  0
 29 30  1  0
 30 31  2  0
 32 31  1  0
 32 36  1  0
 33 32  2  0
 34 29  2  0
 34 33  1  0
 35 34  1  0
 37 38  1  0
 38 41  1  0
 38 40  1  0
 39 37  2  0
 42 17  1  0
 43 42  1  0
 44 42  1  0
 46 45  1  0
 47 45  1  0
 48 50  1  0
 50 49  1  0
 51 52  2  0
 51  1  1  0
 53 54  2  0
 53 52  1  0
 55 57  1  0
 55 54  1  0
 56 67  2  0
 57 62  1  0
 58 66  1  0
 58 68  1  0
 59 65  1  0
 59 61  1  0
 60 66  1  0
 61 60  1  0
 62 61  2  0
 63 64  1  0
 63 57  2  0
 64 59  2  0
 65 58  1  0
 66 56  1  0
 68 70  2  0
 69 68  1  0
 71 69  1  0
 72 81  2  0
 72 77  1  0
 73 69  1  0
 73 77  1  0
 74 73  1  0
 75 76  1  0
 75 74  1  0
 76 72  1  0
 77 78  2  0
 78 79  1  0
 80 79  2  0
 81 80  1  0
 82 56  1  0
 82 83  1  0
 82 92  1  0
 83 86  1  0
 84 88  1  0
 84 83  1  0
 85 84  2  0
 88 87  1  0
 90 88  1  0
 90 91  1  0
 90 89  1  0
 92 95  1  1
 92 93  1  0
 94 92  1  0
M  ISO  4   4 100  16 100  54 101  55 101
M  END
>  <TORSDO>  (59) 
F 22

>  <SCORE>  (59) 
-12.801

>  <name>  (59) 
59

>  <ligand_id>  (59) 
59

>  <original_smiles>  (59) 
[H]c1c([H])c([H])c2c(c1[H])C([H])([H])C([H])([H])C([H])([H])C2([H])N([H])C(=O)C1([H])N(C(=O)C([H])(N([H])C(=O)C([H])(N([H])C([H])([H])[H])C([H])([H])[H])C(C([H])([H])[H])(C([H])([H])[H])C([H])([H])[H])C([H])([H])c2c([H])c(OC([H])([H])C([H])([H])C([H])([H])C([H])([H])[N+]([H])([H])C3([H])C([H])([H])N(C(=O)N4C([H])([H])C([H])([H])C([H])([H])C([H])(n5nc(-c6c([H])c([H])c(Oc7c([H])c([H])c(F)c([H])c7F)c([H])c6[H])c(C(=O)N([H])[H])c5N([H])[H])C4([H])[H])C([H])(C([H])(C([H])([H])[H])C([H])([H])[H])C3([H])N([H])[H])c([H])c([H])c2C1([H])[H]

>  <smiles>  (59) 
[H]c1c([H])c([H])c2c(c1[H])C([H])([H])C([H])([H])C([H])([H])C2([H])N([H])C(=O)C1([H])N(C(=O)C([H])(N([H])C(=O)C([H])(N([H])C([H])([H])[H])C([H])([H])[H])C(C([H])([H])[H])(C([H])([H])[H])C([H])([H])[H])C([H])([H])c2c([H])c(OC([H])([H])C([H])([H])C([H])([H])C([H])([H])[N+]([H])([H])C3([H])C([H])([H])N(C(=O)N4C([H])([H])C([H])([H])C([H])([H])C([H])(n5nc(-c6c([H])c([H])c(Oc7c([H])c([H])c(F)c([H])c7F)c([H])c6[H])c(C(=O)N([H])[H])c5N([H])[H])C4([H])[H])C([H])(C([H])(C([H])([H])[H])C([H])([H])[H])C3([H])N([H])[H])c([H])c([H])c2C1([H])[H]

$$$$
60:0:0
     RDKit          3D

 96104  0  0  1  0  0  0  0  0999 V2000
  -31.7390  -18.9470   21.5510 C   0  0  0  0  0  2  0  0  0  0  0  0
  -29.7470  -17.9800   20.2960 C   0  0  0  0  0  2  0  0  0  0  0  0
  -32.0260  -20.2630   20.8010 C   0  0  0  0  0  2  0  0  0  0  0  0
  -30.5370  -20.0430   18.8650 C   0  0  0  0  0  2  0  0  0  0  0  0
  -31.2240  -17.7530   20.7040 C   0  0  0  0  0  3  0  0  0  0  0  0
  -29.4900  -18.9230   19.0890 C   0  0  0  0  0  3  0  0  0  0  0  0
  -30.8410  -20.8230   20.0960 N   0  0  2  0  0  4  0  0  0  0  0  0
  -30.0580  -20.7150   20.7220 H   0  0  0  0  0  0  0  0  0  0  0  0
  -26.9550  -18.4440   18.9150 C   0  0  0  0  0  1  0  0  0  0  0  0
  -28.0550  -19.4980   19.1090 C   0  0  0  0  0  2  0  0  0  0  0  0
  -30.9690  -22.2940   19.8670 C   0  0  0  0  0  2  0  0  0  0  0  0
  -29.6170  -23.0460   19.8090 C   0  0  0  0  0  2  0  0  0  0  0  0
  -29.7470  -24.5850   19.8830 C   0  0  0  0  0  2  0  0  0  0  0  0
  -28.3920  -25.2810   19.6760 C   0  0  0  0  0  2  0  0  0  0  0  0
  -28.4700  -26.7050   19.8200 O   0  0  0  0  0  0  0  0  0  0  0  0
  -24.4780  -31.6630   23.0130 C   0  0  0  0  0  0  0  0  0  0  0  0
  -27.2670  -27.3890   19.8200 C   0  0  0  0  0  0  0  0  0  0  0  0
  -23.3200  -30.2710   21.3310 C   0  0  0  0  0  3  0  0  0  0  0  0
  -24.8230  -28.8210   19.8710 C   0  0  0  0  0  0  0  0  0  0  0  0
  -25.8350  -30.7110   21.1530 C   0  0  0  0  0  2  0  0  0  0  0  0
  -25.9650  -29.3630   20.4740 C   0  0  0  0  0  0  0  0  0  0  0  0
  -27.1890  -28.6560   20.4430 C   0  0  0  0  0  3  0  0  0  0  0  0
  -26.1000  -26.8640   19.2140 C   0  0  0  0  0  3  0  0  0  0  0  0
  -24.8850  -27.5700   19.2400 C   0  0  0  0  0  3  0  0  0  0  0  0
  -23.5540  -29.6370   19.9340 C   0  0  0  0  0  2  0  0  0  0  0  0
  -24.5620  -30.8950   21.8910 N   0  0  0  0  0  0  0  0  0  0  0  0
  -23.3870  -31.8870   23.5560 O   0  0  0  0  0  0  0  0  0  0  0  0
  -22.7000  -29.2020   22.2590 C   0  0  0  0  0  0  0  0  0  0  0  0
  -21.3730  -29.0140   22.1530 N   0  0  0  0  0  0  0  0  0  0  0  0
  -23.4060  -28.5460   23.0300 O   0  0  0  0  0  0  0  0  0  0  0  0
  -20.8640  -29.5990   21.5050 H   0  0  0  0  0  0  0  0  0  0  0  0
  -18.0140  -27.8000   22.6970 C   0  0  0  0  0  0  0  0  0  0  0  0
  -20.5800  -28.0390   22.9000 C   0  0  0  0  0  3  0  0  0  0  0  0
  -20.6590  -26.6400   22.2480 C   0  0  0  0  0  2  0  0  0  0  0  0
  -19.5250  -26.3720   21.2540 C   0  0  0  0  0  2  0  0  0  0  0  0
  -18.1650  -26.4880   21.9480 C   0  0  0  0  0  2  0  0  0  0  0  0
  -19.1490  -28.5370   23.1310 C   0  0  0  0  0  0  0  0  0  0  0  0
  -18.9540  -29.7700   23.7900 C   0  0  0  0  0  3  0  0  0  0  0  0
  -17.6570  -30.2650   24.0220 C   0  0  0  0  0  3  0  0  0  0  0  0
  -16.5370  -29.5240   23.6060 C   0  0  0  0  0  3  0  0  0  0  0  0
  -16.7170  -28.2940   22.9500 C   0  0  0  0  0  3  0  0  0  0  0  0
  -25.7420  -32.3170   23.6550 C   0  0  0  0  0  3  0  0  0  0  0  0
  -25.3850  -33.6890   24.0360 N   0  0  0  0  0  0  0  0  0  0  0  0
  -25.7210  -34.7830   23.3390 C   0  0  0  0  0  0  0  0  0  0  0  0
  -26.4370  -34.7440   22.3350 O   0  0  0  0  0  0  0  0  0  0  0  0
  -24.7560  -33.7930   24.8180 H   0  0  0  0  0  0  0  0  0  0  0  0
  -23.9580  -36.5420   22.9950 C   0  0  0  0  0  1  0  0  0  0  0  0
  -25.1770  -36.1360   23.8380 C   0  0  0  0  0  3  0  0  0  0  0  0
  -27.2520  -37.0390   24.7920 C   0  0  0  0  0  1  0  0  0  0  0  0
  -26.1820  -37.2210   23.8140 N   0  0  0  0  0  0  0  0  0  0  0  0
  -25.7430  -38.1210   23.9890 H   0  0  0  0  0  0  0  0  0  0  0  0
  -26.2920  -31.5160   24.8980 C   0  0  1  0  0  0  0  0  0  0  0  0
  -25.2130  -31.1980   25.9580 C   0  0  0  0  0  1  0  0  0  0  0  0
  -26.9230  -30.1780   24.4500 C   0  0  0  0  0  1  0  0  0  0  0  0
  -27.4150  -32.3270   25.5870 C   0  0  0  0  0  1  0  0  0  0  0  0
  -31.4450  -16.4070   21.4670 C   0  0  0  0  0  3  0  0  0  0  0  0
  -31.0610  -14.5340   19.8410 C   0  0  0  0  0  0  0  0  0  0  0  0
  -30.5320  -12.5200   18.5110 C   0  0  0  0  0  2  0  0  0  0  0  0
  -29.4730  -12.8240   17.4350 C   0  0  0  0  0  2  0  0  0  0  0  0
  -28.0510  -12.6820   18.0120 C   0  0  0  0  0  2  0  0  0  0  0  0
  -27.8730  -13.4480   19.3490 C   0  0  0  0  0  3  0  0  0  0  0  0
  -29.0250  -13.1220   20.3230 C   0  0  0  0  0  2  0  0  0  0  0  0
  -30.3010  -13.4250   19.6470 N   0  0  0  0  0  0  0  0  0  0  0  0
  -32.0400  -14.8160   19.1420 O   0  0  0  0  0  0  0  0  0  0  0  0
  -30.6910  -15.2990   20.8750 N   0  0  0  0  0  0  0  0  0  0  0  0
  -29.8700  -14.9950   21.3750 H   0  0  0  0  0  0  0  0  0  0  0  0
  -25.5780  -14.0690   20.3410 C   0  0  0  0  0  0  0  0  0  0  0  0
  -24.5300  -13.3020   20.7710 C   0  0  0  0  0  0  0  0  0  0  0  0
  -24.9420  -11.9430   20.6060 C   0  0  0  0  0  0  0  0  0  0  0  0
  -26.5660  -13.1800   19.9470 N   0  0  0  0  0  0  0  0  0  0  0  0
  -26.1910  -11.8920   20.1600 N   0  0  0  0  0  0  0  0  0  0  0  0
  -24.2000  -10.6900   20.7920 C   0  0  0  0  0  0  0  0  0  0  0  0
  -24.6260   -9.7110   21.7170 C   0  0  0  0  0  3  0  0  0  0  0  0
  -23.8860   -8.5210   21.8900 C   0  0  0  0  0  3  0  0  0  0  0  0
  -22.7070   -8.3030   21.1400 C   0  0  0  0  0  0  0  0  0  0  0  0
  -22.3000   -9.2700   20.2040 C   0  0  0  0  0  3  0  0  0  0  0  0
  -23.0410  -10.4510   20.0280 C   0  0  0  0  0  3  0  0  0  0  0  0
  -21.9390   -7.1660   21.2230 O   0  0  0  0  0  0  0  0  0  0  0  0
  -21.7700   -6.4960   22.4080 C   0  0  0  0  0  0  0  0  0  0  0  0
  -21.2330   -7.1280   23.5510 C   0  0  0  0  0  3  0  0  0  0  0  0
  -21.0120   -6.3840   24.7270 C   0  0  0  0  0  3  0  0  0  0  0  0
  -21.3190   -5.0100   24.7600 C   0  0  0  0  0  0  0  0  0  0  0  0
  -21.8490   -4.3790   23.6230 C   0  0  0  0  0  3  0  0  0  0  0  0
  -22.0710   -5.1200   22.4480 C   0  0  0  0  0  0  0  0  0  0  0  0
  -22.5630   -4.5020   21.3470 F   0  0  0  0  0  0  0  0  0  0  0  0
  -21.1000   -4.2940   25.8870 F   0  0  0  0  0  0  0  0  0  0  0  0
  -23.1850  -13.7940   21.2210 C   0  0  0  0  0  0  0  0  0  0  0  0
  -22.5390  -13.0690   22.1290 N   0  0  0  0  0  0  0  0  0  0  0  0
  -22.7190  -14.8550   20.8070 O   0  0  0  0  0  0  0  0  0  0  0  0
  -22.9290  -12.2090   22.4840 H   0  0  0  0  0  0  0  0  0  0  0  0
  -21.6420  -13.3790   22.4730 H   0  0  0  0  0  0  0  0  0  0  0  0
  -25.7680  -15.4430   20.2340 N   0  0  0  0  0  0  0  0  0  0  0  0
  -25.0440  -16.1110   20.4690 H   0  0  0  0  0  0  0  0  0  0  0  0
  -26.6040  -15.8780   19.8650 H   0  0  0  0  0  0  0  0  0  0  0  0
  -31.6000  -15.2480   23.7700 C   0  0  0  0  0  1  0  0  0  0  0  0
  -31.1240  -16.4780   22.9780 C   0  0  0  0  0  2  0  0  0  0  0  0
  2  5  1  0
  3  1  1  0
  4  6  1  0
  4  7  1  0
  5 56  1  0
  5  1  1  0
  6 10  1  0
  6  2  1  0
  7  8  1  1
  7  3  1  0
  9 10  1  0
 11  7  1  0
 12 11  1  0
 12 13  1  0
 14 15  1  0
 14 13  1  0
 15 17  1  0
 16 27  2  0
 17 22  1  0
 18 26  1  0
 18 28  1  0
 19 25  1  0
 19 21  1  0
 20 26  1  0
 21 20  1  0
 22 21  2  0
 23 24  1  0
 23 17  2  0
 24 19  2  0
 25 18  1  0
 26 16  1  0
 28 30  2  0
 29 28  1  0
 31 29  1  0
 32 41  2  0
 32 37  1  0
 33 29  1  0
 33 37  1  0
 34 33  1  0
 35 36  1  0
 35 34  1  0
 36 32  1  0
 37 38  2  0
 38 39  1  0
 40 39  2  0
 41 40  1  0
 42 16  1  0
 42 43  1  0
 42 52  1  0
 43 46  1  0
 44 48  1  0
 44 43  1  0
 45 44  2  0
 48 47  1  0
 50 48  1  0
 50 51  1  0
 50 49  1  0
 52 55  1  1
 52 53  1  0
 54 52  1  0
 56 96  1  0
 57 65  1  0
 58 63  1  0
 59 60  1  0
 59 58  1  0
 61 60  1  0
 61 70  1  0
 61 62  1  0
 63 57  1  0
 63 62  1  0
 64 57  2  0
 65 66  1  0
 65 56  1  0
 67 68  2  0
 68 87  1  0
 69 68  1  0
 69 72  1  0
 70 71  1  0
 70 67  1  0
 71 69  2  0
 72 73  1  0
 73 74  2  0
 75 78  1  0
 75 74  1  0
 76 75  2  0
 77 76  1  0
 77 72  2  0
 78 79  1  0
 79 84  2  0
 79 80  1  0
 80 81  2  0
 81 82  1  0
 82 86  1  0
 83 82  2  0
 84 83  1  0
 85 84  1  0
 87 88  1  0
 88 91  1  0
 88 90  1  0
 89 87  2  0
 92 67  1  0
 92 93  1  0
 94 92  1  0
 96 95  1  0
M  ISO  4  14 101  15 101  57 100  65 100
M  END
>  <TORSDO>  (60) 
F 23

>  <SCORE>  (60) 
-7.924

>  <name>  (60) 
60

>  <ligand_id>  (60) 
60

>  <original_smiles>  (60) 
[H]c1c([H])c([H])c2c(c1[H])C([H])([H])C([H])([H])C([H])([H])C2([H])N([H])C(=O)C1([H])N(C(=O)C([H])(N([H])C(=O)C([H])(N([H])C([H])([H])[H])C([H])([H])[H])C(C([H])([H])[H])(C([H])([H])[H])C([H])([H])[H])C([H])([H])c2c([H])c(OC([H])([H])C([H])([H])C([H])([H])C([H])([H])[N+]3([H])C([H])([H])C([H])([H])C([H])(C([H])(N([H])C(=O)N4C([H])([H])C([H])([H])C([H])([H])C([H])(n5nc(-c6c([H])c([H])c(Oc7c([H])c([H])c(F)c([H])c7F)c([H])c6[H])c(C(=O)N([H])[H])c5N([H])[H])C4([H])[H])C([H])([H])C([H])([H])[H])C([H])([H])C([H])(C([H])([H])C([H])([H])[H])C3([H])[H])c([H])c([H])c2C1([H])[H]

>  <smiles>  (60) 
[H]c1c([H])c([H])c2c(c1[H])C([H])([H])C([H])([H])C([H])([H])C2([H])N([H])C(=O)C1([H])N(C(=O)C([H])(N([H])C(=O)C([H])(N([H])C([H])([H])[H])C([H])([H])[H])C(C([H])([H])[H])(C([H])([H])[H])C([H])([H])[H])C([H])([H])c2c([H])c(OC([H])([H])C([H])([H])C([H])([H])C([H])([H])[N+]3([H])C([H])([H])C([H])([H])C([H])(C([H])(N([H])C(=O)N4C([H])([H])C([H])([H])C([H])([H])C([H])(n5nc(-c6c([H])c([H])c(Oc7c([H])c([H])c(F)c([H])c7F)c([H])c6[H])c(C(=O)N([H])[H])c5N([H])[H])C4([H])[H])C([H])([H])C([H])([H])[H])C([H])([H])C([H])(C([H])([H])C([H])([H])[H])C3([H])[H])c([H])c([H])c2C1([H])[H]

$$$$
61:0:0
     RDKit          3D

 94102  0  0  1  0  0  0  0  0999 V2000
  -29.6970  -20.8810   20.2390 C   0  0  0  0  0  0  0  0  0  0  0  0
  -30.7160  -21.0940   19.5800 O   0  0  0  0  0  0  0  0  0  0  0  0
  -30.7330  -14.8920   20.4040 C   0  0  0  0  0  0  0  0  0  0  0  0
  -30.4880  -12.6170   19.3800 C   0  0  0  0  0  2  0  0  0  0  0  0
  -29.5580  -12.6870   18.1520 C   0  0  0  0  0  2  0  0  0  0  0  0
  -28.0930  -12.4990   18.5830 C   0  0  0  0  0  2  0  0  0  0  0  0
  -27.7130  -13.3840   19.8030 C   0  0  0  0  0  3  0  0  0  0  0  0
  -28.7740  -13.3350   20.9240 C   0  0  0  0  0  2  0  0  0  0  0  0
  -30.0630  -13.6870   20.3170 N   0  0  0  0  0  0  0  0  0  0  0  0
  -31.9270  -14.9300   20.0950 O   0  0  0  0  0  0  0  0  0  0  0  0
  -30.6890  -18.5910   21.2860 C   0  0  0  0  0  2  0  0  0  0  0  0
  -30.4930  -17.0600   21.6890 C   0  0  0  0  0  2  0  0  0  0  0  0
  -29.5680  -16.9170   19.4690 C   0  0  0  0  0  2  0  0  0  0  0  0
  -29.4290  -19.3480   20.7310 C   0  0  0  0  0  3  0  0  0  0  0  0
  -28.7490  -18.2730   19.7640 C   0  0  0  0  0  3  0  0  0  0  0  0
  -30.0420  -16.0950   20.6300 N   0  0  0  0  0  0  0  0  0  0  0  0
  -25.3310  -13.9580   20.5530 C   0  0  0  0  0  0  0  0  0  0  0  0
  -24.2650  -13.1770   20.9080 C   0  0  0  0  0  0  0  0  0  0  0  0
  -24.7310  -11.8270   20.8610 C   0  0  0  0  0  0  0  0  0  0  0  0
  -26.3740  -13.0830   20.2990 N   0  0  0  0  0  0  0  0  0  0  0  0
  -26.0210  -11.7960   20.5490 N   0  0  0  0  0  0  0  0  0  0  0  0
  -24.0080  -10.5600   21.0420 C   0  0  0  0  0  0  0  0  0  0  0  0
  -24.4340   -9.5950   21.9810 C   0  0  0  0  0  3  0  0  0  0  0  0
  -23.7110   -8.3940   22.1510 C   0  0  0  0  0  3  0  0  0  0  0  0
  -22.5480   -8.1510   21.3830 C   0  0  0  0  0  0  0  0  0  0  0  0
  -22.1390   -9.1060   20.4360 C   0  0  0  0  0  3  0  0  0  0  0  0
  -22.8620  -10.2980   20.2630 C   0  0  0  0  0  3  0  0  0  0  0  0
  -21.7970   -7.0030   21.4610 O   0  0  0  0  0  0  0  0  0  0  0  0
  -21.7170   -6.2720   22.6190 C   0  0  0  0  0  0  0  0  0  0  0  0
  -21.2180   -6.8270   23.8170 C   0  0  0  0  0  3  0  0  0  0  0  0
  -21.0870   -6.0210   24.9640 C   0  0  0  0  0  3  0  0  0  0  0  0
  -21.4440   -4.6600   24.9150 C   0  0  0  0  0  0  0  0  0  0  0  0
  -21.9360   -4.1040   23.7210 C   0  0  0  0  0  3  0  0  0  0  0  0
  -22.0670   -4.9070   22.5750 C   0  0  0  0  0  0  0  0  0  0  0  0
  -22.5200   -4.3620   21.4200 F   0  0  0  0  0  0  0  0  0  0  0  0
  -21.3100   -3.8820   26.0150 F   0  0  0  0  0  0  0  0  0  0  0  0
  -22.8680  -13.6490   21.1860 C   0  0  0  0  0  0  0  0  0  0  0  0
  -22.1440  -12.9460   22.0510 N   0  0  0  0  0  0  0  0  0  0  0  0
  -22.4270  -14.6750   20.6720 O   0  0  0  0  0  0  0  0  0  0  0  0
  -22.5150  -12.1150   22.4860 H   0  0  0  0  0  0  0  0  0  0  0  0
  -21.2020  -13.2390   22.2750 H   0  0  0  0  0  0  0  0  0  0  0  0
  -25.5100  -15.3310   20.4130 N   0  0  0  0  0  0  0  0  0  0  0  0
  -24.7880  -15.9920   20.6830 H   0  0  0  0  0  0  0  0  0  0  0  0
  -26.4330  -15.7430   20.3960 H   0  0  0  0  0  0  0  0  0  0  0  0
  -28.2150  -18.8940   18.4440 C   0  0  0  0  0  2  0  0  0  0  0  0
  -27.2810  -18.0110   17.7160 N   0  0  0  0  0  4  0  0  0  0  0  0
  -27.7270  -17.1660   17.4050 H   0  0  0  0  0  0  0  0  0  0  0  0
  -26.9430  -18.4910   16.9000 H   0  0  0  0  0  0  0  0  0  0  0  0
  -26.4870  -17.7750   18.2850 H   0  0  0  0  0  0  0  0  0  0  0  0
  -28.7130  -22.1360   20.5250 C   0  0  0  0  0  2  0  0  0  0  0  0
  -30.1850  -24.0710   21.4520 C   0  0  0  0  0  1  0  0  0  0  0  0
  -29.1780  -23.7110   20.3520 C   0  0  0  0  0  3  0  0  0  0  0  0
  -28.0530  -24.9000   20.2590 C   0  0  0  0  0  2  0  0  0  0  0  0
  -28.3350  -26.4000   20.2640 O   0  0  0  0  0  0  0  0  0  0  0  0
  -24.6230  -31.9410   23.2630 C   0  0  0  0  0  0  0  0  0  0  0  0
  -27.2440  -27.3180   20.2170 C   0  0  0  0  0  0  0  0  0  0  0  0
  -23.4320  -30.5400   21.6250 C   0  0  0  0  0  3  0  0  0  0  0  0
  -24.8880  -28.9900   20.1980 C   0  0  0  0  0  0  0  0  0  0  0  0
  -25.9800  -30.8430   21.4530 C   0  0  0  0  0  2  0  0  0  0  0  0
  -26.0630  -29.4600   20.8000 C   0  0  0  0  0  0  0  0  0  0  0  0
  -27.2450  -28.6410   20.7930 C   0  0  0  0  0  3  0  0  0  0  0  0
  -26.0400  -26.9290   19.5870 C   0  0  0  0  0  3  0  0  0  0  0  0
  -24.8850  -27.7330   19.5790 C   0  0  0  0  0  3  0  0  0  0  0  0
  -23.6530  -29.8690   20.2440 C   0  0  0  0  0  2  0  0  0  0  0  0
  -24.6980  -31.1280   22.1680 N   0  0  0  0  0  0  0  0  0  0  0  0
  -23.5360  -32.2160   23.7920 O   0  0  0  0  0  0  0  0  0  0  0  0
  -22.7660  -29.5200   22.5840 C   0  0  0  0  0  0  0  0  0  0  0  0
  -21.4440  -29.3200   22.4390 N   0  0  0  0  0  0  0  0  0  0  0  0
  -23.4410  -28.9110   23.4180 O   0  0  0  0  0  0  0  0  0  0  0  0
  -20.9570  -29.8640   21.7410 H   0  0  0  0  0  0  0  0  0  0  0  0
  -18.0780  -28.0780   22.9130 C   0  0  0  0  0  0  0  0  0  0  0  0
  -20.6300  -28.3760   23.2060 C   0  0  0  0  0  3  0  0  0  0  0  0
  -20.7570  -26.9430   22.6390 C   0  0  0  0  0  2  0  0  0  0  0  0
  -19.6700  -26.5990   21.6150 C   0  0  0  0  0  2  0  0  0  0  0  0
  -18.2800  -26.7290   22.2460 C   0  0  0  0  0  2  0  0  0  0  0  0
  -19.1820  -28.8590   23.3490 C   0  0  0  0  0  0  0  0  0  0  0  0
  -18.9390  -30.1210   23.9340 C   0  0  0  0  0  3  0  0  0  0  0  0
  -17.6250  -30.6030   24.0860 C   0  0  0  0  0  3  0  0  0  0  0  0
  -16.5360  -29.8210   23.6640 C   0  0  0  0  0  3  0  0  0  0  0  0
  -16.7620  -28.5590   23.0840 C   0  0  0  0  0  3  0  0  0  0  0  0
  -25.8990  -32.5810   23.8910 C   0  0  0  0  0  3  0  0  0  0  0  0
  -25.5790  -33.9780   24.2210 N   0  0  0  0  0  0  0  0  0  0  0  0
  -25.8910  -35.0320   23.4560 C   0  0  0  0  0  0  0  0  0  0  0  0
  -26.5460  -34.9330   22.4150 O   0  0  0  0  0  0  0  0  0  0  0  0
  -24.9980  -34.1310   25.0310 H   0  0  0  0  0  0  0  0  0  0  0  0
  -24.1430  -36.8110   23.1260 C   0  0  0  0  0  1  0  0  0  0  0  0
  -25.4000  -36.4190   23.9180 C   0  0  0  0  0  3  0  0  0  0  0  0
  -27.5350  -37.3290   24.7190 C   0  0  0  0  0  1  0  0  0  0  0  0
  -26.4210  -37.4810   23.7860 N   0  0  0  0  0  0  0  0  0  0  0  0
  -26.0080  -38.3970   23.9310 H   0  0  0  0  0  0  0  0  0  0  0  0
  -26.4130  -31.8150   25.1730 C   0  0  1  0  0  0  0  0  0  0  0  0
  -25.3140  -31.5710   26.2350 C   0  0  0  0  0  1  0  0  0  0  0  0
  -27.0090  -30.4410   24.7890 C   0  0  0  0  0  1  0  0  0  0  0  0
  -27.5530  -32.6200   25.8400 C   0  0  0  0  0  1  0  0  0  0  0  0
  1 50  1  0
  2  1  2  0
  3 16  1  0
  4  9  1  0
  5  6  1  0
  5  4  1  0
  7  6  1  0
  7 20  1  0
  7  8  1  0
  9  3  1  0
  9  8  1  0
 10  3  2  0
 11 12  1  0
 13 15  1  0
 13 16  1  0
 14  1  1  0
 14 11  1  0
 15 45  1  0
 15 14  1  0
 16 12  1  0
 17 18  2  0
 18 37  1  0
 19 18  1  0
 19 22  1  0
 20 21  1  0
 20 17  1  0
 21 19  2  0
 22 23  1  0
 23 24  2  0
 25 28  1  0
 25 24  1  0
 26 25  2  0
 27 26  1  0
 27 22  2  0
 28 29  1  0
 29 30  1  0
 30 31  2  0
 32 31  1  0
 32 36  1  0
 33 32  2  0
 34 29  2  0
 34 33  1  0
 35 34  1  0
 37 38  1  0
 38 41  1  0
 38 40  1  0
 39 37  2  0
 42 17  1  0
 42 43  1  0
 44 42  1  0
 46 49  1  0
 46 45  1  0
 47 46  1  0
 48 46  1  0
 52 50  1  0
 52 51  1  0
 53 54  1  0
 53 52  1  0
 55 66  2  0
 56 54  1  0
 56 61  1  0
 57 65  1  0
 57 67  1  0
 58 64  1  0
 58 60  1  0
 59 65  1  0
 60 59  1  0
 61 60  2  0
 62 56  2  0
 63 62  1  0
 63 58  2  0
 64 57  1  0
 65 55  1  0
 67 69  2  0
 68 67  1  0
 70 68  1  0
 71 80  2  0
 71 76  1  0
 72 68  1  0
 72 76  1  0
 73 72  1  0
 74 75  1  0
 74 73  1  0
 75 71  1  0
 76 77  2  0
 77 78  1  0
 79 78  2  0
 80 79  1  0
 81 55  1  0
 81 82  1  0
 81 91  1  0
 82 85  1  0
 83 87  1  0
 83 82  1  0
 84 83  2  0
 87 86  1  0
 89 87  1  0
 89 90  1  0
 89 88  1  0
 91 94  1  1
 91 92  1  0
 93 91  1  0
M  ISO  4   3 100  16 100  53 101  54 101
M  END
>  <TORSDO>  (61) 
F 21

>  <SCORE>  (61) 
-13.570

>  <name>  (61) 
61

>  <ligand_id>  (61) 
61

>  <original_smiles>  (61) 
[H]c1c([H])c([H])c2c(c1[H])C([H])([H])C([H])([H])C([H])([H])C2([H])N([H])C(=O)C1([H])N(C(=O)C([H])(N([H])C(=O)C([H])(N([H])C([H])([H])[H])C([H])([H])[H])C(C([H])([H])[H])(C([H])([H])[H])C([H])([H])[H])C([H])([H])c2c([H])c(OC([H])([H])C([H])(C([H])([H])[H])C([H])([H])C(=O)C3([H])C([H])([H])C([H])([H])N(C(=O)N4C([H])([H])C([H])([H])C([H])([H])C([H])(n5nc(-c6c([H])c([H])c(Oc7c([H])c([H])c(F)c([H])c7F)c([H])c6[H])c(C(=O)N([H])[H])c5N([H])[H])C4([H])[H])C([H])([H])C3([H])C([H])([H])[N+]([H])([H])[H])c([H])c([H])c2C1([H])[H]

>  <smiles>  (61) 
[H]c1c([H])c([H])c2c(c1[H])C([H])([H])C([H])([H])C([H])([H])C2([H])N([H])C(=O)C1([H])N(C(=O)C([H])(N([H])C(=O)C([H])(N([H])C([H])([H])[H])C([H])([H])[H])C(C([H])([H])[H])(C([H])([H])[H])C([H])([H])[H])C([H])([H])c2c([H])c(OC([H])([H])C([H])(C([H])([H])[H])C([H])([H])C(=O)C3([H])C([H])([H])C([H])([H])N(C(=O)N4C([H])([H])C([H])([H])C([H])([H])C([H])(n5nc(-c6c([H])c([H])c(Oc7c([H])c([H])c(F)c([H])c7F)c([H])c6[H])c(C(=O)N([H])[H])c5N([H])[H])C4([H])[H])C([H])([H])C3([H])C([H])([H])[N+]([H])([H])[H])c([H])c([H])c2C1([H])[H]

$$$$
62:0:0
     RDKit          3D

 94102  0  0  1  0  0  0  0  0999 V2000
  -30.4650  -21.2260   21.3980 C   0  0  0  0  0  2  0  0  0  0  0  0
  -30.5200  -17.9480   19.4710 C   0  0  0  0  0  2  0  0  0  0  0  0
  -30.8790  -19.4100   19.7660 C   0  0  0  0  0  2  0  0  0  0  0  0
  -31.2230  -18.9490   22.1310 C   0  0  0  0  0  2  0  0  0  0  0  0
  -30.9260  -17.4360   21.9320 C   0  0  0  0  0  3  0  0  0  0  0  0
  -31.1950  -16.9730   20.4710 C   0  0  0  0  0  3  0  0  0  0  0  0
  -30.4690  -19.7650   21.1450 N   0  0  1  0  0  4  0  0  0  0  0  0
  -29.5010  -19.5020   21.2530 H   0  0  0  0  0  0  0  0  0  0  0  0
  -31.2430  -14.6060   19.6020 C   0  0  0  0  0  0  0  0  0  0  0  0
  -30.8030  -12.3840   18.6410 C   0  0  0  0  0  2  0  0  0  0  0  0
  -29.7790  -12.5150   17.4990 C   0  0  0  0  0  2  0  0  0  0  0  0
  -28.3420  -12.4400   18.0510 C   0  0  0  0  0  2  0  0  0  0  0  0
  -28.1100  -13.4020   19.2500 C   0  0  0  0  0  3  0  0  0  0  0  0
  -29.2370  -13.2420   20.2950 C   0  0  0  0  0  2  0  0  0  0  0  0
  -30.5270  -13.4530   19.6080 N   0  0  0  0  0  0  0  0  0  0  0  0
  -32.2730  -14.7620   18.9430 O   0  0  0  0  0  0  0  0  0  0  0  0
  -30.7000  -15.6010   20.3120 N   0  0  0  0  0  0  0  0  0  0  0  0
  -29.8580  -15.3610   20.8160 H   0  0  0  0  0  0  0  0  0  0  0  0
  -25.8300  -14.1340   20.2020 C   0  0  0  0  0  0  0  0  0  0  0  0
  -24.7550  -13.4180   20.6500 C   0  0  0  0  0  0  0  0  0  0  0  0
  -25.1170  -12.0400   20.5320 C   0  0  0  0  0  0  0  0  0  0  0  0
  -26.7900  -13.2000   19.8430 N   0  0  0  0  0  0  0  0  0  0  0  0
  -26.3660  -11.9330   20.0930 N   0  0  0  0  0  0  0  0  0  0  0  0
  -24.3320  -10.8190   20.7510 C   0  0  0  0  0  0  0  0  0  0  0  0
  -24.7170   -9.8500   21.7050 C   0  0  0  0  0  3  0  0  0  0  0  0
  -23.9320   -8.6970   21.9100 C   0  0  0  0  0  3  0  0  0  0  0  0
  -22.7470   -8.5010   21.1630 C   0  0  0  0  0  0  0  0  0  0  0  0
  -22.3800   -9.4560   20.1990 C   0  0  0  0  0  3  0  0  0  0  0  0
  -23.1640  -10.6000   19.9910 C   0  0  0  0  0  3  0  0  0  0  0  0
  -21.9360   -7.3970   21.2760 O   0  0  0  0  0  0  0  0  0  0  0  0
  -21.7370   -6.7720   22.4790 C   0  0  0  0  0  0  0  0  0  0  0  0
  -21.2340   -7.4630   23.6030 C   0  0  0  0  0  3  0  0  0  0  0  0
  -20.9750   -6.7650   24.8010 C   0  0  0  0  0  3  0  0  0  0  0  0
  -21.2160   -5.3810   24.8750 C   0  0  0  0  0  0  0  0  0  0  0  0
  -21.7120   -4.6900   23.7560 C   0  0  0  0  0  3  0  0  0  0  0  0
  -21.9700   -5.3840   22.5590 C   0  0  0  0  0  0  0  0  0  0  0  0
  -22.4290   -4.7110   21.4780 F   0  0  0  0  0  0  0  0  0  0  0  0
  -20.9610   -4.7090   26.0220 F   0  0  0  0  0  0  0  0  0  0  0  0
  -23.4250  -13.9700   21.0780 C   0  0  0  0  0  0  0  0  0  0  0  0
  -22.7560  -13.2980   22.0080 N   0  0  0  0  0  0  0  0  0  0  0  0
  -22.9970  -15.0310   20.6210 O   0  0  0  0  0  0  0  0  0  0  0  0
  -23.1260  -12.4440   22.3980 H   0  0  0  0  0  0  0  0  0  0  0  0
  -21.8690  -13.6440   22.3460 H   0  0  0  0  0  0  0  0  0  0  0  0
  -26.0620  -15.4980   20.0460 N   0  0  0  0  0  0  0  0  0  0  0  0
  -25.3490  -16.1870   20.2540 H   0  0  0  0  0  0  0  0  0  0  0  0
  -26.8730  -15.8990   19.5910 H   0  0  0  0  0  0  0  0  0  0  0  0
  -30.9330  -16.5550   24.3380 C   0  0  0  0  0  1  0  0  0  0  0  0
  -31.6610  -16.5680   22.9860 C   0  0  0  0  0  2  0  0  0  0  0  0
  -29.6460  -21.9620   20.3070 C   0  0  0  0  0  2  0  0  0  0  0  0
  -27.2480  -22.7880   20.3580 C   0  0  0  0  0  1  0  0  0  0  0  0
  -28.7010  -23.0750   20.8340 C   0  0  0  0  0  3  0  0  0  0  0  0
  -29.2400  -24.5220   20.5630 C   0  0  0  0  0  2  0  0  0  0  0  0
  -28.1340  -25.5070   20.1590 C   0  0  0  0  0  2  0  0  0  0  0  0
  -28.4340  -26.9120   20.1930 O   0  0  0  0  0  0  0  0  0  0  0  0
  -24.6580  -32.0590   23.3620 C   0  0  0  0  0  0  0  0  0  0  0  0
  -27.2950  -27.6980   20.1510 C   0  0  0  0  0  0  0  0  0  0  0  0
  -23.4510  -30.6770   21.7100 C   0  0  0  0  0  3  0  0  0  0  0  0
  -24.8960  -29.2030   20.2210 C   0  0  0  0  0  0  0  0  0  0  0  0
  -25.9790  -31.0550   21.4950 C   0  0  0  0  0  2  0  0  0  0  0  0
  -26.0580  -29.7000   20.8250 C   0  0  0  0  0  0  0  0  0  0  0  0
  -27.2570  -28.9500   20.8020 C   0  0  0  0  0  3  0  0  0  0  0  0
  -26.1200  -27.2520   19.4930 C   0  0  0  0  0  3  0  0  0  0  0  0
  -24.9260  -27.9780   19.5400 C   0  0  0  0  0  3  0  0  0  0  0  0
  -23.6440  -30.0460   20.3110 C   0  0  0  0  0  2  0  0  0  0  0  0
  -24.7160  -31.2800   22.2430 N   0  0  0  0  0  0  0  0  0  0  0  0
  -23.5770  -32.3040   23.9130 O   0  0  0  0  0  0  0  0  0  0  0  0
  -22.8310  -29.6190   22.6480 C   0  0  0  0  0  0  0  0  0  0  0  0
  -21.5250  -29.3540   22.4660 N   0  0  0  0  0  0  0  0  0  0  0  0
  -23.5170  -29.0460   23.5000 O   0  0  0  0  0  0  0  0  0  0  0  0
  -21.0380  -29.8760   21.7500 H   0  0  0  0  0  0  0  0  0  0  0  0
  -18.2300  -27.9070   22.7770 C   0  0  0  0  0  0  0  0  0  0  0  0
  -20.7310  -28.3850   23.2160 C   0  0  0  0  0  3  0  0  0  0  0  0
  -20.9820  -26.9460   22.7130 C   0  0  0  0  0  2  0  0  0  0  0  0
  -19.9960  -26.5080   21.6220 C   0  0  0  0  0  2  0  0  0  0  0  0
  -18.5640  -26.5580   22.1570 C   0  0  0  0  0  2  0  0  0  0  0  0
  -19.2500  -28.7730   23.2560 C   0  0  0  0  0  0  0  0  0  0  0  0
  -18.8920  -30.0340   23.7790 C   0  0  0  0  0  3  0  0  0  0  0  0
  -17.5420  -30.4320   23.8340 C   0  0  0  0  0  3  0  0  0  0  0  0
  -16.5330  -29.5640   23.3790 C   0  0  0  0  0  3  0  0  0  0  0  0
  -16.8760  -28.3040   22.8580 C   0  0  0  0  0  3  0  0  0  0  0  0
  -25.9410  -32.6940   23.9810 C   0  0  0  0  0  3  0  0  0  0  0  0
  -25.6340  -34.0960   24.2890 N   0  0  0  0  0  0  0  0  0  0  0  0
  -25.9650  -35.1370   23.5140 C   0  0  0  0  0  0  0  0  0  0  0  0
  -26.6430  -35.0170   22.4890 O   0  0  0  0  0  0  0  0  0  0  0  0
  -25.0490  -34.2640   25.0940 H   0  0  0  0  0  0  0  0  0  0  0  0
  -24.2320  -36.9150   23.1170 C   0  0  0  0  0  1  0  0  0  0  0  0
  -25.4700  -36.5320   23.9430 C   0  0  0  0  0  3  0  0  0  0  0  0
  -27.6040  -37.4270   24.7660 C   0  0  0  0  0  1  0  0  0  0  0  0
  -26.5010  -37.5840   23.8190 N   0  0  0  0  0  0  0  0  0  0  0  0
  -26.0970  -38.5080   23.9470 H   0  0  0  0  0  0  0  0  0  0  0  0
  -26.4540  -31.9320   25.2650 C   0  0  1  0  0  0  0  0  0  0  0  0
  -25.3540  -31.6760   26.3220 C   0  0  0  0  0  1  0  0  0  0  0  0
  -27.0640  -30.5660   24.8750 C   0  0  0  0  0  1  0  0  0  0  0  0
  -27.5940  -32.7430   25.9300 C   0  0  0  0  0  1  0  0  0  0  0  0
  2  3  1  0
  2  6  1  0
  3  7  1  0
  5  4  1  0
  5 48  1  0
  6 17  1  0
  6  5  1  0
  7  8  1  6
  7  1  1  0
  7  4  1  0
  9 15  1  0
  9 17  1  0
 10 15  1  0
 11 12  1  0
 11 10  1  0
 13 12  1  0
 13 22  1  0
 13 14  1  0
 15 14  1  0
 16  9  2  0
 17 18  1  0
 19 20  2  0
 20 39  1  0
 21 20  1  0
 21 24  1  0
 22 23  1  0
 22 19  1  0
 23 21  2  0
 24 25  1  0
 25 26  2  0
 27 30  1  0
 27 26  1  0
 28 27  2  0
 29 28  1  0
 29 24  2  0
 30 31  1  0
 31 36  2  0
 31 32  1  0
 32 33  2  0
 33 34  1  0
 34 38  1  0
 35 34  2  0
 36 35  1  0
 37 36  1  0
 39 40  1  0
 40 43  1  0
 40 42  1  0
 41 39  2  0
 44 19  1  0
 44 45  1  0
 46 44  1  0
 48 47  1  0
 49 51  1  0
 49  1  1  0
 51 50  1  0
 52 51  1  0
 53 54  1  0
 53 52  1  0
 55 66  2  0
 56 54  1  0
 56 61  1  0
 57 65  1  0
 57 67  1  0
 58 64  1  0
 58 60  1  0
 59 65  1  0
 60 59  1  0
 61 60  2  0
 62 63  1  0
 62 56  2  0
 63 58  2  0
 64 57  1  0
 65 55  1  0
 67 69  2  0
 68 67  1  0
 70 68  1  0
 71 80  2  0
 71 76  1  0
 72 68  1  0
 72 76  1  0
 73 72  1  0
 74 75  1  0
 74 73  1  0
 75 71  1  0
 76 77  2  0
 77 78  1  0
 79 78  2  0
 80 79  1  0
 81 55  1  0
 81 82  1  0
 81 91  1  0
 82 85  1  0
 83 87  1  0
 83 82  1  0
 84 83  2  0
 87 86  1  0
 89 87  1  0
 89 90  1  0
 89 88  1  0
 91 94  1  1
 91 92  1  0
 93 91  1  0
M  ISO  4   9 100  17 100  53 101  54 101
M  END
>  <TORSDO>  (62) 
F 22

>  <SCORE>  (62) 
-8.104

>  <name>  (62) 
62

>  <ligand_id>  (62) 
62

>  <original_smiles>  (62) 
[H]c1c([H])c([H])c2c(c1[H])C([H])([H])C([H])([H])C([H])([H])C2([H])N([H])C(=O)C1([H])N(C(=O)C([H])(N([H])C(=O)C([H])(N([H])C([H])([H])[H])C([H])([H])[H])C(C([H])([H])[H])(C([H])([H])[H])C([H])([H])[H])C([H])([H])c2c([H])c(OC([H])([H])C([H])([H])C([H])(C([H])([H])[H])C([H])([H])C([H])([H])[N+]3([H])C([H])([H])C([H])([H])C([H])(N([H])C(=O)N4C([H])([H])C([H])([H])C([H])([H])C([H])(n5nc(-c6c([H])c([H])c(Oc7c([H])c([H])c(F)c([H])c7F)c([H])c6[H])c(C(=O)N([H])[H])c5N([H])[H])C4([H])[H])C([H])(C([H])([H])C([H])([H])[H])C3([H])[H])c([H])c([H])c2C1([H])[H]

>  <smiles>  (62) 
[H]c1c([H])c([H])c2c(c1[H])C([H])([H])C([H])([H])C([H])([H])C2([H])N([H])C(=O)C1([H])N(C(=O)C([H])(N([H])C(=O)C([H])(N([H])C([H])([H])[H])C([H])([H])[H])C(C([H])([H])[H])(C([H])([H])[H])C([H])([H])[H])C([H])([H])c2c([H])c(OC([H])([H])C([H])([H])C([H])(C([H])([H])[H])C([H])([H])C([H])([H])[N+]3([H])C([H])([H])C([H])([H])C([H])(N([H])C(=O)N4C([H])([H])C([H])([H])C([H])([H])C([H])(n5nc(-c6c([H])c([H])c(Oc7c([H])c([H])c(F)c([H])c7F)c([H])c6[H])c(C(=O)N([H])[H])c5N([H])[H])C4([H])[H])C([H])(C([H])([H])C([H])([H])[H])C3([H])[H])c([H])c([H])c2C1([H])[H]

$$$$
63:0:0
     RDKit          3D

 98106  0  0  1  0  0  0  0  0999 V2000
  -30.8510  -15.1550   20.1320 C   0  0  0  0  0  0  0  0  0  0  0  0
  -30.6790  -12.6890   19.4880 C   0  0  0  0  0  2  0  0  0  0  0  0
  -29.7660  -12.3920   18.2770 C   0  0  0  0  0  2  0  0  0  0  0  0
  -28.3170  -12.1540   18.7420 C   0  0  0  0  0  2  0  0  0  0  0  0
  -27.8470  -13.2520   19.7080 C   0  0  0  0  0  3  0  0  0  0  0  0
  -28.8920  -13.5740   20.8140 C   0  0  0  0  0  2  0  0  0  0  0  0
  -30.1640  -13.9230   20.1610 N   0  0  0  0  0  0  0  0  0  0  0  0
  -32.0790  -15.0650   20.0410 O   0  0  0  0  0  0  0  0  0  0  0  0
  -29.0440  -18.9600   18.4170 C   0  0  0  0  0  2  0  0  0  0  0  0
  -30.8700  -17.9080   20.1050 C   0  0  0  0  0  2  0  0  0  0  0  0
  -28.8180  -16.6810   19.6270 C   0  0  0  0  0  3  0  0  0  0  0  0
  -30.3760  -19.1970   19.1240 C   0  0  0  0  0  3  0  0  0  0  0  0
  -28.7590  -17.4530   18.2590 C   0  0  0  0  0  3  0  0  0  0  0  0
  -30.2310  -16.4670   20.0060 N   0  0  0  0  0  0  0  0  0  0  0  0
  -25.5160  -14.0080   20.4280 C   0  0  0  0  0  0  0  0  0  0  0  0
  -24.3990  -13.3150   20.7950 C   0  0  0  0  0  0  0  0  0  0  0  0
  -24.7910  -11.9400   20.7900 C   0  0  0  0  0  0  0  0  0  0  0  0
  -26.5100  -13.0600   20.2290 N   0  0  0  0  0  0  0  0  0  0  0  0
  -26.0810  -11.8140   20.5150 N   0  0  0  0  0  0  0  0  0  0  0  0
  -23.9970  -10.7310   20.9770 C   0  0  0  0  0  0  0  0  0  0  0  0
  -24.3960   -9.7220   21.8800 C   0  0  0  0  0  3  0  0  0  0  0  0
  -23.6070   -8.5660   22.0510 C   0  0  0  0  0  3  0  0  0  0  0  0
  -22.4020   -8.4190   21.3250 C   0  0  0  0  0  0  0  0  0  0  0  0
  -22.0220   -9.4150   20.4070 C   0  0  0  0  0  3  0  0  0  0  0  0
  -22.8140  -10.5630   20.2340 C   0  0  0  0  0  3  0  0  0  0  0  0
  -21.5810   -7.3220   21.4120 O   0  0  0  0  0  0  0  0  0  0  0  0
  -21.5430   -6.5410   22.5360 C   0  0  0  0  0  0  0  0  0  0  0  0
  -21.2170   -7.0750   23.8010 C   0  0  0  0  0  3  0  0  0  0  0  0
  -21.1180   -6.2240   24.9210 C   0  0  0  0  0  3  0  0  0  0  0  0
  -21.3430   -4.8420   24.7760 C   0  0  0  0  0  0  0  0  0  0  0  0
  -21.6670   -4.3090   23.5160 C   0  0  0  0  0  3  0  0  0  0  0  0
  -21.7630   -5.1550   22.3990 C   0  0  0  0  0  0  0  0  0  0  0  0
  -22.0510   -4.6350   21.1800 F   0  0  0  0  0  0  0  0  0  0  0  0
  -21.2420   -4.0200   25.8480 F   0  0  0  0  0  0  0  0  0  0  0  0
  -23.0310  -13.8790   21.0510 C   0  0  0  0  0  0  0  0  0  0  0  0
  -22.2610  -13.2380   21.9230 N   0  0  0  0  0  0  0  0  0  0  0  0
  -22.6650  -14.9230   20.5100 O   0  0  0  0  0  0  0  0  0  0  0  0
  -22.5800  -12.3890   22.3700 H   0  0  0  0  0  0  0  0  0  0  0  0
  -21.3440  -13.5980   22.1490 H   0  0  0  0  0  0  0  0  0  0  0  0
  -25.7680  -15.3620   20.2410 N   0  0  0  0  0  0  0  0  0  0  0  0
  -24.9000  -15.8770   20.3570 H   0  0  0  0  0  0  0  0  0  0  0  0
  -26.3770  -15.5980   21.0160 H   0  0  0  0  0  0  0  0  0  0  0  0
  -27.5310  -17.2450   17.4630 N   0  0  0  0  0  4  0  0  0  0  0  0
  -27.4010  -16.2700   17.2420 H   0  0  0  0  0  0  0  0  0  0  0  0
  -27.6410  -17.7280   16.5870 H   0  0  0  0  0  0  0  0  0  0  0  0
  -26.6890  -17.5970   17.8820 H   0  0  0  0  0  0  0  0  0  0  0  0
  -28.0330  -17.2930   20.8350 C   0  0  0  0  0  0  0  0  0  0  0  0
  -26.7670  -18.1240   20.6140 C   0  0  0  0  0  1  0  0  0  0  0  0
  -28.3670  -17.0600   21.9980 O   0  0  0  0  0  0  0  0  0  0  0  0
  -30.6940  -20.8490   19.2520 C   0  0  0  0  0  3  0  0  0  0  0  0
  -29.6000  -21.9580   19.5610 N   0  0  0  0  0  4  0  0  0  0  0  0
  -29.1870  -21.7340   20.4540 H   0  0  0  0  0  0  0  0  0  0  0  0
  -28.8750  -21.8050   18.8730 H   0  0  0  0  0  0  0  0  0  0  0  0
  -29.8780  -23.5280   19.5600 C   0  0  0  0  0  3  0  0  0  0  0  0
  -28.6700  -24.7080   19.5700 C   0  0  0  0  0  3  0  0  0  0  0  0
  -28.8500  -26.2300   19.8710 O   0  0  0  0  0  0  0  0  0  0  0  0
  -25.0490  -31.4030   23.5120 C   0  0  0  0  0  0  0  0  0  0  0  0
  -27.7610  -27.1840   19.9080 C   0  0  0  0  0  0  0  0  0  0  0  0
  -23.9280  -30.3140   21.6100 C   0  0  0  0  0  3  0  0  0  0  0  0
  -25.4350  -28.9450   20.0320 C   0  0  0  0  0  0  0  0  0  0  0  0
  -26.4900  -30.5440   21.6260 C   0  0  0  0  0  2  0  0  0  0  0  0
  -26.5850  -29.2760   20.7600 C   0  0  0  0  0  0  0  0  0  0  0  0
  -27.7460  -28.4170   20.6810 C   0  0  0  0  0  3  0  0  0  0  0  0
  -26.5810  -26.9460   19.1650 C   0  0  0  0  0  3  0  0  0  0  0  0
  -25.4410  -27.7900   19.2300 C   0  0  0  0  0  3  0  0  0  0  0  0
  -24.2220  -29.8590   20.1540 C   0  0  0  0  0  2  0  0  0  0  0  0
  -25.1740  -30.7610   22.3080 N   0  0  0  0  0  0  0  0  0  0  0  0
  -23.9400  -31.6330   24.0100 O   0  0  0  0  0  0  0  0  0  0  0  0
  -23.1720  -29.1900   22.3600 C   0  0  0  0  0  0  0  0  0  0  0  0
  -21.8410  -29.1120   22.1750 N   0  0  0  0  0  0  0  0  0  0  0  0
  -23.7850  -28.3890   23.0710 O   0  0  0  0  0  0  0  0  0  0  0  0
  -21.3990  -29.8190   21.6040 H   0  0  0  0  0  0  0  0  0  0  0  0
  -18.3890  -28.0390   22.4260 C   0  0  0  0  0  0  0  0  0  0  0  0
  -20.9550  -28.0940   22.7450 C   0  0  0  0  0  3  0  0  0  0  0  0
  -20.9800  -26.7960   21.9030 C   0  0  0  0  0  2  0  0  0  0  0  0
  -19.8760  -26.7450   20.8410 C   0  0  0  0  0  2  0  0  0  0  0  0
  -18.4950  -26.8420   21.4970 C   0  0  0  0  0  2  0  0  0  0  0  0
  -19.5420  -28.6360   22.9990 C   0  0  0  0  0  0  0  0  0  0  0  0
  -19.3890  -29.7670   23.8310 C   0  0  0  0  0  3  0  0  0  0  0  0
  -18.1120  -30.3010   24.0890 C   0  0  0  0  0  3  0  0  0  0  0  0
  -16.9730  -29.6970   23.5290 C   0  0  0  0  0  3  0  0  0  0  0  0
  -17.1100  -28.5670   22.7050 C   0  0  0  0  0  3  0  0  0  0  0  0
  -26.2960  -31.9010   24.3080 C   0  0  0  0  0  3  0  0  0  0  0  0
  -25.9820  -33.2390   24.8390 N   0  0  0  0  0  0  0  0  0  0  0  0
  -26.3570  -34.3940   24.2700 C   0  0  0  0  0  0  0  0  0  0  0  0
  -27.0600  -34.4410   23.2600 O   0  0  0  0  0  0  0  0  0  0  0  0
  -25.3590  -33.2750   25.6310 H   0  0  0  0  0  0  0  0  0  0  0  0
  -24.6540  -36.2420   24.1600 C   0  0  0  0  0  1  0  0  0  0  0  0
  -25.8740  -35.7040   24.9260 C   0  0  0  0  0  3  0  0  0  0  0  0
  -27.9960  -36.4280   25.9260 C   0  0  0  0  0  1  0  0  0  0  0  0
  -26.9200  -36.7490   24.9930 N   0  0  0  0  0  0  0  0  0  0  0  0
  -26.5210  -37.6440   25.2620 H   0  0  0  0  0  0  0  0  0  0  0  0
  -26.7100  -30.9260   25.4790 C   0  0  1  0  0  0  0  0  0  0  0  0
  -25.5480  -30.5720   26.4360 C   0  0  0  0  0  1  0  0  0  0  0  0
  -27.2730  -29.6010   24.9170 C   0  0  0  0  0  1  0  0  0  0  0  0
  -27.8390  -31.5690   26.3170 C   0  0  0  0  0  1  0  0  0  0  0  0
  -33.2350  -20.6150   18.9780 C   0  0  0  0  0  1  0  0  0  0  0  0
  -32.0840  -21.0700   19.9040 C   0  0  0  0  0  2  0  0  0  0  0  0
  1  7  1  0
  2  7  1  0
  3  4  1  0
  3  2  1  0
  5  4  1  0
  5 18  1  0
  5  6  1  0
  7  6  1  0
  8  1  2  0
  9 12  1  0
 11 14  1  0
 11 47  1  0
 12 50  1  0
 12 10  1  0
 13 43  1  0
 13  9  1  0
 13 11  1  0
 14 10  1  0
 14  1  1  0
 15 16  2  0
 16 35  1  0
 17 16  1  0
 17 20  1  0
 18 15  1  0
 18 19  1  0
 19 17  2  0
 20 21  1  0
 21 22  2  0
 23 26  1  0
 23 22  1  0
 24 23  2  0
 25 24  1  0
 25 20  2  0
 26 27  1  0
 27 28  1  0
 28 29  2  0
 30 29  1  0
 30 34  1  0
 31 30  2  0
 32 27  2  0
 32 31  1  0
 33 32  1  0
 35 36  1  0
 36 39  1  0
 36 38  1  0
 37 35  2  0
 40 41  1  0
 40 15  1  0
 40 42  1  0
 43 46  1  0
 44 43  1  0
 45 43  1  0
 47 49  2  0
 48 47  1  0
 50 51  1  0
 50 98  1  0
 51 52  1  0
 53 51  1  0
 54 51  1  0
 54 55  2  0
 55 56  1  0
 56 58  1  0
 57 68  2  0
 58 63  1  0
 59 67  1  0
 59 69  1  0
 60 66  1  0
 60 62  1  0
 61 67  1  0
 62 61  1  0
 63 62  2  0
 64 65  1  0
 64 58  2  0
 65 60  2  0
 66 59  1  0
 67 57  1  0
 69 71  2  0
 70 69  1  0
 72 70  1  0
 73 82  2  0
 73 78  1  0
 74 70  1  0
 74 78  1  0
 75 74  1  0
 76 77  1  0
 76 75  1  0
 77 73  1  0
 78 79  2  0
 79 80  1  0
 81 80  2  0
 82 81  1  0
 83 57  1  0
 83 84  1  0
 83 93  1  0
 84 87  1  0
 85 84  1  0
 85 89  1  0
 86 85  2  0
 89 88  1  0
 89 91  1  0
 91 92  1  0
 91 90  1  0
 93 96  1  1
 93 94  1  0
 95 93  1  0
 97 98  1  0
M  ISO  4   1 100  14 100  55 101  56 101
M  END
>  <TORSDO>  (63) 
F 22

>  <SCORE>  (63) 
-8.724

>  <name>  (63) 
63

>  <ligand_id>  (63) 
63

>  <original_smiles>  (63) 
[H]c1c([H])c([H])c2c(c1[H])C([H])([H])C([H])([H])C([H])([H])C2([H])N([H])C(=O)C1([H])N(C(=O)C([H])(N([H])C(=O)C([H])(N([H])C([H])([H])[H])C([H])([H])[H])C(C([H])([H])[H])(C([H])([H])[H])C([H])([H])[H])C([H])([H])c2c([H])c(OC([H])([H])C([H])([H])[N+]([H])([H])C([H])(C([H])([H])C([H])([H])[H])C3([H])C([H])([H])N(C(=O)N4C([H])([H])C([H])([H])C([H])([H])C([H])(n5nc(-c6c([H])c([H])c(Oc7c([H])c([H])c(F)c([H])c7F)c([H])c6[H])c(C(=O)N([H])[H])c5N([H])[H])C4([H])[H])C([H])(C(=O)C([H])([H])[H])C([H])([N+]([H])([H])[H])C3([H])[H])c([H])c([H])c2C1([H])[H]

>  <smiles>  (63) 
[H]c1c([H])c([H])c2c(c1[H])C([H])([H])C([H])([H])C([H])([H])C2([H])N([H])C(=O)C1([H])N(C(=O)C([H])(N([H])C(=O)C([H])(N([H])C([H])([H])[H])C([H])([H])[H])C(C([H])([H])[H])(C([H])([H])[H])C([H])([H])[H])C([H])([H])c2c([H])c(OC([H])([H])C([H])([H])[N+]([H])([H])C([H])(C([H])([H])C([H])([H])[H])C3([H])C([H])([H])N(C(=O)N4C([H])([H])C([H])([H])C([H])([H])C([H])(n5nc(-c6c([H])c([H])c(Oc7c([H])c([H])c(F)c([H])c7F)c([H])c6[H])c(C(=O)N([H])[H])c5N([H])[H])C4([H])[H])C([H])(C(=O)C([H])([H])[H])C([H])([N+]([H])([H])[H])C3([H])[H])c([H])c([H])c2C1([H])[H]

$$$$
64:0:0
     RDKit          3D

 99107  0  0  1  0  0  0  0  0999 V2000
  -30.1200  -22.2570   19.0220 C   0  0  0  0  0  2  0  0  0  0  0  0
  -30.5800  -20.8390   19.4180 C   0  0  0  0  0  2  0  0  0  0  0  0
  -30.0530  -21.9630   21.4370 C   0  0  0  0  0  3  0  0  0  0  0  0
  -29.5350  -22.8920   20.2980 C   0  0  0  0  0  3  0  0  0  0  0  0
  -30.1580  -20.6120   20.8240 N   0  0  2  0  0  4  0  0  0  0  0  0
  -29.2070  -20.2700   20.7940 H   0  0  0  0  0  0  0  0  0  0  0  0
  -29.1260  -21.9360   22.6630 C   0  0  0  0  0  0  0  0  0  0  0  0
  -29.8090  -22.1540   23.9970 C   0  0  0  0  0  1  0  0  0  0  0  0
  -27.8780  -21.7290   22.6000 N   0  0  0  0  0  0  0  0  0  0  0  0
  -27.5140  -21.6240   21.6600 H   0  0  0  0  0  0  0  0  0  0  0  0
  -29.7940  -24.4290   20.4560 C   0  0  0  0  0  2  0  0  0  0  0  0
  -28.6710  -25.3010   19.8350 C   0  0  0  0  0  2  0  0  0  0  0  0
  -28.7570  -26.7130   20.1510 O   0  0  0  0  0  0  0  0  0  0  0  0
  -24.8930  -31.8190   23.3130 C   0  0  0  0  0  0  0  0  0  0  0  0
  -27.5880  -27.4640   20.1150 C   0  0  0  0  0  0  0  0  0  0  0  0
  -23.7120  -30.4620   21.6150 C   0  0  0  0  0  3  0  0  0  0  0  0
  -25.1870  -28.9840   20.1510 C   0  0  0  0  0  0  0  0  0  0  0  0
  -26.2400  -30.8300   21.4600 C   0  0  0  0  0  2  0  0  0  0  0  0
  -26.3390  -29.4790   20.7780 C   0  0  0  0  0  0  0  0  0  0  0  0
  -27.5380  -28.7260   20.7570 C   0  0  0  0  0  3  0  0  0  0  0  0
  -26.4200  -27.0080   19.4590 C   0  0  0  0  0  3  0  0  0  0  0  0
  -25.2270  -27.7490   19.4880 C   0  0  0  0  0  3  0  0  0  0  0  0
  -23.9410  -29.8370   20.2140 C   0  0  0  0  0  2  0  0  0  0  0  0
  -24.9660  -31.0530   22.1870 N   0  0  0  0  0  0  0  0  0  0  0  0
  -23.8030  -32.0670   23.8480 O   0  0  0  0  0  0  0  0  0  0  0  0
  -23.0580  -29.4040   22.5350 C   0  0  0  0  0  0  0  0  0  0  0  0
  -21.7330  -29.2290   22.3970 N   0  0  0  0  0  0  0  0  0  0  0  0
  -23.7400  -28.7530   23.3290 O   0  0  0  0  0  0  0  0  0  0  0  0
  -21.2470  -29.8150   21.7340 H   0  0  0  0  0  0  0  0  0  0  0  0
  -18.3580  -28.0130   22.8360 C   0  0  0  0  0  0  0  0  0  0  0  0
  -20.9150  -28.2650   23.1290 C   0  0  0  0  0  3  0  0  0  0  0  0
  -21.0200  -26.8520   22.5050 C   0  0  0  0  0  2  0  0  0  0  0  0
  -19.9230  -26.5640   21.4740 C   0  0  0  0  0  2  0  0  0  0  0  0
  -18.5390  -26.6850   22.1180 C   0  0  0  0  0  2  0  0  0  0  0  0
  -19.4740  -28.7590   23.2970 C   0  0  0  0  0  0  0  0  0  0  0  0
  -19.2510  -30.0000   23.9340 C   0  0  0  0  0  3  0  0  0  0  0  0
  -17.9450  -30.4940   24.1120 C   0  0  0  0  0  3  0  0  0  0  0  0
  -16.8430  -29.7420   23.6660 C   0  0  0  0  0  3  0  0  0  0  0  0
  -17.0500  -28.5050   23.0330 C   0  0  0  0  0  3  0  0  0  0  0  0
  -26.1700  -32.4380   23.9630 C   0  0  0  0  0  3  0  0  0  0  0  0
  -26.6780  -31.6350   25.2230 C   0  0  1  0  0  0  0  0  0  0  0  0
  -25.5730  -31.3720   26.2730 C   0  0  0  0  0  1  0  0  0  0  0  0
  -27.2630  -30.2670   24.8010 C   0  0  0  0  0  1  0  0  0  0  0  0
  -27.8210  -32.4130   25.9150 C   0  0  0  0  0  1  0  0  0  0  0  0
  -25.8550  -33.8260   24.3220 N   0  0  0  0  0  0  0  0  0  0  0  0
  -26.1890  -34.8980   23.5900 C   0  0  0  0  0  0  0  0  0  0  0  0
  -26.8690  -34.8190   22.5620 O   0  0  0  0  0  0  0  0  0  0  0  0
  -25.2570  -33.9600   25.1250 H   0  0  0  0  0  0  0  0  0  0  0  0
  -24.4550  -36.6910   23.2650 C   0  0  0  0  0  1  0  0  0  0  0  0
  -25.6920  -36.2730   24.0750 C   0  0  0  0  0  3  0  0  0  0  0  0
  -27.8160  -37.1490   24.9390 C   0  0  0  0  0  1  0  0  0  0  0  0
  -26.7190  -37.3330   23.9930 N   0  0  0  0  0  0  0  0  0  0  0  0
  -26.3060  -38.2450   24.1640 H   0  0  0  0  0  0  0  0  0  0  0  0
  -30.9670  -19.5750   21.5470 C   0  0  0  0  0  2  0  0  0  0  0  0
  -30.2580  -18.1900   21.6270 C   0  0  0  0  0  2  0  0  0  0  0  0
  -31.1930  -16.9270   21.5250 C   0  0  0  0  0  3  0  0  0  0  0  0
  -31.1700  -16.1840   22.8050 N   0  0  0  0  0  4  0  0  0  0  0  0
  -30.2600  -15.8150   23.0250 H   0  0  0  0  0  0  0  0  0  0  0  0
  -31.4340  -16.8080   23.5490 H   0  0  0  0  0  0  0  0  0  0  0  0
  -31.8420  -15.4350   22.8210 H   0  0  0  0  0  0  0  0  0  0  0  0
  -30.8700  -16.0480   20.2590 C   0  0  0  0  0  3  0  0  0  0  0  0
  -31.5380  -14.6320   20.2210 C   0  0  0  0  0  0  0  0  0  0  0  0
  -31.1130  -12.4340   19.2070 C   0  0  0  0  0  2  0  0  0  0  0  0
  -30.2160  -12.6300   17.9640 C   0  0  0  0  0  2  0  0  0  0  0  0
  -28.7250  -12.6230   18.3460 C   0  0  0  0  0  2  0  0  0  0  0  0
  -28.4050  -13.5290   19.5630 C   0  0  0  0  0  3  0  0  0  0  0  0
  -29.4280  -13.3300   20.7040 C   0  0  0  0  0  2  0  0  0  0  0  0
  -30.7820  -13.4980   20.1640 N   0  0  0  0  0  0  0  0  0  0  0  0
  -32.7450  -14.6070   19.9770 O   0  0  0  0  0  0  0  0  0  0  0  0
  -26.0470  -14.2960   20.2250 C   0  0  0  0  0  0  0  0  0  0  0  0
  -24.9220  -13.6040   20.5800 C   0  0  0  0  0  0  0  0  0  0  0  0
  -25.2930  -12.2260   20.5810 C   0  0  0  0  0  0  0  0  0  0  0  0
  -27.0340  -13.3470   20.0280 N   0  0  0  0  0  0  0  0  0  0  0  0
  -26.5870  -12.0970   20.3070 N   0  0  0  0  0  0  0  0  0  0  0  0
  -24.4770  -11.0190   20.7650 C   0  0  0  0  0  0  0  0  0  0  0  0
  -24.8200  -10.0360   21.7210 C   0  0  0  0  0  3  0  0  0  0  0  0
  -24.0170   -8.8880   21.8910 C   0  0  0  0  0  3  0  0  0  0  0  0
  -22.8550   -8.7140   21.1050 C   0  0  0  0  0  0  0  0  0  0  0  0
  -22.5290   -9.6820   20.1380 C   0  0  0  0  0  3  0  0  0  0  0  0
  -23.3300  -10.8250   19.9670 C   0  0  0  0  0  3  0  0  0  0  0  0
  -22.0220   -7.6250   21.1890 O   0  0  0  0  0  0  0  0  0  0  0  0
  -21.8620   -6.9310   22.3620 C   0  0  0  0  0  0  0  0  0  0  0  0
  -21.4330   -7.5620   23.5500 C   0  0  0  0  0  3  0  0  0  0  0  0
  -21.2090   -6.7950   24.7110 C   0  0  0  0  0  3  0  0  0  0  0  0
  -21.4100   -5.4010   24.6850 C   0  0  0  0  0  0  0  0  0  0  0  0
  -21.8320   -4.7710   23.5010 C   0  0  0  0  0  3  0  0  0  0  0  0
  -22.0520   -5.5350   22.3420 C   0  0  0  0  0  0  0  0  0  0  0  0
  -22.4380   -4.9180   21.1980 F   0  0  0  0  0  0  0  0  0  0  0  0
  -21.1900   -4.6660   25.8010 F   0  0  0  0  0  0  0  0  0  0  0  0
  -23.5530  -14.1790   20.8110 C   0  0  0  0  0  0  0  0  0  0  0  0
  -22.7590  -13.5610   21.6790 N   0  0  0  0  0  0  0  0  0  0  0  0
  -23.1990  -15.2130   20.2440 O   0  0  0  0  0  0  0  0  0  0  0  0
  -23.0530  -12.7220   22.1580 H   0  0  0  0  0  0  0  0  0  0  0  0
  -21.8400  -13.9370   21.8660 H   0  0  0  0  0  0  0  0  0  0  0  0
  -26.3010  -15.6500   20.0250 N   0  0  0  0  0  0  0  0  0  0  0  0
  -25.5400  -16.3150   19.9410 H   0  0  0  0  0  0  0  0  0  0  0  0
  -27.1850  -16.0180   19.6980 H   0  0  0  0  0  0  0  0  0  0  0  0
  -31.0330  -16.2140   17.6150 C   0  0  0  0  0  1  0  0  0  0  0  0
  -31.3120  -16.8510   18.9840 C   0  0  0  0  0  2  0  0  0  0  0  0
  1  2  1  0
  1  4  1  0
  2  5  1  0
  3  7  1  0
  4 11  1  0
  4  3  1  0
  5  3  1  0
  5 54  1  0
  5  6  1  6
  7  8  1  0
  9  7  2  0
 10  9  1  0
 12 13  1  0
 12 11  1  0
 14 25  2  0
 15 13  1  0
 15 20  1  0
 16 24  1  0
 16 26  1  0
 17 23  1  0
 17 19  1  0
 18 24  1  0
 19 18  1  0
 20 19  2  0
 21 22  1  0
 21 15  2  0
 22 17  2  0
 23 16  1  0
 24 14  1  0
 26 28  2  0
 27 26  1  0
 29 27  1  0
 30 39  2  0
 30 35  1  0
 31 27  1  0
 31 35  1  0
 32 31  1  0
 33 34  1  0
 33 32  1  0
 34 30  1  0
 35 36  2  0
 36 37  1  0
 38 37  2  0
 39 38  1  0
 40 14  1  0
 40 45  1  0
 40 41  1  0
 41 44  1  1
 41 42  1  0
 43 41  1  0
 45 48  1  0
 46 50  1  0
 46 45  1  0
 47 46  2  0
 50 49  1  0
 52 50  1  0
 52 53  1  0
 52 51  1  0
 54 55  1  0
 56 55  1  0
 56 57  1  0
 57 60  1  0
 57 58  1  0
 57 59  1  0
 61 99  1  0
 61 56  1  0
 62 61  1  0
 63 68  1  0
 64 65  1  0
 64 63  1  0
 66 65  1  0
 66 73  1  0
 66 67  1  0
 68 62  1  0
 68 67  1  0
 69 62  2  0
 70 71  2  0
 71 72  1  0
 71 90  1  0
 72 75  1  0
 73 70  1  0
 73 74  1  0
 74 72  2  0
 75 76  1  0
 76 77  2  0
 78 81  1  0
 78 77  1  0
 79 78  2  0
 80 79  1  0
 80 75  2  0
 81 82  1  0
 82 83  1  0
 83 84  2  0
 85 84  1  0
 85 89  1  0
 86 85  2  0
 87 82  2  0
 87 86  1  0
 88 87  1  0
 90 91  1  0
 91 94  1  0
 91 93  1  0
 92 90  2  0
 95 70  1  0
 96 95  1  0
 97 95  1  0
 98 99  1  0
M  ISO  4  12 101  13 101  61 100  62 100
M  END
>  <TORSDO>  (64) 
F 25

>  <SCORE>  (64) 
-10.451

>  <name>  (64) 
64

>  <ligand_id>  (64) 
64

>  <original_smiles>  (64) 
[H]N=C(C([H])([H])[H])C1([H])C([H])(C([H])([H])C([H])([H])Oc2c([H])c([H])c3c(c2[H])C([H])([H])N(C(=O)C([H])(N([H])C(=O)C([H])(N([H])C([H])([H])[H])C([H])([H])[H])C(C([H])([H])[H])(C([H])([H])[H])C([H])([H])[H])C([H])(C(=O)N([H])C2([H])c4c([H])c([H])c([H])c([H])c4C([H])([H])C([H])([H])C2([H])[H])C3([H])[H])C([H])([H])C([H])([H])[N+]1([H])C([H])([H])C([H])([H])C([H])(C([H])(C(=O)N1C([H])([H])C([H])([H])C([H])([H])C([H])(n2nc(-c3c([H])c([H])c(Oc4c([H])c([H])c(F)c([H])c4F)c([H])c3[H])c(C(=O)N([H])[H])c2N([H])[H])C1([H])[H])C([H])([H])C([H])([H])[H])[N+]([H])([H])[H]

>  <smiles>  (64) 
[H]N=C(C([H])([H])[H])C1([H])C([H])(C([H])([H])C([H])([H])Oc2c([H])c([H])c3c(c2[H])C([H])([H])N(C(=O)C([H])(N([H])C(=O)C([H])(N([H])C([H])([H])[H])C([H])([H])[H])C(C([H])([H])[H])(C([H])([H])[H])C([H])([H])[H])C([H])(C(=O)N([H])C2([H])c4c([H])c([H])c([H])c([H])c4C([H])([H])C([H])([H])C2([H])[H])C3([H])[H])C([H])([H])C([H])([H])[N+]1([H])C([H])([H])C([H])([H])C([H])(C([H])(C(=O)N1C([H])([H])C([H])([H])C([H])([H])C([H])(n2nc(-c3c([H])c([H])c(Oc4c([H])c([H])c(F)c([H])c4F)c([H])c3[H])c(C(=O)N([H])[H])c2N([H])[H])C1([H])[H])C([H])([H])C([H])([H])[H])[N+]([H])([H])[H]

$$$$
65:0:0
     RDKit          3D

 95104  0  0  1  0  0  0  0  0999 V2000
  -31.5820  -19.0190   21.7340 C   0  0  0  0  0  3  0  0  0  0  0  0
  -29.2750  -18.4940   20.3070 C   0  0  0  0  0  3  0  0  0  0  0  0
  -30.8000  -20.1140   21.3090 C   0  0  0  0  0  0  0  0  0  0  0  0
  -31.2500  -17.6700   21.4700 C   0  0  0  0  0  0  0  0  0  0  0  0
  -29.6020  -19.8900   20.5870 C   0  0  0  0  0  0  0  0  0  0  0  0
  -30.0880  -17.3440   20.7060 C   0  0  0  0  0  0  0  0  0  0  0  0
  -30.1730  -22.6020   21.5420 C   0  0  0  0  0  2  0  0  0  0  0  0
  -31.2710  -21.5250   21.6820 C   0  0  0  0  0  3  0  0  0  0  0  0
  -29.3070  -22.4710   20.2740 C   0  0  0  0  0  3  0  0  0  0  0  0
  -32.1730  -16.6290   22.0910 C   0  0  0  0  0  1  0  0  0  0  0  0
  -32.5490  -21.9120   20.9150 C   0  0  0  0  0  1  0  0  0  0  0  0
  -28.7950  -21.0410   20.2210 N   0  0  0  0  0  0  0  0  0  0  0  0
  -27.9580  -20.8730   19.6680 H   0  0  0  0  0  0  0  0  0  0  0  0
  -30.4040  -14.8080   20.0140 C   0  0  0  0  0  0  0  0  0  0  0  0
  -30.1190  -12.5850   18.8990 C   0  0  0  0  0  2  0  0  0  0  0  0
  -29.0890  -12.7060   17.7560 C   0  0  0  0  0  2  0  0  0  0  0  0
  -27.6620  -12.4870   18.2940 C   0  0  0  0  0  2  0  0  0  0  0  0
  -27.3750  -13.3090   19.5790 C   0  0  0  0  0  3  0  0  0  0  0  0
  -28.5230  -13.1940   20.6070 C   0  0  0  0  0  2  0  0  0  0  0  0
  -29.7630  -13.5900   19.9290 N   0  0  0  0  0  0  0  0  0  0  0  0
  -31.5310  -14.9240   19.5270 O   0  0  0  0  0  0  0  0  0  0  0  0
  -29.6910  -15.9230   20.4490 N   0  0  0  0  0  0  0  0  0  0  0  0
  -28.7140  -15.7270   20.6080 H   0  0  0  0  0  0  0  0  0  0  0  0
  -25.0340  -13.8190   20.4930 C   0  0  0  0  0  0  0  0  0  0  0  0
  -24.0170  -13.0080   20.9170 C   0  0  0  0  0  0  0  0  0  0  0  0
  -24.5090  -11.6710   20.8210 C   0  0  0  0  0  0  0  0  0  0  0  0
  -26.0790  -12.9730   20.1590 N   0  0  0  0  0  0  0  0  0  0  0  0
  -25.7750  -11.6740   20.4190 N   0  0  0  0  0  0  0  0  0  0  0  0
  -23.8290  -10.3860   21.0340 C   0  0  0  0  0  0  0  0  0  0  0  0
  -24.3040   -9.4470   21.9750 C   0  0  0  0  0  3  0  0  0  0  0  0
  -23.6230   -8.2270   22.1760 C   0  0  0  0  0  3  0  0  0  0  0  0
  -22.4530   -7.9360   21.4360 C   0  0  0  0  0  0  0  0  0  0  0  0
  -21.9980   -8.8660   20.4830 C   0  0  0  0  0  3  0  0  0  0  0  0
  -22.6790  -10.0770   20.2800 C   0  0  0  0  0  3  0  0  0  0  0  0
  -21.7390   -6.7670   21.5450 O   0  0  0  0  0  0  0  0  0  0  0  0
  -21.6790   -6.0690   22.7250 C   0  0  0  0  0  0  0  0  0  0  0  0
  -21.1710   -6.6480   23.9080 C   0  0  0  0  0  3  0  0  0  0  0  0
  -21.0620   -5.8730   25.0800 C   0  0  0  0  0  3  0  0  0  0  0  0
  -21.4510   -4.5200   25.0700 C   0  0  0  0  0  0  0  0  0  0  0  0
  -21.9500   -3.9410   23.8900 C   0  0  0  0  0  3  0  0  0  0  0  0
  -22.0620   -4.7120   22.7210 C   0  0  0  0  0  0  0  0  0  0  0  0
  -22.5250   -4.1430   21.5820 F   0  0  0  0  0  0  0  0  0  0  0  0
  -21.3390   -3.7730   26.1920 F   0  0  0  0  0  0  0  0  0  0  0  0
  -22.6320  -13.4430   21.3000 C   0  0  0  0  0  0  0  0  0  0  0  0
  -21.9840  -12.7090   22.1970 N   0  0  0  0  0  0  0  0  0  0  0  0
  -22.1340  -14.4660   20.8330 O   0  0  0  0  0  0  0  0  0  0  0  0
  -22.4030  -11.8820   22.5970 H   0  0  0  0  0  0  0  0  0  0  0  0
  -21.0560  -12.9810   22.4900 H   0  0  0  0  0  0  0  0  0  0  0  0
  -25.1490  -15.1970   20.3400 N   0  0  0  0  0  0  0  0  0  0  0  0
  -24.3730  -15.8230   20.5290 H   0  0  0  0  0  0  0  0  0  0  0  0
  -25.9630  -15.6770   19.9780 H   0  0  0  0  0  0  0  0  0  0  0  0
  -28.2370  -23.7180   20.2140 C   0  0  0  0  0  2  0  0  0  0  0  0
  -29.9610  -25.2380   18.9630 C   0  0  0  0  0  1  0  0  0  0  0  0
  -28.5120  -25.1500   19.4590 C   0  0  0  0  0  3  0  0  0  0  0  0
  -28.3070  -26.4990   20.0920 O   0  0  0  0  0  0  0  0  0  0  0  0
  -24.5920  -31.8750   23.1640 C   0  0  0  0  0  0  0  0  0  0  0  0
  -27.1620  -27.3280   20.0090 C   0  0  0  0  0  0  0  0  0  0  0  0
  -23.3550  -30.4910   21.5300 C   0  0  0  0  0  3  0  0  0  0  0  0
  -24.7820  -28.9510   20.0550 C   0  0  0  0  0  0  0  0  0  0  0  0
  -25.8870  -30.8160   21.2930 C   0  0  0  0  0  2  0  0  0  0  0  0
  -25.9590  -29.4400   20.6320 C   0  0  0  0  0  0  0  0  0  0  0  0
  -27.1430  -28.6370   20.5990 C   0  0  0  0  0  3  0  0  0  0  0  0
  -25.9570  -26.8980   19.4080 C   0  0  0  0  0  3  0  0  0  0  0  0
  -24.7860  -27.6900   19.4300 C   0  0  0  0  0  3  0  0  0  0  0  0
  -23.5420  -29.8240   20.1390 C   0  0  0  0  0  2  0  0  0  0  0  0
  -24.6320  -31.0810   22.0540 N   0  0  0  0  0  0  0  0  0  0  0  0
  -23.5230  -32.1420   23.7310 O   0  0  0  0  0  0  0  0  0  0  0  0
  -22.7150  -29.4670   22.5010 C   0  0  0  0  0  0  0  0  0  0  0  0
  -21.3870  -29.2850   22.4010 N   0  0  0  0  0  0  0  0  0  0  0  0
  -23.4140  -28.8420   23.3030 O   0  0  0  0  0  0  0  0  0  0  0  0
  -20.8810  -29.8440   21.7300 H   0  0  0  0  0  0  0  0  0  0  0  0
  -18.0290  -28.0570   22.9510 C   0  0  0  0  0  0  0  0  0  0  0  0
  -20.5900  -28.3370   23.1830 C   0  0  0  0  0  3  0  0  0  0  0  0
  -20.6960  -26.9100   22.5990 C   0  0  0  0  0  2  0  0  0  0  0  0
  -19.5820  -26.5830   21.6000 C   0  0  0  0  0  2  0  0  0  0  0  0
  -18.2070  -26.7140   22.2640 C   0  0  0  0  0  2  0  0  0  0  0  0
  -19.1480  -28.8250   23.3700 C   0  0  0  0  0  0  0  0  0  0  0  0
  -18.9250  -30.0800   23.9750 C   0  0  0  0  0  3  0  0  0  0  0  0
  -17.6190  -30.5690   24.1620 C   0  0  0  0  0  3  0  0  0  0  0  0
  -16.5150  -29.7980   23.7590 C   0  0  0  0  0  3  0  0  0  0  0  0
  -16.7210  -28.5420   23.1600 C   0  0  0  0  0  3  0  0  0  0  0  0
  -25.8880  -32.5040   23.7660 C   0  0  0  0  0  3  0  0  0  0  0  0
  -25.5900  -33.9000   24.1150 N   0  0  0  0  0  0  0  0  0  0  0  0
  -25.9170  -34.9590   23.3630 C   0  0  0  0  0  0  0  0  0  0  0  0
  -26.5720  -34.8640   22.3220 O   0  0  0  0  0  0  0  0  0  0  0  0
  -25.0120  -34.0480   24.9280 H   0  0  0  0  0  0  0  0  0  0  0  0
  -24.2000  -36.7660   23.0460 C   0  0  0  0  0  1  0  0  0  0  0  0
  -25.4430  -36.3440   23.8450 C   0  0  0  0  0  3  0  0  0  0  0  0
  -27.5870  -37.2030   24.6750 C   0  0  0  0  0  1  0  0  0  0  0  0
  -26.4810  -37.3950   23.7400 N   0  0  0  0  0  0  0  0  0  0  0  0
  -26.0810  -38.3130   23.9100 H   0  0  0  0  0  0  0  0  0  0  0  0
  -26.4290  -31.7270   25.0290 C   0  0  1  0  0  0  0  0  0  0  0  0
  -25.3520  -31.4730   26.1100 C   0  0  0  0  0  1  0  0  0  0  0  0
  -27.0140  -30.3590   24.6120 C   0  0  0  0  0  1  0  0  0  0  0  0
  -27.5800  -32.5250   25.6830 C   0  0  0  0  0  1  0  0  0  0  0  0
  2  5  2  0
  2  6  1  0
  3  8  1  0
  3  1  2  0
  4  1  1  0
  4 10  1  0
  5  3  1  0
  6  4  2  0
  7  8  1  0
  8 11  1  0
  9 52  1  0
  9  7  1  0
 12  9  1  0
 12  5  1  0
 13 12  1  0
 14 22  1  0
 15 20  1  0
 16 17  1  0
 16 15  1  0
 18 17  1  0
 18 27  1  0
 18 19  1  0
 20 14  1  0
 20 19  1  0
 21 14  2  0
 22 23  1  0
 22  6  1  0
 24 25  2  0
 25 44  1  0
 26 25  1  0
 26 29  1  0
 27 28  1  0
 27 24  1  0
 28 26  2  0
 29 30  1  0
 30 31  2  0
 32 35  1  0
 32 31  1  0
 33 32  2  0
 34 33  1  0
 34 29  2  0
 35 36  1  0
 36 37  1  0
 37 38  2  0
 39 38  1  0
 39 43  1  0
 40 39  2  0
 41 36  2  0
 41 40  1  0
 42 41  1  0
 44 45  1  0
 45 48  1  0
 45 47  1  0
 46 44  2  0
 49 24  1  0
 49 50  1  0
 51 49  1  0
 54 53  1  0
 54 55  1  0
 54 52  1  0
 56 67  2  0
 57 55  1  0
 57 62  1  0
 58 66  1  0
 58 68  1  0
 59 65  1  0
 59 61  1  0
 60 66  1  0
 61 60  1  0
 62 61  2  0
 63 64  1  0
 63 57  2  0
 64 59  2  0
 65 58  1  0
 66 56  1  0
 68 70  2  0
 69 68  1  0
 71 69  1  0
 72 81  2  0
 72 77  1  0
 73 69  1  0
 73 77  1  0
 74 73  1  0
 75 76  1  0
 75 74  1  0
 76 72  1  0
 77 78  2  0
 78 79  1  0
 80 79  2  0
 81 80  1  0
 82 56  1  0
 82 83  1  0
 82 92  1  0
 83 86  1  0
 84 88  1  0
 84 83  1  0
 85 84  2  0
 88 87  1  0
 90 88  1  0
 90 91  1  0
 90 89  1  0
 92 95  1  1
 92 93  1  0
 94 92  1  0
M  ISO  4  14 100  22 100  54 101  55 101
M  END
>  <TORSDO>  (65) 
F 18

>  <SCORE>  (65) 
-12.940

>  <name>  (65) 
65

>  <ligand_id>  (65) 
65

>  <original_smiles>  (65) 
[H]c1c([H])c([H])c2c(c1[H])C([H])([H])C([H])([H])C([H])([H])C2([H])N([H])C(=O)C1([H])N(C(=O)C([H])(N([H])C(=O)C([H])(N([H])C([H])([H])[H])C([H])([H])[H])C(C([H])([H])[H])(C([H])([H])[H])C([H])([H])[H])C([H])([H])c2c([H])c(OC([H])(C([H])([H])[H])C([H])([H])C3([H])N([H])c4c([H])c(N([H])C(=O)N5C([H])([H])C([H])([H])C([H])([H])C([H])(n6nc(-c7c([H])c([H])c(Oc8c([H])c([H])c(F)c([H])c8F)c([H])c7[H])c(C(=O)N([H])[H])c6N([H])[H])C5([H])[H])c(C([H])([H])[H])c([H])c4C([H])(C([H])([H])[H])C3([H])[H])c([H])c([H])c2C1([H])[H]

>  <smiles>  (65) 
[H]c1c([H])c([H])c2c(c1[H])C([H])([H])C([H])([H])C([H])([H])C2([H])N([H])C(=O)C1([H])N(C(=O)C([H])(N([H])C(=O)C([H])(N([H])C([H])([H])[H])C([H])([H])[H])C(C([H])([H])[H])(C([H])([H])[H])C([H])([H])[H])C([H])([H])c2c([H])c(OC([H])(C([H])([H])[H])C([H])([H])C3([H])N([H])c4c([H])c(N([H])C(=O)N5C([H])([H])C([H])([H])C([H])([H])C([H])(n6nc(-c7c([H])c([H])c(Oc8c([H])c([H])c(F)c([H])c8F)c([H])c7[H])c(C(=O)N([H])[H])c6N([H])[H])C5([H])[H])c(C([H])([H])[H])c([H])c4C([H])(C([H])([H])[H])C3([H])[H])c([H])c([H])c2C1([H])[H]

$$$$
66:0:0
     RDKit          3D

 93101  0  0  1  0  0  0  0  0999 V2000
  -30.6750  -23.1380   21.9500 C   0  0  0  0  0  2  0  0  0  0  0  0
  -29.1840  -23.1720   22.2440 C   0  0  0  0  0  2  0  0  0  0  0  0
  -30.8900  -21.9690   20.9670 C   0  0  0  0  0  3  0  0  0  0  0  0
  -29.4610  -21.5640   20.4420 C   0  0  0  0  0  3  0  0  0  0  0  0
  -28.5430  -22.6550   21.0270 N   0  0  2  0  0  4  0  0  0  0  0  0
  -27.7560  -22.1190   21.3650 H   0  0  0  0  0  0  0  0  0  0  0  0
  -31.9600  -22.3360   19.9020 C   0  0  0  0  0  2  0  0  0  0  0  0
  -33.9950  -21.1250   20.9490 C   0  0  0  0  0  1  0  0  0  0  0  0
  -34.3590  -23.0550   19.3830 C   0  0  0  0  0  1  0  0  0  0  0  0
  -33.4170  -22.4610   20.4440 C   0  0  0  0  0  3  0  0  0  0  0  0
  -29.1050  -20.0260   20.9090 C   0  0  0  0  0  2  0  0  0  0  0  0
  -29.2400  -18.7300   19.9350 C   0  0  0  0  0  2  0  0  0  0  0  0
  -29.6540  -16.0730   20.2780 C   0  0  0  0  0  3  0  0  0  0  0  0
  -30.0860  -17.3990   20.2090 C   0  0  0  0  0  3  0  0  0  0  0  0
  -30.5290  -14.8290   20.2290 C   0  0  0  0  0  0  0  0  0  0  0  0
  -30.3480  -12.5190   19.2900 C   0  0  0  0  0  2  0  0  0  0  0  0
  -29.4030  -12.5910   18.0680 C   0  0  0  0  0  2  0  0  0  0  0  0
  -27.9380  -12.3810   18.5100 C   0  0  0  0  0  2  0  0  0  0  0  0
  -27.5580  -13.2600   19.7310 C   0  0  0  0  0  3  0  0  0  0  0  0
  -28.6340  -13.2320   20.8370 C   0  0  0  0  0  2  0  0  0  0  0  0
  -29.9230  -13.5840   20.2300 N   0  0  0  0  0  0  0  0  0  0  0  0
  -31.7250  -14.8930   19.9390 O   0  0  0  0  0  0  0  0  0  0  0  0
  -25.1780  -13.8010   20.5280 C   0  0  0  0  0  0  0  0  0  0  0  0
  -24.1310  -13.0070   20.9110 C   0  0  0  0  0  0  0  0  0  0  0  0
  -24.6180  -11.6640   20.8570 C   0  0  0  0  0  0  0  0  0  0  0  0
  -26.2310  -12.9450   20.2540 N   0  0  0  0  0  0  0  0  0  0  0  0
  -25.8990  -11.6530   20.5120 N   0  0  0  0  0  0  0  0  0  0  0  0
  -23.9170  -10.3900   21.0550 C   0  0  0  0  0  0  0  0  0  0  0  0
  -24.3660   -9.4340   21.9930 C   0  0  0  0  0  3  0  0  0  0  0  0
  -23.6560   -8.2280   22.1820 C   0  0  0  0  0  3  0  0  0  0  0  0
  -22.4860   -7.9680   21.4270 C   0  0  0  0  0  0  0  0  0  0  0  0
  -22.0560   -8.9120   20.4770 C   0  0  0  0  0  3  0  0  0  0  0  0
  -22.7670  -10.1100   20.2870 C   0  0  0  0  0  3  0  0  0  0  0  0
  -21.7530   -6.8080   21.5170 O   0  0  0  0  0  0  0  0  0  0  0  0
  -21.7050   -6.0760   22.6780 C   0  0  0  0  0  0  0  0  0  0  0  0
  -21.2400   -6.6310   23.8890 C   0  0  0  0  0  3  0  0  0  0  0  0
  -21.1380   -5.8250   25.0400 C   0  0  0  0  0  3  0  0  0  0  0  0
  -21.4940   -4.4650   24.9830 C   0  0  0  0  0  0  0  0  0  0  0  0
  -21.9540   -3.9090   23.7740 C   0  0  0  0  0  3  0  0  0  0  0  0
  -22.0570   -4.7120   22.6250 C   0  0  0  0  0  0  0  0  0  0  0  0
  -22.4820   -4.1660   21.4600 F   0  0  0  0  0  0  0  0  0  0  0  0
  -21.3890   -3.6900   26.0860 F   0  0  0  0  0  0  0  0  0  0  0  0
  -22.7340  -13.4630   21.2150 C   0  0  0  0  0  0  0  0  0  0  0  0
  -22.0340  -12.7490   22.0870 N   0  0  0  0  0  0  0  0  0  0  0  0
  -22.2750  -14.4930   20.7170 O   0  0  0  0  0  0  0  0  0  0  0  0
  -22.4230  -11.9230   22.5210 H   0  0  0  0  0  0  0  0  0  0  0  0
  -21.0970  -13.0360   22.3320 H   0  0  0  0  0  0  0  0  0  0  0  0
  -25.3090  -15.1760   20.3600 N   0  0  0  0  0  0  0  0  0  0  0  0
  -24.5190  -15.8020   20.4870 H   0  0  0  0  0  0  0  0  0  0  0  0
  -26.1310  -15.6530   20.0190 H   0  0  0  0  0  0  0  0  0  0  0  0
  -27.8390  -23.7500   20.1920 C   0  0  0  0  0  2  0  0  0  0  0  0
  -28.5040  -25.1580   19.7590 C   0  0  0  0  0  2  0  0  0  0  0  0
  -28.3030  -26.5060   20.3800 O   0  0  0  0  0  0  0  0  0  0  0  0
  -24.6520  -31.9440   23.3420 C   0  0  0  0  0  0  0  0  0  0  0  0
  -27.1840  -27.3540   20.2390 C   0  0  0  0  0  0  0  0  0  0  0  0
  -23.4230  -30.5870   21.6840 C   0  0  0  0  0  3  0  0  0  0  0  0
  -24.8450  -29.0200   20.2310 C   0  0  0  0  0  0  0  0  0  0  0  0
  -25.9650  -30.8640   21.4900 C   0  0  0  0  0  2  0  0  0  0  0  0
  -26.0190  -29.4870   20.8320 C   0  0  0  0  0  0  0  0  0  0  0  0
  -27.1880  -28.6640   20.8220 C   0  0  0  0  0  3  0  0  0  0  0  0
  -25.9930  -26.9420   19.6080 C   0  0  0  0  0  3  0  0  0  0  0  0
  -24.8350  -27.7560   19.6110 C   0  0  0  0  0  3  0  0  0  0  0  0
  -23.6250  -29.9220   20.2950 C   0  0  0  0  0  2  0  0  0  0  0  0
  -24.7020  -31.1480   22.2310 N   0  0  0  0  0  0  0  0  0  0  0  0
  -23.5750  -32.2320   23.8810 O   0  0  0  0  0  0  0  0  0  0  0  0
  -22.7450  -29.5730   22.6330 C   0  0  0  0  0  0  0  0  0  0  0  0
  -21.4190  -29.4050   22.4950 N   0  0  0  0  0  0  0  0  0  0  0  0
  -23.4110  -28.9350   23.4540 O   0  0  0  0  0  0  0  0  0  0  0  0
  -20.9420  -29.9660   21.8020 H   0  0  0  0  0  0  0  0  0  0  0  0
  -18.0300  -28.2150   22.9300 C   0  0  0  0  0  0  0  0  0  0  0  0
  -20.5840  -28.4690   23.2500 C   0  0  0  0  0  3  0  0  0  0  0  0
  -20.6960  -27.0390   22.6730 C   0  0  0  0  0  2  0  0  0  0  0  0
  -19.6130  -26.7190   21.6390 C   0  0  0  0  0  2  0  0  0  0  0  0
  -18.2170  -26.8680   22.2530 C   0  0  0  0  0  2  0  0  0  0  0  0
  -19.1430  -28.9750   23.3830 C   0  0  0  0  0  0  0  0  0  0  0  0
  -18.9150  -30.2340   23.9760 C   0  0  0  0  0  3  0  0  0  0  0  0
  -17.6080  -30.7380   24.1180 C   0  0  0  0  0  3  0  0  0  0  0  0
  -16.5100  -29.9770   23.6790 C   0  0  0  0  0  3  0  0  0  0  0  0
  -16.7220  -28.7190   23.0920 C   0  0  0  0  0  3  0  0  0  0  0  0
  -25.9430  -32.5460   23.9740 C   0  0  0  0  0  3  0  0  0  0  0  0
  -25.6600  -33.9470   24.3240 N   0  0  0  0  0  0  0  0  0  0  0  0
  -26.0210  -35.0030   23.5820 C   0  0  0  0  0  0  0  0  0  0  0  0
  -26.6970  -34.9000   22.5560 O   0  0  0  0  0  0  0  0  0  0  0  0
  -25.0610  -34.1030   25.1210 H   0  0  0  0  0  0  0  0  0  0  0  0
  -24.3410  -36.8450   23.2350 C   0  0  0  0  0  1  0  0  0  0  0  0
  -25.5610  -36.3960   24.0560 C   0  0  0  0  0  3  0  0  0  0  0  0
  -27.7030  -37.2180   24.9320 C   0  0  0  0  0  1  0  0  0  0  0  0
  -26.6210  -37.4260   23.9740 N   0  0  0  0  0  0  0  0  0  0  0  0
  -26.2340  -38.3540   24.1260 H   0  0  0  0  0  0  0  0  0  0  0  0
  -26.4360  -31.7520   25.2450 C   0  0  1  0  0  0  0  0  0  0  0  0
  -25.3310  -31.5270   26.3050 C   0  0  0  0  0  1  0  0  0  0  0  0
  -26.9960  -30.3700   24.8350 C   0  0  0  0  0  1  0  0  0  0  0  0
  -27.5960  -32.5190   25.9260 C   0  0  0  0  0  1  0  0  0  0  0  0
  1  2  1  0
  3  7  1  0
  3  1  1  0
  4 11  1  0
  4  3  1  0
  4  5  1  0
  5  6  1  1
  5  2  1  0
  7 10  1  0
  9 10  1  0
 10  8  1  0
 12 14  1  0
 12 11  1  0
 14 13  2  0
 15 21  1  0
 15 13  1  0
 16 21  1  0
 17 18  1  0
 17 16  1  0
 19 18  1  0
 19 26  1  0
 19 20  1  0
 21 20  1  0
 22 15  2  0
 23 24  2  0
 24 43  1  0
 25 24  1  0
 25 28  1  0
 26 27  1  0
 26 23  1  0
 27 25  2  0
 28 29  1  0
 29 30  2  0
 31 34  1  0
 31 30  1  0
 32 31  2  0
 33 32  1  0
 33 28  2  0
 34 35  1  0
 35 36  1  0
 36 37  2  0
 38 37  1  0
 38 42  1  0
 39 38  2  0
 40 35  2  0
 40 39  1  0
 41 40  1  0
 43 44  1  0
 44 47  1  0
 44 46  1  0
 45 43  2  0
 48 49  1  0
 48 23  1  0
 50 48  1  0
 51  5  1  0
 52 51  1  0
 52 53  1  0
 54 65  2  0
 55 53  1  0
 55 60  1  0
 56 64  1  0
 56 66  1  0
 57 63  1  0
 57 59  1  0
 58 64  1  0
 59 58  1  0
 60 59  2  0
 61 62  1  0
 61 55  2  0
 62 57  2  0
 63 56  1  0
 64 54  1  0
 66 68  2  0
 67 66  1  0
 69 67  1  0
 70 79  2  0
 70 75  1  0
 71 67  1  0
 71 75  1  0
 72 71  1  0
 73 74  1  0
 73 72  1  0
 74 70  1  0
 75 76  2  0
 76 77  1  0
 78 77  2  0
 79 78  1  0
 80 54  1  0
 80 81  1  0
 80 90  1  0
 81 84  1  0
 82 86  1  0
 82 81  1  0
 83 82  2  0
 86 85  1  0
 88 86  1  0
 88 89  1  0
 88 87  1  0
 90 93  1  1
 90 91  1  0
 92 90  1  0
M  ISO  4  13 100  15 100  52 101  53 101
M  END
>  <TORSDO>  (66) 
F 23

>  <SCORE>  (66) 
-12.589

>  <name>  (66) 
66

>  <ligand_id>  (66) 
66

>  <original_smiles>  (66) 
[H]C(C(=O)N1C([H])([H])C([H])([H])C([H])([H])C([H])(n2nc(-c3c([H])c([H])c(Oc4c([H])c([H])c(F)c([H])c4F)c([H])c3[H])c(C(=O)N([H])[H])c2N([H])[H])C1([H])[H])=C([H])C([H])([H])C([H])([H])C1([H])C([H])(C([H])([H])C([H])(C([H])([H])[H])C([H])([H])[H])C([H])([H])C([H])([H])[N+]1([H])C([H])([H])C([H])([H])Oc1c([H])c([H])c2c(c1[H])C([H])([H])N(C(=O)C([H])(N([H])C(=O)C([H])(N([H])C([H])([H])[H])C([H])([H])[H])C(C([H])([H])[H])(C([H])([H])[H])C([H])([H])[H])C([H])(C(=O)N([H])C1([H])c3c([H])c([H])c([H])c([H])c3C([H])([H])C([H])([H])C1([H])[H])C2([H])[H]

>  <smiles>  (66) 
[H]C(C(=O)N1C([H])([H])C([H])([H])C([H])([H])C([H])(n2nc(-c3c([H])c([H])c(Oc4c([H])c([H])c(F)c([H])c4F)c([H])c3[H])c(C(=O)N([H])[H])c2N([H])[H])C1([H])[H])=C([H])C([H])([H])C([H])([H])C1([H])C([H])(C([H])([H])C([H])(C([H])([H])[H])C([H])([H])[H])C([H])([H])C([H])([H])[N+]1([H])C([H])([H])C([H])([H])Oc1c([H])c([H])c2c(c1[H])C([H])([H])N(C(=O)C([H])(N([H])C(=O)C([H])(N([H])C([H])([H])[H])C([H])([H])[H])C(C([H])([H])[H])(C([H])([H])[H])C([H])([H])[H])C([H])(C(=O)N([H])C1([H])c3c([H])c([H])c([H])c([H])c3C([H])([H])C([H])([H])C1([H])[H])C2([H])[H]

$$$$
67:0:0
     RDKit          3D

 95103  0  0  1  0  0  0  0  0999 V2000
  -27.9410  -19.7690   20.4020 C   0  0  0  0  0  2  0  0  0  0  0  0
  -28.4380  -18.3310   20.1190 C   0  0  0  0  0  2  0  0  0  0  0  0
  -30.2720  -20.6680   20.2920 C   0  0  0  0  0  2  0  0  0  0  0  0
  -28.8530  -20.8080   19.7080 C   0  0  0  0  0  3  0  0  0  0  0  0
  -29.9240  -18.1300   20.5170 C   0  0  0  0  0  3  0  0  0  0  0  0
  -30.8440  -19.2770   19.9850 C   0  0  0  0  0  3  0  0  0  0  0  0
  -31.1470  -19.1630   18.5390 N   0  0  0  0  0  4  0  0  0  0  0  0
  -30.3190  -19.2350   17.9770 H   0  0  0  0  0  0  0  0  0  0  0  0
  -31.5940  -18.2870   18.3290 H   0  0  0  0  0  0  0  0  0  0  0  0
  -31.7860  -19.8890   18.2610 H   0  0  0  0  0  0  0  0  0  0  0  0
  -28.3510  -22.2630   19.7370 C   0  0  0  0  0  0  0  0  0  0  0  0
  -27.2480  -22.5560   20.2050 O   0  0  0  0  0  0  0  0  0  0  0  0
  -29.2720  -23.3090   19.0850 C   0  0  0  0  0  2  0  0  0  0  0  0
  -28.7290  -24.7430   18.9760 C   0  0  0  0  0  2  0  0  0  0  0  0
  -28.4870  -25.4210   20.3340 C   0  0  0  0  0  2  0  0  0  0  0  0
  -28.4780  -26.8340   20.1800 O   0  0  0  0  0  0  0  0  0  0  0  0
  -24.5800  -31.8890   23.2310 C   0  0  0  0  0  0  0  0  0  0  0  0
  -27.2670  -27.4830   20.1730 C   0  0  0  0  0  0  0  0  0  0  0  0
  -23.3830  -30.4710   21.5910 C   0  0  0  0  0  3  0  0  0  0  0  0
  -24.8480  -28.9340   20.1860 C   0  0  0  0  0  0  0  0  0  0  0  0
  -25.9020  -30.8620   21.3870 C   0  0  0  0  0  2  0  0  0  0  0  0
  -26.0000  -29.4890   20.7560 C   0  0  0  0  0  0  0  0  0  0  0  0
  -27.2130  -28.7740   20.7360 C   0  0  0  0  0  3  0  0  0  0  0  0
  -26.0940  -26.9230   19.6170 C   0  0  0  0  0  3  0  0  0  0  0  0
  -24.8860  -27.6480   19.6190 C   0  0  0  0  0  3  0  0  0  0  0  0
  -23.5990  -29.7810   20.2190 C   0  0  0  0  0  2  0  0  0  0  0  0
  -24.6400  -31.0890   22.1290 N   0  0  0  0  0  0  0  0  0  0  0  0
  -23.4960  -32.1570   23.7690 O   0  0  0  0  0  0  0  0  0  0  0  0
  -22.7380  -29.4530   22.5570 C   0  0  0  0  0  0  0  0  0  0  0  0
  -21.4140  -29.2740   22.4330 N   0  0  0  0  0  0  0  0  0  0  0  0
  -23.4260  -28.8280   23.3690 O   0  0  0  0  0  0  0  0  0  0  0  0
  -20.9250  -29.8300   21.7460 H   0  0  0  0  0  0  0  0  0  0  0  0
  -18.0390  -28.0900   22.9370 C   0  0  0  0  0  0  0  0  0  0  0  0
  -20.5970  -28.3360   23.2040 C   0  0  0  0  0  3  0  0  0  0  0  0
  -20.6950  -26.9070   22.6200 C   0  0  0  0  0  2  0  0  0  0  0  0
  -19.5880  -26.5910   21.6090 C   0  0  0  0  0  2  0  0  0  0  0  0
  -18.2090  -26.7420   22.2580 C   0  0  0  0  0  2  0  0  0  0  0  0
  -19.1620  -28.8460   23.3660 C   0  0  0  0  0  0  0  0  0  0  0  0
  -18.9510  -30.1100   23.9580 C   0  0  0  0  0  3  0  0  0  0  0  0
  -17.6500  -30.6180   24.1270 C   0  0  0  0  0  3  0  0  0  0  0  0
  -16.5410  -29.8570   23.7180 C   0  0  0  0  0  3  0  0  0  0  0  0
  -16.7370  -28.5960   23.1290 C   0  0  0  0  0  3  0  0  0  0  0  0
  -25.8620  -32.5270   23.8520 C   0  0  0  0  0  3  0  0  0  0  0  0
  -25.5480  -33.9250   24.1760 N   0  0  0  0  0  0  0  0  0  0  0  0
  -25.8820  -34.9760   23.4160 C   0  0  0  0  0  0  0  0  0  0  0  0
  -26.5560  -34.8730   22.3880 O   0  0  0  0  0  0  0  0  0  0  0  0
  -24.9480  -34.0810   24.9730 H   0  0  0  0  0  0  0  0  0  0  0  0
  -24.1490  -36.7610   23.0460 C   0  0  0  0  0  1  0  0  0  0  0  0
  -25.3850  -36.3620   23.8670 C   0  0  0  0  0  3  0  0  0  0  0  0
  -27.5100  -37.2540   24.7160 C   0  0  0  0  0  1  0  0  0  0  0  0
  -26.4160  -37.4180   23.7640 N   0  0  0  0  0  0  0  0  0  0  0  0
  -26.0050  -38.3370   23.9090 H   0  0  0  0  0  0  0  0  0  0  0  0
  -26.3860  -31.7610   25.1280 C   0  0  1  0  0  0  0  0  0  0  0  0
  -25.2950  -31.5170   26.1980 C   0  0  0  0  0  1  0  0  0  0  0  0
  -26.9750  -30.3870   24.7340 C   0  0  0  0  0  1  0  0  0  0  0  0
  -27.5320  -32.5630   25.7900 C   0  0  0  0  0  1  0  0  0  0  0  0
  -30.5310  -16.7840   20.0720 C   0  0  0  0  0  2  0  0  0  0  0  0
  -30.7150  -14.4130   20.4510 C   0  0  0  0  0  0  0  0  0  0  0  0
  -30.3380  -12.2750   19.3320 C   0  0  0  0  0  2  0  0  0  0  0  0
  -29.4280  -12.5430   18.1190 C   0  0  0  0  0  2  0  0  0  0  0  0
  -27.9490  -12.4300   18.5350 C   0  0  0  0  0  2  0  0  0  0  0  0
  -27.6160  -13.2600   19.8050 C   0  0  0  0  0  3  0  0  0  0  0  0
  -28.6610  -13.0340   20.9230 C   0  0  0  0  0  2  0  0  0  0  0  0
  -29.9920  -13.2730   20.3540 N   0  0  0  0  0  0  0  0  0  0  0  0
  -31.8860  -14.4890   20.0670 O   0  0  0  0  0  0  0  0  0  0  0  0
  -30.0210  -15.5430   20.6680 N   0  0  0  0  0  0  0  0  0  0  0  0
  -29.0470  -15.4760   20.9260 H   0  0  0  0  0  0  0  0  0  0  0  0
  -25.2150  -13.8770   20.4850 C   0  0  0  0  0  0  0  0  0  0  0  0
  -24.1410  -13.1080   20.8480 C   0  0  0  0  0  0  0  0  0  0  0  0
  -24.6010  -11.7560   20.8310 C   0  0  0  0  0  0  0  0  0  0  0  0
  -26.2600  -12.9930   20.2740 N   0  0  0  0  0  0  0  0  0  0  0  0
  -25.8940  -11.7120   20.5390 N   0  0  0  0  0  0  0  0  0  0  0  0
  -23.8700  -10.4960   21.0210 C   0  0  0  0  0  0  0  0  0  0  0  0
  -24.2930   -9.5300   21.9610 C   0  0  0  0  0  3  0  0  0  0  0  0
  -23.5620   -8.3350   22.1380 C   0  0  0  0  0  3  0  0  0  0  0  0
  -22.3930   -8.0990   21.3780 C   0  0  0  0  0  0  0  0  0  0  0  0
  -21.9890   -9.0530   20.4260 C   0  0  0  0  0  3  0  0  0  0  0  0
  -22.7200  -10.2380   20.2480 C   0  0  0  0  0  3  0  0  0  0  0  0
  -21.6360   -6.9550   21.4630 O   0  0  0  0  0  0  0  0  0  0  0  0
  -21.5820   -6.2150   22.6160 C   0  0  0  0  0  0  0  0  0  0  0  0
  -21.1530   -6.7700   23.8410 C   0  0  0  0  0  3  0  0  0  0  0  0
  -21.0460   -5.9550   24.9860 C   0  0  0  0  0  3  0  0  0  0  0  0
  -21.3580   -4.5850   24.9050 C   0  0  0  0  0  0  0  0  0  0  0  0
  -21.7790   -4.0290   23.6850 C   0  0  0  0  0  3  0  0  0  0  0  0
  -21.8880   -4.8400   22.5430 C   0  0  0  0  0  0  0  0  0  0  0  0
  -22.2740   -4.2950   21.3640 F   0  0  0  0  0  0  0  0  0  0  0  0
  -21.2460   -3.7990   26.0020 F   0  0  0  0  0  0  0  0  0  0  0  0
  -22.7430  -13.5910   21.1030 C   0  0  0  0  0  0  0  0  0  0  0  0
  -22.0050  -12.8990   21.9650 N   0  0  0  0  0  0  0  0  0  0  0  0
  -22.3140  -14.6160   20.5750 O   0  0  0  0  0  0  0  0  0  0  0  0
  -22.3670  -12.0690   22.4110 H   0  0  0  0  0  0  0  0  0  0  0  0
  -21.0670  -13.2050   22.1800 H   0  0  0  0  0  0  0  0  0  0  0  0
  -25.3810  -15.2460   20.2960 N   0  0  0  0  0  0  0  0  0  0  0  0
  -24.6090  -15.8960   20.3880 H   0  0  0  0  0  0  0  0  0  0  0  0
  -26.2270  -15.6830   19.9560 H   0  0  0  0  0  0  0  0  0  0  0  0
  2  1  1  0
  2  5  1  0
  4 11  1  0
  4  3  1  0
  4  1  1  0
  5 57  1  0
  6  7  1  0
  6  3  1  0
  6  5  1  0
  8  7  1  0
  9  7  1  0
 10  7  1  0
 11 12  2  0
 13 11  1  0
 14 13  1  0
 14 15  1  0
 16 15  1  0
 17 28  2  0
 18 16  1  0
 18 23  1  0
 19 27  1  0
 19 29  1  0
 20 26  1  0
 20 22  1  0
 21 27  1  0
 22 21  1  0
 23 22  2  0
 24 25  1  0
 24 18  2  0
 25 20  2  0
 26 19  1  0
 27 17  1  0
 29 31  2  0
 30 29  1  0
 32 30  1  0
 33 42  2  0
 33 38  1  0
 34 30  1  0
 34 38  1  0
 35 34  1  0
 36 37  1  0
 36 35  1  0
 37 33  1  0
 38 39  2  0
 39 40  1  0
 41 40  2  0
 42 41  1  0
 43 17  1  0
 43 44  1  0
 43 53  1  0
 44 47  1  0
 45 49  1  0
 45 44  1  0
 46 45  2  0
 49 48  1  0
 51 49  1  0
 51 52  1  0
 51 50  1  0
 53 56  1  1
 53 54  1  0
 55 53  1  0
 57 66  1  0
 58 66  1  0
 59 64  1  0
 60 61  1  0
 60 59  1  0
 62 61  1  0
 62 71  1  0
 62 63  1  0
 64 58  1  0
 64 63  1  0
 65 58  2  0
 66 67  1  0
 68 69  2  0
 69 88  1  0
 70 69  1  0
 70 73  1  0
 71 68  1  0
 71 72  1  0
 72 70  2  0
 73 74  1  0
 74 75  2  0
 76 79  1  0
 76 75  1  0
 77 76  2  0
 78 77  1  0
 78 73  2  0
 79 80  1  0
 80 81  1  0
 81 82  2  0
 83 82  1  0
 83 87  1  0
 84 83  2  0
 85 80  2  0
 85 84  1  0
 86 85  1  0
 88 89  1  0
 89 92  1  0
 89 91  1  0
 90 88  2  0
 93 94  1  0
 93 68  1  0
 95 93  1  0
M  ISO  4  15 101  16 101  58 100  66 100
M  END
>  <TORSDO>  (67) 
F 22

>  <SCORE>  (67) 
-13.364

>  <name>  (67) 
67

>  <ligand_id>  (67) 
67

>  <original_smiles>  (67) 
[H]c1c([H])c([H])c2c(c1[H])C([H])([H])C([H])([H])C([H])([H])C2([H])N([H])C(=O)C1([H])N(C(=O)C([H])(N([H])C(=O)C([H])(N([H])C([H])([H])[H])C([H])([H])[H])C(C([H])([H])[H])(C([H])([H])[H])C([H])([H])[H])C([H])([H])c2c([H])c(OC([H])([H])C([H])([H])C([H])([H])C(=O)C3([H])C([H])([H])C([H])([H])C([H])(C([H])([H])N([H])C(=O)N4C([H])([H])C([H])([H])C([H])([H])C([H])(n5nc(-c6c([H])c([H])c(Oc7c([H])c([H])c(F)c([H])c7F)c([H])c6[H])c(C(=O)N([H])[H])c5N([H])[H])C4([H])[H])C([H])([N+]([H])([H])[H])C3([H])[H])c([H])c([H])c2C1([H])[H]

>  <smiles>  (67) 
[H]c1c([H])c([H])c2c(c1[H])C([H])([H])C([H])([H])C([H])([H])C2([H])N([H])C(=O)C1([H])N(C(=O)C([H])(N([H])C(=O)C([H])(N([H])C([H])([H])[H])C([H])([H])[H])C(C([H])([H])[H])(C([H])([H])[H])C([H])([H])[H])C([H])([H])c2c([H])c(OC([H])([H])C([H])([H])C([H])([H])C(=O)C3([H])C([H])([H])C([H])([H])C([H])(C([H])([H])N([H])C(=O)N4C([H])([H])C([H])([H])C([H])([H])C([H])(n5nc(-c6c([H])c([H])c(Oc7c([H])c([H])c(F)c([H])c7F)c([H])c6[H])c(C(=O)N([H])[H])c5N([H])[H])C4([H])[H])C([H])([N+]([H])([H])[H])C3([H])[H])c([H])c([H])c2C1([H])[H]

$$$$
68:0:0
     RDKit          3D

 95103  0  0  1  0  0  0  0  0999 V2000
  -29.1200  -21.0900   21.2660 C   0  0  0  0  0  0  0  0  0  0  0  0
  -28.6080  -22.2750   20.8890 N   0  0  0  0  0  0  0  0  0  0  0  0
  -29.4300  -20.8590   22.4370 O   0  0  0  0  0  0  0  0  0  0  0  0
  -28.3670  -22.4030   19.9150 H   0  0  0  0  0  0  0  0  0  0  0  0
  -29.1530  -18.5540   20.6270 C   0  0  0  0  0  2  0  0  0  0  0  0
  -30.8410  -20.0740   19.7240 C   0  0  0  0  0  2  0  0  0  0  0  0
  -29.3700  -20.0290   20.1700 C   0  0  0  0  0  3  0  0  0  0  0  0
  -30.5050  -17.8120   20.4770 C   0  0  0  0  0  3  0  0  0  0  0  0
  -31.5420  -18.9500   20.5000 C   0  0  0  0  0  3  0  0  0  0  0  0
  -33.0520  -18.0900   18.5570 C   0  0  0  0  0  1  0  0  0  0  0  0
  -33.9360  -19.7840   20.2130 C   0  0  0  0  0  1  0  0  0  0  0  0
  -32.9730  -18.6030   20.0060 C   0  0  0  0  0  3  0  0  0  0  0  0
  -30.7600  -16.7020   21.5340 C   0  0  0  0  0  2  0  0  0  0  0  0
  -30.7190  -14.4810   20.4070 C   0  0  0  0  0  0  0  0  0  0  0  0
  -30.3640  -12.3800   19.1650 C   0  0  0  0  0  2  0  0  0  0  0  0
  -29.4130  -12.6280   17.9770 C   0  0  0  0  0  2  0  0  0  0  0  0
  -27.9440  -12.4880   18.4180 C   0  0  0  0  0  2  0  0  0  0  0  0
  -27.6270  -13.2970   19.7040 C   0  0  0  0  0  3  0  0  0  0  0  0
  -28.6870  -13.0350   20.7970 C   0  0  0  0  0  2  0  0  0  0  0  0
  -30.0120  -13.3350   20.2280 N   0  0  0  0  0  0  0  0  0  0  0  0
  -31.7980  -14.6960   19.8490 O   0  0  0  0  0  0  0  0  0  0  0  0
  -30.1500  -15.4120   21.1910 N   0  0  0  0  0  0  0  0  0  0  0  0
  -29.2570  -15.1880   21.6050 H   0  0  0  0  0  0  0  0  0  0  0  0
  -25.2260  -13.9010   20.4070 C   0  0  0  0  0  0  0  0  0  0  0  0
  -24.1620  -13.1280   20.7870 C   0  0  0  0  0  0  0  0  0  0  0  0
  -24.6300  -11.7780   20.7700 C   0  0  0  0  0  0  0  0  0  0  0  0
  -26.2750  -13.0230   20.1870 N   0  0  0  0  0  0  0  0  0  0  0  0
  -25.9190  -11.7420   20.4610 N   0  0  0  0  0  0  0  0  0  0  0  0
  -23.9100  -10.5140   20.9770 C   0  0  0  0  0  0  0  0  0  0  0  0
  -24.3540   -9.5570   21.9150 C   0  0  0  0  0  3  0  0  0  0  0  0
  -23.6350   -8.3580   22.1080 C   0  0  0  0  0  3  0  0  0  0  0  0
  -22.4590   -8.1070   21.3620 C   0  0  0  0  0  0  0  0  0  0  0  0
  -22.0350   -9.0530   20.4130 C   0  0  0  0  0  3  0  0  0  0  0  0
  -22.7540  -10.2440   20.2180 C   0  0  0  0  0  3  0  0  0  0  0  0
  -21.7110   -6.9590   21.4640 O   0  0  0  0  0  0  0  0  0  0  0  0
  -21.6780   -6.2210   22.6200 C   0  0  0  0  0  0  0  0  0  0  0  0
  -21.2660   -6.7810   23.8490 C   0  0  0  0  0  3  0  0  0  0  0  0
  -21.1810   -5.9700   24.9980 C   0  0  0  0  0  3  0  0  0  0  0  0
  -21.4970   -4.6010   24.9190 C   0  0  0  0  0  0  0  0  0  0  0  0
  -21.9010   -4.0400   23.6950 C   0  0  0  0  0  3  0  0  0  0  0  0
  -21.9890   -4.8480   22.5480 C   0  0  0  0  0  0  0  0  0  0  0  0
  -22.3580   -4.2990   21.3660 F   0  0  0  0  0  0  0  0  0  0  0  0
  -21.4070   -3.8190   26.0200 F   0  0  0  0  0  0  0  0  0  0  0  0
  -22.7620  -13.6010   21.0570 C   0  0  0  0  0  0  0  0  0  0  0  0
  -22.0400  -12.9090   21.9320 N   0  0  0  0  0  0  0  0  0  0  0  0
  -22.3180  -14.6190   20.5270 O   0  0  0  0  0  0  0  0  0  0  0  0
  -22.4130  -12.0850   22.3810 H   0  0  0  0  0  0  0  0  0  0  0  0
  -21.1000  -13.2060   22.1540 H   0  0  0  0  0  0  0  0  0  0  0  0
  -25.3840  -15.2710   20.2150 N   0  0  0  0  0  0  0  0  0  0  0  0
  -24.6170  -15.9250   20.3200 H   0  0  0  0  0  0  0  0  0  0  0  0
  -26.2380  -15.7080   19.8930 H   0  0  0  0  0  0  0  0  0  0  0  0
  -28.4900  -23.4220   21.7970 C   0  0  0  0  0  2  0  0  0  0  0  0
  -27.7490  -24.6520   21.2230 C   0  0  0  0  0  2  0  0  0  0  0  0
  -28.4370  -25.3790   20.0410 C   0  0  0  0  0  2  0  0  0  0  0  0
  -28.4220  -26.8080   20.1770 O   0  0  0  0  0  0  0  0  0  0  0  0
  -24.5730  -31.9160   23.2550 C   0  0  0  0  0  0  0  0  0  0  0  0
  -27.2250  -27.4930   20.1590 C   0  0  0  0  0  0  0  0  0  0  0  0
  -23.3650  -30.5150   21.6120 C   0  0  0  0  0  3  0  0  0  0  0  0
  -24.8190  -28.9840   20.1800 C   0  0  0  0  0  0  0  0  0  0  0  0
  -25.8870  -30.8870   21.4020 C   0  0  0  0  0  2  0  0  0  0  0  0
  -25.9770  -29.5160   20.7610 C   0  0  0  0  0  0  0  0  0  0  0  0
  -27.1800  -28.7780   20.7440 C   0  0  0  0  0  3  0  0  0  0  0  0
  -26.0460  -26.9690   19.5770 C   0  0  0  0  0  3  0  0  0  0  0  0
  -24.8490  -27.7100   19.5870 C   0  0  0  0  0  3  0  0  0  0  0  0
  -23.5730  -29.8380   20.2310 C   0  0  0  0  0  2  0  0  0  0  0  0
  -24.6280  -31.1200   22.1500 N   0  0  0  0  0  0  0  0  0  0  0  0
  -23.4930  -32.1830   23.7980 O   0  0  0  0  0  0  0  0  0  0  0  0
  -22.7200  -29.4890   22.5710 C   0  0  0  0  0  0  0  0  0  0  0  0
  -21.3970  -29.3030   22.4440 N   0  0  0  0  0  0  0  0  0  0  0  0
  -23.4070  -28.8630   23.3830 O   0  0  0  0  0  0  0  0  0  0  0  0
  -20.9050  -29.8600   21.7590 H   0  0  0  0  0  0  0  0  0  0  0  0
  -18.0250  -28.1040   22.9430 C   0  0  0  0  0  0  0  0  0  0  0  0
  -20.5830  -28.3610   23.2110 C   0  0  0  0  0  3  0  0  0  0  0  0
  -20.6860  -26.9330   22.6280 C   0  0  0  0  0  2  0  0  0  0  0  0
  -19.5820  -26.6150   21.6140 C   0  0  0  0  0  2  0  0  0  0  0  0
  -18.2020  -26.7570   22.2610 C   0  0  0  0  0  2  0  0  0  0  0  0
  -19.1440  -28.8640   23.3740 C   0  0  0  0  0  0  0  0  0  0  0  0
  -18.9280  -30.1250   23.9700 C   0  0  0  0  0  3  0  0  0  0  0  0
  -17.6240  -30.6280   24.1380 C   0  0  0  0  0  3  0  0  0  0  0  0
  -16.5180  -29.8640   23.7250 C   0  0  0  0  0  3  0  0  0  0  0  0
  -16.7200  -28.6030   23.1340 C   0  0  0  0  0  3  0  0  0  0  0  0
  -25.8590  -32.5480   23.8740 C   0  0  0  0  0  3  0  0  0  0  0  0
  -25.5530  -33.9470   24.1960 N   0  0  0  0  0  0  0  0  0  0  0  0
  -25.8970  -34.9950   23.4330 C   0  0  0  0  0  0  0  0  0  0  0  0
  -26.5750  -34.8820   22.4080 O   0  0  0  0  0  0  0  0  0  0  0  0
  -24.9540  -34.1090   24.9910 H   0  0  0  0  0  0  0  0  0  0  0  0
  -24.1820  -36.7910   23.0460 C   0  0  0  0  0  1  0  0  0  0  0  0
  -25.4090  -36.3870   23.8780 C   0  0  0  0  0  3  0  0  0  0  0  0
  -27.5370  -37.2630   24.7330 C   0  0  0  0  0  1  0  0  0  0  0  0
  -26.4490  -37.4340   23.7740 N   0  0  0  0  0  0  0  0  0  0  0  0
  -26.0450  -38.3570   23.9130 H   0  0  0  0  0  0  0  0  0  0  0  0
  -26.3760  -31.7790   25.1510 C   0  0  1  0  0  0  0  0  0  0  0  0
  -25.2830  -31.5420   26.2190 C   0  0  0  0  0  1  0  0  0  0  0  0
  -26.9600  -30.4020   24.7590 C   0  0  0  0  0  1  0  0  0  0  0  0
  -27.5300  -32.5710   25.8100 C   0  0  0  0  0  1  0  0  0  0  0  0
  1  3  2  0
  2  1  1  0
  2 52  1  0
  4  2  1  0
  6  7  1  0
  6  9  1  0
  7  5  1  0
  7  1  1  0
  8  9  1  0
  8  5  1  0
  8 13  1  0
  9 12  1  0
 10 12  1  0
 12 11  1  0
 14 22  1  0
 15 20  1  0
 16 17  1  0
 16 15  1  0
 18 17  1  0
 18 27  1  0
 18 19  1  0
 20 14  1  0
 20 19  1  0
 21 14  2  0
 22 13  1  0
 22 23  1  0
 24 25  2  0
 25 44  1  0
 26 25  1  0
 26 29  1  0
 27 24  1  0
 27 28  1  0
 28 26  2  0
 29 30  1  0
 30 31  2  0
 32 35  1  0
 32 31  1  0
 33 32  2  0
 34 33  1  0
 34 29  2  0
 35 36  1  0
 36 37  1  0
 37 38  2  0
 39 38  1  0
 39 43  1  0
 40 39  2  0
 41 36  2  0
 41 40  1  0
 42 41  1  0
 44 45  1  0
 45 48  1  0
 45 47  1  0
 46 44  2  0
 49 50  1  0
 49 24  1  0
 51 49  1  0
 53 52  1  0
 54 55  1  0
 54 53  1  0
 56 67  2  0
 57 55  1  0
 57 62  1  0
 58 66  1  0
 58 68  1  0
 59 65  1  0
 59 61  1  0
 60 66  1  0
 61 60  1  0
 62 61  2  0
 63 64  1  0
 63 57  2  0
 64 59  2  0
 65 58  1  0
 66 56  1  0
 68 70  2  0
 69 68  1  0
 71 69  1  0
 72 81  2  0
 72 77  1  0
 73 69  1  0
 73 77  1  0
 74 73  1  0
 75 76  1  0
 75 74  1  0
 76 72  1  0
 77 78  2  0
 78 79  1  0
 80 79  2  0
 81 80  1  0
 82 56  1  0
 82 83  1  0
 82 92  1  0
 83 86  1  0
 84 88  1  0
 84 83  1  0
 85 84  2  0
 88 87  1  0
 90 88  1  0
 90 91  1  0
 90 89  1  0
 92 95  1  1
 92 93  1  0
 94 92  1  0
M  ISO  4  14 100  22 100  54 101  55 101
M  END
>  <TORSDO>  (68) 
F 22

>  <SCORE>  (68) 
-13.359

>  <name>  (68) 
68

>  <ligand_id>  (68) 
68

>  <original_smiles>  (68) 
[H]c1c([H])c([H])c2c(c1[H])C([H])([H])C([H])([H])C([H])([H])C2([H])N([H])C(=O)C1([H])N(C(=O)C([H])(N([H])C(=O)C([H])(N([H])C([H])([H])[H])C([H])([H])[H])C(C([H])([H])[H])(C([H])([H])[H])C([H])([H])[H])C([H])([H])c2c([H])c(OC([H])([H])C([H])([H])C([H])([H])N([H])C(=O)C3([H])C([H])([H])C([H])(C([H])([H])N([H])C(=O)N4C([H])([H])C([H])([H])C([H])([H])C([H])(n5nc(-c6c([H])c([H])c(Oc7c([H])c([H])c(F)c([H])c7F)c([H])c6[H])c(C(=O)N([H])[H])c5N([H])[H])C4([H])[H])C([H])(C([H])(C([H])([H])[H])C([H])([H])[H])C3([H])[H])c([H])c([H])c2C1([H])[H]

>  <smiles>  (68) 
[H]c1c([H])c([H])c2c(c1[H])C([H])([H])C([H])([H])C([H])([H])C2([H])N([H])C(=O)C1([H])N(C(=O)C([H])(N([H])C(=O)C([H])(N([H])C([H])([H])[H])C([H])([H])[H])C(C([H])([H])[H])(C([H])([H])[H])C([H])([H])[H])C([H])([H])c2c([H])c(OC([H])([H])C([H])([H])C([H])([H])N([H])C(=O)C3([H])C([H])([H])C([H])(C([H])([H])N([H])C(=O)N4C([H])([H])C([H])([H])C([H])([H])C([H])(n5nc(-c6c([H])c([H])c(Oc7c([H])c([H])c(F)c([H])c7F)c([H])c6[H])c(C(=O)N([H])[H])c5N([H])[H])C4([H])[H])C([H])(C([H])(C([H])([H])[H])C([H])([H])[H])C3([H])[H])c([H])c([H])c2C1([H])[H]

$$$$
69:0:0
     RDKit          3D

 88 95  0  0  1  0  0  0  0  0999 V2000
  -28.9110  -21.2120   20.0080 C   0  0  0  0  0  0  0  0  0  0  0  0
  -28.9910  -22.4940   20.5120 N   0  0  0  0  0  0  0  0  0  0  0  0
  -28.3240  -21.0030   18.9460 O   0  0  0  0  0  0  0  0  0  0  0  0
  -29.4620  -22.5830   21.4030 H   0  0  0  0  0  0  0  0  0  0  0  0
  -29.6120  -19.9780   20.7310 C   0  0  0  0  0  2  0  0  0  0  0  0
  -29.2490  -18.4560   20.3270 C   0  0  0  0  0  3  0  0  0  0  0  0
  -30.2460  -17.2720   20.7760 C   0  0  0  0  0  3  0  0  0  0  0  0
  -30.5860  -14.7030   20.3810 C   0  0  0  0  0  0  0  0  0  0  0  0
  -30.3730  -12.4530   19.3310 C   0  0  0  0  0  2  0  0  0  0  0  0
  -29.4250  -12.5500   18.1160 C   0  0  0  0  0  2  0  0  0  0  0  0
  -27.9570  -12.3790   18.5550 C   0  0  0  0  0  2  0  0  0  0  0  0
  -27.5940  -13.2540   19.7850 C   0  0  0  0  0  3  0  0  0  0  0  0
  -28.6580  -13.1390   20.8970 C   0  0  0  0  0  2  0  0  0  0  0  0
  -29.9530  -13.4870   20.3000 N   0  0  0  0  0  0  0  0  0  0  0  0
  -31.7690  -14.8170   20.0500 O   0  0  0  0  0  0  0  0  0  0  0  0
  -29.8170  -15.8180   20.6470 N   0  0  0  0  0  0  0  0  0  0  0  0
  -28.8460  -15.6250   20.8430 H   0  0  0  0  0  0  0  0  0  0  0  0
  -25.2050  -13.8410   20.5180 C   0  0  0  0  0  0  0  0  0  0  0  0
  -24.1440  -13.0630   20.8930 C   0  0  0  0  0  0  0  0  0  0  0  0
  -24.6120  -11.7130   20.8640 C   0  0  0  0  0  0  0  0  0  0  0  0
  -26.2510  -12.9640   20.2800 N   0  0  0  0  0  0  0  0  0  0  0  0
  -25.9010  -11.6800   20.5510 N   0  0  0  0  0  0  0  0  0  0  0  0
  -23.8910  -10.4480   21.0570 C   0  0  0  0  0  0  0  0  0  0  0  0
  -24.3380   -9.4770   21.9800 C   0  0  0  0  0  3  0  0  0  0  0  0
  -23.6170   -8.2770   22.1610 C   0  0  0  0  0  3  0  0  0  0  0  0
  -22.4340   -8.0410   21.4210 C   0  0  0  0  0  0  0  0  0  0  0  0
  -22.0070   -9.0010   20.4870 C   0  0  0  0  0  3  0  0  0  0  0  0
  -22.7290  -10.1920   20.3030 C   0  0  0  0  0  3  0  0  0  0  0  0
  -21.6840   -6.8940   21.5130 O   0  0  0  0  0  0  0  0  0  0  0  0
  -21.6620   -6.1370   22.6570 C   0  0  0  0  0  0  0  0  0  0  0  0
  -21.2710   -6.6800   23.9010 C   0  0  0  0  0  3  0  0  0  0  0  0
  -21.1970   -5.8500   25.0390 C   0  0  0  0  0  3  0  0  0  0  0  0
  -21.5010   -4.4800   24.9330 C   0  0  0  0  0  0  0  0  0  0  0  0
  -21.8850   -3.9370   23.6940 C   0  0  0  0  0  3  0  0  0  0  0  0
  -21.9620   -4.7640   22.5580 C   0  0  0  0  0  0  0  0  0  0  0  0
  -22.3110   -4.2320   21.3620 F   0  0  0  0  0  0  0  0  0  0  0  0
  -21.4220   -3.6820   26.0220 F   0  0  0  0  0  0  0  0  0  0  0  0
  -22.7450  -13.5350   21.1670 C   0  0  0  0  0  0  0  0  0  0  0  0
  -22.0210  -12.8380   22.0360 N   0  0  0  0  0  0  0  0  0  0  0  0
  -22.3030  -14.5570   20.6440 O   0  0  0  0  0  0  0  0  0  0  0  0
  -22.3920  -12.0110   22.4800 H   0  0  0  0  0  0  0  0  0  0  0  0
  -21.0830  -13.1360   22.2610 H   0  0  0  0  0  0  0  0  0  0  0  0
  -25.3610  -15.2110   20.3360 N   0  0  0  0  0  0  0  0  0  0  0  0
  -24.5870  -15.8580   20.4410 H   0  0  0  0  0  0  0  0  0  0  0  0
  -26.1950  -15.6520   19.9690 H   0  0  0  0  0  0  0  0  0  0  0  0
  -28.6520  -23.8120   19.8260 C   0  0  0  0  0  2  0  0  0  0  0  0
  -28.2250  -25.0760   20.7210 C   0  0  0  0  0  2  0  0  0  0  0  0
  -28.3520  -26.4670   20.2010 O   0  0  0  0  0  0  0  0  0  0  0  0
  -24.6120  -31.8750   23.2380 C   0  0  0  0  0  0  0  0  0  0  0  0
  -27.2280  -27.3070   20.2010 C   0  0  0  0  0  0  0  0  0  0  0  0
  -23.4080  -30.4700   21.6010 C   0  0  0  0  0  3  0  0  0  0  0  0
  -24.8600  -28.9120   20.1820 C   0  0  0  0  0  0  0  0  0  0  0  0
  -25.9460  -30.7940   21.4120 C   0  0  0  0  0  2  0  0  0  0  0  0
  -26.0290  -29.4120   20.7710 C   0  0  0  0  0  0  0  0  0  0  0  0
  -27.2190  -28.6220   20.7640 C   0  0  0  0  0  3  0  0  0  0  0  0
  -26.0390  -26.8570   19.5930 C   0  0  0  0  0  3  0  0  0  0  0  0
  -24.8670  -27.6410   19.5820 C   0  0  0  0  0  3  0  0  0  0  0  0
  -23.6220  -29.7860   20.2250 C   0  0  0  0  0  2  0  0  0  0  0  0
  -24.6740  -31.0650   22.1400 N   0  0  0  0  0  0  0  0  0  0  0  0
  -23.5290  -32.1520   23.7730 O   0  0  0  0  0  0  0  0  0  0  0  0
  -22.7480  -29.4570   22.5660 C   0  0  0  0  0  0  0  0  0  0  0  0
  -21.4210  -29.2800   22.4420 N   0  0  0  0  0  0  0  0  0  0  0  0
  -23.4280  -28.8330   23.3840 O   0  0  0  0  0  0  0  0  0  0  0  0
  -20.9310  -29.8350   21.7560 H   0  0  0  0  0  0  0  0  0  0  0  0
  -18.0460  -28.0820   22.9480 C   0  0  0  0  0  0  0  0  0  0  0  0
  -20.6040  -28.3440   23.2160 C   0  0  0  0  0  3  0  0  0  0  0  0
  -20.7080  -26.9110   22.6450 C   0  0  0  0  0  2  0  0  0  0  0  0
  -19.6050  -26.5840   21.6320 C   0  0  0  0  0  2  0  0  0  0  0  0
  -18.2240  -26.7300   22.2760 C   0  0  0  0  0  2  0  0  0  0  0  0
  -19.1640  -28.8460   23.3750 C   0  0  0  0  0  0  0  0  0  0  0  0
  -18.9430  -30.1100   23.9640 C   0  0  0  0  0  3  0  0  0  0  0  0
  -17.6380  -30.6100   24.1280 C   0  0  0  0  0  3  0  0  0  0  0  0
  -16.5340  -29.8430   23.7170 C   0  0  0  0  0  3  0  0  0  0  0  0
  -16.7390  -28.5800   23.1320 C   0  0  0  0  0  3  0  0  0  0  0  0
  -25.8940  -32.5120   23.8580 C   0  0  0  0  0  3  0  0  0  0  0  0
  -25.5820  -33.9100   24.1870 N   0  0  0  0  0  0  0  0  0  0  0  0
  -25.9130  -34.9640   23.4290 C   0  0  0  0  0  0  0  0  0  0  0  0
  -26.5820  -34.8600   22.3970 O   0  0  0  0  0  0  0  0  0  0  0  0
  -24.9880  -34.0630   24.9890 H   0  0  0  0  0  0  0  0  0  0  0  0
  -24.1820  -36.7550   23.0770 C   0  0  0  0  0  1  0  0  0  0  0  0
  -25.4260  -36.3520   23.8870 C   0  0  0  0  0  3  0  0  0  0  0  0
  -27.5610  -37.2380   24.7130 C   0  0  0  0  0  1  0  0  0  0  0  0
  -26.4560  -37.4050   23.7710 N   0  0  0  0  0  0  0  0  0  0  0  0
  -26.0500  -38.3260   23.9190 H   0  0  0  0  0  0  0  0  0  0  0  0
  -26.4130  -31.7430   25.1360 C   0  0  1  0  0  0  0  0  0  0  0  0
  -25.3210  -31.5090   26.2060 C   0  0  0  0  0  1  0  0  0  0  0  0
  -26.9940  -30.3640   24.7470 C   0  0  0  0  0  1  0  0  0  0  0  0
  -27.5640  -32.5390   25.7940 C   0  0  0  0  0  1  0  0  0  0  0  0
  1  2  1  0
  1  5  1  0
  2  4  1  0
  3  1  2  0
  6  5  1  0
  6  7  2  0
  8 16  1  0
  9 14  1  0
 10 11  1  0
 10  9  1  0
 12 11  1  0
 12 21  1  0
 12 13  1  0
 14  8  1  0
 14 13  1  0
 15  8  2  0
 16  7  1  0
 16 17  1  0
 18 19  2  0
 19 38  1  0
 20 19  1  0
 20 23  1  0
 21 18  1  0
 21 22  1  0
 22 20  2  0
 23 24  1  0
 24 25  2  0
 26 29  1  0
 26 25  1  0
 27 26  2  0
 28 27  1  0
 28 23  2  0
 29 30  1  0
 30 31  1  0
 31 32  2  0
 33 32  1  0
 33 37  1  0
 34 33  2  0
 35 30  2  0
 35 34  1  0
 36 35  1  0
 38 39  1  0
 39 42  1  0
 39 41  1  0
 40 38  2  0
 43 44  1  0
 43 18  1  0
 45 43  1  0
 46  2  1  0
 46 47  1  0
 48 47  1  0
 49 60  2  0
 50 48  1  0
 50 55  1  0
 51 59  1  0
 51 61  1  0
 52 58  1  0
 52 54  1  0
 53 59  1  0
 54 53  1  0
 55 54  2  0
 56 50  2  0
 57 56  1  0
 57 52  2  0
 58 51  1  0
 59 49  1  0
 61 63  2  0
 62 61  1  0
 64 62  1  0
 65 74  2  0
 65 70  1  0
 66 62  1  0
 66 70  1  0
 67 66  1  0
 68 69  1  0
 68 67  1  0
 69 65  1  0
 70 71  2  0
 71 72  1  0
 73 72  2  0
 74 73  1  0
 75 49  1  0
 75 76  1  0
 75 85  1  0
 76 79  1  0
 77 81  1  0
 77 76  1  0
 78 77  2  0
 81 80  1  0
 83 81  1  0
 83 84  1  0
 83 82  1  0
 85 88  1  1
 85 86  1  0
 87 85  1  0
M  ISO  4   8 100  16 100  47 101  48 101
M  END
>  <TORSDO>  (69) 
F 21

>  <SCORE>  (69) 
-13.303

>  <name>  (69) 
69

>  <ligand_id>  (69) 
69

>  <original_smiles>  (69) 
[H]c1c([H])c([H])c2c(c1[H])C([H])([H])C([H])([H])C([H])([H])C2([H])N([H])C(=O)C1([H])N(C(=O)C([H])(N([H])C(=O)C([H])(N([H])C([H])([H])[H])C([H])([H])[H])C(C([H])([H])[H])(C([H])([H])[H])C([H])([H])[H])C([H])([H])c2c([H])c(OC([H])([H])C([H])([H])N([H])C(=O)C([H])([H])C([H])([H])C([H])([H])N([H])C(=O)N3C([H])([H])C([H])([H])C([H])([H])C([H])(n4nc(-c5c([H])c([H])c(Oc6c([H])c([H])c(F)c([H])c6F)c([H])c5[H])c(C(=O)N([H])[H])c4N([H])[H])C3([H])[H])c([H])c([H])c2C1([H])[H]

>  <smiles>  (69) 
[H]c1c([H])c([H])c2c(c1[H])C([H])([H])C([H])([H])C([H])([H])C2([H])N([H])C(=O)C1([H])N(C(=O)C([H])(N([H])C(=O)C([H])(N([H])C([H])([H])[H])C([H])([H])[H])C(C([H])([H])[H])(C([H])([H])[H])C([H])([H])[H])C([H])([H])c2c([H])c(OC([H])([H])C([H])([H])N([H])C(=O)C([H])([H])C([H])([H])C([H])([H])N([H])C(=O)N3C([H])([H])C([H])([H])C([H])([H])C([H])(n4nc(-c5c([H])c([H])c(Oc6c([H])c([H])c(F)c([H])c6F)c([H])c5[H])c(C(=O)N([H])[H])c4N([H])[H])C3([H])[H])c([H])c([H])c2C1([H])[H]

$$$$
70:0:0
     RDKit          3D

 96104  0  0  1  0  0  0  0  0999 V2000
  -29.6690  -20.5800   20.6160 C   0  0  0  0  0  3  0  0  0  0  0  0
  -31.9570  -21.9360   20.1950 C   0  0  0  0  0  2  0  0  0  0  0  0
  -33.4270  -21.5680   20.3830 C   0  0  0  0  0  2  0  0  0  0  0  0
  -32.0360  -20.0490   21.6730 C   0  0  0  0  0  2  0  0  0  0  0  0
  -31.2340  -20.6170   20.4640 C   0  0  0  0  0  3  0  0  0  0  0  0
  -33.4050  -20.7660   21.6880 C   0  0  0  0  0  3  0  0  0  0  0  0
  -34.5570  -19.8550   21.8410 N   0  0  0  0  0  4  0  0  0  0  0  0
  -34.5620  -19.1320   21.1430 H   0  0  0  0  0  0  0  0  0  0  0  0
  -34.5400  -19.4210   22.7470 H   0  0  0  0  0  0  0  0  0  0  0  0
  -35.4210  -20.3670   21.7690 H   0  0  0  0  0  0  0  0  0  0  0  0
  -28.9060  -21.8510   20.0060 N   0  0  0  0  0  4  0  0  0  0  0  0
  -29.0780  -21.8400   19.0110 H   0  0  0  0  0  0  0  0  0  0  0  0
  -27.9250  -21.6380   20.1060 H   0  0  0  0  0  0  0  0  0  0  0  0
  -29.0670  -23.3730   20.4820 C   0  0  0  0  0  3  0  0  0  0  0  0
  -28.0350  -24.6500   20.0680 C   0  0  0  0  0  3  0  0  0  0  0  0
  -28.2490  -26.1790   20.3410 O   0  0  0  0  0  0  0  0  0  0  0  0
  -24.6380  -31.9160   23.2770 C   0  0  0  0  0  0  0  0  0  0  0  0
  -27.1880  -27.1590   20.2670 C   0  0  0  0  0  0  0  0  0  0  0  0
  -23.4310  -30.5180   21.6440 C   0  0  0  0  0  3  0  0  0  0  0  0
  -24.8680  -28.9210   20.2290 C   0  0  0  0  0  0  0  0  0  0  0  0
  -25.9840  -30.7580   21.4850 C   0  0  0  0  0  2  0  0  0  0  0  0
  -26.0490  -29.3630   20.8380 C   0  0  0  0  0  0  0  0  0  0  0  0
  -27.2100  -28.4980   20.8370 C   0  0  0  0  0  3  0  0  0  0  0  0
  -25.9780  -26.8200   19.6210 C   0  0  0  0  0  3  0  0  0  0  0  0
  -24.8440  -27.6640   19.6060 C   0  0  0  0  0  3  0  0  0  0  0  0
  -23.6480  -29.8310   20.2710 C   0  0  0  0  0  2  0  0  0  0  0  0
  -24.7040  -31.0860   22.1900 N   0  0  0  0  0  0  0  0  0  0  0  0
  -23.5510  -32.2130   23.7960 O   0  0  0  0  0  0  0  0  0  0  0  0
  -22.7410  -29.5230   22.6120 C   0  0  0  0  0  0  0  0  0  0  0  0
  -21.4130  -29.3590   22.4760 N   0  0  0  0  0  0  0  0  0  0  0  0
  -23.4040  -28.9030   23.4500 O   0  0  0  0  0  0  0  0  0  0  0  0
  -20.9360  -29.9100   21.7740 H   0  0  0  0  0  0  0  0  0  0  0  0
  -18.0230  -28.1730   22.9630 C   0  0  0  0  0  0  0  0  0  0  0  0
  -20.5790  -28.4360   23.2460 C   0  0  0  0  0  3  0  0  0  0  0  0
  -20.6830  -26.9960   22.6910 C   0  0  0  0  0  2  0  0  0  0  0  0
  -19.5910  -26.6620   21.6700 C   0  0  0  0  0  2  0  0  0  0  0  0
  -18.2030  -26.8160   22.3000 C   0  0  0  0  0  2  0  0  0  0  0  0
  -19.1380  -28.9400   23.3920 C   0  0  0  0  0  0  0  0  0  0  0  0
  -18.9180  -30.2050   23.9750 C   0  0  0  0  0  3  0  0  0  0  0  0
  -17.6140  -30.7110   24.1240 C   0  0  0  0  0  3  0  0  0  0  0  0
  -16.5100  -29.9440   23.7110 C   0  0  0  0  0  3  0  0  0  0  0  0
  -16.7170  -28.6750   23.1380 C   0  0  0  0  0  3  0  0  0  0  0  0
  -25.9200  -32.5450   23.9030 C   0  0  0  0  0  3  0  0  0  0  0  0
  -25.6190  -33.9500   24.2200 N   0  0  0  0  0  0  0  0  0  0  0  0
  -25.9550  -34.9970   23.4540 C   0  0  0  0  0  0  0  0  0  0  0  0
  -26.6190  -34.8810   22.4210 O   0  0  0  0  0  0  0  0  0  0  0  0
  -25.0280  -34.1140   25.0210 H   0  0  0  0  0  0  0  0  0  0  0  0
  -24.2370  -36.8020   23.1040 C   0  0  0  0  0  1  0  0  0  0  0  0
  -25.4850  -36.3940   23.9030 C   0  0  0  0  0  3  0  0  0  0  0  0
  -27.6330  -37.2720   24.7060 C   0  0  0  0  0  1  0  0  0  0  0  0
  -26.5250  -37.4370   23.7680 N   0  0  0  0  0  0  0  0  0  0  0  0
  -26.1280  -38.3610   23.9120 H   0  0  0  0  0  0  0  0  0  0  0  0
  -26.4180  -31.7830   25.1940 C   0  0  1  0  0  0  0  0  0  0  0  0
  -25.3120  -31.5680   26.2540 C   0  0  0  0  0  1  0  0  0  0  0  0
  -26.9910  -30.3950   24.8300 C   0  0  0  0  0  1  0  0  0  0  0  0
  -27.5740  -32.5740   25.8510 C   0  0  0  0  0  1  0  0  0  0  0  0
  -29.2260  -18.9920   20.2040 C   0  0  0  0  0  3  0  0  0  0  0  0
  -30.1100  -17.6100   20.6080 C   0  0  0  0  0  3  0  0  0  0  0  0
  -30.4760  -14.9260   20.3020 C   0  0  0  0  0  0  0  0  0  0  0  0
  -30.3310  -12.6050   19.3130 C   0  0  0  0  0  2  0  0  0  0  0  0
  -29.3730  -12.5850   18.1010 C   0  0  0  0  0  2  0  0  0  0  0  0
  -27.9180  -12.3730   18.5610 C   0  0  0  0  0  2  0  0  0  0  0  0
  -27.5340  -13.2910   19.7500 C   0  0  0  0  0  3  0  0  0  0  0  0
  -28.6040  -13.2810   20.8600 C   0  0  0  0  0  2  0  0  0  0  0  0
  -29.8660  -13.6820   20.2270 N   0  0  0  0  0  0  0  0  0  0  0  0
  -31.6870  -14.9910   20.0700 O   0  0  0  0  0  0  0  0  0  0  0  0
  -29.6980  -16.1040   20.4190 N   0  0  0  0  0  0  0  0  0  0  0  0
  -28.7040  -15.9310   20.4410 H   0  0  0  0  0  0  0  0  0  0  0  0
  -25.1570  -13.8670   20.5140 C   0  0  0  0  0  0  0  0  0  0  0  0
  -24.1010  -13.0890   20.8930 C   0  0  0  0  0  0  0  0  0  0  0  0
  -24.5700  -11.7400   20.8550 C   0  0  0  0  0  0  0  0  0  0  0  0
  -26.2030  -12.9930   20.2640 N   0  0  0  0  0  0  0  0  0  0  0  0
  -25.8580  -11.7090   20.5380 N   0  0  0  0  0  0  0  0  0  0  0  0
  -23.8510  -10.4730   21.0450 C   0  0  0  0  0  0  0  0  0  0  0  0
  -24.2930   -9.5040   21.9720 C   0  0  0  0  0  3  0  0  0  0  0  0
  -23.5710   -8.3040   22.1510 C   0  0  0  0  0  3  0  0  0  0  0  0
  -22.3930   -8.0650   21.4010 C   0  0  0  0  0  0  0  0  0  0  0  0
  -21.9730   -9.0230   20.4620 C   0  0  0  0  0  3  0  0  0  0  0  0
  -22.6950  -10.2140   20.2820 C   0  0  0  0  0  3  0  0  0  0  0  0
  -21.6440   -6.9140   21.4890 O   0  0  0  0  0  0  0  0  0  0  0  0
  -21.6040   -6.1690   22.6390 C   0  0  0  0  0  0  0  0  0  0  0  0
  -21.1720   -6.7170   23.8670 C   0  0  0  0  0  3  0  0  0  0  0  0
  -21.0780   -5.8960   25.0100 C   0  0  0  0  0  3  0  0  0  0  0  0
  -21.4080   -4.5300   24.9250 C   0  0  0  0  0  0  0  0  0  0  0  0
  -21.8320   -3.9820   23.7020 C   0  0  0  0  0  3  0  0  0  0  0  0
  -21.9270   -4.7990   22.5610 C   0  0  0  0  0  0  0  0  0  0  0  0
  -22.3160   -4.2610   21.3800 F   0  0  0  0  0  0  0  0  0  0  0  0
  -21.3110   -3.7400   26.0210 F   0  0  0  0  0  0  0  0  0  0  0  0
  -22.7040  -13.5590   21.1740 C   0  0  0  0  0  0  0  0  0  0  0  0
  -21.9820  -12.8560   22.0410 N   0  0  0  0  0  0  0  0  0  0  0  0
  -22.2610  -14.5860   20.6590 O   0  0  0  0  0  0  0  0  0  0  0  0
  -22.3510  -12.0240   22.4750 H   0  0  0  0  0  0  0  0  0  0  0  0
  -21.0480  -13.1580   22.2750 H   0  0  0  0  0  0  0  0  0  0  0  0
  -25.3110  -15.2400   20.3340 N   0  0  0  0  0  0  0  0  0  0  0  0
  -24.5320  -15.8830   20.4340 H   0  0  0  0  0  0  0  0  0  0  0  0
  -26.1390  -15.6860   19.9630 H   0  0  0  0  0  0  0  0  0  0  0  0
  1 57  1  0
  2  3  1  0
  2  5  1  0
  3  6  1  0
  4  6  1  0
  5  1  1  0
  5  4  1  0
  6  7  1  0
  7  9  1  0
  8  7  1  0
 10  7  1  0
 11 13  1  0
 11 14  1  0
 11  1  1  0
 12 11  1  0
 15 16  1  0
 15 14  2  0
 17 28  2  0
 18 16  1  0
 18 23  1  0
 19 27  1  0
 19 29  1  0
 20 26  1  0
 20 22  1  0
 21 27  1  0
 22 21  1  0
 23 22  2  0
 24 18  2  0
 25 24  1  0
 25 20  2  0
 26 19  1  0
 27 17  1  0
 29 31  2  0
 30 29  1  0
 32 30  1  0
 33 42  2  0
 33 38  1  0
 34 30  1  0
 34 38  1  0
 35 34  1  0
 36 37  1  0
 36 35  1  0
 37 33  1  0
 38 39  2  0
 39 40  1  0
 41 40  2  0
 42 41  1  0
 43 17  1  0
 43 44  1  0
 43 53  1  0
 44 47  1  0
 45 49  1  0
 45 44  1  0
 46 45  2  0
 49 48  1  0
 51 49  1  0
 51 52  1  0
 51 50  1  0
 53 56  1  1
 53 54  1  0
 55 53  1  0
 57 58  2  0
 59 67  1  0
 60 65  1  0
 61 62  1  0
 61 60  1  0
 63 62  1  0
 63 72  1  0
 63 64  1  0
 65 59  1  0
 65 64  1  0
 66 59  2  0
 67 68  1  0
 67 58  1  0
 69 70  2  0
 70 89  1  0
 71 70  1  0
 71 74  1  0
 72 69  1  0
 72 73  1  0
 73 71  2  0
 74 75  1  0
 75 76  2  0
 77 80  1  0
 77 76  1  0
 78 77  2  0
 79 78  1  0
 79 74  2  0
 80 81  1  0
 81 82  1  0
 82 83  2  0
 84 83  1  0
 84 88  1  0
 85 84  2  0
 86 81  2  0
 86 85  1  0
 87 86  1  0
 89 90  1  0
 90 93  1  0
 90 92  1  0
 91 89  2  0
 94 95  1  0
 94 69  1  0
 96 94  1  0
M  ISO  4  15 101  16 101  59 100  67 100
M  END
>  <TORSDO>  (70) 
F 23

>  <SCORE>  (70) 
-13.636

>  <name>  (70) 
70

>  <ligand_id>  (70) 
70

>  <original_smiles>  (70) 
[H]c1c([H])c([H])c2c(c1[H])C([H])([H])C([H])([H])C([H])([H])C2([H])N([H])C(=O)C1([H])N(C(=O)C([H])(N([H])C(=O)C([H])(N([H])C([H])([H])[H])C([H])([H])[H])C(C([H])([H])[H])(C([H])([H])[H])C([H])([H])[H])C([H])([H])c2c([H])c(OC([H])([H])C([H])([H])[N+]([H])([H])C([H])(C([H])([H])C([H])([H])N([H])C(=O)N3C([H])([H])C([H])([H])C([H])([H])C([H])(n4nc(-c5c([H])c([H])c(Oc6c([H])c([H])c(F)c([H])c6F)c([H])c5[H])c(C(=O)N([H])[H])c4N([H])[H])C3([H])[H])C3([H])C([H])([H])C([H])([H])C([H])([N+]([H])([H])[H])C3([H])[H])c([H])c([H])c2C1([H])[H]

>  <smiles>  (70) 
[H]c1c([H])c([H])c2c(c1[H])C([H])([H])C([H])([H])C([H])([H])C2([H])N([H])C(=O)C1([H])N(C(=O)C([H])(N([H])C(=O)C([H])(N([H])C([H])([H])[H])C([H])([H])[H])C(C([H])([H])[H])(C([H])([H])[H])C([H])([H])[H])C([H])([H])c2c([H])c(OC([H])([H])C([H])([H])[N+]([H])([H])C([H])(C([H])([H])C([H])([H])N([H])C(=O)N3C([H])([H])C([H])([H])C([H])([H])C([H])(n4nc(-c5c([H])c([H])c(Oc6c([H])c([H])c(F)c([H])c6F)c([H])c5[H])c(C(=O)N([H])[H])c4N([H])[H])C3([H])[H])C3([H])C([H])([H])C([H])([H])C([H])([N+]([H])([H])[H])C3([H])[H])c([H])c([H])c2C1([H])[H]

$$$$
71:0:0
     RDKit          3D

 91 99  0  0  1  0  0  0  0  0999 V2000
  -29.4740  -18.7490   19.8490 C   0  0  0  0  0  3  0  0  0  0  0  0
  -25.2950  -17.8480   19.0690 C   0  0  0  0  0  3  0  0  0  0  0  0
  -25.7950  -17.7920   20.3840 C   0  0  0  0  0  3  0  0  0  0  0  0
  -26.1550  -18.1770   18.0040 C   0  0  0  0  0  3  0  0  0  0  0  0
  -27.1550  -18.0640   20.6340 C   0  0  0  0  0  3  0  0  0  0  0  0
  -27.5160  -18.4420   18.2530 C   0  0  0  0  0  3  0  0  0  0  0  0
  -28.0220  -18.3890   19.5710 C   0  0  0  0  0  0  0  0  0  0  0  0
  -29.5090  -20.2740   20.5470 C   0  0  0  0  0  3  0  0  0  0  0  0
  -28.6620  -21.6150   20.0010 C   0  0  0  0  0  3  0  0  0  0  0  0
  -28.8950  -23.1990   20.4940 C   0  0  0  0  0  3  0  0  0  0  0  0
  -27.9840  -24.4950   19.9710 C   0  0  0  0  0  3  0  0  0  0  0  0
  -28.2560  -25.9980   20.2000 O   0  0  0  0  0  0  0  0  0  0  0  0
  -24.6100  -31.6940   23.0620 C   0  0  0  0  0  0  0  0  0  0  0  0
  -27.1990  -26.9640   20.1050 C   0  0  0  0  0  0  0  0  0  0  0  0
  -23.4180  -30.2880   21.4280 C   0  0  0  0  0  3  0  0  0  0  0  0
  -24.8710  -28.6940   20.0380 C   0  0  0  0  0  0  0  0  0  0  0  0
  -25.9720  -30.5480   21.2800 C   0  0  0  0  0  2  0  0  0  0  0  0
  -26.0470  -29.1500   20.6490 C   0  0  0  0  0  0  0  0  0  0  0  0
  -27.2120  -28.3000   20.6670 C   0  0  0  0  0  3  0  0  0  0  0  0
  -25.9980  -26.6030   19.4530 C   0  0  0  0  0  3  0  0  0  0  0  0
  -24.8570  -27.4310   19.4280 C   0  0  0  0  0  3  0  0  0  0  0  0
  -23.6480  -29.5950   20.0590 C   0  0  0  0  0  2  0  0  0  0  0  0
  -24.6870  -30.8650   21.9780 N   0  0  0  0  0  0  0  0  0  0  0  0
  -23.5220  -31.9910   23.5760 O   0  0  0  0  0  0  0  0  0  0  0  0
  -22.7280  -29.2940   22.3940 C   0  0  0  0  0  0  0  0  0  0  0  0
  -21.3960  -29.1500   22.2700 N   0  0  0  0  0  0  0  0  0  0  0  0
  -23.3890  -28.6550   23.2170 O   0  0  0  0  0  0  0  0  0  0  0  0
  -20.9210  -29.7160   21.5810 H   0  0  0  0  0  0  0  0  0  0  0  0
  -17.9900  -28.0300   22.7890 C   0  0  0  0  0  0  0  0  0  0  0  0
  -20.5560  -28.2310   23.0430 C   0  0  0  0  0  3  0  0  0  0  0  0
  -20.6200  -26.7960   22.4660 C   0  0  0  0  0  2  0  0  0  0  0  0
  -19.5050  -26.5000   21.4570 C   0  0  0  0  0  2  0  0  0  0  0  0
  -18.1310  -26.6770   22.1100 C   0  0  0  0  0  2  0  0  0  0  0  0
  -19.1290  -28.7650   23.2120 C   0  0  0  0  0  0  0  0  0  0  0  0
  -18.9440  -30.0310   23.8090 C   0  0  0  0  0  3  0  0  0  0  0  0
  -17.6530  -30.5610   23.9890 C   0  0  0  0  0  3  0  0  0  0  0  0
  -16.5290  -29.8220   23.5810 C   0  0  0  0  0  3  0  0  0  0  0  0
  -16.6980  -28.5600   22.9860 C   0  0  0  0  0  3  0  0  0  0  0  0
  -25.8870  -32.3280   23.6960 C   0  0  0  0  0  3  0  0  0  0  0  0
  -25.5580  -33.7130   24.0670 N   0  0  0  0  0  0  0  0  0  0  0  0
  -25.9110  -34.7970   23.3620 C   0  0  0  0  0  0  0  0  0  0  0  0
  -26.6120  -34.7350   22.3490 O   0  0  0  0  0  0  0  0  0  0  0  0
  -24.9400  -33.8330   24.8550 H   0  0  0  0  0  0  0  0  0  0  0  0
  -24.1880  -36.6030   23.0320 C   0  0  0  0  0  1  0  0  0  0  0  0
  -25.4080  -36.1670   23.8600 C   0  0  0  0  0  3  0  0  0  0  0  0
  -27.5190  -37.0230   24.7780 C   0  0  0  0  0  1  0  0  0  0  0  0
  -26.4400  -37.2250   23.8150 N   0  0  0  0  0  0  0  0  0  0  0  0
  -26.0280  -38.1370   23.9900 H   0  0  0  0  0  0  0  0  0  0  0  0
  -26.4140  -31.5320   24.9530 C   0  0  1  0  0  0  0  0  0  0  0  0
  -25.3260  -31.2640   26.0210 C   0  0  0  0  0  1  0  0  0  0  0  0
  -27.0080  -30.1680   24.5310 C   0  0  0  0  0  1  0  0  0  0  0  0
  -27.5600  -32.3230   25.6270 C   0  0  0  0  0  1  0  0  0  0  0  0
  -30.3160  -17.4240   20.4410 C   0  0  0  0  0  2  0  0  0  0  0  0
  -30.5770  -14.7390   20.0670 C   0  0  0  0  0  0  0  0  0  0  0  0
  -30.3140  -12.4770   18.9740 C   0  0  0  0  0  2  0  0  0  0  0  0
  -29.3200  -12.5590   17.7940 C   0  0  0  0  0  2  0  0  0  0  0  0
  -27.8730  -12.3730   18.2880 C   0  0  0  0  0  2  0  0  0  0  0  0
  -27.5620  -13.2300   19.5440 C   0  0  0  0  0  3  0  0  0  0  0  0
  -28.6700  -13.1200   20.6120 C   0  0  0  0  0  2  0  0  0  0  0  0
  -29.9260  -13.5170   19.9660 N   0  0  0  0  0  0  0  0  0  0  0  0
  -31.7650  -14.7890   19.7330 O   0  0  0  0  0  0  0  0  0  0  0  0
  -29.8580  -15.9260   20.3420 N   0  0  0  0  0  0  0  0  0  0  0  0
  -28.8790  -15.7810   20.5380 H   0  0  0  0  0  0  0  0  0  0  0  0
  -25.2090  -13.8250   20.3520 C   0  0  0  0  0  0  0  0  0  0  0  0
  -24.1540  -13.0590   20.7630 C   0  0  0  0  0  0  0  0  0  0  0  0
  -24.6130  -11.7070   20.7300 C   0  0  0  0  0  0  0  0  0  0  0  0
  -26.2420  -12.9420   20.0880 N   0  0  0  0  0  0  0  0  0  0  0  0
  -25.8930  -11.6620   20.3810 N   0  0  0  0  0  0  0  0  0  0  0  0
  -23.8890  -10.4500   20.9530 C   0  0  0  0  0  0  0  0  0  0  0  0
  -24.3530   -9.4830   21.8720 C   0  0  0  0  0  3  0  0  0  0  0  0
  -23.6270   -8.2910   22.0830 C   0  0  0  0  0  3  0  0  0  0  0  0
  -22.4240   -8.0580   21.3750 C   0  0  0  0  0  0  0  0  0  0  0  0
  -21.9790   -9.0130   20.4450 C   0  0  0  0  0  3  0  0  0  0  0  0
  -22.7050  -10.1970   20.2320 C   0  0  0  0  0  3  0  0  0  0  0  0
  -21.6670   -6.9190   21.4970 O   0  0  0  0  0  0  0  0  0  0  0  0
  -21.6710   -6.1710   22.6480 C   0  0  0  0  0  0  0  0  0  0  0  0
  -21.3290   -6.7280   23.8990 C   0  0  0  0  0  3  0  0  0  0  0  0
  -21.2810   -5.9070   25.0450 C   0  0  0  0  0  3  0  0  0  0  0  0
  -21.5620   -4.5330   24.9390 C   0  0  0  0  0  0  0  0  0  0  0  0
  -21.8970   -3.9760   23.6930 C   0  0  0  0  0  3  0  0  0  0  0  0
  -21.9480   -4.7930   22.5490 C   0  0  0  0  0  0  0  0  0  0  0  0
  -22.2500   -4.2470   21.3470 F   0  0  0  0  0  0  0  0  0  0  0  0
  -21.5080   -3.7430   26.0370 F   0  0  0  0  0  0  0  0  0  0  0  0
  -22.7680  -13.5460   21.0730 C   0  0  0  0  0  0  0  0  0  0  0  0
  -22.0750  -12.8760   21.9870 N   0  0  0  0  0  0  0  0  0  0  0  0
  -22.3110  -14.5570   20.5410 O   0  0  0  0  0  0  0  0  0  0  0  0
  -22.4610  -12.0580   22.4370 H   0  0  0  0  0  0  0  0  0  0  0  0
  -21.1480  -13.1850   22.2430 H   0  0  0  0  0  0  0  0  0  0  0  0
  -25.3710  -15.1910   20.1580 N   0  0  0  0  0  0  0  0  0  0  0  0
  -24.6280  -15.8520   20.3530 H   0  0  0  0  0  0  0  0  0  0  0  0
  -26.2220  -15.6410   19.8520 H   0  0  0  0  0  0  0  0  0  0  0  0
  1 53  1  0
  1  8  1  0
  2  3  1  0
  3  5  2  0
  4  6  1  0
  4  2  2  0
  6  7  2  0
  7  1  1  0
  7  5  1  0
  9 10  1  0
  9  8  2  0
 11 12  1  0
 11 10  2  0
 13 24  2  0
 14 12  1  0
 14 19  1  0
 15 23  1  0
 15 25  1  0
 16 22  1  0
 16 18  1  0
 17 23  1  0
 18 19  2  0
 18 17  1  0
 20 14  2  0
 21 20  1  0
 21 16  2  0
 22 15  1  0
 23 13  1  0
 25 27  2  0
 26 25  1  0
 28 26  1  0
 29 38  2  0
 29 34  1  0
 30 26  1  0
 30 34  1  0
 31 30  1  0
 32 33  1  0
 32 31  1  0
 33 29  1  0
 34 35  2  0
 35 36  1  0
 37 36  2  0
 38 37  1  0
 39 13  1  0
 39 40  1  0
 39 49  1  0
 40 43  1  0
 41 45  1  0
 41 40  1  0
 42 41  2  0
 45 44  1  0
 47 45  1  0
 47 48  1  0
 47 46  1  0
 49 52  1  1
 49 50  1  0
 51 49  1  0
 54 62  1  0
 55 60  1  0
 56 57  1  0
 56 55  1  0
 58 57  1  0
 58 67  1  0
 58 59  1  0
 60 54  1  0
 60 59  1  0
 61 54  2  0
 62 53  1  0
 62 63  1  0
 64 65  2  0
 65 84  1  0
 66 65  1  0
 66 69  1  0
 67 64  1  0
 67 68  1  0
 68 66  2  0
 69 70  1  0
 70 71  2  0
 72 75  1  0
 72 71  1  0
 73 72  2  0
 74 73  1  0
 74 69  2  0
 75 76  1  0
 76 77  1  0
 77 78  2  0
 79 78  1  0
 79 83  1  0
 80 79  2  0
 81 76  2  0
 81 80  1  0
 82 81  1  0
 84 85  1  0
 85 88  1  0
 85 87  1  0
 86 84  2  0
 89 64  1  0
 89 90  1  0
 91 89  1  0
M  ISO  4  11 101  12 101  54 100  62 100
M  END
>  <TORSDO>  (71) 
F 22

>  <SCORE>  (71) 
-9.860

>  <name>  (71) 
71

>  <ligand_id>  (71) 
71

>  <original_smiles>  (71) 
[H]c1c([H])c([H])c(C([H])(C([H])([H])N([H])C(=O)N2C([H])([H])C([H])([H])C([H])([H])C([H])(n3nc(-c4c([H])c([H])c(Oc5c([H])c([H])c(F)c([H])c5F)c([H])c4[H])c(C(=O)N([H])[H])c3N([H])[H])C2([H])[H])C([H])([H])C([H])([H])C([H])([H])C([H])([H])Oc2c([H])c([H])c3c(c2[H])C([H])([H])N(C(=O)C([H])(N([H])C(=O)C([H])(N([H])C([H])([H])[H])C([H])([H])[H])C(C([H])([H])[H])(C([H])([H])[H])C([H])([H])[H])C([H])(C(=O)N([H])C2([H])c4c([H])c([H])c([H])c([H])c4C([H])([H])C([H])([H])C2([H])[H])C3([H])[H])c([H])c1[H]

>  <smiles>  (71) 
[H]c1c([H])c([H])c(C([H])(C([H])([H])N([H])C(=O)N2C([H])([H])C([H])([H])C([H])([H])C([H])(n3nc(-c4c([H])c([H])c(Oc5c([H])c([H])c(F)c([H])c5F)c([H])c4[H])c(C(=O)N([H])[H])c3N([H])[H])C2([H])[H])C([H])([H])C([H])([H])C([H])([H])C([H])([H])Oc2c([H])c([H])c3c(c2[H])C([H])([H])N(C(=O)C([H])(N([H])C(=O)C([H])(N([H])C([H])([H])[H])C([H])([H])[H])C(C([H])([H])[H])(C([H])([H])[H])C([H])([H])[H])C([H])(C(=O)N([H])C2([H])c4c([H])c([H])c([H])c([H])c4C([H])([H])C([H])([H])C2([H])[H])C3([H])[H])c([H])c1[H]

$$$$
72:0:0
     RDKit          3D

 94102  0  0  1  0  0  0  0  0999 V2000
  -28.9800  -21.9110   20.6070 C   0  0  0  0  0  3  0  0  0  0  0  0
  -28.2920  -20.4800   20.4910 C   0  0  0  0  0  3  0  0  0  0  0  0
  -30.7810  -14.7700   20.3330 C   0  0  0  0  0  0  0  0  0  0  0  0
  -30.5550  -12.5020   19.3750 C   0  0  0  0  0  2  0  0  0  0  0  0
  -29.6290  -12.5790   18.1430 C   0  0  0  0  0  2  0  0  0  0  0  0
  -28.1500  -12.4390   18.5600 C   0  0  0  0  0  2  0  0  0  0  0  0
  -27.7740  -13.3360   19.7700 C   0  0  0  0  0  3  0  0  0  0  0  0
  -28.8270  -13.2470   20.8940 C   0  0  0  0  0  2  0  0  0  0  0  0
  -30.1250  -13.5710   20.2950 N   0  0  0  0  0  0  0  0  0  0  0  0
  -31.9910  -14.8180   20.0890 O   0  0  0  0  0  0  0  0  0  0  0  0
  -29.3180  -16.6990   21.1110 C   0  0  0  0  0  2  0  0  0  0  0  0
  -30.4010  -16.7160   18.8940 C   0  0  0  0  0  2  0  0  0  0  0  0
  -28.4740  -17.9510   20.6290 C   0  0  0  0  0  2  0  0  0  0  0  0
  -30.1560  -19.2690   19.3460 C   0  0  0  0  0  2  0  0  0  0  0  0
  -31.1180  -18.0490   19.2680 C   0  0  0  0  0  3  0  0  0  0  0  0
  -32.2340  -18.3510   18.2500 C   0  0  0  0  0  1  0  0  0  0  0  0
  -30.0240  -15.8960   20.0710 N   0  0  0  0  0  0  0  0  0  0  0  0
  -29.2080  -19.2650   20.4930 N   0  0  1  0  0  4  0  0  0  0  0  0
  -29.7660  -19.3470   21.3290 H   0  0  0  0  0  0  0  0  0  0  0  0
  -25.3960  -13.9360   20.5240 C   0  0  0  0  0  0  0  0  0  0  0  0
  -24.3280  -13.1600   20.8880 C   0  0  0  0  0  0  0  0  0  0  0  0
  -24.7840  -11.8080   20.8340 C   0  0  0  0  0  0  0  0  0  0  0  0
  -26.4320  -13.0530   20.2630 N   0  0  0  0  0  0  0  0  0  0  0  0
  -26.0720  -11.7680   20.5130 N   0  0  0  0  0  0  0  0  0  0  0  0
  -24.0520  -10.5460   21.0090 C   0  0  0  0  0  0  0  0  0  0  0  0
  -24.4780   -9.5680   21.9360 C   0  0  0  0  0  3  0  0  0  0  0  0
  -23.7450   -8.3730   22.1020 C   0  0  0  0  0  3  0  0  0  0  0  0
  -22.5740   -8.1470   21.3400 C   0  0  0  0  0  0  0  0  0  0  0  0
  -22.1690   -9.1100   20.4010 C   0  0  0  0  0  3  0  0  0  0  0  0
  -22.9020  -10.2980   20.2330 C   0  0  0  0  0  3  0  0  0  0  0  0
  -21.8160   -7.0020   21.4150 O   0  0  0  0  0  0  0  0  0  0  0  0
  -21.7450   -6.2610   22.5670 C   0  0  0  0  0  0  0  0  0  0  0  0
  -21.2830   -6.8130   23.7820 C   0  0  0  0  0  3  0  0  0  0  0  0
  -21.1600   -5.9960   24.9250 C   0  0  0  0  0  3  0  0  0  0  0  0
  -21.4860   -4.6290   24.8520 C   0  0  0  0  0  0  0  0  0  0  0  0
  -21.9430   -4.0760   23.6420 C   0  0  0  0  0  3  0  0  0  0  0  0
  -22.0670   -4.8900   22.5010 C   0  0  0  0  0  0  0  0  0  0  0  0
  -22.4860   -4.3490   21.3320 F   0  0  0  0  0  0  0  0  0  0  0  0
  -21.3620   -3.8420   25.9450 F   0  0  0  0  0  0  0  0  0  0  0  0
  -22.9360  -13.6410   21.1750 C   0  0  0  0  0  0  0  0  0  0  0  0
  -22.2120  -12.9420   22.0420 N   0  0  0  0  0  0  0  0  0  0  0  0
  -22.4980  -14.6690   20.6610 O   0  0  0  0  0  0  0  0  0  0  0  0
  -22.5850  -12.1140   22.4820 H   0  0  0  0  0  0  0  0  0  0  0  0
  -21.2750  -13.2410   22.2720 H   0  0  0  0  0  0  0  0  0  0  0  0
  -25.5700  -15.3070   20.3750 N   0  0  0  0  0  0  0  0  0  0  0  0
  -24.8140  -15.9660   20.5230 H   0  0  0  0  0  0  0  0  0  0  0  0
  -26.4120  -15.7360   20.0150 H   0  0  0  0  0  0  0  0  0  0  0  0
  -28.1150  -23.2440   20.7740 C   0  0  0  0  0  3  0  0  0  0  0  0
  -25.9040  -24.1960   21.8530 C   0  0  0  0  0  1  0  0  0  0  0  0
  -26.7730  -22.9660   21.5090 C   0  0  0  0  0  2  0  0  0  0  0  0
  -27.7670  -23.3070   18.2370 C   0  0  0  0  0  1  0  0  0  0  0  0
  -27.8940  -24.1660   19.5060 C   0  0  0  0  0  3  0  0  0  0  0  0
  -28.8490  -25.4120   19.2810 C   0  0  0  0  0  2  0  0  0  0  0  0
  -28.6620  -26.6670   20.0100 O   0  0  0  0  0  0  0  0  0  0  0  0
  -24.5560  -31.6690   23.0720 C   0  0  0  0  0  0  0  0  0  0  0  0
  -27.4900  -27.4110   19.9080 C   0  0  0  0  0  0  0  0  0  0  0  0
  -23.4810  -30.2820   21.3330 C   0  0  0  0  0  3  0  0  0  0  0  0
  -25.0470  -28.8750   19.8850 C   0  0  0  0  0  0  0  0  0  0  0  0
  -26.0000  -30.7340   21.2540 C   0  0  0  0  0  2  0  0  0  0  0  0
  -26.1600  -29.3950   20.5540 C   0  0  0  0  0  0  0  0  0  0  0  0
  -27.3780  -28.6660   20.5700 C   0  0  0  0  0  3  0  0  0  0  0  0
  -26.3630  -26.9460   19.1940 C   0  0  0  0  0  3  0  0  0  0  0  0
  -25.1510  -27.6590   19.1910 C   0  0  0  0  0  3  0  0  0  0  0  0
  -23.7660  -29.6780   19.9300 C   0  0  0  0  0  2  0  0  0  0  0  0
  -24.6950  -30.9150   21.9420 N   0  0  0  0  0  0  0  0  0  0  0  0
  -23.4450  -31.8730   23.5810 O   0  0  0  0  0  0  0  0  0  0  0  0
  -22.8430  -29.1940   22.2270 C   0  0  0  0  0  0  0  0  0  0  0  0
  -21.5220  -29.0060   22.0940 N   0  0  0  0  0  0  0  0  0  0  0  0
  -23.5400  -28.5220   22.9950 O   0  0  0  0  0  0  0  0  0  0  0  0
  -21.0260  -29.5900   21.4350 H   0  0  0  0  0  0  0  0  0  0  0  0
  -18.1490  -27.8020   22.6010 C   0  0  0  0  0  0  0  0  0  0  0  0
  -20.7180  -28.0120   22.8080 C   0  0  0  0  0  3  0  0  0  0  0  0
  -20.7870  -26.6390   22.1000 C   0  0  0  0  0  2  0  0  0  0  0  0
  -19.6480  -26.4250   21.0970 C   0  0  0  0  0  2  0  0  0  0  0  0
  -18.2900  -26.5170   21.8010 C   0  0  0  0  0  2  0  0  0  0  0  0
  -19.2910  -28.5110   23.0610 C   0  0  0  0  0  0  0  0  0  0  0  0
  -19.1090  -29.7190   23.7690 C   0  0  0  0  0  3  0  0  0  0  0  0
  -17.8180  -30.2140   24.0280 C   0  0  0  0  0  3  0  0  0  0  0  0
  -16.6900  -29.4980   23.5900 C   0  0  0  0  0  3  0  0  0  0  0  0
  -16.8560  -28.2940   22.8830 C   0  0  0  0  0  3  0  0  0  0  0  0
  -25.7850  -32.3320   23.7630 C   0  0  0  0  0  3  0  0  0  0  0  0
  -25.4110  -33.7080   24.1160 N   0  0  0  0  0  0  0  0  0  0  0  0
  -25.7230  -34.7910   23.3920 C   0  0  0  0  0  0  0  0  0  0  0  0
  -26.4310  -34.7390   22.3830 O   0  0  0  0  0  0  0  0  0  0  0  0
  -24.7900  -33.8230   24.9040 H   0  0  0  0  0  0  0  0  0  0  0  0
  -23.9260  -36.5090   23.0230 C   0  0  0  0  0  1  0  0  0  0  0  0
  -25.1640  -36.1500   23.8610 C   0  0  0  0  0  3  0  0  0  0  0  0
  -27.2330  -37.1150   24.7660 C   0  0  0  0  0  1  0  0  0  0  0  0
  -26.1510  -37.2500   23.7930 N   0  0  0  0  0  0  0  0  0  0  0  0
  -25.7020  -38.1500   23.9420 H   0  0  0  0  0  0  0  0  0  0  0  0
  -26.2760  -31.5500   25.0440 C   0  0  1  0  0  0  0  0  0  0  0  0
  -25.1490  -31.2450   26.0600 C   0  0  0  0  0  1  0  0  0  0  0  0
  -26.9270  -30.2050   24.6460 C   0  0  0  0  0  1  0  0  0  0  0  0
  -27.3700  -32.3700   25.7690 C   0  0  0  0  0  1  0  0  0  0  0  0
  2 18  1  0
  2  1  2  0
  4  9  1  0
  5  6  1  0
  5  4  1  0
  7  6  1  0
  7 23  1  0
  7  8  1  0
  9  3  1  0
  9  8  1  0
 10  3  2  0
 12 15  1  0
 12 17  1  0
 13 11  1  0
 14 18  1  0
 15 16  1  0
 15 14  1  0
 17  3  1  0
 17 11  1  0
 18 13  1  0
 18 19  1  1
 20 21  2  0
 21 40  1  0
 22 21  1  0
 22 25  1  0
 23 24  1  0
 23 20  1  0
 24 22  2  0
 25 26  1  0
 26 27  2  0
 28 31  1  0
 28 27  1  0
 29 28  2  0
 30 29  1  0
 30 25  2  0
 31 32  1  0
 32 33  1  0
 33 34  2  0
 35 34  1  0
 35 39  1  0
 36 35  2  0
 37 32  2  0
 37 36  1  0
 38 37  1  0
 40 41  1  0
 41 44  1  0
 41 43  1  0
 42 40  2  0
 45 46  1  0
 45 20  1  0
 47 45  1  0
 48  1  1  0
 48 50  1  0
 50 49  1  0
 52 51  1  0
 52 48  1  0
 53 52  1  0
 53 54  1  0
 55 66  2  0
 56 54  1  0
 56 61  1  0
 57 65  1  0
 57 67  1  0
 58 64  1  0
 58 60  1  0
 59 65  1  0
 60 61  2  0
 60 59  1  0
 62 56  2  0
 63 62  1  0
 63 58  2  0
 64 57  1  0
 65 55  1  0
 67 69  2  0
 68 67  1  0
 70 68  1  0
 71 80  2  0
 71 76  1  0
 72 68  1  0
 72 76  1  0
 73 72  1  0
 74 75  1  0
 74 73  1  0
 75 71  1  0
 76 77  2  0
 77 78  1  0
 79 78  2  0
 80 79  1  0
 81 55  1  0
 81 82  1  0
 81 91  1  0
 82 85  1  0
 83 87  1  0
 83 82  1  0
 84 83  2  0
 87 86  1  0
 89 87  1  0
 89 90  1  0
 89 88  1  0
 91 94  1  1
 91 92  1  0
 93 91  1  0
M  ISO  4   3 100  17 100  53 101  54 101
M  END
>  <TORSDO>  (72) 
F 21

>  <SCORE>  (72) 
-13.530

>  <name>  (72) 
72

>  <ligand_id>  (72) 
72

>  <original_smiles>  (72) 
[H]c1c([H])c([H])c2c(c1[H])C([H])([H])C([H])([H])C([H])([H])C2([H])N([H])C(=O)C1([H])N(C(=O)C([H])(N([H])C(=O)C([H])(N([H])C([H])([H])[H])C([H])([H])[H])C(C([H])([H])[H])(C([H])([H])[H])C([H])([H])[H])C([H])([H])c2c([H])c(OC([H])([H])C([H])(C([H])([H])[H])C([H])(C([H])([H])C([H])([H])[H])C([H])([H])C([H])([H])[N+]3([H])C([H])([H])C([H])([H])N(C(=O)N4C([H])([H])C([H])([H])C([H])([H])C([H])(n5nc(-c6c([H])c([H])c(Oc7c([H])c([H])c(F)c([H])c7F)c([H])c6[H])c(C(=O)N([H])[H])c5N([H])[H])C4([H])[H])C([H])([H])C([H])(C([H])([H])[H])C3([H])[H])c([H])c([H])c2C1([H])[H]

>  <smiles>  (72) 
[H]c1c([H])c([H])c2c(c1[H])C([H])([H])C([H])([H])C([H])([H])C2([H])N([H])C(=O)C1([H])N(C(=O)C([H])(N([H])C(=O)C([H])(N([H])C([H])([H])[H])C([H])([H])[H])C(C([H])([H])[H])(C([H])([H])[H])C([H])([H])[H])C([H])([H])c2c([H])c(OC([H])([H])C([H])(C([H])([H])[H])C([H])(C([H])([H])C([H])([H])[H])C([H])([H])C([H])([H])[N+]3([H])C([H])([H])C([H])([H])N(C(=O)N4C([H])([H])C([H])([H])C([H])([H])C([H])(n5nc(-c6c([H])c([H])c(Oc7c([H])c([H])c(F)c([H])c7F)c([H])c6[H])c(C(=O)N([H])[H])c5N([H])[H])C4([H])[H])C([H])([H])C([H])(C([H])([H])[H])C3([H])[H])c([H])c([H])c2C1([H])[H]

$$$$
73:0:0
     RDKit          3D

 92 99  0  0  1  0  0  0  0  0999 V2000
  -29.8300  -23.0760   19.3500 C   0  0  0  0  0  3  0  0  0  0  0  0
  -29.0730  -22.8730   18.0250 C   0  0  0  0  0  0  0  0  0  0  0  0
  -29.7690  -22.9660   16.8990 N   0  0  0  0  0  0  0  0  0  0  0  0
  -27.8690  -22.6310   18.0120 O   0  0  0  0  0  0  0  0  0  0  0  0
  -30.7590  -23.1690   16.9220 H   0  0  0  0  0  0  0  0  0  0  0  0
  -29.3160  -22.8370   16.0060 H   0  0  0  0  0  0  0  0  0  0  0  0
  -29.5500  -21.9330   20.3840 C   0  0  0  0  0  2  0  0  0  0  0  0
  -29.7090  -20.4740   19.8430 C   0  0  0  0  0  2  0  0  0  0  0  0
  -29.9380  -19.3790   20.9220 C   0  0  0  0  0  2  0  0  0  0  0  0
  -29.8250  -17.9140   20.4040 C   0  0  0  0  0  2  0  0  0  0  0  0
  -30.3600  -16.8510   21.4060 C   0  0  0  0  0  2  0  0  0  0  0  0
  -30.6510  -14.4840   20.5170 C   0  0  0  0  0  0  0  0  0  0  0  0
  -30.3660  -12.3290   19.3400 C   0  0  0  0  0  2  0  0  0  0  0  0
  -29.4130  -12.5260   18.1420 C   0  0  0  0  0  2  0  0  0  0  0  0
  -27.9410  -12.3870   18.5780 C   0  0  0  0  0  2  0  0  0  0  0  0
  -27.6090  -13.2230   19.8440 C   0  0  0  0  0  3  0  0  0  0  0  0
  -28.6680  -12.9860   20.9450 C   0  0  0  0  0  2  0  0  0  0  0  0
  -29.9890  -13.3030   20.3750 N   0  0  0  0  0  0  0  0  0  0  0  0
  -31.7720  -14.6880   20.0440 O   0  0  0  0  0  0  0  0  0  0  0  0
  -29.9430  -15.4680   21.1080 N   0  0  0  0  0  0  0  0  0  0  0  0
  -29.0250  -15.2000   21.4290 H   0  0  0  0  0  0  0  0  0  0  0  0
  -25.2120  -13.8390   20.5510 C   0  0  0  0  0  0  0  0  0  0  0  0
  -24.1430  -13.0700   20.9230 C   0  0  0  0  0  0  0  0  0  0  0  0
  -24.6010  -11.7180   20.8990 C   0  0  0  0  0  0  0  0  0  0  0  0
  -26.2560  -12.9550   20.3240 N   0  0  0  0  0  0  0  0  0  0  0  0
  -25.8910  -11.6740   20.5910 N   0  0  0  0  0  0  0  0  0  0  0  0
  -23.8730  -10.4580   21.0950 C   0  0  0  0  0  0  0  0  0  0  0  0
  -24.3250   -9.4800   22.0070 C   0  0  0  0  0  3  0  0  0  0  0  0
  -23.5980   -8.2830   22.1910 C   0  0  0  0  0  3  0  0  0  0  0  0
  -22.4060   -8.0580   21.4620 C   0  0  0  0  0  0  0  0  0  0  0  0
  -21.9740   -9.0260   20.5390 C   0  0  0  0  0  3  0  0  0  0  0  0
  -22.7010  -10.2130   20.3520 C   0  0  0  0  0  3  0  0  0  0  0  0
  -21.6490   -6.9150   21.5570 O   0  0  0  0  0  0  0  0  0  0  0  0
  -21.6460   -6.1460   22.6930 C   0  0  0  0  0  0  0  0  0  0  0  0
  -21.2980   -6.6790   23.9530 C   0  0  0  0  0  3  0  0  0  0  0  0
  -21.2410   -5.8370   25.0830 C   0  0  0  0  0  3  0  0  0  0  0  0
  -21.5200   -4.4640   24.9520 C   0  0  0  0  0  0  0  0  0  0  0  0
  -21.8610   -3.9310   23.6970 C   0  0  0  0  0  3  0  0  0  0  0  0
  -21.9210   -4.7690   22.5700 C   0  0  0  0  0  0  0  0  0  0  0  0
  -22.2290   -4.2460   21.3580 F   0  0  0  0  0  0  0  0  0  0  0  0
  -21.4580   -3.6530   26.0340 F   0  0  0  0  0  0  0  0  0  0  0  0
  -22.7470  -13.5520   21.1950 C   0  0  0  0  0  0  0  0  0  0  0  0
  -22.0200  -12.8620   22.0680 N   0  0  0  0  0  0  0  0  0  0  0  0
  -22.3090  -14.5740   20.6700 O   0  0  0  0  0  0  0  0  0  0  0  0
  -22.3880  -12.0340   22.5130 H   0  0  0  0  0  0  0  0  0  0  0  0
  -21.0830  -13.1650   22.2930 H   0  0  0  0  0  0  0  0  0  0  0  0
  -25.3800  -15.2090   20.3650 N   0  0  0  0  0  0  0  0  0  0  0  0
  -24.6160  -15.8670   20.4700 H   0  0  0  0  0  0  0  0  0  0  0  0
  -26.2310  -15.6430   20.0300 H   0  0  0  0  0  0  0  0  0  0  0  0
  -29.6860  -24.5430   19.9020 C   0  0  0  0  0  2  0  0  0  0  0  0
  -28.3370  -25.2920   19.7010 C   0  0  0  0  0  2  0  0  0  0  0  0
  -28.3910  -26.6710   20.1220 O   0  0  0  0  0  0  0  0  0  0  0  0
  -24.6140  -31.8780   23.2200 C   0  0  0  0  0  0  0  0  0  0  0  0
  -27.2130  -27.4050   20.1140 C   0  0  0  0  0  0  0  0  0  0  0  0
  -23.3870  -30.4790   21.5940 C   0  0  0  0  0  3  0  0  0  0  0  0
  -24.8220  -28.9370   20.1540 C   0  0  0  0  0  0  0  0  0  0  0  0
  -25.9150  -30.8230   21.3710 C   0  0  0  0  0  2  0  0  0  0  0  0
  -25.9900  -29.4510   20.7290 C   0  0  0  0  0  0  0  0  0  0  0  0
  -27.1860  -28.6920   20.7060 C   0  0  0  0  0  3  0  0  0  0  0  0
  -26.0160  -26.9120   19.5370 C   0  0  0  0  0  3  0  0  0  0  0  0
  -24.8300  -27.6670   19.5560 C   0  0  0  0  0  3  0  0  0  0  0  0
  -23.5810  -29.8010   20.2120 C   0  0  0  0  0  2  0  0  0  0  0  0
  -24.6580  -31.0760   22.1190 N   0  0  0  0  0  0  0  0  0  0  0  0
  -23.5390  -32.1540   23.7700 O   0  0  0  0  0  0  0  0  0  0  0  0
  -22.7430  -29.4590   22.5600 C   0  0  0  0  0  0  0  0  0  0  0  0
  -21.4160  -29.2800   22.4460 N   0  0  0  0  0  0  0  0  0  0  0  0
  -23.4320  -28.8330   23.3690 O   0  0  0  0  0  0  0  0  0  0  0  0
  -20.9200  -29.8360   21.7640 H   0  0  0  0  0  0  0  0  0  0  0  0
  -18.0460  -28.0850   22.9690 C   0  0  0  0  0  0  0  0  0  0  0  0
  -20.6050  -28.3460   23.2250 C   0  0  0  0  0  3  0  0  0  0  0  0
  -20.7060  -26.9110   22.6550 C   0  0  0  0  0  2  0  0  0  0  0  0
  -19.5970  -26.5840   21.6490 C   0  0  0  0  0  2  0  0  0  0  0  0
  -18.2190  -26.7330   22.2990 C   0  0  0  0  0  2  0  0  0  0  0  0
  -19.1660  -28.8500   23.3890 C   0  0  0  0  0  0  0  0  0  0  0  0
  -18.9510  -30.1160   23.9740 C   0  0  0  0  0  3  0  0  0  0  0  0
  -17.6470  -30.6190   24.1430 C   0  0  0  0  0  3  0  0  0  0  0  0
  -16.5400  -29.8520   23.7400 C   0  0  0  0  0  3  0  0  0  0  0  0
  -16.7410  -28.5860   23.1590 C   0  0  0  0  0  3  0  0  0  0  0  0
  -25.9080  -32.5060   23.8250 C   0  0  0  0  0  3  0  0  0  0  0  0
  -25.6020  -33.9000   24.1710 N   0  0  0  0  0  0  0  0  0  0  0  0
  -25.9200  -34.9600   23.4160 C   0  0  0  0  0  0  0  0  0  0  0  0
  -26.5750  -34.8670   22.3740 O   0  0  0  0  0  0  0  0  0  0  0  0
  -25.0180  -34.0470   24.9820 H   0  0  0  0  0  0  0  0  0  0  0  0
  -24.1810  -36.7490   23.1020 C   0  0  0  0  0  1  0  0  0  0  0  0
  -25.4350  -36.3420   23.8920 C   0  0  0  0  0  3  0  0  0  0  0  0
  -27.5830  -37.2220   24.6920 C   0  0  0  0  0  1  0  0  0  0  0  0
  -26.4620  -37.4010   23.7720 N   0  0  0  0  0  0  0  0  0  0  0  0
  -26.0570  -38.3170   23.9400 H   0  0  0  0  0  0  0  0  0  0  0  0
  -26.4490  -31.7240   25.0840 C   0  0  1  0  0  0  0  0  0  0  0  0
  -25.3760  -31.4740   26.1690 C   0  0  0  0  0  1  0  0  0  0  0  0
  -27.0270  -30.3520   24.6680 C   0  0  0  0  0  1  0  0  0  0  0  0
  -27.6110  -32.5140   25.7320 C   0  0  0  0  0  1  0  0  0  0  0  0
  1 50  1  0
  1  7  1  0
  2  1  1  0
  3  5  1  0
  3  2  1  0
  4  2  2  0
  6  3  1  0
  8  7  1  0
  8  9  1  0
 10  9  1  0
 10 11  1  0
 12 20  1  0
 13 18  1  0
 14 15  1  0
 14 13  1  0
 16 15  1  0
 16 25  1  0
 16 17  1  0
 18 12  1  0
 18 17  1  0
 19 12  2  0
 20 11  1  0
 20 21  1  0
 22 23  2  0
 23 42  1  0
 24 23  1  0
 24 27  1  0
 25 22  1  0
 25 26  1  0
 26 24  2  0
 27 28  1  0
 28 29  2  0
 30 33  1  0
 30 29  1  0
 31 30  2  0
 32 31  1  0
 32 27  2  0
 33 34  1  0
 34 35  1  0
 35 36  2  0
 37 36  1  0
 37 41  1  0
 38 37  2  0
 39 34  2  0
 39 38  1  0
 40 39  1  0
 42 43  1  0
 43 46  1  0
 43 45  1  0
 44 42  2  0
 47 48  1  0
 47 22  1  0
 49 47  1  0
 51 50  1  0
 51 52  1  0
 53 64  2  0
 54 52  1  0
 54 59  1  0
 55 63  1  0
 55 65  1  0
 56 62  1  0
 56 58  1  0
 57 63  1  0
 58 57  1  0
 59 58  2  0
 60 61  1  0
 60 54  2  0
 61 56  2  0
 62 55  1  0
 63 53  1  0
 65 67  2  0
 66 65  1  0
 68 66  1  0
 69 78  2  0
 69 74  1  0
 70 66  1  0
 70 74  1  0
 71 70  1  0
 72 73  1  0
 72 71  1  0
 73 69  1  0
 74 75  2  0
 75 76  1  0
 77 76  2  0
 78 77  1  0
 79 53  1  0
 79 80  1  0
 79 89  1  0
 80 83  1  0
 81 85  1  0
 81 80  1  0
 82 81  2  0
 85 84  1  0
 87 85  1  0
 87 88  1  0
 87 86  1  0
 89 92  1  1
 89 90  1  0
 91 89  1  0
M  ISO  4  12 100  20 100  51 101  52 101
M  END
>  <TORSDO>  (73) 
F 24

>  <SCORE>  (73) 
-12.387

>  <name>  (73) 
73

>  <ligand_id>  (73) 
73

>  <original_smiles>  (73) 
[H]c1c([H])c([H])c2c(c1[H])C([H])([H])C([H])([H])C([H])([H])C2([H])N([H])C(=O)C1([H])N(C(=O)C([H])(N([H])C(=O)C([H])(N([H])C([H])([H])[H])C([H])([H])[H])C(C([H])([H])[H])(C([H])([H])[H])C([H])([H])[H])C([H])([H])c2c([H])c(OC([H])([H])C([H])([H])C([H])(C(=O)N([H])[H])C([H])([H])C([H])([H])C([H])([H])C([H])([H])C([H])([H])N([H])C(=O)N3C([H])([H])C([H])([H])C([H])([H])C([H])(n4nc(-c5c([H])c([H])c(Oc6c([H])c([H])c(F)c([H])c6F)c([H])c5[H])c(C(=O)N([H])[H])c4N([H])[H])C3([H])[H])c([H])c([H])c2C1([H])[H]

>  <smiles>  (73) 
[H]c1c([H])c([H])c2c(c1[H])C([H])([H])C([H])([H])C([H])([H])C2([H])N([H])C(=O)C1([H])N(C(=O)C([H])(N([H])C(=O)C([H])(N([H])C([H])([H])[H])C([H])([H])[H])C(C([H])([H])[H])(C([H])([H])[H])C([H])([H])[H])C([H])([H])c2c([H])c(OC([H])([H])C([H])([H])C([H])(C(=O)N([H])[H])C([H])([H])C([H])([H])C([H])([H])C([H])([H])C([H])([H])N([H])C(=O)N3C([H])([H])C([H])([H])C([H])([H])C([H])(n4nc(-c5c([H])c([H])c(Oc6c([H])c([H])c(F)c([H])c6F)c([H])c5[H])c(C(=O)N([H])[H])c4N([H])[H])C3([H])[H])c([H])c([H])c2C1([H])[H]

$$$$
74:0:0
     RDKit          3D

 93100  0  0  1  0  0  0  0  0999 V2000
  -29.3350  -21.1820   20.7630 N   0  0  0  0  0  4  0  0  0  0  0  0
  -30.3310  -21.3320   20.7390 H   0  0  0  0  0  0  0  0  0  0  0  0
  -29.0810  -21.3070   21.7310 H   0  0  0  0  0  0  0  0  0  0  0  0
  -29.7230  -22.7450   18.8380 C   0  0  0  0  0  1  0  0  0  0  0  0
  -28.7020  -22.2870   19.8930 C   0  0  0  0  0  3  0  0  0  0  0  0
  -27.8270  -23.5260   20.5250 C   0  0  0  0  0  2  0  0  0  0  0  0
  -28.3260  -25.0080   20.9490 C   0  0  0  0  0  2  0  0  0  0  0  0
  -28.2330  -26.2500   20.1130 O   0  0  0  0  0  0  0  0  0  0  0  0
  -24.6220  -31.7810   23.1790 C   0  0  0  0  0  0  0  0  0  0  0  0
  -27.1210  -27.1130   20.1710 C   0  0  0  0  0  0  0  0  0  0  0  0
  -23.3760  -30.3840   21.5710 C   0  0  0  0  0  3  0  0  0  0  0  0
  -24.7830  -28.7810   20.1520 C   0  0  0  0  0  0  0  0  0  0  0  0
  -25.9210  -30.6490   21.3520 C   0  0  0  0  0  2  0  0  0  0  0  0
  -25.9690  -29.2550   20.7310 C   0  0  0  0  0  0  0  0  0  0  0  0
  -27.1440  -28.4350   20.7230 C   0  0  0  0  0  3  0  0  0  0  0  0
  -25.9160  -26.6930   19.5710 C   0  0  0  0  0  3  0  0  0  0  0  0
  -24.7600  -27.5010   19.5680 C   0  0  0  0  0  3  0  0  0  0  0  0
  -23.5600  -29.6780   20.2020 C   0  0  0  0  0  2  0  0  0  0  0  0
  -24.6620  -30.9610   22.0890 N   0  0  0  0  0  0  0  0  0  0  0  0
  -23.5500  -32.0820   23.7230 O   0  0  0  0  0  0  0  0  0  0  0  0
  -22.7100  -29.3940   22.5550 C   0  0  0  0  0  0  0  0  0  0  0  0
  -21.3790  -29.2330   22.4430 N   0  0  0  0  0  0  0  0  0  0  0  0
  -23.3910  -28.7670   23.3750 O   0  0  0  0  0  0  0  0  0  0  0  0
  -20.8890  -29.7920   21.7570 H   0  0  0  0  0  0  0  0  0  0  0  0
  -17.9970  -28.0650   22.9590 C   0  0  0  0  0  0  0  0  0  0  0  0
  -20.5590  -28.3080   23.2250 C   0  0  0  0  0  3  0  0  0  0  0  0
  -20.6520  -26.8730   22.6560 C   0  0  0  0  0  2  0  0  0  0  0  0
  -19.5460  -26.5600   21.6430 C   0  0  0  0  0  2  0  0  0  0  0  0
  -18.1660  -26.7120   22.2900 C   0  0  0  0  0  2  0  0  0  0  0  0
  -19.1210  -28.8200   23.3820 C   0  0  0  0  0  0  0  0  0  0  0  0
  -18.9110  -30.0930   23.9540 C   0  0  0  0  0  3  0  0  0  0  0  0
  -17.6090  -30.6060   24.1150 C   0  0  0  0  0  3  0  0  0  0  0  0
  -16.5010  -29.8430   23.7100 C   0  0  0  0  0  3  0  0  0  0  0  0
  -16.6950  -28.5770   23.1340 C   0  0  0  0  0  3  0  0  0  0  0  0
  -25.9200  -32.3990   23.7890 C   0  0  0  0  0  3  0  0  0  0  0  0
  -26.4610  -31.6050   25.0390 C   0  0  1  0  0  0  0  0  0  0  0  0
  -25.3890  -31.3550   26.1260 C   0  0  0  0  0  1  0  0  0  0  0  0
  -27.0310  -30.2340   24.6120 C   0  0  0  0  0  1  0  0  0  0  0  0
  -27.6300  -32.3850   25.6880 C   0  0  0  0  0  1  0  0  0  0  0  0
  -25.6250  -33.7920   24.1480 N   0  0  0  0  0  0  0  0  0  0  0  0
  -25.9590  -34.8560   23.4090 C   0  0  0  0  0  0  0  0  0  0  0  0
  -26.6150  -34.7700   22.3680 O   0  0  0  0  0  0  0  0  0  0  0  0
  -25.0410  -33.9360   24.9590 H   0  0  0  0  0  0  0  0  0  0  0  0
  -24.2370  -36.6690   23.1180 C   0  0  0  0  0  1  0  0  0  0  0  0
  -25.4880  -36.2400   23.9010 C   0  0  0  0  0  3  0  0  0  0  0  0
  -27.6450  -37.0890   24.7140 C   0  0  0  0  0  1  0  0  0  0  0  0
  -26.5290  -37.2870   23.7930 N   0  0  0  0  0  0  0  0  0  0  0  0
  -26.1340  -38.2090   23.9670 H   0  0  0  0  0  0  0  0  0  0  0  0
  -29.1590  -19.6860   20.4070 C   0  0  0  0  0  2  0  0  0  0  0  0
  -30.4830  -18.8090   20.1940 C   0  0  0  0  0  0  0  0  0  0  0  0
  -31.3980  -19.3160   19.5320 O   0  0  0  0  0  0  0  0  0  0  0  0
  -30.6520  -17.3100   20.8030 C   0  0  0  0  0  0  0  0  0  0  0  0
  -31.5920  -14.9160   19.9820 C   0  0  0  0  0  0  0  0  0  0  0  0
  -31.2410  -12.6480   18.9700 C   0  0  0  0  0  2  0  0  0  0  0  0
  -30.2740  -12.7850   17.7680 C   0  0  0  0  0  2  0  0  0  0  0  0
  -28.8030  -12.7170   18.2380 C   0  0  0  0  0  2  0  0  0  0  0  0
  -28.5250  -13.6220   19.4690 C   0  0  0  0  0  3  0  0  0  0  0  0
  -29.6120  -13.4710   20.5510 C   0  0  0  0  0  2  0  0  0  0  0  0
  -30.9020  -13.7340   19.9040 N   0  0  0  0  0  0  0  0  0  0  0  0
  -32.8110  -14.9470   19.8040 O   0  0  0  0  0  0  0  0  0  0  0  0
  -30.8230  -16.0720   19.9070 N   0  0  0  0  0  4  0  0  0  0  0  0
  -30.0510  -15.9710   19.2560 H   0  0  0  0  0  0  0  0  0  0  0  0
  -26.2360  -14.4000   20.3180 C   0  0  0  0  0  0  0  0  0  0  0  0
  -25.1170  -13.7140   20.7000 C   0  0  0  0  0  0  0  0  0  0  0  0
  -25.4520  -12.3280   20.6070 C   0  0  0  0  0  0  0  0  0  0  0  0
  -27.1830  -13.4360   20.0110 N   0  0  0  0  0  0  0  0  0  0  0  0
  -26.7240  -12.1810   20.2500 N   0  0  0  0  0  0  0  0  0  0  0  0
  -24.6170  -11.1330   20.7860 C   0  0  0  0  0  0  0  0  0  0  0  0
  -24.9700  -10.1240   21.7100 C   0  0  0  0  0  3  0  0  0  0  0  0
  -24.1520   -8.9880   21.8780 C   0  0  0  0  0  3  0  0  0  0  0  0
  -22.9640   -8.8590   21.1230 C   0  0  0  0  0  0  0  0  0  0  0  0
  -22.6300   -9.8490   20.1850 C   0  0  0  0  0  3  0  0  0  0  0  0
  -23.4450  -10.9790   20.0170 C   0  0  0  0  0  3  0  0  0  0  0  0
  -22.1220   -7.7740   21.1930 O   0  0  0  0  0  0  0  0  0  0  0  0
  -21.9650   -7.0570   22.3510 C   0  0  0  0  0  0  0  0  0  0  0  0
  -21.5700   -7.6690   23.5590 C   0  0  0  0  0  3  0  0  0  0  0  0
  -21.3610   -6.8850   24.7130 C   0  0  0  0  0  3  0  0  0  0  0  0
  -21.5360   -5.4910   24.6570 C   0  0  0  0  0  0  0  0  0  0  0  0
  -21.9200   -4.8750   23.4520 C   0  0  0  0  0  3  0  0  0  0  0  0
  -22.1370   -5.6570   22.3040 C   0  0  0  0  0  0  0  0  0  0  0  0
  -22.4870   -5.0580   21.1420 F   0  0  0  0  0  0  0  0  0  0  0  0
  -21.3270   -4.7370   25.7610 F   0  0  0  0  0  0  0  0  0  0  0  0
  -23.7800  -14.3050   21.0390 C   0  0  0  0  0  0  0  0  0  0  0  0
  -23.0390  -13.6660   21.9350 N   0  0  0  0  0  0  0  0  0  0  0  0
  -23.4060  -15.3670   20.5430 O   0  0  0  0  0  0  0  0  0  0  0  0
  -23.3580  -12.8060   22.3510 H   0  0  0  0  0  0  0  0  0  0  0  0
  -22.1420  -14.0440   22.2070 H   0  0  0  0  0  0  0  0  0  0  0  0
  -26.5230  -15.7570   20.1830 N   0  0  0  0  0  0  0  0  0  0  0  0
  -25.8260  -16.4790   20.3380 H   0  0  0  0  0  0  0  0  0  0  0  0
  -27.4020  -16.1210   19.8410 H   0  0  0  0  0  0  0  0  0  0  0  0
  -31.6010  -17.2330   22.0390 C   0  0  0  0  0  2  0  0  0  0  0  0
  -30.1880  -18.4180   23.8560 C   0  0  0  0  0  1  0  0  0  0  0  0
  -31.5160  -18.3710   23.0850 C   0  0  0  0  0  2  0  0  0  0  0  0
  1  3  1  0
  2  1  1  0
  5  4  1  0
  5  6  1  0
  5  1  1  0
  6  7  1  0
  8 10  1  0
  8  7  1  0
  9 20  2  0
 10 15  1  0
 11 19  1  0
 11 21  1  0
 12 18  1  0
 12 14  1  0
 13 19  1  0
 14 13  1  0
 15 14  2  0
 16 10  2  0
 17 16  1  0
 17 12  2  0
 18 11  1  0
 19  9  1  0
 21 23  2  0
 22 21  1  0
 24 22  1  0
 25 34  2  0
 25 30  1  0
 26 22  1  0
 26 30  1  0
 27 26  1  0
 28 29  1  0
 28 27  1  0
 29 25  1  0
 30 31  2  0
 31 32  1  0
 33 32  2  0
 34 33  1  0
 35  9  1  0
 35 40  1  0
 35 36  1  0
 36 39  1  1
 36 37  1  0
 38 36  1  0
 40 43  1  0
 41 45  1  0
 41 40  1  0
 42 41  2  0
 45 44  1  0
 47 45  1  0
 47 48  1  0
 47 46  1  0
 49  1  1  0
 50 49  1  0
 50 52  1  0
 51 50  2  0
 52 91  1  0
 54 59  1  0
 55 56  1  0
 55 54  1  0
 57 56  1  0
 57 66  1  0
 57 58  1  0
 59 53  1  0
 59 58  1  0
 60 53  2  0
 61 53  1  0
 61 52  2  0
 62 61  1  0
 63 64  2  0
 64 83  1  0
 65 64  1  0
 65 68  1  0
 66 67  1  0
 66 63  1  0
 67 65  2  0
 68 69  1  0
 69 70  2  0
 71 74  1  0
 71 70  1  0
 72 71  2  0
 73 72  1  0
 73 68  2  0
 74 75  1  0
 75 76  1  0
 76 77  2  0
 78 77  1  0
 78 82  1  0
 79 78  2  0
 80 75  2  0
 80 79  1  0
 81 80  1  0
 83 84  1  0
 84 87  1  0
 84 86  1  0
 85 83  2  0
 88 63  1  0
 88 89  1  0
 90 88  1  0
 91 93  1  0
 93 92  1  0
M  ISO  4   7 101   8 101  53 100  61 100
M  END
>  <TORSDO>  (74) 
F 24

>  <SCORE>  (74) 
-9.690

>  <name>  (74) 
74

>  <ligand_id>  (74) 
74

>  <original_smiles>  (74) 
[H]c1c([H])c([H])c2c(c1[H])C([H])([H])C([H])([H])C([H])([H])C2([H])N([H])C(=O)C1([H])N(C(=O)C([H])(N([H])C(=O)C([H])(N([H])C([H])([H])[H])C([H])([H])[H])C(C([H])([H])[H])(C([H])([H])[H])C([H])([H])[H])C([H])([H])c2c([H])c(OC([H])([H])C([H])([H])C([H])(C([H])([H])[H])[N+]([H])([H])C([H])([H])C(=O)C([H])(N([H])C(=O)N3C([H])([H])C([H])([H])C([H])([H])C([H])(n4nc(-c5c([H])c([H])c(Oc6c([H])c([H])c(F)c([H])c6F)c([H])c5[H])c(C(=O)N([H])[H])c4N([H])[H])C3([H])[H])C([H])([H])C([H])([H])C([H])([H])[H])c([H])c([H])c2C1([H])[H]

>  <smiles>  (74) 
[H]c1c([H])c([H])c2c(c1[H])C([H])([H])C([H])([H])C([H])([H])C2([H])N([H])C(=O)C1([H])N(C(=O)C([H])(N([H])C(=O)C([H])(N([H])C([H])([H])[H])C([H])([H])[H])C(C([H])([H])[H])(C([H])([H])[H])C([H])([H])[H])C([H])([H])c2c([H])c(OC([H])([H])C([H])([H])C([H])(C([H])([H])[H])[N+]([H])([H])C([H])([H])C(=O)C([H])(N([H])C(=O)N3C([H])([H])C([H])([H])C([H])([H])C([H])(n4nc(-c5c([H])c([H])c(Oc6c([H])c([H])c(F)c([H])c6F)c([H])c5[H])c(C(=O)N([H])[H])c4N([H])[H])C3([H])[H])C([H])([H])C([H])([H])C([H])([H])[H])c([H])c([H])c2C1([H])[H]

$$$$
75:0:0
     RDKit          3D

 92100  0  0  1  0  0  0  0  0999 V2000
  -30.7810  -15.1470   20.4750 C   0  0  0  0  0  0  0  0  0  0  0  0
  -30.6300  -12.8320   19.4270 C   0  0  0  0  0  2  0  0  0  0  0  0
  -29.7210  -12.8430   18.1760 C   0  0  0  0  0  2  0  0  0  0  0  0
  -28.2590  -12.5980   18.5860 C   0  0  0  0  0  2  0  0  0  0  0  0
  -27.8270  -13.4790   19.7870 C   0  0  0  0  0  3  0  0  0  0  0  0
  -28.8660  -13.4720   20.9320 C   0  0  0  0  0  2  0  0  0  0  0  0
  -30.1440  -13.9080   20.3480 N   0  0  0  0  0  0  0  0  0  0  0  0
  -31.9970  -15.1480   20.2330 O   0  0  0  0  0  0  0  0  0  0  0  0
  -30.6710  -17.5670   21.5060 C   0  0  0  0  0  2  0  0  0  0  0  0
  -29.6880  -18.6560   20.8780 C   0  0  0  0  0  3  0  0  0  0  0  0
  -29.7540  -17.5310   19.7340 C   0  0  0  0  0  3  0  0  0  0  0  0
  -30.0930  -16.3990   20.7180 N   0  0  0  0  0  0  0  0  0  0  0  0
  -25.4290  -14.0220   20.4890 C   0  0  0  0  0  0  0  0  0  0  0  0
  -24.3580  -13.2340   20.8000 C   0  0  0  0  0  0  0  0  0  0  0  0
  -24.8300  -11.8870   20.7480 C   0  0  0  0  0  0  0  0  0  0  0  0
  -26.4830  -13.1580   20.2500 N   0  0  0  0  0  0  0  0  0  0  0  0
  -26.1290  -11.8650   20.4730 N   0  0  0  0  0  0  0  0  0  0  0  0
  -24.1060  -10.6170   20.8820 C   0  0  0  0  0  0  0  0  0  0  0  0
  -24.5270   -9.6130   21.7810 C   0  0  0  0  0  3  0  0  0  0  0  0
  -23.7940   -8.4140   21.9090 C   0  0  0  0  0  3  0  0  0  0  0  0
  -22.6280   -8.2080   21.1340 C   0  0  0  0  0  0  0  0  0  0  0  0
  -22.2290   -9.1990   20.2240 C   0  0  0  0  0  3  0  0  0  0  0  0
  -22.9610  -10.3900   20.0930 C   0  0  0  0  0  3  0  0  0  0  0  0
  -21.8720   -7.0600   21.1690 O   0  0  0  0  0  0  0  0  0  0  0  0
  -21.7830   -6.2930   22.3010 C   0  0  0  0  0  0  0  0  0  0  0  0
  -21.2720   -6.8100   23.5120 C   0  0  0  0  0  3  0  0  0  0  0  0
  -21.1310   -5.9680   24.6350 C   0  0  0  0  0  3  0  0  0  0  0  0
  -21.4940   -4.6130   24.5440 C   0  0  0  0  0  0  0  0  0  0  0  0
  -21.9980   -4.0930   23.3390 C   0  0  0  0  0  3  0  0  0  0  0  0
  -22.1390   -4.9320   22.2210 C   0  0  0  0  0  0  0  0  0  0  0  0
  -22.6080   -4.4240   21.0550 F   0  0  0  0  0  0  0  0  0  0  0  0
  -21.3520   -3.8010   25.6190 F   0  0  0  0  0  0  0  0  0  0  0  0
  -22.9530  -13.7010   21.0340 C   0  0  0  0  0  0  0  0  0  0  0  0
  -22.2170  -13.0200   21.9040 N   0  0  0  0  0  0  0  0  0  0  0  0
  -22.5150  -14.7130   20.4860 O   0  0  0  0  0  0  0  0  0  0  0  0
  -22.5810  -12.2070   22.3770 H   0  0  0  0  0  0  0  0  0  0  0  0
  -21.2760  -13.3260   22.1100 H   0  0  0  0  0  0  0  0  0  0  0  0
  -25.5800  -15.3970   20.3590 N   0  0  0  0  0  0  0  0  0  0  0  0
  -24.7850  -16.0240   20.4240 H   0  0  0  0  0  0  0  0  0  0  0  0
  -26.3970  -15.8570   19.9860 H   0  0  0  0  0  0  0  0  0  0  0  0
  -30.0120  -20.3500   20.8160 C   0  0  0  0  0  2  0  0  0  0  0  0
  -29.0550  -21.6580   20.3610 C   0  0  0  0  0  0  0  0  0  0  0  0
  -28.0110  -21.3910   19.7630 O   0  0  0  0  0  0  0  0  0  0  0  0
  -29.3920  -23.2920   20.5980 C   0  0  0  0  0  3  0  0  0  0  0  0
  -28.3950  -24.6450   20.2430 C   0  0  0  0  0  3  0  0  0  0  0  0
  -28.6270  -26.1950   20.4700 O   0  0  0  0  0  0  0  0  0  0  0  0
  -24.7880  -31.8700   23.3050 C   0  0  0  0  0  0  0  0  0  0  0  0
  -27.5690  -27.1880   20.3650 C   0  0  0  0  0  0  0  0  0  0  0  0
  -23.6880  -30.4750   21.5980 C   0  0  0  0  0  3  0  0  0  0  0  0
  -25.2250  -28.9300   20.2300 C   0  0  0  0  0  0  0  0  0  0  0  0
  -26.2450  -30.7680   21.5590 C   0  0  0  0  0  2  0  0  0  0  0  0
  -26.3700  -29.3790   20.8990 C   0  0  0  0  0  0  0  0  0  0  0  0
  -27.5450  -28.5280   20.9420 C   0  0  0  0  0  3  0  0  0  0  0  0
  -26.3970  -26.8510   19.6550 C   0  0  0  0  0  3  0  0  0  0  0  0
  -25.2560  -27.6830   19.5900 C   0  0  0  0  0  3  0  0  0  0  0  0
  -23.9850  -29.8150   20.2250 C   0  0  0  0  0  2  0  0  0  0  0  0
  -24.9240  -31.0590   22.2100 N   0  0  0  0  0  0  0  0  0  0  0  0
  -23.6730  -32.1360   23.7810 O   0  0  0  0  0  0  0  0  0  0  0  0
  -22.9760  -29.4510   22.5180 C   0  0  0  0  0  0  0  0  0  0  0  0
  -21.6590  -29.2580   22.3250 N   0  0  0  0  0  0  0  0  0  0  0  0
  -23.6140  -28.8300   23.3730 O   0  0  0  0  0  0  0  0  0  0  0  0
  -21.1980  -29.8150   21.6180 H   0  0  0  0  0  0  0  0  0  0  0  0
  -18.2520  -28.1060   22.7680 C   0  0  0  0  0  0  0  0  0  0  0  0
  -20.8150  -28.3020   23.0480 C   0  0  0  0  0  3  0  0  0  0  0  0
  -20.8840  -26.8960   22.4050 C   0  0  0  0  0  2  0  0  0  0  0  0
  -19.7780  -26.6480   21.3730 C   0  0  0  0  0  2  0  0  0  0  0  0
  -18.3990  -26.7900   22.0230 C   0  0  0  0  0  2  0  0  0  0  0  0
  -19.3860  -28.8240   23.2360 C   0  0  0  0  0  0  0  0  0  0  0  0
  -19.1900  -30.0570   23.8930 C   0  0  0  0  0  3  0  0  0  0  0  0
  -17.8960  -30.5740   24.0850 C   0  0  0  0  0  3  0  0  0  0  0  0
  -16.7770  -29.8550   23.6310 C   0  0  0  0  0  3  0  0  0  0  0  0
  -16.9550  -28.6220   22.9800 C   0  0  0  0  0  3  0  0  0  0  0  0
  -26.0240  -32.5190   24.0000 C   0  0  0  0  0  3  0  0  0  0  0  0
  -25.6830  -33.9160   24.3120 N   0  0  0  0  0  0  0  0  0  0  0  0
  -25.9800  -34.9680   23.5370 C   0  0  0  0  0  0  0  0  0  0  0  0
  -26.6390  -34.8650   22.4990 O   0  0  0  0  0  0  0  0  0  0  0  0
  -25.0960  -34.0670   25.1190 H   0  0  0  0  0  0  0  0  0  0  0  0
  -24.1870  -36.7070   23.2080 C   0  0  0  0  0  1  0  0  0  0  0  0
  -25.4680  -36.3530   23.9810 C   0  0  0  0  0  3  0  0  0  0  0  0
  -27.5960  -37.3310   24.7230 C   0  0  0  0  0  1  0  0  0  0  0  0
  -26.4620  -37.4350   23.8080 N   0  0  0  0  0  0  0  0  0  0  0  0
  -26.0300  -38.3460   23.9350 H   0  0  0  0  0  0  0  0  0  0  0  0
  -26.4680  -31.7580   25.3120 C   0  0  1  0  0  0  0  0  0  0  0  0
  -25.3040  -31.4500   26.2820 C   0  0  0  0  0  1  0  0  0  0  0  0
  -27.1550  -30.4160   24.9650 C   0  0  0  0  0  1  0  0  0  0  0  0
  -27.5120  -32.6030   26.0780 C   0  0  0  0  0  1  0  0  0  0  0  0
  -28.4840  -17.1860   18.9670 C   0  0  0  0  0  2  0  0  0  0  0  0
  -27.8200  -18.3890   18.2750 C   0  0  0  0  0  2  0  0  0  0  0  0
  -25.7940  -19.9390   18.1730 C   0  0  0  0  0  1  0  0  0  0  0  0
  -26.5210  -18.8450   18.9670 C   0  0  2  0  0  0  0  0  0  0  0  0
  -26.8130  -19.3310   20.1750 F   0  0  0  0  0  0  0  0  0  0  0  0
  -25.6900  -17.8130   19.1110 F   0  0  0  0  0  0  0  0  0  0  0  0
  1 12  1  0
  2  7  1  0
  3  4  1  0
  3  2  1  0
  5  4  1  0
  5 16  1  0
  5  6  1  0
  7  1  1  0
  7  6  1  0
  8  1  2  0
 10 41  1  0
 10  9  1  0
 11 87  1  0
 11 12  1  0
 11 10  1  0
 12  9  1  0
 13 14  2  0
 14 33  1  0
 15 14  1  0
 15 18  1  0
 16 17  1  0
 16 13  1  0
 17 15  2  0
 18 19  1  0
 19 20  2  0
 21 24  1  0
 21 20  1  0
 22 21  2  0
 23 22  1  0
 23 18  2  0
 24 25  1  0
 25 26  1  0
 26 27  2  0
 28 27  1  0
 28 32  1  0
 29 28  2  0
 30 25  2  0
 30 29  1  0
 31 30  1  0
 33 34  1  0
 34 37  1  0
 34 36  1  0
 35 33  2  0
 38 39  1  0
 38 13  1  0
 40 38  1  0
 42 44  1  0
 42 41  1  0
 43 42  2  0
 45 46  1  0
 45 44  2  0
 47 58  2  0
 48 46  1  0
 48 53  1  0
 49 57  1  0
 49 59  1  0
 50 52  1  0
 51 57  1  0
 52 53  2  0
 52 51  1  0
 54 48  2  0
 55 54  1  0
 55 50  2  0
 56 50  1  0
 56 49  1  0
 57 47  1  0
 59 61  2  0
 60 59  1  0
 62 60  1  0
 63 72  2  0
 63 68  1  0
 64 60  1  0
 64 68  1  0
 65 64  1  0
 66 67  1  0
 66 65  1  0
 67 63  1  0
 68 69  2  0
 69 70  1  0
 71 70  2  0
 72 71  1  0
 73 47  1  0
 73 74  1  0
 73 83  1  0
 74 77  1  0
 75 79  1  0
 75 74  1  0
 76 75  2  0
 79 78  1  0
 81 82  1  0
 81 79  1  0
 81 80  1  0
 83 86  1  1
 83 84  1  0
 85 83  1  0
 88 90  1  0
 88 87  1  0
 90 89  1  6
 90 92  1  0
 90 91  1  0
M  ISO  4   1 100  12 100  45 101  46 101
M  END
>  <TORSDO>  (75) 
F 22

>  <SCORE>  (75) 
-13.629

>  <name>  (75) 
75

>  <ligand_id>  (75) 
75

>  <original_smiles>  (75) 
[H]c1c([H])c([H])c2c(c1[H])C([H])([H])C([H])([H])C([H])([H])C2([H])N([H])C(=O)C1([H])N(C(=O)C([H])(N([H])C(=O)C([H])(N([H])C([H])([H])[H])C([H])([H])[H])C(C([H])([H])[H])(C([H])([H])[H])C([H])([H])[H])C([H])([H])c2c([H])c(OC([H])([H])C([H])([H])C(=O)C([H])([H])C3([H])C([H])([H])N(C(=O)N4C([H])([H])C([H])([H])C([H])([H])C([H])(n5nc(-c6c([H])c([H])c(Oc7c([H])c([H])c(F)c([H])c7F)c([H])c6[H])c(C(=O)N([H])[H])c5N([H])[H])C4([H])[H])C3([H])C([H])([H])C([H])([H])C(F)(F)C([H])([H])[H])c([H])c([H])c2C1([H])[H]

>  <smiles>  (75) 
[H]c1c([H])c([H])c2c(c1[H])C([H])([H])C([H])([H])C([H])([H])C2([H])N([H])C(=O)C1([H])N(C(=O)C([H])(N([H])C(=O)C([H])(N([H])C([H])([H])[H])C([H])([H])[H])C(C([H])([H])[H])(C([H])([H])[H])C([H])([H])[H])C([H])([H])c2c([H])c(OC([H])([H])C([H])([H])C(=O)C([H])([H])C3([H])C([H])([H])N(C(=O)N4C([H])([H])C([H])([H])C([H])([H])C([H])(n5nc(-c6c([H])c([H])c(Oc7c([H])c([H])c(F)c([H])c7F)c([H])c6[H])c(C(=O)N([H])[H])c5N([H])[H])C4([H])[H])C3([H])C([H])([H])C([H])([H])C(F)(F)C([H])([H])[H])c([H])c([H])c2C1([H])[H]

$$$$
76:0:0
     RDKit          3D

 97104  0  0  1  0  0  0  0  0999 V2000
  -29.2760  -20.0340   20.1350 C   0  0  0  0  0  3  0  0  0  0  0  0
  -30.3610  -18.7700   20.5090 C   0  0  0  0  0  3  0  0  0  0  0  0
  -29.9740  -17.1820   21.0200 C   0  0  0  0  0  2  0  0  0  0  0  0
  -30.4750  -14.6510   20.1280 C   0  0  0  0  0  0  0  0  0  0  0  0
  -30.2630  -12.3330   19.1310 C   0  0  0  0  0  2  0  0  0  0  0  0
  -29.2290  -12.3110   17.9810 C   0  0  0  0  0  2  0  0  0  0  0  0
  -27.8060  -12.0970   18.5360 C   0  0  0  0  0  2  0  0  0  0  0  0
  -27.4940  -13.0090   19.7520 C   0  0  0  0  0  3  0  0  0  0  0  0
  -28.6400  -13.0020   20.7850 C   0  0  0  0  0  2  0  0  0  0  0  0
  -29.8550  -13.4100   20.0710 N   0  0  0  0  0  0  0  0  0  0  0  0
  -31.6720  -14.7200   19.8450 O   0  0  0  0  0  0  0  0  0  0  0  0
  -29.7010  -15.8260   20.2910 N   0  0  0  0  0  0  0  0  0  0  0  0
  -28.7180  -15.6130   20.2570 H   0  0  0  0  0  0  0  0  0  0  0  0
  -25.1970  -13.5760   20.7280 C   0  0  0  0  0  0  0  0  0  0  0  0
  -24.1550  -12.7920   21.1450 C   0  0  0  0  0  0  0  0  0  0  0  0
  -24.5950  -11.4410   20.9990 C   0  0  0  0  0  0  0  0  0  0  0  0
  -26.2000  -12.7010   20.3520 N   0  0  0  0  0  0  0  0  0  0  0  0
  -25.8540  -11.4080   20.5800 N   0  0  0  0  0  0  0  0  0  0  0  0
  -23.8680  -10.1770   21.1820 C   0  0  0  0  0  0  0  0  0  0  0  0
  -24.3440   -9.1680   22.0490 C   0  0  0  0  0  3  0  0  0  0  0  0
  -23.6160   -7.9720   22.2230 C   0  0  0  0  0  3  0  0  0  0  0  0
  -22.3980   -7.7740   21.5280 C   0  0  0  0  0  0  0  0  0  0  0  0
  -21.9410   -8.7710   20.6490 C   0  0  0  0  0  3  0  0  0  0  0  0
  -22.6700   -9.9620   20.4750 C   0  0  0  0  0  3  0  0  0  0  0  0
  -21.6370   -6.6340   21.6160 O   0  0  0  0  0  0  0  0  0  0  0  0
  -21.6300   -5.8580   22.7470 C   0  0  0  0  0  0  0  0  0  0  0  0
  -21.2370   -6.3740   24.0020 C   0  0  0  0  0  3  0  0  0  0  0  0
  -21.1760   -5.5260   25.1250 C   0  0  0  0  0  3  0  0  0  0  0  0
  -21.4980   -4.1610   24.9960 C   0  0  0  0  0  0  0  0  0  0  0  0
  -21.8810   -3.6440   23.7460 C   0  0  0  0  0  3  0  0  0  0  0  0
  -21.9450   -4.4900   22.6260 C   0  0  0  0  0  0  0  0  0  0  0  0
  -22.2960   -3.9820   21.4190 F   0  0  0  0  0  0  0  0  0  0  0  0
  -21.4320   -3.3430   26.0720 F   0  0  0  0  0  0  0  0  0  0  0  0
  -22.7950  -13.2680   21.5560 C   0  0  0  0  0  0  0  0  0  0  0  0
  -22.1320  -12.5370   22.4450 N   0  0  0  0  0  0  0  0  0  0  0  0
  -22.3290  -14.3210   21.1250 O   0  0  0  0  0  0  0  0  0  0  0  0
  -22.5200  -11.6810   22.8110 H   0  0  0  0  0  0  0  0  0  0  0  0
  -21.2220  -12.8380   22.7660 H   0  0  0  0  0  0  0  0  0  0  0  0
  -25.3650  -14.9530   20.6120 N   0  0  0  0  0  0  0  0  0  0  0  0
  -24.6210  -15.6030   20.8390 H   0  0  0  0  0  0  0  0  0  0  0  0
  -26.1680  -15.4110   20.2030 H   0  0  0  0  0  0  0  0  0  0  0  0
  -31.2750  -19.2190   21.7040 C   0  0  0  0  0  2  0  0  0  0  0  0
  -32.4030  -20.2510   21.5210 C   0  0  0  0  0  2  0  0  0  0  0  0
  -33.5290  -20.0520   22.5530 C   0  0  0  0  0  2  0  0  0  0  0  0
  -34.3370  -21.2710   22.7270 N   0  0  0  0  0  4  0  0  0  0  0  0
  -34.7870  -21.5520   21.8730 H   0  0  0  0  0  0  0  0  0  0  0  0
  -35.0400  -21.1210   23.4290 H   0  0  0  0  0  0  0  0  0  0  0  0
  -33.7510  -22.0230   23.0430 H   0  0  0  0  0  0  0  0  0  0  0  0
  -29.3570  -21.6350   20.7010 C   0  0  0  0  0  2  0  0  0  0  0  0
  -28.8050  -23.0730   20.0240 C   0  0  0  0  0  2  0  0  0  0  0  0
  -28.3390  -24.4660   20.8580 C   0  0  0  0  0  2  0  0  0  0  0  0
  -28.5240  -25.9770   20.5510 O   0  0  0  0  0  0  0  0  0  0  0  0
  -24.5940  -31.6550   23.1640 C   0  0  0  0  0  0  0  0  0  0  0  0
  -27.4290  -26.9040   20.4710 C   0  0  0  0  0  0  0  0  0  0  0  0
  -23.5150  -30.1780   21.5070 C   0  0  0  0  0  3  0  0  0  0  0  0
  -25.0770  -28.5850   20.2270 C   0  0  0  0  0  0  0  0  0  0  0  0
  -26.0670  -30.4960   21.4820 C   0  0  0  0  0  2  0  0  0  0  0  0
  -26.2080  -29.0850   20.8880 C   0  0  0  0  0  0  0  0  0  0  0  0
  -27.3920  -28.2620   20.9780 C   0  0  0  0  0  3  0  0  0  0  0  0
  -26.2680  -26.4870   19.7920 C   0  0  0  0  0  3  0  0  0  0  0  0
  -25.1220  -27.3040   19.6540 C   0  0  0  0  0  3  0  0  0  0  0  0
  -23.8330  -29.4590   20.1670 C   0  0  0  0  0  2  0  0  0  0  0  0
  -24.7400  -30.8030   22.1040 N   0  0  0  0  0  0  0  0  0  0  0  0
  -23.4740  -31.9390   23.6180 O   0  0  0  0  0  0  0  0  0  0  0  0
  -22.8020  -29.1930   22.4650 C   0  0  0  0  0  0  0  0  0  0  0  0
  -21.4800  -29.0230   22.2920 N   0  0  0  0  0  0  0  0  0  0  0  0
  -23.4400  -28.5800   23.3240 O   0  0  0  0  0  0  0  0  0  0  0  0
  -21.0260  -29.5740   21.5780 H   0  0  0  0  0  0  0  0  0  0  0  0
  -18.0620  -27.8950   22.7390 C   0  0  0  0  0  0  0  0  0  0  0  0
  -20.6220  -28.1030   23.0460 C   0  0  0  0  0  3  0  0  0  0  0  0
  -20.7020  -26.6690   22.4760 C   0  0  0  0  0  2  0  0  0  0  0  0
  -19.6110  -26.3700   21.4420 C   0  0  0  0  0  2  0  0  0  0  0  0
  -18.2210  -26.5430   22.0630 C   0  0  0  0  0  2  0  0  0  0  0  0
  -19.1920  -28.6340   23.1840 C   0  0  0  0  0  0  0  0  0  0  0  0
  -18.9920  -29.8970   23.7810 C   0  0  0  0  0  3  0  0  0  0  0  0
  -17.6970  -30.4260   23.9320 C   0  0  0  0  0  3  0  0  0  0  0  0
  -16.5810  -29.6870   23.5000 C   0  0  0  0  0  3  0  0  0  0  0  0
  -16.7640  -28.4220   22.9120 C   0  0  0  0  0  3  0  0  0  0  0  0
  -25.8240  -32.3330   23.8410 C   0  0  0  0  0  3  0  0  0  0  0  0
  -26.3170  -31.5780   25.1380 C   0  0  1  0  0  0  0  0  0  0  0  0
  -25.1850  -31.2720   26.1440 C   0  0  0  0  0  1  0  0  0  0  0  0
  -26.9940  -30.2350   24.7730 C   0  0  0  0  0  1  0  0  0  0  0  0
  -27.3820  -32.4300   25.8700 C   0  0  0  0  0  1  0  0  0  0  0  0
  -25.4450  -33.7160   24.1690 N   0  0  0  0  0  0  0  0  0  0  0  0
  -25.7360  -34.7880   23.4190 C   0  0  0  0  0  0  0  0  0  0  0  0
  -26.4220  -34.7200   22.3960 O   0  0  0  0  0  0  0  0  0  0  0  0
  -24.8300  -33.8410   24.9590 H   0  0  0  0  0  0  0  0  0  0  0  0
  -23.9170  -36.4980   23.0820 C   0  0  0  0  0  1  0  0  0  0  0  0
  -25.1850  -36.1520   23.8780 C   0  0  0  0  0  3  0  0  0  0  0  0
  -27.2750  -37.1510   24.6930 C   0  0  0  0  0  1  0  0  0  0  0  0
  -26.1590  -37.2590   23.7570 N   0  0  0  0  0  0  0  0  0  0  0  0
  -25.7030  -38.1550   23.9060 H   0  0  0  0  0  0  0  0  0  0  0  0
  -27.8530  -19.5440   20.4860 C   0  0  0  0  0  2  0  0  0  0  0  0
  -27.1570  -18.6890   19.4230 C   0  0  0  0  0  0  0  0  0  0  0  0
  -27.2600  -18.9270   18.2190 O   0  0  0  0  0  0  0  0  0  0  0  0
  -24.8140  -17.7140   19.5930 C   0  0  0  0  0  1  0  0  0  0  0  0
  -26.3010  -17.5270   19.9220 C   0  0  0  0  0  2  0  0  0  0  0  0
  1 93  1  0
  1  2  1  0
  1 49  1  0
  2  3  1  0
  2 42  1  0
  4 12  1  0
  5 10  1  0
  6  7  1  0
  6  5  1  0
  8  7  1  0
  8 17  1  0
  8  9  1  0
 10  4  1  0
 10  9  1  0
 11  4  2  0
 12  3  1  0
 13 12  1  0
 14 15  2  0
 15 34  1  0
 16 15  1  0
 16 19  1  0
 17 18  1  0
 17 14  1  0
 18 16  2  0
 19 20  1  0
 20 21  2  0
 22 25  1  0
 22 21  1  0
 23 22  2  0
 24 23  1  0
 24 19  2  0
 25 26  1  0
 26 27  1  0
 27 28  2  0
 29 28  1  0
 29 33  1  0
 30 29  2  0
 31 26  2  0
 31 30  1  0
 32 31  1  0
 34 35  1  0
 35 38  1  0
 35 37  1  0
 36 34  2  0
 39 14  1  0
 39 40  1  0
 41 39  1  0
 43 42  1  0
 43 44  1  0
 44 45  1  0
 45 48  1  0
 45 47  1  0
 46 45  1  0
 50 49  1  0
 50 51  1  0
 52 51  1  0
 53 64  2  0
 54 52  1  0
 54 59  1  0
 55 63  1  0
 55 65  1  0
 56 58  1  0
 57 63  1  0
 58 59  2  0
 58 57  1  0
 60 54  2  0
 61 60  1  0
 61 56  2  0
 62 56  1  0
 62 55  1  0
 63 53  1  0
 65 67  2  0
 66 65  1  0
 68 66  1  0
 69 78  2  0
 69 74  1  0
 70 66  1  0
 70 74  1  0
 71 70  1  0
 72 73  1  0
 72 71  1  0
 73 69  1  0
 74 75  2  0
 75 76  1  0
 77 76  2  0
 78 77  1  0
 79 53  1  0
 79 84  1  0
 79 80  1  0
 80 83  1  1
 80 81  1  0
 82 80  1  0
 84 87  1  0
 85 89  1  0
 85 84  1  0
 86 85  2  0
 89 88  1  0
 91 89  1  0
 91 92  1  0
 91 90  1  0
 94 97  1  0
 94 93  1  0
 95 94  2  0
 96 97  1  0
M  ISO  4   4 100  12 100  51 101  52 101
M  END
>  <TORSDO>  (76) 
F 28

>  <SCORE>  (76) 
-12.238

>  <name>  (76) 
76

>  <ligand_id>  (76) 
76

>  <original_smiles>  (76) 
[H]c1c([H])c([H])c2c(c1[H])C([H])([H])C([H])([H])C([H])([H])C2([H])N([H])C(=O)C1([H])N(C(=O)C([H])(N([H])C(=O)C([H])(N([H])C([H])([H])[H])C([H])([H])[H])C(C([H])([H])[H])(C([H])([H])[H])C([H])([H])[H])C([H])([H])c2c([H])c(OC([H])([H])C([H])([H])C([H])([H])C([H])(C([H])([H])C(=O)C([H])([H])C([H])([H])[H])C([H])(C([H])([H])N([H])C(=O)N3C([H])([H])C([H])([H])C([H])([H])C([H])(n4nc(-c5c([H])c([H])c(Oc6c([H])c([H])c(F)c([H])c6F)c([H])c5[H])c(C(=O)N([H])[H])c4N([H])[H])C3([H])[H])C([H])([H])C([H])([H])C([H])([H])[N+]([H])([H])[H])c([H])c([H])c2C1([H])[H]

>  <smiles>  (76) 
[H]c1c([H])c([H])c2c(c1[H])C([H])([H])C([H])([H])C([H])([H])C2([H])N([H])C(=O)C1([H])N(C(=O)C([H])(N([H])C(=O)C([H])(N([H])C([H])([H])[H])C([H])([H])[H])C(C([H])([H])[H])(C([H])([H])[H])C([H])([H])[H])C([H])([H])c2c([H])c(OC([H])([H])C([H])([H])C([H])([H])C([H])(C([H])([H])C(=O)C([H])([H])C([H])([H])[H])C([H])(C([H])([H])N([H])C(=O)N3C([H])([H])C([H])([H])C([H])([H])C([H])(n4nc(-c5c([H])c([H])c(Oc6c([H])c([H])c(F)c([H])c6F)c([H])c5[H])c(C(=O)N([H])[H])c4N([H])[H])C3([H])[H])C([H])([H])C([H])([H])C([H])([H])[N+]([H])([H])[H])c([H])c([H])c2C1([H])[H]

$$$$
77:0:0
     RDKit          3D

 96 99  0  0  1  0  0  0  0  0999 V2000
  -29.5550  -17.8730   19.8670 C   0  0  0  0  0  2  0  0  0  0  0  0
  -31.2280  -18.6210   21.7020 C   0  0  0  0  0  2  0  0  0  0  0  0
  -29.9960  -16.2700   20.8710 C   0  0  0  0  0  2  0  0  0  0  0  0
  -30.8850  -17.0530   21.9300 C   0  0  0  0  0  3  0  0  0  0  0  0
  -29.2670  -19.7150   20.3420 C   0  0  0  0  0  2  0  0  0  0  0  0
  -30.1010  -19.6510   21.5970 N   0  0  0  0  0  4  0  0  0  0  0  0
  -30.4930  -20.5620   21.7730 H   0  0  0  0  0  0  0  0  0  0  0  0
  -29.4930  -19.4460   22.3760 H   0  0  0  0  0  0  0  0  0  0  0  0
  -30.2790  -16.9550   23.2520 N   0  0  0  0  0  0  0  0  0  0  0  0
  -30.0000  -15.9950   23.4190 H   0  0  0  0  0  0  0  0  0  0  0  0
  -30.9850  -17.1360   23.9610 H   0  0  0  0  0  0  0  0  0  0  0  0
  -30.1770  -14.1710   20.7560 C   0  0  0  0  0 15  0  0  0  0  0  0
  -30.2590  -12.7760   18.0900 C   0  0  0  0  0  3  0  0  0  0  0  0
  -31.4820  -12.6090   17.0290 C   0  0  0  0  0  3  0  0  0  0  0  0
  -32.4430  -13.8100   16.6970 C   0  0  0  0  0  2  0  0  0  0  0  0
  -32.8940  -14.1800   19.1450 C   0  0  0  0  0  0  0  0  0  0  0  0
  -32.0050  -12.1080   19.8010 C   0  0  0  0  0  3  0  0  0  0  0  0
  -30.7130  -10.9900   19.9320 C   0  0  0  0  0  3  0  0  0  0  0  0
  -29.0660  -11.3480   19.5800 C   0  0  0  0  0  2  0  0  0  0  0  0
  -28.5020  -12.9580   19.0200 C   0  0  0  0  0  2  0  0  0  0  0  0
  -29.9690  -14.3360   18.7100 C   0  0  0  0  0  1  0  0  0  0  0  0
  -31.7250  -13.7190   19.2470 N   0  0  0  0  0  2  0  0  0  0  0  0
  -33.7690  -13.9980   19.9670 O   0  0  0  0  0  0  0  0  0  0  0  0
  -33.1800  -14.3880   17.8500 N   0  0  0  0  0  0  0  0  0  0  0  0
  -34.1280  -14.6890   17.6590 H   0  0  0  0  0  0  0  0  0  0  0  0
  -26.4520  -13.9240   20.2430 C   0  0  0  0  0  0  0  0  0  0  0  0
  -25.3310  -13.2800   20.7030 C   0  0  0  0  0  0  0  0  0  0  0  0
  -25.5590  -11.8790   20.6470 C   0  0  0  0  0  0  0  0  0  0  0  0
  -27.2990  -12.9460   19.8610 N   0  0  0  0  0  0  0  0  0  0  0  0
  -26.7050  -11.7200   20.0960 N   0  0  0  0  0  0  0  0  0  0  0  0
  -24.7220  -10.6860   20.8550 C   0  0  0  0  0  0  0  0  0  0  0  0
  -25.0340   -9.6750   21.7970 C   0  0  0  0  0  3  0  0  0  0  0  0
  -24.1630   -8.5740   21.9780 C   0  0  0  0  0  3  0  0  0  0  0  0
  -22.9810   -8.4710   21.2060 C   0  0  0  0  0  0  0  0  0  0  0  0
  -22.7140   -9.4490   20.2300 C   0  0  0  0  0  3  0  0  0  0  0  0
  -23.5760  -10.5410   20.0560 C   0  0  0  0  0  3  0  0  0  0  0  0
  -22.0780   -7.4410   21.2950 O   0  0  0  0  0  0  0  0  0  0  0  0
  -21.7750   -6.8450   22.4940 C   0  0  0  0  0  0  0  0  0  0  0  0
  -21.2790   -7.5780   23.5950 C   0  0  0  0  0  3  0  0  0  0  0  0
  -20.9240   -6.9110   24.7840 C   0  0  0  0  0  3  0  0  0  0  0  0
  -21.0520   -5.5120   24.8690 C   0  0  0  0  0  0  0  0  0  0  0  0
  -21.5390   -4.7790   23.7730 C   0  0  0  0  0  3  0  0  0  0  0  0
  -21.8950   -5.4440   22.5880 C   0  0  0  0  0  0  0  0  0  0  0  0
  -22.3460   -4.7330   21.5260 F   0  0  0  0  0  0  0  0  0  0  0  0
  -20.7060   -4.8660   26.0070 F   0  0  0  0  0  0  0  0  0  0  0  0
  -24.0290  -13.9230   20.9780 C   0  0  0  0  0  0  0  0  0  0  0  0
  -23.2450  -13.3350   21.8730 N   0  0  0  0  0  0  0  0  0  0  0  0
  -23.7180  -14.9650   20.4080 O   0  0  0  0  0  0  0  0  0  0  0  0
  -23.5250  -12.4880   22.3420 H   0  0  0  0  0  0  0  0  0  0  0  0
  -22.3520  -13.7460   22.1010 H   0  0  0  0  0  0  0  0  0  0  0  0
  -26.7940  -15.2420   20.0200 N   0  0  0  0  0  0  0  0  0  0  0  0
  -26.1790  -16.0120   20.2550 H   0  0  0  0  0  0  0  0  0  0  0  0
  -27.6880  -15.5330   19.6510 H   0  0  0  0  0  0  0  0  0  0  0  0
  -29.1340  -21.5710   19.5390 C   0  0  0  0  0 15  0  0  0  0  0  0
  -28.2770  -23.3980   19.6260 C   0  0  0  0  0  1  0  0  0  0  0  0
  -28.4650  -25.1750   19.2610 O   0  0  0  0  0  0  0  0  0  0  0  0
  -24.9620  -31.1890   22.7850 C   0  0  0  0  0  0  0  0  0  0  0  0
  -27.5370  -26.4500   19.3010 C   0  0  0  0  0  0  0  0  0  0  0  0
  -23.7900  -29.9120   21.0430 C   0  0  0  0  0  3  0  0  0  0  0  0
  -25.2590  -28.4900   19.4200 C   0  0  0  0  0  0  0  0  0  0  0  0
  -26.3570  -30.1660   20.8750 C   0  0  0  0  0  2  0  0  0  0  0  0
  -26.4540  -28.8020   20.0780 C   0  0  0  0  0  0  0  0  0  0  0  0
  -27.5830  -27.8170   19.9800 C   0  0  0  0  0  3  0  0  0  0  0  0
  -26.3270  -26.4020   18.5680 C   0  0  0  0  0  3  0  0  0  0  0  0
  -25.2450  -27.3310   18.6270 C   0  0  0  0  0  3  0  0  0  0  0  0
  -24.0220  -29.3850   19.5970 C   0  0  0  0  0  2  0  0  0  0  0  0
  -25.0610  -30.4570   21.6210 N   0  0  0  0  0  0  0  0  0  0  0  0
  -23.8720  -31.3770   23.3550 O   0  0  0  0  0  0  0  0  0  0  0  0
  -23.1580  -28.7980   21.9230 C   0  0  0  0  0  0  0  0  0  0  0  0
  -21.8360  -28.5660   21.8010 N   0  0  0  0  0  0  0  0  0  0  0  0
  -23.8680  -28.1450   22.6920 O   0  0  0  0  0  0  0  0  0  0  0  0
  -21.3070  -29.1500   21.1700 H   0  0  0  0  0  0  0  0  0  0  0  0
  -18.5670  -27.0210   22.1730 C   0  0  0  0  0  0  0  0  0  0  0  0
  -21.0900  -27.5050   22.4920 C   0  0  0  0  0  3  0  0  0  0  0  0
  -21.3250  -26.1310   21.8180 C   0  0  0  0  0  2  0  0  0  0  0  0
  -20.2670  -25.7860   20.7650 C   0  0  0  0  0  2  0  0  0  0  0  0
  -18.8750  -25.7520   21.3960 C   0  0  0  0  0  2  0  0  0  0  0  0
  -19.6050  -27.8520   22.6730 C   0  0  0  0  0  0  0  0  0  0  0  0
  -19.2600  -29.0330   23.3640 C   0  0  0  0  0  3  0  0  0  0  0  0
  -17.9110  -29.3890   23.5560 C   0  0  0  0  0  3  0  0  0  0  0  0
  -16.8890  -28.5560   23.0670 C   0  0  0  0  0  3  0  0  0  0  0  0
  -17.2170  -27.3730   22.3830 C   0  0  0  0  0  3  0  0  0  0  0  0
  -26.2110  -31.8370   23.4570 C   0  0  0  0  0  3  0  0  0  0  0  0
  -25.8270  -33.1760   23.9480 N   0  0  0  0  0  0  0  0  0  0  0  0
  -26.1810  -34.3390   23.3850 C   0  0  0  0  0  0  0  0  0  0  0  0
  -26.9210  -34.3990   22.4000 O   0  0  0  0  0  0  0  0  0  0  0  0
  -25.1700  -33.2000   24.7160 H   0  0  0  0  0  0  0  0  0  0  0  0
  -24.4780  -36.1840   23.1470 C   0  0  0  0  0  1  0  0  0  0  0  0
  -25.6310  -35.6400   24.0080 C   0  0  0  0  0  3  0  0  0  0  0  0
  -27.6490  -36.3800   25.2000 C   0  0  0  0  0  1  0  0  0  0  0  0
  -26.6570  -36.6950   24.1760 N   0  0  0  0  0  0  0  0  0  0  0  0
  -26.2240  -37.5830   24.4180 H   0  0  0  0  0  0  0  0  0  0  0  0
  -26.7860  -30.9760   24.6510 C   0  0  1  0  0  0  0  0  0  0  0  0
  -25.7300  -30.5870   25.7110 C   0  0  0  0  0  1  0  0  0  0  0  0
  -27.4260  -29.6650   24.1390 C   0  0  0  0  0  1  0  0  0  0  0  0
  -27.9130  -31.7610   25.3650 C   0  0  0  0  0  1  0  0  0  0  0  0
  1  5  1  0
  1  3  1  0
  2  4  1  0
  3  4  1  0
  4  9  1  0
  5  6  1  0
  6  2  1  0
  6  7  1  0
  6  8  1  0
  9 10  1  0
  9 11  1  0
 13 21  1  0
 14 13  2  0
 15 14  1  0
 15 24  1  0
 16 22  1  0
 16 23  2  0
 17 18  2  0
 19 18  1  0
 20 19  1  0
 20 29  1  0
 22 17  1  0
 24 16  1  0
 25 24  1  0
 26 27  2  0
 27 46  1  0
 28 27  1  0
 28 31  1  0
 29 30  1  0
 29 26  1  0
 30 28  2  0
 31 32  1  0
 32 33  2  0
 34 37  1  0
 34 33  1  0
 35 34  2  0
 36 35  1  0
 36 31  2  0
 37 38  1  0
 38 43  2  0
 38 39  1  0
 39 40  2  0
 40 41  1  0
 41 45  1  0
 42 41  2  0
 43 42  1  0
 44 43  1  0
 46 47  1  0
 47 50  1  0
 47 49  1  0
 48 46  2  0
 51 26  1  0
 51 52  1  0
 53 51  1  0
 56 58  1  0
 56 55  1  0
 57 68  2  0
 58 63  1  0
 59 67  1  0
 59 69  1  0
 60 66  1  0
 60 62  1  0
 61 67  1  0
 62 61  1  0
 63 62  2  0
 64 65  1  0
 64 58  2  0
 65 60  2  0
 66 59  1  0
 67 57  1  0
 69 71  2  0
 70 69  1  0
 72 70  1  0
 73 82  2  0
 73 78  1  0
 74 70  1  0
 74 78  1  0
 75 74  1  0
 76 77  1  0
 76 75  1  0
 77 73  1  0
 78 79  2  0
 79 80  1  0
 81 80  2  0
 82 81  1  0
 83 57  1  0
 83 84  1  0
 83 93  1  0
 84 87  1  0
 85 84  1  0
 85 89  1  0
 86 85  2  0
 89 88  1  0
 89 91  1  0
 91 92  1  0
 91 90  1  0
 93 96  1  1
 93 94  1  0
 95 93  1  0
M  ISO  4  16 100  24 100  55 101  56 101
M  END
>  <TORSDO>  (77) 
F 23

>  <SCORE>  (77) 
-12.361

>  <name>  (77) 
77

>  <ligand_id>  (77) 
77

>  <original_smiles>  (77) 
[H]c1c([H])c([H])c2c(c1[H])C([H])([H])C([H])([H])C([H])([H])C2([H])N([H])C(=O)C1([H])N(C(=O)C([H])(N([H])C(=O)C([H])(N([H])C([H])([H])[H])C([H])([H])[H])C(C([H])([H])[H])(C([H])([H])[H])C([H])([H])[H])C([H])([H])c2c([H])c(OC([H])([H])C([H])([H])C3([H])C([H])([H])C([H])(C([H])([H])C([H])([H])C([H])([H])C([H])([H])N([H])C(=O)N4C([H])([H])C([H])([H])C([H])([H])C([H])(n5nc(-c6c([H])c([H])c(Oc7c([H])c([H])c(F)c([H])c7F)c([H])c6[H])c(C(=O)N([H])[H])c5N([H])[H])C4([H])[H])C([H])(N([H])[H])C([H])([H])[N+]3([H])[H])c([H])c([H])c2C1([H])[H]

>  <smiles>  (77) 
[H]c1c([H])c([H])c2c(c1[H])C([H])([H])C([H])([H])C([H])([H])C2([H])N([H])C(=O)C1([H])N(C(=O)C([H])(N([H])C(=O)C([H])(N([H])C([H])([H])[H])C([H])([H])[H])C(C([H])([H])[H])(C([H])([H])[H])C([H])([H])[H])C([H])([H])c2c([H])c(OC([H])([H])C([H])([H])C3([H])C([H])([H])C([H])(C([H])([H])C([H])([H])C([H])([H])C([H])([H])N([H])C(=O)N4C([H])([H])C([H])([H])C([H])([H])C([H])(n5nc(-c6c([H])c([H])c(Oc7c([H])c([H])c(F)c([H])c7F)c([H])c6[H])c(C(=O)N([H])[H])c5N([H])[H])C4([H])[H])C([H])(N([H])[H])C([H])([H])[N+]3([H])[H])c([H])c([H])c2C1([H])[H]

$$$$
78:0:0
     RDKit          3D

 96104  0  0  1  0  0  0  0  0999 V2000
  -30.4850  -15.3750   20.3530 C   0  0  0  0  0  0  0  0  0  0  0  0
  -30.3860  -12.9490   19.4270 C   0  0  0  0  0  2  0  0  0  0  0  0
  -29.4590  -12.7170   18.2110 C   0  0  0  0  0  2  0  0  0  0  0  0
  -28.0150  -12.4390   18.6640 C   0  0  0  0  0  2  0  0  0  0  0  0
  -27.5690  -13.3880   19.8030 C   0  0  0  0  0  3  0  0  0  0  0  0
  -28.6360  -13.5880   20.9030 C   0  0  0  0  0  2  0  0  0  0  0  0
  -29.8370  -14.1070   20.2230 N   0  0  0  0  0  0  0  0  0  0  0  0
  -31.7170  -15.2610   20.2590 O   0  0  0  0  0  0  0  0  0  0  0  0
  -30.3390  -17.1080   18.6000 C   0  0  0  0  0  2  0  0  0  0  0  0
  -29.3200  -18.1400   20.5800 C   0  0  0  0  0  2  0  0  0  0  0  0
  -31.1570  -18.4360   18.4950 C   0  0  0  0  0  3  0  0  0  0  0  0
  -30.2230  -19.6960   18.6420 C   0  0  0  0  0  3  0  0  0  0  0  0
  -29.6840  -19.8430   20.1140 C   0  0  0  0  0  3  0  0  0  0  0  0
  -29.9260  -16.7130   19.9650 N   0  0  0  0  0  0  0  0  0  0  0  0
  -25.1990  -13.9070   20.5720 C   0  0  0  0  0  0  0  0  0  0  0  0
  -24.1440  -13.1170   20.9330 C   0  0  0  0  0  0  0  0  0  0  0  0
  -24.6270  -11.7710   20.8970 C   0  0  0  0  0  0  0  0  0  0  0  0
  -26.2530  -13.0470   20.3260 N   0  0  0  0  0  0  0  0  0  0  0  0
  -25.9200  -11.7560   20.5900 N   0  0  0  0  0  0  0  0  0  0  0  0
  -23.9110  -10.5010   21.0730 C   0  0  0  0  0  0  0  0  0  0  0  0
  -24.3420   -9.5310   22.0050 C   0  0  0  0  0  3  0  0  0  0  0  0
  -23.6220   -8.3290   22.1750 C   0  0  0  0  0  3  0  0  0  0  0  0
  -22.4550   -8.0870   21.4110 C   0  0  0  0  0  0  0  0  0  0  0  0
  -22.0410   -9.0460   20.4710 C   0  0  0  0  0  3  0  0  0  0  0  0
  -22.7630  -10.2390   20.2990 C   0  0  0  0  0  3  0  0  0  0  0  0
  -21.7030   -6.9390   21.4920 O   0  0  0  0  0  0  0  0  0  0  0  0
  -21.6450   -6.1950   22.6430 C   0  0  0  0  0  0  0  0  0  0  0  0
  -21.1800   -6.7420   23.8600 C   0  0  0  0  0  3  0  0  0  0  0  0
  -21.0700   -5.9220   25.0030 C   0  0  0  0  0  3  0  0  0  0  0  0
  -21.4170   -4.5580   24.9280 C   0  0  0  0  0  0  0  0  0  0  0  0
  -21.8750   -4.0130   23.7160 C   0  0  0  0  0  3  0  0  0  0  0  0
  -21.9870   -4.8280   22.5760 C   0  0  0  0  0  0  0  0  0  0  0  0
  -22.4070   -4.2930   21.4040 F   0  0  0  0  0  0  0  0  0  0  0  0
  -21.3050   -3.7700   26.0230 F   0  0  0  0  0  0  0  0  0  0  0  0
  -22.7410  -13.5790   21.1930 C   0  0  0  0  0  0  0  0  0  0  0  0
  -22.0130  -12.8790   22.0550 N   0  0  0  0  0  0  0  0  0  0  0  0
  -22.2990  -14.6000   20.6670 O   0  0  0  0  0  0  0  0  0  0  0  0
  -22.3790  -12.0520   22.4970 H   0  0  0  0  0  0  0  0  0  0  0  0
  -21.0730  -13.1760   22.2730 H   0  0  0  0  0  0  0  0  0  0  0  0
  -25.3460  -15.2800   20.4010 N   0  0  0  0  0  0  0  0  0  0  0  0
  -24.5710  -15.9230   20.5190 H   0  0  0  0  0  0  0  0  0  0  0  0
  -26.1920  -15.7330   20.0810 H   0  0  0  0  0  0  0  0  0  0  0  0
  -31.9180  -21.7350   18.5650 C   0  0  0  0  0  1  0  0  0  0  0  0
  -31.0670  -20.7360   16.4020 C   0  0  0  0  0  1  0  0  0  0  0  0
  -30.7490  -20.9770   17.8990 C   0  0  0  0  0  3  0  0  0  0  0  0
  -28.7390  -21.2130   20.3640 N   0  0  0  0  0  4  0  0  0  0  0  0
  -28.3480  -21.0620   21.2790 H   0  0  0  0  0  0  0  0  0  0  0  0
  -27.9630  -21.1020   19.7300 H   0  0  0  0  0  0  0  0  0  0  0  0
  -29.0910  -22.8580   20.3590 C   0  0  0  0  0  3  0  0  0  0  0  0
  -28.0110  -24.3050   20.3260 C   0  0  0  0  0  3  0  0  0  0  0  0
  -28.2350  -25.9430   20.3800 O   0  0  0  0  0  0  0  0  0  0  0  0
  -24.6450  -31.9400   23.2570 C   0  0  0  0  0  0  0  0  0  0  0  0
  -27.2050  -27.0240   20.3210 C   0  0  0  0  0  0  0  0  0  0  0  0
  -23.4520  -30.5320   21.6280 C   0  0  0  0  0  3  0  0  0  0  0  0
  -24.9010  -28.9000   20.2420 C   0  0  0  0  0  0  0  0  0  0  0  0
  -26.0220  -30.7350   21.4920 C   0  0  0  0  0  2  0  0  0  0  0  0
  -26.0870  -29.3140   20.8590 C   0  0  0  0  0  0  0  0  0  0  0  0
  -27.2320  -28.3970   20.8730 C   0  0  0  0  0  3  0  0  0  0  0  0
  -25.9840  -26.7560   19.6600 C   0  0  0  0  0  3  0  0  0  0  0  0
  -24.8710  -27.6380   19.6260 C   0  0  0  0  0  3  0  0  0  0  0  0
  -23.6850  -29.8250   20.2630 C   0  0  0  0  0  2  0  0  0  0  0  0
  -24.7270  -31.0990   22.1780 N   0  0  0  0  0  0  0  0  0  0  0  0
  -23.5530  -32.2390   23.7700 O   0  0  0  0  0  0  0  0  0  0  0  0
  -22.7470  -29.5540   22.6040 C   0  0  0  0  0  0  0  0  0  0  0  0
  -21.4180  -29.3870   22.4680 N   0  0  0  0  0  0  0  0  0  0  0  0
  -23.4050  -28.9440   23.4490 O   0  0  0  0  0  0  0  0  0  0  0  0
  -20.9400  -29.9270   21.7590 H   0  0  0  0  0  0  0  0  0  0  0  0
  -18.0320  -28.1890   22.9640 C   0  0  0  0  0  0  0  0  0  0  0  0
  -20.5880  -28.4660   23.2490 C   0  0  0  0  0  3  0  0  0  0  0  0
  -20.6990  -27.0220   22.7050 C   0  0  0  0  0  2  0  0  0  0  0  0
  -19.6100  -26.6780   21.6850 C   0  0  0  0  0  2  0  0  0  0  0  0
  -18.2200  -26.8300   22.3110 C   0  0  0  0  0  2  0  0  0  0  0  0
  -19.1450  -28.9630   23.3910 C   0  0  0  0  0  0  0  0  0  0  0  0
  -18.9130  -30.2320   23.9620 C   0  0  0  0  0  3  0  0  0  0  0  0
  -17.6030  -30.7270   24.1140 C   0  0  0  0  0  3  0  0  0  0  0  0
  -16.5070  -29.9520   23.7020 C   0  0  0  0  0  3  0  0  0  0  0  0
  -16.7210  -28.6850   23.1300 C   0  0  0  0  0  3  0  0  0  0  0  0
  -25.9160  -32.5860   23.8860 C   0  0  0  0  0  3  0  0  0  0  0  0
  -25.6000  -33.9900   24.2060 N   0  0  0  0  0  0  0  0  0  0  0  0
  -25.9280  -35.0440   23.4460 C   0  0  0  0  0  0  0  0  0  0  0  0
  -26.5880  -34.9360   22.4100 O   0  0  0  0  0  0  0  0  0  0  0  0
  -25.0090  -34.1450   25.0100 H   0  0  0  0  0  0  0  0  0  0  0  0
  -24.1930  -36.8410   23.1200 C   0  0  0  0  0  1  0  0  0  0  0  0
  -25.4490  -36.4350   23.9080 C   0  0  0  0  0  3  0  0  0  0  0  0
  -27.5970  -37.3330   24.6980 C   0  0  0  0  0  1  0  0  0  0  0  0
  -26.4790  -37.4890   23.7720 N   0  0  0  0  0  0  0  0  0  0  0  0
  -26.0710  -38.4080   23.9160 H   0  0  0  0  0  0  0  0  0  0  0  0
  -26.4170  -31.8300   25.1800 C   0  0  1  0  0  0  0  0  0  0  0  0
  -25.3110  -31.6180   26.2380 C   0  0  0  0  0  1  0  0  0  0  0  0
  -26.9960  -30.4420   24.8250 C   0  0  0  0  0  1  0  0  0  0  0  0
  -27.5650  -32.6300   25.8390 C   0  0  0  0  0  1  0  0  0  0  0  0
  -32.4170  -18.4650   19.4130 C   0  0  0  0  0  2  0  0  0  0  0  0
  -33.3670  -17.3680   19.1580 N   0  0  0  0  0  4  0  0  0  0  0  0
  -32.9570  -16.4770   19.4060 H   0  0  0  0  0  0  0  0  0  0  0  0
  -34.1800  -17.4960   19.7350 H   0  0  0  0  0  0  0  0  0  0  0  0
  -33.6670  -17.3570   18.2010 H   0  0  0  0  0  0  0  0  0  0  0  0
  2  7  1  0
  3  4  1  0
  3  2  1  0
  5  4  1  0
  5 18  1  0
  5  6  1  0
  7  1  1  0
  7  6  1  0
  8  1  2  0
  9 14  1  0
 11  9  1  0
 11 12  1  0
 11 92  1  0
 12 45  1  0
 12 13  1  0
 13 46  1  0
 13 10  1  0
 14  1  1  0
 14 10  1  0
 15 16  2  0
 16 35  1  0
 17 16  1  0
 17 20  1  0
 18 15  1  0
 18 19  1  0
 19 17  2  0
 20 21  1  0
 21 22  2  0
 23 26  1  0
 23 22  1  0
 24 23  2  0
 25 24  1  0
 25 20  2  0
 26 27  1  0
 27 28  1  0
 28 29  2  0
 30 29  1  0
 30 34  1  0
 31 30  2  0
 32 27  2  0
 32 31  1  0
 33 32  1  0
 35 36  1  0
 36 39  1  0
 36 38  1  0
 37 35  2  0
 40 41  1  0
 40 15  1  0
 42 40  1  0
 44 45  1  0
 45 43  1  0
 46 47  1  0
 48 46  1  0
 49 46  1  0
 50 49  2  0
 50 51  1  0
 52 63  2  0
 53 51  1  0
 53 58  1  0
 54 62  1  0
 54 64  1  0
 55 61  1  0
 55 57  1  0
 56 62  1  0
 57 58  2  0
 57 56  1  0
 59 53  2  0
 60 59  1  0
 60 55  2  0
 61 54  1  0
 62 52  1  0
 64 66  2  0
 65 64  1  0
 67 65  1  0
 68 77  2  0
 68 73  1  0
 69 65  1  0
 69 73  1  0
 70 69  1  0
 71 72  1  0
 71 70  1  0
 72 68  1  0
 73 74  2  0
 74 75  1  0
 76 75  2  0
 77 76  1  0
 78 52  1  0
 78 79  1  0
 78 88  1  0
 79 82  1  0
 80 84  1  0
 80 79  1  0
 81 80  2  0
 84 83  1  0
 86 84  1  0
 86 87  1  0
 86 85  1  0
 88 91  1  1
 88 89  1  0
 90 88  1  0
 93 94  1  0
 93 92  1  0
 93 95  1  0
 96 93  1  0
M  ISO  4   1 100  14 100  50 101  51 101
M  END
>  <TORSDO>  (78) 
F 21

>  <SCORE>  (78) 
-15.521

>  <name>  (78) 
78

>  <ligand_id>  (78) 
78

>  <original_smiles>  (78) 
[H]c1c([H])c([H])c2c(c1[H])C([H])([H])C([H])([H])C([H])([H])C2([H])N([H])C(=O)C1([H])N(C(=O)C([H])(N([H])C(=O)C([H])(N([H])C([H])([H])[H])C([H])([H])[H])C(C([H])([H])[H])(C([H])([H])[H])C([H])([H])[H])C([H])([H])c2c([H])c(OC([H])([H])C([H])([H])[N+]([H])([H])C3([H])C([H])([H])N(C(=O)N4C([H])([H])C([H])([H])C([H])([H])C([H])(n5nc(-c6c([H])c([H])c(Oc7c([H])c([H])c(F)c([H])c7F)c([H])c6[H])c(C(=O)N([H])[H])c5N([H])[H])C4([H])[H])C([H])([H])C([H])(C([H])([H])[N+]([H])([H])[H])C3([H])C([H])(C([H])([H])[H])C([H])([H])[H])c([H])c([H])c2C1([H])[H]

>  <smiles>  (78) 
[H]c1c([H])c([H])c2c(c1[H])C([H])([H])C([H])([H])C([H])([H])C2([H])N([H])C(=O)C1([H])N(C(=O)C([H])(N([H])C(=O)C([H])(N([H])C([H])([H])[H])C([H])([H])[H])C(C([H])([H])[H])(C([H])([H])[H])C([H])([H])[H])C([H])([H])c2c([H])c(OC([H])([H])C([H])([H])[N+]([H])([H])C3([H])C([H])([H])N(C(=O)N4C([H])([H])C([H])([H])C([H])([H])C([H])(n5nc(-c6c([H])c([H])c(Oc7c([H])c([H])c(F)c([H])c7F)c([H])c6[H])c(C(=O)N([H])[H])c5N([H])[H])C4([H])[H])C([H])([H])C([H])(C([H])([H])[N+]([H])([H])[H])C3([H])C([H])(C([H])([H])[H])C([H])([H])[H])c([H])c([H])c2C1([H])[H]

$$$$
79:0:0
     RDKit          3D

 96103  0  0  1  0  0  0  0  0999 V2000
  -29.1710  -20.5820   20.7710 C   0  0  0  0  0  3  0  0  0  0  0  0
  -28.8880  -21.9190   19.9620 N   0  0  0  0  0  4  0  0  0  0  0  0
  -29.6420  -22.0100   19.2990 H   0  0  0  0  0  0  0  0  0  0  0  0
  -28.0630  -21.7340   19.4110 H   0  0  0  0  0  0  0  0  0  0  0  0
  -28.6910  -23.3610   20.6180 C   0  0  0  0  0  3  0  0  0  0  0  0
  -28.2470  -24.7320   19.7470 C   0  0  0  0  0  3  0  0  0  0  0  0
  -28.2480  -26.2250   20.2060 O   0  0  0  0  0  0  0  0  0  0  0  0
  -24.6390  -31.8860   23.1950 C   0  0  0  0  0  0  0  0  0  0  0  0
  -27.1710  -27.1790   20.1070 C   0  0  0  0  0  0  0  0  0  0  0  0
  -23.4170  -30.5010   21.5610 C   0  0  0  0  0  3  0  0  0  0  0  0
  -24.8430  -28.9290   20.1090 C   0  0  0  0  0  0  0  0  0  0  0  0
  -25.9710  -30.7520   21.3740 C   0  0  0  0  0  2  0  0  0  0  0  0
  -26.0270  -29.3660   20.7140 C   0  0  0  0  0  0  0  0  0  0  0  0
  -27.1860  -28.5050   20.7030 C   0  0  0  0  0  3  0  0  0  0  0  0
  -25.9600  -26.8430   19.4580 C   0  0  0  0  0  3  0  0  0  0  0  0
  -24.8230  -27.6800   19.4690 C   0  0  0  0  0  3  0  0  0  0  0  0
  -23.6190  -29.8290   20.1750 C   0  0  0  0  0  2  0  0  0  0  0  0
  -24.6960  -31.0680   22.0970 N   0  0  0  0  0  0  0  0  0  0  0  0
  -23.5600  -32.1770   23.7300 O   0  0  0  0  0  0  0  0  0  0  0  0
  -22.7460  -29.4930   22.5260 C   0  0  0  0  0  0  0  0  0  0  0  0
  -21.4160  -29.3300   22.4130 N   0  0  0  0  0  0  0  0  0  0  0  0
  -23.4240  -28.8580   23.3380 O   0  0  0  0  0  0  0  0  0  0  0  0
  -20.9290  -29.8990   21.7350 H   0  0  0  0  0  0  0  0  0  0  0  0
  -18.0350  -28.1410   22.9470 C   0  0  0  0  0  0  0  0  0  0  0  0
  -20.5980  -28.3960   23.1890 C   0  0  0  0  0  3  0  0  0  0  0  0
  -20.6890  -26.9650   22.6100 C   0  0  0  0  0  2  0  0  0  0  0  0
  -19.5740  -26.6480   21.6070 C   0  0  0  0  0  2  0  0  0  0  0  0
  -18.1990  -26.7930   22.2650 C   0  0  0  0  0  2  0  0  0  0  0  0
  -19.1620  -28.9000   23.3650 C   0  0  0  0  0  0  0  0  0  0  0  0
  -18.9520  -30.1610   23.9630 C   0  0  0  0  0  3  0  0  0  0  0  0
  -17.6500  -30.6650   24.1460 C   0  0  0  0  0  3  0  0  0  0  0  0
  -16.5390  -29.9050   23.7420 C   0  0  0  0  0  3  0  0  0  0  0  0
  -16.7340  -28.6430   23.1500 C   0  0  0  0  0  3  0  0  0  0  0  0
  -25.9250  -32.5110   23.8130 C   0  0  0  0  0  3  0  0  0  0  0  0
  -25.6130  -33.9050   24.1710 N   0  0  0  0  0  0  0  0  0  0  0  0
  -25.9260  -34.9740   23.4250 C   0  0  0  0  0  0  0  0  0  0  0  0
  -26.5710  -34.8900   22.3780 O   0  0  0  0  0  0  0  0  0  0  0  0
  -25.0270  -34.0430   24.9810 H   0  0  0  0  0  0  0  0  0  0  0  0
  -24.1760  -36.7680   23.1620 C   0  0  0  0  0  1  0  0  0  0  0  0
  -25.4500  -36.3570   23.9180 C   0  0  0  0  0  3  0  0  0  0  0  0
  -27.6150  -37.2380   24.6780 C   0  0  0  0  0  1  0  0  0  0  0  0
  -26.4740  -37.4170   23.7830 N   0  0  0  0  0  0  0  0  0  0  0  0
  -26.0700  -38.3330   23.9600 H   0  0  0  0  0  0  0  0  0  0  0  0
  -26.4580  -31.7250   25.0750 C   0  0  1  0  0  0  0  0  0  0  0  0
  -25.3830  -31.4690   26.1590 C   0  0  0  0  0  1  0  0  0  0  0  0
  -27.0370  -30.3500   24.6690 C   0  0  0  0  0  1  0  0  0  0  0  0
  -27.6240  -32.5130   25.7230 C   0  0  0  0  0  1  0  0  0  0  0  0
  -29.8690  -21.3400   23.1040 C   0  0  0  0  0  3  0  0  0  0  0  0
  -30.1870  -20.8840   21.8670 C   0  0  0  0  0  0  0  0  0  0  0  0
  -30.8420  -21.6260   24.1460 C   0  0  0  0  0  0  0  0  0  0  0  0
  -30.2980  -22.1280   25.2490 N   0  0  0  0  0  0  0  0  0  0  0  0
  -32.0580  -21.4400   24.0610 O   0  0  0  0  0  0  0  0  0  0  0  0
  -29.2980  -22.2680   25.3210 H   0  0  0  0  0  0  0  0  0  0  0  0
  -30.8780  -22.3700   26.0400 H   0  0  0  0  0  0  0  0  0  0  0  0
  -31.4320  -20.6200   21.4400 O   0  0  0  0  0  0  0  0  0  0  0  0
  -32.0240  -20.8110   22.1620 H   0  0  0  0  0  0  0  0  0  0  0  0
  -29.4280  -19.0650   20.0380 C   0  0  0  0  0  2  0  0  0  0  0  0
  -29.9640  -17.6540   20.7980 C   0  0  0  0  0  2  0  0  0  0  0  0
  -30.4980  -14.9730   20.2290 C   0  0  0  0  0  0  0  0  0  0  0  0
  -30.3500  -12.6250   19.2670 C   0  0  0  0  0  2  0  0  0  0  0  0
  -29.3740  -12.5540   18.0680 C   0  0  0  0  0  2  0  0  0  0  0  0
  -27.9270  -12.3480   18.5560 C   0  0  0  0  0  2  0  0  0  0  0  0
  -27.5530  -13.2990   19.7210 C   0  0  0  0  0  3  0  0  0  0  0  0
  -28.6390  -13.3170   20.8160 C   0  0  0  0  0  2  0  0  0  0  0  0
  -29.8920  -13.7200   20.1650 N   0  0  0  0  0  0  0  0  0  0  0  0
  -31.7060  -15.0370   19.9740 O   0  0  0  0  0  0  0  0  0  0  0  0
  -29.7070  -16.1430   20.3890 N   0  0  0  0  0  0  0  0  0  0  0  0
  -28.7270  -15.8980   20.4380 H   0  0  0  0  0  0  0  0  0  0  0  0
  -25.2080  -13.8990   20.5400 C   0  0  0  0  0  0  0  0  0  0  0  0
  -24.1440  -13.1310   20.9260 C   0  0  0  0  0  0  0  0  0  0  0  0
  -24.5910  -11.7750   20.8620 C   0  0  0  0  0  0  0  0  0  0  0  0
  -26.2300  -13.0120   20.2570 N   0  0  0  0  0  0  0  0  0  0  0  0
  -25.8710  -11.7300   20.5190 N   0  0  0  0  0  0  0  0  0  0  0  0
  -23.8540  -10.5200   21.0530 C   0  0  0  0  0  0  0  0  0  0  0  0
  -24.2960   -9.5320   21.9620 C   0  0  0  0  0  3  0  0  0  0  0  0
  -23.5570   -8.3430   22.1420 C   0  0  0  0  0  3  0  0  0  0  0  0
  -22.3630   -8.1340   21.4100 C   0  0  0  0  0  0  0  0  0  0  0  0
  -21.9400   -9.1080   20.4920 C   0  0  0  0  0  3  0  0  0  0  0  0
  -22.6800  -10.2900   20.3110 C   0  0  0  0  0  3  0  0  0  0  0  0
  -21.5930   -7.0000   21.5020 O   0  0  0  0  0  0  0  0  0  0  0  0
  -21.5550   -6.2440   22.6460 C   0  0  0  0  0  0  0  0  0  0  0  0
  -21.1700   -6.7950   23.8880 C   0  0  0  0  0  3  0  0  0  0  0  0
  -21.0770   -5.9680   25.0260 C   0  0  0  0  0  3  0  0  0  0  0  0
  -21.3620   -4.5920   24.9240 C   0  0  0  0  0  0  0  0  0  0  0  0
  -21.7430   -4.0430   23.6870 C   0  0  0  0  0  3  0  0  0  0  0  0
  -21.8360   -4.8670   22.5520 C   0  0  0  0  0  0  0  0  0  0  0  0
  -22.1830   -4.3290   21.3560 F   0  0  0  0  0  0  0  0  0  0  0  0
  -21.2680   -3.7960   26.0140 F   0  0  0  0  0  0  0  0  0  0  0  0
  -22.7620  -13.6210   21.2440 C   0  0  0  0  0  0  0  0  0  0  0  0
  -22.0490  -12.9160   22.1150 N   0  0  0  0  0  0  0  0  0  0  0  0
  -22.3230  -14.6620   20.7520 O   0  0  0  0  0  0  0  0  0  0  0  0
  -22.4170  -12.0720   22.5260 H   0  0  0  0  0  0  0  0  0  0  0  0
  -21.1240  -13.2300   22.3790 H   0  0  0  0  0  0  0  0  0  0  0  0
  -25.3750  -15.2720   20.3810 N   0  0  0  0  0  0  0  0  0  0  0  0
  -24.6090  -15.9180   20.5380 H   0  0  0  0  0  0  0  0  0  0  0  0
  -26.2050  -15.7230   20.0190 H   0  0  0  0  0  0  0  0  0  0  0  0
  1 57  1  0
  1 49  1  0
  2  5  1  0
  2  1  1  0
  3  2  1  0
  4  2  1  0
  6  7  1  0
  6  5  2  0
  8 19  2  0
  9  7  1  0
  9 14  1  0
 10 18  1  0
 10 20  1  0
 11 17  1  0
 11 13  1  0
 12 18  1  0
 13 12  1  0
 14 13  2  0
 15 16  1  0
 15  9  2  0
 16 11  2  0
 17 10  1  0
 18  8  1  0
 20 22  2  0
 21 20  1  0
 23 21  1  0
 24 33  2  0
 24 29  1  0
 25 21  1  0
 25 29  1  0
 26 25  1  0
 27 28  1  0
 27 26  1  0
 28 24  1  0
 29 30  2  0
 30 31  1  0
 32 31  2  0
 33 32  1  0
 34  8  1  0
 34 35  1  0
 34 44  1  0
 35 38  1  0
 36 40  1  0
 36 35  1  0
 37 36  2  0
 40 39  1  0
 42 40  1  0
 42 43  1  0
 42 41  1  0
 44 47  1  1
 44 45  1  0
 46 44  1  0
 48 50  1  0
 49 48  2  0
 50 51  1  0
 51 53  1  0
 51 54  1  0
 52 50  2  0
 55 49  1  0
 55 56  1  0
 57 58  1  0
 59 67  1  0
 60 65  1  0
 61 62  1  0
 61 60  1  0
 63 62  1  0
 63 72  1  0
 63 64  1  0
 65 59  1  0
 65 64  1  0
 66 59  2  0
 67 68  1  0
 67 58  1  0
 69 70  2  0
 70 89  1  0
 71 70  1  0
 71 74  1  0
 72 73  1  0
 72 69  1  0
 73 71  2  0
 74 75  1  0
 75 76  2  0
 77 80  1  0
 77 76  1  0
 78 77  2  0
 79 78  1  0
 79 74  2  0
 80 81  1  0
 81 82  1  0
 82 83  2  0
 84 83  1  0
 84 88  1  0
 85 84  2  0
 86 81  2  0
 86 85  1  0
 87 86  1  0
 89 90  1  0
 90 93  1  0
 90 92  1  0
 91 89  2  0
 94 95  1  0
 94 69  1  0
 96 94  1  0
M  ISO  4   6 101   7 101  59 100  67 100
M  END
>  <TORSDO>  (79) 
F 24

>  <SCORE>  (79) 
-13.356

>  <name>  (79) 
79

>  <ligand_id>  (79) 
79

>  <original_smiles>  (79) 
[H]OC(=C([H])C(=O)N([H])[H])C([H])(C([H])([H])C([H])([H])N([H])C(=O)N1C([H])([H])C([H])([H])C([H])([H])C([H])(n2nc(-c3c([H])c([H])c(Oc4c([H])c([H])c(F)c([H])c4F)c([H])c3[H])c(C(=O)N([H])[H])c2N([H])[H])C1([H])[H])[N+]([H])([H])C([H])([H])C([H])([H])Oc1c([H])c([H])c2c(c1[H])C([H])([H])N(C(=O)C([H])(N([H])C(=O)C([H])(N([H])C([H])([H])[H])C([H])([H])[H])C(C([H])([H])[H])(C([H])([H])[H])C([H])([H])[H])C([H])(C(=O)N([H])C1([H])c3c([H])c([H])c([H])c([H])c3C([H])([H])C([H])([H])C1([H])[H])C2([H])[H]

>  <smiles>  (79) 
[H]OC(=C([H])C(=O)N([H])[H])C([H])(C([H])([H])C([H])([H])N([H])C(=O)N1C([H])([H])C([H])([H])C([H])([H])C([H])(n2nc(-c3c([H])c([H])c(Oc4c([H])c([H])c(F)c([H])c4F)c([H])c3[H])c(C(=O)N([H])[H])c2N([H])[H])C1([H])[H])[N+]([H])([H])C([H])([H])C([H])([H])Oc1c([H])c([H])c2c(c1[H])C([H])([H])N(C(=O)C([H])(N([H])C(=O)C([H])(N([H])C([H])([H])[H])C([H])([H])[H])C(C([H])([H])[H])(C([H])([H])[H])C([H])([H])[H])C([H])(C(=O)N([H])C1([H])c3c([H])c([H])c([H])c([H])c3C([H])([H])C([H])([H])C1([H])[H])C2([H])[H]

$$$$
80:0:0
     RDKit          3D

 92100  0  0  1  0  0  0  0  0999 V2000
  -30.2640  -21.6370   20.7000 C   0  0  0  0  0  2  0  0  0  0  0  0
  -30.3940  -19.3210   21.8680 C   0  0  0  0  0  3  0  0  0  0  0  0
  -30.3580  -17.8990   21.8830 C   0  0  0  0  0  3  0  0  0  0  0  0
  -29.7730  -19.3200   19.5410 C   0  0  0  0  0  3  0  0  0  0  0  0
  -30.1030  -20.0730   20.7000 C   0  0  0  0  0  0  0  0  0  0  0  0
  -29.7280  -17.8890   19.5490 C   0  0  0  0  0  0  0  0  0  0  0  0
  -30.0500  -17.1470   20.7230 C   0  0  0  0  0  0  0  0  0  0  0  0
  -29.2950  -17.1630   18.2860 C   0  0  0  0  0  1  0  0  0  0  0  0
  -30.6580  -14.6840   20.3350 C   0  0  0  0  0  0  0  0  0  0  0  0
  -30.4080  -12.4790   19.2150 C   0  0  0  0  0  2  0  0  0  0  0  0
  -29.4400  -12.6470   18.0230 C   0  0  0  0  0  2  0  0  0  0  0  0
  -27.9740  -12.4850   18.4760 C   0  0  0  0  0  2  0  0  0  0  0  0
  -27.6470  -13.3180   19.7440 C   0  0  0  0  0  3  0  0  0  0  0  0
  -28.7250  -13.1260   20.8350 C   0  0  0  0  0  2  0  0  0  0  0  0
  -30.0310  -13.4690   20.2440 N   0  0  0  0  0  0  0  0  0  0  0  0
  -31.7940  -14.8650   19.8830 O   0  0  0  0  0  0  0  0  0  0  0  0
  -29.8970  -15.7040   20.8250 N   0  0  0  0  0  0  0  0  0  0  0  0
  -29.0310  -15.3980   21.2390 H   0  0  0  0  0  0  0  0  0  0  0  0
  -25.2640  -13.9130   20.5020 C   0  0  0  0  0  0  0  0  0  0  0  0
  -24.2030  -13.1370   20.8840 C   0  0  0  0  0  0  0  0  0  0  0  0
  -24.6620  -11.7870   20.8270 C   0  0  0  0  0  0  0  0  0  0  0  0
  -26.3040  -13.0350   20.2440 N   0  0  0  0  0  0  0  0  0  0  0  0
  -25.9470  -11.7500   20.4930 N   0  0  0  0  0  0  0  0  0  0  0  0
  -23.9370  -10.5240   21.0130 C   0  0  0  0  0  0  0  0  0  0  0  0
  -24.3600   -9.5590   21.9540 C   0  0  0  0  0  3  0  0  0  0  0  0
  -23.6360   -8.3590   22.1220 C   0  0  0  0  0  3  0  0  0  0  0  0
  -22.4740   -8.1170   21.3510 C   0  0  0  0  0  0  0  0  0  0  0  0
  -22.0730   -9.0700   20.3970 C   0  0  0  0  0  3  0  0  0  0  0  0
  -22.7980  -10.2610   20.2260 C   0  0  0  0  0  3  0  0  0  0  0  0
  -21.7200   -6.9720   21.4310 O   0  0  0  0  0  0  0  0  0  0  0  0
  -21.6220   -6.2560   22.5970 C   0  0  0  0  0  0  0  0  0  0  0  0
  -21.0950   -6.8230   23.7780 C   0  0  0  0  0  3  0  0  0  0  0  0
  -20.9460   -6.0300   24.9350 C   0  0  0  0  0  3  0  0  0  0  0  0
  -21.3140   -4.6700   24.9090 C   0  0  0  0  0  0  0  0  0  0  0  0
  -21.8330   -4.1040   23.7320 C   0  0  0  0  0  3  0  0  0  0  0  0
  -21.9850   -4.8930   22.5800 C   0  0  0  0  0  0  0  0  0  0  0  0
  -22.4680   -4.3380   21.4430 F   0  0  0  0  0  0  0  0  0  0  0  0
  -21.1640   -3.9060   26.0160 F   0  0  0  0  0  0  0  0  0  0  0  0
  -22.8130  -13.6140   21.1910 C   0  0  0  0  0  0  0  0  0  0  0  0
  -22.1000  -12.9080   22.0610 N   0  0  0  0  0  0  0  0  0  0  0  0
  -22.3640  -14.6480   20.6960 O   0  0  0  0  0  0  0  0  0  0  0  0
  -22.4720  -12.0740   22.4900 H   0  0  0  0  0  0  0  0  0  0  0  0
  -21.1670  -13.2110   22.3060 H   0  0  0  0  0  0  0  0  0  0  0  0
  -25.4210  -15.2850   20.3270 N   0  0  0  0  0  0  0  0  0  0  0  0
  -24.6380  -15.9240   20.4080 H   0  0  0  0  0  0  0  0  0  0  0  0
  -26.2400  -15.7210   19.9200 H   0  0  0  0  0  0  0  0  0  0  0  0
  -27.7220  -22.0720   20.5680 C   0  0  0  0  0  1  0  0  0  0  0  0
  -29.1140  -22.5980   20.1710 C   0  0  0  0  0  3  0  0  0  0  0  0
  -29.2670  -24.1400   20.5210 C   0  0  0  0  0  0  0  0  0  0  0  0
  -30.2090  -24.5300   21.2190 O   0  0  0  0  0  0  0  0  0  0  0  0
  -28.2110  -25.1700   19.9770 C   0  0  0  0  0  2  0  0  0  0  0  0
  -28.4000  -26.5890   20.3420 O   0  0  0  0  0  0  0  0  0  0  0  0
  -24.6050  -31.9300   23.3370 C   0  0  0  0  0  0  0  0  0  0  0  0
  -27.2680  -27.4160   20.2760 C   0  0  0  0  0  0  0  0  0  0  0  0
  -23.4200  -30.5390   21.6750 C   0  0  0  0  0  3  0  0  0  0  0  0
  -24.8890  -29.0010   20.2570 C   0  0  0  0  0  0  0  0  0  0  0  0
  -25.9580  -30.8680   21.5230 C   0  0  0  0  0  2  0  0  0  0  0  0
  -26.0490  -29.4950   20.8680 C   0  0  0  0  0  0  0  0  0  0  0  0
  -27.2390  -28.7110   20.8730 C   0  0  0  0  0  3  0  0  0  0  0  0
  -26.0850  -26.9780   19.6330 C   0  0  0  0  0  3  0  0  0  0  0  0
  -24.9080  -27.7470   19.6320 C   0  0  0  0  0  3  0  0  0  0  0  0
  -23.6500  -29.8700   20.2940 C   0  0  0  0  0  2  0  0  0  0  0  0
  -24.6780  -31.1290   22.2350 N   0  0  0  0  0  0  0  0  0  0  0  0
  -23.5160  -32.2030   23.8620 O   0  0  0  0  0  0  0  0  0  0  0  0
  -22.7520  -29.5140   22.6230 C   0  0  0  0  0  0  0  0  0  0  0  0
  -21.4300  -29.3230   22.4700 N   0  0  0  0  0  0  0  0  0  0  0  0
  -23.4220  -28.8940   23.4530 O   0  0  0  0  0  0  0  0  0  0  0  0
  -20.9470  -29.8840   21.7820 H   0  0  0  0  0  0  0  0  0  0  0  0
  -18.0580  -28.0940   22.9040 C   0  0  0  0  0  0  0  0  0  0  0  0
  -20.6080  -28.3780   23.2240 C   0  0  0  0  0  3  0  0  0  0  0  0
  -20.7340  -26.9470   22.6540 C   0  0  0  0  0  2  0  0  0  0  0  0
  -19.6550  -26.6120   21.6200 C   0  0  0  0  0  2  0  0  0  0  0  0
  -18.2600  -26.7440   22.2380 C   0  0  0  0  0  2  0  0  0  0  0  0
  -19.1600  -28.8670   23.3560 C   0  0  0  0  0  0  0  0  0  0  0  0
  -18.9170  -30.1290   23.9410 C   0  0  0  0  0  3  0  0  0  0  0  0
  -17.6040  -30.6180   24.0790 C   0  0  0  0  0  3  0  0  0  0  0  0
  -16.5160  -29.8410   23.6440 C   0  0  0  0  0  3  0  0  0  0  0  0
  -16.7440  -28.5810   23.0640 C   0  0  0  0  0  3  0  0  0  0  0  0
  -25.8820  -32.5610   23.9740 C   0  0  0  0  0  3  0  0  0  0  0  0
  -26.3700  -31.7980   25.2670 C   0  0  1  0  0  0  0  0  0  0  0  0
  -25.2550  -31.5750   26.3150 C   0  0  0  0  0  1  0  0  0  0  0  0
  -26.9590  -30.4160   24.9000 C   0  0  0  0  0  1  0  0  0  0  0  0
  -27.5070  -32.5970   25.9460 C   0  0  0  0  0  1  0  0  0  0  0  0
  -25.5760  -33.9630   24.2860 N   0  0  0  0  0  0  0  0  0  0  0  0
  -25.8910  -35.0030   23.5030 C   0  0  0  0  0  0  0  0  0  0  0  0
  -26.5420  -34.8840   22.4610 O   0  0  0  0  0  0  0  0  0  0  0  0
  -25.0040  -34.1310   25.1000 H   0  0  0  0  0  0  0  0  0  0  0  0
  -24.1400  -36.7770   23.1630 C   0  0  0  0  0  1  0  0  0  0  0  0
  -25.4080  -36.3980   23.9450 C   0  0  0  0  0  3  0  0  0  0  0  0
  -27.5560  -37.3200   24.6980 C   0  0  0  0  0  1  0  0  0  0  0  0
  -26.4300  -37.4550   23.7790 N   0  0  0  0  0  0  0  0  0  0  0  0
  -26.0210  -38.3750   23.9110 H   0  0  0  0  0  0  0  0  0  0  0  0
  1  5  1  0
  2  3  1  0
  4  6  2  0
  4  5  1  0
  5  2  2  0
  6  7  1  0
  7 17  1  0
  7  3  2  0
  8  6  1  0
  9 17  1  0
 10 15  1  0
 11 12  1  0
 11 10  1  0
 13 12  1  0
 13 22  1  0
 13 14  1  0
 15  9  1  0
 15 14  1  0
 16  9  2  0
 17 18  1  0
 19 20  2  0
 20 39  1  0
 21 20  1  0
 21 24  1  0
 22 23  1  0
 22 19  1  0
 23 21  2  0
 24 25  1  0
 25 26  2  0
 27 30  1  0
 27 26  1  0
 28 27  2  0
 29 28  1  0
 29 24  2  0
 30 31  1  0
 31 32  1  0
 32 33  2  0
 34 33  1  0
 34 38  1  0
 35 34  2  0
 36 31  2  0
 36 35  1  0
 37 36  1  0
 39 40  1  0
 40 43  1  0
 40 42  1  0
 41 39  2  0
 44 45  1  0
 44 19  1  0
 46 44  1  0
 48 49  1  0
 48 47  1  0
 48  1  1  0
 49 50  2  0
 51 52  1  0
 51 49  1  0
 53 64  2  0
 54 52  1  0
 54 59  1  0
 55 63  1  0
 55 65  1  0
 56 62  1  0
 56 58  1  0
 57 63  1  0
 58 59  2  0
 58 57  1  0
 60 54  2  0
 61 60  1  0
 61 56  2  0
 62 55  1  0
 63 53  1  0
 65 67  2  0
 66 65  1  0
 68 66  1  0
 69 78  2  0
 69 74  1  0
 70 66  1  0
 70 74  1  0
 71 70  1  0
 72 73  1  0
 72 71  1  0
 73 69  1  0
 74 75  2  0
 75 76  1  0
 77 76  2  0
 78 77  1  0
 79 53  1  0
 79 84  1  0
 79 80  1  0
 80 83  1  1
 80 81  1  0
 82 80  1  0
 84 87  1  0
 85 89  1  0
 85 84  1  0
 86 85  2  0
 89 88  1  0
 91 92  1  0
 91 89  1  0
 91 90  1  0
M  ISO  4   9 100  17 100  51 101  52 101
M  END
>  <TORSDO>  (80) 
F 20

>  <SCORE>  (80) 
-13.566

>  <name>  (80) 
80

>  <ligand_id>  (80) 
80

>  <original_smiles>  (80) 
[H]c1c([H])c([H])c2c(c1[H])C([H])([H])C([H])([H])C([H])([H])C2([H])N([H])C(=O)C1([H])N(C(=O)C([H])(N([H])C(=O)C([H])(N([H])C([H])([H])[H])C([H])([H])[H])C(C([H])([H])[H])(C([H])([H])[H])C([H])([H])[H])C([H])([H])c2c([H])c(OC([H])([H])C(=O)C([H])(C([H])([H])[H])C([H])([H])c3c([H])c([H])c(N([H])C(=O)N4C([H])([H])C([H])([H])C([H])([H])C([H])(n5nc(-c6c([H])c([H])c(Oc7c([H])c([H])c(F)c([H])c7F)c([H])c6[H])c(C(=O)N([H])[H])c5N([H])[H])C4([H])[H])c(C([H])([H])[H])c3[H])c([H])c([H])c2C1([H])[H]

>  <smiles>  (80) 
[H]c1c([H])c([H])c2c(c1[H])C([H])([H])C([H])([H])C([H])([H])C2([H])N([H])C(=O)C1([H])N(C(=O)C([H])(N([H])C(=O)C([H])(N([H])C([H])([H])[H])C([H])([H])[H])C(C([H])([H])[H])(C([H])([H])[H])C([H])([H])[H])C([H])([H])c2c([H])c(OC([H])([H])C(=O)C([H])(C([H])([H])[H])C([H])([H])c3c([H])c([H])c(N([H])C(=O)N4C([H])([H])C([H])([H])C([H])([H])C([H])(n5nc(-c6c([H])c([H])c(Oc7c([H])c([H])c(F)c([H])c7F)c([H])c6[H])c(C(=O)N([H])[H])c5N([H])[H])C4([H])[H])c(C([H])([H])[H])c3[H])c([H])c([H])c2C1([H])[H]

$$$$
81:0:0
     RDKit          3D

101109  0  0  1  0  0  0  0  0999 V2000
  -29.5180  -21.3280   18.8110 C   0  0  0  0  0  3  0  0  0  0  0  0
  -28.8380  -22.4520   19.6140 N   0  0  0  0  0  4  0  0  0  0  0  0
  -27.9080  -22.4820   19.2210 H   0  0  0  0  0  0  0  0  0  0  0  0
  -28.7120  -22.0620   20.5390 H   0  0  0  0  0  0  0  0  0  0  0  0
  -29.3120  -23.9190   19.7360 C   0  0  0  0  0  3  0  0  0  0  0  0
  -28.1530  -25.0260   19.8590 C   0  0  0  0  0  3  0  0  0  0  0  0
  -28.4030  -26.4950   20.0420 O   0  0  0  0  0  0  0  0  0  0  0  0
  -24.7040  -31.9750   23.1170 C   0  0  0  0  0  0  0  0  0  0  0  0
  -27.2920  -27.3680   20.0340 C   0  0  0  0  0  0  0  0  0  0  0  0
  -23.4900  -30.5660   21.4980 C   0  0  0  0  0  3  0  0  0  0  0  0
  -24.9300  -29.0130   20.0720 C   0  0  0  0  0  0  0  0  0  0  0  0
  -26.0390  -30.8630   21.3080 C   0  0  0  0  0  2  0  0  0  0  0  0
  -26.1090  -29.4860   20.6580 C   0  0  0  0  0  0  0  0  0  0  0  0
  -27.2930  -28.6750   20.6320 C   0  0  0  0  0  3  0  0  0  0  0  0
  -26.0740  -26.9640   19.4360 C   0  0  0  0  0  3  0  0  0  0  0  0
  -24.9180  -27.7540   19.4580 C   0  0  0  0  0  3  0  0  0  0  0  0
  -23.6950  -29.8880   20.1210 C   0  0  0  0  0  2  0  0  0  0  0  0
  -24.7630  -31.1530   22.0280 N   0  0  0  0  0  0  0  0  0  0  0  0
  -23.6270  -32.2630   23.6520 O   0  0  0  0  0  0  0  0  0  0  0  0
  -22.8350  -29.5540   22.4690 C   0  0  0  0  0  0  0  0  0  0  0  0
  -21.5080  -29.3710   22.3530 N   0  0  0  0  0  0  0  0  0  0  0  0
  -23.5190  -28.9280   23.2830 O   0  0  0  0  0  0  0  0  0  0  0  0
  -21.0180  -29.9200   21.6620 H   0  0  0  0  0  0  0  0  0  0  0  0
  -18.1300  -28.2060   22.9240 C   0  0  0  0  0  0  0  0  0  0  0  0
  -20.6950  -28.4420   23.1410 C   0  0  0  0  0  3  0  0  0  0  0  0
  -20.7700  -27.0100   22.5620 C   0  0  0  0  0  2  0  0  0  0  0  0
  -19.6430  -26.7000   21.5710 C   0  0  0  0  0  2  0  0  0  0  0  0
  -18.2760  -26.8570   22.2430 C   0  0  0  0  0  2  0  0  0  0  0  0
  -19.2630  -28.9590   23.3290 C   0  0  0  0  0  0  0  0  0  0  0  0
  -19.0670  -30.2210   23.9290 C   0  0  0  0  0  3  0  0  0  0  0  0
  -17.7720  -30.7330   24.1260 C   0  0  0  0  0  3  0  0  0  0  0  0
  -16.6520  -29.9790   23.7340 C   0  0  0  0  0  3  0  0  0  0  0  0
  -16.8310  -28.7170   23.1380 C   0  0  0  0  0  3  0  0  0  0  0  0
  -25.9900  -32.6120   23.7220 C   0  0  0  0  0  3  0  0  0  0  0  0
  -25.6360  -33.9580   24.1950 N   0  0  0  0  0  0  0  0  0  0  0  0
  -25.8810  -35.0920   23.5250 C   0  0  0  0  0  0  0  0  0  0  0  0
  -26.5030  -35.1140   22.4580 O   0  0  0  0  0  0  0  0  0  0  0  0
  -25.0790  -34.0130   25.0380 H   0  0  0  0  0  0  0  0  0  0  0  0
  -24.0720  -36.8340   23.4110 C   0  0  0  0  0  1  0  0  0  0  0  0
  -25.3570  -36.4040   24.1340 C   0  0  0  0  0  3  0  0  0  0  0  0
  -27.4810  -37.2900   24.9830 C   0  0  0  0  0  1  0  0  0  0  0  0
  -26.3450  -37.5030   24.0960 N   0  0  0  0  0  0  0  0  0  0  0  0
  -25.9100  -38.3870   24.3450 H   0  0  0  0  0  0  0  0  0  0  0  0
  -26.6180  -31.7580   24.8930 C   0  0  1  0  0  0  0  0  0  0  0  0
  -25.5930  -31.3290   25.9690 C   0  0  0  0  0  1  0  0  0  0  0  0
  -27.2830  -30.4760   24.3440 C   0  0  0  0  0  1  0  0  0  0  0  0
  -27.7460  -32.5680   25.5830 C   0  0  0  0  0  1  0  0  0  0  0  0
  -29.5570  -19.9000   19.6200 C   0  0  0  0  0  0  0  0  0  0  0  0
  -28.9150  -19.8410   20.6730 O   0  0  0  0  0  0  0  0  0  0  0  0
  -30.8150  -14.7920   18.9850 C   0  0  0  0  0  0  0  0  0  0  0  0
  -30.3140  -12.5960   17.9200 C   0  0  0  0  0  2  0  0  0  0  0  0
  -29.0850  -12.7620   17.0020 C   0  0  0  0  0  2  0  0  0  0  0  0
  -27.7860  -12.5410   17.7960 C   0  0  0  0  0  2  0  0  0  0  0  0
  -27.7690  -13.3200   19.1410 C   0  0  0  0  0  3  0  0  0  0  0  0
  -29.0900  -13.1590   19.9210 C   0  0  0  0  0  2  0  0  0  0  0  0
  -30.1780  -13.5710   19.0300 N   0  0  0  0  0  0  0  0  0  0  0  0
  -31.7480  -14.9510   18.1960 O   0  0  0  0  0  0  0  0  0  0  0  0
  -31.7060  -18.5960   19.9240 C   0  0  0  0  0  2  0  0  0  0  0  0
  -29.6280  -17.0830   19.4620 C   0  0  0  0  0  2  0  0  0  0  0  0
  -30.3340  -18.5410   19.2020 C   0  0  0  0  0  3  0  0  0  0  0  0
  -32.4400  -17.2600   20.1320 C   0  0  0  0  0  3  0  0  0  0  0  0
  -31.5230  -16.1900   20.7890 C   0  0  0  0  0  3  0  0  0  0  0  0
  -30.4540  -15.8390   19.8330 N   0  0  0  0  0  0  0  0  0  0  0  0
  -25.7640  -13.7970   20.6650 C   0  0  0  0  0  0  0  0  0  0  0  0
  -24.7880  -12.9890   21.1770 C   0  0  0  0  0  0  0  0  0  0  0  0
  -25.0960  -11.6650   20.7340 C   0  0  0  0  0  0  0  0  0  0  0  0
  -26.6120  -12.9650   19.9510 N   0  0  0  0  0  0  0  0  0  0  0  0
  -26.2330  -11.6640   20.0470 N   0  0  0  0  0  0  0  0  0  0  0  0
  -24.3470  -10.4110   20.8790 C   0  0  0  0  0  0  0  0  0  0  0  0
  -24.8600   -9.3260   21.6270 C   0  0  0  0  0  3  0  0  0  0  0  0
  -24.1110   -8.1380   21.7680 C   0  0  0  0  0  3  0  0  0  0  0  0
  -22.8360   -8.0260   21.1630 C   0  0  0  0  0  0  0  0  0  0  0  0
  -22.3420   -9.0990   20.4010 C   0  0  0  0  0  3  0  0  0  0  0  0
  -23.0910  -10.2790   20.2560 C   0  0  0  0  0  3  0  0  0  0  0  0
  -22.0490   -6.9010   21.2260 O   0  0  0  0  0  0  0  0  0  0  0  0
  -22.0240   -6.1010   22.3390 C   0  0  0  0  0  0  0  0  0  0  0  0
  -21.6340   -6.5950   23.6040 C   0  0  0  0  0  3  0  0  0  0  0  0
  -21.5560   -5.7230   24.7070 C   0  0  0  0  0  3  0  0  0  0  0  0
  -21.8590   -4.3570   24.5480 C   0  0  0  0  0  0  0  0  0  0  0  0
  -22.2410   -3.8620   23.2890 C   0  0  0  0  0  3  0  0  0  0  0  0
  -22.3210   -4.7320   22.1870 C   0  0  0  0  0  0  0  0  0  0  0  0
  -22.6700   -4.2460   20.9710 F   0  0  0  0  0  0  0  0  0  0  0  0
  -21.7760   -3.5150   25.6050 F   0  0  0  0  0  0  0  0  0  0  0  0
  -23.5810  -13.4260   21.9540 C   0  0  0  0  0  0  0  0  0  0  0  0
  -23.1270  -12.6030   22.8910 N   0  0  0  0  0  0  0  0  0  0  0  0
  -23.0670  -14.5300   21.7690 O   0  0  0  0  0  0  0  0  0  0  0  0
  -23.5600  -11.7050   23.0460 H   0  0  0  0  0  0  0  0  0  0  0  0
  -22.3330  -12.8680   23.4560 H   0  0  0  0  0  0  0  0  0  0  0  0
  -25.9980  -15.1690   20.7210 N   0  0  0  0  0  0  0  0  0  0  0  0
  -25.3630  -15.8160   21.1710 H   0  0  0  0  0  0  0  0  0  0  0  0
  -26.7760  -15.6280   20.2640 H   0  0  0  0  0  0  0  0  0  0  0  0
  -33.7020  -17.4480   20.8690 N   0  0  0  0  0  4  0  0  0  0  0  0
  -33.5660  -17.8790   21.7660 H   0  0  0  0  0  0  0  0  0  0  0  0
  -34.3290  -18.0270   20.3350 H   0  0  0  0  0  0  0  0  0  0  0  0
  -34.1660  -16.5660   21.0050 H   0  0  0  0  0  0  0  0  0  0  0  0
  -29.9140  -15.6270   22.7770 C   0  0  0  0  0  1  0  0  0  0  0  0
  -30.9780  -16.5690   22.1950 C   0  0  0  0  0  2  0  0  0  0  0  0
  -30.0950  -22.5800   16.6200 C   0  0  0  0  0  1  0  0  0  0  0  0
  -30.6580  -21.7400   17.7990 C   0  0  0  0  0  3  0  0  0  0  0  0
  -32.5920  -22.0290   19.5990 C   0  0  0  0  0  1  0  0  0  0  0  0
  -31.9440  -22.4670   18.2850 C   0  0  0  0  0  2  0  0  0  0  0  0
  1  2  1  0
  1 48  1  0
  2  5  1  0
  2  4  1  0
  3  2  1  0
  5  6  2  0
  6  7  1  0
  8 19  2  0
  9  7  1  0
  9 14  1  0
 10 18  1  0
 10 20  1  0
 11 17  1  0
 11 13  1  0
 12 18  1  0
 13 12  1  0
 14 13  2  0
 15 16  1  0
 15  9  2  0
 16 11  2  0
 17 10  1  0
 18  8  1  0
 20 22  2  0
 21 20  1  0
 23 21  1  0
 24 33  2  0
 24 29  1  0
 25 21  1  0
 25 29  1  0
 26 25  1  0
 27 28  1  0
 27 26  1  0
 28 24  1  0
 29 30  2  0
 30 31  1  0
 32 31  2  0
 33 32  1  0
 34  8  1  0
 34 35  1  0
 34 44  1  0
 35 38  1  0
 36 40  1  0
 36 35  1  0
 37 36  2  0
 40 39  1  0
 42 40  1  0
 42 43  1  0
 42 41  1  0
 44 47  1  1
 44 45  1  0
 46 44  1  0
 48 49  2  0
 50 56  1  0
 50 63  1  0
 51 56  1  0
 52 53  1  0
 52 51  1  0
 54 53  1  0
 54 55  1  0
 54 67  1  0
 56 55  1  0
 57 50  2  0
 58 61  1  0
 59 63  1  0
 60 59  1  0
 60 48  1  0
 60 58  1  0
 61 62  1  0
 61 92  1  0
 62 97  1  0
 63 62  1  0
 64 89  1  0
 64 65  2  0
 65 84  1  0
 66 69  1  0
 66 65  1  0
 67 68  1  0
 67 64  1  0
 68 66  2  0
 69 70  1  0
 70 71  2  0
 72 75  1  0
 72 71  1  0
 73 72  2  0
 74 73  1  0
 74 69  2  0
 75 76  1  0
 76 77  1  0
 77 78  2  0
 79 78  1  0
 79 83  1  0
 80 79  2  0
 81 76  2  0
 81 80  1  0
 82 81  1  0
 84 85  1  0
 85 87  1  0
 85 88  1  0
 86 84  2  0
 89 90  1  0
 91 89  1  0
 92 95  1  0
 92 93  1  0
 94 92  1  0
 97 96  1  0
 99 98  1  0
 99101  1  0
 99  1  1  0
101100  1  0
M  ISO  4   6 101   7 101  50 100  63 100
M  END
>  <TORSDO>  (81) 
F 24

>  <SCORE>  (81) 
-6.487

>  <name>  (81) 
81

>  <ligand_id>  (81) 
81

>  <original_smiles>  (81) 
[H]c1c([H])c([H])c2c(c1[H])C([H])([H])C([H])([H])C([H])([H])C2([H])N([H])C(=O)C1([H])N(C(=O)C([H])(N([H])C(=O)C([H])(N([H])C([H])([H])[H])C([H])([H])[H])C(C([H])([H])[H])(C([H])([H])[H])C([H])([H])[H])C([H])([H])c2c([H])c(OC([H])([H])C([H])([H])[N+]([H])([H])C([H])(C(=O)C3([H])C([H])([H])N(C(=O)N4C([H])([H])C([H])([H])C([H])([H])C([H])(n5nc(-c6c([H])c([H])c(Oc7c([H])c([H])c(F)c([H])c7F)c([H])c6[H])c(C(=O)N([H])[H])c5N([H])[H])C4([H])[H])C([H])(C([H])([H])C([H])([H])[H])C([H])([N+]([H])([H])[H])C3([H])[H])C([H])(C([H])([H])[H])C([H])([H])C([H])([H])[H])c([H])c([H])c2C1([H])[H]

>  <smiles>  (81) 
[H]c1c([H])c([H])c2c(c1[H])C([H])([H])C([H])([H])C([H])([H])C2([H])N([H])C(=O)C1([H])N(C(=O)C([H])(N([H])C(=O)C([H])(N([H])C([H])([H])[H])C([H])([H])[H])C(C([H])([H])[H])(C([H])([H])[H])C([H])([H])[H])C([H])([H])c2c([H])c(OC([H])([H])C([H])([H])[N+]([H])([H])C([H])(C(=O)C3([H])C([H])([H])N(C(=O)N4C([H])([H])C([H])([H])C([H])([H])C([H])(n5nc(-c6c([H])c([H])c(Oc7c([H])c([H])c(F)c([H])c7F)c([H])c6[H])c(C(=O)N([H])[H])c5N([H])[H])C4([H])[H])C([H])(C([H])([H])C([H])([H])[H])C([H])([N+]([H])([H])[H])C3([H])[H])C([H])(C([H])([H])[H])C([H])([H])C([H])([H])[H])c([H])c([H])c2C1([H])[H]

$$$$
82:0:0
     RDKit          3D

 93101  0  0  1  0  0  0  0  0999 V2000
  -29.7000  -20.6380   22.1750 C   0  0  0  0  0  2  0  0  0  0  0  0
  -31.2070  -20.3910   21.9540 C   0  0  0  0  0  2  0  0  0  0  0  0
  -29.1250  -20.5390   20.7650 C   0  0  0  0  0  3  0  0  0  0  0  0
  -29.9650  -19.1300   20.3160 C   0  0  0  0  0  3  0  0  0  0  0  0
  -31.3270  -19.3950   20.8530 N   0  0  1  0  0  4  0  0  0  0  0  0
  -31.6050  -18.5270   21.2870 H   0  0  0  0  0  0  0  0  0  0  0  0
  -29.2980  -22.0730   20.1290 C   0  0  0  0  0  0  0  0  0  0  0  0
  -30.3470  -22.3020   19.5240 O   0  0  0  0  0  0  0  0  0  0  0  0
  -28.2290  -23.3370   20.2150 C   0  0  0  0  0  2  0  0  0  0  0  0
  -28.4910  -24.9060   20.7820 C   0  0  0  0  0  2  0  0  0  0  0  0
  -28.3780  -26.3250   20.1480 O   0  0  0  0  0  0  0  0  0  0  0  0
  -24.6240  -31.9120   23.2230 C   0  0  0  0  0  0  0  0  0  0  0  0
  -27.2600  -27.2240   20.2240 C   0  0  0  0  0  0  0  0  0  0  0  0
  -23.4360  -30.4980   21.5850 C   0  0  0  0  0  3  0  0  0  0  0  0
  -24.9000  -28.9210   20.1800 C   0  0  0  0  0  0  0  0  0  0  0  0
  -25.9830  -30.7930   21.4170 C   0  0  0  0  0  2  0  0  0  0  0  0
  -26.0730  -29.3930   20.7840 C   0  0  0  0  0  0  0  0  0  0  0  0
  -27.2540  -28.5660   20.7810 C   0  0  0  0  0  3  0  0  0  0  0  0
  -26.0610  -26.8400   19.5870 C   0  0  0  0  0  3  0  0  0  0  0  0
  -24.9100  -27.6580   19.5610 C   0  0  0  0  0  3  0  0  0  0  0  0
  -23.6630  -29.8060   20.2140 C   0  0  0  0  0  2  0  0  0  0  0  0
  -24.7010  -31.0920   22.1300 N   0  0  0  0  0  0  0  0  0  0  0  0
  -23.5370  -32.1860   23.7550 O   0  0  0  0  0  0  0  0  0  0  0  0
  -22.7670  -29.4930   22.5560 C   0  0  0  0  0  0  0  0  0  0  0  0
  -21.4410  -29.3070   22.4300 N   0  0  0  0  0  0  0  0  0  0  0  0
  -23.4450  -28.8790   23.3830 O   0  0  0  0  0  0  0  0  0  0  0  0
  -20.9500  -29.8540   21.7380 H   0  0  0  0  0  0  0  0  0  0  0  0
  -18.0730  -28.0760   22.9360 C   0  0  0  0  0  0  0  0  0  0  0  0
  -20.6290  -28.3650   23.2070 C   0  0  0  0  0  3  0  0  0  0  0  0
  -20.7450  -26.9310   22.6370 C   0  0  0  0  0  2  0  0  0  0  0  0
  -19.6460  -26.5950   21.6220 C   0  0  0  0  0  2  0  0  0  0  0  0
  -18.2640  -26.7260   22.2640 C   0  0  0  0  0  2  0  0  0  0  0  0
  -19.1830  -28.8510   23.3650 C   0  0  0  0  0  0  0  0  0  0  0  0
  -18.9470  -30.1120   23.9560 C   0  0  0  0  0  3  0  0  0  0  0  0
  -17.6360  -30.5940   24.1250 C   0  0  0  0  0  3  0  0  0  0  0  0
  -16.5410  -29.8170   23.7110 C   0  0  0  0  0  3  0  0  0  0  0  0
  -16.7620  -28.5600   23.1200 C   0  0  0  0  0  3  0  0  0  0  0  0
  -25.8970  -32.5580   23.8490 C   0  0  0  0  0  3  0  0  0  0  0  0
  -25.5750  -33.9580   24.1770 N   0  0  0  0  0  0  0  0  0  0  0  0
  -25.9010  -35.0140   23.4200 C   0  0  0  0  0  0  0  0  0  0  0  0
  -26.5720  -34.9150   22.3910 O   0  0  0  0  0  0  0  0  0  0  0  0
  -24.9820  -34.1050   24.9800 H   0  0  0  0  0  0  0  0  0  0  0  0
  -24.1680  -36.8050   23.0640 C   0  0  0  0  0  1  0  0  0  0  0  0
  -25.4060  -36.4010   23.8810 C   0  0  0  0  0  3  0  0  0  0  0  0
  -27.5320  -37.2980   24.7250 C   0  0  0  0  0  1  0  0  0  0  0  0
  -26.4340  -37.4600   23.7740 N   0  0  0  0  0  0  0  0  0  0  0  0
  -26.0220  -38.3780   23.9160 H   0  0  0  0  0  0  0  0  0  0  0  0
  -26.4090  -31.8010   25.1350 C   0  0  1  0  0  0  0  0  0  0  0  0
  -25.3120  -31.5700   26.2010 C   0  0  0  0  0  1  0  0  0  0  0  0
  -27.0000  -30.4210   24.7630 C   0  0  0  0  0  1  0  0  0  0  0  0
  -27.5520  -32.6060   25.7970 C   0  0  0  0  0  1  0  0  0  0  0  0
  -29.6260  -17.6000   20.9530 C   0  0  0  0  0  2  0  0  0  0  0  0
  -30.5360  -15.0160   20.2770 C   0  0  0  0  0  0  0  0  0  0  0  0
  -30.4330  -12.6880   19.2600 C   0  0  0  0  0  2  0  0  0  0  0  0
  -29.4790  -12.6640   18.0420 C   0  0  0  0  0  2  0  0  0  0  0  0
  -28.0220  -12.4320   18.4980 C   0  0  0  0  0  2  0  0  0  0  0  0
  -27.6220  -13.3520   19.6820 C   0  0  0  0  0  3  0  0  0  0  0  0
  -28.6930  -13.3340   20.7930 C   0  0  0  0  0  2  0  0  0  0  0  0
  -29.9530  -13.7590   20.1680 N   0  0  0  0  0  0  0  0  0  0  0  0
  -31.7540  -15.1180   20.1100 O   0  0  0  0  0  0  0  0  0  0  0  0
  -29.6890  -16.1510   20.3230 N   0  0  0  0  0  0  0  0  0  0  0  0
  -28.7510  -15.8380   20.1310 H   0  0  0  0  0  0  0  0  0  0  0  0
  -25.2400  -13.9240   20.4350 C   0  0  0  0  0  0  0  0  0  0  0  0
  -24.1840  -13.1430   20.8160 C   0  0  0  0  0  0  0  0  0  0  0  0
  -24.6590  -11.7960   20.7910 C   0  0  0  0  0  0  0  0  0  0  0  0
  -26.2890  -13.0510   20.1920 N   0  0  0  0  0  0  0  0  0  0  0  0
  -25.9480  -11.7660   20.4710 N   0  0  0  0  0  0  0  0  0  0  0  0
  -23.9410  -10.5300   20.9880 C   0  0  0  0  0  0  0  0  0  0  0  0
  -24.3760   -9.5710   21.9290 C   0  0  0  0  0  3  0  0  0  0  0  0
  -23.6600   -8.3700   22.1130 C   0  0  0  0  0  3  0  0  0  0  0  0
  -22.4930   -8.1180   21.3540 C   0  0  0  0  0  0  0  0  0  0  0  0
  -22.0760   -9.0640   20.4000 C   0  0  0  0  0  3  0  0  0  0  0  0
  -22.7940  -10.2570   20.2160 C   0  0  0  0  0  3  0  0  0  0  0  0
  -21.7450   -6.9680   21.4490 O   0  0  0  0  0  0  0  0  0  0  0  0
  -21.6930   -6.2370   22.6080 C   0  0  0  0  0  0  0  0  0  0  0  0
  -21.2410   -6.7980   23.8230 C   0  0  0  0  0  3  0  0  0  0  0  0
  -21.1370   -5.9930   24.9740 C   0  0  0  0  0  3  0  0  0  0  0  0
  -21.4740   -4.6280   24.9130 C   0  0  0  0  0  0  0  0  0  0  0  0
  -21.9170   -4.0650   23.7030 C   0  0  0  0  0  3  0  0  0  0  0  0
  -22.0220   -4.8670   22.5540 C   0  0  0  0  0  0  0  0  0  0  0  0
  -22.4320   -4.3160   21.3860 F   0  0  0  0  0  0  0  0  0  0  0  0
  -21.3660   -3.8530   26.0170 F   0  0  0  0  0  0  0  0  0  0  0  0
  -22.7820  -13.6120   21.0850 C   0  0  0  0  0  0  0  0  0  0  0  0
  -22.0570  -12.9180   21.9540 N   0  0  0  0  0  0  0  0  0  0  0  0
  -22.3390  -14.6330   20.5600 O   0  0  0  0  0  0  0  0  0  0  0  0
  -22.4260  -12.0940   22.4070 H   0  0  0  0  0  0  0  0  0  0  0  0
  -21.1170  -13.2170   22.1730 H   0  0  0  0  0  0  0  0  0  0  0  0
  -25.3920  -15.2950   20.2450 N   0  0  0  0  0  0  0  0  0  0  0  0
  -24.6090  -15.9360   20.3260 H   0  0  0  0  0  0  0  0  0  0  0  0
  -26.2160  -15.7290   19.8590 H   0  0  0  0  0  0  0  0  0  0  0  0
  -32.3680  -19.6560   19.8230 C   0  0  0  0  0  2  0  0  0  0  0  0
  -34.8630  -19.6490   19.2820 C   0  0  0  0  0  1  0  0  0  0  0  0
  -33.8020  -19.7350   20.3880 C   0  0  0  0  0  2  0  0  0  0  0  0
  2  1  1  0
  3  7  1  0
  3  1  1  0
  4  3  1  0
  4  5  1  0
  4 52  1  0
  5  6  1  1
  5  2  1  0
  7  9  1  0
  8  7  2  0
  9 10  1  0
 11 13  1  0
 11 10  1  0
 12 23  2  0
 13 18  1  0
 14 22  1  0
 14 24  1  0
 15 21  1  0
 15 17  1  0
 16 22  1  0
 17 16  1  0
 18 17  2  0
 19 13  2  0
 20 19  1  0
 20 15  2  0
 21 14  1  0
 22 12  1  0
 24 26  2  0
 25 24  1  0
 27 25  1  0
 28 37  2  0
 28 33  1  0
 29 25  1  0
 29 33  1  0
 30 29  1  0
 31 32  1  0
 31 30  1  0
 32 28  1  0
 33 34  2  0
 34 35  1  0
 36 35  2  0
 37 36  1  0
 38 12  1  0
 38 39  1  0
 38 48  1  0
 39 42  1  0
 40 44  1  0
 40 39  1  0
 41 40  2  0
 44 43  1  0
 46 44  1  0
 46 47  1  0
 46 45  1  0
 48 51  1  1
 48 49  1  0
 50 48  1  0
 53 61  1  0
 54 59  1  0
 55 56  1  0
 55 54  1  0
 57 56  1  0
 57 66  1  0
 57 58  1  0
 59 53  1  0
 59 58  1  0
 60 53  2  0
 61 52  1  0
 62 61  1  0
 63 64  2  0
 64 83  1  0
 65 64  1  0
 65 68  1  0
 66 63  1  0
 66 67  1  0
 67 65  2  0
 68 69  1  0
 69 70  2  0
 71 74  1  0
 71 70  1  0
 72 71  2  0
 73 72  1  0
 73 68  2  0
 74 75  1  0
 75 76  1  0
 76 77  2  0
 78 77  1  0
 78 82  1  0
 79 78  2  0
 80 75  2  0
 80 79  1  0
 81 80  1  0
 83 84  1  0
 84 87  1  0
 84 86  1  0
 85 83  2  0
 88 89  1  0
 88 63  1  0
 90 88  1  0
 91 93  1  0
 91  5  1  0
 92 93  1  0
M  ISO  4  10 101  11 101  53 100  61 100
M  END
>  <TORSDO>  (82) 
F 22

>  <SCORE>  (82) 
-13.086

>  <name>  (82) 
82

>  <ligand_id>  (82) 
82

>  <original_smiles>  (82) 
[H]c1c([H])c([H])c2c(c1[H])C([H])([H])C([H])([H])C([H])([H])C2([H])N([H])C(=O)C1([H])N(C(=O)C([H])(N([H])C(=O)C([H])(N([H])C([H])([H])[H])C([H])([H])[H])C(C([H])([H])[H])(C([H])([H])[H])C([H])([H])[H])C([H])([H])c2c([H])c(OC([H])([H])C([H])([H])C(=O)C3([H])C([H])([H])C([H])([H])[N+]([H])(C([H])([H])C([H])([H])C([H])([H])[H])C3([H])C([H])([H])N([H])C(=O)N3C([H])([H])C([H])([H])C([H])([H])C([H])(n4nc(-c5c([H])c([H])c(Oc6c([H])c([H])c(F)c([H])c6F)c([H])c5[H])c(C(=O)N([H])[H])c4N([H])[H])C3([H])[H])c([H])c([H])c2C1([H])[H]

>  <smiles>  (82) 
[H]c1c([H])c([H])c2c(c1[H])C([H])([H])C([H])([H])C([H])([H])C2([H])N([H])C(=O)C1([H])N(C(=O)C([H])(N([H])C(=O)C([H])(N([H])C([H])([H])[H])C([H])([H])[H])C(C([H])([H])[H])(C([H])([H])[H])C([H])([H])[H])C([H])([H])c2c([H])c(OC([H])([H])C([H])([H])C(=O)C3([H])C([H])([H])C([H])([H])[N+]([H])(C([H])([H])C([H])([H])C([H])([H])[H])C3([H])C([H])([H])N([H])C(=O)N3C([H])([H])C([H])([H])C([H])([H])C([H])(n4nc(-c5c([H])c([H])c(Oc6c([H])c([H])c(F)c([H])c6F)c([H])c5[H])c(C(=O)N([H])[H])c4N([H])[H])C3([H])[H])c([H])c([H])c2C1([H])[H]

$$$$
83:0:0
     RDKit          3D

 88 95  0  0  1  0  0  0  0  0999 V2000
  -29.3460  -21.0190   19.8190 C   0  0  0  0  0  2  0  0  0  0  0  0
  -28.9920  -19.5380   20.2370 C   0  0  0  0  0  0  0  0  0  0  0  0
  -27.8040  -19.2180   20.3700 O   0  0  0  0  0  0  0  0  0  0  0  0
  -30.6210  -18.3820   21.8740 C   0  0  0  0  0  1  0  0  0  0  0  0
  -30.1300  -18.4450   20.4150 C   0  0  0  0  0  3  0  0  0  0  0  0
  -29.8430  -16.9730   19.8190 C   0  0  0  0  0  2  0  0  0  0  0  0
  -30.8750  -14.6120   20.0680 C   0  0  0  0  0  0  0  0  0  0  0  0
  -30.6240  -12.3870   18.9740 C   0  0  0  0  0  2  0  0  0  0  0  0
  -29.6250  -12.5140   17.7960 C   0  0  0  0  0  2  0  0  0  0  0  0
  -28.1560  -12.3940   18.2650 C   0  0  0  0  0  2  0  0  0  0  0  0
  -27.8690  -13.2320   19.5430 C   0  0  0  0  0  3  0  0  0  0  0  0
  -28.9780  -12.9720   20.5960 C   0  0  0  0  0  2  0  0  0  0  0  0
  -30.2580  -13.3790   20.0070 N   0  0  0  0  0  0  0  0  0  0  0  0
  -31.9530  -14.7920   19.4910 O   0  0  0  0  0  0  0  0  0  0  0  0
  -30.1840  -15.6860   20.5950 N   0  0  0  0  0  0  0  0  0  0  0  0
  -29.7730  -15.5560   21.5270 H   0  0  0  0  0  0  0  0  0  0  0  0
  -25.5100  -13.8790   20.3420 C   0  0  0  0  0  0  0  0  0  0  0  0
  -24.4380  -13.1250   20.7540 C   0  0  0  0  0  0  0  0  0  0  0  0
  -24.8670  -11.7660   20.6970 C   0  0  0  0  0  0  0  0  0  0  0  0
  -26.5270  -12.9760   20.0720 N   0  0  0  0  0  0  0  0  0  0  0  0
  -26.1440  -11.7000   20.3420 N   0  0  0  0  0  0  0  0  0  0  0  0
  -24.1190  -10.5180   20.9130 C   0  0  0  0  0  0  0  0  0  0  0  0
  -24.5200   -9.5890   21.8970 C   0  0  0  0  0  3  0  0  0  0  0  0
  -23.7820   -8.4030   22.1090 C   0  0  0  0  0  3  0  0  0  0  0  0
  -22.6290   -8.1400   21.3370 C   0  0  0  0  0  0  0  0  0  0  0  0
  -22.2390   -9.0570   20.3480 C   0  0  0  0  0  3  0  0  0  0  0  0
  -22.9760  -10.2350   20.1350 C   0  0  0  0  0  3  0  0  0  0  0  0
  -21.8710   -6.9960   21.4490 O   0  0  0  0  0  0  0  0  0  0  0  0
  -21.7300   -6.3410   22.6410 C   0  0  0  0  0  0  0  0  0  0  0  0
  -21.1810   -6.9730   23.7820 C   0  0  0  0  0  3  0  0  0  0  0  0
  -20.9920   -6.2430   24.9690 C   0  0  0  0  0  3  0  0  0  0  0  0
  -21.3390   -4.8790   25.0220 C   0  0  0  0  0  0  0  0  0  0  0  0
  -21.8850   -4.2480   23.8890 C   0  0  0  0  0  3  0  0  0  0  0  0
  -22.0740   -4.9730   22.7050 C   0  0  0  0  0  0  0  0  0  0  0  0
  -22.5800   -4.3600   21.6060 F   0  0  0  0  0  0  0  0  0  0  0  0
  -21.1480   -4.1750   26.1600 F   0  0  0  0  0  0  0  0  0  0  0  0
  -23.0670  -13.6340   21.0810 C   0  0  0  0  0  0  0  0  0  0  0  0
  -22.3550  -12.9580   21.9830 N   0  0  0  0  0  0  0  0  0  0  0  0
  -22.6270  -14.6630   20.5740 O   0  0  0  0  0  0  0  0  0  0  0  0
  -22.7170  -12.1250   22.4250 H   0  0  0  0  0  0  0  0  0  0  0  0
  -21.4360  -13.2910   22.2350 H   0  0  0  0  0  0  0  0  0  0  0  0
  -25.6930  -15.2430   20.1600 N   0  0  0  0  0  0  0  0  0  0  0  0
  -24.9650  -15.9270   20.3270 H   0  0  0  0  0  0  0  0  0  0  0  0
  -26.5470  -15.6620   19.8120 H   0  0  0  0  0  0  0  0  0  0  0  0
  -28.2890  -22.2060   20.0550 C   0  0  0  0  0  2  0  0  0  0  0  0
  -28.3800  -23.6840   20.6940 C   0  0  0  0  0  3  0  0  0  0  0  0
  -28.3330  -24.9770   19.7480 C   0  0  0  0  0  3  0  0  0  0  0  0
  -28.3010  -26.3540   20.3200 O   0  0  0  0  0  0  0  0  0  0  0  0
  -24.6060  -31.8430   23.2510 C   0  0  0  0  0  0  0  0  0  0  0  0
  -27.1740  -27.1950   20.2600 C   0  0  0  0  0  0  0  0  0  0  0  0
  -23.3980  -30.4280   21.6280 C   0  0  0  0  0  3  0  0  0  0  0  0
  -24.8310  -28.8430   20.2290 C   0  0  0  0  0  0  0  0  0  0  0  0
  -25.9380  -30.7160   21.4510 C   0  0  0  0  0  2  0  0  0  0  0  0
  -26.0080  -29.3260   20.8240 C   0  0  0  0  0  0  0  0  0  0  0  0
  -27.1790  -28.5130   20.8270 C   0  0  0  0  0  3  0  0  0  0  0  0
  -25.9720  -26.7700   19.6510 C   0  0  0  0  0  3  0  0  0  0  0  0
  -24.8200  -27.5780   19.6340 C   0  0  0  0  0  3  0  0  0  0  0  0
  -23.6090  -29.7320   20.2600 C   0  0  0  0  0  2  0  0  0  0  0  0
  -24.6670  -31.0160   22.1650 N   0  0  0  0  0  0  0  0  0  0  0  0
  -23.5230  -32.1370   23.7750 O   0  0  0  0  0  0  0  0  0  0  0  0
  -22.7270  -29.4340   22.6040 C   0  0  0  0  0  0  0  0  0  0  0  0
  -21.4010  -29.2600   22.4660 N   0  0  0  0  0  0  0  0  0  0  0  0
  -23.3940  -28.8220   23.4400 O   0  0  0  0  0  0  0  0  0  0  0  0
  -20.9280  -29.8010   21.7590 H   0  0  0  0  0  0  0  0  0  0  0  0
  -18.0100  -28.0830   22.9510 C   0  0  0  0  0  0  0  0  0  0  0  0
  -20.5690  -28.3410   23.2440 C   0  0  0  0  0  3  0  0  0  0  0  0
  -20.6730  -26.9000   22.6930 C   0  0  0  0  0  2  0  0  0  0  0  0
  -19.5800  -26.5620   21.6740 C   0  0  0  0  0  2  0  0  0  0  0  0
  -18.1910  -26.7220   22.3000 C   0  0  0  0  0  2  0  0  0  0  0  0
  -19.1290  -28.8510   23.3770 C   0  0  0  0  0  0  0  0  0  0  0  0
  -18.9050  -30.1250   23.9450 C   0  0  0  0  0  3  0  0  0  0  0  0
  -17.6030  -30.6290   24.0910 C   0  0  0  0  0  3  0  0  0  0  0  0
  -16.4990  -29.8620   23.6770 C   0  0  0  0  0  3  0  0  0  0  0  0
  -16.7060  -28.5890   23.1130 C   0  0  0  0  0  3  0  0  0  0  0  0
  -25.8920  -32.4740   23.8700 C   0  0  0  0  0  3  0  0  0  0  0  0
  -26.3950  -31.7180   25.1610 C   0  0  1  0  0  0  0  0  0  0  0  0
  -25.2930  -31.4950   26.2230 C   0  0  0  0  0  1  0  0  0  0  0  0
  -26.9730  -30.3330   24.7860 C   0  0  0  0  0  1  0  0  0  0  0  0
  -27.5470  -32.5130   25.8190 C   0  0  0  0  0  1  0  0  0  0  0  0
  -25.5930  -33.8810   24.1800 N   0  0  0  0  0  0  0  0  0  0  0  0
  -25.9350  -34.9210   23.4180 C   0  0  0  0  0  0  0  0  0  0  0  0
  -26.6090  -34.8040   22.3850 O   0  0  0  0  0  0  0  0  0  0  0  0
  -24.9980  -34.0460   24.9810 H   0  0  0  0  0  0  0  0  0  0  0  0
  -24.2320  -36.7330   23.0250 C   0  0  0  0  0  1  0  0  0  0  0  0
  -25.4600  -36.3210   23.8550 C   0  0  0  0  0  3  0  0  0  0  0  0
  -27.5850  -37.1930   24.7170 C   0  0  0  0  0  1  0  0  0  0  0  0
  -26.5030  -37.3620   23.7480 N   0  0  0  0  0  0  0  0  0  0  0  0
  -26.1050  -38.2880   23.8780 H   0  0  0  0  0  0  0  0  0  0  0  0
  1 45  1  0
  1  2  1  0
  2  3  2  0
  2  5  1  0
  5  4  1  0
  6  5  1  0
  6 15  1  0
  7 15  1  0
  8 13  1  0
  9 10  1  0
  9  8  1  0
 11 10  1  0
 11 20  1  0
 11 12  1  0
 13  7  1  0
 13 12  1  0
 14  7  2  0
 15 16  1  0
 17 18  2  0
 18 37  1  0
 19 18  1  0
 19 22  1  0
 20 21  1  0
 20 17  1  0
 21 19  2  0
 22 23  1  0
 23 24  2  0
 25 28  1  0
 25 24  1  0
 26 25  2  0
 27 26  1  0
 27 22  2  0
 28 29  1  0
 29 34  2  0
 29 30  1  0
 30 31  2  0
 31 32  1  0
 32 36  1  0
 33 32  2  0
 34 33  1  0
 35 34  1  0
 37 38  1  0
 38 41  1  0
 38 40  1  0
 39 37  2  0
 42 43  1  0
 42 17  1  0
 44 42  1  0
 45 46  1  0
 47 48  1  0
 47 46  2  0
 49 60  2  0
 50 48  1  0
 50 55  1  0
 51 59  1  0
 51 61  1  0
 52 58  1  0
 52 54  1  0
 53 59  1  0
 54 55  2  0
 54 53  1  0
 56 50  2  0
 57 56  1  0
 57 52  2  0
 58 51  1  0
 59 49  1  0
 61 63  2  0
 62 61  1  0
 64 62  1  0
 65 74  2  0
 65 70  1  0
 66 62  1  0
 66 70  1  0
 67 66  1  0
 68 69  1  0
 68 67  1  0
 69 65  1  0
 70 71  2  0
 71 72  1  0
 73 72  2  0
 74 73  1  0
 75 49  1  0
 75 80  1  0
 75 76  1  0
 76 79  1  1
 76 77  1  0
 78 76  1  0
 80 83  1  0
 81 85  1  0
 81 80  1  0
 82 81  2  0
 85 84  1  0
 87 85  1  0
 87 88  1  0
 87 86  1  0
M  ISO  4   7 100  15 100  47 101  48 101
M  END
>  <TORSDO>  (83) 
F 22

>  <SCORE>  (83) 
-12.737

>  <name>  (83) 
83

>  <ligand_id>  (83) 
83

>  <original_smiles>  (83) 
[H]c1c([H])c([H])c2c(c1[H])C([H])([H])C([H])([H])C([H])([H])C2([H])N([H])C(=O)C1([H])N(C(=O)C([H])(N([H])C(=O)C([H])(N([H])C([H])([H])[H])C([H])([H])[H])C(C([H])([H])[H])(C([H])([H])[H])C([H])([H])[H])C([H])([H])c2c([H])c(OC([H])([H])C([H])([H])C([H])([H])C([H])([H])C(=O)C([H])(C([H])([H])[H])C([H])([H])N([H])C(=O)N3C([H])([H])C([H])([H])C([H])([H])C([H])(n4nc(-c5c([H])c([H])c(Oc6c([H])c([H])c(F)c([H])c6F)c([H])c5[H])c(C(=O)N([H])[H])c4N([H])[H])C3([H])[H])c([H])c([H])c2C1([H])[H]

>  <smiles>  (83) 
[H]c1c([H])c([H])c2c(c1[H])C([H])([H])C([H])([H])C([H])([H])C2([H])N([H])C(=O)C1([H])N(C(=O)C([H])(N([H])C(=O)C([H])(N([H])C([H])([H])[H])C([H])([H])[H])C(C([H])([H])[H])(C([H])([H])[H])C([H])([H])[H])C([H])([H])c2c([H])c(OC([H])([H])C([H])([H])C([H])([H])C([H])([H])C(=O)C([H])(C([H])([H])[H])C([H])([H])N([H])C(=O)N3C([H])([H])C([H])([H])C([H])([H])C([H])(n4nc(-c5c([H])c([H])c(Oc6c([H])c([H])c(F)c([H])c6F)c([H])c5[H])c(C(=O)N([H])[H])c4N([H])[H])C3([H])[H])c([H])c([H])c2C1([H])[H]

$$$$
84:0:0
     RDKit          3D

 96104  0  0  1  0  0  0  0  0999 V2000
  -29.2690  -18.9220   21.0000 C   0  0  0  0  0  2  0  0  0  0  0  0
  -31.1930  -18.7470   22.7310 C   0  0  0  0  0  2  0  0  0  0  0  0
  -28.8720  -20.2530   21.6840 C   0  0  0  0  0  2  0  0  0  0  0  0
  -31.0660  -21.2650   22.3100 C   0  0  0  0  0  2  0  0  0  0  0  0
  -30.2310  -17.9890   21.7880 C   0  0  0  0  0  3  0  0  0  0  0  0
  -31.9040  -19.9790   22.1090 C   0  0  0  0  0  3  0  0  0  0  0  0
  -29.8560  -21.3500   21.4430 N   0  0  2  0  0  4  0  0  0  0  0  0
  -30.1870  -21.2480   20.4960 H   0  0  0  0  0  0  0  0  0  0  0  0
  -31.1920  -14.8380   19.9420 C   0  0  0  0  0  0  0  0  0  0  0  0
  -30.7220  -12.7510   18.7190 C   0  0  0  0  0  2  0  0  0  0  0  0
  -29.7020  -13.0390   17.6000 C   0  0  0  0  0  2  0  0  0  0  0  0
  -28.2650  -12.9110   18.1350 C   0  0  0  0  0  2  0  0  0  0  0  0
  -28.0450  -13.7050   19.4490 C   0  0  0  0  0  3  0  0  0  0  0  0
  -29.1700  -13.4150   20.4680 C   0  0  0  0  0  2  0  0  0  0  0  0
  -30.4620  -13.6960   19.8200 N   0  0  0  0  0  0  0  0  0  0  0  0
  -32.2470  -14.9980   19.3210 O   0  0  0  0  0  0  0  0  0  0  0  0
  -31.0300  -17.0810   20.8280 C   0  0  0  0  0  0  0  0  0  0  0  0
  -30.6340  -15.7970   20.7070 N   0  0  0  0  0  0  0  0  0  0  0  0
  -31.9800  -17.5790   20.2140 O   0  0  0  0  0  0  0  0  0  0  0  0
  -29.8070  -15.5280   21.2130 H   0  0  0  0  0  0  0  0  0  0  0  0
  -25.7170  -14.3310   20.3520 C   0  0  0  0  0  0  0  0  0  0  0  0
  -24.6620  -13.5660   20.7700 C   0  0  0  0  0  0  0  0  0  0  0  0
  -25.0920  -12.2070   20.6580 C   0  0  0  0  0  0  0  0  0  0  0  0
  -26.7240  -13.4410   20.0150 N   0  0  0  0  0  0  0  0  0  0  0  0
  -26.3550  -12.1560   20.2560 N   0  0  0  0  0  0  0  0  0  0  0  0
  -24.3570  -10.9520   20.8570 C   0  0  0  0  0  0  0  0  0  0  0  0
  -24.7810   -9.9880   21.7990 C   0  0  0  0  0  3  0  0  0  0  0  0
  -24.0480   -8.7970   21.9840 C   0  0  0  0  0  3  0  0  0  0  0  0
  -22.8760   -8.5600   21.2260 C   0  0  0  0  0  0  0  0  0  0  0  0
  -22.4710   -9.5120   20.2750 C   0  0  0  0  0  3  0  0  0  0  0  0
  -23.2030  -10.6960   20.0890 C   0  0  0  0  0  3  0  0  0  0  0  0
  -22.1140   -7.4200   21.3220 O   0  0  0  0  0  0  0  0  0  0  0  0
  -21.9690   -6.7470   22.5090 C   0  0  0  0  0  0  0  0  0  0  0  0
  -21.4730   -7.3790   23.6690 C   0  0  0  0  0  3  0  0  0  0  0  0
  -21.2770   -6.6340   24.8480 C   0  0  0  0  0  3  0  0  0  0  0  0
  -21.5650   -5.2560   24.8690 C   0  0  0  0  0  0  0  0  0  0  0  0
  -22.0530   -4.6220   23.7120 C   0  0  0  0  0  3  0  0  0  0  0  0
  -22.2530   -5.3660   22.5350 C   0  0  0  0  0  0  0  0  0  0  0  0
  -22.7050   -4.7460   21.4180 F   0  0  0  0  0  0  0  0  0  0  0  0
  -21.3670   -4.5380   25.9980 F   0  0  0  0  0  0  0  0  0  0  0  0
  -23.2990  -14.0570   21.1610 C   0  0  0  0  0  0  0  0  0  0  0  0
  -22.6400  -13.3680   22.0850 N   0  0  0  0  0  0  0  0  0  0  0  0
  -22.8300  -15.0870   20.6810 O   0  0  0  0  0  0  0  0  0  0  0  0
  -23.0320  -12.5330   22.4930 H   0  0  0  0  0  0  0  0  0  0  0  0
  -21.7290  -13.6800   22.3890 H   0  0  0  0  0  0  0  0  0  0  0  0
  -25.8960  -15.7040   20.2090 N   0  0  0  0  0  0  0  0  0  0  0  0
  -25.1440  -16.3630   20.3830 H   0  0  0  0  0  0  0  0  0  0  0  0
  -26.7200  -16.1380   19.8150 H   0  0  0  0  0  0  0  0  0  0  0  0
  -33.3280  -20.1460   22.6880 C   0  0  0  0  0  2  0  0  0  0  0  0
  -35.8320  -19.7890   22.3170 C   0  0  0  0  0  1  0  0  0  0  0  0
  -34.4140  -19.3750   21.9100 C   0  0  0  0  0  2  0  0  0  0  0  0
  -29.2520  -22.7170   21.5020 C   0  0  0  0  0  2  0  0  0  0  0  0
  -28.6460  -23.2030   20.1620 C   0  0  0  0  0  2  0  0  0  0  0  0
  -28.4320  -24.7330   20.1060 C   0  0  0  0  0  2  0  0  0  0  0  0
  -27.7790  -25.1970   18.7910 C   0  0  0  0  0  2  0  0  0  0  0  0
  -27.7660  -26.6300   18.7190 O   0  0  0  0  0  0  0  0  0  0  0  0
  -24.6720  -31.4380   22.9420 C   0  0  0  0  0  0  0  0  0  0  0  0
  -26.6100  -27.3400   18.9780 C   0  0  0  0  0  0  0  0  0  0  0  0
  -23.1660  -30.2860   21.3550 C   0  0  0  0  0  3  0  0  0  0  0  0
  -24.3140  -28.9010   19.5470 C   0  0  0  0  0  0  0  0  0  0  0  0
  -25.6500  -30.5910   20.8150 C   0  0  0  0  0  2  0  0  0  0  0  0
  -25.5700  -29.3090   20.0100 C   0  0  0  0  0  0  0  0  0  0  0  0
  -26.7170  -28.5350   19.7260 C   0  0  0  0  0  3  0  0  0  0  0  0
  -25.3330  -26.9560   18.5020 C   0  0  0  0  0  3  0  0  0  0  0  0
  -24.1900  -27.7230   18.7950 C   0  0  0  0  0  3  0  0  0  0  0  0
  -23.1330  -29.7820   19.8870 C   0  0  0  0  0  2  0  0  0  0  0  0
  -24.5230  -30.7790   21.7600 N   0  0  0  0  0  0  0  0  0  0  0  0
  -23.6990  -31.6700   23.6730 O   0  0  0  0  0  0  0  0  0  0  0  0
  -22.6220  -29.1690   22.2730 C   0  0  0  0  0  0  0  0  0  0  0  0
  -21.3050  -28.9200   22.1950 N   0  0  0  0  0  0  0  0  0  0  0  0
  -23.3790  -28.5310   23.0090 O   0  0  0  0  0  0  0  0  0  0  0  0
  -20.7490  -29.4950   21.5780 H   0  0  0  0  0  0  0  0  0  0  0  0
  -18.0750  -27.3530   22.5930 C   0  0  0  0  0  0  0  0  0  0  0  0
  -20.5800  -27.8910   22.9390 C   0  0  0  0  0  3  0  0  0  0  0  0
  -20.8550  -26.4840   22.3580 C   0  0  0  0  0  2  0  0  0  0  0  0
  -19.8250  -26.0500   21.3110 C   0  0  0  0  0  2  0  0  0  0  0  0
  -18.4180  -26.0360   21.9160 C   0  0  0  0  0  2  0  0  0  0  0  0
  -19.0900  -28.2310   23.0580 C   0  0  0  0  0  0  0  0  0  0  0  0
  -18.7170  -29.4590   23.6460 C   0  0  0  0  0  3  0  0  0  0  0  0
  -17.3600  -29.8140   23.7750 C   0  0  0  0  0  3  0  0  0  0  0  0
  -16.3600  -28.9330   23.3290 C   0  0  0  0  0  3  0  0  0  0  0  0
  -16.7170  -27.7060   22.7440 C   0  0  0  0  0  3  0  0  0  0  0  0
  -26.0650  -31.9480   23.4250 C   0  0  0  0  0  3  0  0  0  0  0  0
  -25.8710  -33.2810   24.0100 N   0  0  0  0  0  0  0  0  0  0  0  0
  -26.1590  -34.4320   23.3880 C   0  0  0  0  0  0  0  0  0  0  0  0
  -26.6910  -34.4790   22.2760 O   0  0  0  0  0  0  0  0  0  0  0  0
  -25.3860  -33.3200   24.8940 H   0  0  0  0  0  0  0  0  0  0  0  0
  -24.4880  -36.3050   23.5420 C   0  0  0  0  0  1  0  0  0  0  0  0
  -25.7970  -35.7410   24.1170 C   0  0  0  0  0  3  0  0  0  0  0  0
  -28.0590  -36.4130   24.7960 C   0  0  0  0  0  1  0  0  0  0  0  0
  -26.8580  -36.7690   24.0440 N   0  0  0  0  0  0  0  0  0  0  0  0
  -26.5200  -37.6610   24.3930 H   0  0  0  0  0  0  0  0  0  0  0  0
  -26.7580  -30.9800   24.4610 C   0  0  1  0  0  0  0  0  0  0  0  0
  -25.8520  -30.5960   25.6540 C   0  0  0  0  0  1  0  0  0  0  0  0
  -27.2090  -29.6720   23.7710 C   0  0  0  0  0  1  0  0  0  0  0  0
  -28.0350  -31.6450   25.0290 C   0  0  0  0  0  1  0  0  0  0  0  0
  1  3  1  0
  1  5  1  0
  5 17  1  0
  5  2  1  0
  6  4  1  0
  6 49  1  0
  6  2  1  0
  7 52  1  0
  7  3  1  0
  7  4  1  0
  7  8  1  6
  9 18  1  0
 10 15  1  0
 11 12  1  0
 11 10  1  0
 13 12  1  0
 13 24  1  0
 13 14  1  0
 15  9  1  0
 15 14  1  0
 16  9  2  0
 18 17  1  0
 18 20  1  0
 19 17  2  0
 21 22  2  0
 22 41  1  0
 23 22  1  0
 23 26  1  0
 24 25  1  0
 24 21  1  0
 25 23  2  0
 26 27  1  0
 27 28  2  0
 29 32  1  0
 29 28  1  0
 30 29  2  0
 31 30  1  0
 31 26  2  0
 32 33  1  0
 33 38  2  0
 33 34  1  0
 34 35  2  0
 35 36  1  0
 36 40  1  0
 37 36  2  0
 38 37  1  0
 39 38  1  0
 41 42  1  0
 42 45  1  0
 42 44  1  0
 43 41  2  0
 46 21  1  0
 46 47  1  0
 48 46  1  0
 51 50  1  0
 51 49  1  0
 53 52  1  0
 54 53  1  0
 55 54  1  0
 56 55  1  0
 56 58  1  0
 57 68  2  0
 58 63  1  0
 59 67  1  0
 59 69  1  0
 60 66  1  0
 60 62  1  0
 61 67  1  0
 62 61  1  0
 63 62  2  0
 64 65  1  0
 64 58  2  0
 65 60  2  0
 66 59  1  0
 67 57  1  0
 69 71  2  0
 70 69  1  0
 72 70  1  0
 73 82  2  0
 73 78  1  0
 74 70  1  0
 74 78  1  0
 75 74  1  0
 76 77  1  0
 76 75  1  0
 77 73  1  0
 78 79  2  0
 79 80  1  0
 81 80  2  0
 82 81  1  0
 83 57  1  0
 83 84  1  0
 83 93  1  0
 84 87  1  0
 85 84  1  0
 85 89  1  0
 86 85  2  0
 89 88  1  0
 91 89  1  0
 91 92  1  0
 91 90  1  0
 93 96  1  1
 93 94  1  0
 95 93  1  0
M  ISO  4   9 100  18 100  55 101  56 101
M  END
>  <TORSDO>  (84) 
F 22

>  <SCORE>  (84) 
-10.215

>  <name>  (84) 
84

>  <ligand_id>  (84) 
84

>  <original_smiles>  (84) 
[H]c1c([H])c([H])c2c(c1[H])C([H])([H])C([H])([H])C([H])([H])C2([H])N([H])C(=O)C1([H])N(C(=O)C([H])(N([H])C(=O)C([H])(N([H])C([H])([H])[H])C([H])([H])[H])C(C([H])([H])[H])(C([H])([H])[H])C([H])([H])[H])C([H])([H])c2c([H])c(OC([H])([H])C([H])([H])C([H])([H])C([H])([H])[N+]3([H])C([H])([H])C([H])([H])C([H])(C(=O)N([H])C(=O)N4C([H])([H])C([H])([H])C([H])([H])C([H])(n5nc(-c6c([H])c([H])c(Oc7c([H])c([H])c(F)c([H])c7F)c([H])c6[H])c(C(=O)N([H])[H])c5N([H])[H])C4([H])[H])C([H])([H])C([H])(C([H])([H])C([H])([H])C([H])([H])[H])C3([H])[H])c([H])c([H])c2C1([H])[H]

>  <smiles>  (84) 
[H]c1c([H])c([H])c2c(c1[H])C([H])([H])C([H])([H])C([H])([H])C2([H])N([H])C(=O)C1([H])N(C(=O)C([H])(N([H])C(=O)C([H])(N([H])C([H])([H])[H])C([H])([H])[H])C(C([H])([H])[H])(C([H])([H])[H])C([H])([H])[H])C([H])([H])c2c([H])c(OC([H])([H])C([H])([H])C([H])([H])C([H])([H])[N+]3([H])C([H])([H])C([H])([H])C([H])(C(=O)N([H])C(=O)N4C([H])([H])C([H])([H])C([H])([H])C([H])(n5nc(-c6c([H])c([H])c(Oc7c([H])c([H])c(F)c([H])c7F)c([H])c6[H])c(C(=O)N([H])[H])c5N([H])[H])C4([H])[H])C([H])([H])C([H])(C([H])([H])C([H])([H])C([H])([H])[H])C3([H])[H])c([H])c([H])c2C1([H])[H]

$$$$
85:0:0
     RDKit          3D

 95103  0  0  1  0  0  0  0  0999 V2000
  -27.8350  -20.8590   19.5570 C   0  0  0  0  0  0  0  0  0  0  0  0
  -27.9000  -23.3680   19.5770 C   0  0  0  0  0  2  0  0  0  0  0  0
  -29.9240  -22.0920   20.2660 C   0  0  0  0  0  2  0  0  0  0  0  0
  -27.3020  -22.1280   18.8770 C   0  0  0  0  0  3  0  0  0  0  0  0
  -29.3680  -20.7480   19.6400 C   0  0  0  0  0  3  0  0  0  0  0  0
  -29.3890  -23.3660   19.6510 N   0  0  2  0  0  4  0  0  0  0  0  0
  -27.0750  -19.9960   20.0090 O   0  0  0  0  0  0  0  0  0  0  0  0
  -29.7400  -23.3750   18.7020 H   0  0  0  0  0  0  0  0  0  0  0  0
  -25.1650  -23.3510   18.0600 C   0  0  0  0  0  1  0  0  0  0  0  0
  -25.7530  -22.1590   18.8300 C   0  0  0  0  0  2  0  0  0  0  0  0
  -30.5460  -19.5500   21.6330 C   0  0  0  0  0  1  0  0  0  0  0  0
  -29.8570  -19.3640   20.2660 C   0  0  0  0  0  3  0  0  0  0  0  0
  -30.6610  -18.4590   19.2740 C   0  0  0  0  0  2  0  0  0  0  0  0
  -31.5780  -17.3120   19.8380 C   0  0  0  0  0  2  0  0  0  0  0  0
  -31.6880  -14.7940   19.6960 C   0  0  0  0  0  0  0  0  0  0  0  0
  -31.3740  -12.4420   19.0230 C   0  0  0  0  0  2  0  0  0  0  0  0
  -30.4030  -12.3850   17.8260 C   0  0  0  0  0  2  0  0  0  0  0  0
  -28.9450  -12.3180   18.3180 C   0  0  0  0  0  2  0  0  0  0  0  0
  -28.6250  -13.3900   19.3960 C   0  0  0  0  0  3  0  0  0  0  0  0
  -29.7130  -13.4290   20.4920 C   0  0  0  0  0  2  0  0  0  0  0  0
  -31.0090  -13.6200   19.8270 N   0  0  0  0  0  0  0  0  0  0  0  0
  -32.8280  -14.8360   19.2270 O   0  0  0  0  0  0  0  0  0  0  0  0
  -31.0070  -15.9400   19.9510 N   0  0  0  0  0  0  0  0  0  0  0  0
  -30.0610  -15.8510   20.2900 H   0  0  0  0  0  0  0  0  0  0  0  0
  -26.3400  -14.1520   20.2980 C   0  0  0  0  0  0  0  0  0  0  0  0
  -25.2400  -13.4520   20.7100 C   0  0  0  0  0  0  0  0  0  0  0  0
  -25.5850  -12.0690   20.5980 C   0  0  0  0  0  0  0  0  0  0  0  0
  -27.2920  -13.2020   19.9600 N   0  0  0  0  0  0  0  0  0  0  0  0
  -26.8440  -11.9410   20.1990 N   0  0  0  0  0  0  0  0  0  0  0  0
  -24.7710  -10.8630   20.7890 C   0  0  0  0  0  0  0  0  0  0  0  0
  -25.1040   -9.8930   21.7610 C   0  0  0  0  0  3  0  0  0  0  0  0
  -24.2950   -8.7500   21.9390 C   0  0  0  0  0  3  0  0  0  0  0  0
  -23.1380   -8.5690   21.1440 C   0  0  0  0  0  0  0  0  0  0  0  0
  -22.8230   -9.5260   20.1630 C   0  0  0  0  0  3  0  0  0  0  0  0
  -23.6320  -10.6600   19.9830 C   0  0  0  0  0  3  0  0  0  0  0  0
  -22.3060   -7.4770   21.2300 O   0  0  0  0  0  0  0  0  0  0  0  0
  -22.0550   -6.8560   22.4270 C   0  0  0  0  0  0  0  0  0  0  0  0
  -21.4460   -7.5340   23.5060 C   0  0  0  0  0  3  0  0  0  0  0  0
  -21.1410   -6.8390   24.6930 C   0  0  0  0  0  3  0  0  0  0  0  0
  -21.4380   -5.4680   24.8010 C   0  0  0  0  0  0  0  0  0  0  0  0
  -22.0400   -4.7900   23.7280 C   0  0  0  0  0  3  0  0  0  0  0  0
  -22.3460   -5.4820   22.5430 C   0  0  0  0  0  0  0  0  0  0  0  0
  -22.9060   -4.8180   21.5030 F   0  0  0  0  0  0  0  0  0  0  0  0
  -21.1390   -4.7970   25.9390 F   0  0  0  0  0  0  0  0  0  0  0  0
  -23.9070  -14.0270   21.0960 C   0  0  0  0  0  0  0  0  0  0  0  0
  -23.1920  -13.3680   22.0010 N   0  0  0  0  0  0  0  0  0  0  0  0
  -23.5150  -15.0960   20.6290 O   0  0  0  0  0  0  0  0  0  0  0  0
  -23.5240  -12.5020   22.3980 H   0  0  0  0  0  0  0  0  0  0  0  0
  -22.3010  -13.7380   22.2990 H   0  0  0  0  0  0  0  0  0  0  0  0
  -26.6060  -15.5110   20.1610 N   0  0  0  0  0  0  0  0  0  0  0  0
  -25.9030  -16.2170   20.3520 H   0  0  0  0  0  0  0  0  0  0  0  0
  -27.4610  -15.8990   19.7830 H   0  0  0  0  0  0  0  0  0  0  0  0
  -29.8820  -24.6450   20.2900 C   0  0  0  0  0  2  0  0  0  0  0  0
  -29.8100  -25.9180   19.3770 C   0  0  0  0  0  2  0  0  0  0  0  0
  -29.4980  -27.1650   20.0650 O   0  0  0  0  0  0  0  0  0  0  0  0
  -24.9180  -31.5370   23.3900 C   0  0  0  0  0  0  0  0  0  0  0  0
  -28.2230  -27.7240   20.0530 C   0  0  0  0  0  0  0  0  0  0  0  0
  -23.9590  -30.1360   21.5940 C   0  0  0  0  0  3  0  0  0  0  0  0
  -25.6450  -28.9340   20.1030 C   0  0  0  0  0  0  0  0  0  0  0  0
  -26.4250  -30.8310   21.5270 C   0  0  0  0  0  2  0  0  0  0  0  0
  -26.7110  -29.5420   20.7750 C   0  0  0  0  0  0  0  0  0  0  0  0
  -27.9970  -28.9460   20.7450 C   0  0  0  0  0  3  0  0  0  0  0  0
  -27.1210  -27.1390   19.3810 C   0  0  0  0  0  3  0  0  0  0  0  0
  -25.8480  -27.7360   19.4030 C   0  0  0  0  0  3  0  0  0  0  0  0
  -24.2960  -29.6160   20.1720 C   0  0  0  0  0  2  0  0  0  0  0  0
  -25.1160  -30.8480   22.2300 N   0  0  0  0  0  0  0  0  0  0  0  0
  -23.7940  -31.6160   23.9070 O   0  0  0  0  0  0  0  0  0  0  0  0
  -23.4280  -28.9560   22.4400 C   0  0  0  0  0  0  0  0  0  0  0  0
  -22.1770  -28.5460   22.1740 N   0  0  0  0  0  0  0  0  0  0  0  0
  -24.1420  -28.4150   23.2890 O   0  0  0  0  0  0  0  0  0  0  0  0
  -21.6560  -29.0510   21.4730 H   0  0  0  0  0  0  0  0  0  0  0  0
  -19.0860  -26.6680   22.2270 C   0  0  0  0  0  0  0  0  0  0  0  0
  -21.4850  -27.4270   22.8140 C   0  0  0  0  0  3  0  0  0  0  0  0
  -21.9490  -26.0750   22.2240 C   0  0  0  0  0  2  0  0  0  0  0  0
  -21.0590  -25.5710   21.0840 C   0  0  0  0  0  2  0  0  0  0  0  0
  -19.6140  -25.4080   21.5630 C   0  0  0  0  0  2  0  0  0  0  0  0
  -19.9640  -27.6230   22.8030 C   0  0  0  0  0  0  0  0  0  0  0  0
  -19.4230  -28.7890   23.3860 C   0  0  0  0  0  3  0  0  0  0  0  0
  -18.0330  -29.0090   23.3980 C   0  0  0  0  0  3  0  0  0  0  0  0
  -17.1670  -28.0570   22.8340 C   0  0  0  0  0  3  0  0  0  0  0  0
  -17.6920  -26.8860   22.2560 C   0  0  0  0  0  3  0  0  0  0  0  0
  -26.0860  -32.2800   24.1090 C   0  0  0  0  0  3  0  0  0  0  0  0
  -25.6470  -33.6590   24.3610 N   0  0  0  0  0  0  0  0  0  0  0  0
  -25.9830  -34.7140   23.6070 C   0  0  0  0  0  0  0  0  0  0  0  0
  -26.7650  -34.6340   22.6560 O   0  0  0  0  0  0  0  0  0  0  0  0
  -24.9620  -33.7880   25.0910 H   0  0  0  0  0  0  0  0  0  0  0  0
  -24.1770  -36.3620   23.0190 C   0  0  0  0  0  1  0  0  0  0  0  0
  -25.3530  -36.0730   23.9650 C   0  0  0  0  0  3  0  0  0  0  0  0
  -27.3130  -37.1430   24.9890 C   0  0  0  0  0  1  0  0  0  0  0  0
  -26.3140  -37.1970   23.9240 N   0  0  0  0  0  0  0  0  0  0  0  0
  -25.8310  -38.0890   23.9870 H   0  0  0  0  0  0  0  0  0  0  0  0
  -26.5320  -31.5830   25.4530 C   0  0  1  0  0  0  0  0  0  0  0  0
  -25.3600  -31.2950   26.4200 C   0  0  0  0  0  1  0  0  0  0  0  0
  -27.2440  -30.2420   25.1620 C   0  0  0  0  0  1  0  0  0  0  0  0
  -27.5560  -32.4760   26.1920 C   0  0  0  0  0  1  0  0  0  0  0  0
  1  5  1  0
  1  7  2  0
  2  6  1  0
  4 10  1  0
  4  1  1  0
  4  2  1  0
  5  3  1  0
  5 12  1  0
  6  3  1  0
  6 53  1  0
  6  8  1  6
  9 10  1  0
 12 11  1  0
 13 14  1  0
 13 12  1  0
 14 23  1  0
 15 21  1  0
 15 23  1  0
 16 21  1  0
 17 18  1  0
 17 16  1  0
 19 18  1  0
 19 28  1  0
 19 20  1  0
 21 20  1  0
 22 15  2  0
 23 24  1  0
 25 26  2  0
 26 45  1  0
 27 26  1  0
 27 30  1  0
 28 29  1  0
 28 25  1  0
 29 27  2  0
 30 31  1  0
 31 32  2  0
 33 36  1  0
 33 32  1  0
 34 33  2  0
 35 34  1  0
 35 30  2  0
 36 37  1  0
 37 42  2  0
 37 38  1  0
 38 39  2  0
 39 40  1  0
 40 44  1  0
 41 40  2  0
 42 41  1  0
 43 42  1  0
 45 46  1  0
 46 49  1  0
 46 48  1  0
 47 45  2  0
 50 25  1  0
 50 51  1  0
 52 50  1  0
 54 55  1  0
 54 53  1  0
 56 67  2  0
 57 55  1  0
 57 62  1  0
 58 66  1  0
 58 68  1  0
 59 65  1  0
 59 61  1  0
 60 66  1  0
 61 60  1  0
 62 61  2  0
 63 64  1  0
 63 57  2  0
 64 59  2  0
 65 58  1  0
 66 56  1  0
 68 70  2  0
 69 68  1  0
 71 69  1  0
 72 81  2  0
 72 77  1  0
 73 69  1  0
 74 73  1  0
 75 76  1  0
 75 74  1  0
 76 72  1  0
 77 73  1  0
 77 78  2  0
 78 79  1  0
 80 79  2  0
 81 80  1  0
 82 56  1  0
 82 83  1  0
 82 92  1  0
 83 86  1  0
 84 88  1  0
 84 83  1  0
 85 84  2  0
 88 87  1  0
 90 88  1  0
 90 91  1  0
 90 89  1  0
 92 95  1  1
 92 93  1  0
 94 92  1  0
M  ISO  4  15 100  23 100  54 101  55 101
M  END
>  <TORSDO>  (85) 
F 22

>  <SCORE>  (85) 
-10.352

>  <name>  (85) 
85

>  <ligand_id>  (85) 
85

>  <original_smiles>  (85) 
[H]c1c([H])c([H])c2c(c1[H])C([H])([H])C([H])([H])C([H])([H])C2([H])N([H])C(=O)C1([H])N(C(=O)C([H])(N([H])C(=O)C([H])(N([H])C([H])([H])[H])C([H])([H])[H])C(C([H])([H])[H])(C([H])([H])[H])C([H])([H])[H])C([H])([H])c2c([H])c(OC([H])([H])C([H])([H])[N+]3([H])C([H])([H])C([H])(C([H])([H])C([H])([H])[H])C(=O)C([H])(C([H])(C([H])([H])[H])C([H])([H])C([H])([H])N([H])C(=O)N4C([H])([H])C([H])([H])C([H])([H])C([H])(n5nc(-c6c([H])c([H])c(Oc7c([H])c([H])c(F)c([H])c7F)c([H])c6[H])c(C(=O)N([H])[H])c5N([H])[H])C4([H])[H])C3([H])[H])c([H])c([H])c2C1([H])[H]

>  <smiles>  (85) 
[H]c1c([H])c([H])c2c(c1[H])C([H])([H])C([H])([H])C([H])([H])C2([H])N([H])C(=O)C1([H])N(C(=O)C([H])(N([H])C(=O)C([H])(N([H])C([H])([H])[H])C([H])([H])[H])C(C([H])([H])[H])(C([H])([H])[H])C([H])([H])[H])C([H])([H])c2c([H])c(OC([H])([H])C([H])([H])[N+]3([H])C([H])([H])C([H])(C([H])([H])C([H])([H])[H])C(=O)C([H])(C([H])(C([H])([H])[H])C([H])([H])C([H])([H])N([H])C(=O)N4C([H])([H])C([H])([H])C([H])([H])C([H])(n5nc(-c6c([H])c([H])c(Oc7c([H])c([H])c(F)c([H])c7F)c([H])c6[H])c(C(=O)N([H])[H])c5N([H])[H])C4([H])[H])C3([H])[H])c([H])c([H])c2C1([H])[H]

$$$$
86:0:0
     RDKit          3D

 96103  0  0  1  0  0  0  0  0999 V2000
  -29.2780  -21.2430   20.4120 C   0  0  0  0  0  2  0  0  0  0  0  0
  -29.5610  -22.5890   19.5740 C   0  0  0  0  0  3  0  0  0  0  0  0
  -29.8040  -23.2560   17.0800 C   0  0  0  0  0  1  0  0  0  0  0  0
  -28.9720  -22.5140   18.1400 C   0  0  0  0  0  2  0  0  0  0  0  0
  -29.3890  -24.0690   20.2180 C   0  0  0  0  0  3  0  0  0  0  0  0
  -29.3000  -23.9060   21.7230 N   0  0  0  0  0  2  0  0  0  0  0  0
  -30.3010  -24.2750   22.3020 O   0  0  0  0  0  1  0  0  0  0  0  0
  -28.2150  -25.0700   19.8110 C   0  0  0  0  0  2  0  0  0  0  0  0
  -28.3270  -26.4990   20.1910 O   0  0  0  0  0  0  0  0  0  0  0  0
  -24.5890  -31.8730   23.2180 C   0  0  0  0  0  0  0  0  0  0  0  0
  -27.1880  -27.3210   20.1490 C   0  0  0  0  0  0  0  0  0  0  0  0
  -23.3740  -30.4750   21.5840 C   0  0  0  0  0  3  0  0  0  0  0  0
  -24.8140  -28.9200   20.1580 C   0  0  0  0  0  0  0  0  0  0  0  0
  -25.9110  -30.7940   21.3840 C   0  0  0  0  0  2  0  0  0  0  0  0
  -25.9870  -29.4150   20.7430 C   0  0  0  0  0  0  0  0  0  0  0  0
  -27.1750  -28.6250   20.7310 C   0  0  0  0  0  3  0  0  0  0  0  0
  -25.9840  -26.8720   19.5530 C   0  0  0  0  0  3  0  0  0  0  0  0
  -24.8140  -27.6510   19.5620 C   0  0  0  0  0  3  0  0  0  0  0  0
  -23.5800  -29.7930   20.2050 C   0  0  0  0  0  2  0  0  0  0  0  0
  -24.6430  -31.0640   22.1180 N   0  0  0  0  0  0  0  0  0  0  0  0
  -23.5080  -32.1530   23.7610 O   0  0  0  0  0  0  0  0  0  0  0  0
  -22.7140  -29.4620   22.5510 C   0  0  0  0  0  0  0  0  0  0  0  0
  -21.3850  -29.2920   22.4340 N   0  0  0  0  0  0  0  0  0  0  0  0
  -23.3950  -28.8330   23.3640 O   0  0  0  0  0  0  0  0  0  0  0  0
  -20.8960  -29.8520   21.7490 H   0  0  0  0  0  0  0  0  0  0  0  0
  -18.0060  -28.1100   22.9500 C   0  0  0  0  0  0  0  0  0  0  0  0
  -20.5660  -28.3590   23.2080 C   0  0  0  0  0  3  0  0  0  0  0  0
  -20.6610  -26.9270   22.6330 C   0  0  0  0  0  2  0  0  0  0  0  0
  -19.5530  -26.6090   21.6230 C   0  0  0  0  0  2  0  0  0  0  0  0
  -18.1740  -26.7620   22.2720 C   0  0  0  0  0  2  0  0  0  0  0  0
  -19.1300  -28.8680   23.3740 C   0  0  0  0  0  0  0  0  0  0  0  0
  -18.9190  -30.1320   23.9670 C   0  0  0  0  0  3  0  0  0  0  0  0
  -17.6160  -30.6370   24.1390 C   0  0  0  0  0  3  0  0  0  0  0  0
  -16.5070  -29.8760   23.7330 C   0  0  0  0  0  3  0  0  0  0  0  0
  -16.7020  -28.6150   23.1420 C   0  0  0  0  0  3  0  0  0  0  0  0
  -25.8760  -32.5010   23.8350 C   0  0  0  0  0  3  0  0  0  0  0  0
  -26.3990  -31.7270   25.1090 C   0  0  1  0  0  0  0  0  0  0  0  0
  -25.3130  -31.4970   26.1850 C   0  0  0  0  0  1  0  0  0  0  0  0
  -26.9720  -30.3460   24.7120 C   0  0  0  0  0  1  0  0  0  0  0  0
  -27.5560  -32.5170   25.7640 C   0  0  0  0  0  1  0  0  0  0  0  0
  -25.5720  -33.8990   24.1710 N   0  0  0  0  0  0  0  0  0  0  0  0
  -25.9030  -34.9550   23.4170 C   0  0  0  0  0  0  0  0  0  0  0  0
  -26.5690  -34.8550   22.3820 O   0  0  0  0  0  0  0  0  0  0  0  0
  -24.9830  -34.0490   24.9760 H   0  0  0  0  0  0  0  0  0  0  0  0
  -24.1790  -36.7590   23.0770 C   0  0  0  0  0  1  0  0  0  0  0  0
  -25.4210  -36.3430   23.8840 C   0  0  0  0  0  3  0  0  0  0  0  0
  -27.5600  -37.2200   24.7120 C   0  0  0  0  0  1  0  0  0  0  0  0
  -26.4550  -37.3930   23.7730 N   0  0  0  0  0  0  0  0  0  0  0  0
  -26.0520  -38.3140   23.9230 H   0  0  0  0  0  0  0  0  0  0  0  0
  -29.9530  -19.8960   19.8760 C   0  0  0  0  0  3  0  0  0  0  0  0
  -29.6740  -18.4610   20.5370 C   0  0  0  0  0  3  0  0  0  0  0  0
  -30.6390  -17.2140   20.2010 C   0  0  0  0  0  3  0  0  0  0  0  0
  -30.7070  -14.6310   20.3520 C   0  0  0  0  0  0  0  0  0  0  0  0
  -30.3740  -12.3980   19.3430 C   0  0  0  0  0  2  0  0  0  0  0  0
  -29.4460  -12.5230   18.1220 C   0  0  0  0  0  2  0  0  0  0  0  0
  -27.9720  -12.3790   18.5510 C   0  0  0  0  0  2  0  0  0  0  0  0
  -27.6110  -13.2640   19.7780 C   0  0  0  0  0  3  0  0  0  0  0  0
  -28.6810  -13.1790   20.8900 C   0  0  0  0  0  2  0  0  0  0  0  0
  -29.9870  -13.4700   20.2820 N   0  0  0  0  0  0  0  0  0  0  0  0
  -31.9120  -14.6440   20.1000 O   0  0  0  0  0  0  0  0  0  0  0  0
  -30.0410  -15.8310   20.4150 N   0  0  0  0  0  0  0  0  0  0  0  0
  -29.0390  -15.7710   20.5190 H   0  0  0  0  0  0  0  0  0  0  0  0
  -25.2170  -13.8430   20.5060 C   0  0  0  0  0  0  0  0  0  0  0  0
  -24.1550  -13.0640   20.8760 C   0  0  0  0  0  0  0  0  0  0  0  0
  -24.6250  -11.7150   20.8510 C   0  0  0  0  0  0  0  0  0  0  0  0
  -26.2690  -12.9710   20.2780 N   0  0  0  0  0  0  0  0  0  0  0  0
  -25.9200  -11.6860   20.5490 N   0  0  0  0  0  0  0  0  0  0  0  0
  -23.9030  -10.4510   21.0420 C   0  0  0  0  0  0  0  0  0  0  0  0
  -24.3450   -9.4810   21.9710 C   0  0  0  0  0  3  0  0  0  0  0  0
  -23.6210   -8.2830   22.1560 C   0  0  0  0  0  3  0  0  0  0  0  0
  -22.4420   -8.0440   21.4120 C   0  0  0  0  0  0  0  0  0  0  0  0
  -22.0170   -9.0000   20.4710 C   0  0  0  0  0  3  0  0  0  0  0  0
  -22.7410  -10.1880   20.2860 C   0  0  0  0  0  3  0  0  0  0  0  0
  -21.6930   -6.8950   21.5050 O   0  0  0  0  0  0  0  0  0  0  0  0
  -21.6600   -6.1430   22.6520 C   0  0  0  0  0  0  0  0  0  0  0  0
  -21.2590   -6.6910   23.8900 C   0  0  0  0  0  3  0  0  0  0  0  0
  -21.1760   -5.8660   25.0310 C   0  0  0  0  0  3  0  0  0  0  0  0
  -21.4830   -4.4960   24.9310 C   0  0  0  0  0  0  0  0  0  0  0  0
  -21.8760   -3.9480   23.6980 C   0  0  0  0  0  3  0  0  0  0  0  0
  -21.9600   -4.7700   22.5600 C   0  0  0  0  0  0  0  0  0  0  0  0
  -22.3190   -4.2310   21.3690 F   0  0  0  0  0  0  0  0  0  0  0  0
  -21.3950   -3.7030   26.0230 F   0  0  0  0  0  0  0  0  0  0  0  0
  -22.7520  -13.5350   21.1400 C   0  0  0  0  0  0  0  0  0  0  0  0
  -22.0260  -12.8430   22.0100 N   0  0  0  0  0  0  0  0  0  0  0  0
  -22.3110  -14.5520   20.6100 O   0  0  0  0  0  0  0  0  0  0  0  0
  -22.4000  -12.0220   22.4620 H   0  0  0  0  0  0  0  0  0  0  0  0
  -21.0850  -13.1370   22.2250 H   0  0  0  0  0  0  0  0  0  0  0  0
  -25.3700  -15.2150   20.3230 N   0  0  0  0  0  0  0  0  0  0  0  0
  -24.5990  -15.8640   20.4390 H   0  0  0  0  0  0  0  0  0  0  0  0
  -26.2150  -15.6640   19.9960 H   0  0  0  0  0  0  0  0  0  0  0  0
  -31.3430  -17.3410   18.8060 C   0  0  0  0  0  2  0  0  0  0  0  0
  -32.8820  -17.5850   18.8250 C   0  0  0  0  0  2  0  0  0  0  0  0
  -33.3060  -18.9130   19.3100 N   0  0  0  0  0  4  0  0  0  0  0  0
  -32.9170  -19.6550   18.7550 H   0  0  0  0  0  0  0  0  0  0  0  0
  -34.3080  -18.9860   19.2420 H   0  0  0  0  0  0  0  0  0  0  0  0
  -33.0650  -19.0580   20.2750 H   0  0  0  0  0  0  0  0  0  0  0  0
  2  4  1  0
  2  5  1  0
  2  1  1  0
  3  4  1  0
  5  8  1  0
  5  6  1  0
  6  7  1  0
  8  9  1  0
 10 21  2  0
 11  9  1  0
 11 16  1  0
 12 20  1  0
 12 22  1  0
 13 19  1  0
 13 15  1  0
 14 20  1  0
 15 14  1  0
 16 15  2  0
 17 18  1  0
 17 11  2  0
 18 13  2  0
 19 12  1  0
 20 10  1  0
 22 24  2  0
 23 22  1  0
 25 23  1  0
 26 35  2  0
 26 31  1  0
 27 23  1  0
 27 31  1  0
 28 27  1  0
 29 30  1  0
 29 28  1  0
 30 26  1  0
 31 32  2  0
 32 33  1  0
 34 33  2  0
 35 34  1  0
 36 10  1  0
 36 41  1  0
 36 37  1  0
 37 40  1  1
 37 38  1  0
 39 37  1  0
 41 44  1  0
 42 46  1  0
 42 41  1  0
 43 42  2  0
 46 45  1  0
 48 46  1  0
 48 49  1  0
 48 47  1  0
 50  1  1  0
 50 51  2  0
 52 91  1  0
 52 61  1  0
 52 51  1  0
 53 61  1  0
 54 59  1  0
 55 56  1  0
 55 54  1  0
 57 56  1  0
 57 66  1  0
 57 58  1  0
 59 53  1  0
 59 58  1  0
 60 53  2  0
 61 62  1  0
 63 64  2  0
 64 83  1  0
 65 64  1  0
 65 68  1  0
 66 63  1  0
 66 67  1  0
 67 65  2  0
 68 69  1  0
 69 70  2  0
 71 74  1  0
 71 70  1  0
 72 71  2  0
 73 72  1  0
 73 68  2  0
 74 75  1  0
 75 76  1  0
 76 77  2  0
 78 77  1  0
 78 82  1  0
 79 78  2  0
 80 75  2  0
 80 79  1  0
 81 80  1  0
 83 84  1  0
 84 87  1  0
 84 86  1  0
 85 83  2  0
 88 89  1  0
 88 63  1  0
 90 88  1  0
 91 92  1  0
 92 93  1  0
 93 96  1  0
 94 93  1  0
 95 93  1  0
M  ISO  4   8 101   9 101  53 100  61 100
M  END
>  <TORSDO>  (86) 
F 27

>  <SCORE>  (86) 
-11.769

>  <name>  (86) 
86

>  <ligand_id>  (86) 
86

>  <original_smiles>  (86) 
[H]c1c([H])c([H])c2c(c1[H])C([H])([H])C([H])([H])C([H])([H])C2([H])N([H])C(=O)C1([H])N(C(=O)C([H])(N([H])C(=O)C([H])(N([H])C([H])([H])[H])C([H])([H])[H])C(C([H])([H])[H])(C([H])([H])[H])C([H])([H])[H])C([H])([H])c2c([H])c(OC([H])([H])C([H])(N=O)C([H])(C([H])([H])C([H])([H])[H])C([H])([H])C([H])([H])C([H])([H])C([H])(N([H])C(=O)N3C([H])([H])C([H])([H])C([H])([H])C([H])(n4nc(-c5c([H])c([H])c(Oc6c([H])c([H])c(F)c([H])c6F)c([H])c5[H])c(C(=O)N([H])[H])c4N([H])[H])C3([H])[H])C([H])([H])C([H])([H])[N+]([H])([H])[H])c([H])c([H])c2C1([H])[H]

>  <smiles>  (86) 
[H]c1c([H])c([H])c2c(c1[H])C([H])([H])C([H])([H])C([H])([H])C2([H])N([H])C(=O)C1([H])N(C(=O)C([H])(N([H])C(=O)C([H])(N([H])C([H])([H])[H])C([H])([H])[H])C(C([H])([H])[H])(C([H])([H])[H])C([H])([H])[H])C([H])([H])c2c([H])c(OC([H])([H])C([H])(N=O)C([H])(C([H])([H])C([H])([H])[H])C([H])([H])C([H])([H])C([H])([H])C([H])(N([H])C(=O)N3C([H])([H])C([H])([H])C([H])([H])C([H])(n4nc(-c5c([H])c([H])c(Oc6c([H])c([H])c(F)c([H])c6F)c([H])c5[H])c(C(=O)N([H])[H])c4N([H])[H])C3([H])[H])C([H])([H])C([H])([H])[N+]([H])([H])[H])c([H])c([H])c2C1([H])[H]

$$$$
87:0:0
     RDKit          3D

 93101  0  0  1  0  0  0  0  0999 V2000
  -30.4480  -15.2810   20.3650 C   0  0  0  0  0  0  0  0  0  0  0  0
  -30.4370  -12.8280   19.5030 C   0  0  0  0  0  2  0  0  0  0  0  0
  -29.5310  -12.5710   18.2750 C   0  0  0  0  0  2  0  0  0  0  0  0
  -28.0810  -12.2940   18.7100 C   0  0  0  0  0  2  0  0  0  0  0  0
  -27.6060  -13.2760   19.8100 C   0  0  0  0  0  3  0  0  0  0  0  0
  -28.6430  -13.4750   20.9340 C   0  0  0  0  0  2  0  0  0  0  0  0
  -29.8610  -13.9850   20.2810 N   0  0  0  0  0  0  0  0  0  0  0  0
  -31.6860  -15.2330   20.2840 O   0  0  0  0  0  0  0  0  0  0  0  0
  -30.6890  -18.1540   18.3190 C   0  0  0  0  0  2  0  0  0  0  0  0
  -29.7270  -16.9740   18.6830 C   0  0  0  0  0  2  0  0  0  0  0  0
  -29.4570  -18.0520   20.7910 C   0  0  0  0  0  2  0  0  0  0  0  0
  -30.5530  -19.5410   19.0580 C   0  0  0  0  0  3  0  0  0  0  0  0
  -29.2730  -19.6170   19.9490 C   0  0  0  0  0  3  0  0  0  0  0  0
  -29.7400  -16.5740   20.1000 N   0  0  0  0  0  0  0  0  0  0  0  0
  -25.2410  -13.8250   20.5760 C   0  0  0  0  0  0  0  0  0  0  0  0
  -24.1740  -13.0440   20.9260 C   0  0  0  0  0  0  0  0  0  0  0  0
  -24.6400  -11.6940   20.8750 C   0  0  0  0  0  0  0  0  0  0  0  0
  -26.2810  -12.9520   20.3200 N   0  0  0  0  0  0  0  0  0  0  0  0
  -25.9330  -11.6630   20.5700 N   0  0  0  0  0  0  0  0  0  0  0  0
  -23.9090  -10.4300   21.0400 C   0  0  0  0  0  0  0  0  0  0  0  0
  -24.3640   -9.4210   21.9180 C   0  0  0  0  0  3  0  0  0  0  0  0
  -23.6310   -8.2250   22.0740 C   0  0  0  0  0  3  0  0  0  0  0  0
  -22.4290   -8.0290   21.3540 C   0  0  0  0  0  0  0  0  0  0  0  0
  -21.9930   -9.0260   20.4630 C   0  0  0  0  0  3  0  0  0  0  0  0
  -22.7260  -10.2150   20.3040 C   0  0  0  0  0  3  0  0  0  0  0  0
  -21.6650   -6.8900   21.4250 O   0  0  0  0  0  0  0  0  0  0  0  0
  -21.6870   -6.0740   22.5280 C   0  0  0  0  0  0  0  0  0  0  0  0
  -21.4010   -6.5640   23.8220 C   0  0  0  0  0  3  0  0  0  0  0  0
  -21.3660   -5.6790   24.9180 C   0  0  0  0  0  3  0  0  0  0  0  0
  -21.6050   -4.3050   24.7220 C   0  0  0  0  0  0  0  0  0  0  0  0
  -21.8810   -3.8150   23.4340 C   0  0  0  0  0  3  0  0  0  0  0  0
  -21.9190   -4.6970   22.3400 C   0  0  0  0  0  0  0  0  0  0  0  0
  -22.1660   -4.2160   21.0970 F   0  0  0  0  0  0  0  0  0  0  0  0
  -21.5630   -3.4540   25.7730 F   0  0  0  0  0  0  0  0  0  0  0  0
  -22.7770  -13.5210   21.1920 C   0  0  0  0  0  0  0  0  0  0  0  0
  -22.0410  -12.8190   22.0460 N   0  0  0  0  0  0  0  0  0  0  0  0
  -22.3440  -14.5510   20.6770 O   0  0  0  0  0  0  0  0  0  0  0  0
  -22.4040  -11.9850   22.4850 H   0  0  0  0  0  0  0  0  0  0  0  0
  -21.1020  -13.1200   22.2650 H   0  0  0  0  0  0  0  0  0  0  0  0
  -25.4100  -15.1990   20.4240 N   0  0  0  0  0  0  0  0  0  0  0  0
  -24.6500  -15.8580   20.5480 H   0  0  0  0  0  0  0  0  0  0  0  0
  -26.2690  -15.6410   20.1220 H   0  0  0  0  0  0  0  0  0  0  0  0
  -28.9000  -21.1290   20.6030 N   0  0  0  0  0  4  0  0  0  0  0  0
  -29.4790  -21.2070   21.4240 H   0  0  0  0  0  0  0  0  0  0  0  0
  -27.9690  -20.9920   20.9640 H   0  0  0  0  0  0  0  0  0  0  0  0
  -28.8660  -22.6890   19.9650 C   0  0  0  0  0  2  0  0  0  0  0  0
  -28.0290  -24.2060   20.4800 C   0  0  0  0  0  2  0  0  0  0  0  0
  -28.2380  -25.8310   20.2160 O   0  0  0  0  0  0  0  0  0  0  0  0
  -24.6630  -31.8250   23.1700 C   0  0  0  0  0  0  0  0  0  0  0  0
  -27.2190  -26.9240   20.1960 C   0  0  0  0  0  0  0  0  0  0  0  0
  -23.4780  -30.4360   21.5200 C   0  0  0  0  0  3  0  0  0  0  0  0
  -24.9310  -28.8170   20.1180 C   0  0  0  0  0  0  0  0  0  0  0  0
  -26.0460  -30.6320   21.3990 C   0  0  0  0  0  2  0  0  0  0  0  0
  -26.1160  -29.2180   20.7490 C   0  0  0  0  0  0  0  0  0  0  0  0
  -27.2570  -28.2960   20.7540 C   0  0  0  0  0  3  0  0  0  0  0  0
  -26.0040  -26.6750   19.5200 C   0  0  0  0  0  3  0  0  0  0  0  0
  -24.9010  -27.5660   19.4820 C   0  0  0  0  0  3  0  0  0  0  0  0
  -23.7190  -29.7480   20.1480 C   0  0  0  0  0  2  0  0  0  0  0  0
  -24.7510  -30.9910   22.0840 N   0  0  0  0  0  0  0  0  0  0  0  0
  -23.5700  -32.1230   23.6780 O   0  0  0  0  0  0  0  0  0  0  0  0
  -22.7670  -29.4460   22.4790 C   0  0  0  0  0  0  0  0  0  0  0  0
  -21.4340  -29.3060   22.3530 N   0  0  0  0  0  0  0  0  0  0  0  0
  -23.4210  -28.8030   23.3040 O   0  0  0  0  0  0  0  0  0  0  0  0
  -20.9600  -29.8790   21.6700 H   0  0  0  0  0  0  0  0  0  0  0  0
  -18.0320  -28.1400   22.8470 C   0  0  0  0  0  0  0  0  0  0  0  0
  -20.5960  -28.3750   23.1170 C   0  0  0  0  0  3  0  0  0  0  0  0
  -20.6800  -26.9430   22.5390 C   0  0  0  0  0  2  0  0  0  0  0  0
  -19.5770  -26.6370   21.5200 C   0  0  0  0  0  2  0  0  0  0  0  0
  -18.1950  -26.7930   22.1610 C   0  0  0  0  0  2  0  0  0  0  0  0
  -19.1590  -28.8900   23.2800 C   0  0  0  0  0  0  0  0  0  0  0  0
  -18.9500  -30.1480   23.8840 C   0  0  0  0  0  3  0  0  0  0  0  0
  -17.6490  -30.6590   24.0550 C   0  0  0  0  0  3  0  0  0  0  0  0
  -16.5380  -29.9080   23.6320 C   0  0  0  0  0  3  0  0  0  0  0  0
  -16.7310  -28.6500   23.0350 C   0  0  0  0  0  3  0  0  0  0  0  0
  -25.9320  -32.4600   23.8170 C   0  0  0  0  0  3  0  0  0  0  0  0
  -25.5980  -33.8400   24.2080 N   0  0  0  0  0  0  0  0  0  0  0  0
  -25.9100  -34.9350   23.5000 C   0  0  0  0  0  0  0  0  0  0  0  0
  -26.5710  -34.8890   22.4600 O   0  0  0  0  0  0  0  0  0  0  0  0
  -25.0070  -33.9490   25.0190 H   0  0  0  0  0  0  0  0  0  0  0  0
  -24.1490  -36.7210   23.2640 C   0  0  0  0  0  1  0  0  0  0  0  0
  -25.4130  -36.2960   24.0290 C   0  0  0  0  0  3  0  0  0  0  0  0
  -27.5570  -37.1750   24.8460 C   0  0  0  0  0  1  0  0  0  0  0  0
  -26.4270  -37.3700   23.9410 N   0  0  0  0  0  0  0  0  0  0  0  0
  -26.0110  -38.2760   24.1440 H   0  0  0  0  0  0  0  0  0  0  0  0
  -26.4560  -31.6530   25.0700 C   0  0  1  0  0  0  0  0  0  0  0  0
  -25.3670  -31.3780   26.1350 C   0  0  0  0  0  1  0  0  0  0  0  0
  -27.0470  -30.2900   24.6430 C   0  0  0  0  0  1  0  0  0  0  0  0
  -27.6050  -32.4350   25.7500 C   0  0  0  0  0  1  0  0  0  0  0  0
  -30.7530  -20.7040   18.0580 C   0  0  0  0  0  2  0  0  0  0  0  0
  -32.1240  -20.7290   17.3450 C   0  0  0  0  0  2  0  0  0  0  0  0
  -33.1310  -19.0620   15.7010 C   0  0  0  0  0  1  0  0  0  0  0  0
  -32.4100  -21.3520   14.8950 C   0  0  0  0  0  1  0  0  0  0  0  0
  -32.1260  -20.2110   15.8880 C   0  0  0  0  0  3  0  0  0  0  0  0
  2  7  1  0
  3  4  1  0
  3  2  1  0
  5  4  1  0
  5 18  1  0
  5  6  1  0
  7  1  1  0
  7  6  1  0
  8  1  2  0
  9 10  1  0
  9 12  1  0
 10 14  1  0
 12 89  1  0
 12 13  1  0
 13 43  1  0
 13 11  1  0
 14  1  1  0
 14 11  1  0
 15 16  2  0
 16 35  1  0
 17 16  1  0
 17 20  1  0
 18 19  1  0
 18 15  1  0
 19 17  2  0
 20 21  1  0
 21 22  2  0
 23 26  1  0
 23 22  1  0
 24 23  2  0
 25 24  1  0
 25 20  2  0
 26 27  1  0
 27 28  1  0
 28 29  2  0
 30 29  1  0
 30 34  1  0
 31 30  2  0
 32 27  2  0
 32 31  1  0
 33 32  1  0
 35 36  1  0
 36 39  1  0
 36 38  1  0
 37 35  2  0
 40 41  1  0
 40 15  1  0
 42 40  1  0
 43 45  1  0
 43 44  1  0
 46 47  1  0
 46 43  1  0
 48 47  1  0
 49 60  2  0
 50 48  1  0
 50 55  1  0
 51 59  1  0
 51 61  1  0
 52 58  1  0
 52 54  1  0
 53 59  1  0
 54 55  2  0
 54 53  1  0
 56 50  2  0
 57 56  1  0
 57 52  2  0
 58 51  1  0
 59 49  1  0
 61 63  2  0
 62 61  1  0
 64 62  1  0
 65 74  2  0
 65 70  1  0
 66 62  1  0
 66 70  1  0
 67 66  1  0
 68 69  1  0
 68 67  1  0
 69 65  1  0
 70 71  2  0
 71 72  1  0
 73 72  2  0
 74 73  1  0
 75 49  1  0
 75 76  1  0
 75 85  1  0
 76 79  1  0
 77 81  1  0
 77 76  1  0
 78 77  2  0
 81 80  1  0
 83 81  1  0
 83 84  1  0
 83 82  1  0
 85 88  1  1
 85 86  1  0
 87 85  1  0
 90 89  1  0
 91 93  1  0
 92 93  1  0
 93 90  1  0
M  ISO  4   1 100  14 100  47 101  48 101
M  END
>  <TORSDO>  (87) 
F 21

>  <SCORE>  (87) 
-14.939

>  <name>  (87) 
87

>  <ligand_id>  (87) 
87

>  <original_smiles>  (87) 
[H]c1c([H])c([H])c2c(c1[H])C([H])([H])C([H])([H])C([H])([H])C2([H])N([H])C(=O)C1([H])N(C(=O)C([H])(N([H])C(=O)C([H])(N([H])C([H])([H])[H])C([H])([H])[H])C(C([H])([H])[H])(C([H])([H])[H])C([H])([H])[H])C([H])([H])c2c([H])c(OC([H])([H])C([H])([H])[N+]([H])([H])C3([H])C([H])([H])N(C(=O)N4C([H])([H])C([H])([H])C([H])([H])C([H])(n5nc(-c6c([H])c([H])c(Oc7c([H])c([H])c(F)c([H])c7F)c([H])c6[H])c(C(=O)N([H])[H])c5N([H])[H])C4([H])[H])C([H])([H])C([H])([H])C3([H])C([H])([H])C([H])([H])C([H])(C([H])([H])[H])C([H])([H])[H])c([H])c([H])c2C1([H])[H]

>  <smiles>  (87) 
[H]c1c([H])c([H])c2c(c1[H])C([H])([H])C([H])([H])C([H])([H])C2([H])N([H])C(=O)C1([H])N(C(=O)C([H])(N([H])C(=O)C([H])(N([H])C([H])([H])[H])C([H])([H])[H])C(C([H])([H])[H])(C([H])([H])[H])C([H])([H])[H])C([H])([H])c2c([H])c(OC([H])([H])C([H])([H])[N+]([H])([H])C3([H])C([H])([H])N(C(=O)N4C([H])([H])C([H])([H])C([H])([H])C([H])(n5nc(-c6c([H])c([H])c(Oc7c([H])c([H])c(F)c([H])c7F)c([H])c6[H])c(C(=O)N([H])[H])c5N([H])[H])C4([H])[H])C([H])([H])C([H])([H])C3([H])C([H])([H])C([H])([H])C([H])(C([H])([H])[H])C([H])([H])[H])c([H])c([H])c2C1([H])[H]

$$$$
88:0:0
     RDKit          3D

 92100  0  0  1  0  0  0  0  0999 V2000
  -30.2670  -23.4160   20.2540 C   0  0  0  0  0  2  0  0  0  0  0  0
  -28.3360  -21.8340   20.4010 C   0  0  0  0  0  2  0  0  0  0  0  0
  -28.7470  -23.4130   20.0770 C   0  0  0  0  0  3  0  0  0  0  0  0
  -30.9440  -22.4190   19.2600 C   0  0  0  0  0  3  0  0  0  0  0  0
  -29.4840  -20.6280   20.3830 C   0  0  0  0  0  3  0  0  0  0  0  0
  -30.9090  -22.9790   17.8220 C   0  0  0  0  0  1  0  0  0  0  0  0
  -30.4230  -21.0050   19.2890 N   0  0  0  0  0  4  0  0  0  0  0  0
  -31.2180  -20.3850   19.2990 H   0  0  0  0  0  0  0  0  0  0  0  0
  -29.9460  -20.8360   18.4190 H   0  0  0  0  0  0  0  0  0  0  0  0
  -27.9650  -24.7290   20.6840 C   0  0  0  0  0  0  0  0  0  0  0  0
  -27.0670  -24.4900   21.4930 O   0  0  0  0  0  0  0  0  0  0  0  0
  -28.2330  -26.1780   20.2410 O   0  0  0  0  0  0  0  0  0  0  0  0
  -24.6350  -31.9020   23.2370 C   0  0  0  0  0  0  0  0  0  0  0  0
  -27.2040  -27.1830   20.2370 C   0  0  0  0  0  0  0  0  0  0  0  0
  -23.4310  -30.4920   21.6110 C   0  0  0  0  0  3  0  0  0  0  0  0
  -24.8790  -28.9160   20.1920 C   0  0  0  0  0  0  0  0  0  0  0  0
  -25.9830  -30.7660   21.4350 C   0  0  0  0  0  2  0  0  0  0  0  0
  -26.0580  -29.3680   20.8000 C   0  0  0  0  0  0  0  0  0  0  0  0
  -27.2240  -28.5140   20.8140 C   0  0  0  0  0  3  0  0  0  0  0  0
  -26.0010  -26.8350   19.5850 C   0  0  0  0  0  3  0  0  0  0  0  0
  -24.8620  -27.6600   19.5690 C   0  0  0  0  0  3  0  0  0  0  0  0
  -23.6510  -29.8100   20.2350 C   0  0  0  0  0  2  0  0  0  0  0  0
  -24.7030  -31.0760   22.1480 N   0  0  0  0  0  0  0  0  0  0  0  0
  -23.5500  -32.1850   23.7680 O   0  0  0  0  0  0  0  0  0  0  0  0
  -22.7620  -29.4870   22.5790 C   0  0  0  0  0  0  0  0  0  0  0  0
  -21.4350  -29.3070   22.4540 N   0  0  0  0  0  0  0  0  0  0  0  0
  -23.4390  -28.8710   23.4070 O   0  0  0  0  0  0  0  0  0  0  0  0
  -20.9440  -29.8570   21.7620 H   0  0  0  0  0  0  0  0  0  0  0  0
  -18.0620  -28.0820   22.9600 C   0  0  0  0  0  0  0  0  0  0  0  0
  -20.6190  -28.3720   23.2330 C   0  0  0  0  0  3  0  0  0  0  0  0
  -20.7330  -26.9330   22.6800 C   0  0  0  0  0  2  0  0  0  0  0  0
  -19.6400  -26.5870   21.6640 C   0  0  0  0  0  2  0  0  0  0  0  0
  -18.2540  -26.7260   22.3010 C   0  0  0  0  0  2  0  0  0  0  0  0
  -19.1720  -28.8610   23.3840 C   0  0  0  0  0  0  0  0  0  0  0  0
  -18.9370  -30.1280   23.9620 C   0  0  0  0  0  3  0  0  0  0  0  0
  -17.6260  -30.6160   24.1180 C   0  0  0  0  0  3  0  0  0  0  0  0
  -16.5320  -29.8350   23.7100 C   0  0  0  0  0  3  0  0  0  0  0  0
  -16.7500  -28.5700   23.1360 C   0  0  0  0  0  3  0  0  0  0  0  0
  -25.9140  -32.5440   23.8550 C   0  0  0  0  0  3  0  0  0  0  0  0
  -26.4280  -31.7860   25.1420 C   0  0  1  0  0  0  0  0  0  0  0  0
  -25.3340  -31.5610   26.2130 C   0  0  0  0  0  1  0  0  0  0  0  0
  -27.0120  -30.4040   24.7710 C   0  0  0  0  0  1  0  0  0  0  0  0
  -27.5800  -32.5870   25.7940 C   0  0  0  0  0  1  0  0  0  0  0  0
  -25.6010  -33.9460   24.1780 N   0  0  0  0  0  0  0  0  0  0  0  0
  -25.9300  -34.9950   23.4120 C   0  0  0  0  0  0  0  0  0  0  0  0
  -26.5960  -34.8850   22.3790 O   0  0  0  0  0  0  0  0  0  0  0  0
  -25.0120  -34.1050   24.9820 H   0  0  0  0  0  0  0  0  0  0  0  0
  -24.2070  -36.7920   23.0480 C   0  0  0  0  0  1  0  0  0  0  0  0
  -25.4450  -36.3880   23.8630 C   0  0  0  0  0  3  0  0  0  0  0  0
  -27.5810  -37.2720   24.6970 C   0  0  0  0  0  1  0  0  0  0  0  0
  -26.4810  -37.4380   23.7480 N   0  0  0  0  0  0  0  0  0  0  0  0
  -26.0780  -38.3600   23.8890 H   0  0  0  0  0  0  0  0  0  0  0  0
  -29.1130  -18.9720   20.3610 C   0  0  0  0  0  3  0  0  0  0  0  0
  -30.1850  -17.6750   20.4950 C   0  0  0  0  0  3  0  0  0  0  0  0
  -30.5370  -14.9590   20.3570 C   0  0  0  0  0  0  0  0  0  0  0  0
  -30.3940  -12.6320   19.3790 C   0  0  0  0  0  2  0  0  0  0  0  0
  -29.4600  -12.6230   18.1470 C   0  0  0  0  0  2  0  0  0  0  0  0
  -27.9950  -12.4120   18.5760 C   0  0  0  0  0  2  0  0  0  0  0  0
  -27.5910  -13.3150   19.7720 C   0  0  0  0  0  3  0  0  0  0  0  0
  -28.6490  -13.3040   20.8950 C   0  0  0  0  0  2  0  0  0  0  0  0
  -29.9240  -13.7120   20.2890 N   0  0  0  0  0  0  0  0  0  0  0  0
  -31.7410  -15.0230   20.0860 O   0  0  0  0  0  0  0  0  0  0  0  0
  -29.7770  -16.1480   20.5160 N   0  0  0  0  0  0  0  0  0  0  0  0
  -28.7920  -15.9810   20.6690 H   0  0  0  0  0  0  0  0  0  0  0  0
  -25.2060  -13.8730   20.5080 C   0  0  0  0  0  0  0  0  0  0  0  0
  -24.1490  -13.0890   20.8800 C   0  0  0  0  0  0  0  0  0  0  0  0
  -24.6260  -11.7430   20.8520 C   0  0  0  0  0  0  0  0  0  0  0  0
  -26.2560  -13.0030   20.2700 N   0  0  0  0  0  0  0  0  0  0  0  0
  -25.9190  -11.7160   20.5440 N   0  0  0  0  0  0  0  0  0  0  0  0
  -23.9120  -10.4740   21.0440 C   0  0  0  0  0  0  0  0  0  0  0  0
  -24.3400   -9.5170   21.9910 C   0  0  0  0  0  3  0  0  0  0  0  0
  -23.6220   -8.3150   22.1690 C   0  0  0  0  0  3  0  0  0  0  0  0
  -22.4610   -8.0600   21.4010 C   0  0  0  0  0  0  0  0  0  0  0  0
  -22.0530   -9.0050   20.4410 C   0  0  0  0  0  3  0  0  0  0  0  0
  -22.7730  -10.1980   20.2620 C   0  0  0  0  0  3  0  0  0  0  0  0
  -21.7160   -6.9090   21.4870 O   0  0  0  0  0  0  0  0  0  0  0  0
  -21.6490   -6.1800   22.6480 C   0  0  0  0  0  0  0  0  0  0  0  0
  -21.1750   -6.7410   23.8530 C   0  0  0  0  0  3  0  0  0  0  0  0
  -21.0580   -5.9370   25.0060 C   0  0  0  0  0  3  0  0  0  0  0  0
  -21.4050   -4.5740   24.9510 C   0  0  0  0  0  0  0  0  0  0  0  0
  -21.8720   -4.0130   23.7500 C   0  0  0  0  0  3  0  0  0  0  0  0
  -21.9910   -4.8130   22.6000 C   0  0  0  0  0  0  0  0  0  0  0  0
  -22.4210   -4.2640   21.4410 F   0  0  0  0  0  0  0  0  0  0  0  0
  -21.2840   -3.7990   26.0550 F   0  0  0  0  0  0  0  0  0  0  0  0
  -22.7470  -13.5540   21.1430 C   0  0  0  0  0  0  0  0  0  0  0  0
  -22.0160  -12.8510   22.0010 N   0  0  0  0  0  0  0  0  0  0  0  0
  -22.3070  -14.5770   20.6230 O   0  0  0  0  0  0  0  0  0  0  0  0
  -22.3840  -12.0260   22.4500 H   0  0  0  0  0  0  0  0  0  0  0  0
  -21.0750  -13.1470   22.2170 H   0  0  0  0  0  0  0  0  0  0  0  0
  -25.3530  -15.2440   20.3250 N   0  0  0  0  0  0  0  0  0  0  0  0
  -24.5680  -15.8810   20.4250 H   0  0  0  0  0  0  0  0  0  0  0  0
  -26.1790  -15.6900   19.9460 H   0  0  0  0  0  0  0  0  0  0  0  0
  3  1  1  0
  3  2  1  0
  3 10  1  0
  4  6  1  0
  4  7  1  0
  4  1  1  0
  5 53  1  0
  5  2  1  0
  7  8  1  0
  7  5  1  0
  9  7  1  0
 10 11  2  0
 12 10  1  0
 13 24  2  0
 14 12  1  0
 14 19  1  0
 15 23  1  0
 15 25  1  0
 16 22  1  0
 16 18  1  0
 17 23  1  0
 18 19  2  0
 18 17  1  0
 20 14  2  0
 21 20  1  0
 21 16  2  0
 22 15  1  0
 23 13  1  0
 25 27  2  0
 26 25  1  0
 28 26  1  0
 29 38  2  0
 29 34  1  0
 30 26  1  0
 30 34  1  0
 31 30  1  0
 32 33  1  0
 32 31  1  0
 33 29  1  0
 34 35  2  0
 35 36  1  0
 37 36  2  0
 38 37  1  0
 39 13  1  0
 39 44  1  0
 39 40  1  0
 40 43  1  1
 40 41  1  0
 42 40  1  0
 44 47  1  0
 45 49  1  0
 45 44  1  0
 46 45  2  0
 49 48  1  0
 51 49  1  0
 51 52  1  0
 51 50  1  0
 53 54  2  0
 54 63  1  0
 55 63  1  0
 56 61  1  0
 57 58  1  0
 57 56  1  0
 59 58  1  0
 59 68  1  0
 59 60  1  0
 61 55  1  0
 61 60  1  0
 62 55  2  0
 63 64  1  0
 65 66  2  0
 66 85  1  0
 67 66  1  0
 67 70  1  0
 68 65  1  0
 68 69  1  0
 69 67  2  0
 70 71  1  0
 71 72  2  0
 73 76  1  0
 73 72  1  0
 74 73  2  0
 75 74  1  0
 75 70  2  0
 76 77  1  0
 77 78  1  0
 78 79  2  0
 80 79  1  0
 80 84  1  0
 81 80  2  0
 82 77  2  0
 82 81  1  0
 83 82  1  0
 85 86  1  0
 86 89  1  0
 86 88  1  0
 87 85  2  0
 90 91  1  0
 90 65  1  0
 92 90  1  0
M  ISO  4  10 101  12 101  55 100  63 100
M  END
>  <TORSDO>  (88) 
F 19

>  <SCORE>  (88) 
-14.800

>  <name>  (88) 
88

>  <ligand_id>  (88) 
88

>  <original_smiles>  (88) 
[H]c1c([H])c([H])c2c(c1[H])C([H])([H])C([H])([H])C([H])([H])C2([H])N([H])C(=O)C1([H])N(C(=O)C([H])(N([H])C(=O)C([H])(N([H])C([H])([H])[H])C([H])([H])[H])C(C([H])([H])[H])(C([H])([H])[H])C([H])([H])[H])C([H])([H])c2c([H])c(OC(=O)C3([H])C([H])([H])C([H])(C([H])([H])[H])[N+]([H])([H])C([H])(C([H])([H])C([H])([H])N([H])C(=O)N4C([H])([H])C([H])([H])C([H])([H])C([H])(n5nc(-c6c([H])c([H])c(Oc7c([H])c([H])c(F)c([H])c7F)c([H])c6[H])c(C(=O)N([H])[H])c5N([H])[H])C4([H])[H])C3([H])[H])c([H])c([H])c2C1([H])[H]

>  <smiles>  (88) 
[H]c1c([H])c([H])c2c(c1[H])C([H])([H])C([H])([H])C([H])([H])C2([H])N([H])C(=O)C1([H])N(C(=O)C([H])(N([H])C(=O)C([H])(N([H])C([H])([H])[H])C([H])([H])[H])C(C([H])([H])[H])(C([H])([H])[H])C([H])([H])[H])C([H])([H])c2c([H])c(OC(=O)C3([H])C([H])([H])C([H])(C([H])([H])[H])[N+]([H])([H])C([H])(C([H])([H])C([H])([H])N([H])C(=O)N4C([H])([H])C([H])([H])C([H])([H])C([H])(n5nc(-c6c([H])c([H])c(Oc7c([H])c([H])c(F)c([H])c7F)c([H])c6[H])c(C(=O)N([H])[H])c5N([H])[H])C4([H])[H])C3([H])[H])c([H])c([H])c2C1([H])[H]

$$$$
89:0:0
     RDKit          3D

 91 99  0  0  1  0  0  0  0  0999 V2000
  -29.9460  -21.2000   19.9850 C   0  0  0  0  0  0  0  0  0  0  0  0
  -31.1290  -21.4780   20.2030 O   0  0  0  0  0  0  0  0  0  0  0  0
  -29.4940  -19.7480   19.8360 C   0  0  0  0  0  3  0  0  0  0  0  0
  -30.2400  -18.5840   19.7300 C   0  0  0  0  0  0  0  0  0  0  0  0
  -30.9330  -14.7920   19.6570 C   0  0  0  0  0  0  0  0  0  0  0  0
  -30.5930  -12.5220   18.6520 C   0  0  0  0  0  2  0  0  0  0  0  0
  -29.5670  -12.6250   17.5050 C   0  0  0  0  0  2  0  0  0  0  0  0
  -28.1380  -12.4330   18.0500 C   0  0  0  0  0  2  0  0  0  0  0  0
  -27.8620  -13.3060   19.3050 C   0  0  0  0  0  3  0  0  0  0  0  0
  -29.0150  -13.2110   20.3280 C   0  0  0  0  0  2  0  0  0  0  0  0
  -30.2730  -13.5750   19.6480 N   0  0  0  0  0  0  0  0  0  0  0  0
  -31.9710  -14.9280   19.0030 O   0  0  0  0  0  0  0  0  0  0  0  0
  -28.7440  -16.6220   21.8400 C   0  0  0  0  0  2  0  0  0  0  0  0
  -28.3620  -17.0840   20.4300 C   0  0  0  0  0  2  0  0  0  0  0  0
  -30.1440  -16.0110   21.6890 C   0  0  0  0  0  2  0  0  0  0  0  0
  -29.6630  -17.1120   19.6280 C   0  0  0  0  0  3  0  0  0  0  0  0
  -30.3440  -15.9000   20.2480 N   0  0  0  0  0  0  0  0  0  0  0  0
  -25.5580  -13.8680   20.3120 C   0  0  0  0  0  0  0  0  0  0  0  0
  -24.5370  -13.0860   20.7700 C   0  0  0  0  0  0  0  0  0  0  0  0
  -24.9830  -11.7400   20.6210 C   0  0  0  0  0  0  0  0  0  0  0  0
  -26.5690  -13.0030   19.9200 N   0  0  0  0  0  0  0  0  0  0  0  0
  -26.2300  -11.7100   20.1640 N   0  0  0  0  0  0  0  0  0  0  0  0
  -24.2640  -10.4790   20.8270 C   0  0  0  0  0  0  0  0  0  0  0  0
  -24.6830   -9.5360   21.7910 C   0  0  0  0  0  3  0  0  0  0  0  0
  -23.9590   -8.3400   21.9810 C   0  0  0  0  0  3  0  0  0  0  0  0
  -22.8030   -8.0780   21.2080 C   0  0  0  0  0  0  0  0  0  0  0  0
  -22.4010   -9.0120   20.2360 C   0  0  0  0  0  3  0  0  0  0  0  0
  -23.1250  -10.1990   20.0440 C   0  0  0  0  0  3  0  0  0  0  0  0
  -22.0540   -6.9300   21.3050 O   0  0  0  0  0  0  0  0  0  0  0  0
  -21.8500   -6.3060   22.5090 C   0  0  0  0  0  0  0  0  0  0  0  0
  -21.2680   -6.9770   23.6070 C   0  0  0  0  0  3  0  0  0  0  0  0
  -21.0110   -6.2800   24.8020 C   0  0  0  0  0  3  0  0  0  0  0  0
  -21.3270   -4.9110   24.9020 C   0  0  0  0  0  0  0  0  0  0  0  0
  -21.9040   -4.2400   23.8090 C   0  0  0  0  0  3  0  0  0  0  0  0
  -22.1620   -4.9360   22.6150 C   0  0  0  0  0  0  0  0  0  0  0  0
  -22.6990   -4.2800   21.5580 F   0  0  0  0  0  0  0  0  0  0  0  0
  -21.0740   -4.2380   26.0490 F   0  0  0  0  0  0  0  0  0  0  0  0
  -23.1910  -13.5670   21.2270 C   0  0  0  0  0  0  0  0  0  0  0  0
  -22.5720  -12.8610   22.1650 N   0  0  0  0  0  0  0  0  0  0  0  0
  -22.6990  -14.6070   20.7890 O   0  0  0  0  0  0  0  0  0  0  0  0
  -22.9820  -12.0210   22.5430 H   0  0  0  0  0  0  0  0  0  0  0  0
  -21.6730  -13.1680   22.5100 H   0  0  0  0  0  0  0  0  0  0  0  0
  -25.6740  -15.2410   20.1790 N   0  0  0  0  0  0  0  0  0  0  0  0
  -24.9240  -15.8740   20.4270 H   0  0  0  0  0  0  0  0  0  0  0  0
  -26.4860  -15.7130   19.8020 H   0  0  0  0  0  0  0  0  0  0  0  0
  -31.5810  -18.5610   19.7250 O   0  0  0  0  0  0  0  0  0  0  0  0
  -31.8790  -19.4610   19.8020 H   0  0  0  0  0  0  0  0  0  0  0  0
  -28.9050  -22.3930   19.8630 C   0  0  0  0  0  2  0  0  0  0  0  0
  -29.3340  -23.9220   20.1300 C   0  0  0  0  0  3  0  0  0  0  0  0
  -28.2280  -25.0530   19.8610 C   0  0  0  0  0  3  0  0  0  0  0  0
  -28.4270  -26.4870   20.2320 O   0  0  0  0  0  0  0  0  0  0  0  0
  -24.6420  -31.8360   23.3250 C   0  0  0  0  0  0  0  0  0  0  0  0
  -27.3130  -27.3560   20.1770 C   0  0  0  0  0  0  0  0  0  0  0  0
  -23.4710  -30.4940   21.6210 C   0  0  0  0  0  3  0  0  0  0  0  0
  -24.9450  -28.9830   20.1750 C   0  0  0  0  0  0  0  0  0  0  0  0
  -26.0150  -30.8020   21.4990 C   0  0  0  0  0  2  0  0  0  0  0  0
  -26.1050  -29.4450   20.8090 C   0  0  0  0  0  0  0  0  0  0  0  0
  -27.2910  -28.6460   20.8010 C   0  0  0  0  0  3  0  0  0  0  0  0
  -26.1280  -26.9580   19.5120 C   0  0  0  0  0  3  0  0  0  0  0  0
  -24.9610  -27.7450   19.5150 C   0  0  0  0  0  3  0  0  0  0  0  0
  -23.7090  -29.8610   20.2240 C   0  0  0  0  0  2  0  0  0  0  0  0
  -24.7280  -31.0600   22.2060 N   0  0  0  0  0  0  0  0  0  0  0  0
  -23.5490  -32.0990   23.8480 O   0  0  0  0  0  0  0  0  0  0  0  0
  -22.7860  -29.4490   22.5330 C   0  0  0  0  0  0  0  0  0  0  0  0
  -21.4700  -29.2510   22.3440 N   0  0  0  0  0  0  0  0  0  0  0  0
  -23.4380  -28.8210   23.3710 O   0  0  0  0  0  0  0  0  0  0  0  0
  -21.0040  -29.8030   21.6370 H   0  0  0  0  0  0  0  0  0  0  0  0
  -18.0970  -27.9810   22.6750 C   0  0  0  0  0  0  0  0  0  0  0  0
  -20.6360  -28.2870   23.0640 C   0  0  0  0  0  3  0  0  0  0  0  0
  -20.7930  -26.8650   22.4770 C   0  0  0  0  0  2  0  0  0  0  0  0
  -19.7450  -26.5350   21.4110 C   0  0  0  0  0  2  0  0  0  0  0  0
  -18.3320  -26.6440   21.9920 C   0  0  0  0  0  2  0  0  0  0  0  0
  -19.1800  -28.7580   23.1640 C   0  0  0  0  0  0  0  0  0  0  0  0
  -18.9090  -30.0060   23.7670 C   0  0  0  0  0  3  0  0  0  0  0  0
  -17.5880  -30.4800   23.8800 C   0  0  0  0  0  3  0  0  0  0  0  0
  -16.5200  -29.7000   23.4050 C   0  0  0  0  0  3  0  0  0  0  0  0
  -16.7740  -28.4530   22.8080 C   0  0  0  0  0  3  0  0  0  0  0  0
  -25.9140  -32.4470   23.9910 C   0  0  0  0  0  3  0  0  0  0  0  0
  -25.6310  -33.8600   24.2730 N   0  0  0  0  0  0  0  0  0  0  0  0
  -25.9830  -34.8820   23.4820 C   0  0  0  0  0  0  0  0  0  0  0  0
  -26.6530  -34.7310   22.4560 O   0  0  0  0  0  0  0  0  0  0  0  0
  -25.0410  -34.0510   25.0700 H   0  0  0  0  0  0  0  0  0  0  0  0
  -24.2750  -36.6850   23.0810 C   0  0  0  0  0  1  0  0  0  0  0  0
  -25.5230  -36.2950   23.8890 C   0  0  0  0  0  3  0  0  0  0  0  0
  -27.6740  -37.1910   24.6650 C   0  0  0  0  0  1  0  0  0  0  0  0
  -26.5690  -37.3260   23.7200 N   0  0  0  0  0  0  0  0  0  0  0  0
  -26.1780  -38.2590   23.8220 H   0  0  0  0  0  0  0  0  0  0  0  0
  -26.3440  -31.6940   25.3110 C   0  0  1  0  0  0  0  0  0  0  0  0
  -25.1890  -31.5050   26.3240 C   0  0  0  0  0  1  0  0  0  0  0  0
  -26.9150  -30.2950   24.9820 C   0  0  0  0  0  1  0  0  0  0  0  0
  -27.4760  -32.4780   26.0150 C   0  0  0  0  0  1  0  0  0  0  0  0
  1  2  2  0
  3  1  1  0
  4  3  2  0
  5 17  1  0
  6 11  1  0
  7  8  1  0
  7  6  1  0
  9  8  1  0
  9 21  1  0
  9 10  1  0
 11  5  1  0
 11 10  1  0
 12  5  2  0
 14 13  1  0
 15 13  1  0
 16  4  1  0
 16 17  1  0
 16 14  1  0
 17 15  1  0
 18 19  2  0
 19 38  1  0
 20 19  1  0
 20 23  1  0
 21 22  1  0
 21 18  1  0
 22 20  2  0
 23 24  1  0
 24 25  2  0
 26 29  1  0
 26 25  1  0
 27 26  2  0
 28 27  1  0
 28 23  2  0
 29 30  1  0
 30 35  2  0
 30 31  1  0
 31 32  2  0
 32 33  1  0
 33 37  1  0
 34 33  2  0
 35 34  1  0
 36 35  1  0
 38 39  1  0
 39 42  1  0
 39 41  1  0
 40 38  2  0
 43 18  1  0
 43 44  1  0
 45 43  1  0
 46  4  1  0
 46 47  1  0
 48  1  1  0
 48 49  1  0
 50 49  2  0
 50 51  1  0
 52 63  2  0
 53 51  1  0
 53 58  1  0
 54 62  1  0
 54 64  1  0
 55 61  1  0
 55 57  1  0
 56 62  1  0
 57 56  1  0
 58 57  2  0
 59 60  1  0
 59 53  2  0
 60 55  2  0
 61 54  1  0
 62 52  1  0
 64 66  2  0
 65 64  1  0
 67 65  1  0
 68 77  2  0
 68 73  1  0
 69 65  1  0
 69 73  1  0
 70 69  1  0
 71 72  1  0
 71 70  1  0
 72 68  1  0
 73 74  2  0
 74 75  1  0
 76 75  2  0
 77 76  1  0
 78 52  1  0
 78 79  1  0
 78 88  1  0
 79 82  1  0
 80 84  1  0
 80 79  1  0
 81 80  2  0
 84 83  1  0
 86 87  1  0
 86 84  1  0
 86 85  1  0
 88 91  1  1
 88 89  1  0
 90 88  1  0
M  ISO  4   5 100  17 100  50 101  51 101
M  END
>  <TORSDO>  (89) 
F 21

>  <SCORE>  (89) 
-11.585

>  <name>  (89) 
89

>  <ligand_id>  (89) 
89

>  <original_smiles>  (89) 
[H]OC(=C([H])C(=O)C([H])([H])C([H])([H])C([H])([H])Oc1c([H])c([H])c2c(c1[H])C([H])([H])N(C(=O)C([H])(N([H])C(=O)C([H])(N([H])C([H])([H])[H])C([H])([H])[H])C(C([H])([H])[H])(C([H])([H])[H])C([H])([H])[H])C([H])(C(=O)N([H])C1([H])c3c([H])c([H])c([H])c([H])c3C([H])([H])C([H])([H])C1([H])[H])C2([H])[H])C1([H])N(C(=O)N2C([H])([H])C([H])([H])C([H])([H])C([H])(n3nc(-c4c([H])c([H])c(Oc5c([H])c([H])c(F)c([H])c5F)c([H])c4[H])c(C(=O)N([H])[H])c3N([H])[H])C2([H])[H])C([H])([H])C([H])([H])C1([H])[H]

>  <smiles>  (89) 
[H]OC(=C([H])C(=O)C([H])([H])C([H])([H])C([H])([H])Oc1c([H])c([H])c2c(c1[H])C([H])([H])N(C(=O)C([H])(N([H])C(=O)C([H])(N([H])C([H])([H])[H])C([H])([H])[H])C(C([H])([H])[H])(C([H])([H])[H])C([H])([H])[H])C([H])(C(=O)N([H])C1([H])c3c([H])c([H])c([H])c([H])c3C([H])([H])C([H])([H])C1([H])[H])C2([H])[H])C1([H])N(C(=O)N2C([H])([H])C([H])([H])C([H])([H])C([H])(n3nc(-c4c([H])c([H])c(Oc5c([H])c([H])c(F)c([H])c5F)c([H])c4[H])c(C(=O)N([H])[H])c3N([H])[H])C2([H])[H])C([H])([H])C([H])([H])C1([H])[H]

$$$$
90:0:0
     RDKit          3D

 98106  0  0  1  0  0  0  0  0999 V2000
  -30.7080  -21.3640   22.2280 C   0  0  0  0  0  2  0  0  0  0  0  0
  -29.2380  -21.3370   21.8110 C   0  0  0  0  0  2  0  0  0  0  0  0
  -31.4550  -20.6010   21.1190 C   0  0  0  0  0  3  0  0  0  0  0  0
  -30.3730  -20.2580   20.0540 C   0  0  0  0  0  3  0  0  0  0  0  0
  -29.2690  -21.2910   20.3370 N   0  0  2  0  0  4  0  0  0  0  0  0
  -28.3840  -20.9230   20.0150 H   0  0  0  0  0  0  0  0  0  0  0  0
  -33.6380  -20.4780   19.7850 C   0  0  0  0  0  1  0  0  0  0  0  0
  -32.6800  -21.3730   20.5800 C   0  0  0  0  0  2  0  0  0  0  0  0
  -29.9430  -18.6750   20.0450 C   0  0  0  0  0  2  0  0  0  0  0  0
  -31.0080  -17.4330   20.1080 C   0  0  0  0  0  3  0  0  0  0  0  0
  -31.2220  -14.8540   19.6640 C   0  0  0  0  0  0  0  0  0  0  0  0
  -30.8800  -12.5180   18.8570 C   0  0  0  0  0  2  0  0  0  0  0  0
  -29.8890  -12.5290   17.6730 C   0  0  0  0  0  2  0  0  0  0  0  0
  -28.4300  -12.4750   18.1750 C   0  0  0  0  0  2  0  0  0  0  0  0
  -28.1520  -13.4930   19.3130 C   0  0  0  0  0  3  0  0  0  0  0  0
  -29.2520  -13.4420   20.3940 C   0  0  0  0  0  2  0  0  0  0  0  0
  -30.5380  -13.6670   19.7190 N   0  0  0  0  0  0  0  0  0  0  0  0
  -32.4020  -14.8870   19.3010 O   0  0  0  0  0  0  0  0  0  0  0  0
  -30.5040  -16.0170   19.8550 N   0  0  0  0  0  0  0  0  0  0  0  0
  -29.5230  -15.8680   20.0470 H   0  0  0  0  0  0  0  0  0  0  0  0
  -25.8760  -14.2830   20.2050 C   0  0  0  0  0  0  0  0  0  0  0  0
  -24.7710  -13.5990   20.6280 C   0  0  0  0  0  0  0  0  0  0  0  0
  -25.1060  -12.2120   20.5450 C   0  0  0  0  0  0  0  0  0  0  0  0
  -26.8190  -13.3190   19.8860 N   0  0  0  0  0  0  0  0  0  0  0  0
  -26.3660  -12.0670   20.1530 N   0  0  0  0  0  0  0  0  0  0  0  0
  -24.2830  -11.0140   20.7550 C   0  0  0  0  0  0  0  0  0  0  0  0
  -24.6660  -10.0040   21.6630 C   0  0  0  0  0  3  0  0  0  0  0  0
  -23.8470   -8.8710   21.8630 C   0  0  0  0  0  3  0  0  0  0  0  0
  -22.6300   -8.7420   21.1540 C   0  0  0  0  0  0  0  0  0  0  0  0
  -22.2640   -9.7390   20.2330 C   0  0  0  0  0  3  0  0  0  0  0  0
  -23.0840  -10.8630   20.0300 C   0  0  0  0  0  3  0  0  0  0  0  0
  -21.7840   -7.6650   21.2650 O   0  0  0  0  0  0  0  0  0  0  0  0
  -21.6880   -6.9420   22.4270 C   0  0  0  0  0  0  0  0  0  0  0  0
  -21.3530   -7.5500   23.6580 C   0  0  0  0  0  3  0  0  0  0  0  0
  -21.1930   -6.7610   24.8130 C   0  0  0  0  0  3  0  0  0  0  0  0
  -21.3610   -5.3640   24.7420 C   0  0  0  0  0  0  0  0  0  0  0  0
  -21.6890   -4.7560   23.5170 C   0  0  0  0  0  3  0  0  0  0  0  0
  -21.8480   -5.5430   22.3640 C   0  0  0  0  0  0  0  0  0  0  0  0
  -22.1430   -4.9490   21.1820 F   0  0  0  0  0  0  0  0  0  0  0  0
  -21.2010   -4.6040   25.8500 F   0  0  0  0  0  0  0  0  0  0  0  0
  -23.4390  -14.1890   20.9940 C   0  0  0  0  0  0  0  0  0  0  0  0
  -22.7130  -13.5530   21.9070 N   0  0  0  0  0  0  0  0  0  0  0  0
  -23.0550  -15.2490   20.5020 O   0  0  0  0  0  0  0  0  0  0  0  0
  -23.0320  -12.6920   22.3250 H   0  0  0  0  0  0  0  0  0  0  0  0
  -21.8200  -13.9310   22.1880 H   0  0  0  0  0  0  0  0  0  0  0  0
  -26.1540  -15.6380   20.0370 N   0  0  0  0  0  0  0  0  0  0  0  0
  -25.4620  -16.3610   20.2090 H   0  0  0  0  0  0  0  0  0  0  0  0
  -27.0110  -16.0040   19.6400 H   0  0  0  0  0  0  0  0  0  0  0  0
  -31.7770  -17.3510   21.4780 C   0  0  0  0  0  2  0  0  0  0  0  0
  -30.9860  -16.8150   22.6880 C   0  0  0  0  0  0  0  0  0  0  0  0
  -31.6560  -16.1430   23.6180 N   0  0  0  0  0  0  0  0  0  0  0  0
  -29.7740  -16.9820   22.7960 O   0  0  0  0  0  0  0  0  0  0  0  0
  -32.6580  -16.0190   23.5550 H   0  0  0  0  0  0  0  0  0  0  0  0
  -31.1640  -15.7370   24.4030 H   0  0  0  0  0  0  0  0  0  0  0  0
  -29.4100  -22.6910   19.6970 C   0  0  0  0  0  3  0  0  0  0  0  0
  -28.6440  -23.9730   20.3210 C   0  0  0  0  0  3  0  0  0  0  0  0
  -28.7850  -25.3760   19.5590 C   0  0  0  0  0  2  0  0  0  0  0  0
  -28.6050  -26.6790   20.2530 O   0  0  0  0  0  0  0  0  0  0  0  0
  -24.6890  -31.8990   23.2750 C   0  0  0  0  0  0  0  0  0  0  0  0
  -27.4430  -27.4620   20.1760 C   0  0  0  0  0  0  0  0  0  0  0  0
  -23.5380  -30.5110   21.5860 C   0  0  0  0  0  3  0  0  0  0  0  0
  -25.0440  -29.0220   20.1530 C   0  0  0  0  0  0  0  0  0  0  0  0
  -26.0710  -30.8940   21.4470 C   0  0  0  0  0  2  0  0  0  0  0  0
  -26.1900  -29.5320   20.7720 C   0  0  0  0  0  0  0  0  0  0  0  0
  -27.3920  -28.7630   20.7730 C   0  0  0  0  0  3  0  0  0  0  0  0
  -26.2660  -26.9950   19.5540 C   0  0  0  0  0  3  0  0  0  0  0  0
  -25.0840  -27.7620   19.5390 C   0  0  0  0  0  3  0  0  0  0  0  0
  -23.7910  -29.8740   20.1930 C   0  0  0  0  0  2  0  0  0  0  0  0
  -24.7860  -31.1160   22.1600 N   0  0  0  0  0  0  0  0  0  0  0  0
  -23.5910  -32.1440   23.7950 O   0  0  0  0  0  0  0  0  0  0  0  0
  -22.8870  -29.4580   22.5140 C   0  0  0  0  0  0  0  0  0  0  0  0
  -21.5660  -29.2560   22.3670 N   0  0  0  0  0  0  0  0  0  0  0  0
  -23.5670  -28.8300   23.3310 O   0  0  0  0  0  0  0  0  0  0  0  0
  -21.0780  -29.8210   21.6860 H   0  0  0  0  0  0  0  0  0  0  0  0
  -18.2040  -27.9810   22.7740 C   0  0  0  0  0  0  0  0  0  0  0  0
  -20.7510  -28.2880   23.1070 C   0  0  0  0  0  3  0  0  0  0  0  0
  -20.8970  -26.8710   22.5040 C   0  0  0  0  0  2  0  0  0  0  0  0
  -19.8230  -26.5440   21.4630 C   0  0  0  0  0  2  0  0  0  0  0  0
  -18.4240  -26.6460   22.0790 C   0  0  0  0  0  2  0  0  0  0  0  0
  -19.2980  -28.7570   23.2410 C   0  0  0  0  0  0  0  0  0  0  0  0
  -19.0410  -30.0050   23.8490 C   0  0  0  0  0  3  0  0  0  0  0  0
  -17.7230  -30.4740   24.0010 C   0  0  0  0  0  3  0  0  0  0  0  0
  -16.6430  -29.6920   23.5550 C   0  0  0  0  0  3  0  0  0  0  0  0
  -16.8840  -28.4480   22.9450 C   0  0  0  0  0  3  0  0  0  0  0  0
  -25.9470  -32.5460   23.9300 C   0  0  0  0  0  3  0  0  0  0  0  0
  -25.6080  -33.9370   24.2610 N   0  0  0  0  0  0  0  0  0  0  0  0
  -25.9410  -35.0020   23.5210 C   0  0  0  0  0  0  0  0  0  0  0  0
  -26.6350  -34.9180   22.5040 O   0  0  0  0  0  0  0  0  0  0  0  0
  -24.9950  -34.0730   25.0520 H   0  0  0  0  0  0  0  0  0  0  0  0
  -24.1870  -36.7700   23.1560 C   0  0  0  0  0  1  0  0  0  0  0  0
  -25.4220  -36.3780   23.9830 C   0  0  0  0  0  3  0  0  0  0  0  0
  -27.5300  -37.2890   24.8480 C   0  0  0  0  0  1  0  0  0  0  0  0
  -26.4360  -37.4530   23.8960 N   0  0  0  0  0  0  0  0  0  0  0  0
  -26.0100  -38.3620   24.0540 H   0  0  0  0  0  0  0  0  0  0  0  0
  -26.4420  -31.7790   25.2170 C   0  0  1  0  0  0  0  0  0  0  0  0
  -25.3220  -31.5120   26.2520 C   0  0  0  0  0  1  0  0  0  0  0  0
  -27.0690  -30.4180   24.8330 C   0  0  0  0  0  1  0  0  0  0  0  0
  -27.5530  -32.5940   25.9200 C   0  0  0  0  0  1  0  0  0  0  0  0
  2  1  1  0
  3  8  1  0
  3  1  1  0
  4  9  1  0
  4  5  1  0
  4  3  1  0
  5  2  1  0
  5  6  1  6
  7  8  1  0
 10  9  1  0
 10 49  1  0
 11 17  1  0
 11 19  1  0
 12 17  1  0
 13 14  1  0
 13 12  1  0
 15 14  1  0
 15 24  1  0
 15 16  1  0
 17 16  1  0
 18 11  2  0
 19 20  1  0
 19 10  1  0
 21 22  2  0
 22 41  1  0
 23 22  1  0
 23 26  1  0
 24 25  1  0
 24 21  1  0
 25 23  2  0
 26 27  1  0
 27 28  2  0
 29 32  1  0
 29 28  1  0
 30 29  2  0
 31 30  1  0
 31 26  2  0
 32 33  1  0
 33 34  1  0
 34 35  2  0
 36 35  1  0
 36 40  1  0
 37 36  2  0
 38 33  2  0
 38 37  1  0
 39 38  1  0
 41 42  1  0
 42 45  1  0
 42 44  1  0
 43 41  2  0
 46 21  1  0
 46 47  1  0
 48 46  1  0
 49 50  1  0
 50 52  2  0
 50 51  1  0
 51 54  1  0
 53 51  1  0
 55 56  2  0
 55  5  1  0
 57 58  1  0
 57 56  1  0
 59 70  2  0
 60 58  1  0
 60 65  1  0
 61 69  1  0
 61 71  1  0
 62 68  1  0
 62 64  1  0
 63 69  1  0
 64 65  2  0
 64 63  1  0
 66 60  2  0
 67 66  1  0
 67 62  2  0
 68 61  1  0
 69 59  1  0
 71 73  2  0
 72 71  1  0
 74 72  1  0
 75 84  2  0
 75 80  1  0
 76 72  1  0
 76 80  1  0
 77 76  1  0
 78 79  1  0
 78 77  1  0
 79 75  1  0
 80 81  2  0
 81 82  1  0
 83 82  2  0
 84 83  1  0
 85 59  1  0
 85 86  1  0
 85 95  1  0
 86 89  1  0
 87 91  1  0
 87 86  1  0
 88 87  2  0
 91 90  1  0
 93 91  1  0
 93 94  1  0
 93 92  1  0
 95 98  1  1
 95 96  1  0
 97 95  1  0
M  ISO  4  11 100  19 100  57 101  58 101
M  END
>  <TORSDO>  (90) 
F 24

>  <SCORE>  (90) 
-10.057

>  <name>  (90) 
90

>  <ligand_id>  (90) 
90

>  <original_smiles>  (90) 
[H]c1c([H])c([H])c2c(c1[H])C([H])([H])C([H])([H])C([H])([H])C2([H])N([H])C(=O)C1([H])N(C(=O)C([H])(N([H])C(=O)C([H])(N([H])C([H])([H])[H])C([H])([H])[H])C(C([H])([H])[H])(C([H])([H])[H])C([H])([H])[H])C([H])([H])c2c([H])c(OC([H])([H])C([H])([H])C([H])([H])[N+]3([H])C([H])([H])C([H])([H])C([H])(C([H])([H])C([H])([H])[H])C3([H])C([H])([H])C([H])(N([H])C(=O)N3C([H])([H])C([H])([H])C([H])([H])C([H])(n4nc(-c5c([H])c([H])c(Oc6c([H])c([H])c(F)c([H])c6F)c([H])c5[H])c(C(=O)N([H])[H])c4N([H])[H])C3([H])[H])C([H])([H])C(=O)N([H])[H])c([H])c([H])c2C1([H])[H]

>  <smiles>  (90) 
[H]c1c([H])c([H])c2c(c1[H])C([H])([H])C([H])([H])C([H])([H])C2([H])N([H])C(=O)C1([H])N(C(=O)C([H])(N([H])C(=O)C([H])(N([H])C([H])([H])[H])C([H])([H])[H])C(C([H])([H])[H])(C([H])([H])[H])C([H])([H])[H])C([H])([H])c2c([H])c(OC([H])([H])C([H])([H])C([H])([H])[N+]3([H])C([H])([H])C([H])([H])C([H])(C([H])([H])C([H])([H])[H])C3([H])C([H])([H])C([H])(N([H])C(=O)N3C([H])([H])C([H])([H])C([H])([H])C([H])(n4nc(-c5c([H])c([H])c(Oc6c([H])c([H])c(F)c([H])c6F)c([H])c5[H])c(C(=O)N([H])[H])c4N([H])[H])C3([H])[H])C([H])([H])C(=O)N([H])[H])c([H])c([H])c2C1([H])[H]

$$$$
91:0:0
     RDKit          3D

 94102  0  0  1  0  0  0  0  0999 V2000
  -27.5940  -20.1640   19.1980 C   0  0  0  0  0  2  0  0  0  0  0  0
  -28.1810  -19.7270   17.8580 C   0  0  0  0  0  2  0  0  0  0  0  0
  -28.8060  -20.3030   20.1360 C   0  0  0  0  0  3  0  0  0  0  0  0
  -29.7630  -18.9980   19.6150 C   0  0  0  0  0  3  0  0  0  0  0  0
  -29.1810  -18.6260   18.2280 C   0  0  0  0  0  3  0  0  0  0  0  0
  -30.2090  -18.4140   17.1900 N   0  0  0  0  0  4  0  0  0  0  0  0
  -30.7560  -19.2420   17.0360 H   0  0  0  0  0  0  0  0  0  0  0  0
  -29.7760  -18.1600   16.3180 H   0  0  0  0  0  0  0  0  0  0  0  0
  -30.8290  -17.6690   17.4520 H   0  0  0  0  0  0  0  0  0  0  0  0
  -29.2770  -21.8980   20.2260 C   0  0  0  0  0  0  0  0  0  0  0  0
  -30.4100  -22.0970   20.6710 O   0  0  0  0  0  0  0  0  0  0  0  0
  -28.4150  -23.2520   19.7870 C   0  0  0  0  0  2  0  0  0  0  0  0
  -28.3380  -24.7180   20.6120 C   0  0  0  0  0  2  0  0  0  0  0  0
  -28.3740  -26.1830   20.0960 O   0  0  0  0  0  0  0  0  0  0  0  0
  -24.5290  -31.7070   23.1330 C   0  0  0  0  0  0  0  0  0  0  0  0
  -27.2590  -27.0880   20.1210 C   0  0  0  0  0  0  0  0  0  0  0  0
  -23.3840  -30.2960   21.4660 C   0  0  0  0  0  3  0  0  0  0  0  0
  -24.8870  -28.7550   20.0620 C   0  0  0  0  0  0  0  0  0  0  0  0
  -25.9300  -30.6260   21.3360 C   0  0  0  0  0  2  0  0  0  0  0  0
  -26.0460  -29.2380   20.6830 C   0  0  0  0  0  0  0  0  0  0  0  0
  -27.2370  -28.4230   20.6880 C   0  0  0  0  0  3  0  0  0  0  0  0
  -26.0710  -26.6880   19.4800 C   0  0  0  0  0  3  0  0  0  0  0  0
  -24.9100  -27.4930   19.4460 C   0  0  0  0  0  3  0  0  0  0  0  0
  -23.6400  -29.6260   20.0880 C   0  0  0  0  0  2  0  0  0  0  0  0
  -24.6330  -30.8980   22.0340 N   0  0  0  0  0  0  0  0  0  0  0  0
  -23.4290  -31.9630   23.6470 O   0  0  0  0  0  0  0  0  0  0  0  0
  -22.7140  -29.2700   22.4130 C   0  0  0  0  0  0  0  0  0  0  0  0
  -21.3890  -29.0810   22.2720 N   0  0  0  0  0  0  0  0  0  0  0  0
  -23.3870  -28.6440   23.2350 O   0  0  0  0  0  0  0  0  0  0  0  0
  -20.9010  -29.6380   21.5840 H   0  0  0  0  0  0  0  0  0  0  0  0
  -18.0220  -27.8260   22.7270 C   0  0  0  0  0  0  0  0  0  0  0  0
  -20.5740  -28.1240   23.0250 C   0  0  0  0  0  3  0  0  0  0  0  0
  -20.7040  -26.6990   22.4380 C   0  0  0  0  0  2  0  0  0  0  0  0
  -19.6180  -26.3690   21.4090 C   0  0  0  0  0  2  0  0  0  0  0  0
  -18.2270  -26.4860   22.0380 C   0  0  0  0  0  2  0  0  0  0  0  0
  -19.1250  -28.6010   23.1750 C   0  0  0  0  0  0  0  0  0  0  0  0
  -18.8780  -29.8530   23.7810 C   0  0  0  0  0  3  0  0  0  0  0  0
  -17.5630  -30.3300   23.9400 C   0  0  0  0  0  3  0  0  0  0  0  0
  -16.4760  -29.5520   23.5070 C   0  0  0  0  0  3  0  0  0  0  0  0
  -16.7070  -28.3010   22.9050 C   0  0  0  0  0  3  0  0  0  0  0  0
  -25.7830  -32.3650   23.7840 C   0  0  0  0  0  3  0  0  0  0  0  0
  -25.4350  -33.7520   24.1290 N   0  0  0  0  0  0  0  0  0  0  0  0
  -25.7490  -34.8250   23.3910 C   0  0  0  0  0  0  0  0  0  0  0  0
  -26.4290  -34.7530   22.3650 O   0  0  0  0  0  0  0  0  0  0  0  0
  -24.8290  -33.8800   24.9270 H   0  0  0  0  0  0  0  0  0  0  0  0
  -23.9770  -36.5820   23.0600 C   0  0  0  0  0  1  0  0  0  0  0  0
  -25.2270  -36.1960   23.8670 C   0  0  0  0  0  3  0  0  0  0  0  0
  -27.3390  -37.1230   24.7090 C   0  0  0  0  0  1  0  0  0  0  0  0
  -26.2340  -37.2770   23.7680 N   0  0  0  0  0  0  0  0  0  0  0  0
  -25.8040  -38.1840   23.9270 H   0  0  0  0  0  0  0  0  0  0  0  0
  -26.2950  -31.5930   25.0630 C   0  0  1  0  0  0  0  0  0  0  0  0
  -25.1910  -31.3260   26.1130 C   0  0  0  0  0  1  0  0  0  0  0  0
  -26.9110  -30.2300   24.6730 C   0  0  0  0  0  1  0  0  0  0  0  0
  -27.4200  -32.4030   25.7490 C   0  0  0  0  0  1  0  0  0  0  0  0
  -29.8600  -17.7730   21.9370 C   0  0  0  0  0  1  0  0  0  0  0  0
  -30.2120  -17.5950   20.4540 C   0  0  0  0  0  3  0  0  0  0  0  0
  -30.6870  -14.9050   19.9220 C   0  0  0  0  0  0  0  0  0  0  0  0
  -30.4730  -12.5700   18.9570 C   0  0  0  0  0  2  0  0  0  0  0  0
  -29.4730  -12.5530   17.7790 C   0  0  0  0  0  2  0  0  0  0  0  0
  -28.0280  -12.3760   18.2910 C   0  0  0  0  0  2  0  0  0  0  0  0
  -27.7060  -13.3040   19.4920 C   0  0  0  0  0  3  0  0  0  0  0  0
  -28.8190  -13.2780   20.5580 C   0  0  0  0  0  2  0  0  0  0  0  0
  -30.0620  -13.6640   19.8770 N   0  0  0  0  0  0  0  0  0  0  0  0
  -31.8880  -14.9560   19.6390 O   0  0  0  0  0  0  0  0  0  0  0  0
  -29.9120  -16.0870   20.0710 N   0  0  0  0  0  0  0  0  0  0  0  0
  -28.9320  -15.8610   20.1370 H   0  0  0  0  0  0  0  0  0  0  0  0
  -25.3810  -13.9340   20.3590 C   0  0  0  0  0  0  0  0  0  0  0  0
  -24.3190  -13.1800   20.7780 C   0  0  0  0  0  0  0  0  0  0  0  0
  -24.7510  -11.8200   20.7160 C   0  0  0  0  0  0  0  0  0  0  0  0
  -26.3890  -13.0340   20.0590 N   0  0  0  0  0  0  0  0  0  0  0  0
  -26.0240  -11.7570   20.3400 N   0  0  0  0  0  0  0  0  0  0  0  0
  -24.0070  -10.5730   20.9330 C   0  0  0  0  0  0  0  0  0  0  0  0
  -24.4570   -9.5920   21.8450 C   0  0  0  0  0  3  0  0  0  0  0  0
  -23.7110   -8.4120   22.0520 C   0  0  0  0  0  3  0  0  0  0  0  0
  -22.5020   -8.2030   21.3470 C   0  0  0  0  0  0  0  0  0  0  0  0
  -22.0700   -9.1720   20.4240 C   0  0  0  0  0  3  0  0  0  0  0  0
  -22.8160  -10.3440   20.2150 C   0  0  0  0  0  3  0  0  0  0  0  0
  -21.7250   -7.0760   21.4640 O   0  0  0  0  0  0  0  0  0  0  0  0
  -21.6990   -6.3370   22.6200 C   0  0  0  0  0  0  0  0  0  0  0  0
  -21.3400   -6.9070   23.8610 C   0  0  0  0  0  3  0  0  0  0  0  0
  -21.2590   -6.0970   25.0110 C   0  0  0  0  0  3  0  0  0  0  0  0
  -21.5260   -4.7180   24.9220 C   0  0  0  0  0  0  0  0  0  0  0  0
  -21.8780   -4.1470   23.6860 C   0  0  0  0  0  3  0  0  0  0  0  0
  -21.9610   -4.9550   22.5370 C   0  0  0  0  0  0  0  0  0  0  0  0
  -22.2800   -4.3960   21.3450 F   0  0  0  0  0  0  0  0  0  0  0  0
  -21.4410   -3.9370   26.0240 F   0  0  0  0  0  0  0  0  0  0  0  0
  -22.9480  -13.6880   21.1190 C   0  0  0  0  0  0  0  0  0  0  0  0
  -22.2510  -13.0070   22.0210 N   0  0  0  0  0  0  0  0  0  0  0  0
  -22.5080  -14.7210   20.6180 O   0  0  0  0  0  0  0  0  0  0  0  0
  -22.6220  -12.1710   22.4470 H   0  0  0  0  0  0  0  0  0  0  0  0
  -21.3330  -13.3290   22.2930 H   0  0  0  0  0  0  0  0  0  0  0  0
  -25.5630  -15.3020   20.1790 N   0  0  0  0  0  0  0  0  0  0  0  0
  -24.8080  -15.9630   20.3290 H   0  0  0  0  0  0  0  0  0  0  0  0
  -26.3820  -15.7280   19.7700 H   0  0  0  0  0  0  0  0  0  0  0  0
  1  3  1  0
  2  5  1  0
  2  1  1  0
  3 10  1  0
  4  3  1  0
  4 56  1  0
  5  6  1  0
  5  4  1  0
  6  9  1  0
  7  6  1  0
  8  6  1  0
 10 11  2  0
 12 10  1  0
 12 13  1  0
 14 16  1  0
 14 13  1  0
 15 26  2  0
 16 21  1  0
 17 25  1  0
 17 27  1  0
 18 24  1  0
 18 20  1  0
 19 25  1  0
 20 21  2  0
 20 19  1  0
 22 16  2  0
 23 22  1  0
 23 18  2  0
 24 17  1  0
 25 15  1  0
 27 29  2  0
 28 27  1  0
 30 28  1  0
 31 40  2  0
 31 36  1  0
 32 28  1  0
 32 36  1  0
 33 32  1  0
 34 35  1  0
 34 33  1  0
 35 31  1  0
 36 37  2  0
 37 38  1  0
 39 38  2  0
 40 39  1  0
 41 15  1  0
 41 42  1  0
 41 51  1  0
 42 45  1  0
 43 47  1  0
 43 42  1  0
 44 43  2  0
 47 46  1  0
 49 47  1  0
 49 50  1  0
 49 48  1  0
 51 54  1  1
 51 52  1  0
 53 51  1  0
 56 55  1  0
 57 65  1  0
 58 63  1  0
 59 60  1  0
 59 58  1  0
 61 60  1  0
 61 70  1  0
 61 62  1  0
 63 57  1  0
 63 62  1  0
 64 57  2  0
 65 66  1  0
 65 56  1  0
 67 68  2  0
 68 87  1  0
 69 68  1  0
 69 72  1  0
 70 71  1  0
 70 67  1  0
 71 69  2  0
 72 73  1  0
 73 74  2  0
 75 78  1  0
 75 74  1  0
 76 75  2  0
 77 76  1  0
 77 72  2  0
 78 79  1  0
 79 80  1  0
 80 81  2  0
 82 81  1  0
 82 86  1  0
 83 82  2  0
 84 79  2  0
 84 83  1  0
 85 84  1  0
 87 88  1  0
 88 91  1  0
 88 90  1  0
 89 87  2  0
 92 93  1  0
 92 67  1  0
 94 92  1  0
M  ISO  4  13 101  14 101  57 100  65 100
M  END
>  <TORSDO>  (91) 
F 21

>  <SCORE>  (91) 
-13.694

>  <name>  (91) 
91

>  <ligand_id>  (91) 
91

>  <original_smiles>  (91) 
[H]c1c([H])c([H])c2c(c1[H])C([H])([H])C([H])([H])C([H])([H])C2([H])N([H])C(=O)C1([H])N(C(=O)C([H])(N([H])C(=O)C([H])(N([H])C([H])([H])[H])C([H])([H])[H])C(C([H])([H])[H])(C([H])([H])[H])C([H])([H])[H])C([H])([H])c2c([H])c(OC([H])([H])C([H])([H])C(=O)C3([H])C([H])([H])C([H])([H])C([H])([N+]([H])([H])[H])C3([H])C([H])(N([H])C(=O)N3C([H])([H])C([H])([H])C([H])([H])C([H])(n4nc(-c5c([H])c([H])c(Oc6c([H])c([H])c(F)c([H])c6F)c([H])c5[H])c(C(=O)N([H])[H])c4N([H])[H])C3([H])[H])C([H])([H])[H])c([H])c([H])c2C1([H])[H]

>  <smiles>  (91) 
[H]c1c([H])c([H])c2c(c1[H])C([H])([H])C([H])([H])C([H])([H])C2([H])N([H])C(=O)C1([H])N(C(=O)C([H])(N([H])C(=O)C([H])(N([H])C([H])([H])[H])C([H])([H])[H])C(C([H])([H])[H])(C([H])([H])[H])C([H])([H])[H])C([H])([H])c2c([H])c(OC([H])([H])C([H])([H])C(=O)C3([H])C([H])([H])C([H])([H])C([H])([N+]([H])([H])[H])C3([H])C([H])(N([H])C(=O)N3C([H])([H])C([H])([H])C([H])([H])C([H])(n4nc(-c5c([H])c([H])c(Oc6c([H])c([H])c(F)c([H])c6F)c([H])c5[H])c(C(=O)N([H])[H])c4N([H])[H])C3([H])[H])C([H])([H])[H])c([H])c([H])c2C1([H])[H]

$$$$
92:0:0
     RDKit          3D

 88 85  0  0  1  0  0  0  0  0999 V2000
  -24.6350  -28.1090   23.7600 C   0  0  0  0  0 15  0  0  0  0  0  0
  -25.7940  -25.0000   22.8380 C   0  0  0  0  0  2  0  0  0  0  0  0
  -25.3800  -26.5900   22.8420 N   0  0  0  0  0  2  0  0  0  0  0  0
  -25.3690  -24.4820   23.8700 O   0  0  0  0  0  1  0  0  0  0  0  0
  -25.7040  -26.9530   21.9520 H   0  0  0  0  0  0  0  0  0  0  0  0
  -26.7640  -23.5750   21.8130 C   0  0  0  0  0 15  0  0  0  0  0  0
  -27.1700  -21.5150   21.6030 C   0  0  0  0  0 15  0  0  0  0  0  0
  -28.3180  -19.9760   20.7260 C   0  0  0  0  0 15  0  0  0  0  0  0
  -28.6940  -17.9100   20.5380 C   0  0  0  0  0 15  0  0  0  0  0  0
  -29.8370  -16.3760   19.8940 C   0  0  0  0  0  2  0  0  0  0  0  0
  -30.4240  -13.8220   18.9080 C   0  0  0  0  0  2  0  0  0  0  0  0
  -29.5750  -13.1790   17.7450 C   0  0  0  0  0  2  0  0  0  0  0  0
  -28.2350  -12.6360   18.2580 C   0  0  0  0  0  2  0  0  0  0  0  0
  -27.6590  -13.6240   19.2900 C   0  0  0  0  0  3  0  0  0  0  0  0
  -28.6470  -14.0470   20.3950 C   0  0  0  0  0  2  0  0  0  0  0  0
  -29.6590  -14.8940   19.7590 N   0  0  0  0  0  0  0  0  0  0  0  0
  -31.0110  -16.5110   19.4420 O   0  0  0  0  0  1  0  0  0  0  0  0
  -25.3770  -14.0330   20.2660 C   0  0  0  0  0  0  0  0  0  0  0  0
  -24.3930  -13.2000   20.7080 C   0  0  0  0  0  0  0  0  0  0  0  0
  -24.9020  -11.8710   20.5680 C   0  0  0  0  0  0  0  0  0  0  0  0
  -26.4070  -13.2070   19.8700 N   0  0  0  0  0  0  0  0  0  0  0  0
  -26.1520  -11.8980   20.1160 N   0  0  0  0  0  0  0  0  0  0  0  0
  -24.2450  -10.5780   20.7780 C   0  0  0  0  0  0  0  0  0  0  0  0
  -24.6840   -9.6760   21.7720 C   0  0  0  0  0  3  0  0  0  0  0  0
  -24.0160   -8.4480   21.9650 C   0  0  0  0  0  3  0  0  0  0  0  0
  -22.8960   -8.1160   21.1660 C   0  0  0  0  0  0  0  0  0  0  0  0
  -22.4790   -9.0080   20.1630 C   0  0  0  0  0  3  0  0  0  0  0  0
  -23.1480  -10.2270   19.9690 C   0  0  0  0  0  3  0  0  0  0  0  0
  -22.2000   -6.9360   21.2650 O   0  0  0  0  0  0  0  0  0  0  0  0
  -21.9560   -6.3450   22.4790 C   0  0  0  0  0  0  0  0  0  0  0  0
  -21.2710   -7.0200   23.5130 C   0  0  0  0  0  3  0  0  0  0  0  0
  -20.9810   -6.3520   24.7190 C   0  0  0  0  0  3  0  0  0  0  0  0
  -21.3640   -5.0080   24.8890 C   0  0  0  0  0  0  0  0  0  0  0  0
  -22.0410   -4.3320   23.8590 C   0  0  0  0  0  3  0  0  0  0  0  0
  -22.3330   -4.9990   22.6550 C   0  0  0  0  0  0  0  0  0  0  0  0
  -22.9670   -4.3370   21.6580 F   0  0  0  0  0  0  0  0  0  0  0  0
  -21.0780   -4.3630   26.0440 F   0  0  0  0  0  0  0  0  0  0  0  0
  -23.0220  -13.6180   21.1420 C   0  0  0  0  0  0  0  0  0  0  0  0
  -22.4220  -12.8810   22.0680 N   0  0  0  0  0  0  0  0  0  0  0  0
  -22.4950  -14.6350   20.6920 O   0  0  0  0  0  0  0  0  0  0  0  0
  -22.8660  -12.0590   22.4510 H   0  0  0  0  0  0  0  0  0  0  0  0
  -21.5060  -13.1440   22.4030 H   0  0  0  0  0  0  0  0  0  0  0  0
  -25.4800  -15.4170   20.1420 N   0  0  0  0  0  0  0  0  0  0  0  0
  -24.7040  -16.0320   20.3630 H   0  0  0  0  0  0  0  0  0  0  0  0
  -26.2590  -15.8990   19.7150 H   0  0  0  0  0  0  0  0  0  0  0  0
  -23.3510  -29.9120   23.4820 C   0  0  0  0  0 15  0  0  0  0  0  0
  -22.9870  -30.9250   21.1830 C   0  0  0  0  0 15  0  0  0  0  0  0
  -24.4160  -30.5790   19.7470 O   0  0  0  0  0  1  0  0  0  0  0  0
  -24.9270  -31.4200   22.7790 C   0  0  0  0  0  0  0  0  0  0  0  0
  -25.3260  -29.7400   18.7530 C   0  0  0  0  0  3  0  0  0  0  0  0
  -23.5880  -28.7290   21.2780 C   0  0  0  0  0  2  0  0  0  0  0  0
  -24.7910  -27.8450   19.9910 C   0  0  0  0  0  3  0  0  0  0  0  0
  -26.1590  -29.7600   21.4530 C   0  0  0  0  0  2  0  0  0  0  0  0
  -25.9320  -28.7490   20.3650 C   0  0  0  0  0  3  0  0  0  0  0  0
  -26.5220  -29.3340   19.3070 C   0  0  0  0  0  2  0  0  0  0  0  0
  -25.0080  -28.5530   17.9600 C   0  0  0  0  0  2  0  0  0  0  0  0
  -24.7820  -27.4090   18.6880 C   0  0  0  0  0  2  0  0  0  0  0  0
  -23.4040  -28.3210   19.9590 C   0  0  0  0  0  2  0  0  0  0  0  0
  -24.9580  -30.0600   21.9660 N   0  0  0  0  0  2  0  0  0  0  0  0
  -23.8840  -32.0360   23.2090 O   0  0  0  0  0  0  0  0  0  0  0  0
  -22.0500  -28.2480   21.7390 C   0  0  0  0  0  0  0  0  0  0  0  0
  -20.8370  -28.9020   21.9070 N   0  0  0  0  0  0  0  0  0  0  0  0
  -22.2330  -27.3280   22.4600 O   0  0  0  0  0  0  0  0  0  0  0  0
  -20.6360  -29.8160   21.5270 H   0  0  0  0  0  0  0  0  0  0  0  0
  -17.4020  -28.2050   22.8610 C   0  0  0  0  0  0  0  0  0  0  0  0
  -19.9450  -28.2820   22.9180 C   0  0  0  0  0  3  0  0  0  0  0  0
  -19.7470  -26.7590   22.6210 C   0  0  0  0  0  2  0  0  0  0  0  0
  -18.7680  -26.5710   21.5060 C   0  0  0  0  0  2  0  0  0  0  0  0
  -17.4250  -26.8710   22.1310 C   0  0  0  0  0  2  0  0  0  0  0  0
  -18.5850  -28.9270   23.1730 C   0  0  0  0  0  0  0  0  0  0  0  0
  -18.4730  -30.1820   23.8130 C   0  0  0  0  0  3  0  0  0  0  0  0
  -17.2010  -30.7020   24.1340 C   0  0  0  0  0  3  0  0  0  0  0  0
  -16.0390  -29.9650   23.8420 C   0  0  0  0  0  3  0  0  0  0  0  0
  -16.1450  -28.7160   23.2120 C   0  0  0  0  0  3  0  0  0  0  0  0
  -26.0370  -32.2910   23.4030 C   0  0  0  0  0  3  0  0  0  0  0  0
  -25.5870  -33.6900   23.8060 N   0  0  0  0  0  0  0  0  0  0  0  0
  -25.7780  -34.8480   23.1530 C   0  0  0  0  0  0  0  0  0  0  0  0
  -26.3740  -34.8820   22.0780 O   0  0  0  0  0  0  0  0  0  0  0  0
  -25.0460  -33.7340   24.6570 H   0  0  0  0  0  0  0  0  0  0  0  0
  -24.0560  -36.7330   23.0730 C   0  0  0  0  0  1  0  0  0  0  0  0
  -25.2990  -36.1830   23.7980 C   0  0  0  0  0  3  0  0  0  0  0  0
  -27.4540  -36.9520   24.7150 C   0  0  0  0  0  1  0  0  0  0  0  0
  -26.3420  -37.2390   23.8140 N   0  0  0  0  0  0  0  0  0  0  0  0
  -25.9460  -38.1350   24.0830 H   0  0  0  0  0  0  0  0  0  0  0  0
  -26.4330  -31.5780   24.7360 C   0  0  1  0  0  0  0  0  0  0  0  0
  -25.2870  -31.2770   25.7550 C   0  0  0  0  0  1  0  0  0  0  0  0
  -27.1470  -30.2610   24.4470 C   0  0  0  0  0  1  0  0  0  0  0  0
  -27.4920  -32.4510   25.4220 C   0  0  0  0  0  1  0  0  0  0  0  0
  2  3  1  0
  2  4  1  0
  5  3  1  0
 11 16  1  0
 12 13  1  0
 12 11  1  0
 14 13  1  0
 14 21  1  0
 14 15  1  0
 16 10  1  0
 16 15  1  0
 17 10  1  0
 18 19  2  0
 19 38  1  0
 20 19  1  0
 20 23  1  0
 21 22  1  0
 21 18  1  0
 22 20  2  0
 23 24  1  0
 24 25  2  0
 26 29  1  0
 26 25  1  0
 27 26  2  0
 28 27  1  0
 28 23  2  0
 29 30  1  0
 30 35  2  0
 30 31  1  0
 31 32  2  0
 32 33  1  0
 33 37  1  0
 34 33  2  0
 35 34  1  0
 36 35  1  0
 38 39  1  0
 39 42  1  0
 39 41  1  0
 40 38  2  0
 43 18  1  0
 43 44  1  0
 45 43  1  0
 49 60  2  0
 50 55  1  0
 50 48  1  0
 51 61  1  0
 52 58  1  0
 52 54  1  0
 53 59  1  0
 54 53  1  0
 55 54  1  0
 56 57  1  0
 56 50  1  0
 57 52  1  0
 58 51  1  0
 59 49  1  0
 61 62  1  0
 61 63  2  0
 64 62  1  0
 65 70  2  0
 65 74  1  0
 66 62  1  0
 66 70  1  0
 67 66  1  0
 68 69  1  0
 68 67  1  0
 69 65  1  0
 70 71  1  0
 71 72  2  0
 73 72  1  0
 74 73  2  0
 75 49  1  0
 75 76  1  0
 75 85  1  0
 76 79  1  0
 77 81  1  0
 77 76  1  0
 78 77  2  0
 81 80  1  0
 81 83  1  0
 83 84  1  0
 83 82  1  0
 85 88  1  1
 85 86  1  0
 87 85  1  0
M  ISO  4   9 100  10 100  47 101  48 101
M  END
>  <TORSDO>  (92) 
F 23

>  <SCORE>  (92) 
-11.470

>  <name>  (92) 
92

>  <ligand_id>  (92) 
92

>  <original_smiles>  (92) 
[H]c1c([H])c([H])c2c(c1[H])C([H])([H])C([H])([H])C([H])([H])C2([H])N([H])C(=O)C1([H])N(C(=O)C([H])(N([H])C(=O)C([H])(N([H])C([H])([H])[H])C([H])([H])[H])C(C([H])([H])[H])(C([H])([H])[H])C([H])([H])[H])C([H])([H])c2c([H])c(OC([H])([H])C([H])([H])C([H])([H])N([H])C(=O)C([H])([H])C([H])([H])C([H])([H])C([H])([H])C(=O)N3C([H])([H])C([H])([H])C([H])([H])C([H])(n4nc(-c5c([H])c([H])c(Oc6c([H])c([H])c(F)c([H])c6F)c([H])c5[H])c(C(=O)N([H])[H])c4N([H])[H])C3([H])[H])c([H])c([H])c2C1([H])[H]

>  <smiles>  (92) 
[H]c1c([H])c([H])c2c(c1[H])C([H])([H])C([H])([H])C([H])([H])C2([H])N([H])C(=O)C1([H])N(C(=O)C([H])(N([H])C(=O)C([H])(N([H])C([H])([H])[H])C([H])([H])[H])C(C([H])([H])[H])(C([H])([H])[H])C([H])([H])[H])C([H])([H])c2c([H])c(OC([H])([H])C([H])([H])C([H])([H])N([H])C(=O)C([H])([H])C([H])([H])C([H])([H])C([H])([H])C(=O)N3C([H])([H])C([H])([H])C([H])([H])C([H])(n4nc(-c5c([H])c([H])c(Oc6c([H])c([H])c(F)c([H])c6F)c([H])c5[H])c(C(=O)N([H])[H])c4N([H])[H])C3([H])[H])c([H])c([H])c2C1([H])[H]

$$$$
93:0:0
     RDKit          3D

 93101  0  0  1  0  0  0  0  0999 V2000
  -28.2870  -21.4880   19.8660 C   0  0  0  0  0  3  0  0  0  0  0  0
  -28.4120  -20.0840   19.6980 C   0  0  0  0  0  3  0  0  0  0  0  0
  -29.7010  -21.3570   21.8170 C   0  0  0  0  0  3  0  0  0  0  0  0
  -28.9260  -22.1540   20.9390 C   0  0  0  0  0  0  0  0  0  0  0  0
  -29.1590  -19.2910   20.6050 C   0  0  0  0  0  0  0  0  0  0  0  0
  -29.7910  -19.9560   21.6860 C   0  0  0  0  0  0  0  0  0  0  0  0
  -30.5230  -19.2170   22.7870 C   0  0  0  0  0  1  0  0  0  0  0  0
  -29.1690  -17.7570   20.4850 C   0  0  0  0  0  2  0  0  0  0  0  0
  -30.5500  -17.0500   20.6430 C   0  0  0  0  0  2  0  0  0  0  0  0
  -31.1790  -14.6180   20.3920 C   0  0  0  0  0  0  0  0  0  0  0  0
  -31.0000  -12.3670   19.4000 C   0  0  0  0  0  2  0  0  0  0  0  0
  -30.0590  -12.4450   18.1740 C   0  0  0  0  0  2  0  0  0  0  0  0
  -28.5790  -12.3360   18.5940 C   0  0  0  0  0  2  0  0  0  0  0  0
  -28.2110  -13.2730   19.7760 C   0  0  0  0  0  3  0  0  0  0  0  0
  -29.2430  -13.0960   20.9140 C   0  0  0  0  0  2  0  0  0  0  0  0
  -30.5760  -13.4010   20.3590 N   0  0  0  0  0  0  0  0  0  0  0  0
  -32.2860  -14.8430   19.8950 O   0  0  0  0  0  0  0  0  0  0  0  0
  -30.3910  -15.6050   20.8580 N   0  0  0  0  0  0  0  0  0  0  0  0
  -29.5390  -15.3040   21.3100 H   0  0  0  0  0  0  0  0  0  0  0  0
  -25.8180  -13.9420   20.4530 C   0  0  0  0  0  0  0  0  0  0  0  0
  -24.7260  -13.1930   20.8130 C   0  0  0  0  0  0  0  0  0  0  0  0
  -25.1540  -11.8330   20.7760 C   0  0  0  0  0  0  0  0  0  0  0  0
  -26.8430  -13.0350   20.2350 N   0  0  0  0  0  0  0  0  0  0  0  0
  -26.4460  -11.7630   20.4800 N   0  0  0  0  0  0  0  0  0  0  0  0
  -24.4000  -10.5860   20.9550 C   0  0  0  0  0  0  0  0  0  0  0  0
  -24.7640   -9.6420   21.9400 C   0  0  0  0  0  3  0  0  0  0  0  0
  -24.0170   -8.4560   22.1010 C   0  0  0  0  0  3  0  0  0  0  0  0
  -22.8930   -8.2080   21.2790 C   0  0  0  0  0  0  0  0  0  0  0  0
  -22.5500   -9.1400   20.2840 C   0  0  0  0  0  3  0  0  0  0  0  0
  -23.2970  -10.3180   20.1190 C   0  0  0  0  0  3  0  0  0  0  0  0
  -22.1180   -7.0760   21.3530 O   0  0  0  0  0  0  0  0  0  0  0  0
  -21.9010   -6.4280   22.5430 C   0  0  0  0  0  0  0  0  0  0  0  0
  -21.3140   -7.0780   23.6500 C   0  0  0  0  0  3  0  0  0  0  0  0
  -21.0470   -6.3550   24.8300 C   0  0  0  0  0  3  0  0  0  0  0  0
  -21.3550   -4.9820   24.9010 C   0  0  0  0  0  0  0  0  0  0  0  0
  -21.9310   -4.3320   23.7950 C   0  0  0  0  0  3  0  0  0  0  0  0
  -22.2010   -5.0540   22.6200 C   0  0  0  0  0  0  0  0  0  0  0  0
  -22.7390   -4.4180   21.5520 F   0  0  0  0  0  0  0  0  0  0  0  0
  -21.0900   -4.2840   26.0300 F   0  0  0  0  0  0  0  0  0  0  0  0
  -23.3390  -13.7020   21.0840 C   0  0  0  0  0  0  0  0  0  0  0  0
  -22.5980  -13.0260   21.9580 N   0  0  0  0  0  0  0  0  0  0  0  0
  -22.9170  -14.7270   20.5530 O   0  0  0  0  0  0  0  0  0  0  0  0
  -22.9500  -12.1950   22.4100 H   0  0  0  0  0  0  0  0  0  0  0  0
  -21.6650  -13.3430   22.1780 H   0  0  0  0  0  0  0  0  0  0  0  0
  -26.0210  -15.3070   20.2750 N   0  0  0  0  0  0  0  0  0  0  0  0
  -25.2810  -15.9950   20.3700 H   0  0  0  0  0  0  0  0  0  0  0  0
  -26.8860  -15.7040   19.9290 H   0  0  0  0  0  0  0  0  0  0  0  0
  -28.6570  -23.6560   21.2420 C   0  0  0  0  0  3  0  0  0  0  0  0
  -30.0520  -24.4290   23.3390 C   0  0  0  0  0  1  0  0  0  0  0  0
  -28.6970  -23.9610   22.7690 C   0  0  0  0  0  2  0  0  0  0  0  0
  -29.4430  -24.7000   20.3850 C   0  0  0  0  0  2  0  0  0  0  0  0
  -28.9800  -26.1840   20.5550 C   0  0  0  0  0  2  0  0  0  0  0  0
  -28.5230  -26.7810   19.3360 O   0  0  0  0  0  0  0  0  0  0  0  0
  -24.5820  -31.5070   22.9860 C   0  0  0  0  0  0  0  0  0  0  0  0
  -27.3450  -27.4810   19.4600 C   0  0  0  0  0  0  0  0  0  0  0  0
  -23.3890  -30.1550   21.2900 C   0  0  0  0  0  3  0  0  0  0  0  0
  -24.8670  -28.8120   19.6980 C   0  0  0  0  0  0  0  0  0  0  0  0
  -25.8820  -30.6730   21.0330 C   0  0  0  0  0  2  0  0  0  0  0  0
  -26.0150  -29.3630   20.2830 C   0  0  0  0  0  0  0  0  0  0  0  0
  -27.2580  -28.6990   20.1740 C   0  0  0  0  0  3  0  0  0  0  0  0
  -26.1920  -26.9570   18.8450 C   0  0  0  0  0  3  0  0  0  0  0  0
  -24.9470  -27.6040   18.9790 C   0  0  0  0  0  3  0  0  0  0  0  0
  -23.5800  -29.5890   19.8560 C   0  0  0  0  0  2  0  0  0  0  0  0
  -24.6340  -30.7950   21.8250 N   0  0  0  0  0  0  0  0  0  0  0  0
  -23.5120  -31.6750   23.5870 O   0  0  0  0  0  0  0  0  0  0  0  0
  -22.8370  -29.0300   22.1950 C   0  0  0  0  0  0  0  0  0  0  0  0
  -21.5230  -28.7670   22.0940 N   0  0  0  0  0  0  0  0  0  0  0  0
  -23.5890  -28.3990   22.9420 O   0  0  0  0  0  0  0  0  0  0  0  0
  -20.9660  -29.3470   21.4790 H   0  0  0  0  0  0  0  0  0  0  0  0
  -18.2770  -27.2420   22.5220 C   0  0  0  0  0  0  0  0  0  0  0  0
  -20.7990  -27.7220   22.8170 C   0  0  0  0  0  3  0  0  0  0  0  0
  -21.0310  -26.3300   22.1830 C   0  0  0  0  0  2  0  0  0  0  0  0
  -19.9670  -25.9550   21.1470 C   0  0  0  0  0  2  0  0  0  0  0  0
  -18.5770  -25.9450   21.7890 C   0  0  0  0  0  2  0  0  0  0  0  0
  -19.3210  -28.0850   22.9900 C   0  0  0  0  0  0  0  0  0  0  0  0
  -18.9860  -29.2980   23.6300 C   0  0  0  0  0  3  0  0  0  0  0  0
  -17.6400  -29.6690   23.8080 C   0  0  0  0  0  3  0  0  0  0  0  0
  -16.6110  -28.8240   23.3580 C   0  0  0  0  0  3  0  0  0  0  0  0
  -16.9320  -27.6110   22.7210 C   0  0  0  0  0  3  0  0  0  0  0  0
  -25.8600  -32.1630   23.6010 C   0  0  0  0  0  3  0  0  0  0  0  0
  -25.4880  -33.5110   24.0540 N   0  0  0  0  0  0  0  0  0  0  0  0
  -25.7350  -34.6380   23.3720 C   0  0  0  0  0  0  0  0  0  0  0  0
  -26.3740  -34.6540   22.3150 O   0  0  0  0  0  0  0  0  0  0  0  0
  -24.9300  -33.5750   24.8920 H   0  0  0  0  0  0  0  0  0  0  0  0
  -23.9060  -36.3530   23.2110 C   0  0  0  0  0  1  0  0  0  0  0  0
  -25.1880  -35.9530   23.9560 C   0  0  0  0  0  3  0  0  0  0  0  0
  -27.2940  -36.8890   24.8020 C   0  0  0  0  0  1  0  0  0  0  0  0
  -26.1570  -37.0690   23.9040 N   0  0  0  0  0  0  0  0  0  0  0  0
  -25.7050  -37.9490   24.1320 H   0  0  0  0  0  0  0  0  0  0  0  0
  -26.4840  -31.3280   24.7860 C   0  0  1  0  0  0  0  0  0  0  0  0
  -25.4660  -30.9560   25.8880 C   0  0  0  0  0  1  0  0  0  0  0  0
  -27.1150  -30.0150   24.2620 C   0  0  0  0  0  1  0  0  0  0  0  0
  -27.6240  -32.1360   25.4520 C   0  0  0  0  0  1  0  0  0  0  0  0
  1  4  1  0
  2  1  2  0
  2  5  1  0
  4 48  1  0
  4  3  2  0
  5  6  2  0
  6  3  1  0
  6  7  1  0
  8  5  1  0
  8  9  1  0
  9 18  1  0
 10 18  1  0
 11 16  1  0
 12 13  1  0
 12 11  1  0
 14 13  1  0
 14 23  1  0
 14 15  1  0
 16 10  1  0
 16 15  1  0
 17 10  2  0
 18 19  1  0
 20 21  2  0
 21 40  1  0
 22 21  1  0
 22 25  1  0
 23 20  1  0
 23 24  1  0
 24 22  2  0
 25 26  1  0
 26 27  2  0
 28 31  1  0
 28 27  1  0
 29 28  2  0
 30 29  1  0
 30 25  2  0
 31 32  1  0
 32 37  2  0
 32 33  1  0
 33 34  2  0
 34 35  1  0
 35 39  1  0
 36 35  2  0
 37 36  1  0
 38 37  1  0
 40 41  1  0
 41 44  1  0
 41 43  1  0
 42 40  2  0
 45 46  1  0
 45 20  1  0
 47 45  1  0
 48 51  1  0
 48 50  1  0
 50 49  1  0
 51 52  1  0
 53 55  1  0
 53 52  1  0
 54 65  2  0
 55 60  1  0
 56 64  1  0
 56 66  1  0
 57 63  1  0
 57 59  1  0
 58 64  1  0
 59 58  1  0
 60 59  2  0
 61 62  1  0
 61 55  2  0
 62 57  2  0
 63 56  1  0
 64 54  1  0
 66 68  2  0
 67 66  1  0
 69 67  1  0
 70 79  2  0
 70 75  1  0
 71 67  1  0
 71 75  1  0
 72 71  1  0
 73 74  1  0
 73 72  1  0
 74 70  1  0
 75 76  2  0
 76 77  1  0
 78 77  2  0
 79 78  1  0
 80 54  1  0
 80 81  1  0
 80 90  1  0
 81 84  1  0
 82 86  1  0
 82 81  1  0
 83 82  2  0
 86 85  1  0
 88 86  1  0
 88 89  1  0
 88 87  1  0
 90 93  1  1
 90 91  1  0
 92 90  1  0
M  ISO  4  10 100  18 100  52 101  53 101
M  END
>  <TORSDO>  (93) 
F 22

>  <SCORE>  (93) 
-10.752

>  <name>  (93) 
93

>  <ligand_id>  (93) 
93

>  <original_smiles>  (93) 
[H]c1c([H])c([H])c2c(c1[H])C([H])([H])C([H])([H])C([H])([H])C2([H])N([H])C(=O)C1([H])N(C(=O)C([H])(N([H])C(=O)C([H])(N([H])C([H])([H])[H])C([H])([H])[H])C(C([H])([H])[H])(C([H])([H])[H])C([H])([H])[H])C([H])([H])c2c([H])c(OC([H])([H])C([H])([H])C([H])(c3c([H])c([H])c(C([H])([H])C([H])([H])N([H])C(=O)N4C([H])([H])C([H])([H])C([H])([H])C([H])(n5nc(-c6c([H])c([H])c(Oc7c([H])c([H])c(F)c([H])c7F)c([H])c6[H])c(C(=O)N([H])[H])c5N([H])[H])C4([H])[H])c(C([H])([H])[H])c3[H])C([H])([H])C([H])([H])[H])c([H])c([H])c2C1([H])[H]

>  <smiles>  (93) 
[H]c1c([H])c([H])c2c(c1[H])C([H])([H])C([H])([H])C([H])([H])C2([H])N([H])C(=O)C1([H])N(C(=O)C([H])(N([H])C(=O)C([H])(N([H])C([H])([H])[H])C([H])([H])[H])C(C([H])([H])[H])(C([H])([H])[H])C([H])([H])[H])C([H])([H])c2c([H])c(OC([H])([H])C([H])([H])C([H])(c3c([H])c([H])c(C([H])([H])C([H])([H])N([H])C(=O)N4C([H])([H])C([H])([H])C([H])([H])C([H])(n5nc(-c6c([H])c([H])c(Oc7c([H])c([H])c(F)c([H])c7F)c([H])c6[H])c(C(=O)N([H])[H])c5N([H])[H])C4([H])[H])c(C([H])([H])[H])c3[H])C([H])([H])C([H])([H])[H])c([H])c([H])c2C1([H])[H]

$$$$
94:0:0
     RDKit          3D

 98106  0  0  1  0  0  0  0  0999 V2000
  -29.5520  -18.2120   19.7230 C   0  0  0  0  0  2  0  0  0  0  0  0
  -29.5360  -20.2200   21.7690 C   0  0  0  0  0  2  0  0  0  0  0  0
  -28.6720  -19.4790   19.5070 C   0  0  0  0  0  3  0  0  0  0  0  0
  -29.2710  -20.6710   20.3160 C   0  0  0  0  0  3  0  0  0  0  0  0
  -29.7890  -17.8840   21.2150 C   0  0  0  0  0  3  0  0  0  0  0  0
  -30.4190  -19.0580   21.8150 N   0  0  0  0  0  0  0  0  0  0  0  0
  -30.6220  -18.8440   22.7880 H   0  0  0  0  0  0  0  0  0  0  0  0
  -28.3990  -21.8800   20.3520 N   0  0  0  0  0  4  0  0  0  0  0  0
  -28.3970  -22.1810   21.3120 H   0  0  0  0  0  0  0  0  0  0  0  0
  -27.4520  -21.6260   20.1240 H   0  0  0  0  0  0  0  0  0  0  0  0
  -28.8340  -23.0550   19.5440 C   0  0  0  0  0  2  0  0  0  0  0  0
  -28.2790  -24.4010   20.0860 C   0  0  0  0  0  2  0  0  0  0  0  0
  -28.6650  -25.6290   19.2250 C   0  0  0  0  0  2  0  0  0  0  0  0
  -28.5110  -26.8770   19.9170 O   0  0  0  0  0  0  0  0  0  0  0  0
  -24.5930  -31.8730   23.1380 C   0  0  0  0  0  0  0  0  0  0  0  0
  -27.2970  -27.5380   19.9380 C   0  0  0  0  0  0  0  0  0  0  0  0
  -23.4030  -30.4870   21.4690 C   0  0  0  0  0  3  0  0  0  0  0  0
  -24.8730  -29.0040   20.0070 C   0  0  0  0  0  0  0  0  0  0  0  0
  -25.9220  -30.8870   21.2720 C   0  0  0  0  0  2  0  0  0  0  0  0
  -26.0240  -29.5310   20.6020 C   0  0  0  0  0  0  0  0  0  0  0  0
  -27.2350  -28.8030   20.5680 C   0  0  0  0  0  3  0  0  0  0  0  0
  -26.1190  -27.0170   19.3530 C   0  0  0  0  0  3  0  0  0  0  0  0
  -24.9150  -27.7450   19.3830 C   0  0  0  0  0  3  0  0  0  0  0  0
  -23.6170  -29.8400   20.0750 C   0  0  0  0  0  2  0  0  0  0  0  0
  -24.6570  -31.0970   22.0180 N   0  0  0  0  0  0  0  0  0  0  0  0
  -23.5090  -32.1150   23.6880 O   0  0  0  0  0  0  0  0  0  0  0  0
  -22.7750  -29.4340   22.4100 C   0  0  0  0  0  0  0  0  0  0  0  0
  -21.4510  -29.2410   22.2910 N   0  0  0  0  0  0  0  0  0  0  0  0
  -23.4730  -28.7950   23.2020 O   0  0  0  0  0  0  0  0  0  0  0  0
  -20.9460  -29.8140   21.6290 H   0  0  0  0  0  0  0  0  0  0  0  0
  -18.0880  -28.0320   22.8200 C   0  0  0  0  0  0  0  0  0  0  0  0
  -20.6510  -28.2750   23.0450 C   0  0  0  0  0  3  0  0  0  0  0  0
  -20.7380  -26.8660   22.4140 C   0  0  0  0  0  2  0  0  0  0  0  0
  -19.6140  -26.5840   21.4120 C   0  0  0  0  0  2  0  0  0  0  0  0
  -18.2460  -26.7100   22.0870 C   0  0  0  0  0  2  0  0  0  0  0  0
  -19.2170  -28.7750   23.2540 C   0  0  0  0  0  0  0  0  0  0  0  0
  -19.0160  -30.0160   23.8950 C   0  0  0  0  0  3  0  0  0  0  0  0
  -17.7160  -30.5130   24.1070 C   0  0  0  0  0  3  0  0  0  0  0  0
  -16.6010  -29.7660   23.6910 C   0  0  0  0  0  3  0  0  0  0  0  0
  -16.7880  -28.5270   23.0510 C   0  0  0  0  0  3  0  0  0  0  0  0
  -25.8710  -32.5100   23.7650 C   0  0  0  0  0  3  0  0  0  0  0  0
  -25.5440  -33.8990   24.1180 N   0  0  0  0  0  0  0  0  0  0  0  0
  -25.8860  -34.9700   23.3890 C   0  0  0  0  0  0  0  0  0  0  0  0
  -26.5760  -34.8930   22.3700 O   0  0  0  0  0  0  0  0  0  0  0  0
  -24.9340  -34.0330   24.9110 H   0  0  0  0  0  0  0  0  0  0  0  0
  -24.1680  -36.7680   23.0140 C   0  0  0  0  0  1  0  0  0  0  0  0
  -25.3760  -36.3430   23.8640 C   0  0  0  0  0  3  0  0  0  0  0  0
  -27.4690  -37.2110   24.8130 C   0  0  0  0  0  1  0  0  0  0  0  0
  -26.4090  -37.4020   23.8250 N   0  0  0  0  0  0  0  0  0  0  0  0
  -25.9940  -38.3170   23.9800 H   0  0  0  0  0  0  0  0  0  0  0  0
  -26.4040  -31.7250   25.0260 C   0  0  1  0  0  0  0  0  0  0  0  0
  -25.3110  -31.4150   26.0750 C   0  0  0  0  0  1  0  0  0  0  0  0
  -27.0430  -30.3820   24.6010 C   0  0  0  0  0  1  0  0  0  0  0  0
  -27.5140  -32.5450   25.7230 C   0  0  0  0  0  1  0  0  0  0  0  0
  -28.5200  -19.8070   18.0000 C   0  0  0  0  0  2  0  0  0  0  0  0
  -27.8680  -19.0230   15.6590 C   0  0  0  0  0  1  0  0  0  0  0  0
  -27.9820  -18.6470   17.1420 C   0  0  0  0  0  2  0  0  0  0  0  0
  -30.6990  -16.6430   21.4860 C   0  0  0  0  0  3  0  0  0  0  0  0
  -30.6310  -14.5380   20.1000 C   0  0  0  0  0  0  0  0  0  0  0  0
  -30.2520  -12.4590   18.8150 C   0  0  0  0  0  2  0  0  0  0  0  0
  -29.2200  -12.7050   17.6960 C   0  0  0  0  0  2  0  0  0  0  0  0
  -27.7850  -12.5180   18.2250 C   0  0  0  0  0  2  0  0  0  0  0  0
  -27.5300  -13.2900   19.5470 C   0  0  0  0  0  3  0  0  0  0  0  0
  -28.6630  -13.0250   20.5630 C   0  0  0  0  0  2  0  0  0  0  0  0
  -29.9420  -13.3790   19.9220 N   0  0  0  0  0  0  0  0  0  0  0  0
  -31.6650  -14.8010   19.4790 O   0  0  0  0  0  0  0  0  0  0  0  0
  -30.0950  -15.4020   20.9810 N   0  0  0  0  0  0  0  0  0  0  0  0
  -29.2210  -15.1220   21.3990 H   0  0  0  0  0  0  0  0  0  0  0  0
  -25.1600  -13.8260   20.3970 C   0  0  0  0  0  0  0  0  0  0  0  0
  -24.1410  -13.0230   20.8340 C   0  0  0  0  0  0  0  0  0  0  0  0
  -24.6410  -11.6870   20.7800 C   0  0  0  0  0  0  0  0  0  0  0  0
  -26.2170  -12.9770   20.1080 N   0  0  0  0  0  0  0  0  0  0  0  0
  -25.9120  -11.6860   20.3930 N   0  0  0  0  0  0  0  0  0  0  0  0
  -23.9680  -10.4040   21.0200 C   0  0  0  0  0  0  0  0  0  0  0  0
  -24.3800   -9.5350   22.0540 C   0  0  0  0  0  3  0  0  0  0  0  0
  -23.7040   -8.3150   22.2770 C   0  0  0  0  0  3  0  0  0  0  0  0
  -22.6020   -7.9560   21.4650 C   0  0  0  0  0  0  0  0  0  0  0  0
  -22.2110   -8.8140   20.4220 C   0  0  0  0  0  3  0  0  0  0  0  0
  -22.8880  -10.0240   20.1980 C   0  0  0  0  0  3  0  0  0  0  0  0
  -21.9030   -6.7790   21.5900 O   0  0  0  0  0  0  0  0  0  0  0  0
  -21.6890   -6.1970   22.8140 C   0  0  0  0  0  0  0  0  0  0  0  0
  -20.9740   -6.8560   23.8390 C   0  0  0  0  0  3  0  0  0  0  0  0
  -20.7170   -6.1920   25.0540 C   0  0  0  0  0  3  0  0  0  0  0  0
  -21.1650   -4.8700   25.2460 C   0  0  0  0  0  0  0  0  0  0  0  0
  -21.8710   -4.2120   24.2240 C   0  0  0  0  0  3  0  0  0  0  0  0
  -22.1310   -4.8730   23.0110 C   0  0  0  0  0  0  0  0  0  0  0  0
  -22.7930   -4.2260   22.0210 F   0  0  0  0  0  0  0  0  0  0  0  0
  -20.9120   -4.2300   26.4110 F   0  0  0  0  0  0  0  0  0  0  0  0
  -22.7500  -13.4600   21.1920 C   0  0  0  0  0  0  0  0  0  0  0  0
  -22.1010  -12.7490   22.1090 N   0  0  0  0  0  0  0  0  0  0  0  0
  -22.2460  -14.4670   20.6960 O   0  0  0  0  0  0  0  0  0  0  0  0
  -22.5190  -11.9340   22.5320 H   0  0  0  0  0  0  0  0  0  0  0  0
  -21.1690  -13.0240   22.3890 H   0  0  0  0  0  0  0  0  0  0  0  0
  -25.2710  -15.2010   20.2030 N   0  0  0  0  0  0  0  0  0  0  0  0
  -24.4870  -15.8280   20.3460 H   0  0  0  0  0  0  0  0  0  0  0  0
  -26.0880  -15.6650   19.8290 H   0  0  0  0  0  0  0  0  0  0  0  0
  -31.6320  -15.1320   23.3850 C   0  0  0  0  0  1  0  0  0  0  0  0
  -30.9850  -16.4720   23.0010 C   0  0  0  0  0  2  0  0  0  0  0  0
  1  5  1  0
  2  6  1  0
  3 55  1  0
  3  1  1  0
  3  4  1  0
  4  8  1  0
  4  2  1  0
  5 58  1  0
  5  6  1  0
  6  7  1  0
  8  9  1  0
 10  8  1  0
 11 12  1  0
 11  8  1  0
 13 14  1  0
 13 12  1  0
 14 16  1  0
 15 26  2  0
 16 21  1  0
 17 25  1  0
 17 27  1  0
 18 24  1  0
 18 20  1  0
 19 25  1  0
 20 19  1  0
 21 20  2  0
 22 23  1  0
 22 16  2  0
 23 18  2  0
 24 17  1  0
 25 15  1  0
 27 29  2  0
 28 27  1  0
 30 28  1  0
 31 40  2  0
 31 36  1  0
 32 28  1  0
 32 36  1  0
 33 32  1  0
 34 35  1  0
 34 33  1  0
 35 31  1  0
 36 37  2  0
 37 38  1  0
 39 38  2  0
 40 39  1  0
 41 15  1  0
 41 42  1  0
 41 51  1  0
 42 45  1  0
 43 47  1  0
 43 42  1  0
 44 43  2  0
 47 46  1  0
 49 47  1  0
 49 50  1  0
 49 48  1  0
 51 54  1  1
 51 52  1  0
 53 51  1  0
 56 57  1  0
 57 55  1  0
 58 98  1  0
 59 67  1  0
 60 65  1  0
 61 62  1  0
 61 60  1  0
 63 62  1  0
 63 72  1  0
 63 64  1  0
 65 59  1  0
 65 64  1  0
 66 59  2  0
 67 68  1  0
 67 58  1  0
 69 70  2  0
 70 89  1  0
 71 70  1  0
 71 74  1  0
 72 73  1  0
 72 69  1  0
 73 71  2  0
 74 75  1  0
 75 76  2  0
 77 80  1  0
 77 76  1  0
 78 77  2  0
 79 78  1  0
 79 74  2  0
 80 81  1  0
 81 86  2  0
 81 82  1  0
 82 83  2  0
 83 84  1  0
 84 88  1  0
 85 84  2  0
 86 85  1  0
 87 86  1  0
 89 90  1  0
 90 93  1  0
 90 92  1  0
 91 89  2  0
 94 95  1  0
 94 69  1  0
 96 94  1  0
 98 97  1  0
M  ISO  4  13 101  14 101  59 100  67 100
M  END
>  <TORSDO>  (94) 
F 24

>  <SCORE>  (94) 
-8.735

>  <name>  (94) 
94

>  <ligand_id>  (94) 
94

>  <original_smiles>  (94) 
[H]c1c([H])c([H])c2c(c1[H])C([H])([H])C([H])([H])C([H])([H])C2([H])N([H])C(=O)C1([H])N(C(=O)C([H])(N([H])C(=O)C([H])(N([H])C([H])([H])[H])C([H])([H])[H])C(C([H])([H])[H])(C([H])([H])[H])C([H])([H])[H])C([H])([H])c2c([H])c(OC([H])([H])C([H])([H])C([H])([H])[N+]([H])([H])C3([H])C([H])([H])N([H])C([H])(C([H])(N([H])C(=O)N4C([H])([H])C([H])([H])C([H])([H])C([H])(n5nc(-c6c([H])c([H])c(Oc7c([H])c([H])c(F)c([H])c7F)c([H])c6[H])c(C(=O)N([H])[H])c5N([H])[H])C4([H])[H])C([H])([H])C([H])([H])[H])C([H])([H])C3([H])C([H])([H])C([H])([H])C([H])([H])[H])c([H])c([H])c2C1([H])[H]

>  <smiles>  (94) 
[H]c1c([H])c([H])c2c(c1[H])C([H])([H])C([H])([H])C([H])([H])C2([H])N([H])C(=O)C1([H])N(C(=O)C([H])(N([H])C(=O)C([H])(N([H])C([H])([H])[H])C([H])([H])[H])C(C([H])([H])[H])(C([H])([H])[H])C([H])([H])[H])C([H])([H])c2c([H])c(OC([H])([H])C([H])([H])C([H])([H])[N+]([H])([H])C3([H])C([H])([H])N([H])C([H])(C([H])(N([H])C(=O)N4C([H])([H])C([H])([H])C([H])([H])C([H])(n5nc(-c6c([H])c([H])c(Oc7c([H])c([H])c(F)c([H])c7F)c([H])c6[H])c(C(=O)N([H])[H])c5N([H])[H])C4([H])[H])C([H])([H])C([H])([H])[H])C([H])([H])C3([H])C([H])([H])C([H])([H])C([H])([H])[H])c([H])c([H])c2C1([H])[H]

$$$$
95:0:0
     RDKit          3D

 93101  0  0  1  0  0  0  0  0999 V2000
  -30.9040  -18.0340   21.8230 C   0  0  0  0  0  0  0  0  0  0  0  0
  -31.7570  -19.1650   22.3510 C   0  0  0  0  0  2  0  0  0  0  0  0
  -30.1720  -18.2380   20.4480 C   0  0  0  0  0  3  0  0  0  0  0  0
  -30.8090  -20.3330   22.5950 C   0  0  0  0  0  3  0  0  0  0  0  0
  -29.3900  -19.9070   20.5380 C   0  0  0  0  0  3  0  0  0  0  0  0
  -30.3270  -20.7950   21.2820 N   0  0  0  0  0  4  0  0  0  0  0  0
  -30.7380  -17.0610   22.5690 O   0  0  0  0  0  0  0  0  0  0  0  0
  -31.1100  -21.0190   20.6880 H   0  0  0  0  0  0  0  0  0  0  0  0
  -29.8230  -21.6570   21.4280 H   0  0  0  0  0  0  0  0  0  0  0  0
  -30.3900  -15.4050   20.0570 C   0  0  0  0  0  0  0  0  0  0  0  0
  -30.3580  -12.9670   19.2090 C   0  0  0  0  0  2  0  0  0  0  0  0
  -29.4140  -12.7320   18.0070 C   0  0  0  0  0  2  0  0  0  0  0  0
  -27.9790  -12.4550   18.4890 C   0  0  0  0  0  2  0  0  0  0  0  0
  -27.5390  -13.4320   19.6080 C   0  0  0  0  0  3  0  0  0  0  0  0
  -28.6100  -13.6110   20.7010 C   0  0  0  0  0  2  0  0  0  0  0  0
  -29.8170  -14.1110   20.0240 N   0  0  0  0  0  0  0  0  0  0  0  0
  -31.6060  -15.4050   19.8190 O   0  0  0  0  0  0  0  0  0  0  0  0
  -29.6610  -16.6890   20.1630 N   0  0  0  0  0  0  0  0  0  0  0  0
  -28.6590  -16.5820   20.2070 H   0  0  0  0  0  0  0  0  0  0  0  0
  -25.1800  -13.9540   20.4150 C   0  0  0  0  0  0  0  0  0  0  0  0
  -24.1450  -13.1610   20.8170 C   0  0  0  0  0  0  0  0  0  0  0  0
  -24.6390  -11.8200   20.7910 C   0  0  0  0  0  0  0  0  0  0  0  0
  -26.2330  -13.0970   20.1560 N   0  0  0  0  0  0  0  0  0  0  0  0
  -25.9220  -11.8080   20.4520 N   0  0  0  0  0  0  0  0  0  0  0  0
  -23.9410  -10.5450   21.0110 C   0  0  0  0  0  0  0  0  0  0  0  0
  -24.3890   -9.6140   21.9740 C   0  0  0  0  0  3  0  0  0  0  0  0
  -23.6890   -8.4060   22.1800 C   0  0  0  0  0  3  0  0  0  0  0  0
  -22.5270   -8.1200   21.4250 C   0  0  0  0  0  0  0  0  0  0  0  0
  -22.0980   -9.0420   20.4530 C   0  0  0  0  0  3  0  0  0  0  0  0
  -22.7990  -10.2410   20.2450 C   0  0  0  0  0  3  0  0  0  0  0  0
  -21.7960   -6.9640   21.5410 O   0  0  0  0  0  0  0  0  0  0  0  0
  -21.7270   -6.2740   22.7230 C   0  0  0  0  0  0  0  0  0  0  0  0
  -21.2180   -6.8610   23.9020 C   0  0  0  0  0  3  0  0  0  0  0  0
  -21.1000   -6.0910   25.0760 C   0  0  0  0  0  3  0  0  0  0  0  0
  -21.4840   -4.7380   25.0730 C   0  0  0  0  0  0  0  0  0  0  0  0
  -21.9890   -4.1510   23.9010 C   0  0  0  0  0  3  0  0  0  0  0  0
  -22.1080   -4.9160   22.7280 C   0  0  0  0  0  0  0  0  0  0  0  0
  -22.5740   -4.3410   21.5930 F   0  0  0  0  0  0  0  0  0  0  0  0
  -21.3640   -3.9960   26.2000 F   0  0  0  0  0  0  0  0  0  0  0  0
  -22.7430  -13.6130   21.1060 C   0  0  0  0  0  0  0  0  0  0  0  0
  -22.0470  -12.9200   21.9990 N   0  0  0  0  0  0  0  0  0  0  0  0
  -22.2760  -14.6200   20.5740 O   0  0  0  0  0  0  0  0  0  0  0  0
  -22.4420  -12.1090   22.4510 H   0  0  0  0  0  0  0  0  0  0  0  0
  -21.1080  -13.2080   22.2360 H   0  0  0  0  0  0  0  0  0  0  0  0
  -25.3090  -15.3230   20.2150 N   0  0  0  0  0  0  0  0  0  0  0  0
  -24.5180  -15.9530   20.3100 H   0  0  0  0  0  0  0  0  0  0  0  0
  -26.1190  -15.7630   19.8000 H   0  0  0  0  0  0  0  0  0  0  0  0
  -31.3470  -21.3000   24.9220 C   0  0  0  0  0  1  0  0  0  0  0  0
  -31.4770  -21.4710   23.3980 C   0  0  0  0  0  2  0  0  0  0  0  0
  -28.8480  -21.2480   19.5120 C   0  0  0  0  0  2  0  0  0  0  0  0
  -28.8300  -23.0030   19.9000 C   0  0  0  0  0  3  0  0  0  0  0  0
  -28.0260  -24.4500   19.2340 C   0  0  0  0  0  3  0  0  0  0  0  0
  -28.1980  -26.0590   19.4720 O   0  0  0  0  0  0  0  0  0  0  0  0
  -24.5220  -31.6940   22.8050 C   0  0  0  0  0  0  0  0  0  0  0  0
  -27.1550  -27.1130   19.4550 C   0  0  0  0  0  0  0  0  0  0  0  0
  -23.3350  -30.3640   21.1060 C   0  0  0  0  0  3  0  0  0  0  0  0
  -24.8030  -28.9010   19.5560 C   0  0  0  0  0  0  0  0  0  0  0  0
  -25.8890  -30.6680   20.9250 C   0  0  0  0  0  2  0  0  0  0  0  0
  -25.9870  -29.3090   20.1830 C   0  0  0  0  0  0  0  0  0  0  0  0
  -27.1560  -28.4310   20.1150 C   0  0  0  0  0  3  0  0  0  0  0  0
  -25.9410  -26.8520   18.7820 C   0  0  0  0  0  3  0  0  0  0  0  0
  -24.8010  -27.6940   18.8390 C   0  0  0  0  0  3  0  0  0  0  0  0
  -23.5560  -29.7740   19.6850 C   0  0  0  0  0  2  0  0  0  0  0  0
  -24.6040  -30.9330   21.6680 N   0  0  0  0  0  0  0  0  0  0  0  0
  -23.4380  -31.9200   23.3650 O   0  0  0  0  0  0  0  0  0  0  0  0
  -22.6930  -29.2880   22.0220 C   0  0  0  0  0  0  0  0  0  0  0  0
  -21.3570  -29.1400   21.9640 N   0  0  0  0  0  0  0  0  0  0  0  0
  -23.4010  -28.5900   22.7520 O   0  0  0  0  0  0  0  0  0  0  0  0
  -20.8400  -29.7560   21.3510 H   0  0  0  0  0  0  0  0  0  0  0  0
  -17.9930  -27.9580   22.6290 C   0  0  0  0  0  0  0  0  0  0  0  0
  -20.5730  -28.1430   22.6990 C   0  0  0  0  0  3  0  0  0  0  0  0
  -20.5840  -26.7780   21.9720 C   0  0  0  0  0  2  0  0  0  0  0  0
  -19.3930  -26.5880   21.0260 C   0  0  0  0  0  2  0  0  0  0  0  0
  -18.0750  -26.6880   21.7980 C   0  0  0  0  0  2  0  0  0  0  0  0
  -19.1670  -28.6480   23.0370 C   0  0  0  0  0  0  0  0  0  0  0  0
  -19.0350  -29.8390   23.7840 C   0  0  0  0  0  3  0  0  0  0  0  0
  -17.7640  -30.3450   24.1180 C   0  0  0  0  0  3  0  0  0  0  0  0
  -16.6070  -29.6490   23.7250 C   0  0  0  0  0  3  0  0  0  0  0  0
  -16.7220  -28.4580   22.9870 C   0  0  0  0  0  3  0  0  0  0  0  0
  -25.7870  -32.3350   23.4510 C   0  0  0  0  0  3  0  0  0  0  0  0
  -26.3700  -31.4890   24.6500 C   0  0  1  0  0  0  0  0  0  0  0  0
  -25.3160  -31.1280   25.7240 C   0  0  0  0  0  1  0  0  0  0  0  0
  -26.9920  -30.1680   24.1460 C   0  0  0  0  0  1  0  0  0  0  0  0
  -27.5140  -32.2730   25.3380 C   0  0  0  0  0  1  0  0  0  0  0  0
  -25.4260  -33.6880   23.9120 N   0  0  0  0  0  0  0  0  0  0  0  0
  -25.7480  -34.8260   23.2820 C   0  0  0  0  0  0  0  0  0  0  0  0
  -26.4450  -34.8470   22.2660 O   0  0  0  0  0  0  0  0  0  0  0  0
  -24.8040  -33.7440   24.7060 H   0  0  0  0  0  0  0  0  0  0  0  0
  -23.9930  -36.6230   23.0720 C   0  0  0  0  0  1  0  0  0  0  0  0
  -25.2150  -36.1480   23.8740 C   0  0  0  0  0  3  0  0  0  0  0  0
  -27.2960  -36.9790   24.8800 C   0  0  0  0  0  1  0  0  0  0  0  0
  -26.2280  -37.2260   23.9160 N   0  0  0  0  0  0  0  0  0  0  0  0
  -25.7970  -38.1160   24.1470 H   0  0  0  0  0  0  0  0  0  0  0  0
  1  2  1  0
  1  7  2  0
  2  4  1  0
  3 18  1  0
  3  5  1  0
  3  1  1  0
  4 49  1  0
  5 50  1  0
  5  6  1  0
  6  9  1  0
  6  4  1  0
  8  6  1  0
 10 18  1  0
 11 16  1  0
 12 13  1  0
 12 11  1  0
 14 13  1  0
 14 23  1  0
 14 15  1  0
 16 10  1  0
 16 15  1  0
 17 10  2  0
 18 19  1  0
 20 21  2  0
 21 40  1  0
 22 21  1  0
 22 25  1  0
 23 20  1  0
 23 24  1  0
 24 22  2  0
 25 26  1  0
 26 27  2  0
 28 31  1  0
 28 27  1  0
 29 28  2  0
 30 29  1  0
 30 25  2  0
 31 32  1  0
 32 37  2  0
 32 33  1  0
 33 34  2  0
 35 34  1  0
 35 39  1  0
 36 35  2  0
 37 36  1  0
 38 37  1  0
 40 41  1  0
 41 44  1  0
 41 43  1  0
 42 40  2  0
 45 46  1  0
 45 20  1  0
 47 45  1  0
 49 48  1  0
 50 51  1  0
 52 53  1  0
 52 51  2  0
 54 65  2  0
 55 53  1  0
 55 60  1  0
 56 64  1  0
 56 66  1  0
 57 63  1  0
 57 59  1  0
 58 64  1  0
 59 58  1  0
 60 59  2  0
 61 62  1  0
 61 55  2  0
 62 57  2  0
 63 56  1  0
 64 54  1  0
 66 68  2  0
 67 66  1  0
 69 67  1  0
 70 79  2  0
 70 75  1  0
 71 67  1  0
 71 75  1  0
 72 71  1  0
 73 74  1  0
 73 72  1  0
 74 70  1  0
 75 76  2  0
 76 77  1  0
 78 77  2  0
 79 78  1  0
 80 54  1  0
 80 85  1  0
 80 81  1  0
 81 84  1  1
 81 82  1  0
 83 81  1  0
 85 88  1  0
 86 90  1  0
 86 85  1  0
 87 86  2  0
 90 89  1  0
 90 92  1  0
 92 93  1  0
 92 91  1  0
M  ISO  4  10 100  18 100  52 101  53 101
M  END
>  <TORSDO>  (95) 
F 20

>  <SCORE>  (95) 
-15.046

>  <name>  (95) 
95

>  <ligand_id>  (95) 
95

>  <original_smiles>  (95) 
[H]c1c([H])c([H])c2c(c1[H])C([H])([H])C([H])([H])C([H])([H])C2([H])N([H])C(=O)C1([H])N(C(=O)C([H])(N([H])C(=O)C([H])(N([H])C([H])([H])[H])C([H])([H])[H])C(C([H])([H])[H])(C([H])([H])[H])C([H])([H])[H])C([H])([H])c2c([H])c(OC([H])([H])C([H])([H])C([H])([H])C3([H])C([H])(N([H])C(=O)N4C([H])([H])C([H])([H])C([H])([H])C([H])(n5nc(-c6c([H])c([H])c(Oc7c([H])c([H])c(F)c([H])c7F)c([H])c6[H])c(C(=O)N([H])[H])c5N([H])[H])C4([H])[H])C(=O)C([H])([H])C([H])(C([H])([H])C([H])([H])[H])[N+]3([H])[H])c([H])c([H])c2C1([H])[H]

>  <smiles>  (95) 
[H]c1c([H])c([H])c2c(c1[H])C([H])([H])C([H])([H])C([H])([H])C2([H])N([H])C(=O)C1([H])N(C(=O)C([H])(N([H])C(=O)C([H])(N([H])C([H])([H])[H])C([H])([H])[H])C(C([H])([H])[H])(C([H])([H])[H])C([H])([H])[H])C([H])([H])c2c([H])c(OC([H])([H])C([H])([H])C([H])([H])C3([H])C([H])(N([H])C(=O)N4C([H])([H])C([H])([H])C([H])([H])C([H])(n5nc(-c6c([H])c([H])c(Oc7c([H])c([H])c(F)c([H])c7F)c([H])c6[H])c(C(=O)N([H])[H])c5N([H])[H])C4([H])[H])C(=O)C([H])([H])C([H])(C([H])([H])C([H])([H])[H])[N+]3([H])[H])c([H])c([H])c2C1([H])[H]

$$$$
96:0:0
     RDKit          3D

 90 98  0  0  1  0  0  0  0  0999 V2000
  -30.1350  -19.9880   20.9580 C   0  0  0  0  0  3  0  0  0  0  0  0
  -30.3570  -18.5540   21.1190 C   0  0  0  0  0  3  0  0  0  0  0  0
  -28.5120  -19.5190   19.3110 C   0  0  0  0  0  3  0  0  0  0  0  0
  -29.1750  -20.5510   20.0500 C   0  0  0  0  0  0  0  0  0  0  0  0
  -28.7360  -18.0990   19.4490 C   0  0  0  0  0  0  0  0  0  0  0  0
  -29.6700  -17.5300   20.3750 C   0  0  0  0  0  0  0  0  0  0  0  0
  -27.9190  -17.1850   18.5500 C   0  0  0  0  0  1  0  0  0  0  0  0
  -30.5270  -14.9380   20.4280 C   0  0  0  0  0  0  0  0  0  0  0  0
  -30.4290  -12.6070   19.4680 C   0  0  0  0  0  2  0  0  0  0  0  0
  -29.5020  -12.6170   18.2300 C   0  0  0  0  0  2  0  0  0  0  0  0
  -28.0300  -12.4120   18.6430 C   0  0  0  0  0  2  0  0  0  0  0  0
  -27.6210  -13.3100   19.8400 C   0  0  0  0  0  3  0  0  0  0  0  0
  -28.6690  -13.2700   20.9740 C   0  0  0  0  0  2  0  0  0  0  0  0
  -29.9590  -13.6710   20.3920 N   0  0  0  0  0  0  0  0  0  0  0  0
  -31.7160  -15.0620   20.1150 O   0  0  0  0  0  0  0  0  0  0  0  0
  -29.6810  -16.0370   20.6630 N   0  0  0  0  0  0  0  0  0  0  0  0
  -28.7600  -15.6950   20.8890 H   0  0  0  0  0  0  0  0  0  0  0  0
  -25.2230  -13.8840   20.5450 C   0  0  0  0  0  0  0  0  0  0  0  0
  -24.1560  -13.1060   20.9000 C   0  0  0  0  0  0  0  0  0  0  0  0
  -24.6280  -11.7580   20.8770 C   0  0  0  0  0  0  0  0  0  0  0  0
  -26.2740  -13.0110   20.3190 N   0  0  0  0  0  0  0  0  0  0  0  0
  -25.9220  -11.7260   20.5830 N   0  0  0  0  0  0  0  0  0  0  0  0
  -23.9040  -10.4940   21.0620 C   0  0  0  0  0  0  0  0  0  0  0  0
  -24.3310   -9.5280   21.9990 C   0  0  0  0  0  3  0  0  0  0  0  0
  -23.6070   -8.3290   22.1710 C   0  0  0  0  0  3  0  0  0  0  0  0
  -22.4410   -8.0860   21.4060 C   0  0  0  0  0  0  0  0  0  0  0  0
  -22.0340   -9.0420   20.4580 C   0  0  0  0  0  3  0  0  0  0  0  0
  -22.7580  -10.2330   20.2840 C   0  0  0  0  0  3  0  0  0  0  0  0
  -21.6880   -6.9400   21.4880 O   0  0  0  0  0  0  0  0  0  0  0  0
  -21.6330   -6.1970   22.6390 C   0  0  0  0  0  0  0  0  0  0  0  0
  -21.1890   -6.7470   23.8620 C   0  0  0  0  0  3  0  0  0  0  0  0
  -21.0810   -5.9290   25.0030 C   0  0  0  0  0  3  0  0  0  0  0  0
  -21.4070   -4.5610   24.9250 C   0  0  0  0  0  0  0  0  0  0  0  0
  -21.8450   -4.0110   23.7070 C   0  0  0  0  0  3  0  0  0  0  0  0
  -21.9540   -4.8260   22.5670 C   0  0  0  0  0  0  0  0  0  0  0  0
  -22.3550   -4.2850   21.3920 F   0  0  0  0  0  0  0  0  0  0  0  0
  -21.2970   -3.7730   26.0200 F   0  0  0  0  0  0  0  0  0  0  0  0
  -22.7530  -13.5790   21.1500 C   0  0  0  0  0  0  0  0  0  0  0  0
  -22.0150  -12.8810   22.0040 N   0  0  0  0  0  0  0  0  0  0  0  0
  -22.3220  -14.6040   20.6240 O   0  0  0  0  0  0  0  0  0  0  0  0
  -22.3760  -12.0520   22.4540 H   0  0  0  0  0  0  0  0  0  0  0  0
  -21.0730  -13.1800   22.2150 H   0  0  0  0  0  0  0  0  0  0  0  0
  -25.3780  -15.2560   20.3730 N   0  0  0  0  0  0  0  0  0  0  0  0
  -24.6010  -15.8990   20.4830 H   0  0  0  0  0  0  0  0  0  0  0  0
  -26.2270  -15.7080   20.0670 H   0  0  0  0  0  0  0  0  0  0  0  0
  -28.8680  -22.1150   19.6450 C   0  0  0  0  0  2  0  0  0  0  0  0
  -28.8610  -23.5210   20.4790 C   0  0  0  0  0  0  0  0  0  0  0  0
  -29.5070  -23.6130   21.5280 O   0  0  0  0  0  0  0  0  0  0  0  0
  -28.0060  -24.8110   19.9310 C   0  0  0  0  0  2  0  0  0  0  0  0
  -28.2500  -26.2690   20.3720 O   0  0  0  0  0  0  0  0  0  0  0  0
  -24.6240  -31.9410   23.2990 C   0  0  0  0  0  0  0  0  0  0  0  0
  -27.1940  -27.2390   20.2780 C   0  0  0  0  0  0  0  0  0  0  0  0
  -23.4200  -30.5450   21.6620 C   0  0  0  0  0  3  0  0  0  0  0  0
  -24.8650  -28.9690   20.2420 C   0  0  0  0  0  0  0  0  0  0  0  0
  -25.9740  -30.8060   21.5030 C   0  0  0  0  0  2  0  0  0  0  0  0
  -26.0420  -29.4160   20.8550 C   0  0  0  0  0  0  0  0  0  0  0  0
  -27.2050  -28.5640   20.8640 C   0  0  0  0  0  3  0  0  0  0  0  0
  -25.9950  -26.8940   19.6120 C   0  0  0  0  0  3  0  0  0  0  0  0
  -24.8520  -27.7200   19.6060 C   0  0  0  0  0  3  0  0  0  0  0  0
  -23.6390  -29.8650   20.2860 C   0  0  0  0  0  2  0  0  0  0  0  0
  -24.6920  -31.1180   22.2090 N   0  0  0  0  0  0  0  0  0  0  0  0
  -23.5390  -32.2320   23.8260 O   0  0  0  0  0  0  0  0  0  0  0  0
  -22.7370  -29.5420   22.6260 C   0  0  0  0  0  0  0  0  0  0  0  0
  -21.4100  -29.3660   22.4870 N   0  0  0  0  0  0  0  0  0  0  0  0
  -23.4030  -28.9240   23.4610 O   0  0  0  0  0  0  0  0  0  0  0  0
  -20.9310  -29.9180   21.7890 H   0  0  0  0  0  0  0  0  0  0  0  0
  -18.0270  -28.1630   22.9590 C   0  0  0  0  0  0  0  0  0  0  0  0
  -20.5810  -28.4360   23.2570 C   0  0  0  0  0  3  0  0  0  0  0  0
  -20.6940  -26.9980   22.7020 C   0  0  0  0  0  2  0  0  0  0  0  0
  -19.6080  -26.6590   21.6770 C   0  0  0  0  0  2  0  0  0  0  0  0
  -18.2170  -26.8070   22.3000 C   0  0  0  0  0  2  0  0  0  0  0  0
  -19.1370  -28.9350   23.3930 C   0  0  0  0  0  0  0  0  0  0  0  0
  -18.9050  -30.2030   23.9690 C   0  0  0  0  0  3  0  0  0  0  0  0
  -17.5960  -30.7000   24.1140 C   0  0  0  0  0  3  0  0  0  0  0  0
  -16.5000  -29.9250   23.6950 C   0  0  0  0  0  3  0  0  0  0  0  0
  -16.7160  -28.6590   23.1230 C   0  0  0  0  0  3  0  0  0  0  0  0
  -25.9070  -32.5700   23.9260 C   0  0  0  0  0  3  0  0  0  0  0  0
  -26.3970  -31.8150   25.2240 C   0  0  1  0  0  0  0  0  0  0  0  0
  -25.2880  -31.6100   26.2820 C   0  0  0  0  0  1  0  0  0  0  0  0
  -26.9680  -30.4230   24.8680 C   0  0  0  0  0  1  0  0  0  0  0  0
  -27.5510  -32.6070   25.8840 C   0  0  0  0  0  1  0  0  0  0  0  0
  -25.6080  -33.9770   24.2340 N   0  0  0  0  0  0  0  0  0  0  0  0
  -25.9520  -35.0170   23.4620 C   0  0  0  0  0  0  0  0  0  0  0  0
  -26.6210  -34.8930   22.4330 O   0  0  0  0  0  0  0  0  0  0  0  0
  -25.0170  -34.1480   25.0340 H   0  0  0  0  0  0  0  0  0  0  0  0
  -24.2430  -36.8250   23.0850 C   0  0  0  0  0  1  0  0  0  0  0  0
  -25.4800  -36.4180   23.9010 C   0  0  0  0  0  3  0  0  0  0  0  0
  -27.6220  -37.2940   24.7200 C   0  0  0  0  0  1  0  0  0  0  0  0
  -26.5220  -37.4590   23.7720 N   0  0  0  0  0  0  0  0  0  0  0  0
  -26.1260  -38.3850   23.9020 H   0  0  0  0  0  0  0  0  0  0  0  0
  1  2  1  0
  3  5  2  0
  3  4  1  0
  4  1  2  0
  5  6  1  0
  6 16  1  0
  6  2  2  0
  7  5  1  0
  8 16  1  0
  9 14  1  0
 10 11  1  0
 10  9  1  0
 12 11  1  0
 12 21  1  0
 12 13  1  0
 14  8  1  0
 14 13  1  0
 15  8  2  0
 16 17  1  0
 18 19  2  0
 19 38  1  0
 20 19  1  0
 20 23  1  0
 21 18  1  0
 21 22  1  0
 22 20  2  0
 23 24  1  0
 24 25  2  0
 26 29  1  0
 26 25  1  0
 27 26  2  0
 28 27  1  0
 28 23  2  0
 29 30  1  0
 30 31  1  0
 31 32  2  0
 33 32  1  0
 33 37  1  0
 34 33  2  0
 35 30  2  0
 35 34  1  0
 36 35  1  0
 38 39  1  0
 39 42  1  0
 39 41  1  0
 40 38  2  0
 43 44  1  0
 43 18  1  0
 45 43  1  0
 46  4  1  0
 46 47  1  0
 47 48  2  0
 49 50  1  0
 49 47  1  0
 51 62  2  0
 52 50  1  0
 52 57  1  0
 53 61  1  0
 53 63  1  0
 54 60  1  0
 54 56  1  0
 55 61  1  0
 56 57  2  0
 56 55  1  0
 58 52  2  0
 59 58  1  0
 59 54  2  0
 60 53  1  0
 61 51  1  0
 63 65  2  0
 64 63  1  0
 66 64  1  0
 67 76  2  0
 67 72  1  0
 68 64  1  0
 68 72  1  0
 69 68  1  0
 70 71  1  0
 70 69  1  0
 71 67  1  0
 72 73  2  0
 73 74  1  0
 75 74  2  0
 76 75  1  0
 77 51  1  0
 77 82  1  0
 77 78  1  0
 78 81  1  1
 78 79  1  0
 80 78  1  0
 82 85  1  0
 83 87  1  0
 83 82  1  0
 84 83  2  0
 87 86  1  0
 89 87  1  0
 89 90  1  0
 89 88  1  0
M  ISO  4   8 100  16 100  49 101  50 101
M  END
>  <TORSDO>  (96) 
F 19

>  <SCORE>  (96) 
-14.334

>  <name>  (96) 
96

>  <ligand_id>  (96) 
96

>  <original_smiles>  (96) 
[H]c1c([H])c([H])c2c(c1[H])C([H])([H])C([H])([H])C([H])([H])C2([H])N([H])C(=O)C1([H])N(C(=O)C([H])(N([H])C(=O)C([H])(N([H])C([H])([H])[H])C([H])([H])[H])C(C([H])([H])[H])(C([H])([H])[H])C([H])([H])[H])C([H])([H])c2c([H])c(OC([H])([H])C(=O)C([H])([H])c3c([H])c([H])c(N([H])C(=O)N4C([H])([H])C([H])([H])C([H])([H])C([H])(n5nc(-c6c([H])c([H])c(Oc7c([H])c([H])c(F)c([H])c7F)c([H])c6[H])c(C(=O)N([H])[H])c5N([H])[H])C4([H])[H])c(C([H])([H])[H])c3[H])c([H])c([H])c2C1([H])[H]

>  <smiles>  (96) 
[H]c1c([H])c([H])c2c(c1[H])C([H])([H])C([H])([H])C([H])([H])C2([H])N([H])C(=O)C1([H])N(C(=O)C([H])(N([H])C(=O)C([H])(N([H])C([H])([H])[H])C([H])([H])[H])C(C([H])([H])[H])(C([H])([H])[H])C([H])([H])[H])C([H])([H])c2c([H])c(OC([H])([H])C(=O)C([H])([H])c3c([H])c([H])c(N([H])C(=O)N4C([H])([H])C([H])([H])C([H])([H])C([H])(n5nc(-c6c([H])c([H])c(Oc7c([H])c([H])c(F)c([H])c7F)c([H])c6[H])c(C(=O)N([H])[H])c5N([H])[H])C4([H])[H])c(C([H])([H])[H])c3[H])c([H])c([H])c2C1([H])[H]

$$$$
