0:0:0
     RDKit          3D

 87 94  0  0  1  0  0  0  0  0999 V2000
  -27.9720  -20.9040   18.7740 C   0  0  0  0  0  1  0  0  0  0  0  0
  -29.1260  -21.1190   19.7610 C   0  0  0  0  0  3  0  0  0  0  0  0
  -30.1660  -19.8050   21.8300 C   0  0  0  0  0  1  0  0  0  0  0  0
  -29.4470  -19.5040   20.5060 C   0  0  0  0  0  3  0  0  0  0  0  0
  -30.6740  -15.3430   19.8790 C   0  0  0  0  0  0  0  0  0  0  0  0
  -30.5620  -12.9200   18.9680 C   0  0  0  0  0  2  0  0  0  0  0  0
  -29.5760  -12.7760   17.7810 C   0  0  0  0  0  2  0  0  0  0  0  0
  -28.1520  -12.5090   18.2950 C   0  0  0  0  0  2  0  0  0  0  0  0
  -27.7790  -13.4450   19.4730 C   0  0  0  0  0  3  0  0  0  0  0  0
  -28.8890  -13.5440   20.5420 C   0  0  0  0  0  2  0  0  0  0  0  0
  -30.0940  -14.0420   19.8640 N   0  0  0  0  0  0  0  0  0  0  0  0
  -31.8610  -15.3240   19.5210 O   0  0  0  0  0  0  0  0  0  0  0  0
  -30.2170  -18.0470   19.9060 C   0  0  0  0  0  0  0  0  0  0  0  0
  -29.9490  -16.6090   20.1390 N   0  0  0  0  0  0  0  0  0  0  0  0
  -31.1810  -18.3080   19.1840 O   0  0  0  0  0  0  0  0  0  0  0  0
  -29.0560  -16.4550   20.5790 H   0  0  0  0  0  0  0  0  0  0  0  0
  -25.4600  -13.9980   20.3780 C   0  0  0  0  0  0  0  0  0  0  0  0
  -24.4140  -13.2190   20.7860 C   0  0  0  0  0  0  0  0  0  0  0  0
  -24.8670  -11.8670   20.6890 C   0  0  0  0  0  0  0  0  0  0  0  0
  -26.4790  -13.1230   20.0480 N   0  0  0  0  0  0  0  0  0  0  0  0
  -26.1380  -11.8340   20.3020 N   0  0  0  0  0  0  0  0  0  0  0  0
  -24.1410  -10.6050   20.8850 C   0  0  0  0  0  0  0  0  0  0  0  0
  -24.5830   -9.6330   21.8080 C   0  0  0  0  0  3  0  0  0  0  0  0
  -23.8550   -8.4380   21.9950 C   0  0  0  0  0  3  0  0  0  0  0  0
  -22.6690   -8.2080   21.2570 C   0  0  0  0  0  0  0  0  0  0  0  0
  -22.2450   -9.1690   20.3230 C   0  0  0  0  0  3  0  0  0  0  0  0
  -22.9740  -10.3540   20.1350 C   0  0  0  0  0  3  0  0  0  0  0  0
  -21.9110   -7.0650   21.3530 O   0  0  0  0  0  0  0  0  0  0  0  0
  -21.8320   -6.3490   22.5200 C   0  0  0  0  0  0  0  0  0  0  0  0
  -21.3570   -6.9270   23.7180 C   0  0  0  0  0  3  0  0  0  0  0  0
  -21.2260   -6.1360   24.8770 C   0  0  0  0  0  3  0  0  0  0  0  0
  -21.5600   -4.7690   24.8400 C   0  0  0  0  0  0  0  0  0  0  0  0
  -22.0280   -4.1910   23.6470 C   0  0  0  0  0  3  0  0  0  0  0  0
  -22.1600   -4.9790   22.4900 C   0  0  0  0  0  0  0  0  0  0  0  0
  -22.5910   -4.4120   21.3370 F   0  0  0  0  0  0  0  0  0  0  0  0
  -21.4270   -4.0070   25.9510 F   0  0  0  0  0  0  0  0  0  0  0  0
  -23.0400  -13.7000   21.1460 C   0  0  0  0  0  0  0  0  0  0  0  0
  -22.3590  -12.9950   22.0410 N   0  0  0  0  0  0  0  0  0  0  0  0
  -22.5810  -14.7380   20.6680 O   0  0  0  0  0  0  0  0  0  0  0  0
  -22.7460  -12.1570   22.4500 H   0  0  0  0  0  0  0  0  0  0  0  0
  -21.4380  -13.3000   22.3220 H   0  0  0  0  0  0  0  0  0  0  0  0
  -25.6210  -15.3730   20.2300 N   0  0  0  0  0  0  0  0  0  0  0  0
  -24.8550  -16.0180   20.3980 H   0  0  0  0  0  0  0  0  0  0  0  0
  -26.4300  -15.8180   19.8160 H   0  0  0  0  0  0  0  0  0  0  0  0
  -28.8820  -22.7750   20.4350 C   0  0  0  0  0  2  0  0  0  0  0  0
  -28.1970  -24.3160   19.7960 C   0  0  0  0  0  2  0  0  0  0  0  0
  -28.2940  -25.9160   20.1760 O   0  0  0  0  0  0  0  0  0  0  0  0
  -24.6470  -31.8150   23.0930 C   0  0  0  0  0  0  0  0  0  0  0  0
  -27.2730  -26.9950   20.0610 C   0  0  0  0  0  0  0  0  0  0  0  0
  -23.4780  -30.4160   21.4390 C   0  0  0  0  0  3  0  0  0  0  0  0
  -24.9530  -28.8420   20.0090 C   0  0  0  0  0  0  0  0  0  0  0  0
  -26.0400  -30.6610   21.3080 C   0  0  0  0  0  2  0  0  0  0  0  0
  -26.1290  -29.2570   20.6430 C   0  0  0  0  0  0  0  0  0  0  0  0
  -27.2810  -28.3530   20.6490 C   0  0  0  0  0  3  0  0  0  0  0  0
  -26.0710  -26.7340   19.3650 C   0  0  0  0  0  3  0  0  0  0  0  0
  -24.9480  -27.6010   19.3490 C   0  0  0  0  0  3  0  0  0  0  0  0
  -23.7220  -29.7460   20.0580 C   0  0  0  0  0  2  0  0  0  0  0  0
  -24.7430  -30.9910   22.0000 N   0  0  0  0  0  0  0  0  0  0  0  0
  -23.5520  -32.0900   23.6090 O   0  0  0  0  0  0  0  0  0  0  0  0
  -22.7910  -29.4050   22.3940 C   0  0  0  0  0  0  0  0  0  0  0  0
  -21.4620  -29.2380   22.2710 N   0  0  0  0  0  0  0  0  0  0  0  0
  -23.4620  -28.7740   23.2150 O   0  0  0  0  0  0  0  0  0  0  0  0
  -20.9730  -29.8030   21.5910 H   0  0  0  0  0  0  0  0  0  0  0  0
  -18.0850  -28.0090   22.7750 C   0  0  0  0  0  0  0  0  0  0  0  0
  -20.6440  -28.2870   23.0330 C   0  0  0  0  0  3  0  0  0  0  0  0
  -20.7490  -26.8610   22.4420 C   0  0  0  0  0  2  0  0  0  0  0  0
  -19.6460  -26.5450   21.4260 C   0  0  0  0  0  2  0  0  0  0  0  0
  -18.2670  -26.6720   22.0780 C   0  0  0  0  0  2  0  0  0  0  0  0
  -19.2000  -28.7760   23.2080 C   0  0  0  0  0  0  0  0  0  0  0  0
  -18.9740  -30.0260   23.8240 C   0  0  0  0  0  3  0  0  0  0  0  0
  -17.6660  -30.5130   24.0060 C   0  0  0  0  0  3  0  0  0  0  0  0
  -16.5650  -29.7460   23.5860 C   0  0  0  0  0  3  0  0  0  0  0  0
  -16.7750  -28.4950   22.9780 C   0  0  0  0  0  3  0  0  0  0  0  0
  -25.9080  -32.4690   23.7360 C   0  0  0  0  0  3  0  0  0  0  0  0
  -26.4210  -31.6970   25.0150 C   0  0  1  0  0  0  0  0  0  0  0  0
  -25.3200  -31.4410   26.0720 C   0  0  0  0  0  1  0  0  0  0  0  0
  -27.0250  -30.3280   24.6290 C   0  0  0  0  0  1  0  0  0  0  0  0
  -27.5580  -32.5020   25.6910 C   0  0  0  0  0  1  0  0  0  0  0  0
  -25.5680  -33.8590   24.0860 N   0  0  0  0  0  0  0  0  0  0  0  0
  -25.8980  -34.9360   23.3600 C   0  0  0  0  0  0  0  0  0  0  0  0
  -26.5810  -34.8630   22.3360 O   0  0  0  0  0  0  0  0  0  0  0  0
  -24.9610  -33.9880   24.8820 H   0  0  0  0  0  0  0  0  0  0  0  0
  -24.1600  -36.7290   23.0280 C   0  0  0  0  0  1  0  0  0  0  0  0
  -25.3920  -36.3110   23.8450 C   0  0  0  0  0  3  0  0  0  0  0  0
  -27.5040  -37.1980   24.7330 C   0  0  0  0  0  1  0  0  0  0  0  0
  -26.4180  -37.3760   23.7730 N   0  0  0  0  0  0  0  0  0  0  0  0
  -26.0020  -38.2880   23.9330 H   0  0  0  0  0  0  0  0  0  0  0  0
  2  1  1  0
  2 45  1  0
  2  4  1  0
  4  3  1  0
  5 14  1  0
  6 11  1  0
  7  8  1  0
  7  6  1  0
  9  8  1  0
  9 20  1  0
  9 10  1  0
 11  5  1  0
 11 10  1  0
 12  5  2  0
 13 14  1  0
 13  4  1  0
 14 16  1  0
 15 13  2  0
 17 18  2  0
 18 37  1  0
 19 18  1  0
 19 22  1  0
 20 21  1  0
 20 17  1  0
 21 19  2  0
 22 23  1  0
 23 24  2  0
 25 28  1  0
 25 24  1  0
 26 25  2  0
 27 26  1  0
 27 22  2  0
 28 29  1  0
 29 30  1  0
 30 31  2  0
 32 31  1  0
 32 36  1  0
 33 32  2  0
 34 29  2  0
 34 33  1  0
 35 34  1  0
 37 38  1  0
 38 41  1  0
 38 40  1  0
 39 37  2  0
 42 17  1  0
 42 43  1  0
 44 42  1  0
 46 47  1  0
 46 45  1  0
 48 59  2  0
 49 47  1  0
 49 54  1  0
 50 58  1  0
 50 60  1  0
 51 57  1  0
 51 53  1  0
 52 58  1  0
 53 54  2  0
 53 52  1  0
 55 49  2  0
 56 55  1  0
 56 51  2  0
 57 50  1  0
 58 48  1  0
 60 62  2  0
 61 60  1  0
 63 61  1  0
 64 73  2  0
 64 69  1  0
 65 61  1  0
 65 69  1  0
 66 65  1  0
 67 68  1  0
 67 66  1  0
 68 64  1  0
 69 70  2  0
 70 71  1  0
 72 71  2  0
 73 72  1  0
 74 48  1  0
 74 79  1  0
 74 75  1  0
 75 78  1  1
 75 76  1  0
 77 75  1  0
 79 82  1  0
 80 84  1  0
 80 79  1  0
 81 80  2  0
 84 83  1  0
 86 84  1  0
 86 87  1  0
 86 85  1  0
M  ISO  4   5 100  14 100  46 101  47 101
M  END
>  <TORSDO>  (1) 
F 19

>  <SCORE>  (1) 
-15.594

>  <name>  (1) 
0

>  <ligand_id>  (1) 
0

>  <original_smiles>  (1) 
[H]c1c([H])c([H])c2c(c1[H])C([H])([H])C([H])([H])C([H])([H])C2([H])N([H])C(=O)C1([H])N(C(=O)C([H])(N([H])C(=O)C([H])(N([H])C([H])([H])[H])C([H])([H])[H])C(C([H])([H])[H])(C([H])([H])[H])C([H])([H])[H])C([H])([H])c2c([H])c(OC([H])([H])C([H])([H])C([H])(C([H])([H])[H])C([H])(C(=O)N([H])C(=O)N3C([H])([H])C([H])([H])C([H])([H])C([H])(n4nc(-c5c([H])c([H])c(Oc6c([H])c([H])c(F)c([H])c6F)c([H])c5[H])c(C(=O)N([H])[H])c4N([H])[H])C3([H])[H])C([H])([H])[H])c([H])c([H])c2C1([H])[H]

>  <smiles>  (1) 
[H]c1c([H])c([H])c2c(c1[H])C([H])([H])C([H])([H])C([H])([H])C2([H])N([H])C(=O)C1([H])N(C(=O)C([H])(N([H])C(=O)C([H])(N([H])C([H])([H])[H])C([H])([H])[H])C(C([H])([H])[H])(C([H])([H])[H])C([H])([H])[H])C([H])([H])c2c([H])c(OC([H])([H])C([H])([H])C([H])(C([H])([H])[H])C([H])(C(=O)N([H])C(=O)N3C([H])([H])C([H])([H])C([H])([H])C([H])(n4nc(-c5c([H])c([H])c(Oc6c([H])c([H])c(F)c([H])c6F)c([H])c5[H])c(C(=O)N([H])[H])c4N([H])[H])C3([H])[H])C([H])([H])[H])c([H])c([H])c2C1([H])[H]

$$$$
1:0:0
     RDKit          3D

 87 94  0  0  1  0  0  0  0  0999 V2000
  -28.9150  -21.1730   19.8310 C   0  0  0  0  0  2  0  0  0  0  0  0
  -29.2710  -19.6020   20.4930 C   0  0  0  0  0  0  0  0  0  0  0  0
  -28.9670  -19.4900   21.6820 O   0  0  0  0  0  0  0  0  0  0  0  0
  -30.0000  -18.1470   19.7410 C   0  0  0  0  0  3  0  0  0  0  0  0
  -30.5080  -15.2640   19.9240 C   0  0  0  0  0  0  0  0  0  0  0  0
  -30.3620  -12.8610   18.9930 C   0  0  0  0  0  2  0  0  0  0  0  0
  -29.3780  -12.7480   17.8050 C   0  0  0  0  0  2  0  0  0  0  0  0
  -27.9470  -12.4970   18.3120 C   0  0  0  0  0  2  0  0  0  0  0  0
  -27.5820  -13.4170   19.5040 C   0  0  0  0  0  3  0  0  0  0  0  0
  -28.6930  -13.5010   20.5740 C   0  0  0  0  0  2  0  0  0  0  0  0
  -29.9050  -13.9790   19.8940 N   0  0  0  0  0  0  0  0  0  0  0  0
  -31.6960  -15.2380   19.5780 O   0  0  0  0  0  0  0  0  0  0  0  0
  -29.7980  -16.5420   20.1350 N   0  0  0  0  0  0  0  0  0  0  0  0
  -28.8600  -16.3740   20.4700 H   0  0  0  0  0  0  0  0  0  0  0  0
  -25.2550  -13.9700   20.3900 C   0  0  0  0  0  0  0  0  0  0  0  0
  -24.2130  -13.1910   20.8060 C   0  0  0  0  0  0  0  0  0  0  0  0
  -24.6740  -11.8400   20.7300 C   0  0  0  0  0  0  0  0  0  0  0  0
  -26.2810  -13.0980   20.0770 N   0  0  0  0  0  0  0  0  0  0  0  0
  -25.9460  -11.8100   20.3500 N   0  0  0  0  0  0  0  0  0  0  0  0
  -23.9530  -10.5770   20.9380 C   0  0  0  0  0  0  0  0  0  0  0  0
  -24.4160   -9.6030   21.8510 C   0  0  0  0  0  3  0  0  0  0  0  0
  -23.6920   -8.4070   22.0500 C   0  0  0  0  0  3  0  0  0  0  0  0
  -22.4910   -8.1770   21.3370 C   0  0  0  0  0  0  0  0  0  0  0  0
  -22.0460   -9.1410   20.4140 C   0  0  0  0  0  3  0  0  0  0  0  0
  -22.7700  -10.3270   20.2130 C   0  0  0  0  0  3  0  0  0  0  0  0
  -21.7350   -7.0340   21.4480 O   0  0  0  0  0  0  0  0  0  0  0  0
  -21.7160   -6.2920   22.6010 C   0  0  0  0  0  0  0  0  0  0  0  0
  -21.3100   -6.8440   23.8360 C   0  0  0  0  0  3  0  0  0  0  0  0
  -21.2390   -6.0280   24.9820 C   0  0  0  0  0  3  0  0  0  0  0  0
  -21.5620   -4.6600   24.8960 C   0  0  0  0  0  0  0  0  0  0  0  0
  -21.9600   -4.1080   23.6660 C   0  0  0  0  0  3  0  0  0  0  0  0
  -22.0340   -4.9220   22.5220 C   0  0  0  0  0  0  0  0  0  0  0  0
  -22.4000   -4.3790   21.3350 F   0  0  0  0  0  0  0  0  0  0  0  0
  -21.4870   -3.8750   25.9950 F   0  0  0  0  0  0  0  0  0  0  0  0
  -22.8340  -13.6680   21.1510 C   0  0  0  0  0  0  0  0  0  0  0  0
  -22.1440  -12.9640   22.0420 N   0  0  0  0  0  0  0  0  0  0  0  0
  -22.3760  -14.7030   20.6660 O   0  0  0  0  0  0  0  0  0  0  0  0
  -22.5280  -12.1290   22.4590 H   0  0  0  0  0  0  0  0  0  0  0  0
  -21.2200  -13.2670   22.3140 H   0  0  0  0  0  0  0  0  0  0  0  0
  -25.4070  -15.3440   20.2250 N   0  0  0  0  0  0  0  0  0  0  0  0
  -24.6340  -15.9850   20.3720 H   0  0  0  0  0  0  0  0  0  0  0  0
  -26.2190  -15.7940   19.8210 H   0  0  0  0  0  0  0  0  0  0  0  0
  -32.0320  -19.7230   19.1400 C   0  0  0  0  0  1  0  0  0  0  0  0
  -31.5340  -18.3940   19.7370 C   0  0  0  0  0  2  0  0  0  0  0  0
  -28.7810  -22.8130   20.5300 C   0  0  0  0  0  3  0  0  0  0  0  0
  -28.0330  -24.3360   19.9620 C   0  0  0  0  0  3  0  0  0  0  0  0
  -28.1880  -25.9240   20.3280 O   0  0  0  0  0  0  0  0  0  0  0  0
  -24.6060  -31.8650   23.1920 C   0  0  0  0  0  0  0  0  0  0  0  0
  -27.1790  -27.0060   20.2080 C   0  0  0  0  0  0  0  0  0  0  0  0
  -23.4230  -30.4680   21.5440 C   0  0  0  0  0  3  0  0  0  0  0  0
  -24.8810  -28.8650   20.1330 C   0  0  0  0  0  0  0  0  0  0  0  0
  -25.9870  -30.6840   21.4170 C   0  0  0  0  0  2  0  0  0  0  0  0
  -26.0600  -29.2760   20.7660 C   0  0  0  0  0  0  0  0  0  0  0  0
  -27.2030  -28.3650   20.7830 C   0  0  0  0  0  3  0  0  0  0  0  0
  -25.9770  -26.7420   19.5160 C   0  0  0  0  0  3  0  0  0  0  0  0
  -24.8630  -27.6180   19.4870 C   0  0  0  0  0  3  0  0  0  0  0  0
  -23.6600  -29.7800   20.1700 C   0  0  0  0  0  2  0  0  0  0  0  0
  -24.6930  -31.0330   22.1040 N   0  0  0  0  0  0  0  0  0  0  0  0
  -23.5130  -32.1550   23.7040 O   0  0  0  0  0  0  0  0  0  0  0  0
  -22.7220  -29.4730   22.5060 C   0  0  0  0  0  0  0  0  0  0  0  0
  -21.3940  -29.3030   22.3660 N   0  0  0  0  0  0  0  0  0  0  0  0
  -23.3800  -28.8540   23.3460 O   0  0  0  0  0  0  0  0  0  0  0  0
  -20.9170  -29.8530   21.6650 H   0  0  0  0  0  0  0  0  0  0  0  0
  -18.0120  -28.0740   22.8290 C   0  0  0  0  0  0  0  0  0  0  0  0
  -20.5660  -28.3650   23.1320 C   0  0  0  0  0  3  0  0  0  0  0  0
  -20.6870  -26.9290   22.5730 C   0  0  0  0  0  2  0  0  0  0  0  0
  -19.6050  -26.5870   21.5430 C   0  0  0  0  0  2  0  0  0  0  0  0
  -18.2130  -26.7230   22.1640 C   0  0  0  0  0  2  0  0  0  0  0  0
  -19.1160  -28.8520   23.2690 C   0  0  0  0  0  0  0  0  0  0  0  0
  -18.8730  -30.1140   23.8540 C   0  0  0  0  0  3  0  0  0  0  0  0
  -17.5610  -30.6020   23.9960 C   0  0  0  0  0  3  0  0  0  0  0  0
  -16.4710  -29.8220   23.5700 C   0  0  0  0  0  3  0  0  0  0  0  0
  -16.6970  -28.5600   22.9950 C   0  0  0  0  0  3  0  0  0  0  0  0
  -25.8730  -32.5070   23.8320 C   0  0  0  0  0  3  0  0  0  0  0  0
  -25.5590  -33.9100   24.1520 N   0  0  0  0  0  0  0  0  0  0  0  0
  -25.9020  -34.9630   23.3970 C   0  0  0  0  0  0  0  0  0  0  0  0
  -26.5780  -34.8550   22.3710 O   0  0  0  0  0  0  0  0  0  0  0  0
  -24.9570  -34.0670   24.9460 H   0  0  0  0  0  0  0  0  0  0  0  0
  -24.1810  -36.7680   23.0370 C   0  0  0  0  0  1  0  0  0  0  0  0
  -25.4200  -36.3580   23.8500 C   0  0  0  0  0  3  0  0  0  0  0  0
  -27.5550  -37.2420   24.6850 C   0  0  0  0  0  1  0  0  0  0  0  0
  -26.4570  -37.4070   23.7360 N   0  0  0  0  0  0  0  0  0  0  0  0
  -26.0530  -38.3290   23.8770 H   0  0  0  0  0  0  0  0  0  0  0  0
  -26.3610  -31.7510   25.1320 C   0  0  1  0  0  0  0  0  0  0  0  0
  -25.2470  -31.5340   26.1830 C   0  0  0  0  0  1  0  0  0  0  0  0
  -26.9420  -30.3630   24.7780 C   0  0  0  0  0  1  0  0  0  0  0  0
  -27.5060  -32.5460   25.8020 C   0  0  0  0  0  1  0  0  0  0  0  0
  1  2  1  0
  1 45  1  0
  2  3  2  0
  4 44  1  0
  4 13  1  0
  4  2  1  0
  5 13  1  0
  6 11  1  0
  7  8  1  0
  7  6  1  0
  9  8  1  0
  9 18  1  0
  9 10  1  0
 11  5  1  0
 11 10  1  0
 12  5  2  0
 13 14  1  0
 15 16  2  0
 16 35  1  0
 17 16  1  0
 17 20  1  0
 18 19  1  0
 18 15  1  0
 19 17  2  0
 20 21  1  0
 21 22  2  0
 23 26  1  0
 23 22  1  0
 24 23  2  0
 25 24  1  0
 25 20  2  0
 26 27  1  0
 27 28  1  0
 28 29  2  0
 30 29  1  0
 30 34  1  0
 31 30  2  0
 32 27  2  0
 32 31  1  0
 33 32  1  0
 35 36  1  0
 36 39  1  0
 36 38  1  0
 37 35  2  0
 40 41  1  0
 40 15  1  0
 42 40  1  0
 43 44  1  0
 46 47  1  0
 46 45  2  0
 48 59  2  0
 49 47  1  0
 49 54  1  0
 50 58  1  0
 50 60  1  0
 51 57  1  0
 51 53  1  0
 52 58  1  0
 53 54  2  0
 53 52  1  0
 55 49  2  0
 56 55  1  0
 56 51  2  0
 57 50  1  0
 58 48  1  0
 60 62  2  0
 61 60  1  0
 63 61  1  0
 64 73  2  0
 64 69  1  0
 65 61  1  0
 65 69  1  0
 66 65  1  0
 67 68  1  0
 67 66  1  0
 68 64  1  0
 69 70  2  0
 70 71  1  0
 72 71  2  0
 73 72  1  0
 74 48  1  0
 74 75  1  0
 74 84  1  0
 75 78  1  0
 76 80  1  0
 76 75  1  0
 77 76  2  0
 80 79  1  0
 82 80  1  0
 82 83  1  0
 82 81  1  0
 84 87  1  1
 84 85  1  0
 86 84  1  0
M  ISO  4   5 100  13 100  46 101  47 101
M  END
>  <TORSDO>  (2) 
F 21

>  <SCORE>  (2) 
-14.264

>  <name>  (2) 
1

>  <ligand_id>  (2) 
1

>  <original_smiles>  (2) 
[H]c1c([H])c([H])c2c(c1[H])C([H])([H])C([H])([H])C([H])([H])C2([H])N([H])C(=O)C1([H])N(C(=O)C([H])(N([H])C(=O)C([H])(N([H])C([H])([H])[H])C([H])([H])[H])C(C([H])([H])[H])(C([H])([H])[H])C([H])([H])[H])C([H])([H])c2c([H])c(OC([H])([H])C([H])([H])C([H])([H])C(=O)C([H])(N([H])C(=O)N3C([H])([H])C([H])([H])C([H])([H])C([H])(n4nc(-c5c([H])c([H])c(Oc6c([H])c([H])c(F)c([H])c6F)c([H])c5[H])c(C(=O)N([H])[H])c4N([H])[H])C3([H])[H])C([H])([H])C([H])([H])[H])c([H])c([H])c2C1([H])[H]

>  <smiles>  (2) 
[H]c1c([H])c([H])c2c(c1[H])C([H])([H])C([H])([H])C([H])([H])C2([H])N([H])C(=O)C1([H])N(C(=O)C([H])(N([H])C(=O)C([H])(N([H])C([H])([H])[H])C([H])([H])[H])C(C([H])([H])[H])(C([H])([H])[H])C([H])([H])[H])C([H])([H])c2c([H])c(OC([H])([H])C([H])([H])C([H])([H])C(=O)C([H])(N([H])C(=O)N3C([H])([H])C([H])([H])C([H])([H])C([H])(n4nc(-c5c([H])c([H])c(Oc6c([H])c([H])c(F)c([H])c6F)c([H])c5[H])c(C(=O)N([H])[H])c4N([H])[H])C3([H])[H])C([H])([H])C([H])([H])[H])c([H])c([H])c2C1([H])[H]

$$$$
2:0:0
     RDKit          3D

 90 97  0  0  1  0  0  0  0  0999 V2000
  -29.0400  -19.5790   20.1040 C   0  0  0  0  0  2  0  0  0  0  0  0
  -29.0120  -21.2610   20.7130 C   0  0  0  0  0  2  0  0  0  0  0  0
  -28.6880  -22.8620   19.9960 C   0  0  0  0  0  2  0  0  0  0  0  0
  -28.1050  -24.4040   20.6680 C   0  0  0  0  0  2  0  0  0  0  0  0
  -28.2680  -25.9820   20.3030 O   0  0  0  0  0  0  0  0  0  0  0  0
  -24.6190  -31.8850   23.2260 C   0  0  0  0  0  0  0  0  0  0  0  0
  -27.2240  -27.0260   20.2960 C   0  0  0  0  0  0  0  0  0  0  0  0
  -23.4470  -30.4710   21.5860 C   0  0  0  0  0  3  0  0  0  0  0  0
  -24.9140  -28.8620   20.2010 C   0  0  0  0  0  0  0  0  0  0  0  0
  -26.0100  -30.7050   21.4610 C   0  0  0  0  0  2  0  0  0  0  0  0
  -26.0930  -29.2910   20.8240 C   0  0  0  0  0  0  0  0  0  0  0  0
  -27.2470  -28.3960   20.8420 C   0  0  0  0  0  3  0  0  0  0  0  0
  -26.0130  -26.7280   19.6350 C   0  0  0  0  0  3  0  0  0  0  0  0
  -24.8960  -27.5990   19.5870 C   0  0  0  0  0  3  0  0  0  0  0  0
  -23.6930  -29.7780   20.2190 C   0  0  0  0  0  2  0  0  0  0  0  0
  -24.7130  -31.0470   22.1450 N   0  0  0  0  0  0  0  0  0  0  0  0
  -23.5240  -32.1760   23.7340 O   0  0  0  0  0  0  0  0  0  0  0  0
  -22.7500  -29.4790   22.5530 C   0  0  0  0  0  0  0  0  0  0  0  0
  -21.4190  -29.3170   22.4240 N   0  0  0  0  0  0  0  0  0  0  0  0
  -23.4110  -28.8550   23.3860 O   0  0  0  0  0  0  0  0  0  0  0  0
  -20.9410  -29.8720   21.7290 H   0  0  0  0  0  0  0  0  0  0  0  0
  -18.0250  -28.1480   22.9390 C   0  0  0  0  0  0  0  0  0  0  0  0
  -20.5880  -28.3870   23.1980 C   0  0  0  0  0  3  0  0  0  0  0  0
  -20.6750  -26.9550   22.6210 C   0  0  0  0  0  2  0  0  0  0  0  0
  -19.5670  -26.6450   21.6100 C   0  0  0  0  0  2  0  0  0  0  0  0
  -18.1890  -26.7990   22.2570 C   0  0  0  0  0  2  0  0  0  0  0  0
  -19.1520  -28.9000   23.3670 C   0  0  0  0  0  0  0  0  0  0  0  0
  -18.9460  -30.1600   23.9680 C   0  0  0  0  0  3  0  0  0  0  0  0
  -17.6430  -30.6680   24.1450 C   0  0  0  0  0  3  0  0  0  0  0  0
  -16.5320  -29.9130   23.7330 C   0  0  0  0  0  3  0  0  0  0  0  0
  -16.7240  -28.6550   23.1350 C   0  0  0  0  0  3  0  0  0  0  0  0
  -25.8830  -32.5350   23.8650 C   0  0  0  0  0  3  0  0  0  0  0  0
  -25.5610  -33.9380   24.1790 N   0  0  0  0  0  0  0  0  0  0  0  0
  -25.9040  -34.9910   23.4250 C   0  0  0  0  0  0  0  0  0  0  0  0
  -26.5880  -34.8840   22.4040 O   0  0  0  0  0  0  0  0  0  0  0  0
  -24.9530  -34.0930   24.9700 H   0  0  0  0  0  0  0  0  0  0  0  0
  -24.1850  -36.7910   23.0430 C   0  0  0  0  0  1  0  0  0  0  0  0
  -25.4120  -36.3830   23.8730 C   0  0  0  0  0  3  0  0  0  0  0  0
  -27.5310  -37.2700   24.7410 C   0  0  0  0  0  1  0  0  0  0  0  0
  -26.4480  -37.4350   23.7750 N   0  0  0  0  0  0  0  0  0  0  0  0
  -26.0410  -38.3560   23.9120 H   0  0  0  0  0  0  0  0  0  0  0  0
  -26.3730  -31.7870   25.1670 C   0  0  1  0  0  0  0  0  0  0  0  0
  -25.2590  -31.5690   26.2180 C   0  0  0  0  0  1  0  0  0  0  0  0
  -26.9650  -30.4030   24.8170 C   0  0  0  0  0  1  0  0  0  0  0  0
  -27.5100  -32.5930   25.8380 C   0  0  0  0  0  1  0  0  0  0  0  0
  -30.0350  -18.1490   20.4980 C   0  0  0  0  0  3  0  0  0  0  0  0
  -30.4500  -15.2400   20.2650 C   0  0  0  0  0  0  0  0  0  0  0  0
  -30.3750  -12.8280   19.3460 C   0  0  0  0  0  2  0  0  0  0  0  0
  -29.4350  -12.6570   18.1290 C   0  0  0  0  0  2  0  0  0  0  0  0
  -27.9900  -12.3950   18.5900 C   0  0  0  0  0  2  0  0  0  0  0  0
  -27.5620  -13.3410   19.7410 C   0  0  0  0  0  3  0  0  0  0  0  0
  -28.6320  -13.4660   20.8460 C   0  0  0  0  0  2  0  0  0  0  0  0
  -29.8540  -13.9580   20.1910 N   0  0  0  0  0  0  0  0  0  0  0  0
  -31.6720  -15.2120   20.0740 O   0  0  0  0  0  0  0  0  0  0  0  0
  -29.7120  -16.5190   20.3490 N   0  0  0  0  0  0  0  0  0  0  0  0
  -28.7190  -16.3400   20.3830 H   0  0  0  0  0  0  0  0  0  0  0  0
  -25.1990  -13.8790   20.5330 C   0  0  0  0  0  0  0  0  0  0  0  0
  -24.1470  -13.0920   20.9110 C   0  0  0  0  0  0  0  0  0  0  0  0
  -24.6240  -11.7460   20.8650 C   0  0  0  0  0  0  0  0  0  0  0  0
  -26.2440  -13.0140   20.2690 N   0  0  0  0  0  0  0  0  0  0  0  0
  -25.9120  -11.7250   20.5380 N   0  0  0  0  0  0  0  0  0  0  0  0
  -23.9080  -10.4770   21.0520 C   0  0  0  0  0  0  0  0  0  0  0  0
  -24.3490   -9.5060   21.9780 C   0  0  0  0  0  3  0  0  0  0  0  0
  -23.6300   -8.3050   22.1560 C   0  0  0  0  0  3  0  0  0  0  0  0
  -22.4540   -8.0640   21.4050 C   0  0  0  0  0  0  0  0  0  0  0  0
  -22.0320   -9.0230   20.4670 C   0  0  0  0  0  3  0  0  0  0  0  0
  -22.7520  -10.2160   20.2880 C   0  0  0  0  0  3  0  0  0  0  0  0
  -21.7050   -6.9160   21.4920 O   0  0  0  0  0  0  0  0  0  0  0  0
  -21.6600   -6.1730   22.6440 C   0  0  0  0  0  0  0  0  0  0  0  0
  -21.2140   -6.7200   23.8680 C   0  0  0  0  0  3  0  0  0  0  0  0
  -21.1180   -5.9010   25.0110 C   0  0  0  0  0  3  0  0  0  0  0  0
  -21.4560   -4.5360   24.9320 C   0  0  0  0  0  0  0  0  0  0  0  0
  -21.8920   -3.9890   23.7130 C   0  0  0  0  0  3  0  0  0  0  0  0
  -21.9910   -4.8040   22.5710 C   0  0  0  0  0  0  0  0  0  0  0  0
  -22.3920   -4.2670   21.3940 F   0  0  0  0  0  0  0  0  0  0  0  0
  -21.3550   -3.7490   26.0270 F   0  0  0  0  0  0  0  0  0  0  0  0
  -22.7500  -13.5570   21.1970 C   0  0  0  0  0  0  0  0  0  0  0  0
  -22.0310  -12.8450   22.0580 N   0  0  0  0  0  0  0  0  0  0  0  0
  -22.3030  -14.5870   20.6920 O   0  0  0  0  0  0  0  0  0  0  0  0
  -22.4050  -12.0110   22.4860 H   0  0  0  0  0  0  0  0  0  0  0  0
  -21.0940  -13.1380   22.2940 H   0  0  0  0  0  0  0  0  0  0  0  0
  -25.3480  -15.2520   20.3610 N   0  0  0  0  0  0  0  0  0  0  0  0
  -24.5720  -15.8950   20.4770 H   0  0  0  0  0  0  0  0  0  0  0  0
  -26.1740  -15.6950   19.9830 H   0  0  0  0  0  0  0  0  0  0  0  0
  -31.4270  -18.4150   19.8520 C   0  0  0  0  0  2  0  0  0  0  0  0
  -32.1830  -19.6420   20.3840 C   0  0  0  0  0  0  0  0  0  0  0  0
  -32.7330  -20.4660   19.4980 N   0  0  0  0  0  0  0  0  0  0  0  0
  -32.2970  -19.8430   21.5920 O   0  0  0  0  0  0  0  0  0  0  0  0
  -32.6540  -20.2870   18.5060 H   0  0  0  0  0  0  0  0  0  0  0  0
  -33.2460  -21.2810   19.8070 H   0  0  0  0  0  0  0  0  0  0  0  0
  1 46  1  0
  1  2  1  0
  3  4  1  0
  3  2  1  0
  5  4  1  0
  6 17  2  0
  7  5  1  0
  7 12  1  0
  8 16  1  0
  8 18  1  0
  9 15  1  0
  9 11  1  0
 10 16  1  0
 11 12  2  0
 11 10  1  0
 13  7  2  0
 14 13  1  0
 14  9  2  0
 15  8  1  0
 16  6  1  0
 18 20  2  0
 19 18  1  0
 21 19  1  0
 22 31  2  0
 22 27  1  0
 23 19  1  0
 23 27  1  0
 24 23  1  0
 25 26  1  0
 25 24  1  0
 26 22  1  0
 27 28  2  0
 28 29  1  0
 30 29  2  0
 31 30  1  0
 32  6  1  0
 32 33  1  0
 32 42  1  0
 33 36  1  0
 34 38  1  0
 34 33  1  0
 35 34  2  0
 38 37  1  0
 40 38  1  0
 40 41  1  0
 40 39  1  0
 42 45  1  1
 42 43  1  0
 44 42  1  0
 46 85  1  0
 47 55  1  0
 48 53  1  0
 49 50  1  0
 49 48  1  0
 51 50  1  0
 51 60  1  0
 51 52  1  0
 53 47  1  0
 53 52  1  0
 54 47  2  0
 55 56  1  0
 55 46  1  0
 57 58  2  0
 58 77  1  0
 59 58  1  0
 59 62  1  0
 60 57  1  0
 60 61  1  0
 61 59  2  0
 62 63  1  0
 63 64  2  0
 65 68  1  0
 65 64  1  0
 66 65  2  0
 67 66  1  0
 67 62  2  0
 68 69  1  0
 69 70  1  0
 70 71  2  0
 72 71  1  0
 72 76  1  0
 73 72  2  0
 74 69  2  0
 74 73  1  0
 75 74  1  0
 77 78  1  0
 78 81  1  0
 78 80  1  0
 79 77  2  0
 82 83  1  0
 82 57  1  0
 84 82  1  0
 85 86  1  0
 86 88  2  0
 87 90  1  0
 87 86  1  0
 89 87  1  0
M  ISO  4   4 101   5 101  47 100  55 100
M  END
>  <TORSDO>  (3) 
F 22

>  <SCORE>  (3) 
-14.821

>  <name>  (3) 
2

>  <ligand_id>  (3) 
2

>  <original_smiles>  (3) 
[H]c1c([H])c([H])c2c(c1[H])C([H])([H])C([H])([H])C([H])([H])C2([H])N([H])C(=O)C1([H])N(C(=O)C([H])(N([H])C(=O)C([H])(N([H])C([H])([H])[H])C([H])([H])[H])C(C([H])([H])[H])(C([H])([H])[H])C([H])([H])[H])C([H])([H])c2c([H])c(OC([H])([H])C([H])([H])C([H])([H])C([H])([H])C([H])(N([H])C(=O)N3C([H])([H])C([H])([H])C([H])([H])C([H])(n4nc(-c5c([H])c([H])c(Oc6c([H])c([H])c(F)c([H])c6F)c([H])c5[H])c(C(=O)N([H])[H])c4N([H])[H])C3([H])[H])C([H])([H])C(=O)N([H])[H])c([H])c([H])c2C1([H])[H]

>  <smiles>  (3) 
[H]c1c([H])c([H])c2c(c1[H])C([H])([H])C([H])([H])C([H])([H])C2([H])N([H])C(=O)C1([H])N(C(=O)C([H])(N([H])C(=O)C([H])(N([H])C([H])([H])[H])C([H])([H])[H])C(C([H])([H])[H])(C([H])([H])[H])C([H])([H])[H])C([H])([H])c2c([H])c(OC([H])([H])C([H])([H])C([H])([H])C([H])([H])C([H])(N([H])C(=O)N3C([H])([H])C([H])([H])C([H])([H])C([H])(n4nc(-c5c([H])c([H])c(Oc6c([H])c([H])c(F)c([H])c6F)c([H])c5[H])c(C(=O)N([H])[H])c4N([H])[H])C3([H])[H])C([H])([H])C(=O)N([H])[H])c([H])c([H])c2C1([H])[H]

$$$$
3:0:0
     RDKit          3D

 87 95  0  0  1  0  0  0  0  0999 V2000
  -27.5820  -21.5330   21.5050 C   0  0  0  0  0  1  0  0  0  0  0  0
  -28.4270  -21.6650   20.2260 C   0  0  0  0  0  3  0  0  0  0  0  0
  -29.1910  -18.9820   19.1420 C   0  0  0  0  0  2  0  0  0  0  0  0
  -29.5320  -19.0200   21.1160 C   0  0  0  0  0  2  0  0  0  0  0  0
  -29.4250  -20.2720   20.0930 C   0  0  0  0  0  3  0  0  0  0  0  0
  -30.0700  -17.9720   20.0290 C   0  0  0  0  0  3  0  0  0  0  0  0
  -30.5590  -15.2100   19.9500 C   0  0  0  0  0  0  0  0  0  0  0  0
  -30.4490  -12.8340   19.0340 C   0  0  0  0  0  2  0  0  0  0  0  0
  -29.4570  -12.7410   17.8520 C   0  0  0  0  0  2  0  0  0  0  0  0
  -28.0200  -12.5100   18.3580 C   0  0  0  0  0  2  0  0  0  0  0  0
  -27.6570  -13.4320   19.5520 C   0  0  0  0  0  3  0  0  0  0  0  0
  -28.7680  -13.4830   20.6210 C   0  0  0  0  0  2  0  0  0  0  0  0
  -29.9870  -13.9320   19.9370 N   0  0  0  0  0  0  0  0  0  0  0  0
  -31.7510  -15.2780   19.6290 O   0  0  0  0  0  0  0  0  0  0  0  0
  -29.7710  -16.4000   20.1220 N   0  0  0  0  0  0  0  0  0  0  0  0
  -28.8070  -16.1860   20.3330 H   0  0  0  0  0  0  0  0  0  0  0  0
  -25.3290  -13.9790   20.4570 C   0  0  0  0  0  0  0  0  0  0  0  0
  -24.2870  -13.1930   20.8600 C   0  0  0  0  0  0  0  0  0  0  0  0
  -24.7450  -11.8420   20.7540 C   0  0  0  0  0  0  0  0  0  0  0  0
  -26.3540  -13.1110   20.1230 N   0  0  0  0  0  0  0  0  0  0  0  0
  -26.0150  -11.8170   20.3650 N   0  0  0  0  0  0  0  0  0  0  0  0
  -24.0260  -10.5760   20.9420 C   0  0  0  0  0  0  0  0  0  0  0  0
  -24.4530   -9.6140   21.8860 C   0  0  0  0  0  3  0  0  0  0  0  0
  -23.7340   -8.4130   22.0620 C   0  0  0  0  0  3  0  0  0  0  0  0
  -22.5720   -8.1640   21.2940 C   0  0  0  0  0  0  0  0  0  0  0  0
  -22.1640   -9.1110   20.3380 C   0  0  0  0  0  3  0  0  0  0  0  0
  -22.8850  -10.3050   20.1610 C   0  0  0  0  0  3  0  0  0  0  0  0
  -21.8220   -7.0160   21.3790 O   0  0  0  0  0  0  0  0  0  0  0  0
  -21.6840   -6.3310   22.5600 C   0  0  0  0  0  0  0  0  0  0  0  0
  -21.1310   -6.9330   23.7100 C   0  0  0  0  0  3  0  0  0  0  0  0
  -20.9460   -6.1740   24.8820 C   0  0  0  0  0  3  0  0  0  0  0  0
  -21.3030   -4.8120   24.9020 C   0  0  0  0  0  0  0  0  0  0  0  0
  -21.8520   -4.2090   23.7560 C   0  0  0  0  0  3  0  0  0  0  0  0
  -22.0380   -4.9670   22.5870 C   0  0  0  0  0  0  0  0  0  0  0  0
  -22.5470   -4.3750   21.4780 F   0  0  0  0  0  0  0  0  0  0  0  0
  -21.1190   -4.0810   26.0250 F   0  0  0  0  0  0  0  0  0  0  0  0
  -22.9100  -13.6600   21.2290 C   0  0  0  0  0  0  0  0  0  0  0  0
  -22.2310  -12.9340   22.1110 N   0  0  0  0  0  0  0  0  0  0  0  0
  -22.4470  -14.7040   20.7710 O   0  0  0  0  0  0  0  0  0  0  0  0
  -22.6260  -12.0920   22.5000 H   0  0  0  0  0  0  0  0  0  0  0  0
  -21.3070  -13.2250   22.4010 H   0  0  0  0  0  0  0  0  0  0  0  0
  -25.4830  -15.3560   20.3180 N   0  0  0  0  0  0  0  0  0  0  0  0
  -24.7140  -15.9960   20.4820 H   0  0  0  0  0  0  0  0  0  0  0  0
  -26.2890  -15.8080   19.9080 H   0  0  0  0  0  0  0  0  0  0  0  0
  -28.9100  -23.3120   20.1400 C   0  0  0  0  0  3  0  0  0  0  0  0
  -27.8920  -24.6930   20.0660 C   0  0  0  0  0  3  0  0  0  0  0  0
  -28.2110  -26.2420   20.1270 O   0  0  0  0  0  0  0  0  0  0  0  0
  -24.6690  -31.9590   23.2500 C   0  0  0  0  0  0  0  0  0  0  0  0
  -27.1740  -27.2620   20.0990 C   0  0  0  0  0  0  0  0  0  0  0  0
  -23.4380  -30.5930   21.6120 C   0  0  0  0  0  3  0  0  0  0  0  0
  -24.8560  -29.0420   20.1290 C   0  0  0  0  0  0  0  0  0  0  0  0
  -25.9910  -30.8540   21.4010 C   0  0  0  0  0  2  0  0  0  0  0  0
  -26.0510  -29.4690   20.7230 C   0  0  0  0  0  0  0  0  0  0  0  0
  -27.2100  -28.5970   20.6870 C   0  0  0  0  0  3  0  0  0  0  0  0
  -25.9510  -26.9530   19.4620 C   0  0  0  0  0  3  0  0  0  0  0  0
  -24.8230  -27.8010   19.4780 C   0  0  0  0  0  3  0  0  0  0  0  0
  -23.6320  -29.9410   20.2170 C   0  0  0  0  0  2  0  0  0  0  0  0
  -24.7220  -31.1560   22.1430 N   0  0  0  0  0  0  0  0  0  0  0  0
  -23.5930  -32.2330   23.8030 O   0  0  0  0  0  0  0  0  0  0  0  0
  -22.7770  -29.5690   22.5690 C   0  0  0  0  0  0  0  0  0  0  0  0
  -21.4500  -29.3800   22.4490 N   0  0  0  0  0  0  0  0  0  0  0  0
  -23.4610  -28.9450   23.3830 O   0  0  0  0  0  0  0  0  0  0  0  0
  -20.9520  -29.9380   21.7690 H   0  0  0  0  0  0  0  0  0  0  0  0
  -18.0920  -28.1130   22.9500 C   0  0  0  0  0  0  0  0  0  0  0  0
  -20.6450  -28.4250   23.2170 C   0  0  0  0  0  3  0  0  0  0  0  0
  -20.7740  -26.9960   22.6390 C   0  0  0  0  0  2  0  0  0  0  0  0
  -19.6790  -26.6550   21.6250 C   0  0  0  0  0  2  0  0  0  0  0  0
  -18.2950  -26.7700   22.2690 C   0  0  0  0  0  2  0  0  0  0  0  0
  -19.1960  -28.8980   23.3810 C   0  0  0  0  0  0  0  0  0  0  0  0
  -18.9500  -30.1520   23.9790 C   0  0  0  0  0  3  0  0  0  0  0  0
  -17.6350  -30.6250   24.1480 C   0  0  0  0  0  3  0  0  0  0  0  0
  -16.5470  -29.8390   23.7310 C   0  0  0  0  0  3  0  0  0  0  0  0
  -16.7770  -28.5850   23.1400 C   0  0  0  0  0  3  0  0  0  0  0  0
  -25.9580  -32.5860   23.8630 C   0  0  0  0  0  3  0  0  0  0  0  0
  -26.4830  -31.8060   25.1300 C   0  0  1  0  0  0  0  0  0  0  0  0
  -25.4020  -31.5660   26.2090 C   0  0  0  0  0  1  0  0  0  0  0  0
  -27.0570  -30.4260   24.7320 C   0  0  0  0  0  1  0  0  0  0  0  0
  -27.6440  -32.5910   25.7850 C   0  0  0  0  0  1  0  0  0  0  0  0
  -25.6560  -33.9830   24.2120 N   0  0  0  0  0  0  0  0  0  0  0  0
  -25.9530  -35.0450   23.4490 C   0  0  0  0  0  0  0  0  0  0  0  0
  -26.5750  -34.9490   22.3870 O   0  0  0  0  0  0  0  0  0  0  0  0
  -25.0970  -34.1310   25.0380 H   0  0  0  0  0  0  0  0  0  0  0  0
  -24.1920  -36.8270   23.2040 C   0  0  0  0  0  1  0  0  0  0  0  0
  -25.4850  -36.4300   23.9360 C   0  0  0  0  0  3  0  0  0  0  0  0
  -27.6570  -37.3370   24.6360 C   0  0  0  0  0  1  0  0  0  0  0  0
  -26.4980  -37.4920   23.7590 N   0  0  0  0  0  0  0  0  0  0  0  0
  -26.0940  -38.4080   23.9280 H   0  0  0  0  0  0  0  0  0  0  0  0
  2  1  1  0
  3  6  1  0
  3  5  1  0
  5  2  1  0
  5  4  1  0
  6 15  1  0
  6  4  1  0
  7 15  1  0
  8 13  1  0
  9 10  1  0
  9  8  1  0
 11 10  1  0
 11 20  1  0
 11 12  1  0
 13  7  1  0
 13 12  1  0
 14  7  2  0
 15 16  1  0
 17 18  2  0
 18 37  1  0
 19 18  1  0
 19 22  1  0
 20 21  1  0
 20 17  1  0
 21 19  2  0
 22 23  1  0
 23 24  2  0
 25 28  1  0
 25 24  1  0
 26 25  2  0
 27 26  1  0
 27 22  2  0
 28 29  1  0
 29 34  2  0
 29 30  1  0
 30 31  2  0
 31 32  1  0
 32 36  1  0
 33 32  2  0
 34 33  1  0
 35 34  1  0
 37 38  1  0
 38 41  1  0
 38 40  1  0
 39 37  2  0
 42 17  1  0
 42 43  1  0
 44 42  1  0
 45  2  1  0
 46 47  1  0
 46 45  2  0
 48 59  2  0
 49 47  1  0
 49 54  1  0
 50 58  1  0
 50 60  1  0
 51 57  1  0
 51 53  1  0
 52 58  1  0
 53 52  1  0
 54 53  2  0
 55 56  1  0
 55 49  2  0
 56 51  2  0
 57 50  1  0
 58 48  1  0
 60 62  2  0
 61 60  1  0
 63 61  1  0
 64 73  2  0
 64 69  1  0
 65 61  1  0
 65 69  1  0
 66 65  1  0
 67 68  1  0
 67 66  1  0
 68 64  1  0
 69 70  2  0
 70 71  1  0
 72 71  2  0
 73 72  1  0
 74 48  1  0
 74 79  1  0
 74 75  1  0
 75 78  1  1
 75 76  1  0
 77 75  1  0
 79 82  1  0
 80 84  1  0
 80 79  1  0
 81 80  2  0
 84 83  1  0
 86 87  1  0
 86 84  1  0
 86 85  1  0
M  ISO  4   7 100  15 100  46 101  47 101
M  END
>  <TORSDO>  (4) 
F 19

>  <SCORE>  (4) 
-14.761

>  <name>  (4) 
3

>  <ligand_id>  (4) 
3

>  <original_smiles>  (4) 
[H]c1c([H])c([H])c2c(c1[H])C([H])([H])C([H])([H])C([H])([H])C2([H])N([H])C(=O)C1([H])N(C(=O)C([H])(N([H])C(=O)C([H])(N([H])C([H])([H])[H])C([H])([H])[H])C(C([H])([H])[H])(C([H])([H])[H])C([H])([H])[H])C([H])([H])c2c([H])c(OC([H])([H])C([H])([H])C([H])(C([H])([H])[H])C3([H])C([H])([H])C([H])(N([H])C(=O)N4C([H])([H])C([H])([H])C([H])([H])C([H])(n5nc(-c6c([H])c([H])c(Oc7c([H])c([H])c(F)c([H])c7F)c([H])c6[H])c(C(=O)N([H])[H])c5N([H])[H])C4([H])[H])C3([H])[H])c([H])c([H])c2C1([H])[H]

>  <smiles>  (4) 
[H]c1c([H])c([H])c2c(c1[H])C([H])([H])C([H])([H])C([H])([H])C2([H])N([H])C(=O)C1([H])N(C(=O)C([H])(N([H])C(=O)C([H])(N([H])C([H])([H])[H])C([H])([H])[H])C(C([H])([H])[H])(C([H])([H])[H])C([H])([H])[H])C([H])([H])c2c([H])c(OC([H])([H])C([H])([H])C([H])(C([H])([H])[H])C3([H])C([H])([H])C([H])(N([H])C(=O)N4C([H])([H])C([H])([H])C([H])([H])C([H])(n5nc(-c6c([H])c([H])c(Oc7c([H])c([H])c(F)c([H])c7F)c([H])c6[H])c(C(=O)N([H])[H])c5N([H])[H])C4([H])[H])C3([H])[H])c([H])c([H])c2C1([H])[H]

$$$$
4:0:0
     RDKit          3D

 92100  0  0  1  0  0  0  0  0999 V2000
  -30.0260  -19.5320   19.6220 C   0  0  0  0  0  2  0  0  0  0  0  0
  -30.3070  -18.8210   21.8880 C   0  0  0  0  0  2  0  0  0  0  0  0
  -30.5840  -18.2370   20.4880 C   0  0  0  0  0  3  0  0  0  0  0  0
  -29.6210  -20.8460   20.4980 C   0  0  0  0  0  3  0  0  0  0  0  0
  -30.3480  -20.3850   21.8000 C   0  0  0  0  0  3  0  0  0  0  0  0
  -29.8000  -21.0100   23.0190 N   0  0  0  0  0  4  0  0  0  0  0  0
  -28.8240  -20.7990   23.1310 H   0  0  0  0  0  0  0  0  0  0  0  0
  -29.9100  -22.0070   22.9880 H   0  0  0  0  0  0  0  0  0  0  0  0
  -30.2900  -20.6770   23.8300 H   0  0  0  0  0  0  0  0  0  0  0  0
  -29.9190  -22.4590   20.1180 C   0  0  0  0  0  2  0  0  0  0  0  0
  -28.9010  -23.6470   19.5270 C   0  0  0  0  0  2  0  0  0  0  0  0
  -28.7600  -25.1740   20.1960 C   0  0  0  0  0  2  0  0  0  0  0  0
  -28.6220  -26.5430   19.5100 O   0  0  0  0  0  0  0  0  0  0  0  0
  -24.6350  -31.6430   22.9970 C   0  0  0  0  0  0  0  0  0  0  0  0
  -27.4620  -27.3670   19.6260 C   0  0  0  0  0  0  0  0  0  0  0  0
  -23.4860  -30.2580   21.3100 C   0  0  0  0  0  3  0  0  0  0  0  0
  -25.0000  -28.8800   19.7600 C   0  0  0  0  0  0  0  0  0  0  0  0
  -25.9990  -30.7430   21.0830 C   0  0  0  0  0  2  0  0  0  0  0  0
  -26.1570  -29.4010   20.3530 C   0  0  0  0  0  0  0  0  0  0  0  0
  -27.3910  -28.6640   20.2620 C   0  0  0  0  0  3  0  0  0  0  0  0
  -26.2720  -26.9230   19.0160 C   0  0  0  0  0  3  0  0  0  0  0  0
  -25.0650  -27.6530   19.0780 C   0  0  0  0  0  3  0  0  0  0  0  0
  -23.7100  -29.6730   19.8910 C   0  0  0  0  0  2  0  0  0  0  0  0
  -24.7260  -30.8990   21.8540 N   0  0  0  0  0  0  0  0  0  0  0  0
  -23.5490  -31.8120   23.5750 O   0  0  0  0  0  0  0  0  0  0  0  0
  -22.9170  -29.1490   22.2300 C   0  0  0  0  0  0  0  0  0  0  0  0
  -21.6120  -28.8560   22.1000 N   0  0  0  0  0  0  0  0  0  0  0  0
  -23.6540  -28.5550   23.0240 O   0  0  0  0  0  0  0  0  0  0  0  0
  -21.0700  -29.3950   21.4390 H   0  0  0  0  0  0  0  0  0  0  0  0
  -18.3760  -27.2850   22.5170 C   0  0  0  0  0  0  0  0  0  0  0  0
  -20.8880  -27.8120   22.8300 C   0  0  0  0  0  3  0  0  0  0  0  0
  -21.1500  -26.4200   22.2120 C   0  0  0  0  0  2  0  0  0  0  0  0
  -20.1010  -26.0140   21.1720 C   0  0  0  0  0  2  0  0  0  0  0  0
  -18.7040  -25.9870   21.8000 C   0  0  0  0  0  2  0  0  0  0  0  0
  -19.4000  -28.1510   22.9850 C   0  0  0  0  0  0  0  0  0  0  0  0
  -19.0410  -29.3610   23.6170 C   0  0  0  0  0  3  0  0  0  0  0  0
  -17.6880  -29.7120   23.7810 C   0  0  0  0  0  3  0  0  0  0  0  0
  -16.6770  -28.8470   23.3290 C   0  0  0  0  0  3  0  0  0  0  0  0
  -17.0220  -27.6350   22.7030 C   0  0  0  0  0  3  0  0  0  0  0  0
  -25.8850  -32.3340   23.6260 C   0  0  0  0  0  3  0  0  0  0  0  0
  -25.4890  -33.6880   24.0410 N   0  0  0  0  0  0  0  0  0  0  0  0
  -25.7450  -34.8050   23.3480 C   0  0  0  0  0  0  0  0  0  0  0  0
  -26.4070  -34.8060   22.3060 O   0  0  0  0  0  0  0  0  0  0  0  0
  -24.8960  -33.7570   24.8560 H   0  0  0  0  0  0  0  0  0  0  0  0
  -23.9010  -36.5020   23.1220 C   0  0  0  0  0  1  0  0  0  0  0  0
  -25.1780  -36.1310   23.8940 C   0  0  0  0  0  3  0  0  0  0  0  0
  -27.2640  -37.1010   24.7500 C   0  0  0  0  0  1  0  0  0  0  0  0
  -26.1390  -37.2520   23.8310 N   0  0  0  0  0  0  0  0  0  0  0  0
  -25.6780  -38.1350   24.0360 H   0  0  0  0  0  0  0  0  0  0  0  0
  -26.4830  -31.5360   24.8500 C   0  0  1  0  0  0  0  0  0  0  0  0
  -25.4350  -31.1770   25.9320 C   0  0  0  0  0  1  0  0  0  0  0  0
  -27.1420  -30.2200   24.3770 C   0  0  0  0  0  1  0  0  0  0  0  0
  -27.5990  -32.3690   25.5230 C   0  0  0  0  0  1  0  0  0  0  0  0
  -30.1290  -16.6250   20.3050 C   0  0  0  0  0  3  0  0  0  0  0  0
  -31.0060  -15.2600   20.6830 C   0  0  0  0  0  0  0  0  0  0  0  0
  -30.9940  -12.8570   19.9300 C   0  0  0  0  0  2  0  0  0  0  0  0
  -30.1670  -12.7450   18.6270 C   0  0  0  0  0  2  0  0  0  0  0  0
  -28.6640  -12.5790   18.9340 C   0  0  0  0  0  2  0  0  0  0  0  0
  -28.1600  -13.5570   20.0290 C   0  0  0  0  0  3  0  0  0  0  0  0
  -29.1190  -13.6280   21.2340 C   0  0  0  0  0  2  0  0  0  0  0  0
  -30.4500  -13.9870   20.7290 N   0  0  0  0  0  0  0  0  0  0  0  0
  -32.2390  -15.3280   20.6270 O   0  0  0  0  0  0  0  0  0  0  0  0
  -25.7330  -14.1630   20.5730 C   0  0  0  0  0  0  0  0  0  0  0  0
  -24.6400  -13.4000   20.8760 C   0  0  0  0  0  0  0  0  0  0  0  0
  -25.1010  -12.0480   20.9150 C   0  0  0  0  0  0  0  0  0  0  0  0
  -26.7880  -13.2760   20.4340 N   0  0  0  0  0  0  0  0  0  0  0  0
  -26.4120  -12.0010   20.7090 N   0  0  0  0  0  0  0  0  0  0  0  0
  -24.3570  -10.7920   21.0780 C   0  0  0  0  0  0  0  0  0  0  0  0
  -24.7070   -9.8500   22.0720 C   0  0  0  0  0  3  0  0  0  0  0  0
  -23.9640   -8.6590   22.2190 C   0  0  0  0  0  3  0  0  0  0  0  0
  -22.8590   -8.4010   21.3730 C   0  0  0  0  0  0  0  0  0  0  0  0
  -22.5300   -9.3310   20.3720 C   0  0  0  0  0  3  0  0  0  0  0  0
  -23.2730  -10.5150   20.2220 C   0  0  0  0  0  3  0  0  0  0  0  0
  -22.0960   -7.2590   21.4270 O   0  0  0  0  0  0  0  0  0  0  0  0
  -21.9390   -6.5540   22.5930 C   0  0  0  0  0  0  0  0  0  0  0  0
  -21.3960   -7.1460   23.7550 C   0  0  0  0  0  3  0  0  0  0  0  0
  -21.1870   -6.3660   24.9100 C   0  0  0  0  0  3  0  0  0  0  0  0
  -21.5090   -4.9960   24.9040 C   0  0  0  0  0  0  0  0  0  0  0  0
  -22.0430   -4.4040   23.7460 C   0  0  0  0  0  3  0  0  0  0  0  0
  -22.2540   -5.1800   22.5940 C   0  0  0  0  0  0  0  0  0  0  0  0
  -22.7500   -4.6000   21.4730 F   0  0  0  0  0  0  0  0  0  0  0  0
  -21.3020   -4.2450   26.0110 F   0  0  0  0  0  0  0  0  0  0  0  0
  -23.2270  -13.8870   21.0230 C   0  0  0  0  0  0  0  0  0  0  0  0
  -22.4310  -13.2170   21.8480 N   0  0  0  0  0  0  0  0  0  0  0  0
  -22.8360  -14.8970   20.4400 O   0  0  0  0  0  0  0  0  0  0  0  0
  -22.7600  -12.3990   22.3410 H   0  0  0  0  0  0  0  0  0  0  0  0
  -21.4810  -13.5270   21.9910 H   0  0  0  0  0  0  0  0  0  0  0  0
  -25.9150  -15.5290   20.3780 N   0  0  0  0  0  0  0  0  0  0  0  0
  -25.1430  -16.1840   20.4140 H   0  0  0  0  0  0  0  0  0  0  0  0
  -26.7880  -15.9600   20.1000 H   0  0  0  0  0  0  0  0  0  0  0  0
  -30.6460  -16.5960   17.7400 C   0  0  0  0  0  1  0  0  0  0  0  0
  -29.5980  -16.4440   18.8590 C   0  0  0  0  0  2  0  0  0  0  0  0
  1  3  1  0
  1  4  1  0
  3 54  1  0
  3  2  1  0
  4 10  1  0
  4  5  1  0
  5  2  1  0
  5  6  1  0
  6  7  1  0
  6  9  1  0
  8  6  1  0
 11 10  1  0
 11 12  1  0
 13 15  1  0
 13 12  1  0
 14 25  2  0
 15 20  1  0
 16 24  1  0
 16 26  1  0
 17 23  1  0
 17 19  1  0
 18 24  1  0
 19 18  1  0
 20 19  2  0
 21 22  1  0
 21 15  2  0
 22 17  2  0
 23 16  1  0
 24 14  1  0
 26 28  2  0
 27 26  1  0
 29 27  1  0
 30 39  2  0
 30 35  1  0
 31 27  1  0
 31 35  1  0
 32 31  1  0
 33 34  1  0
 33 32  1  0
 34 30  1  0
 35 36  2  0
 36 37  1  0
 38 37  2  0
 39 38  1  0
 40 14  1  0
 40 41  1  0
 40 50  1  0
 41 44  1  0
 42 46  1  0
 42 41  1  0
 43 42  2  0
 46 45  1  0
 48 46  1  0
 48 49  1  0
 48 47  1  0
 50 53  1  1
 50 51  1  0
 52 50  1  0
 54 92  1  0
 54 55  1  0
 55 61  1  0
 56 61  1  0
 57 58  1  0
 57 56  1  0
 59 58  1  0
 59 66  1  0
 59 60  1  0
 61 60  1  0
 62 55  2  0
 63 64  2  0
 64 65  1  0
 64 83  1  0
 65 68  1  0
 66 63  1  0
 66 67  1  0
 67 65  2  0
 68 69  1  0
 69 70  2  0
 71 74  1  0
 71 70  1  0
 72 71  2  0
 73 72  1  0
 73 68  2  0
 74 75  1  0
 75 80  2  0
 75 76  1  0
 76 77  2  0
 78 77  1  0
 78 82  1  0
 79 78  2  0
 80 79  1  0
 81 80  1  0
 83 84  1  0
 84 87  1  0
 84 86  1  0
 85 83  2  0
 88 89  1  0
 88 63  1  0
 90 88  1  0
 91 92  1  0
M  ISO  4  12 101  13 101  54 100  55 100
M  END
>  <TORSDO>  (5) 
F 22

>  <SCORE>  (5) 
-11.317

>  <name>  (5) 
4

>  <ligand_id>  (5) 
4

>  <original_smiles>  (5) 
[H]c1c([H])c([H])c2c(c1[H])C([H])([H])C([H])([H])C([H])([H])C2([H])N([H])C(=O)C1([H])N(C(=O)C([H])(N([H])C(=O)C([H])(N([H])C([H])([H])[H])C([H])([H])[H])C(C([H])([H])[H])(C([H])([H])[H])C([H])([H])[H])C([H])([H])c2c([H])c(OC([H])([H])C([H])([H])C([H])([H])C3([H])C([H])([H])C([H])(C([H])(C(=O)N4C([H])([H])C([H])([H])C([H])([H])C([H])(n5nc(-c6c([H])c([H])c(Oc7c([H])c([H])c(F)c([H])c7F)c([H])c6[H])c(C(=O)N([H])[H])c5N([H])[H])C4([H])[H])C([H])([H])C([H])([H])[H])C([H])([H])C3([H])[N+]([H])([H])[H])c([H])c([H])c2C1([H])[H]

>  <smiles>  (5) 
[H]c1c([H])c([H])c2c(c1[H])C([H])([H])C([H])([H])C([H])([H])C2([H])N([H])C(=O)C1([H])N(C(=O)C([H])(N([H])C(=O)C([H])(N([H])C([H])([H])[H])C([H])([H])[H])C(C([H])([H])[H])(C([H])([H])[H])C([H])([H])[H])C([H])([H])c2c([H])c(OC([H])([H])C([H])([H])C([H])([H])C3([H])C([H])([H])C([H])(C([H])(C(=O)N4C([H])([H])C([H])([H])C([H])([H])C([H])(n5nc(-c6c([H])c([H])c(Oc7c([H])c([H])c(F)c([H])c7F)c([H])c6[H])c(C(=O)N([H])[H])c5N([H])[H])C4([H])[H])C([H])([H])C([H])([H])[H])C([H])([H])C3([H])[N+]([H])([H])[H])c([H])c([H])c2C1([H])[H]

$$$$
5:0:0
     RDKit          3D

 86 93  0  0  1  0  0  0  0  0999 V2000
  -28.2270  -21.8570   18.4810 C   0  0  0  0  0  1  0  0  0  0  0  0
  -28.9980  -22.1120   19.8270 C   0  0  0  0  0  3  0  0  0  0  0  0
  -29.9430  -20.5190   21.9340 C   0  0  0  0  0  1  0  0  0  0  0  0
  -29.2720  -20.3060   20.5380 C   0  0  0  0  0  3  0  0  0  0  0  0
  -30.5150  -15.7620   20.1000 C   0  0  0  0  0  0  0  0  0  0  0  0
  -30.5610  -13.1930   19.3530 C   0  0  0  0  0  2  0  0  0  0  0  0
  -29.6780  -12.8780   18.1170 C   0  0  0  0  0  2  0  0  0  0  0  0
  -28.2190  -12.5690   18.5270 C   0  0  0  0  0  2  0  0  0  0  0  0
  -27.7350  -13.5230   19.6420 C   0  0  0  0  0  3  0  0  0  0  0  0
  -28.7840  -13.7600   20.7510 C   0  0  0  0  0  2  0  0  0  0  0  0
  -29.9750  -14.3920   20.1150 N   0  0  0  0  0  0  0  0  0  0  0  0
  -31.7250  -15.6730   19.7950 O   0  0  0  0  0  0  0  0  0  0  0  0
  -30.0330  -18.6730   20.0070 C   0  0  0  0  0  0  0  0  0  0  0  0
  -29.8130  -17.1500   20.2640 N   0  0  0  0  0  0  0  0  0  0  0  0
  -31.0030  -18.8890   19.2730 O   0  0  0  0  0  0  0  0  0  0  0  0
  -28.9150  -17.0200   20.7070 H   0  0  0  0  0  0  0  0  0  0  0  0
  -25.3680  -14.0300   20.4210 C   0  0  0  0  0  0  0  0  0  0  0  0
  -24.3090  -13.2410   20.7920 C   0  0  0  0  0  0  0  0  0  0  0  0
  -24.7890  -11.8980   20.7610 C   0  0  0  0  0  0  0  0  0  0  0  0
  -26.4190  -13.1630   20.1650 N   0  0  0  0  0  0  0  0  0  0  0  0
  -26.0840  -11.8710   20.4300 N   0  0  0  0  0  0  0  0  0  0  0  0
  -24.0590  -10.6320   20.9590 C   0  0  0  0  0  0  0  0  0  0  0  0
  -24.4820   -9.6730   21.9040 C   0  0  0  0  0  3  0  0  0  0  0  0
  -23.7540   -8.4800   22.0890 C   0  0  0  0  0  3  0  0  0  0  0  0
  -22.5850   -8.2370   21.3320 C   0  0  0  0  0  0  0  0  0  0  0  0
  -22.1760   -9.1850   20.3820 C   0  0  0  0  0  3  0  0  0  0  0  0
  -22.9030  -10.3720   20.1940 C   0  0  0  0  0  3  0  0  0  0  0  0
  -21.8260   -7.0960   21.4250 O   0  0  0  0  0  0  0  0  0  0  0  0
  -21.7600   -6.3710   22.5900 C   0  0  0  0  0  0  0  0  0  0  0  0
  -21.3060   -6.9440   23.7960 C   0  0  0  0  0  3  0  0  0  0  0  0
  -21.1820   -6.1450   24.9540 C   0  0  0  0  0  3  0  0  0  0  0  0
  -21.5090   -4.7750   24.9020 C   0  0  0  0  0  0  0  0  0  0  0  0
  -21.9480   -4.2000   23.6980 C   0  0  0  0  0  3  0  0  0  0  0  0
  -22.0740   -4.9980   22.5450 C   0  0  0  0  0  0  0  0  0  0  0  0
  -22.4830   -4.4330   21.3840 F   0  0  0  0  0  0  0  0  0  0  0  0
  -21.3800   -4.0060   26.0100 F   0  0  0  0  0  0  0  0  0  0  0  0
  -22.9140  -13.7220   21.0670 C   0  0  0  0  0  0  0  0  0  0  0  0
  -22.1840  -13.0410   21.9440 N   0  0  0  0  0  0  0  0  0  0  0  0
  -22.4820  -14.7420   20.5390 O   0  0  0  0  0  0  0  0  0  0  0  0
  -22.5420  -12.2240   22.4060 H   0  0  0  0  0  0  0  0  0  0  0  0
  -21.2500  -13.3570   22.1590 H   0  0  0  0  0  0  0  0  0  0  0  0
  -25.5200  -15.3980   20.2400 N   0  0  0  0  0  0  0  0  0  0  0  0
  -24.7420  -16.0450   20.3420 H   0  0  0  0  0  0  0  0  0  0  0  0
  -26.3510  -15.8290   19.8500 H   0  0  0  0  0  0  0  0  0  0  0  0
  -28.3390  -23.8670   20.4170 C   0  0  0  0  0  2  0  0  0  0  0  0
  -28.3410  -25.6100   20.0660 O   0  0  0  0  0  0  0  0  0  0  0  0
  -24.6450  -31.8340   23.0590 C   0  0  0  0  0  0  0  0  0  0  0  0
  -27.3070  -26.7830   20.0900 C   0  0  0  0  0  0  0  0  0  0  0  0
  -23.4920  -30.4090   21.4150 C   0  0  0  0  0  3  0  0  0  0  0  0
  -24.9790  -28.7660   20.0310 C   0  0  0  0  0  0  0  0  0  0  0  0
  -26.0790  -30.5910   21.3170 C   0  0  0  0  0  2  0  0  0  0  0  0
  -26.1740  -29.1570   20.6560 C   0  0  0  0  0  0  0  0  0  0  0  0
  -27.3330  -28.2020   20.6290 C   0  0  0  0  0  3  0  0  0  0  0  0
  -26.0660  -26.6070   19.4150 C   0  0  0  0  0  3  0  0  0  0  0  0
  -24.9730  -27.5290   19.3670 C   0  0  0  0  0  3  0  0  0  0  0  0
  -23.7530  -29.6930   20.0550 C   0  0  0  0  0  2  0  0  0  0  0  0
  -24.7620  -30.9800   21.9820 N   0  0  0  0  0  0  0  0  0  0  0  0
  -23.5410  -32.1240   23.5510 O   0  0  0  0  0  0  0  0  0  0  0  0
  -22.7880  -29.4330   22.3940 C   0  0  0  0  0  0  0  0  0  0  0  0
  -21.4550  -29.2880   22.2940 N   0  0  0  0  0  0  0  0  0  0  0  0
  -23.4550  -28.7990   23.2130 O   0  0  0  0  0  0  0  0  0  0  0  0
  -20.9780  -29.8430   21.6020 H   0  0  0  0  0  0  0  0  0  0  0  0
  -18.0570  -28.1120   22.8710 C   0  0  0  0  0  0  0  0  0  0  0  0
  -20.6290  -28.3430   23.0660 C   0  0  0  0  0  3  0  0  0  0  0  0
  -20.6890  -26.9190   22.4670 C   0  0  0  0  0  2  0  0  0  0  0  0
  -19.5580  -26.6290   21.4760 C   0  0  0  0  0  2  0  0  0  0  0  0
  -18.1960  -26.7790   22.1580 C   0  0  0  0  0  2  0  0  0  0  0  0
  -19.1970  -28.8570   23.2790 C   0  0  0  0  0  0  0  0  0  0  0  0
  -19.0030  -30.1020   23.9180 C   0  0  0  0  0  3  0  0  0  0  0  0
  -17.7040  -30.6030   24.1420 C   0  0  0  0  0  3  0  0  0  0  0  0
  -16.5810  -29.8590   23.7410 C   0  0  0  0  0  3  0  0  0  0  0  0
  -16.7610  -28.6130   23.1140 C   0  0  0  0  0  3  0  0  0  0  0  0
  -25.8920  -32.5120   23.7070 C   0  0  0  0  0  3  0  0  0  0  0  0
  -25.5270  -33.9010   24.0560 N   0  0  0  0  0  0  0  0  0  0  0  0
  -25.8540  -34.9860   23.3430 C   0  0  0  0  0  0  0  0  0  0  0  0
  -26.5410  -34.9230   22.3240 O   0  0  0  0  0  0  0  0  0  0  0  0
  -24.9030  -34.0190   24.8390 H   0  0  0  0  0  0  0  0  0  0  0  0
  -24.1040  -36.7730   23.0070 C   0  0  0  0  0  1  0  0  0  0  0  0
  -25.3350  -36.3550   23.8290 C   0  0  0  0  0  3  0  0  0  0  0  0
  -27.4420  -37.2540   24.7320 C   0  0  0  0  0  1  0  0  0  0  0  0
  -26.3560  -37.4270   23.7700 N   0  0  0  0  0  0  0  0  0  0  0  0
  -25.9360  -38.3400   23.9260 H   0  0  0  0  0  0  0  0  0  0  0  0
  -26.4000  -31.7530   24.9970 C   0  0  1  0  0  0  0  0  0  0  0  0
  -25.2980  -31.4980   26.0540 C   0  0  0  0  0  1  0  0  0  0  0  0
  -27.0170  -30.3840   24.6380 C   0  0  0  0  0  1  0  0  0  0  0  0
  -27.5260  -32.5770   25.6670 C   0  0  0  0  0  1  0  0  0  0  0  0
  2  1  1  0
  2 45  1  0
  2  4  1  0
  4  3  1  0
  5 11  1  0
  5 14  1  0
  6 11  1  0
  7  8  1  0
  7  6  1  0
  9  8  1  0
  9 20  1  0
  9 10  1  0
 11 10  1  0
 12  5  2  0
 13 14  1  0
 13  4  1  0
 14 16  1  0
 15 13  2  0
 17 18  2  0
 18 37  1  0
 19 18  1  0
 19 22  1  0
 20 17  1  0
 20 21  1  0
 21 19  2  0
 22 23  1  0
 23 24  2  0
 25 28  1  0
 25 24  1  0
 26 25  2  0
 27 26  1  0
 27 22  2  0
 28 29  1  0
 29 30  1  0
 30 31  2  0
 32 31  1  0
 32 36  1  0
 33 32  2  0
 34 29  2  0
 34 33  1  0
 35 34  1  0
 37 38  1  0
 38 41  1  0
 38 40  1  0
 39 37  2  0
 42 43  1  0
 42 17  1  0
 44 42  1  0
 46 48  1  0
 46 45  1  0
 47 58  2  0
 48 53  1  0
 49 57  1  0
 49 59  1  0
 50 56  1  0
 50 52  1  0
 51 57  1  0
 52 51  1  0
 53 52  2  0
 54 48  2  0
 55 54  1  0
 55 50  2  0
 56 49  1  0
 57 47  1  0
 59 61  2  0
 60 59  1  0
 62 60  1  0
 63 72  2  0
 63 68  1  0
 64 60  1  0
 64 68  1  0
 65 64  1  0
 66 67  1  0
 66 65  1  0
 67 63  1  0
 68 69  2  0
 69 70  1  0
 71 70  2  0
 72 71  1  0
 73 47  1  0
 73 74  1  0
 73 83  1  0
 74 77  1  0
 75 79  1  0
 75 74  1  0
 76 75  2  0
 79 78  1  0
 81 79  1  0
 81 82  1  0
 81 80  1  0
 83 86  1  1
 83 84  1  0
 85 83  1  0
M  ISO  4   5 100  14 100  45 101  46 101
M  END
>  <TORSDO>  (6) 
F 18

>  <SCORE>  (6) 
-16.369

>  <name>  (6) 
5

>  <ligand_id>  (6) 
5

>  <original_smiles>  (6) 
[H]c1c([H])c([H])c2c(c1[H])C([H])([H])C([H])([H])C([H])([H])C2([H])N([H])C(=O)C1([H])N(C(=O)C([H])(N([H])C(=O)C([H])(N([H])C([H])([H])[H])C([H])([H])[H])C(C([H])([H])[H])(C([H])([H])[H])C([H])([H])[H])C([H])([H])c2c([H])c(OC([H])([H])C([H])(C([H])([H])[H])C([H])(C(=O)N([H])C(=O)N3C([H])([H])C([H])([H])C([H])([H])C([H])(n4nc(-c5c([H])c([H])c(Oc6c([H])c([H])c(F)c([H])c6F)c([H])c5[H])c(C(=O)N([H])[H])c4N([H])[H])C3([H])[H])C([H])([H])[H])c([H])c([H])c2C1([H])[H]

>  <smiles>  (6) 
[H]c1c([H])c([H])c2c(c1[H])C([H])([H])C([H])([H])C([H])([H])C2([H])N([H])C(=O)C1([H])N(C(=O)C([H])(N([H])C(=O)C([H])(N([H])C([H])([H])[H])C([H])([H])[H])C(C([H])([H])[H])(C([H])([H])[H])C([H])([H])[H])C([H])([H])c2c([H])c(OC([H])([H])C([H])(C([H])([H])[H])C([H])(C(=O)N([H])C(=O)N3C([H])([H])C([H])([H])C([H])([H])C([H])(n4nc(-c5c([H])c([H])c(Oc6c([H])c([H])c(F)c([H])c6F)c([H])c5[H])c(C(=O)N([H])[H])c4N([H])[H])C3([H])[H])C([H])([H])[H])c([H])c([H])c2C1([H])[H]

$$$$
6:0:0
     RDKit          3D

 91 98  0  0  1  0  0  0  0  0999 V2000
  -28.7990  -22.3130   20.1830 C   0  0  0  0  0  3  0  0  0  0  0  0
  -29.3400  -23.8850   20.1750 C   0  0  0  0  0  3  0  0  0  0  0  0
  -28.3520  -25.1610   19.8200 C   0  0  0  0  0  3  0  0  0  0  0  0
  -28.6160  -26.6480   20.0460 O   0  0  0  0  0  0  0  0  0  0  0  0
  -24.7600  -31.9640   23.2480 C   0  0  0  0  0  0  0  0  0  0  0  0
  -27.5200  -27.5600   20.0030 C   0  0  0  0  0  0  0  0  0  0  0  0
  -23.6150  -30.6060   21.5390 C   0  0  0  0  0  3  0  0  0  0  0  0
  -25.1230  -29.1710   20.0440 C   0  0  0  0  0  0  0  0  0  0  0  0
  -26.1520  -30.9920   21.3920 C   0  0  0  0  0  2  0  0  0  0  0  0
  -26.2790  -29.6450   20.6760 C   0  0  0  0  0  0  0  0  0  0  0  0
  -27.4820  -28.8540   20.6410 C   0  0  0  0  0  3  0  0  0  0  0  0
  -26.3350  -27.1780   19.3330 C   0  0  0  0  0  3  0  0  0  0  0  0
  -25.1600  -27.9500   19.3600 C   0  0  0  0  0  3  0  0  0  0  0  0
  -23.8590  -30.0070   20.1310 C   0  0  0  0  0  2  0  0  0  0  0  0
  -24.8610  -31.2040   22.1170 N   0  0  0  0  0  0  0  0  0  0  0  0
  -23.6620  -32.1830   23.7830 O   0  0  0  0  0  0  0  0  0  0  0  0
  -22.9770  -29.5250   22.4450 C   0  0  0  0  0  0  0  0  0  0  0  0
  -21.6550  -29.3200   22.3100 N   0  0  0  0  0  0  0  0  0  0  0  0
  -23.6720  -28.8750   23.2320 O   0  0  0  0  0  0  0  0  0  0  0  0
  -21.1510  -29.8960   21.6490 H   0  0  0  0  0  0  0  0  0  0  0  0
  -18.3030  -28.0400   22.7900 C   0  0  0  0  0  0  0  0  0  0  0  0
  -20.8620  -28.3220   23.0300 C   0  0  0  0  0  3  0  0  0  0  0  0
  -20.9730  -26.9330   22.3610 C   0  0  0  0  0  2  0  0  0  0  0  0
  -19.8580  -26.6610   21.3460 C   0  0  0  0  0  2  0  0  0  0  0  0
  -18.4870  -26.7400   22.0220 C   0  0  0  0  0  2  0  0  0  0  0  0
  -19.4180  -28.7900   23.2490 C   0  0  0  0  0  0  0  0  0  0  0  0
  -19.1920  -30.0060   23.9290 C   0  0  0  0  0  3  0  0  0  0  0  0
  -17.8830  -30.4760   24.1490 C   0  0  0  0  0  3  0  0  0  0  0  0
  -16.7820  -29.7200   23.7060 C   0  0  0  0  0  3  0  0  0  0  0  0
  -16.9940  -28.5030   23.0340 C   0  0  0  0  0  3  0  0  0  0  0  0
  -26.0140  -32.6110   23.9080 C   0  0  0  0  0  3  0  0  0  0  0  0
  -26.4960  -31.8470   25.2030 C   0  0  1  0  0  0  0  0  0  0  0  0
  -25.3710  -31.5930   26.2320 C   0  0  0  0  0  1  0  0  0  0  0  0
  -27.1100  -30.4770   24.8320 C   0  0  0  0  0  1  0  0  0  0  0  0
  -27.6150  -32.6540   25.9020 C   0  0  0  0  0  1  0  0  0  0  0  0
  -25.6800  -34.0070   24.2290 N   0  0  0  0  0  0  0  0  0  0  0  0
  -25.9980  -35.0620   23.4670 C   0  0  0  0  0  0  0  0  0  0  0  0
  -26.6710  -34.9620   22.4390 O   0  0  0  0  0  0  0  0  0  0  0  0
  -25.0780  -34.1560   25.0260 H   0  0  0  0  0  0  0  0  0  0  0  0
  -24.2310  -36.8190   23.1160 C   0  0  0  0  0  1  0  0  0  0  0  0
  -25.4900  -36.4460   23.9150 C   0  0  0  0  0  3  0  0  0  0  0  0
  -27.6080  -37.3930   24.7240 C   0  0  0  0  0  1  0  0  0  0  0  0
  -26.5020  -37.5170   23.7780 N   0  0  0  0  0  0  0  0  0  0  0  0
  -26.0770  -38.4330   23.9050 H   0  0  0  0  0  0  0  0  0  0  0  0
  -29.8330  -21.0200   20.4030 C   0  0  0  0  0  2  0  0  0  0  0  0
  -28.3170  -19.0500   19.4030 C   0  0  0  0  0  1  0  0  0  0  0  0
  -29.7520  -19.5100   19.6930 C   0  0  0  0  0  3  0  0  0  0  0  0
  -32.0950  -18.4490   20.0070 C   0  0  0  0  0  1  0  0  0  0  0  0
  -30.6010  -18.2040   20.2760 C   0  0  0  0  0  3  0  0  0  0  0  0
  -30.1530  -16.6390   19.9080 C   0  0  0  0  0  2  0  0  0  0  0  0
  -31.0560  -15.2660   19.9130 C   0  0  0  0  0  0  0  0  0  0  0  0
  -30.8870  -12.9240   19.0240 C   0  0  0  0  0  2  0  0  0  0  0  0
  -29.9110  -12.9430   17.8230 C   0  0  0  0  0  2  0  0  0  0  0  0
  -28.4540  -12.7810   18.2980 C   0  0  0  0  0  2  0  0  0  0  0  0
  -28.1110  -13.7090   19.4900 C   0  0  0  0  0  3  0  0  0  0  0  0
  -29.2020  -13.6610   20.5800 C   0  0  0  0  0  2  0  0  0  0  0  0
  -30.4820  -14.0060   19.9530 N   0  0  0  0  0  0  0  0  0  0  0  0
  -32.2540  -15.3360   19.6190 O   0  0  0  0  0  0  0  0  0  0  0  0
  -25.7820  -14.3440   20.3580 C   0  0  0  0  0  0  0  0  0  0  0  0
  -24.7040  -13.5920   20.7370 C   0  0  0  0  0  0  0  0  0  0  0  0
  -25.1150  -12.2280   20.6200 C   0  0  0  0  0  0  0  0  0  0  0  0
  -26.7820  -13.4420   20.0300 N   0  0  0  0  0  0  0  0  0  0  0  0
  -26.3890  -12.1590   20.2490 N   0  0  0  0  0  0  0  0  0  0  0  0
  -24.3490  -10.9860   20.7850 C   0  0  0  0  0  0  0  0  0  0  0  0
  -24.7490   -9.9810   21.6940 C   0  0  0  0  0  3  0  0  0  0  0  0
  -23.9830   -8.8050   21.8450 C   0  0  0  0  0  3  0  0  0  0  0  0
  -22.8020   -8.6230   21.0860 C   0  0  0  0  0  0  0  0  0  0  0  0
  -22.4190   -9.6170   20.1670 C   0  0  0  0  0  3  0  0  0  0  0  0
  -23.1860  -10.7850   20.0140 C   0  0  0  0  0  3  0  0  0  0  0  0
  -22.0090   -7.5030   21.1490 O   0  0  0  0  0  0  0  0  0  0  0  0
  -21.8920   -6.7670   22.3010 C   0  0  0  0  0  0  0  0  0  0  0  0
  -21.3790   -7.3260   23.4930 C   0  0  0  0  0  3  0  0  0  0  0  0
  -21.2080   -6.5150   24.6340 C   0  0  0  0  0  3  0  0  0  0  0  0
  -21.5410   -5.1490   24.5840 C   0  0  0  0  0  0  0  0  0  0  0  0
  -22.0480   -4.5910   23.3970 C   0  0  0  0  0  3  0  0  0  0  0  0
  -22.2200   -5.3980   22.2580 C   0  0  0  0  0  0  0  0  0  0  0  0
  -22.6890   -4.8480   21.1110 F   0  0  0  0  0  0  0  0  0  0  0  0
  -21.3730   -4.3700   25.6770 F   0  0  0  0  0  0  0  0  0  0  0  0
  -23.3390  -14.1050   21.0930 C   0  0  0  0  0  0  0  0  0  0  0  0
  -22.6230  -13.4030   21.9610 N   0  0  0  0  0  0  0  0  0  0  0  0
  -22.9170  -15.1660   20.6320 O   0  0  0  0  0  0  0  0  0  0  0  0
  -22.9730  -12.5410   22.3560 H   0  0  0  0  0  0  0  0  0  0  0  0
  -21.7100  -13.7350   22.2420 H   0  0  0  0  0  0  0  0  0  0  0  0
  -25.9900  -15.7160   20.2390 N   0  0  0  0  0  0  0  0  0  0  0  0
  -25.2540  -16.3890   20.4170 H   0  0  0  0  0  0  0  0  0  0  0  0
  -26.8430  -16.1410   19.9030 H   0  0  0  0  0  0  0  0  0  0  0  0
  -27.7070  -22.2810   21.2990 C   0  0  0  0  0  2  0  0  0  0  0  0
  -26.6840  -21.2380   21.1430 N   0  0  0  0  0  4  0  0  0  0  0  0
  -26.0500  -21.4690   20.3980 H   0  0  0  0  0  0  0  0  0  0  0  0
  -26.1480  -21.1510   21.9890 H   0  0  0  0  0  0  0  0  0  0  0  0
  -27.1160  -20.3510   20.9400 H   0  0  0  0  0  0  0  0  0  0  0  0
  1  2  1  0
  1 45  1  0
  1 87  1  0
  3  4  1  0
  3  2  2  0
  5 16  2  0
  6  4  1  0
  6 11  1  0
  7 15  1  0
  7 17  1  0
  8 14  1  0
  8 10  1  0
  9 15  1  0
 10  9  1  0
 11 10  2  0
 12 13  1  0
 12  6  2  0
 13  8  2  0
 14  7  1  0
 15  5  1  0
 17 19  2  0
 18 17  1  0
 20 18  1  0
 21 30  2  0
 21 26  1  0
 22 18  1  0
 22 26  1  0
 23 22  1  0
 24 25  1  0
 24 23  1  0
 25 21  1  0
 26 27  2  0
 27 28  1  0
 29 28  2  0
 30 29  1  0
 31  5  1  0
 31 36  1  0
 31 32  1  0
 32 35  1  1
 32 33  1  0
 34 32  1  0
 36 39  1  0
 37 41  1  0
 37 36  1  0
 38 37  2  0
 41 40  1  0
 43 44  1  0
 43 41  1  0
 43 42  1  0
 47 46  1  0
 47 49  1  0
 47 45  1  0
 49 48  1  0
 50 51  1  0
 50 49  1  0
 51 57  1  0
 52 57  1  0
 53 54  1  0
 53 52  1  0
 55 54  1  0
 55 62  1  0
 55 56  1  0
 57 56  1  0
 58 51  2  0
 59 60  2  0
 60 79  1  0
 61 60  1  0
 61 64  1  0
 62 63  1  0
 62 59  1  0
 63 61  2  0
 64 65  1  0
 65 66  2  0
 67 70  1  0
 67 66  1  0
 68 67  2  0
 69 68  1  0
 69 64  2  0
 70 71  1  0
 71 72  1  0
 72 73  2  0
 74 73  1  0
 74 78  1  0
 75 74  2  0
 76 71  2  0
 76 75  1  0
 77 76  1  0
 79 80  1  0
 80 83  1  0
 80 82  1  0
 81 79  2  0
 84 59  1  0
 84 85  1  0
 86 84  1  0
 88 87  1  0
 88 90  1  0
 89 88  1  0
 91 88  1  0
M  ISO  4   3 101   4 101  50 100  51 100
M  END
>  <TORSDO>  (7) 
F 24

>  <SCORE>  (7) 
-10.646

>  <name>  (7) 
6

>  <ligand_id>  (7) 
6

>  <original_smiles>  (7) 
[H]c1c([H])c([H])c2c(c1[H])C([H])([H])C([H])([H])C([H])([H])C2([H])N([H])C(=O)C1([H])N(C(=O)C([H])(N([H])C(=O)C([H])(N([H])C([H])([H])[H])C([H])([H])[H])C(C([H])([H])[H])(C([H])([H])[H])C([H])([H])[H])C([H])([H])c2c([H])c(OC([H])([H])C([H])([H])C([H])(C([H])([H])C([H])(C([H])([H])[H])C([H])(C([H])([H])[H])C([H])([H])C(=O)N3C([H])([H])C([H])([H])C([H])([H])C([H])(n4nc(-c5c([H])c([H])c(Oc6c([H])c([H])c(F)c([H])c6F)c([H])c5[H])c(C(=O)N([H])[H])c4N([H])[H])C3([H])[H])C([H])([H])[N+]([H])([H])[H])c([H])c([H])c2C1([H])[H]

>  <smiles>  (7) 
[H]c1c([H])c([H])c2c(c1[H])C([H])([H])C([H])([H])C([H])([H])C2([H])N([H])C(=O)C1([H])N(C(=O)C([H])(N([H])C(=O)C([H])(N([H])C([H])([H])[H])C([H])([H])[H])C(C([H])([H])[H])(C([H])([H])[H])C([H])([H])[H])C([H])([H])c2c([H])c(OC([H])([H])C([H])([H])C([H])(C([H])([H])C([H])(C([H])([H])[H])C([H])(C([H])([H])[H])C([H])([H])C(=O)N3C([H])([H])C([H])([H])C([H])([H])C([H])(n4nc(-c5c([H])c([H])c(Oc6c([H])c([H])c(F)c([H])c6F)c([H])c5[H])c(C(=O)N([H])[H])c4N([H])[H])C3([H])[H])C([H])([H])[N+]([H])([H])[H])c([H])c([H])c2C1([H])[H]

$$$$
7:0:0
     RDKit          3D

 91 99  0  0  1  0  0  0  0  0999 V2000
  -31.3920  -18.8140   20.3430 C   0  0  0  0  0  3  0  0  0  0  0  0
  -30.9710  -20.1950   20.3240 C   0  0  0  0  0  3  0  0  0  0  0  0
  -29.2070  -18.1500   19.7110 C   0  0  0  0  0  3  0  0  0  0  0  0
  -30.5210  -17.7070   20.0900 C   0  0  0  0  0  0  0  0  0  0  0  0
  -29.6380  -20.6290   20.0390 C   0  0  0  0  0  0  0  0  0  0  0  0
  -28.7860  -19.5420   19.6660 C   0  0  0  0  0  0  0  0  0  0  0  0
  -27.3580  -19.8790   19.2610 C   0  0  0  0  0  1  0  0  0  0  0  0
  -29.0930  -22.1110   20.4560 C   0  0  0  0  0  3  0  0  0  0  0  0
  -28.6640  -23.4090   19.5340 C   0  0  0  0  0  3  0  0  0  0  0  0
  -27.4300  -24.7720   21.4570 C   0  0  0  0  0  1  0  0  0  0  0  0
  -28.4080  -24.8720   20.2810 C   0  0  0  0  0  3  0  0  0  0  0  0
  -28.2650  -26.2520   19.6550 O   0  0  0  0  0  0  0  0  0  0  0  0
  -24.5760  -31.6350   23.0060 C   0  0  0  0  0  0  0  0  0  0  0  0
  -27.1320  -27.1040   19.7780 C   0  0  0  0  0  0  0  0  0  0  0  0
  -23.3480  -30.2910   21.3460 C   0  0  0  0  0  3  0  0  0  0  0  0
  -24.7660  -28.7580   19.8600 C   0  0  0  0  0  0  0  0  0  0  0  0
  -25.8870  -30.5890   21.1290 C   0  0  0  0  0  2  0  0  0  0  0  0
  -25.9510  -29.2180   20.4470 C   0  0  0  0  0  0  0  0  0  0  0  0
  -27.1340  -28.4070   20.3900 C   0  0  0  0  0  3  0  0  0  0  0  0
  -25.9210  -26.7010   19.1820 C   0  0  0  0  0  3  0  0  0  0  0  0
  -24.7560  -27.5060   19.2180 C   0  0  0  0  0  3  0  0  0  0  0  0
  -23.5350  -29.6490   19.9470 C   0  0  0  0  0  2  0  0  0  0  0  0
  -24.6270  -30.8540   21.8860 N   0  0  0  0  0  0  0  0  0  0  0  0
  -23.4970  -31.9020   23.5560 O   0  0  0  0  0  0  0  0  0  0  0  0
  -22.6830  -29.2600   22.2910 C   0  0  0  0  0  0  0  0  0  0  0  0
  -21.3480  -29.1210   22.1950 N   0  0  0  0  0  0  0  0  0  0  0  0
  -23.3660  -28.5830   23.0650 O   0  0  0  0  0  0  0  0  0  0  0  0
  -20.8510  -29.7200   21.5500 H   0  0  0  0  0  0  0  0  0  0  0  0
  -17.9580  -27.9870   22.7710 C   0  0  0  0  0  0  0  0  0  0  0  0
  -20.5330  -28.1650   22.9460 C   0  0  0  0  0  3  0  0  0  0  0  0
  -20.5720  -26.7650   22.2870 C   0  0  0  0  0  2  0  0  0  0  0  0
  -19.4130  -26.5190   21.3140 C   0  0  0  0  0  2  0  0  0  0  0  0
  -18.0670  -26.6660   22.0330 C   0  0  0  0  0  2  0  0  0  0  0  0
  -19.1160  -28.6960   23.1870 C   0  0  0  0  0  0  0  0  0  0  0  0
  -18.9590  -29.9360   23.8430 C   0  0  0  0  0  3  0  0  0  0  0  0
  -17.6790  -30.4640   24.0930 C   0  0  0  0  0  3  0  0  0  0  0  0
  -16.5350  -29.7470   23.7000 C   0  0  0  0  0  3  0  0  0  0  0  0
  -16.6780  -28.5130   23.0390 C   0  0  0  0  0  3  0  0  0  0  0  0
  -25.8670  -32.2430   23.6310 C   0  0  0  0  0  3  0  0  0  0  0  0
  -25.5610  -33.6280   24.0240 N   0  0  0  0  0  0  0  0  0  0  0  0
  -25.8890  -34.7150   23.3140 C   0  0  0  0  0  0  0  0  0  0  0  0
  -26.5500  -34.6540   22.2730 O   0  0  0  0  0  0  0  0  0  0  0  0
  -24.9700  -33.7480   24.8330 H   0  0  0  0  0  0  0  0  0  0  0  0
  -24.1570  -36.5260   23.0740 C   0  0  0  0  0  1  0  0  0  0  0  0
  -25.4130  -36.0830   23.8440 C   0  0  0  0  0  3  0  0  0  0  0  0
  -27.5580  -36.9330   24.6780 C   0  0  0  0  0  1  0  0  0  0  0  0
  -26.4440  -37.1410   23.7560 N   0  0  0  0  0  0  0  0  0  0  0  0
  -26.0370  -38.0550   23.9430 H   0  0  0  0  0  0  0  0  0  0  0  0
  -26.4000  -31.4210   24.8670 C   0  0  1  0  0  0  0  0  0  0  0  0
  -25.3230  -31.1460   25.9420 C   0  0  0  0  0  1  0  0  0  0  0  0
  -26.9730  -30.0610   24.4100 C   0  0  0  0  0  1  0  0  0  0  0  0
  -27.5610  -32.1850   25.5430 C   0  0  0  0  0  1  0  0  0  0  0  0
  -30.8850  -16.1810   20.5680 C   0  0  0  0  0  3  0  0  0  0  0  0
  -31.2110  -14.8610   19.6350 C   0  0  0  0  0  0  0  0  0  0  0  0
  -30.7940  -12.6320   18.5020 C   0  0  0  0  0  2  0  0  0  0  0  0
  -29.7090  -12.7360   17.4090 C   0  0  0  0  0  2  0  0  0  0  0  0
  -28.2960  -12.5800   18.0010 C   0  0  0  0  0  2  0  0  0  0  0  0
  -28.1080  -13.4450   19.2730 C   0  0  0  0  0  3  0  0  0  0  0  0
  -29.2770  -13.2310   20.2510 C   0  0  0  0  0  2  0  0  0  0  0  0
  -30.5160  -13.6500   19.5610 N   0  0  0  0  0  0  0  0  0  0  0  0
  -32.2350  -14.9440   18.9470 O   0  0  0  0  0  0  0  0  0  0  0  0
  -25.8850  -14.1340   20.3510 C   0  0  0  0  0  0  0  0  0  0  0  0
  -24.8140  -13.4030   20.7950 C   0  0  0  0  0  0  0  0  0  0  0  0
  -25.1600  -12.0340   20.5880 C   0  0  0  0  0  0  0  0  0  0  0  0
  -26.8150  -13.2080   19.9070 N   0  0  0  0  0  0  0  0  0  0  0  0
  -26.3920  -11.9330   20.1070 N   0  0  0  0  0  0  0  0  0  0  0  0
  -24.3670  -10.8100   20.7720 C   0  0  0  0  0  0  0  0  0  0  0  0
  -24.7810   -9.7830   21.6480 C   0  0  0  0  0  3  0  0  0  0  0  0
  -23.9910   -8.6250   21.8170 C   0  0  0  0  0  3  0  0  0  0  0  0
  -22.7730   -8.4890   21.1100 C   0  0  0  0  0  0  0  0  0  0  0  0
  -22.3780   -9.5050   20.2210 C   0  0  0  0  0  3  0  0  0  0  0  0
  -23.1660  -10.6530   20.0510 C   0  0  0  0  0  3  0  0  0  0  0  0
  -21.9510   -7.3900   21.1950 O   0  0  0  0  0  0  0  0  0  0  0  0
  -21.8230   -6.6760   22.3590 C   0  0  0  0  0  0  0  0  0  0  0  0
  -21.3780   -7.2750   23.5580 C   0  0  0  0  0  3  0  0  0  0  0  0
  -21.1950   -6.4870   24.7130 C   0  0  0  0  0  3  0  0  0  0  0  0
  -21.4470   -5.1040   24.6710 C   0  0  0  0  0  0  0  0  0  0  0  0
  -21.8830   -4.5030   23.4760 C   0  0  0  0  0  3  0  0  0  0  0  0
  -22.0690   -5.2870   22.3240 C   0  0  0  0  0  0  0  0  0  0  0  0
  -22.4700   -4.7010   21.1700 F   0  0  0  0  0  0  0  0  0  0  0  0
  -21.2630   -4.3450   25.7760 F   0  0  0  0  0  0  0  0  0  0  0  0
  -23.5090  -13.9490   21.2950 C   0  0  0  0  0  0  0  0  0  0  0  0
  -22.8570  -13.2320   22.2070 N   0  0  0  0  0  0  0  0  0  0  0  0
  -23.0850  -15.0390   20.9200 O   0  0  0  0  0  0  0  0  0  0  0  0
  -23.2180  -12.3470   22.5220 H   0  0  0  0  0  0  0  0  0  0  0  0
  -21.9910  -13.5770   22.5940 H   0  0  0  0  0  0  0  0  0  0  0  0
  -26.1380  -15.5000   20.2620 N   0  0  0  0  0  0  0  0  0  0  0  0
  -25.4660  -16.1950   20.5700 H   0  0  0  0  0  0  0  0  0  0  0  0
  -26.9530  -15.9010   19.8180 H   0  0  0  0  0  0  0  0  0  0  0  0
  -30.5620  -16.8300   23.0930 C   0  0  0  0  0  1  0  0  0  0  0  0
  -30.2410  -15.8600   21.9400 C   0  0  0  0  0  2  0  0  0  0  0  0
  2  1  1  0
  3  4  1  0
  4  1  2  0
  4 53  1  0
  5  2  2  0
  5  8  1  0
  6  3  2  0
  6  5  1  0
  7  6  1  0
  9 11  1  0
  9  8  2  0
 11 10  1  0
 12 14  1  0
 12 11  1  0
 13 24  2  0
 14 19  1  0
 15 23  1  0
 15 25  1  0
 16 22  1  0
 16 18  1  0
 17 23  1  0
 18 17  1  0
 19 18  2  0
 20 21  1  0
 20 14  2  0
 21 16  2  0
 22 15  1  0
 23 13  1  0
 25 27  2  0
 26 25  1  0
 28 26  1  0
 29 38  2  0
 29 34  1  0
 30 26  1  0
 30 34  1  0
 31 30  1  0
 32 33  1  0
 32 31  1  0
 33 29  1  0
 34 35  2  0
 35 36  1  0
 37 36  2  0
 38 37  1  0
 39 13  1  0
 39 40  1  0
 39 49  1  0
 40 43  1  0
 41 45  1  0
 41 40  1  0
 42 41  2  0
 45 44  1  0
 47 45  1  0
 47 48  1  0
 47 46  1  0
 49 52  1  1
 49 50  1  0
 51 49  1  0
 53 91  1  0
 54 53  1  0
 55 60  1  0
 56 57  1  0
 56 55  1  0
 58 57  1  0
 58 65  1  0
 58 59  1  0
 60 54  1  0
 60 59  1  0
 61 54  2  0
 62 63  2  0
 63 82  1  0
 64 67  1  0
 64 63  1  0
 65 66  1  0
 65 62  1  0
 66 64  2  0
 67 68  1  0
 68 69  2  0
 70 73  1  0
 70 69  1  0
 71 70  2  0
 72 71  1  0
 72 67  2  0
 73 74  1  0
 74 75  1  0
 75 76  2  0
 77 76  1  0
 77 81  1  0
 78 77  2  0
 79 74  2  0
 79 78  1  0
 80 79  1  0
 82 83  1  0
 83 85  1  0
 83 86  1  0
 84 82  2  0
 87 62  1  0
 87 88  1  0
 89 87  1  0
 91 90  1  0
M  ISO  4  11 101  12 101  53 100  54 100
M  END
>  <TORSDO>  (8) 
F 21

>  <SCORE>  (8) 
-11.546

>  <name>  (8) 
7

>  <ligand_id>  (8) 
7

>  <original_smiles>  (8) 
[H]c1c([H])c([H])c2c(c1[H])C([H])([H])C([H])([H])C([H])([H])C2([H])N([H])C(=O)C1([H])N(C(=O)C([H])(N([H])C(=O)C([H])(N([H])C([H])([H])[H])C([H])([H])[H])C(C([H])([H])[H])(C([H])([H])[H])C([H])([H])[H])C([H])([H])c2c([H])c(OC([H])(C([H])([H])[H])C([H])([H])C([H])([H])c3c([H])c([H])c(C([H])(C(=O)N4C([H])([H])C([H])([H])C([H])([H])C([H])(n5nc(-c6c([H])c([H])c(Oc7c([H])c([H])c(F)c([H])c7F)c([H])c6[H])c(C(=O)N([H])[H])c5N([H])[H])C4([H])[H])C([H])([H])C([H])([H])[H])c([H])c3C([H])([H])[H])c([H])c([H])c2C1([H])[H]

>  <smiles>  (8) 
[H]c1c([H])c([H])c2c(c1[H])C([H])([H])C([H])([H])C([H])([H])C2([H])N([H])C(=O)C1([H])N(C(=O)C([H])(N([H])C(=O)C([H])(N([H])C([H])([H])[H])C([H])([H])[H])C(C([H])([H])[H])(C([H])([H])[H])C([H])([H])[H])C([H])([H])c2c([H])c(OC([H])(C([H])([H])[H])C([H])([H])C([H])([H])c3c([H])c([H])c(C([H])(C(=O)N4C([H])([H])C([H])([H])C([H])([H])C([H])(n5nc(-c6c([H])c([H])c(Oc7c([H])c([H])c(F)c([H])c7F)c([H])c6[H])c(C(=O)N([H])[H])c5N([H])[H])C4([H])[H])C([H])([H])C([H])([H])[H])c([H])c3C([H])([H])[H])c([H])c([H])c2C1([H])[H]

$$$$
8:0:0
     RDKit          3D

 91 99  0  0  1  0  0  0  0  0999 V2000
  -29.0250  -21.1730   20.5820 N   0  0  0  0  0  4  0  0  0  0  0  0
  -29.8530  -21.2790   21.1470 H   0  0  0  0  0  0  0  0  0  0  0  0
  -28.2800  -21.1340   21.2590 H   0  0  0  0  0  0  0  0  0  0  0  0
  -30.4460  -15.4210   20.0400 C   0  0  0  0  0  0  0  0  0  0  0  0
  -30.3720  -12.9810   19.1210 C   0  0  0  0  0  2  0  0  0  0  0  0
  -29.4040  -12.7490   17.9340 C   0  0  0  0  0  2  0  0  0  0  0  0
  -27.9830  -12.4520   18.4410 C   0  0  0  0  0  2  0  0  0  0  0  0
  -27.5710  -13.4020   19.5900 C   0  0  0  0  0  3  0  0  0  0  0  0
  -28.6670  -13.5720   20.6630 C   0  0  0  0  0  2  0  0  0  0  0  0
  -29.8470  -14.1230   19.9660 N   0  0  0  0  0  0  0  0  0  0  0  0
  -31.6630  -15.3640   19.8080 O   0  0  0  0  0  0  0  0  0  0  0  0
  -28.0160  -18.6020   20.6280 C   0  0  0  0  0  2  0  0  0  0  0  0
  -28.3270  -17.0460   20.3640 C   0  0  0  0  0  2  0  0  0  0  0  0
  -30.2570  -18.3200   20.1560 C   0  0  0  0  0  3  0  0  0  0  0  0
  -29.0620  -19.5780   20.0110 C   0  0  0  0  0  3  0  0  0  0  0  0
  -29.7720  -16.7620   20.1760 N   0  0  0  0  0  0  0  0  0  0  0  0
  -25.2330  -13.9290   20.4560 C   0  0  0  0  0  0  0  0  0  0  0  0
  -24.1930  -13.1400   20.8550 C   0  0  0  0  0  0  0  0  0  0  0  0
  -24.6670  -11.7940   20.7790 C   0  0  0  0  0  0  0  0  0  0  0  0
  -26.2700  -13.0670   20.1550 N   0  0  0  0  0  0  0  0  0  0  0  0
  -25.9450  -11.7740   20.4160 N   0  0  0  0  0  0  0  0  0  0  0  0
  -23.9540  -10.5240   20.9740 C   0  0  0  0  0  0  0  0  0  0  0  0
  -24.4060   -9.5550   21.8960 C   0  0  0  0  0  3  0  0  0  0  0  0
  -23.6890   -8.3530   22.0800 C   0  0  0  0  0  3  0  0  0  0  0  0
  -22.5060   -8.1110   21.3410 C   0  0  0  0  0  0  0  0  0  0  0  0
  -22.0760   -9.0690   20.4050 C   0  0  0  0  0  3  0  0  0  0  0  0
  -22.7940  -10.2620   20.2210 C   0  0  0  0  0  3  0  0  0  0  0  0
  -21.7590   -6.9630   21.4350 O   0  0  0  0  0  0  0  0  0  0  0  0
  -21.7060   -6.2320   22.5940 C   0  0  0  0  0  0  0  0  0  0  0  0
  -21.2310   -6.7870   23.8040 C   0  0  0  0  0  3  0  0  0  0  0  0
  -21.1290   -5.9830   24.9550 C   0  0  0  0  0  3  0  0  0  0  0  0
  -21.4900   -4.6220   24.8990 C   0  0  0  0  0  0  0  0  0  0  0  0
  -21.9560   -4.0670   23.6950 C   0  0  0  0  0  3  0  0  0  0  0  0
  -22.0610   -4.8690   22.5450 C   0  0  0  0  0  0  0  0  0  0  0  0
  -22.4910   -4.3240   21.3820 F   0  0  0  0  0  0  0  0  0  0  0  0
  -21.3830   -3.8460   26.0020 F   0  0  0  0  0  0  0  0  0  0  0  0
  -22.8060  -13.6030   21.1860 C   0  0  0  0  0  0  0  0  0  0  0  0
  -22.1140  -12.8840   22.0620 N   0  0  0  0  0  0  0  0  0  0  0  0
  -22.3460  -14.6400   20.7070 O   0  0  0  0  0  0  0  0  0  0  0  0
  -22.4990  -12.0440   22.4680 H   0  0  0  0  0  0  0  0  0  0  0  0
  -21.1840  -13.1760   22.3300 H   0  0  0  0  0  0  0  0  0  0  0  0
  -25.3740  -15.3030   20.2900 N   0  0  0  0  0  0  0  0  0  0  0  0
  -24.6030  -15.9450   20.4390 H   0  0  0  0  0  0  0  0  0  0  0  0
  -26.1830  -15.7430   19.8750 H   0  0  0  0  0  0  0  0  0  0  0  0
  -31.3020  -18.4940   19.0420 C   0  0  0  0  0  0  0  0  0  0  0  0
  -31.1530  -18.0070   17.9160 O   0  0  0  0  0  0  0  0  0  0  0  0
  -33.4310  -19.6220   18.1420 C   0  0  0  0  0  1  0  0  0  0  0  0
  -32.5490  -19.3220   19.3670 C   0  0  0  0  0  2  0  0  0  0  0  0
  -28.7830  -22.6860   19.8720 C   0  0  0  0  0  2  0  0  0  0  0  0
  -28.1470  -24.2650   20.5440 C   0  0  0  0  0  2  0  0  0  0  0  0
  -28.2850  -25.9040   20.2430 O   0  0  0  0  0  0  0  0  0  0  0  0
  -24.6290  -31.9010   23.1830 C   0  0  0  0  0  0  0  0  0  0  0  0
  -27.2470  -26.9890   20.2420 C   0  0  0  0  0  0  0  0  0  0  0  0
  -23.4620  -30.4840   21.5430 C   0  0  0  0  0  3  0  0  0  0  0  0
  -24.9340  -28.8690   20.1570 C   0  0  0  0  0  0  0  0  0  0  0  0
  -26.0300  -30.7050   21.4230 C   0  0  0  0  0  2  0  0  0  0  0  0
  -26.1170  -29.2860   20.7810 C   0  0  0  0  0  0  0  0  0  0  0  0
  -27.2690  -28.3710   20.7890 C   0  0  0  0  0  3  0  0  0  0  0  0
  -26.0280  -26.7260   19.5790 C   0  0  0  0  0  3  0  0  0  0  0  0
  -24.9160  -27.6090   19.5350 C   0  0  0  0  0  3  0  0  0  0  0  0
  -23.7120  -29.7870   20.1780 C   0  0  0  0  0  2  0  0  0  0  0  0
  -24.7290  -31.0590   22.1030 N   0  0  0  0  0  0  0  0  0  0  0  0
  -23.5310  -32.1890   23.6880 O   0  0  0  0  0  0  0  0  0  0  0  0
  -22.7620  -29.4950   22.5110 C   0  0  0  0  0  0  0  0  0  0  0  0
  -21.4310  -29.3310   22.3820 N   0  0  0  0  0  0  0  0  0  0  0  0
  -23.4230  -28.8730   23.3470 O   0  0  0  0  0  0  0  0  0  0  0  0
  -20.9500  -29.8820   21.6840 H   0  0  0  0  0  0  0  0  0  0  0  0
  -18.0430  -28.1350   22.9020 C   0  0  0  0  0  0  0  0  0  0  0  0
  -20.6050  -28.3950   23.1540 C   0  0  0  0  0  3  0  0  0  0  0  0
  -20.7010  -26.9630   22.5770 C   0  0  0  0  0  2  0  0  0  0  0  0
  -19.5940  -26.6450   21.5660 C   0  0  0  0  0  2  0  0  0  0  0  0
  -18.2140  -26.7900   22.2150 C   0  0  0  0  0  2  0  0  0  0  0  0
  -19.1660  -28.8960   23.3270 C   0  0  0  0  0  0  0  0  0  0  0  0
  -18.9480  -30.1520   23.9310 C   0  0  0  0  0  3  0  0  0  0  0  0
  -17.6450  -30.6510   24.1110 C   0  0  0  0  0  3  0  0  0  0  0  0
  -16.5380  -29.8880   23.6990 C   0  0  0  0  0  3  0  0  0  0  0  0
  -16.7390  -28.6320   23.1010 C   0  0  0  0  0  3  0  0  0  0  0  0
  -25.8870  -32.5590   23.8250 C   0  0  0  0  0  3  0  0  0  0  0  0
  -26.3770  -31.8150   25.1290 C   0  0  1  0  0  0  0  0  0  0  0  0
  -25.2610  -31.5910   26.1770 C   0  0  0  0  0  1  0  0  0  0  0  0
  -26.9780  -30.4340   24.7850 C   0  0  0  0  0  1  0  0  0  0  0  0
  -27.5060  -32.6290   25.8030 C   0  0  0  0  0  1  0  0  0  0  0  0
  -25.5580  -33.9620   24.1380 N   0  0  0  0  0  0  0  0  0  0  0  0
  -25.8960  -35.0180   23.3860 C   0  0  0  0  0  0  0  0  0  0  0  0
  -26.5800  -34.9130   22.3650 O   0  0  0  0  0  0  0  0  0  0  0  0
  -24.9490  -34.1150   24.9290 H   0  0  0  0  0  0  0  0  0  0  0  0
  -24.1750  -36.8170   23.0030 C   0  0  0  0  0  1  0  0  0  0  0  0
  -25.4000  -36.4080   23.8360 C   0  0  0  0  0  3  0  0  0  0  0  0
  -27.5140  -37.3010   24.7130 C   0  0  0  0  0  1  0  0  0  0  0  0
  -26.4350  -37.4620   23.7420 N   0  0  0  0  0  0  0  0  0  0  0  0
  -26.0240  -38.3820   23.8750 H   0  0  0  0  0  0  0  0  0  0  0  0
  1  2  1  0
  1  3  1  0
  4 16  1  0
  5 10  1  0
  6  7  1  0
  6  5  1  0
  8  7  1  0
  8 20  1  0
  8  9  1  0
 10  4  1  0
 10  9  1  0
 11  4  2  0
 13 12  1  0
 14 45  1  0
 14 16  1  0
 15 14  1  0
 15  1  1  0
 15 12  1  0
 16 13  1  0
 17 18  2  0
 18 37  1  0
 19 18  1  0
 19 22  1  0
 20 21  1  0
 20 17  1  0
 21 19  2  0
 22 23  1  0
 23 24  2  0
 25 28  1  0
 25 24  1  0
 26 25  2  0
 27 26  1  0
 27 22  2  0
 28 29  1  0
 29 30  1  0
 30 31  2  0
 32 31  1  0
 32 36  1  0
 33 32  2  0
 34 29  2  0
 34 33  1  0
 35 34  1  0
 37 38  1  0
 38 41  1  0
 38 40  1  0
 39 37  2  0
 42 43  1  0
 42 17  1  0
 44 42  1  0
 45 48  1  0
 46 45  2  0
 47 48  1  0
 49 50  1  0
 49  1  1  0
 51 50  1  0
 52 63  2  0
 53 51  1  0
 53 58  1  0
 54 62  1  0
 54 64  1  0
 55 61  1  0
 55 57  1  0
 56 62  1  0
 57 58  2  0
 57 56  1  0
 59 53  2  0
 60 59  1  0
 60 55  2  0
 61 54  1  0
 62 52  1  0
 64 66  2  0
 65 64  1  0
 67 65  1  0
 68 77  2  0
 68 73  1  0
 69 65  1  0
 69 73  1  0
 70 69  1  0
 71 72  1  0
 71 70  1  0
 72 68  1  0
 73 74  2  0
 74 75  1  0
 76 75  2  0
 77 76  1  0
 78 52  1  0
 78 83  1  0
 78 79  1  0
 79 82  1  1
 79 80  1  0
 81 79  1  0
 83 86  1  0
 84 88  1  0
 84 83  1  0
 85 84  2  0
 88 87  1  0
 90 88  1  0
 90 91  1  0
 90 89  1  0
M  ISO  4   4 100  16 100  50 101  51 101
M  END
>  <TORSDO>  (9) 
F 20

>  <SCORE>  (9) 
-15.748

>  <name>  (9) 
8

>  <ligand_id>  (9) 
8

>  <original_smiles>  (9) 
[H]c1c([H])c([H])c2c(c1[H])C([H])([H])C([H])([H])C([H])([H])C2([H])N([H])C(=O)C1([H])N(C(=O)C([H])(N([H])C(=O)C([H])(N([H])C([H])([H])[H])C([H])([H])[H])C(C([H])([H])[H])(C([H])([H])[H])C([H])([H])[H])C([H])([H])c2c([H])c(OC([H])([H])C([H])([H])[N+]([H])([H])C3([H])C([H])(C(=O)C([H])([H])C([H])([H])[H])N(C(=O)N4C([H])([H])C([H])([H])C([H])([H])C([H])(n5nc(-c6c([H])c([H])c(Oc7c([H])c([H])c(F)c([H])c7F)c([H])c6[H])c(C(=O)N([H])[H])c5N([H])[H])C4([H])[H])C([H])([H])C3([H])[H])c([H])c([H])c2C1([H])[H]

>  <smiles>  (9) 
[H]c1c([H])c([H])c2c(c1[H])C([H])([H])C([H])([H])C([H])([H])C2([H])N([H])C(=O)C1([H])N(C(=O)C([H])(N([H])C(=O)C([H])(N([H])C([H])([H])[H])C([H])([H])[H])C(C([H])([H])[H])(C([H])([H])[H])C([H])([H])[H])C([H])([H])c2c([H])c(OC([H])([H])C([H])([H])[N+]([H])([H])C3([H])C([H])(C(=O)C([H])([H])C([H])([H])[H])N(C(=O)N4C([H])([H])C([H])([H])C([H])([H])C([H])(n5nc(-c6c([H])c([H])c(Oc7c([H])c([H])c(F)c([H])c7F)c([H])c6[H])c(C(=O)N([H])[H])c5N([H])[H])C4([H])[H])C([H])([H])C3([H])[H])c([H])c([H])c2C1([H])[H]

$$$$
9:0:0
     RDKit          3D

 91 98  0  0  1  0  0  0  0  0999 V2000
  -29.4640  -21.0480   20.0950 N   0  0  0  0  0  4  0  0  0  0  0  0
  -28.6710  -20.7270   20.6250 H   0  0  0  0  0  0  0  0  0  0  0  0
  -30.1530  -21.2760   20.7950 H   0  0  0  0  0  0  0  0  0  0  0  0
  -29.0100  -22.5400   19.4430 C   0  0  0  0  0  2  0  0  0  0  0  0
  -28.2370  -24.0290   20.1580 C   0  0  0  0  0  2  0  0  0  0  0  0
  -28.3540  -25.6920   20.0320 O   0  0  0  0  0  0  0  0  0  0  0  0
  -24.6320  -31.5660   23.1240 C   0  0  0  0  0  0  0  0  0  0  0  0
  -27.3030  -26.7610   20.0650 C   0  0  0  0  0  0  0  0  0  0  0  0
  -23.4880  -30.1930   21.4330 C   0  0  0  0  0  3  0  0  0  0  0  0
  -24.9810  -28.6250   20.0150 C   0  0  0  0  0  0  0  0  0  0  0  0
  -26.0550  -30.4320   21.3390 C   0  0  0  0  0  2  0  0  0  0  0  0
  -26.1550  -29.0320   20.6610 C   0  0  0  0  0  0  0  0  0  0  0  0
  -27.3130  -28.1250   20.6540 C   0  0  0  0  0  3  0  0  0  0  0  0
  -26.0930  -26.5080   19.3820 C   0  0  0  0  0  3  0  0  0  0  0  0
  -24.9770  -27.3850   19.3550 C   0  0  0  0  0  3  0  0  0  0  0  0
  -23.7530  -29.5360   20.0490 C   0  0  0  0  0  2  0  0  0  0  0  0
  -24.7460  -30.7580   22.0200 N   0  0  0  0  0  0  0  0  0  0  0  0
  -23.5300  -31.8320   23.6300 O   0  0  0  0  0  0  0  0  0  0  0  0
  -22.7850  -29.1700   22.3640 C   0  0  0  0  0  0  0  0  0  0  0  0
  -21.4540  -29.0140   22.2290 N   0  0  0  0  0  0  0  0  0  0  0  0
  -23.4450  -28.5180   23.1760 O   0  0  0  0  0  0  0  0  0  0  0  0
  -20.9740  -29.5920   21.5540 H   0  0  0  0  0  0  0  0  0  0  0  0
  -18.0670  -27.7960   22.6910 C   0  0  0  0  0  0  0  0  0  0  0  0
  -20.6270  -28.0520   22.9670 C   0  0  0  0  0  3  0  0  0  0  0  0
  -20.7280  -26.6400   22.3450 C   0  0  0  0  0  2  0  0  0  0  0  0
  -19.6280  -26.3520   21.3180 C   0  0  0  0  0  2  0  0  0  0  0  0
  -18.2450  -26.4730   21.9650 C   0  0  0  0  0  2  0  0  0  0  0  0
  -19.1850  -28.5450   23.1460 C   0  0  0  0  0  0  0  0  0  0  0  0
  -18.9630  -29.7820   23.7890 C   0  0  0  0  0  3  0  0  0  0  0  0
  -17.6570  -30.2720   23.9770 C   0  0  0  0  0  3  0  0  0  0  0  0
  -16.5540  -29.5220   23.5340 C   0  0  0  0  0  3  0  0  0  0  0  0
  -16.7600  -28.2850   22.8980 C   0  0  0  0  0  3  0  0  0  0  0  0
  -25.8820  -32.2120   23.7960 C   0  0  0  0  0  3  0  0  0  0  0  0
  -25.5520  -33.6110   24.1210 N   0  0  0  0  0  0  0  0  0  0  0  0
  -25.9340  -34.6770   23.4030 C   0  0  0  0  0  0  0  0  0  0  0  0
  -26.6620  -34.5830   22.4110 O   0  0  0  0  0  0  0  0  0  0  0  0
  -24.9110  -33.7570   24.8860 H   0  0  0  0  0  0  0  0  0  0  0  0
  -24.2340  -36.4890   22.9910 C   0  0  0  0  0  1  0  0  0  0  0  0
  -25.4330  -36.0640   23.8540 C   0  0  0  0  0  3  0  0  0  0  0  0
  -27.5300  -36.9340   24.7930 C   0  0  0  0  0  1  0  0  0  0  0  0
  -26.4750  -37.1140   23.8010 N   0  0  0  0  0  0  0  0  0  0  0  0
  -26.0660  -38.0350   23.9370 H   0  0  0  0  0  0  0  0  0  0  0  0
  -26.3440  -31.4500   25.1000 C   0  0  1  0  0  0  0  0  0  0  0  0
  -25.2110  -31.2260   26.1290 C   0  0  0  0  0  1  0  0  0  0  0  0
  -26.9380  -30.0670   24.7520 C   0  0  0  0  0  1  0  0  0  0  0  0
  -27.4700  -32.2470   25.8000 C   0  0  0  0  0  1  0  0  0  0  0  0
  -30.0820  -19.6520   19.3810 C   0  0  0  0  0  3  0  0  0  0  0  0
  -31.3030  -15.5340   20.5310 C   0  0  0  0  0  0  0  0  0  0  0  0
  -31.3150  -12.9610   20.0900 C   0  0  0  0  0  2  0  0  0  0  0  0
  -30.5580  -12.5140   18.8140 C   0  0  0  0  0  2  0  0  0  0  0  0
  -29.0580  -12.3370   19.1010 C   0  0  0  0  0  2  0  0  0  0  0  0
  -28.4920  -13.5000   19.9510 C   0  0  0  0  0  3  0  0  0  0  0  0
  -29.3880  -13.8600   21.1550 C   0  0  0  0  0  2  0  0  0  0  0  0
  -30.6950  -14.2420   20.5970 N   0  0  0  0  0  0  0  0  0  0  0  0
  -32.5400  -15.4510   20.5660 O   0  0  0  0  0  0  0  0  0  0  0  0
  -30.9270  -18.2700   20.1060 C   0  0  0  0  0  0  0  0  0  0  0  0
  -30.5940  -16.8150   20.2090 N   0  0  0  0  0  0  0  0  0  0  0  0
  -32.0170  -18.6020   20.5770 O   0  0  0  0  0  0  0  0  0  0  0  0
  -29.6330  -16.6430   19.9660 H   0  0  0  0  0  0  0  0  0  0  0  0
  -26.1080  -14.2550   20.4290 C   0  0  0  0  0  0  0  0  0  0  0  0
  -24.9560  -13.5760   20.7000 C   0  0  0  0  0  0  0  0  0  0  0  0
  -25.3170  -12.1940   20.7620 C   0  0  0  0  0  0  0  0  0  0  0  0
  -27.1000  -13.2970   20.3270 N   0  0  0  0  0  0  0  0  0  0  0  0
  -26.6290  -12.0520   20.5970 N   0  0  0  0  0  0  0  0  0  0  0  0
  -24.4760  -10.9990   20.9040 C   0  0  0  0  0  0  0  0  0  0  0  0
  -24.7670  -10.0010   21.8600 C   0  0  0  0  0  3  0  0  0  0  0  0
  -23.9310   -8.8710   21.9910 C   0  0  0  0  0  3  0  0  0  0  0  0
  -22.7910   -8.7320   21.1670 C   0  0  0  0  0  0  0  0  0  0  0  0
  -22.5180   -9.7180   20.2010 C   0  0  0  0  0  3  0  0  0  0  0  0
  -23.3530  -10.8380   20.0670 C   0  0  0  0  0  3  0  0  0  0  0  0
  -21.9350   -7.6570   21.2070 O   0  0  0  0  0  0  0  0  0  0  0  0
  -21.7920   -6.8940   22.3390 C   0  0  0  0  0  0  0  0  0  0  0  0
  -21.4070   -7.4590   23.5740 C   0  0  0  0  0  3  0  0  0  0  0  0
  -21.2020   -6.6280   24.6940 C   0  0  0  0  0  3  0  0  0  0  0  0
  -21.3740   -5.2370   24.5800 C   0  0  0  0  0  0  0  0  0  0  0  0
  -21.7540   -4.6720   23.3500 C   0  0  0  0  0  3  0  0  0  0  0  0
  -21.9590   -5.4990   22.2320 C   0  0  0  0  0  0  0  0  0  0  0  0
  -22.3040   -4.9480   21.0430 F   0  0  0  0  0  0  0  0  0  0  0  0
  -21.1710   -4.4380   25.6550 F   0  0  0  0  0  0  0  0  0  0  0  0
  -23.5800  -14.1670   20.7910 C   0  0  0  0  0  0  0  0  0  0  0  0
  -22.7130  -13.5790   21.6070 N   0  0  0  0  0  0  0  0  0  0  0  0
  -23.2810  -15.1870   20.1710 O   0  0  0  0  0  0  0  0  0  0  0  0
  -22.9660  -12.7560   22.1330 H   0  0  0  0  0  0  0  0  0  0  0  0
  -21.7830  -13.9600   21.7090 H   0  0  0  0  0  0  0  0  0  0  0  0
  -26.3930  -15.6010   20.2280 N   0  0  0  0  0  0  0  0  0  0  0  0
  -25.6660  -16.3070   20.2430 H   0  0  0  0  0  0  0  0  0  0  0  0
  -27.2910  -15.9610   19.9400 H   0  0  0  0  0  0  0  0  0  0  0  0
  -29.0620  -19.1620   18.3240 C   0  0  0  0  0  2  0  0  0  0  0  0
  -27.0680  -18.7040   19.9170 C   0  0  0  0  0  1  0  0  0  0  0  0
  -27.0970  -17.7600   17.5900 C   0  0  0  0  0  1  0  0  0  0  0  0
  -27.9670  -18.1710   18.7890 C   0  0  0  0  0  3  0  0  0  0  0  0
  1  2  1  0
  1  3  1  0
  4  1  1  0
  4  5  1  0
  6  8  1  0
  6  5  1  0
  7 18  2  0
  8 13  1  0
  9 17  1  0
  9 19  1  0
 10 16  1  0
 10 12  1  0
 11 17  1  0
 12 11  1  0
 13 12  2  0
 14  8  2  0
 15 14  1  0
 15 10  2  0
 16  9  1  0
 17  7  1  0
 19 21  2  0
 20 19  1  0
 22 20  1  0
 23 32  2  0
 23 28  1  0
 24 20  1  0
 24 28  1  0
 25 24  1  0
 26 27  1  0
 26 25  1  0
 27 23  1  0
 28 29  2  0
 29 30  1  0
 31 30  2  0
 32 31  1  0
 33  7  1  0
 33 34  1  0
 33 43  1  0
 34 37  1  0
 35 39  1  0
 35 34  1  0
 36 35  2  0
 39 38  1  0
 41 39  1  0
 41 42  1  0
 41 40  1  0
 43 46  1  1
 43 44  1  0
 45 43  1  0
 47 88  1  0
 47  1  1  0
 47 56  1  0
 48 55  2  0
 48 54  1  0
 49 54  1  0
 50 51  1  0
 50 49  1  0
 52 51  1  0
 52 63  1  0
 52 53  1  0
 54 53  1  0
 56 57  1  0
 56 58  2  0
 57 48  1  0
 59 57  1  0
 60 61  2  0
 61 62  1  0
 61 80  1  0
 62 65  1  0
 63 60  1  0
 63 64  1  0
 64 62  2  0
 65 66  1  0
 66 67  2  0
 68 71  1  0
 68 67  1  0
 69 68  2  0
 70 69  1  0
 70 65  2  0
 71 72  1  0
 72 73  1  0
 73 74  2  0
 75 74  1  0
 75 79  1  0
 76 75  2  0
 77 72  2  0
 77 76  1  0
 78 77  1  0
 80 81  1  0
 81 84  1  0
 81 83  1  0
 82 80  2  0
 85 86  1  0
 85 60  1  0
 87 85  1  0
 88 91  1  0
 90 91  1  0
 91 89  1  0
M  ISO  4   5 101   6 101  48 100  57 100
M  END
>  <TORSDO>  (10) 
F 21

>  <SCORE>  (10) 
-13.052

>  <name>  (10) 
9

>  <ligand_id>  (10) 
9

>  <original_smiles>  (10) 
[H]c1c([H])c([H])c2c(c1[H])C([H])([H])C([H])([H])C([H])([H])C2([H])N([H])C(=O)C1([H])N(C(=O)C([H])(N([H])C(=O)C([H])(N([H])C([H])([H])[H])C([H])([H])[H])C(C([H])([H])[H])(C([H])([H])[H])C([H])([H])[H])C([H])([H])c2c([H])c(OC([H])([H])C([H])([H])[N+]([H])([H])C([H])(C(=O)N([H])C(=O)N3C([H])([H])C([H])([H])C([H])([H])C([H])(n4nc(-c5c([H])c([H])c(Oc6c([H])c([H])c(F)c([H])c6F)c([H])c5[H])c(C(=O)N([H])[H])c4N([H])[H])C3([H])[H])C([H])([H])C([H])(C([H])([H])[H])C([H])([H])[H])c([H])c([H])c2C1([H])[H]

>  <smiles>  (10) 
[H]c1c([H])c([H])c2c(c1[H])C([H])([H])C([H])([H])C([H])([H])C2([H])N([H])C(=O)C1([H])N(C(=O)C([H])(N([H])C(=O)C([H])(N([H])C([H])([H])[H])C([H])([H])[H])C(C([H])([H])[H])(C([H])([H])[H])C([H])([H])[H])C([H])([H])c2c([H])c(OC([H])([H])C([H])([H])[N+]([H])([H])C([H])(C(=O)N([H])C(=O)N3C([H])([H])C([H])([H])C([H])([H])C([H])(n4nc(-c5c([H])c([H])c(Oc6c([H])c([H])c(F)c([H])c6F)c([H])c5[H])c(C(=O)N([H])[H])c4N([H])[H])C3([H])[H])C([H])([H])C([H])(C([H])([H])[H])C([H])([H])[H])c([H])c([H])c2C1([H])[H]

$$$$
10:0:0
     RDKit          3D

 89 97  0  0  1  0  0  0  0  0999 V2000
  -28.3090  -21.8740   20.5570 C   0  0  0  0  0  2  0  0  0  0  0  0
  -30.2090  -23.0960   19.7150 C   0  0  0  0  0  2  0  0  0  0  0  0
  -29.2720  -20.7700   19.8640 C   0  0  0  0  0  3  0  0  0  0  0  0
  -28.8900  -23.3900   20.4900 C   0  0  0  0  0  3  0  0  0  0  0  0
  -30.4470  -21.6090   19.5120 N   0  0  0  0  0  4  0  0  0  0  0  0
  -31.1960  -21.3210   20.1220 H   0  0  0  0  0  0  0  0  0  0  0  0
  -30.7420  -21.4140   18.5690 H   0  0  0  0  0  0  0  0  0  0  0  0
  -29.6800  -19.3070   20.5940 C   0  0  0  0  0  0  0  0  0  0  0  0
  -29.8170  -19.2800   21.8200 O   0  0  0  0  0  0  0  0  0  0  0  0
  -29.9740  -17.8750   19.8310 C   0  0  0  0  0  2  0  0  0  0  0  0
  -29.9110  -16.3660   20.5700 C   0  0  0  0  0  2  0  0  0  0  0  0
  -30.6480  -14.9800   20.0530 C   0  0  0  0  0  0  0  0  0  0  0  0
  -30.4760  -12.6560   19.0520 C   0  0  0  0  0  2  0  0  0  0  0  0
  -29.4810  -12.6630   17.8660 C   0  0  0  0  0  2  0  0  0  0  0  0
  -28.0350  -12.4610   18.3590 C   0  0  0  0  0  2  0  0  0  0  0  0
  -27.6980  -13.3530   19.5830 C   0  0  0  0  0  3  0  0  0  0  0  0
  -28.8070  -13.3080   20.6570 C   0  0  0  0  0  2  0  0  0  0  0  0
  -30.0620  -13.7180   20.0140 N   0  0  0  0  0  0  0  0  0  0  0  0
  -31.7970  -15.0720   19.6130 O   0  0  0  0  0  0  0  0  0  0  0  0
  -25.3450  -13.9140   20.4240 C   0  0  0  0  0  0  0  0  0  0  0  0
  -24.2980  -13.1310   20.8280 C   0  0  0  0  0  0  0  0  0  0  0  0
  -24.7650  -11.7820   20.7610 C   0  0  0  0  0  0  0  0  0  0  0  0
  -26.3820  -13.0450   20.1320 N   0  0  0  0  0  0  0  0  0  0  0  0
  -26.0430  -11.7550   20.3980 N   0  0  0  0  0  0  0  0  0  0  0  0
  -24.0500  -10.5150   20.9660 C   0  0  0  0  0  0  0  0  0  0  0  0
  -24.4930   -9.5600   21.9070 C   0  0  0  0  0  3  0  0  0  0  0  0
  -23.7740   -8.3590   22.0990 C   0  0  0  0  0  3  0  0  0  0  0  0
  -22.5980   -8.1070   21.3530 C   0  0  0  0  0  0  0  0  0  0  0  0
  -22.1770   -9.0500   20.4010 C   0  0  0  0  0  3  0  0  0  0  0  0
  -22.8960  -10.2420   20.2050 C   0  0  0  0  0  3  0  0  0  0  0  0
  -21.8520   -6.9580   21.4550 O   0  0  0  0  0  0  0  0  0  0  0  0
  -21.7790   -6.2500   22.6290 C   0  0  0  0  0  0  0  0  0  0  0  0
  -21.2890   -6.8290   23.8200 C   0  0  0  0  0  3  0  0  0  0  0  0
  -21.1650   -6.0450   24.9840 C   0  0  0  0  0  3  0  0  0  0  0  0
  -21.5210   -4.6830   24.9580 C   0  0  0  0  0  0  0  0  0  0  0  0
  -22.0040   -4.1040   23.7710 C   0  0  0  0  0  3  0  0  0  0  0  0
  -22.1280   -4.8850   22.6100 C   0  0  0  0  0  0  0  0  0  0  0  0
  -22.5740   -4.3160   21.4640 F   0  0  0  0  0  0  0  0  0  0  0  0
  -21.3970   -3.9270   26.0740 F   0  0  0  0  0  0  0  0  0  0  0  0
  -22.9120  -13.6000   21.1620 C   0  0  0  0  0  0  0  0  0  0  0  0
  -22.2240  -12.8900   22.0490 N   0  0  0  0  0  0  0  0  0  0  0  0
  -22.4520  -14.6330   20.6760 O   0  0  0  0  0  0  0  0  0  0  0  0
  -22.6070  -12.0510   22.4570 H   0  0  0  0  0  0  0  0  0  0  0  0
  -21.2960  -13.1860   22.3190 H   0  0  0  0  0  0  0  0  0  0  0  0
  -25.4950  -15.2870   20.2530 N   0  0  0  0  0  0  0  0  0  0  0  0
  -24.7270  -15.9340   20.3980 H   0  0  0  0  0  0  0  0  0  0  0  0
  -26.3300  -15.7360   19.9020 H   0  0  0  0  0  0  0  0  0  0  0  0
  -27.9460  -24.7150   20.0710 C   0  0  0  0  0  2  0  0  0  0  0  0
  -28.2200  -26.2300   20.2370 O   0  0  0  0  0  0  0  0  0  0  0  0
  -24.6070  -31.8960   23.1970 C   0  0  0  0  0  0  0  0  0  0  0  0
  -27.1550  -27.1940   20.1600 C   0  0  0  0  0  0  0  0  0  0  0  0
  -23.3850  -30.4810   21.5940 C   0  0  0  0  0  3  0  0  0  0  0  0
  -24.8120  -28.9110   20.1530 C   0  0  0  0  0  0  0  0  0  0  0  0
  -25.9310  -30.7720   21.3690 C   0  0  0  0  0  2  0  0  0  0  0  0
  -26.0000  -29.3760   20.7310 C   0  0  0  0  0  0  0  0  0  0  0  0
  -27.1720  -28.5340   20.7150 C   0  0  0  0  0  3  0  0  0  0  0  0
  -25.9360  -26.8230   19.5490 C   0  0  0  0  0  3  0  0  0  0  0  0
  -24.7910  -27.6450   19.5490 C   0  0  0  0  0  3  0  0  0  0  0  0
  -23.5800  -29.7990   20.2150 C   0  0  0  0  0  2  0  0  0  0  0  0
  -24.6620  -31.0700   22.1090 N   0  0  0  0  0  0  0  0  0  0  0  0
  -23.5280  -32.1740   23.7430 O   0  0  0  0  0  0  0  0  0  0  0  0
  -22.7350  -29.4740   22.5740 C   0  0  0  0  0  0  0  0  0  0  0  0
  -21.4100  -29.2770   22.4570 N   0  0  0  0  0  0  0  0  0  0  0  0
  -23.4230  -28.8740   23.4050 O   0  0  0  0  0  0  0  0  0  0  0  0
  -20.9100  -29.8150   21.7630 H   0  0  0  0  0  0  0  0  0  0  0  0
  -18.0560  -28.0030   22.9740 C   0  0  0  0  0  0  0  0  0  0  0  0
  -20.6080  -28.3350   23.2440 C   0  0  0  0  0  3  0  0  0  0  0  0
  -20.7460  -26.8920   22.7030 C   0  0  0  0  0  2  0  0  0  0  0  0
  -19.6560  -26.5180   21.6950 C   0  0  0  0  0  2  0  0  0  0  0  0
  -18.2680  -26.6460   22.3280 C   0  0  0  0  0  2  0  0  0  0  0  0
  -19.1540  -28.8030   23.3920 C   0  0  0  0  0  0  0  0  0  0  0  0
  -18.9020  -30.0730   23.9550 C   0  0  0  0  0  3  0  0  0  0  0  0
  -17.5850  -30.5460   24.1020 C   0  0  0  0  0  3  0  0  0  0  0  0
  -16.5000  -29.7430   23.7030 C   0  0  0  0  0  3  0  0  0  0  0  0
  -16.7380  -28.4740   23.1470 C   0  0  0  0  0  3  0  0  0  0  0  0
  -25.8920  -32.5430   23.8000 C   0  0  0  0  0  3  0  0  0  0  0  0
  -26.4380  -31.7790   25.0710 C   0  0  1  0  0  0  0  0  0  0  0  0
  -25.3650  -31.5280   26.1580 C   0  0  0  0  0  1  0  0  0  0  0  0
  -27.0300  -30.4100   24.6650 C   0  0  0  0  0  1  0  0  0  0  0  0
  -27.5950  -32.5850   25.7090 C   0  0  0  0  0  1  0  0  0  0  0  0
  -25.5760  -33.9380   24.1390 N   0  0  0  0  0  0  0  0  0  0  0  0
  -25.8980  -34.9980   23.3880 C   0  0  0  0  0  0  0  0  0  0  0  0
  -26.5620  -34.9050   22.3520 O   0  0  0  0  0  0  0  0  0  0  0  0
  -24.9910  -34.0870   24.9500 H   0  0  0  0  0  0  0  0  0  0  0  0
  -24.1700  -36.7910   23.0500 C   0  0  0  0  0  1  0  0  0  0  0  0
  -25.4060  -36.3800   23.8610 C   0  0  0  0  0  3  0  0  0  0  0  0
  -27.5330  -37.2530   24.7200 C   0  0  0  0  0  1  0  0  0  0  0  0
  -26.4390  -37.4340   23.7700 N   0  0  0  0  0  0  0  0  0  0  0  0
  -26.0320  -38.3520   23.9320 H   0  0  0  0  0  0  0  0  0  0  0  0
  2  4  1  0
  3  1  1  0
  3  8  1  0
  4 48  1  0
  4  1  1  0
  5  2  1  0
  5  3  1  0
  5  6  1  0
  7  5  1  0
  8  9  2  0
 10 11  1  0
 10  8  1  0
 12 11  1  0
 13 18  1  0
 14 15  1  0
 14 13  1  0
 16 15  1  0
 16 23  1  0
 16 17  1  0
 18 12  1  0
 18 17  1  0
 19 12  2  0
 20 21  2  0
 21 40  1  0
 22 21  1  0
 22 25  1  0
 23 24  1  0
 23 20  1  0
 24 22  2  0
 25 26  1  0
 26 27  2  0
 28 31  1  0
 28 27  1  0
 29 28  2  0
 30 29  1  0
 30 25  2  0
 31 32  1  0
 32 33  1  0
 33 34  2  0
 35 34  1  0
 35 39  1  0
 36 35  2  0
 37 32  2  0
 37 36  1  0
 38 37  1  0
 40 41  1  0
 41 44  1  0
 41 43  1  0
 42 40  2  0
 45 46  1  0
 45 20  1  0
 47 45  1  0
 48 49  1  0
 50 61  2  0
 51 49  1  0
 51 56  1  0
 52 60  1  0
 52 62  1  0
 53 59  1  0
 53 55  1  0
 54 60  1  0
 55 54  1  0
 56 55  2  0
 57 51  2  0
 58 57  1  0
 58 53  2  0
 59 52  1  0
 60 50  1  0
 62 64  2  0
 63 62  1  0
 65 63  1  0
 66 75  2  0
 66 71  1  0
 67 63  1  0
 67 71  1  0
 68 67  1  0
 69 70  1  0
 69 68  1  0
 70 66  1  0
 71 72  2  0
 72 73  1  0
 74 73  2  0
 75 74  1  0
 76 50  1  0
 76 81  1  0
 76 77  1  0
 77 80  1  1
 77 78  1  0
 79 77  1  0
 81 84  1  0
 82 86  1  0
 82 81  1  0
 83 82  2  0
 86 85  1  0
 88 86  1  0
 88 89  1  0
 88 87  1  0
M  ISO  4  11 100  12 100  48 101  49 101
M  END
>  <TORSDO>  (11) 
F 20

>  <SCORE>  (11) 
-13.270

>  <name>  (11) 
10

>  <ligand_id>  (11) 
10

>  <original_smiles>  (11) 
[H]c1c([H])c([H])c2c(c1[H])C([H])([H])C([H])([H])C([H])([H])C2([H])N([H])C(=O)C1([H])N(C(=O)C([H])(N([H])C(=O)C([H])(N([H])C([H])([H])[H])C([H])([H])[H])C(C([H])([H])[H])(C([H])([H])[H])C([H])([H])[H])C([H])([H])c2c([H])c(OC([H])([H])C3([H])C([H])([H])C([H])(C(=O)C([H])([H])C([H])([H])C(=O)N4C([H])([H])C([H])([H])C([H])([H])C([H])(n5nc(-c6c([H])c([H])c(Oc7c([H])c([H])c(F)c([H])c7F)c([H])c6[H])c(C(=O)N([H])[H])c5N([H])[H])C4([H])[H])[N+]([H])([H])C3([H])[H])c([H])c([H])c2C1([H])[H]

>  <smiles>  (11) 
[H]c1c([H])c([H])c2c(c1[H])C([H])([H])C([H])([H])C([H])([H])C2([H])N([H])C(=O)C1([H])N(C(=O)C([H])(N([H])C(=O)C([H])(N([H])C([H])([H])[H])C([H])([H])[H])C(C([H])([H])[H])(C([H])([H])[H])C([H])([H])[H])C([H])([H])c2c([H])c(OC([H])([H])C3([H])C([H])([H])C([H])(C(=O)C([H])([H])C([H])([H])C(=O)N4C([H])([H])C([H])([H])C([H])([H])C([H])(n5nc(-c6c([H])c([H])c(Oc7c([H])c([H])c(F)c([H])c7F)c([H])c6[H])c(C(=O)N([H])[H])c5N([H])[H])C4([H])[H])[N+]([H])([H])C3([H])[H])c([H])c([H])c2C1([H])[H]

$$$$
11:0:0
     RDKit          3D

 82 86  0  0  1  0  0  0  0  0999 V2000
  -28.1910  -25.1020   20.2490 O   0  0  0  0  0  1  0  0  0  0  0  0
  -24.7370  -31.7910   23.1670 C   0  0  0  0  0  0  0  0  0  0  0  0
  -27.2450  -26.4490   20.2180 C   0  0  0  0  0  0  0  0  0  0  0  0
  -23.5580  -30.3830   21.5390 C   0  0  0  0  0  3  0  0  0  0  0  0
  -25.0060  -28.6720   20.1480 C   0  0  0  0  0  0  0  0  0  0  0  0
  -26.1500  -30.4380   21.4480 C   0  0  0  0  0  2  0  0  0  0  0  0
  -26.2090  -28.9730   20.7960 C   0  0  0  0  0  0  0  0  0  0  0  0
  -27.2970  -27.9000   20.7870 C   0  0  0  0  0  3  0  0  0  0  0  0
  -26.0020  -26.4370   19.5090 C   0  0  0  0  0  3  0  0  0  0  0  0
  -24.9590  -27.4340   19.4780 C   0  0  0  0  0  3  0  0  0  0  0  0
  -23.8130  -29.6600   20.1800 C   0  0  0  0  0  2  0  0  0  0  0  0
  -24.8430  -30.9110   22.1030 N   0  0  0  0  0  0  0  0  0  0  0  0
  -23.6380  -32.1050   23.6620 O   0  0  0  0  0  0  0  0  0  0  0  0
  -22.8150  -29.4340   22.5200 C   0  0  0  0  0  0  0  0  0  0  0  0
  -21.4780  -29.3000   22.4000 N   0  0  0  0  0  0  0  0  0  0  0  0
  -23.4590  -28.8120   23.3680 O   0  0  0  0  0  0  0  0  0  0  0  0
  -21.0040  -29.8510   21.6990 H   0  0  0  0  0  0  0  0  0  0  0  0
  -18.0820  -28.0970   22.9310 C   0  0  0  0  0  0  0  0  0  0  0  0
  -20.6460  -28.3690   23.1780 C   0  0  0  0  0  3  0  0  0  0  0  0
  -20.7420  -26.9340   22.6100 C   0  0  0  0  0  2  0  0  0  0  0  0
  -19.6370  -26.6100   21.5990 C   0  0  0  0  0  2  0  0  0  0  0  0
  -18.2570  -26.7510   22.2470 C   0  0  0  0  0  2  0  0  0  0  0  0
  -19.2020  -28.8630   23.3520 C   0  0  0  0  0  0  0  0  0  0  0  0
  -18.9790  -30.1180   23.9600 C   0  0  0  0  0  3  0  0  0  0  0  0
  -17.6720  -30.6080   24.1440 C   0  0  0  0  0  3  0  0  0  0  0  0
  -16.5680  -29.8410   23.7340 C   0  0  0  0  0  3  0  0  0  0  0  0
  -16.7740  -28.5850   23.1330 C   0  0  0  0  0  3  0  0  0  0  0  0
  -25.9870  -32.4580   23.8190 C   0  0  0  0  0  3  0  0  0  0  0  0
  -25.6510  -33.8580   24.1610 N   0  0  0  0  0  0  0  0  0  0  0  0
  -25.9630  -34.9360   23.4270 C   0  0  0  0  0  0  0  0  0  0  0  0
  -26.6110  -34.8570   22.3820 O   0  0  0  0  0  0  0  0  0  0  0  0
  -25.0680  -33.9910   24.9730 H   0  0  0  0  0  0  0  0  0  0  0  0
  -24.2010  -36.7260   23.1830 C   0  0  0  0  0  1  0  0  0  0  0  0
  -25.4840  -36.3180   23.9250 C   0  0  0  0  0  3  0  0  0  0  0  0
  -27.6430  -37.2330   24.6630 C   0  0  0  0  0  1  0  0  0  0  0  0
  -26.4970  -37.3880   23.7720 N   0  0  0  0  0  0  0  0  0  0  0  0
  -26.0850  -38.3020   23.9410 H   0  0  0  0  0  0  0  0  0  0  0  0
  -26.4790  -31.7060   25.1190 C   0  0  1  0  0  0  0  0  0  0  0  0
  -25.3680  -31.4860   26.1730 C   0  0  0  0  0  1  0  0  0  0  0  0
  -27.0680  -30.3210   24.7740 C   0  0  0  0  0  1  0  0  0  0  0  0
  -27.6200  -32.5080   25.7880 C   0  0  0  0  0  1  0  0  0  0  0  0
  -28.1220  -23.1800   20.1470 C   0  0  0  0  0 15  0  0  0  0  0  0
  -29.1210  -21.2860   20.1140 C   0  0  0  0  0 15  0  0  0  0  0  0
  -28.8930  -19.1950   20.1260 C   0  0  0  0  0  2  0  0  0  0  0  0
  -27.3830  -19.2080   20.2680 C   0  0  0  0  0  1  0  0  0  0  0  0
  -29.2450  -17.6290   20.0940 N   0  0  0  0  0  2  0  0  0  0  0  0
  -30.1800  -16.1510   19.9970 C   0  0  0  0  0  0  0  0  0  0  0  0
  -30.4830  -13.4710   19.3150 C   0  0  0  0  0  2  0  0  0  0  0  0
  -29.6440  -12.8370   18.1490 C   0  0  0  0  0  2  0  0  0  0  0  0
  -28.2650  -12.3710   18.6300 C   0  0  0  0  0  2  0  0  0  0  0  0
  -27.6740  -13.4060   19.6050 C   0  0  0  0  0  3  0  0  0  0  0  0
  -28.6650  -13.9350   20.6770 C   0  0  0  0  0  2  0  0  0  0  0  0
  -29.7730  -14.6850   20.0020 N   0  0  0  0  0  0  0  0  0  0  0  0
  -31.4140  -16.0520   19.8090 O   0  0  0  0  0  0  0  0  0  0  0  0
  -25.3280  -13.8640   20.4270 C   0  0  0  0  0  0  0  0  0  0  0  0
  -24.2890  -13.0640   20.8060 C   0  0  0  0  0  0  0  0  0  0  0  0
  -24.7820  -11.7220   20.7600 C   0  0  0  0  0  0  0  0  0  0  0  0
  -26.3830  -13.0160   20.1570 N   0  0  0  0  0  0  0  0  0  0  0  0
  -26.0720  -11.7170   20.4220 N   0  0  0  0  0  0  0  0  0  0  0  0
  -24.0730  -10.4490   20.9570 C   0  0  0  0  0  0  0  0  0  0  0  0
  -24.5060   -9.4970   21.9070 C   0  0  0  0  0  3  0  0  0  0  0  0
  -23.7900   -8.2950   22.0960 C   0  0  0  0  0  3  0  0  0  0  0  0
  -22.6250   -8.0330   21.3360 C   0  0  0  0  0  0  0  0  0  0  0  0
  -22.2100   -8.9740   20.3760 C   0  0  0  0  0  3  0  0  0  0  0  0
  -22.9280  -10.1670   20.1860 C   0  0  0  0  0  3  0  0  0  0  0  0
  -21.8810   -6.8820   21.4320 O   0  0  0  0  0  0  0  0  0  0  0  0
  -21.8020   -6.1700   22.6020 C   0  0  0  0  0  0  0  0  0  0  0  0
  -21.3240   -6.7530   23.7960 C   0  0  0  0  0  3  0  0  0  0  0  0
  -21.1930   -5.9690   24.9590 C   0  0  0  0  0  3  0  0  0  0  0  0
  -21.5290   -4.6020   24.9290 C   0  0  0  0  0  0  0  0  0  0  0  0
  -21.9990   -4.0190   23.7400 C   0  0  0  0  0  3  0  0  0  0  0  0
  -22.1320   -4.8000   22.5790 C   0  0  0  0  0  0  0  0  0  0  0  0
  -22.5630   -4.2270   21.4300 F   0  0  0  0  0  0  0  0  0  0  0  0
  -21.3960   -3.8450   26.0440 F   0  0  0  0  0  0  0  0  0  0  0  0
  -22.8900  -13.5190   21.0930 C   0  0  0  0  0  0  0  0  0  0  0  0
  -22.1840  -12.8170   21.9720 N   0  0  0  0  0  0  0  0  0  0  0  0
  -22.4300  -14.5360   20.5730 O   0  0  0  0  0  0  0  0  0  0  0  0
  -22.5700  -11.9950   22.4140 H   0  0  0  0  0  0  0  0  0  0  0  0
  -21.2460  -13.1050   22.2080 H   0  0  0  0  0  0  0  0  0  0  0  0
  -25.4620  -15.2390   20.2540 N   0  0  0  0  0  0  0  0  0  0  0  0
  -24.6930  -15.8850   20.3970 H   0  0  0  0  0  0  0  0  0  0  0  0
  -26.3170  -15.6940   19.9570 H   0  0  0  0  0  0  0  0  0  0  0  0
  2 13  2  0
  3  1  1  0
  3  8  1  0
  4 12  1  0
  4 14  1  0
  5 11  1  0
  5  7  1  0
  6 12  1  0
  7  6  1  0
  8  7  2  0
  9  3  2  0
 10  9  1  0
 10  5  2  0
 11  4  1  0
 12  2  1  0
 14 16  2  0
 15 14  1  0
 17 15  1  0
 18 27  2  0
 18 23  1  0
 19 15  1  0
 19 23  1  0
 20 19  1  0
 21 22  1  0
 21 20  1  0
 22 18  1  0
 23 24  2  0
 24 25  1  0
 26 25  2  0
 27 26  1  0
 28  2  1  0
 28 29  1  0
 28 38  1  0
 29 32  1  0
 30 34  1  0
 30 29  1  0
 31 30  2  0
 34 33  1  0
 36 34  1  0
 36 37  1  0
 36 35  1  0
 38 41  1  1
 38 39  1  0
 40 38  1  0
 44 45  1  0
 46 44  1  0
 47 53  1  0
 47 46  1  0
 48 53  1  0
 49 50  1  0
 49 48  1  0
 51 50  1  0
 51 58  1  0
 51 52  1  0
 53 52  1  0
 54 47  2  0
 55 56  2  0
 56 75  1  0
 57 56  1  0
 57 60  1  0
 58 59  1  0
 58 55  1  0
 59 57  2  0
 60 61  1  0
 61 62  2  0
 63 66  1  0
 63 62  1  0
 64 63  2  0
 65 64  1  0
 65 60  2  0
 66 67  1  0
 67 68  1  0
 68 69  2  0
 70 69  1  0
 70 74  1  0
 71 70  2  0
 72 67  2  0
 72 71  1  0
 73 72  1  0
 75 76  1  0
 76 79  1  0
 76 78  1  0
 77 75  2  0
 80 81  1  0
 80 55  1  0
 82 80  1  0
M  ISO  4   1 101  42 101  46 100  47 100
M  END
>  <TORSDO>  (12) 
F 18

>  <SCORE>  (12) 
-15.752

>  <name>  (12) 
11

>  <ligand_id>  (12) 
11

>  <original_smiles>  (12) 
[H]c1c([H])c([H])c2c(c1[H])C([H])([H])C([H])([H])C([H])([H])C2([H])N([H])C(=O)C1([H])N(C(=O)C([H])(N([H])C(=O)C([H])(N([H])C([H])([H])[H])C([H])([H])[H])C(C([H])([H])[H])(C([H])([H])[H])C([H])([H])[H])C([H])([H])c2c([H])c(OC([H])([H])C([H])([H])C(=NC(=O)N3C([H])([H])C([H])([H])C([H])([H])C([H])(n4nc(-c5c([H])c([H])c(Oc6c([H])c([H])c(F)c([H])c6F)c([H])c5[H])c(C(=O)N([H])[H])c4N([H])[H])C3([H])[H])C([H])([H])[H])c([H])c([H])c2C1([H])[H]

>  <smiles>  (12) 
[H]c1c([H])c([H])c2c(c1[H])C([H])([H])C([H])([H])C([H])([H])C2([H])N([H])C(=O)C1([H])N(C(=O)C([H])(N([H])C(=O)C([H])(N([H])C([H])([H])[H])C([H])([H])[H])C(C([H])([H])[H])(C([H])([H])[H])C([H])([H])[H])C([H])([H])c2c([H])c(OC([H])([H])C([H])([H])C(=NC(=O)N3C([H])([H])C([H])([H])C([H])([H])C([H])(n4nc(-c5c([H])c([H])c(Oc6c([H])c([H])c(F)c([H])c6F)c([H])c5[H])c(C(=O)N([H])[H])c4N([H])[H])C3([H])[H])C([H])([H])[H])c([H])c([H])c2C1([H])[H]

$$$$
12:0:0
     RDKit          3D

 93101  0  0  1  0  0  0  0  0999 V2000
  -29.7230  -21.5480   19.2340 C   0  0  0  0  0  2  0  0  0  0  0  0
  -28.9810  -19.7030   21.3600 C   0  0  0  0  0  2  0  0  0  0  0  0
  -30.4240  -20.1090   19.4180 C   0  0  0  0  0  3  0  0  0  0  0  0
  -29.5470  -18.9430   20.0810 C   0  0  0  0  0  3  0  0  0  0  0  0
  -29.1450  -22.1860   20.5440 C   0  0  0  0  0  3  0  0  0  0  0  0
  -28.3260  -21.0640   21.1380 N   0  0  0  0  0  4  0  0  0  0  0  0
  -27.9750  -21.3750   22.0320 H   0  0  0  0  0  0  0  0  0  0  0  0
  -27.5210  -20.9230   20.5470 H   0  0  0  0  0  0  0  0  0  0  0  0
  -31.1170  -19.6860   18.0930 C   0  0  0  0  0  2  0  0  0  0  0  0
  -33.4180  -18.7820   18.9740 C   0  0  0  0  0  1  0  0  0  0  0  0
  -32.6610  -19.7970   18.1000 C   0  0  0  0  0  2  0  0  0  0  0  0
  -30.3890  -17.5300   20.3610 C   0  0  0  0  0  2  0  0  0  0  0  0
  -30.6190  -14.8950   20.0910 C   0  0  0  0  0  0  0  0  0  0  0  0
  -30.4050  -12.6120   19.0630 C   0  0  0  0  0  2  0  0  0  0  0  0
  -29.4210  -12.6440   17.8740 C   0  0  0  0  0  2  0  0  0  0  0  0
  -27.9730  -12.4470   18.3640 C   0  0  0  0  0  2  0  0  0  0  0  0
  -27.6320  -13.3430   19.5860 C   0  0  0  0  0  3  0  0  0  0  0  0
  -28.7290  -13.2830   20.6690 C   0  0  0  0  0  2  0  0  0  0  0  0
  -29.9890  -13.6670   20.0230 N   0  0  0  0  0  0  0  0  0  0  0  0
  -31.8040  -14.9690   19.7480 O   0  0  0  0  0  0  0  0  0  0  0  0
  -29.8770  -16.0640   20.3430 N   0  0  0  0  0  0  0  0  0  0  0  0
  -28.9060  -15.9210   20.5710 H   0  0  0  0  0  0  0  0  0  0  0  0
  -25.2820  -13.9190   20.4270 C   0  0  0  0  0  0  0  0  0  0  0  0
  -24.2330  -13.1420   20.8360 C   0  0  0  0  0  0  0  0  0  0  0  0
  -24.6930  -11.7920   20.7640 C   0  0  0  0  0  0  0  0  0  0  0  0
  -26.3110  -13.0420   20.1300 N   0  0  0  0  0  0  0  0  0  0  0  0
  -25.9690  -11.7560   20.3970 N   0  0  0  0  0  0  0  0  0  0  0  0
  -23.9710  -10.5280   20.9640 C   0  0  0  0  0  0  0  0  0  0  0  0
  -24.4160   -9.5650   21.8970 C   0  0  0  0  0  3  0  0  0  0  0  0
  -23.7000   -8.3630   22.0840 C   0  0  0  0  0  3  0  0  0  0  0  0
  -22.5200   -8.1180   21.3420 C   0  0  0  0  0  0  0  0  0  0  0  0
  -22.0920   -9.0690   20.3980 C   0  0  0  0  0  3  0  0  0  0  0  0
  -22.8090  -10.2620   20.2070 C   0  0  0  0  0  3  0  0  0  0  0  0
  -21.7710   -6.9700   21.4430 O   0  0  0  0  0  0  0  0  0  0  0  0
  -21.7080   -6.2510   22.6090 C   0  0  0  0  0  0  0  0  0  0  0  0
  -21.2320   -6.8190   23.8120 C   0  0  0  0  0  3  0  0  0  0  0  0
  -21.1210   -6.0250   24.9700 C   0  0  0  0  0  3  0  0  0  0  0  0
  -21.4730   -4.6620   24.9250 C   0  0  0  0  0  0  0  0  0  0  0  0
  -21.9410   -4.0920   23.7280 C   0  0  0  0  0  3  0  0  0  0  0  0
  -22.0530   -4.8840   22.5720 C   0  0  0  0  0  0  0  0  0  0  0  0
  -22.4840   -4.3260   21.4170 F   0  0  0  0  0  0  0  0  0  0  0  0
  -21.3570   -3.8970   26.0360 F   0  0  0  0  0  0  0  0  0  0  0  0
  -22.8480  -13.6180   21.1700 C   0  0  0  0  0  0  0  0  0  0  0  0
  -22.1480  -12.9050   22.0460 N   0  0  0  0  0  0  0  0  0  0  0  0
  -22.3960  -14.6540   20.6850 O   0  0  0  0  0  0  0  0  0  0  0  0
  -22.5250  -12.0630   22.4550 H   0  0  0  0  0  0  0  0  0  0  0  0
  -21.2160  -13.2010   22.3070 H   0  0  0  0  0  0  0  0  0  0  0  0
  -25.4420  -15.2910   20.2590 N   0  0  0  0  0  0  0  0  0  0  0  0
  -24.6740  -15.9370   20.4030 H   0  0  0  0  0  0  0  0  0  0  0  0
  -26.2500  -15.7220   19.8280 H   0  0  0  0  0  0  0  0  0  0  0  0
  -28.3950  -23.6790   20.6280 C   0  0  0  0  0  2  0  0  0  0  0  0
  -28.6180  -25.0400   19.7430 C   0  0  0  0  0  2  0  0  0  0  0  0
  -28.4440  -26.4560   20.2840 O   0  0  0  0  0  0  0  0  0  0  0  0
  -24.6060  -31.8850   23.2160 C   0  0  0  0  0  0  0  0  0  0  0  0
  -27.3010  -27.2980   20.1850 C   0  0  0  0  0  0  0  0  0  0  0  0
  -23.4360  -30.4830   21.5530 C   0  0  0  0  0  3  0  0  0  0  0  0
  -24.9200  -28.9350   20.1340 C   0  0  0  0  0  0  0  0  0  0  0  0
  -25.9770  -30.8100   21.4030 C   0  0  0  0  0  2  0  0  0  0  0  0
  -26.0770  -29.4250   20.7530 C   0  0  0  0  0  0  0  0  0  0  0  0
  -27.2640  -28.6210   20.7630 C   0  0  0  0  0  3  0  0  0  0  0  0
  -26.1170  -26.8730   19.5470 C   0  0  0  0  0  3  0  0  0  0  0  0
  -24.9490  -27.6700   19.5220 C   0  0  0  0  0  3  0  0  0  0  0  0
  -23.6740  -29.8070   20.1750 C   0  0  0  0  0  2  0  0  0  0  0  0
  -24.6920  -31.0790   22.1150 N   0  0  0  0  0  0  0  0  0  0  0  0
  -23.5140  -32.1530   23.7350 O   0  0  0  0  0  0  0  0  0  0  0  0
  -22.7600  -29.4660   22.5010 C   0  0  0  0  0  0  0  0  0  0  0  0
  -21.4360  -29.2810   22.3510 N   0  0  0  0  0  0  0  0  0  0  0  0
  -23.4270  -28.8430   23.3320 O   0  0  0  0  0  0  0  0  0  0  0  0
  -20.9560  -29.8330   21.6540 H   0  0  0  0  0  0  0  0  0  0  0  0
  -18.0640  -28.0390   22.7720 C   0  0  0  0  0  0  0  0  0  0  0  0
  -20.6110  -28.3330   23.1010 C   0  0  0  0  0  3  0  0  0  0  0  0
  -20.7470  -26.9020   22.5280 C   0  0  0  0  0  2  0  0  0  0  0  0
  -19.6730  -26.5660   21.4890 C   0  0  0  0  0  2  0  0  0  0  0  0
  -18.2740  -26.6920   22.0990 C   0  0  0  0  0  2  0  0  0  0  0  0
  -19.1610  -28.8160   23.2250 C   0  0  0  0  0  0  0  0  0  0  0  0
  -18.9110  -30.0780   23.8110 C   0  0  0  0  0  3  0  0  0  0  0  0
  -17.5980  -30.5600   23.9470 C   0  0  0  0  0  3  0  0  0  0  0  0
  -16.5120  -29.7810   23.5070 C   0  0  0  0  0  3  0  0  0  0  0  0
  -16.7460  -28.5210   22.9290 C   0  0  0  0  0  3  0  0  0  0  0  0
  -25.8750  -32.5250   23.8590 C   0  0  0  0  0  3  0  0  0  0  0  0
  -25.5600  -33.9270   24.1750 N   0  0  0  0  0  0  0  0  0  0  0  0
  -25.9080  -34.9770   23.4190 C   0  0  0  0  0  0  0  0  0  0  0  0
  -26.5930  -34.8700   22.3980 O   0  0  0  0  0  0  0  0  0  0  0  0
  -24.9680  -34.0920   24.9750 H   0  0  0  0  0  0  0  0  0  0  0  0
  -24.1920  -36.7740   23.0200 C   0  0  0  0  0  1  0  0  0  0  0  0
  -25.4120  -36.3680   23.8620 C   0  0  0  0  0  3  0  0  0  0  0  0
  -27.5220  -37.2540   24.7460 C   0  0  0  0  0  1  0  0  0  0  0  0
  -26.4480  -37.4190   23.7720 N   0  0  0  0  0  0  0  0  0  0  0  0
  -26.0370  -38.3380   23.9070 H   0  0  0  0  0  0  0  0  0  0  0  0
  -26.3630  -31.7640   25.1520 C   0  0  1  0  0  0  0  0  0  0  0  0
  -25.2470  -31.5320   26.1960 C   0  0  0  0  0  1  0  0  0  0  0  0
  -26.9500  -30.3830   24.7830 C   0  0  0  0  0  1  0  0  0  0  0  0
  -27.4970  -32.5660   25.8340 C   0  0  0  0  0  1  0  0  0  0  0  0
  1  3  1  0
  1  5  1  0
  3  9  1  0
  3  4  1  0
  4 12  1  0
  4  2  1  0
  5 51  1  0
  5  6  1  0
  6  2  1  0
  6  7  1  0
  8  6  1  0
  9 11  1  0
 11 10  1  0
 13 21  1  0
 14 19  1  0
 15 16  1  0
 15 14  1  0
 17 16  1  0
 17 26  1  0
 17 18  1  0
 19 13  1  0
 19 18  1  0
 20 13  2  0
 21 12  1  0
 21 22  1  0
 23 24  2  0
 24 43  1  0
 25 24  1  0
 25 28  1  0
 26 27  1  0
 26 23  1  0
 27 25  2  0
 28 29  1  0
 29 30  2  0
 31 34  1  0
 31 30  1  0
 32 31  2  0
 33 32  1  0
 33 28  2  0
 34 35  1  0
 35 36  1  0
 36 37  2  0
 38 37  1  0
 38 42  1  0
 39 38  2  0
 40 35  2  0
 40 39  1  0
 41 40  1  0
 43 44  1  0
 44 47  1  0
 44 46  1  0
 45 43  2  0
 48 49  1  0
 48 23  1  0
 50 48  1  0
 52 53  1  0
 52 51  1  0
 54 65  2  0
 55 53  1  0
 55 60  1  0
 56 64  1  0
 56 66  1  0
 57 63  1  0
 57 59  1  0
 58 64  1  0
 59 60  2  0
 59 58  1  0
 61 55  2  0
 62 61  1  0
 62 57  2  0
 63 56  1  0
 64 54  1  0
 66 68  2  0
 67 66  1  0
 69 67  1  0
 70 79  2  0
 70 75  1  0
 71 67  1  0
 71 75  1  0
 72 71  1  0
 73 74  1  0
 73 72  1  0
 74 70  1  0
 75 76  2  0
 76 77  1  0
 78 77  2  0
 79 78  1  0
 80 54  1  0
 80 81  1  0
 80 90  1  0
 81 84  1  0
 82 86  1  0
 82 81  1  0
 83 82  2  0
 86 85  1  0
 88 86  1  0
 88 89  1  0
 88 87  1  0
 90 93  1  1
 90 91  1  0
 92 90  1  0
M  ISO  4  13 100  21 100  52 101  53 101
M  END
>  <TORSDO>  (13) 
F 21

>  <SCORE>  (13) 
-13.114

>  <name>  (13) 
12

>  <ligand_id>  (13) 
12

>  <original_smiles>  (13) 
[H]c1c([H])c([H])c2c(c1[H])C([H])([H])C([H])([H])C([H])([H])C2([H])N([H])C(=O)C1([H])N(C(=O)C([H])(N([H])C(=O)C([H])(N([H])C([H])([H])[H])C([H])([H])[H])C(C([H])([H])[H])(C([H])([H])[H])C([H])([H])[H])C([H])([H])c2c([H])c(OC([H])([H])C([H])([H])C3([H])C([H])([H])C([H])(C([H])([H])C([H])([H])C([H])([H])[H])C([H])(C([H])([H])N([H])C(=O)N4C([H])([H])C([H])([H])C([H])([H])C([H])(n5nc(-c6c([H])c([H])c(Oc7c([H])c([H])c(F)c([H])c7F)c([H])c6[H])c(C(=O)N([H])[H])c5N([H])[H])C4([H])[H])C([H])([H])[N+]3([H])[H])c([H])c([H])c2C1([H])[H]

>  <smiles>  (13) 
[H]c1c([H])c([H])c2c(c1[H])C([H])([H])C([H])([H])C([H])([H])C2([H])N([H])C(=O)C1([H])N(C(=O)C([H])(N([H])C(=O)C([H])(N([H])C([H])([H])[H])C([H])([H])[H])C(C([H])([H])[H])(C([H])([H])[H])C([H])([H])[H])C([H])([H])c2c([H])c(OC([H])([H])C([H])([H])C3([H])C([H])([H])C([H])(C([H])([H])C([H])([H])C([H])([H])[H])C([H])(C([H])([H])N([H])C(=O)N4C([H])([H])C([H])([H])C([H])([H])C([H])(n5nc(-c6c([H])c([H])c(Oc7c([H])c([H])c(F)c([H])c7F)c([H])c6[H])c(C(=O)N([H])[H])c5N([H])[H])C4([H])[H])C([H])([H])[N+]3([H])[H])c([H])c([H])c2C1([H])[H]

$$$$
13:0:0
     RDKit          3D

 92100  0  0  1  0  0  0  0  0999 V2000
  -28.9780  -18.7940   19.8810 C   0  0  0  0  0  2  0  0  0  0  0  0
  -30.8230  -19.4370   21.3180 C   0  0  0  0  0  2  0  0  0  0  0  0
  -29.1610  -20.1220   19.0660 C   0  0  0  0  0  2  0  0  0  0  0  0
  -30.2870  -18.2120   20.4810 C   0  0  0  0  0  3  0  0  0  0  0  0
  -31.0090  -20.8130   20.5800 C   0  0  0  0  0  3  0  0  0  0  0  0
  -32.2760  -20.7880   19.7090 C   0  0  0  0  0  1  0  0  0  0  0  0
  -29.8300  -21.2720   19.7740 N   0  0  2  0  0  4  0  0  0  0  0  0
  -30.2450  -21.7740   19.0040 H   0  0  0  0  0  0  0  0  0  0  0  0
  -30.2670  -15.5490   21.2330 C   0  0  0  0  0  3  0  0  0  0  0  0
  -30.0540  -16.9120   21.3480 C   0  0  0  0  0  0  0  0  0  0  0  0
  -30.8260  -14.6340   20.1960 C   0  0  0  0  0  0  0  0  0  0  0  0
  -30.4890  -12.4940   18.9280 C   0  0  0  0  0  2  0  0  0  0  0  0
  -29.4840  -12.6990   17.7740 C   0  0  0  0  0  2  0  0  0  0  0  0
  -28.0320  -12.5220   18.2650 C   0  0  0  0  0  2  0  0  0  0  0  0
  -27.7550  -13.3200   19.5620 C   0  0  0  0  0  3  0  0  0  0  0  0
  -28.8570  -13.0580   20.6090 C   0  0  0  0  0  2  0  0  0  0  0  0
  -30.1550  -13.4430   20.0140 N   0  0  0  0  0  0  0  0  0  0  0  0
  -31.8650  -14.8650   19.5680 O   0  0  0  0  0  0  0  0  0  0  0  0
  -25.4000  -13.9380   20.3880 C   0  0  0  0  0  0  0  0  0  0  0  0
  -24.3430  -13.1720   20.8020 C   0  0  0  0  0  0  0  0  0  0  0  0
  -24.7890  -11.8160   20.7370 C   0  0  0  0  0  0  0  0  0  0  0  0
  -26.4230  -13.0490   20.0970 N   0  0  0  0  0  0  0  0  0  0  0  0
  -26.0630  -11.7680   20.3640 N   0  0  0  0  0  0  0  0  0  0  0  0
  -24.0590  -10.5610   20.9500 C   0  0  0  0  0  0  0  0  0  0  0  0
  -24.5060   -9.5940   21.8780 C   0  0  0  0  0  3  0  0  0  0  0  0
  -23.7770   -8.4010   22.0760 C   0  0  0  0  0  3  0  0  0  0  0  0
  -22.5870   -8.1670   21.3460 C   0  0  0  0  0  0  0  0  0  0  0  0
  -22.1580   -9.1230   20.4090 C   0  0  0  0  0  3  0  0  0  0  0  0
  -22.8870  -10.3070   20.2100 C   0  0  0  0  0  3  0  0  0  0  0  0
  -21.8280   -7.0280   21.4570 O   0  0  0  0  0  0  0  0  0  0  0  0
  -21.7710   -6.3090   22.6230 C   0  0  0  0  0  0  0  0  0  0  0  0
  -21.3540   -6.8930   23.8400 C   0  0  0  0  0  3  0  0  0  0  0  0
  -21.2480   -6.1020   25.0010 C   0  0  0  0  0  3  0  0  0  0  0  0
  -21.5460   -4.7260   24.9460 C   0  0  0  0  0  0  0  0  0  0  0  0
  -21.9540   -4.1420   23.7340 C   0  0  0  0  0  3  0  0  0  0  0  0
  -22.0650   -4.9310   22.5760 C   0  0  0  0  0  0  0  0  0  0  0  0
  -22.4400   -4.3590   21.4060 F   0  0  0  0  0  0  0  0  0  0  0  0
  -21.4360   -3.9630   26.0590 F   0  0  0  0  0  0  0  0  0  0  0  0
  -22.9650  -13.6610   21.1450 C   0  0  0  0  0  0  0  0  0  0  0  0
  -22.2710  -12.9710   22.0430 N   0  0  0  0  0  0  0  0  0  0  0  0
  -22.5130  -14.6920   20.6510 O   0  0  0  0  0  0  0  0  0  0  0  0
  -22.6480  -12.1380   22.4690 H   0  0  0  0  0  0  0  0  0  0  0  0
  -21.3490  -13.2840   22.3090 H   0  0  0  0  0  0  0  0  0  0  0  0
  -25.5700  -15.3080   20.2190 N   0  0  0  0  0  0  0  0  0  0  0  0
  -24.8230  -15.9740   20.3880 H   0  0  0  0  0  0  0  0  0  0  0  0
  -26.4200  -15.7410   19.8780 H   0  0  0  0  0  0  0  0  0  0  0  0
  -29.5170  -17.3260   22.5070 O   0  0  0  0  0  0  0  0  0  0  0  0
  -29.4190  -16.5740   23.0760 H   0  0  0  0  0  0  0  0  0  0  0  0
  -28.9220  -22.3510   20.3630 C   0  0  0  0  0  2  0  0  0  0  0  0
  -29.3650  -23.8900   20.2350 C   0  0  0  0  0  3  0  0  0  0  0  0
  -28.1810  -24.9600   20.2740 C   0  0  0  0  0  3  0  0  0  0  0  0
  -28.4190  -26.4300   20.2450 O   0  0  0  0  0  0  0  0  0  0  0  0
  -24.6230  -31.8570   23.1880 C   0  0  0  0  0  0  0  0  0  0  0  0
  -27.2880  -27.2700   20.2000 C   0  0  0  0  0  0  0  0  0  0  0  0
  -23.4420  -30.4340   21.5550 C   0  0  0  0  0  3  0  0  0  0  0  0
  -24.9120  -28.8770   20.1620 C   0  0  0  0  0  0  0  0  0  0  0  0
  -25.9830  -30.7570   21.3940 C   0  0  0  0  0  2  0  0  0  0  0  0
  -26.0740  -29.3710   20.7650 C   0  0  0  0  0  0  0  0  0  0  0  0
  -27.2650  -28.5810   20.7750 C   0  0  0  0  0  3  0  0  0  0  0  0
  -26.0960  -26.8360   19.5700 C   0  0  0  0  0  3  0  0  0  0  0  0
  -24.9250  -27.6130   19.5560 C   0  0  0  0  0  3  0  0  0  0  0  0
  -23.6730  -29.7480   20.1850 C   0  0  0  0  0  2  0  0  0  0  0  0
  -24.7010  -31.0340   22.1020 N   0  0  0  0  0  0  0  0  0  0  0  0
  -23.5330  -32.1380   23.7060 O   0  0  0  0  0  0  0  0  0  0  0  0
  -22.7730  -29.4240   22.5180 C   0  0  0  0  0  0  0  0  0  0  0  0
  -21.4500  -29.2370   22.3780 N   0  0  0  0  0  0  0  0  0  0  0  0
  -23.4460  -28.8110   23.3520 O   0  0  0  0  0  0  0  0  0  0  0  0
  -20.9680  -29.7790   21.6750 H   0  0  0  0  0  0  0  0  0  0  0  0
  -18.0770  -28.0150   22.8410 C   0  0  0  0  0  0  0  0  0  0  0  0
  -20.6270  -28.3080   23.1530 C   0  0  0  0  0  3  0  0  0  0  0  0
  -20.7560  -26.8660   22.6090 C   0  0  0  0  0  2  0  0  0  0  0  0
  -19.6770  -26.5110   21.5810 C   0  0  0  0  0  2  0  0  0  0  0  0
  -18.2820  -26.6540   22.1960 C   0  0  0  0  0  2  0  0  0  0  0  0
  -19.1800  -28.7980   23.2750 C   0  0  0  0  0  0  0  0  0  0  0  0
  -18.9350  -30.0710   23.8350 C   0  0  0  0  0  3  0  0  0  0  0  0
  -17.6220  -30.5600   23.9690 C   0  0  0  0  0  3  0  0  0  0  0  0
  -16.5340  -29.7740   23.5510 C   0  0  0  0  0  3  0  0  0  0  0  0
  -16.7630  -28.5050   22.9920 C   0  0  0  0  0  3  0  0  0  0  0  0
  -25.8970  -32.5020   23.8140 C   0  0  0  0  0  3  0  0  0  0  0  0
  -25.5740  -33.8960   24.1480 N   0  0  0  0  0  0  0  0  0  0  0  0
  -25.8950  -34.9540   23.3890 C   0  0  0  0  0  0  0  0  0  0  0  0
  -26.5630  -34.8590   22.3560 O   0  0  0  0  0  0  0  0  0  0  0  0
  -24.9850  -34.0470   24.9540 H   0  0  0  0  0  0  0  0  0  0  0  0
  -24.1440  -36.7250   23.0410 C   0  0  0  0  0  1  0  0  0  0  0  0
  -25.3920  -36.3350   23.8500 C   0  0  0  0  0  3  0  0  0  0  0  0
  -27.5200  -37.2370   24.6760 C   0  0  0  0  0  1  0  0  0  0  0  0
  -26.4120  -37.4010   23.7390 N   0  0  0  0  0  0  0  0  0  0  0  0
  -25.9970  -38.3150   23.8980 H   0  0  0  0  0  0  0  0  0  0  0  0
  -26.4220  -31.7320   25.0890 C   0  0  1  0  0  0  0  0  0  0  0  0
  -25.3320  -31.4770   26.1550 C   0  0  0  0  0  1  0  0  0  0  0  0
  -27.0210  -30.3630   24.6930 C   0  0  0  0  0  1  0  0  0  0  0  0
  -27.5670  -32.5350   25.7500 C   0  0  0  0  0  1  0  0  0  0  0  0
  1  4  1  0
  3  7  1  0
  3  1  1  0
  4  2  1  0
  4 10  1  0
  5  6  1  0
  5  2  1  0
  7 49  1  0
  7  5  1  0
  7  8  1  6
  9 10  2  0
 10 47  1  0
 11  9  1  0
 12 17  1  0
 13 14  1  0
 13 12  1  0
 15 14  1  0
 15 22  1  0
 15 16  1  0
 17 11  1  0
 17 16  1  0
 18 11  2  0
 19 20  2  0
 20 39  1  0
 21 20  1  0
 21 24  1  0
 22 23  1  0
 22 19  1  0
 23 21  2  0
 24 25  1  0
 25 26  2  0
 27 30  1  0
 27 26  1  0
 28 27  2  0
 29 28  1  0
 29 24  2  0
 30 31  1  0
 31 32  1  0
 32 33  2  0
 34 33  1  0
 34 38  1  0
 35 34  2  0
 36 31  2  0
 36 35  1  0
 37 36  1  0
 39 40  1  0
 40 43  1  0
 40 42  1  0
 41 39  2  0
 44 19  1  0
 44 45  1  0
 46 44  1  0
 47 48  1  0
 50 51  2  0
 50 49  1  0
 52 51  1  0
 53 64  2  0
 54 52  1  0
 54 59  1  0
 55 63  1  0
 55 65  1  0
 56 62  1  0
 56 58  1  0
 57 63  1  0
 58 59  2  0
 58 57  1  0
 60 54  2  0
 61 60  1  0
 61 56  2  0
 62 55  1  0
 63 53  1  0
 65 67  2  0
 66 65  1  0
 68 66  1  0
 69 78  2  0
 69 74  1  0
 70 66  1  0
 70 74  1  0
 71 70  1  0
 72 73  1  0
 72 71  1  0
 73 69  1  0
 74 75  2  0
 75 76  1  0
 77 76  2  0
 78 77  1  0
 79 53  1  0
 79 80  1  0
 79 89  1  0
 80 83  1  0
 81 85  1  0
 81 80  1  0
 82 81  2  0
 85 84  1  0
 87 85  1  0
 87 88  1  0
 87 86  1  0
 89 92  1  1
 89 90  1  0
 91 89  1  0
M  ISO  4   9 100  11 100  51 101  52 101
M  END
>  <TORSDO>  (14) 
F 21

>  <SCORE>  (14) 
-13.512

>  <name>  (14) 
13

>  <ligand_id>  (14) 
13

>  <original_smiles>  (14) 
[H]OC(=C([H])C(=O)N1C([H])([H])C([H])([H])C([H])([H])C([H])(n2nc(-c3c([H])c([H])c(Oc4c([H])c([H])c(F)c([H])c4F)c([H])c3[H])c(C(=O)N([H])[H])c2N([H])[H])C1([H])[H])C1([H])C([H])([H])C([H])([H])[N+]([H])(C([H])([H])C([H])([H])C([H])([H])Oc2c([H])c([H])c3c(c2[H])C([H])([H])N(C(=O)C([H])(N([H])C(=O)C([H])(N([H])C([H])([H])[H])C([H])([H])[H])C(C([H])([H])[H])(C([H])([H])[H])C([H])([H])[H])C([H])(C(=O)N([H])C2([H])c4c([H])c([H])c([H])c([H])c4C([H])([H])C([H])([H])C2([H])[H])C3([H])[H])C([H])(C([H])([H])[H])C1([H])[H]

>  <smiles>  (14) 
[H]OC(=C([H])C(=O)N1C([H])([H])C([H])([H])C([H])([H])C([H])(n2nc(-c3c([H])c([H])c(Oc4c([H])c([H])c(F)c([H])c4F)c([H])c3[H])c(C(=O)N([H])[H])c2N([H])[H])C1([H])[H])C1([H])C([H])([H])C([H])([H])[N+]([H])(C([H])([H])C([H])([H])C([H])([H])Oc2c([H])c([H])c3c(c2[H])C([H])([H])N(C(=O)C([H])(N([H])C(=O)C([H])(N([H])C([H])([H])[H])C([H])([H])[H])C(C([H])([H])[H])(C([H])([H])[H])C([H])([H])[H])C([H])(C(=O)N([H])C2([H])c4c([H])c([H])c([H])c([H])c4C([H])([H])C([H])([H])C2([H])[H])C3([H])[H])C([H])(C([H])([H])[H])C1([H])[H]

$$$$
14:0:0
     RDKit          3D

 88 95  0  0  1  0  0  0  0  0999 V2000
  -28.6670  -22.8680   20.6030 C   0  0  0  0  0  0  0  0  0  0  0  0
  -28.8180  -22.9290   21.8570 N   0  0  0  0  0  0  0  0  0  0  0  0
  -29.1490  -22.0440   22.2270 H   0  0  0  0  0  0  0  0  0  0  0  0
  -29.0760  -21.2980   19.9080 C   0  0  0  0  0  3  0  0  0  0  0  0
  -29.1260  -19.6370   20.5840 C   0  0  0  0  0  3  0  0  0  0  0  0
  -29.8810  -18.1280   19.9860 C   0  0  0  0  0  3  0  0  0  0  0  0
  -30.4270  -15.2670   20.2310 C   0  0  0  0  0  0  0  0  0  0  0  0
  -30.3750  -12.8390   19.3500 C   0  0  0  0  0  2  0  0  0  0  0  0
  -29.4510  -12.6770   18.1180 C   0  0  0  0  0  2  0  0  0  0  0  0
  -28.0030  -12.4090   18.5590 C   0  0  0  0  0  2  0  0  0  0  0  0
  -27.5630  -13.3640   19.6960 C   0  0  0  0  0  3  0  0  0  0  0  0
  -28.6110  -13.4860   20.8240 C   0  0  0  0  0  2  0  0  0  0  0  0
  -29.8540  -13.9690   20.2010 N   0  0  0  0  0  0  0  0  0  0  0  0
  -31.6310  -15.2760   19.9410 O   0  0  0  0  0  0  0  0  0  0  0  0
  -29.6730  -16.5280   20.3830 N   0  0  0  0  0  0  0  0  0  0  0  0
  -28.7230  -16.3360   20.6670 H   0  0  0  0  0  0  0  0  0  0  0  0
  -25.1890  -13.9190   20.4390 C   0  0  0  0  0  0  0  0  0  0  0  0
  -24.1300  -13.1400   20.8140 C   0  0  0  0  0  0  0  0  0  0  0  0
  -24.6050  -11.7920   20.7970 C   0  0  0  0  0  0  0  0  0  0  0  0
  -26.2360  -13.0470   20.2050 N   0  0  0  0  0  0  0  0  0  0  0  0
  -25.8980  -11.7620   20.4890 N   0  0  0  0  0  0  0  0  0  0  0  0
  -23.8840  -10.5280   20.9970 C   0  0  0  0  0  0  0  0  0  0  0  0
  -24.3240   -9.5660   21.9330 C   0  0  0  0  0  3  0  0  0  0  0  0
  -23.6020   -8.3680   22.1230 C   0  0  0  0  0  3  0  0  0  0  0  0
  -22.4250   -8.1240   21.3770 C   0  0  0  0  0  0  0  0  0  0  0  0
  -22.0040   -9.0740   20.4290 C   0  0  0  0  0  3  0  0  0  0  0  0
  -22.7270  -10.2640   20.2370 C   0  0  0  0  0  3  0  0  0  0  0  0
  -21.6720   -6.9780   21.4750 O   0  0  0  0  0  0  0  0  0  0  0  0
  -21.6420   -6.2350   22.6270 C   0  0  0  0  0  0  0  0  0  0  0  0
  -21.2390   -6.7890   23.8610 C   0  0  0  0  0  3  0  0  0  0  0  0
  -21.1550   -5.9710   25.0070 C   0  0  0  0  0  3  0  0  0  0  0  0
  -21.4640   -4.6000   24.9190 C   0  0  0  0  0  0  0  0  0  0  0  0
  -21.8610   -4.0460   23.6890 C   0  0  0  0  0  3  0  0  0  0  0  0
  -21.9450   -4.8600   22.5460 C   0  0  0  0  0  0  0  0  0  0  0  0
  -22.3080   -4.3150   21.3590 F   0  0  0  0  0  0  0  0  0  0  0  0
  -21.3760   -3.8140   26.0160 F   0  0  0  0  0  0  0  0  0  0  0  0
  -22.7290  -13.6120   21.0740 C   0  0  0  0  0  0  0  0  0  0  0  0
  -22.0040  -12.9220   21.9460 N   0  0  0  0  0  0  0  0  0  0  0  0
  -22.2890  -14.6280   20.5400 O   0  0  0  0  0  0  0  0  0  0  0  0
  -22.3750  -12.1000   22.3970 H   0  0  0  0  0  0  0  0  0  0  0  0
  -21.0630  -13.2200   22.1650 H   0  0  0  0  0  0  0  0  0  0  0  0
  -25.3430  -15.2900   20.2480 N   0  0  0  0  0  0  0  0  0  0  0  0
  -24.5690  -15.9370   20.3470 H   0  0  0  0  0  0  0  0  0  0  0  0
  -26.1790  -15.7280   19.8860 H   0  0  0  0  0  0  0  0  0  0  0  0
  -28.3720  -17.8840   17.9200 C   0  0  0  0  0  1  0  0  0  0  0  0
  -29.7790  -18.1920   18.4530 C   0  0  0  0  0  2  0  0  0  0  0  0
  -28.0950  -24.3590   19.8490 C   0  0  0  0  0  2  0  0  0  0  0  0
  -28.1890  -25.9210   20.3390 O   0  0  0  0  0  0  0  0  0  0  0  0
  -24.6270  -31.8790   23.2230 C   0  0  0  0  0  0  0  0  0  0  0  0
  -27.1790  -27.0060   20.2210 C   0  0  0  0  0  0  0  0  0  0  0  0
  -23.4300  -30.4740   21.5930 C   0  0  0  0  0  3  0  0  0  0  0  0
  -24.8760  -28.8690   20.1710 C   0  0  0  0  0  0  0  0  0  0  0  0
  -25.9930  -30.6900   21.4430 C   0  0  0  0  0  2  0  0  0  0  0  0
  -26.0610  -29.2790   20.7940 C   0  0  0  0  0  0  0  0  0  0  0  0
  -27.2040  -28.3640   20.8020 C   0  0  0  0  0  3  0  0  0  0  0  0
  -25.9710  -26.7500   19.5330 C   0  0  0  0  0  3  0  0  0  0  0  0
  -24.8550  -27.6250   19.5200 C   0  0  0  0  0  3  0  0  0  0  0  0
  -23.6550  -29.7850   20.2190 C   0  0  0  0  0  2  0  0  0  0  0  0
  -24.7040  -31.0400   22.1400 N   0  0  0  0  0  0  0  0  0  0  0  0
  -23.5380  -32.1730   23.7440 O   0  0  0  0  0  0  0  0  0  0  0  0
  -22.7380  -29.4830   22.5650 C   0  0  0  0  0  0  0  0  0  0  0  0
  -21.4080  -29.3180   22.4400 N   0  0  0  0  0  0  0  0  0  0  0  0
  -23.4030  -28.8640   23.4000 O   0  0  0  0  0  0  0  0  0  0  0  0
  -20.9260  -29.8660   21.7410 H   0  0  0  0  0  0  0  0  0  0  0  0
  -18.0260  -28.1040   22.9450 C   0  0  0  0  0  0  0  0  0  0  0  0
  -20.5840  -28.3850   23.2170 C   0  0  0  0  0  3  0  0  0  0  0  0
  -20.6950  -26.9480   22.6580 C   0  0  0  0  0  2  0  0  0  0  0  0
  -19.5990  -26.6100   21.6430 C   0  0  0  0  0  2  0  0  0  0  0  0
  -18.2140  -26.7510   22.2790 C   0  0  0  0  0  2  0  0  0  0  0  0
  -19.1390  -28.8790   23.3700 C   0  0  0  0  0  0  0  0  0  0  0  0
  -18.9070  -30.1430   23.9550 C   0  0  0  0  0  3  0  0  0  0  0  0
  -17.5980  -30.6330   24.1190 C   0  0  0  0  0  3  0  0  0  0  0  0
  -16.5010  -29.8560   23.7070 C   0  0  0  0  0  3  0  0  0  0  0  0
  -16.7150  -28.5940   23.1240 C   0  0  0  0  0  3  0  0  0  0  0  0
  -25.9000  -32.5220   23.8520 C   0  0  0  0  0  3  0  0  0  0  0  0
  -25.5850  -33.9230   24.1790 N   0  0  0  0  0  0  0  0  0  0  0  0
  -25.9150  -34.9810   23.4260 C   0  0  0  0  0  0  0  0  0  0  0  0
  -26.5810  -34.8800   22.3920 O   0  0  0  0  0  0  0  0  0  0  0  0
  -24.9940  -34.0760   24.9830 H   0  0  0  0  0  0  0  0  0  0  0  0
  -24.1870  -36.7840   23.0910 C   0  0  0  0  0  1  0  0  0  0  0  0
  -25.4340  -36.3710   23.8900 C   0  0  0  0  0  3  0  0  0  0  0  0
  -27.5760  -37.2570   24.7050 C   0  0  0  0  0  1  0  0  0  0  0  0
  -26.4660  -37.4250   23.7700 N   0  0  0  0  0  0  0  0  0  0  0  0
  -26.0610  -38.3450   23.9200 H   0  0  0  0  0  0  0  0  0  0  0  0
  -26.4060  -31.7630   25.1410 C   0  0  1  0  0  0  0  0  0  0  0  0
  -25.3060  -31.5420   26.2060 C   0  0  0  0  0  1  0  0  0  0  0  0
  -26.9850  -30.3780   24.7760 C   0  0  0  0  0  1  0  0  0  0  0  0
  -27.5560  -32.5600   25.8000 C   0  0  0  0  0  1  0  0  0  0  0  0
  1  2  2  0
  2  3  1  0
  4  5  2  0
  4  1  1  0
  6 46  1  0
  6 15  1  0
  6  5  1  0
  7 15  1  0
  8 13  1  0
  9 10  1  0
  9  8  1  0
 11 10  1  0
 11 20  1  0
 11 12  1  0
 13  7  1  0
 13 12  1  0
 14  7  2  0
 15 16  1  0
 17 18  2  0
 18 37  1  0
 19 18  1  0
 19 22  1  0
 20 17  1  0
 20 21  1  0
 21 19  2  0
 22 23  1  0
 23 24  2  0
 25 28  1  0
 25 24  1  0
 26 25  2  0
 27 26  1  0
 27 22  2  0
 28 29  1  0
 29 30  1  0
 30 31  2  0
 32 31  1  0
 32 36  1  0
 33 32  2  0
 34 29  2  0
 34 33  1  0
 35 34  1  0
 37 38  1  0
 38 41  1  0
 38 40  1  0
 39 37  2  0
 42 43  1  0
 42 17  1  0
 44 42  1  0
 45 46  1  0
 47 48  1  0
 47  1  1  0
 49 60  2  0
 50 48  1  0
 50 55  1  0
 51 59  1  0
 51 61  1  0
 52 58  1  0
 52 54  1  0
 53 59  1  0
 54 55  2  0
 54 53  1  0
 56 50  2  0
 57 56  1  0
 57 52  2  0
 58 51  1  0
 59 49  1  0
 61 63  2  0
 62 61  1  0
 64 62  1  0
 65 74  2  0
 65 70  1  0
 66 62  1  0
 66 70  1  0
 67 66  1  0
 68 69  1  0
 68 67  1  0
 69 65  1  0
 70 71  2  0
 71 72  1  0
 73 72  2  0
 74 73  1  0
 75 49  1  0
 75 76  1  0
 75 85  1  0
 76 79  1  0
 77 81  1  0
 77 76  1  0
 78 77  2  0
 81 80  1  0
 83 81  1  0
 83 84  1  0
 83 82  1  0
 85 88  1  1
 85 86  1  0
 87 85  1  0
M  ISO  4   7 100  15 100  47 101  48 101
M  END
>  <TORSDO>  (15) 
F 21

>  <SCORE>  (15) 
-15.161

>  <name>  (15) 
14

>  <ligand_id>  (15) 
14

>  <original_smiles>  (15) 
[H]N=C(C([H])([H])Oc1c([H])c([H])c2c(c1[H])C([H])([H])N(C(=O)C([H])(N([H])C(=O)C([H])(N([H])C([H])([H])[H])C([H])([H])[H])C(C([H])([H])[H])(C([H])([H])[H])C([H])([H])[H])C([H])(C(=O)N([H])C1([H])c3c([H])c([H])c([H])c([H])c3C([H])([H])C([H])([H])C1([H])[H])C2([H])[H])C([H])([H])C([H])([H])C([H])(N([H])C(=O)N1C([H])([H])C([H])([H])C([H])([H])C([H])(n2nc(-c3c([H])c([H])c(Oc4c([H])c([H])c(F)c([H])c4F)c([H])c3[H])c(C(=O)N([H])[H])c2N([H])[H])C1([H])[H])C([H])([H])C([H])([H])[H]

>  <smiles>  (15) 
[H]N=C(C([H])([H])Oc1c([H])c([H])c2c(c1[H])C([H])([H])N(C(=O)C([H])(N([H])C(=O)C([H])(N([H])C([H])([H])[H])C([H])([H])[H])C(C([H])([H])[H])(C([H])([H])[H])C([H])([H])[H])C([H])(C(=O)N([H])C1([H])c3c([H])c([H])c([H])c([H])c3C([H])([H])C([H])([H])C1([H])[H])C2([H])[H])C([H])([H])C([H])([H])C([H])(N([H])C(=O)N1C([H])([H])C([H])([H])C([H])([H])C([H])(n2nc(-c3c([H])c([H])c(Oc4c([H])c([H])c(F)c([H])c4F)c([H])c3[H])c(C(=O)N([H])[H])c2N([H])[H])C1([H])[H])C([H])([H])C([H])([H])[H]

$$$$
15:0:0
     RDKit          3D

 85 92  0  0  1  0  0  0  0  0999 V2000
  -28.8460  -22.7980   20.3310 C   0  0  0  0  0  3  0  0  0  0  0  0
  -28.4950  -21.0350   20.1880 C   0  0  0  0  0  3  0  0  0  0  0  0
  -29.5000  -19.5490   20.3440 C   0  0  0  0  0  3  0  0  0  0  0  0
  -30.5520  -15.3130   20.2580 C   0  0  0  0  0  0  0  0  0  0  0  0
  -30.3660  -12.9050   19.3610 C   0  0  0  0  0  2  0  0  0  0  0  0
  -29.4450  -12.6650   18.1460 C   0  0  0  0  0  2  0  0  0  0  0  0
  -28.0130  -12.3900   18.6230 C   0  0  0  0  0  2  0  0  0  0  0  0
  -27.5700  -13.3720   19.7360 C   0  0  0  0  0  3  0  0  0  0  0  0
  -28.6340  -13.5990   20.8330 C   0  0  0  0  0  2  0  0  0  0  0  0
  -29.8340  -14.0910   20.1390 N   0  0  0  0  0  0  0  0  0  0  0  0
  -31.7640  -15.1260   20.1070 O   0  0  0  0  0  0  0  0  0  0  0  0
  -29.1930  -17.8230   20.2610 C   0  0  0  0  0  0  0  0  0  0  0  0
  -30.1920  -16.7540   20.3260 N   0  0  0  0  0  0  0  0  0  0  0  0
  -28.0100  -17.4980   20.1300 O   0  0  0  0  0  0  0  0  0  0  0  0
  -31.0800  -17.2250   20.4040 H   0  0  0  0  0  0  0  0  0  0  0  0
  -25.2200  -13.9010   20.5530 C   0  0  0  0  0  0  0  0  0  0  0  0
  -24.1690  -13.1110   20.9230 C   0  0  0  0  0  0  0  0  0  0  0  0
  -24.6440  -11.7640   20.8680 C   0  0  0  0  0  0  0  0  0  0  0  0
  -26.2620  -13.0370   20.2800 N   0  0  0  0  0  0  0  0  0  0  0  0
  -25.9320  -11.7430   20.5390 N   0  0  0  0  0  0  0  0  0  0  0  0
  -23.9270  -10.4940   21.0500 C   0  0  0  0  0  0  0  0  0  0  0  0
  -24.3650   -9.5220   21.9750 C   0  0  0  0  0  3  0  0  0  0  0  0
  -23.6440   -8.3200   22.1480 C   0  0  0  0  0  3  0  0  0  0  0  0
  -22.4700   -8.0810   21.3950 C   0  0  0  0  0  0  0  0  0  0  0  0
  -22.0510   -9.0420   20.4570 C   0  0  0  0  0  3  0  0  0  0  0  0
  -22.7730  -10.2350   20.2820 C   0  0  0  0  0  3  0  0  0  0  0  0
  -21.7200   -6.9330   21.4780 O   0  0  0  0  0  0  0  0  0  0  0  0
  -21.6600   -6.1940   22.6320 C   0  0  0  0  0  0  0  0  0  0  0  0
  -21.1890   -6.7410   23.8440 C   0  0  0  0  0  3  0  0  0  0  0  0
  -21.0780   -5.9270   24.9890 C   0  0  0  0  0  3  0  0  0  0  0  0
  -21.4310   -4.5660   24.9220 C   0  0  0  0  0  0  0  0  0  0  0  0
  -21.8950   -4.0170   23.7140 C   0  0  0  0  0  3  0  0  0  0  0  0
  -22.0060   -4.8280   22.5710 C   0  0  0  0  0  0  0  0  0  0  0  0
  -22.4350   -4.2900   21.4050 F   0  0  0  0  0  0  0  0  0  0  0  0
  -21.3180   -3.7810   26.0200 F   0  0  0  0  0  0  0  0  0  0  0  0
  -22.7720  -13.5750   21.2140 C   0  0  0  0  0  0  0  0  0  0  0  0
  -22.0600  -12.8680   22.0830 N   0  0  0  0  0  0  0  0  0  0  0  0
  -22.3230  -14.6020   20.7060 O   0  0  0  0  0  0  0  0  0  0  0  0
  -22.4390  -12.0380   22.5150 H   0  0  0  0  0  0  0  0  0  0  0  0
  -21.1230  -13.1600   22.3210 H   0  0  0  0  0  0  0  0  0  0  0  0
  -25.3750  -15.2760   20.3960 N   0  0  0  0  0  0  0  0  0  0  0  0
  -24.6160  -15.9290   20.5550 H   0  0  0  0  0  0  0  0  0  0  0  0
  -26.2430  -15.7360   20.1380 H   0  0  0  0  0  0  0  0  0  0  0  0
  -27.8730  -24.3010   20.1440 C   0  0  0  0  0  3  0  0  0  0  0  0
  -28.1530  -25.9150   20.3080 O   0  0  0  0  0  0  0  0  0  0  0  0
  -24.6370  -31.9030   23.2560 C   0  0  0  0  0  0  0  0  0  0  0  0
  -27.1530  -27.0160   20.2440 C   0  0  0  0  0  0  0  0  0  0  0  0
  -23.4330  -30.5110   21.6220 C   0  0  0  0  0  3  0  0  0  0  0  0
  -24.8690  -28.9010   20.1970 C   0  0  0  0  0  0  0  0  0  0  0  0
  -25.9990  -30.7130   21.4690 C   0  0  0  0  0  2  0  0  0  0  0  0
  -26.0600  -29.3030   20.8140 C   0  0  0  0  0  0  0  0  0  0  0  0
  -27.2000  -28.3820   20.8120 C   0  0  0  0  0  3  0  0  0  0  0  0
  -25.9340  -26.7630   19.5800 C   0  0  0  0  0  3  0  0  0  0  0  0
  -24.8300  -27.6520   19.5600 C   0  0  0  0  0  3  0  0  0  0  0  0
  -23.6560  -29.8270   20.2460 C   0  0  0  0  0  2  0  0  0  0  0  0
  -24.7120  -31.0690   22.1690 N   0  0  0  0  0  0  0  0  0  0  0  0
  -23.5500  -32.1980   23.7790 O   0  0  0  0  0  0  0  0  0  0  0  0
  -22.7380  -29.5180   22.5900 C   0  0  0  0  0  0  0  0  0  0  0  0
  -21.4090  -29.3520   22.4610 N   0  0  0  0  0  0  0  0  0  0  0  0
  -23.4010  -28.8970   23.4240 O   0  0  0  0  0  0  0  0  0  0  0  0
  -20.9260  -29.9030   21.7670 H   0  0  0  0  0  0  0  0  0  0  0  0
  -18.0250  -28.1440   22.9650 C   0  0  0  0  0  0  0  0  0  0  0  0
  -20.5840  -28.4170   23.2350 C   0  0  0  0  0  3  0  0  0  0  0  0
  -20.6900  -26.9820   22.6710 C   0  0  0  0  0  2  0  0  0  0  0  0
  -19.5910  -26.6510   21.6550 C   0  0  0  0  0  2  0  0  0  0  0  0
  -18.2070  -26.7940   22.2930 C   0  0  0  0  0  2  0  0  0  0  0  0
  -19.1400  -28.9140   23.3930 C   0  0  0  0  0  0  0  0  0  0  0  0
  -18.9130  -30.1750   23.9850 C   0  0  0  0  0  3  0  0  0  0  0  0
  -17.6060  -30.6690   24.1490 C   0  0  0  0  0  3  0  0  0  0  0  0
  -16.5050  -29.8980   23.7350 C   0  0  0  0  0  3  0  0  0  0  0  0
  -16.7150  -28.6370   23.1500 C   0  0  0  0  0  3  0  0  0  0  0  0
  -25.9130  -32.5420   23.8840 C   0  0  0  0  0  3  0  0  0  0  0  0
  -26.4090  -31.7850   25.1800 C   0  0  1  0  0  0  0  0  0  0  0  0
  -25.3030  -31.5720   26.2400 C   0  0  0  0  0  1  0  0  0  0  0  0
  -26.9840  -30.3960   24.8210 C   0  0  0  0  0  1  0  0  0  0  0  0
  -27.5590  -32.5780   25.8420 C   0  0  0  0  0  1  0  0  0  0  0  0
  -25.6050  -33.9460   24.2070 N   0  0  0  0  0  0  0  0  0  0  0  0
  -25.9150  -34.9960   23.4350 C   0  0  0  0  0  0  0  0  0  0  0  0
  -26.5530  -34.8840   22.3840 O   0  0  0  0  0  0  0  0  0  0  0  0
  -25.0350  -34.1050   25.0240 H   0  0  0  0  0  0  0  0  0  0  0  0
  -24.1630  -36.7840   23.1490 C   0  0  0  0  0  1  0  0  0  0  0  0
  -25.4460  -36.3910   23.8990 C   0  0  0  0  0  3  0  0  0  0  0  0
  -27.6130  -37.3030   24.6130 C   0  0  0  0  0  1  0  0  0  0  0  0
  -26.4670  -37.4470   23.7190 N   0  0  0  0  0  0  0  0  0  0  0  0
  -26.0630  -38.3670   23.8670 H   0  0  0  0  0  0  0  0  0  0  0  0
  2  1  1  0
  2  3  2  0
  4 13  1  0
  5 10  1  0
  6  7  1  0
  6  5  1  0
  8  7  1  0
  8 19  1  0
  8  9  1  0
 10  4  1  0
 10  9  1  0
 11  4  2  0
 12 13  1  0
 12  3  1  0
 13 15  1  0
 14 12  2  0
 16 17  2  0
 17 36  1  0
 18 17  1  0
 18 21  1  0
 19 20  1  0
 19 16  1  0
 20 18  2  0
 21 22  1  0
 22 23  2  0
 24 27  1  0
 24 23  1  0
 25 24  2  0
 26 25  1  0
 26 21  2  0
 27 28  1  0
 28 29  1  0
 29 30  2  0
 31 30  1  0
 31 35  1  0
 32 31  2  0
 33 28  2  0
 33 32  1  0
 34 33  1  0
 36 37  1  0
 37 40  1  0
 37 39  1  0
 38 36  2  0
 41 16  1  0
 41 42  1  0
 43 41  1  0
 44 45  1  0
 44  1  2  0
 46 57  2  0
 47 45  1  0
 47 52  1  0
 48 56  1  0
 48 58  1  0
 49 55  1  0
 49 51  1  0
 50 56  1  0
 51 50  1  0
 52 51  2  0
 53 47  2  0
 54 53  1  0
 54 49  2  0
 55 48  1  0
 56 46  1  0
 58 60  2  0
 59 58  1  0
 61 59  1  0
 62 71  2  0
 62 67  1  0
 63 59  1  0
 63 67  1  0
 64 63  1  0
 65 66  1  0
 65 64  1  0
 66 62  1  0
 67 68  2  0
 68 69  1  0
 70 69  2  0
 71 70  1  0
 72 46  1  0
 72 77  1  0
 72 73  1  0
 73 76  1  1
 73 74  1  0
 75 73  1  0
 77 80  1  0
 78 82  1  0
 78 77  1  0
 79 78  2  0
 82 81  1  0
 84 85  1  0
 84 82  1  0
 84 83  1  0
M  ISO  4   4 100  13 100  44 101  45 101
M  END
>  <TORSDO>  (16) 
F 19

>  <SCORE>  (16) 
-16.043

>  <name>  (16) 
15

>  <ligand_id>  (16) 
15

>  <original_smiles>  (16) 
[H]c1c([H])c([H])c2c(c1[H])C([H])([H])C([H])([H])C([H])([H])C2([H])N([H])C(=O)C1([H])N(C(=O)C([H])(N([H])C(=O)C([H])(N([H])C([H])([H])[H])C([H])([H])[H])C(C([H])([H])[H])(C([H])([H])[H])C([H])([H])[H])C([H])([H])c2c([H])c(OC([H])([H])C([H])([H])C([H])([H])C([H])([H])C(=O)N([H])C(=O)N3C([H])([H])C([H])([H])C([H])([H])C([H])(n4nc(-c5c([H])c([H])c(Oc6c([H])c([H])c(F)c([H])c6F)c([H])c5[H])c(C(=O)N([H])[H])c4N([H])[H])C3([H])[H])c([H])c([H])c2C1([H])[H]

>  <smiles>  (16) 
[H]c1c([H])c([H])c2c(c1[H])C([H])([H])C([H])([H])C([H])([H])C2([H])N([H])C(=O)C1([H])N(C(=O)C([H])(N([H])C(=O)C([H])(N([H])C([H])([H])[H])C([H])([H])[H])C(C([H])([H])[H])(C([H])([H])[H])C([H])([H])[H])C([H])([H])c2c([H])c(OC([H])([H])C([H])([H])C([H])([H])C([H])([H])C(=O)N([H])C(=O)N3C([H])([H])C([H])([H])C([H])([H])C([H])(n4nc(-c5c([H])c([H])c(Oc6c([H])c([H])c(F)c([H])c6F)c([H])c5[H])c(C(=O)N([H])[H])c4N([H])[H])C3([H])[H])c([H])c([H])c2C1([H])[H]

$$$$
16:0:0
     RDKit          3D

 88 96  0  0  1  0  0  0  0  0999 V2000
  -29.5310  -21.2850   19.8510 C   0  0  0  0  0  0  0  0  0  0  0  0
  -30.5460  -21.4930   20.5200 O   0  0  0  0  0  0  0  0  0  0  0  0
  -30.4950  -15.2440   19.6540 C   0  0  0  0  0  0  0  0  0  0  0  0
  -30.4290  -12.8110   18.7260 C   0  0  0  0  0  2  0  0  0  0  0  0
  -29.4490  -12.6140   17.5390 C   0  0  0  0  0  2  0  0  0  0  0  0
  -28.0120  -12.3600   18.0310 C   0  0  0  0  0  2  0  0  0  0  0  0
  -27.6300  -13.3020   19.2000 C   0  0  0  0  0  3  0  0  0  0  0  0
  -28.7370  -13.3470   20.2780 C   0  0  0  0  0  2  0  0  0  0  0  0
  -29.9200  -13.9300   19.6090 N   0  0  0  0  0  0  0  0  0  0  0  0
  -31.6870  -15.2280   19.3040 O   0  0  0  0  0  0  0  0  0  0  0  0
  -28.2770  -19.2180   20.8320 C   0  0  0  0  0  2  0  0  0  0  0  0
  -30.1870  -18.1350   19.5550 C   0  0  0  0  0  2  0  0  0  0  0  0
  -28.6170  -16.5930   20.7470 C   0  0  0  0  0  2  0  0  0  0  0  0
  -29.1670  -19.5880   19.6480 C   0  0  0  0  0  3  0  0  0  0  0  0
  -27.6440  -17.8170   20.7080 C   0  0  0  0  0  3  0  0  0  0  0  0
  -26.6020  -17.6750   21.8340 C   0  0  0  0  0  1  0  0  0  0  0  0
  -29.7790  -16.5550   19.8340 N   0  0  0  0  0  0  0  0  0  0  0  0
  -25.2650  -13.8890   19.9570 C   0  0  0  0  0  0  0  0  0  0  0  0
  -24.2180  -13.1320   20.3990 C   0  0  0  0  0  0  0  0  0  0  0  0
  -24.6870  -11.7830   20.4080 C   0  0  0  0  0  0  0  0  0  0  0  0
  -26.3110  -13.0100   19.7430 N   0  0  0  0  0  0  0  0  0  0  0  0
  -25.9720  -11.7360   20.0710 N   0  0  0  0  0  0  0  0  0  0  0  0
  -23.9640  -10.5300   20.6570 C   0  0  0  0  0  0  0  0  0  0  0  0
  -24.4230   -9.5870   21.6010 C   0  0  0  0  0  3  0  0  0  0  0  0
  -23.6970   -8.4000   21.8370 C   0  0  0  0  0  3  0  0  0  0  0  0
  -22.4980   -8.1490   21.1310 C   0  0  0  0  0  0  0  0  0  0  0  0
  -22.0560   -9.0800   20.1750 C   0  0  0  0  0  3  0  0  0  0  0  0
  -22.7830  -10.2580   19.9360 C   0  0  0  0  0  3  0  0  0  0  0  0
  -21.7400   -7.0120   21.2780 O   0  0  0  0  0  0  0  0  0  0  0  0
  -21.6830   -6.3350   22.4690 C   0  0  0  0  0  0  0  0  0  0  0  0
  -21.2640   -6.9620   23.6630 C   0  0  0  0  0  3  0  0  0  0  0  0
  -21.1550   -6.2110   24.8520 C   0  0  0  0  0  3  0  0  0  0  0  0
  -21.4530   -4.8350   24.8460 C   0  0  0  0  0  0  0  0  0  0  0  0
  -21.8660   -4.2080   23.6570 C   0  0  0  0  0  3  0  0  0  0  0  0
  -21.9780   -4.9560   22.4710 C   0  0  0  0  0  0  0  0  0  0  0  0
  -22.3560   -4.3440   21.3230 F   0  0  0  0  0  0  0  0  0  0  0  0
  -21.3410   -4.1110   25.9850 F   0  0  0  0  0  0  0  0  0  0  0  0
  -22.8290  -13.6220   20.6880 C   0  0  0  0  0  0  0  0  0  0  0  0
  -22.1340  -12.9790   21.6180 N   0  0  0  0  0  0  0  0  0  0  0  0
  -22.3720  -14.6160   20.1250 O   0  0  0  0  0  0  0  0  0  0  0  0
  -22.5180  -12.1770   22.0970 H   0  0  0  0  0  0  0  0  0  0  0  0
  -21.2040  -13.2930   21.8560 H   0  0  0  0  0  0  0  0  0  0  0  0
  -25.3970  -15.2430   19.6830 N   0  0  0  0  0  0  0  0  0  0  0  0
  -24.6200  -15.8870   19.7850 H   0  0  0  0  0  0  0  0  0  0  0  0
  -26.2240  -15.6780   19.2980 H   0  0  0  0  0  0  0  0  0  0  0  0
  -28.7460  -22.7410   19.3020 C   0  0  0  0  0  2  0  0  0  0  0  0
  -28.3500  -24.3150   20.0650 C   0  0  0  0  0  2  0  0  0  0  0  0
  -28.3450  -25.9080   19.6690 O   0  0  0  0  0  0  0  0  0  0  0  0
  -24.4940  -31.5270   22.9380 C   0  0  0  0  0  0  0  0  0  0  0  0
  -27.2460  -26.9000   19.7470 C   0  0  0  0  0  0  0  0  0  0  0  0
  -23.3460  -30.1330   21.2640 C   0  0  0  0  0  3  0  0  0  0  0  0
  -24.8500  -28.6420   19.7830 C   0  0  0  0  0  0  0  0  0  0  0  0
  -25.8950  -30.4780   21.0950 C   0  0  0  0  0  2  0  0  0  0  0  0
  -26.0240  -29.0950   20.3980 C   0  0  0  0  0  0  0  0  0  0  0  0
  -27.2180  -28.2490   20.3480 C   0  0  0  0  0  3  0  0  0  0  0  0
  -26.0300  -26.5820   19.1030 C   0  0  0  0  0  3  0  0  0  0  0  0
  -24.8740  -27.4050   19.1160 C   0  0  0  0  0  3  0  0  0  0  0  0
  -23.5910  -29.5020   19.8650 C   0  0  0  0  0  2  0  0  0  0  0  0
  -24.5990  -30.7390   21.8210 N   0  0  0  0  0  0  0  0  0  0  0  0
  -23.4000  -31.7480   23.4800 O   0  0  0  0  0  0  0  0  0  0  0  0
  -22.7100  -29.0750   22.2020 C   0  0  0  0  0  0  0  0  0  0  0  0
  -21.3830  -28.8710   22.1010 N   0  0  0  0  0  0  0  0  0  0  0  0
  -23.4160  -28.4380   22.9890 O   0  0  0  0  0  0  0  0  0  0  0  0
  -20.8640  -29.4390   21.4450 H   0  0  0  0  0  0  0  0  0  0  0  0
  -18.0470  -27.5650   22.6730 C   0  0  0  0  0  0  0  0  0  0  0  0
  -20.6100  -27.8760   22.8510 C   0  0  0  0  0  3  0  0  0  0  0  0
  -20.7170  -26.4790   22.1940 C   0  0  0  0  0  2  0  0  0  0  0  0
  -19.5820  -26.1880   21.2070 C   0  0  0  0  0  2  0  0  0  0  0  0
  -18.2240  -26.2620   21.9130 C   0  0  0  0  0  2  0  0  0  0  0  0
  -19.1660  -28.3310   23.0990 C   0  0  0  0  0  0  0  0  0  0  0  0
  -18.9420  -29.5500   23.7760 C   0  0  0  0  0  3  0  0  0  0  0  0
  -17.6340  -30.0060   24.0270 C   0  0  0  0  0  3  0  0  0  0  0  0
  -16.5320  -29.2380   23.6130 C   0  0  0  0  0  3  0  0  0  0  0  0
  -16.7390  -28.0190   22.9430 C   0  0  0  0  0  3  0  0  0  0  0  0
  -25.7420  -32.2040   23.5800 C   0  0  0  0  0  3  0  0  0  0  0  0
  -25.3640  -33.5740   23.9730 N   0  0  0  0  0  0  0  0  0  0  0  0
  -25.6660  -34.6820   23.2830 C   0  0  0  0  0  0  0  0  0  0  0  0
  -26.3540  -34.6610   22.2600 O   0  0  0  0  0  0  0  0  0  0  0  0
  -24.7500  -33.6590   24.7690 H   0  0  0  0  0  0  0  0  0  0  0  0
  -23.8880  -36.4410   22.9890 C   0  0  0  0  0  1  0  0  0  0  0  0
  -25.1190  -36.0250   23.8100 C   0  0  0  0  0  3  0  0  0  0  0  0
  -27.1910  -36.9350   24.7650 C   0  0  0  0  0  1  0  0  0  0  0  0
  -26.1180  -37.1160   23.7910 N   0  0  0  0  0  0  0  0  0  0  0  0
  -25.6750  -38.0140   23.9700 H   0  0  0  0  0  0  0  0  0  0  0  0
  -26.3020  -31.4150   24.8280 C   0  0  1  0  0  0  0  0  0  0  0  0
  -25.2270  -31.0920   25.8940 C   0  0  0  0  0  1  0  0  0  0  0  0
  -26.9450  -30.0800   24.3940 C   0  0  0  0  0  1  0  0  0  0  0  0
  -27.4180  -32.2400   25.5120 C   0  0  0  0  0  1  0  0  0  0  0  0
  1  2  2  0
  3 17  1  0
  4  9  1  0
  5  6  1  0
  5  4  1  0
  7  6  1  0
  7 21  1  0
  7  8  1  0
  9  3  1  0
  9  8  1  0
 10  3  2  0
 12 14  1  0
 12 17  1  0
 14  1  1  0
 14 11  1  0
 15 13  1  0
 15 11  1  0
 15 16  1  0
 17 13  1  0
 18 19  2  0
 19 20  1  0
 19 38  1  0
 20 23  1  0
 21 18  1  0
 21 22  1  0
 22 20  2  0
 23 24  1  0
 24 25  2  0
 26 29  1  0
 26 25  1  0
 27 26  2  0
 28 27  1  0
 28 23  2  0
 29 30  1  0
 30 35  2  0
 30 31  1  0
 31 32  2  0
 33 32  1  0
 33 37  1  0
 34 33  2  0
 35 34  1  0
 36 35  1  0
 38 39  1  0
 39 42  1  0
 39 41  1  0
 40 38  2  0
 43 44  1  0
 43 18  1  0
 45 43  1  0
 46  1  1  0
 46 47  1  0
 48 50  1  0
 48 47  1  0
 49 60  2  0
 50 55  1  0
 51 59  1  0
 51 61  1  0
 52 58  1  0
 52 54  1  0
 53 59  1  0
 54 53  1  0
 55 54  2  0
 56 57  1  0
 56 50  2  0
 57 52  2  0
 58 51  1  0
 59 49  1  0
 61 63  2  0
 62 61  1  0
 64 62  1  0
 65 74  2  0
 65 70  1  0
 66 62  1  0
 66 70  1  0
 67 66  1  0
 68 69  1  0
 68 67  1  0
 69 65  1  0
 70 71  2  0
 71 72  1  0
 73 72  2  0
 74 73  1  0
 75 49  1  0
 75 76  1  0
 75 85  1  0
 76 79  1  0
 77 81  1  0
 77 76  1  0
 78 77  2  0
 81 80  1  0
 83 81  1  0
 83 84  1  0
 83 82  1  0
 85 88  1  1
 85 86  1  0
 87 85  1  0
M  ISO  4   3 100  17 100  47 101  48 101
M  END
>  <TORSDO>  (17) 
F 18

>  <SCORE>  (17) 
-8.563

>  <name>  (17) 
16

>  <ligand_id>  (17) 
16

>  <original_smiles>  (17) 
[H]c1c([H])c([H])c2c(c1[H])C([H])([H])C([H])([H])C([H])([H])C2([H])N([H])C(=O)C1([H])N(C(=O)C([H])(N([H])C(=O)C([H])(N([H])C([H])([H])[H])C([H])([H])[H])C(C([H])([H])[H])(C([H])([H])[H])C([H])([H])[H])C([H])([H])c2c([H])c(OC([H])([H])C([H])([H])C(=O)C3([H])C([H])([H])N(C(=O)N4C([H])([H])C([H])([H])C([H])([H])C([H])(n5nc(-c6c([H])c([H])c(Oc7c([H])c([H])c(F)c([H])c7F)c([H])c6[H])c(C(=O)N([H])[H])c5N([H])[H])C4([H])[H])C([H])([H])C([H])(C([H])([H])[H])C3([H])[H])c([H])c([H])c2C1([H])[H]

>  <smiles>  (17) 
[H]c1c([H])c([H])c2c(c1[H])C([H])([H])C([H])([H])C([H])([H])C2([H])N([H])C(=O)C1([H])N(C(=O)C([H])(N([H])C(=O)C([H])(N([H])C([H])([H])[H])C([H])([H])[H])C(C([H])([H])[H])(C([H])([H])[H])C([H])([H])[H])C([H])([H])c2c([H])c(OC([H])([H])C([H])([H])C(=O)C3([H])C([H])([H])N(C(=O)N4C([H])([H])C([H])([H])C([H])([H])C([H])(n5nc(-c6c([H])c([H])c(Oc7c([H])c([H])c(F)c([H])c7F)c([H])c6[H])c(C(=O)N([H])[H])c5N([H])[H])C4([H])[H])C([H])([H])C([H])(C([H])([H])[H])C3([H])[H])c([H])c([H])c2C1([H])[H]

$$$$
17:0:0
     RDKit          3D

 91 99  0  0  1  0  0  0  0  0999 V2000
  -31.2880  -20.1060   21.8720 C   0  0  0  0  0  2  0  0  0  0  0  0
  -29.8120  -20.4900   22.0160 C   0  0  0  0  0  2  0  0  0  0  0  0
  -29.9240  -18.9370   20.1840 C   0  0  0  0  0  3  0  0  0  0  0  0
  -31.3500  -19.0150   20.7850 C   0  0  0  0  0  3  0  0  0  0  0  0
  -32.4450  -19.2730   19.7350 C   0  0  0  0  0  1  0  0  0  0  0  0
  -29.2160  -20.2930   20.6830 N   0  0  2  0  0  4  0  0  0  0  0  0
  -28.2540  -20.0270   20.8410 H   0  0  0  0  0  0  0  0  0  0  0  0
  -30.4610  -15.0550   20.2910 C   0  0  0  0  0  0  0  0  0  0  0  0
  -30.4530  -12.6940   19.3270 C   0  0  0  0  0  2  0  0  0  0  0  0
  -29.5120  -12.6480   18.0970 C   0  0  0  0  0  2  0  0  0  0  0  0
  -28.0450  -12.4230   18.5170 C   0  0  0  0  0  2  0  0  0  0  0  0
  -27.6300  -13.3300   19.7050 C   0  0  0  0  0  3  0  0  0  0  0  0
  -28.6820  -13.2960   20.8360 C   0  0  0  0  0  2  0  0  0  0  0  0
  -29.9560  -13.7520   20.2530 N   0  0  0  0  0  0  0  0  0  0  0  0
  -31.6400  -15.2160   19.9610 O   0  0  0  0  0  0  0  0  0  0  0  0
  -29.2280  -17.4960   20.6250 C   0  0  0  0  0  0  0  0  0  0  0  0
  -29.5240  -16.0900   20.5740 N   0  0  0  0  0  0  0  0  0  0  0  0
  -28.1150  -17.7030   21.1120 O   0  0  0  0  0  0  0  0  0  0  0  0
  -28.6900  -15.6240   20.8920 H   0  0  0  0  0  0  0  0  0  0  0  0
  -25.2360  -13.9110   20.4050 C   0  0  0  0  0  0  0  0  0  0  0  0
  -24.1720  -13.1370   20.7770 C   0  0  0  0  0  0  0  0  0  0  0  0
  -24.6440  -11.7890   20.7730 C   0  0  0  0  0  0  0  0  0  0  0  0
  -26.2870  -13.0350   20.1900 N   0  0  0  0  0  0  0  0  0  0  0  0
  -25.9390  -11.7530   20.4780 N   0  0  0  0  0  0  0  0  0  0  0  0
  -23.9220  -10.5260   20.9770 C   0  0  0  0  0  0  0  0  0  0  0  0
  -24.3560   -9.5720   21.9230 C   0  0  0  0  0  3  0  0  0  0  0  0
  -23.6340   -8.3750   22.1150 C   0  0  0  0  0  3  0  0  0  0  0  0
  -22.4630   -8.1230   21.3610 C   0  0  0  0  0  0  0  0  0  0  0  0
  -22.0480   -9.0660   20.4040 C   0  0  0  0  0  3  0  0  0  0  0  0
  -22.7700  -10.2550   20.2110 C   0  0  0  0  0  3  0  0  0  0  0  0
  -21.7120   -6.9760   21.4610 O   0  0  0  0  0  0  0  0  0  0  0  0
  -21.6720   -6.2420   22.6190 C   0  0  0  0  0  0  0  0  0  0  0  0
  -21.2680   -6.8070   23.8480 C   0  0  0  0  0  3  0  0  0  0  0  0
  -21.1750   -5.9980   24.9980 C   0  0  0  0  0  3  0  0  0  0  0  0
  -21.4760   -4.6250   24.9200 C   0  0  0  0  0  0  0  0  0  0  0  0
  -21.8720   -4.0600   23.6960 C   0  0  0  0  0  3  0  0  0  0  0  0
  -21.9680   -4.8660   22.5480 C   0  0  0  0  0  0  0  0  0  0  0  0
  -22.3280   -4.3110   21.3660 F   0  0  0  0  0  0  0  0  0  0  0  0
  -21.3790   -3.8470   26.0230 F   0  0  0  0  0  0  0  0  0  0  0  0
  -22.7680  -13.6120   21.0240 C   0  0  0  0  0  0  0  0  0  0  0  0
  -22.0350  -12.9300   21.8950 N   0  0  0  0  0  0  0  0  0  0  0  0
  -22.3310  -14.6240   20.4770 O   0  0  0  0  0  0  0  0  0  0  0  0
  -22.4000  -12.1140   22.3640 H   0  0  0  0  0  0  0  0  0  0  0  0
  -21.0910  -13.2300   22.0990 H   0  0  0  0  0  0  0  0  0  0  0  0
  -25.3930  -15.2810   20.2060 N   0  0  0  0  0  0  0  0  0  0  0  0
  -24.6200  -15.9300   20.3090 H   0  0  0  0  0  0  0  0  0  0  0  0
  -26.2420  -15.7340   19.8940 H   0  0  0  0  0  0  0  0  0  0  0  0
  -29.1330  -21.6830   19.8780 C   0  0  0  0  0  2  0  0  0  0  0  0
  -28.7680  -23.2240   20.5570 C   0  0  0  0  0  3  0  0  0  0  0  0
  -28.2960  -24.6620   19.7560 C   0  0  0  0  0  3  0  0  0  0  0  0
  -28.2990  -26.1650   20.2430 O   0  0  0  0  0  0  0  0  0  0  0  0
  -24.6220  -31.8710   23.1820 C   0  0  0  0  0  0  0  0  0  0  0  0
  -27.2270  -27.1440   20.1390 C   0  0  0  0  0  0  0  0  0  0  0  0
  -23.4290  -30.4660   21.5480 C   0  0  0  0  0  3  0  0  0  0  0  0
  -24.8850  -28.8970   20.1180 C   0  0  0  0  0  0  0  0  0  0  0  0
  -25.9840  -30.7390   21.3800 C   0  0  0  0  0  2  0  0  0  0  0  0
  -26.0650  -29.3450   20.7240 C   0  0  0  0  0  0  0  0  0  0  0  0
  -27.2310  -28.4850   20.7180 C   0  0  0  0  0  3  0  0  0  0  0  0
  -26.0180  -26.8110   19.4860 C   0  0  0  0  0  3  0  0  0  0  0  0
  -24.8770  -27.6460   19.4830 C   0  0  0  0  0  3  0  0  0  0  0  0
  -23.6500  -29.7880   20.1690 C   0  0  0  0  0  2  0  0  0  0  0  0
  -24.6990  -31.0480   22.0910 N   0  0  0  0  0  0  0  0  0  0  0  0
  -23.5340  -32.1510   23.7080 O   0  0  0  0  0  0  0  0  0  0  0  0
  -22.7550  -29.4570   22.5130 C   0  0  0  0  0  0  0  0  0  0  0  0
  -21.4270  -29.2900   22.3980 N   0  0  0  0  0  0  0  0  0  0  0  0
  -23.4330  -28.8270   23.3290 O   0  0  0  0  0  0  0  0  0  0  0  0
  -20.9360  -29.8500   21.7150 H   0  0  0  0  0  0  0  0  0  0  0  0
  -18.0460  -28.0980   22.9330 C   0  0  0  0  0  0  0  0  0  0  0  0
  -20.6080  -28.3510   23.1710 C   0  0  0  0  0  3  0  0  0  0  0  0
  -20.6970  -26.9220   22.5870 C   0  0  0  0  0  2  0  0  0  0  0  0
  -19.5830  -26.6100   21.5840 C   0  0  0  0  0  2  0  0  0  0  0  0
  -18.2090  -26.7540   22.2430 C   0  0  0  0  0  2  0  0  0  0  0  0
  -19.1710  -28.8550   23.3530 C   0  0  0  0  0  0  0  0  0  0  0  0
  -18.9620  -30.1130   23.9600 C   0  0  0  0  0  3  0  0  0  0  0  0
  -17.6590  -30.6150   24.1450 C   0  0  0  0  0  3  0  0  0  0  0  0
  -16.5480  -29.8560   23.7380 C   0  0  0  0  0  3  0  0  0  0  0  0
  -16.7430  -28.5980   23.1390 C   0  0  0  0  0  3  0  0  0  0  0  0
  -25.8930  -32.5170   23.8100 C   0  0  0  0  0  3  0  0  0  0  0  0
  -26.4120  -31.7480   25.0870 C   0  0  1  0  0  0  0  0  0  0  0  0
  -25.3190  -31.5060   26.1550 C   0  0  0  0  0  1  0  0  0  0  0  0
  -27.0010  -30.3720   24.7000 C   0  0  0  0  0  1  0  0  0  0  0  0
  -27.5580  -32.5480   25.7500 C   0  0  0  0  0  1  0  0  0  0  0  0
  -25.5670  -33.9120   24.1510 N   0  0  0  0  0  0  0  0  0  0  0  0
  -25.8920  -34.9770   23.4060 C   0  0  0  0  0  0  0  0  0  0  0  0
  -26.5600  -34.8900   22.3730 O   0  0  0  0  0  0  0  0  0  0  0  0
  -24.9700  -34.0530   24.9520 H   0  0  0  0  0  0  0  0  0  0  0  0
  -24.1480  -36.7640   23.0820 C   0  0  0  0  0  1  0  0  0  0  0  0
  -25.3970  -36.3590   23.8820 C   0  0  0  0  0  3  0  0  0  0  0  0
  -27.5300  -37.2510   24.7100 C   0  0  0  0  0  1  0  0  0  0  0  0
  -26.4210  -37.4200   23.7740 N   0  0  0  0  0  0  0  0  0  0  0  0
  -26.0100  -38.3370   23.9300 H   0  0  0  0  0  0  0  0  0  0  0  0
  1  2  1  0
  3 16  1  0
  3  6  1  0
  3  4  1  0
  4  5  1  0
  4  1  1  0
  6  7  1  1
  6  2  1  0
  8 17  1  0
  9 14  1  0
 10 11  1  0
 10  9  1  0
 12 11  1  0
 12 23  1  0
 12 13  1  0
 14  8  1  0
 14 13  1  0
 15  8  2  0
 16 18  2  0
 17 16  1  0
 17 19  1  0
 20 21  2  0
 21 40  1  0
 22 21  1  0
 22 25  1  0
 23 20  1  0
 23 24  1  0
 24 22  2  0
 25 26  1  0
 26 27  2  0
 28 31  1  0
 28 27  1  0
 29 28  2  0
 30 29  1  0
 30 25  2  0
 31 32  1  0
 32 33  1  0
 33 34  2  0
 35 34  1  0
 35 39  1  0
 36 35  2  0
 37 32  2  0
 37 36  1  0
 38 37  1  0
 40 41  1  0
 41 44  1  0
 41 43  1  0
 42 40  2  0
 45 46  1  0
 45 20  1  0
 47 45  1  0
 48 49  1  0
 48  6  1  0
 50 51  1  0
 50 49  2  0
 52 63  2  0
 53 51  1  0
 53 58  1  0
 54 62  1  0
 54 64  1  0
 55 61  1  0
 55 57  1  0
 56 62  1  0
 57 56  1  0
 58 57  2  0
 59 53  2  0
 60 59  1  0
 60 55  2  0
 61 54  1  0
 62 52  1  0
 64 66  2  0
 65 64  1  0
 67 65  1  0
 68 77  2  0
 68 73  1  0
 69 65  1  0
 69 73  1  0
 70 69  1  0
 71 72  1  0
 71 70  1  0
 72 68  1  0
 73 74  2  0
 74 75  1  0
 76 75  2  0
 77 76  1  0
 78 52  1  0
 78 83  1  0
 78 79  1  0
 79 82  1  1
 79 80  1  0
 81 79  1  0
 83 86  1  0
 84 88  1  0
 84 83  1  0
 85 84  2  0
 88 87  1  0
 90 88  1  0
 90 91  1  0
 90 89  1  0
M  ISO  4   8 100  17 100  50 101  51 101
M  END
>  <TORSDO>  (18) 
F 19

>  <SCORE>  (18) 
-15.247

>  <name>  (18) 
17

>  <ligand_id>  (18) 
17

>  <original_smiles>  (18) 
[H]c1c([H])c([H])c2c(c1[H])C([H])([H])C([H])([H])C([H])([H])C2([H])N([H])C(=O)C1([H])N(C(=O)C([H])(N([H])C(=O)C([H])(N([H])C([H])([H])[H])C([H])([H])[H])C(C([H])([H])[H])(C([H])([H])[H])C([H])([H])[H])C([H])([H])c2c([H])c(OC([H])([H])C([H])([H])C([H])([H])[N+]3([H])C([H])([H])C([H])([H])C([H])(C([H])([H])[H])C3([H])C(=O)N([H])C(=O)N3C([H])([H])C([H])([H])C([H])([H])C([H])(n4nc(-c5c([H])c([H])c(Oc6c([H])c([H])c(F)c([H])c6F)c([H])c5[H])c(C(=O)N([H])[H])c4N([H])[H])C3([H])[H])c([H])c([H])c2C1([H])[H]

>  <smiles>  (18) 
[H]c1c([H])c([H])c2c(c1[H])C([H])([H])C([H])([H])C([H])([H])C2([H])N([H])C(=O)C1([H])N(C(=O)C([H])(N([H])C(=O)C([H])(N([H])C([H])([H])[H])C([H])([H])[H])C(C([H])([H])[H])(C([H])([H])[H])C([H])([H])[H])C([H])([H])c2c([H])c(OC([H])([H])C([H])([H])C([H])([H])[N+]3([H])C([H])([H])C([H])([H])C([H])(C([H])([H])[H])C3([H])C(=O)N([H])C(=O)N3C([H])([H])C([H])([H])C([H])([H])C([H])(n4nc(-c5c([H])c([H])c(Oc6c([H])c([H])c(F)c([H])c6F)c([H])c5[H])c(C(=O)N([H])[H])c4N([H])[H])C3([H])[H])c([H])c([H])c2C1([H])[H]

$$$$
18:0:0
     RDKit          3D

 88 96  0  0  1  0  0  0  0  0999 V2000
  -30.3030  -20.4670   19.3870 C   0  0  0  0  0  3  0  0  0  0  0  0
  -30.4840  -18.9920   19.4300 C   0  0  0  0  0  3  0  0  0  0  0  0
  -28.1600  -20.2630   20.1960 C   0  0  0  0  0  3  0  0  0  0  0  0
  -29.1280  -21.2530   19.7620 C   0  0  0  0  0  0  0  0  0  0  0  0
  -28.3260  -18.7860   20.2400 C   0  0  0  0  0  0  0  0  0  0  0  0
  -29.5100  -18.0080   19.8680 C   0  0  0  0  0  0  0  0  0  0  0  0
  -27.1370  -17.9970   20.7600 C   0  0  0  0  0  1  0  0  0  0  0  0
  -30.3510  -15.2150   19.5770 C   0  0  0  0  0  0  0  0  0  0  0  0
  -30.2210  -12.8050   18.6510 C   0  0  0  0  0  2  0  0  0  0  0  0
  -29.1670  -12.6810   17.5200 C   0  0  0  0  0  2  0  0  0  0  0  0
  -27.7640  -12.4290   18.1010 C   0  0  0  0  0  2  0  0  0  0  0  0
  -27.4600  -13.3570   19.3040 C   0  0  0  0  0  3  0  0  0  0  0  0
  -28.6240  -13.4210   20.3170 C   0  0  0  0  0  2  0  0  0  0  0  0
  -29.8020  -13.9090   19.5820 N   0  0  0  0  0  0  0  0  0  0  0  0
  -31.5160  -15.2740   19.1550 O   0  0  0  0  0  0  0  0  0  0  0  0
  -29.5530  -16.4010   19.9050 N   0  0  0  0  0  0  0  0  0  0  0  0
  -28.6930  -16.0520   20.3010 H   0  0  0  0  0  0  0  0  0  0  0  0
  -25.1960  -13.9280   20.3360 C   0  0  0  0  0  0  0  0  0  0  0  0
  -24.1650  -13.1550   20.7920 C   0  0  0  0  0  0  0  0  0  0  0  0
  -24.5930  -11.7990   20.6460 C   0  0  0  0  0  0  0  0  0  0  0  0
  -26.1850  -13.0460   19.9390 N   0  0  0  0  0  0  0  0  0  0  0  0
  -25.8410  -11.7570   20.1900 N   0  0  0  0  0  0  0  0  0  0  0  0
  -23.8610  -10.5440   20.8580 C   0  0  0  0  0  0  0  0  0  0  0  0
  -24.3270   -9.5580   21.7570 C   0  0  0  0  0  3  0  0  0  0  0  0
  -23.5930   -8.3690   21.9590 C   0  0  0  0  0  3  0  0  0  0  0  0
  -22.3790   -8.1570   21.2620 C   0  0  0  0  0  0  0  0  0  0  0  0
  -21.9320   -9.1300   20.3510 C   0  0  0  0  0  3  0  0  0  0  0  0
  -22.6670  -10.3100   20.1470 C   0  0  0  0  0  3  0  0  0  0  0  0
  -21.6150   -7.0210   21.3740 O   0  0  0  0  0  0  0  0  0  0  0  0
  -21.5550   -6.3070   22.5440 C   0  0  0  0  0  0  0  0  0  0  0  0
  -21.1150   -6.8910   23.7520 C   0  0  0  0  0  3  0  0  0  0  0  0
  -21.0040   -6.1030   24.9150 C   0  0  0  0  0  3  0  0  0  0  0  0
  -21.3190   -4.7330   24.8700 C   0  0  0  0  0  0  0  0  0  0  0  0
  -21.7520   -4.1480   23.6670 C   0  0  0  0  0  3  0  0  0  0  0  0
  -21.8650   -4.9320   22.5070 C   0  0  0  0  0  0  0  0  0  0  0  0
  -22.2610   -4.3600   21.3450 F   0  0  0  0  0  0  0  0  0  0  0  0
  -21.2050   -3.9730   25.9860 F   0  0  0  0  0  0  0  0  0  0  0  0
  -22.8180  -13.6450   21.2360 C   0  0  0  0  0  0  0  0  0  0  0  0
  -22.1800  -12.9320   22.1560 N   0  0  0  0  0  0  0  0  0  0  0  0
  -22.3460  -14.6950   20.8030 O   0  0  0  0  0  0  0  0  0  0  0  0
  -22.5780  -12.0820   22.5270 H   0  0  0  0  0  0  0  0  0  0  0  0
  -21.2800  -13.2410   22.4970 H   0  0  0  0  0  0  0  0  0  0  0  0
  -25.3630  -15.3010   20.1950 N   0  0  0  0  0  0  0  0  0  0  0  0
  -24.6060  -15.9480   20.3900 H   0  0  0  0  0  0  0  0  0  0  0  0
  -26.1260  -15.7300   19.6880 H   0  0  0  0  0  0  0  0  0  0  0  0
  -29.0900  -22.9830   19.9480 C   0  0  0  0  0  3  0  0  0  0  0  0
  -28.0530  -24.3510   19.5030 C   0  0  0  0  0  3  0  0  0  0  0  0
  -28.2200  -25.9530   19.7590 O   0  0  0  0  0  0  0  0  0  0  0  0
  -24.5220  -31.6240   22.9940 C   0  0  0  0  0  0  0  0  0  0  0  0
  -27.1630  -26.9880   19.7430 C   0  0  0  0  0  0  0  0  0  0  0  0
  -23.3400  -30.2700   21.3090 C   0  0  0  0  0  3  0  0  0  0  0  0
  -24.8090  -28.7710   19.8020 C   0  0  0  0  0  0  0  0  0  0  0  0
  -25.8940  -30.5670   21.1380 C   0  0  0  0  0  2  0  0  0  0  0  0
  -25.9910  -29.1930   20.4230 C   0  0  0  0  0  0  0  0  0  0  0  0
  -27.1630  -28.3220   20.3690 C   0  0  0  0  0  3  0  0  0  0  0  0
  -25.9480  -26.7030   19.0830 C   0  0  0  0  0  3  0  0  0  0  0  0
  -24.8080  -27.5480   19.1130 C   0  0  0  0  0  3  0  0  0  0  0  0
  -23.5660  -29.6530   19.9030 C   0  0  0  0  0  2  0  0  0  0  0  0
  -24.6060  -30.8440   21.8690 N   0  0  0  0  0  0  0  0  0  0  0  0
  -23.4330  -31.8630   23.5410 O   0  0  0  0  0  0  0  0  0  0  0  0
  -22.6850  -29.2150   22.2390 C   0  0  0  0  0  0  0  0  0  0  0  0
  -21.3560  -29.0350   22.1340 N   0  0  0  0  0  0  0  0  0  0  0  0
  -23.3790  -28.5610   23.0220 O   0  0  0  0  0  0  0  0  0  0  0  0
  -20.8480  -29.6170   21.4820 H   0  0  0  0  0  0  0  0  0  0  0  0
  -17.9980  -27.7760   22.6800 C   0  0  0  0  0  0  0  0  0  0  0  0
  -20.5640  -28.0490   22.8760 C   0  0  0  0  0  3  0  0  0  0  0  0
  -20.6560  -26.6520   22.2180 C   0  0  0  0  0  2  0  0  0  0  0  0
  -19.5240  -26.3780   21.2220 C   0  0  0  0  0  2  0  0  0  0  0  0
  -18.1620  -26.4720   21.9180 C   0  0  0  0  0  2  0  0  0  0  0  0
  -19.1250  -28.5240   23.1150 C   0  0  0  0  0  0  0  0  0  0  0  0
  -18.9140  -29.7440   23.7940 C   0  0  0  0  0  3  0  0  0  0  0  0
  -17.6100  -30.2170   24.0380 C   0  0  0  0  0  3  0  0  0  0  0  0
  -16.5000  -29.4660   23.6140 C   0  0  0  0  0  3  0  0  0  0  0  0
  -16.6950  -28.2480   22.9410 C   0  0  0  0  0  3  0  0  0  0  0  0
  -25.7860  -32.2680   23.6390 C   0  0  0  0  0  3  0  0  0  0  0  0
  -25.4390  -33.6420   24.0420 N   0  0  0  0  0  0  0  0  0  0  0  0
  -25.7360  -34.7450   23.3420 C   0  0  0  0  0  0  0  0  0  0  0  0
  -26.3950  -34.7150   22.3000 O   0  0  0  0  0  0  0  0  0  0  0  0
  -24.8480  -33.7370   24.8560 H   0  0  0  0  0  0  0  0  0  0  0  0
  -23.9560  -36.5130   23.1200 C   0  0  0  0  0  1  0  0  0  0  0  0
  -25.2250  -36.0970   23.8820 C   0  0  0  0  0  3  0  0  0  0  0  0
  -27.3480  -37.0010   24.7230 C   0  0  0  0  0  1  0  0  0  0  0  0
  -26.2270  -37.1820   23.8040 N   0  0  0  0  0  0  0  0  0  0  0  0
  -25.8000  -38.0830   23.9970 H   0  0  0  0  0  0  0  0  0  0  0  0
  -26.3290  -31.4580   24.8810 C   0  0  1  0  0  0  0  0  0  0  0  0
  -25.2500  -31.1560   25.9480 C   0  0  0  0  0  1  0  0  0  0  0  0
  -26.9370  -30.1080   24.4370 C   0  0  0  0  0  1  0  0  0  0  0  0
  -27.4690  -32.2500   25.5650 C   0  0  0  0  0  1  0  0  0  0  0  0
  1  2  2  0
  1  4  1  0
  2  6  1  0
  3  5  1  0
  4 46  1  0
  4  3  2  0
  5  7  1  0
  6 16  1  0
  6  5  2  0
  8 14  1  0
  8 16  1  0
  9 14  1  0
 10 11  1  0
 10  9  1  0
 12 11  1  0
 12 21  1  0
 12 13  1  0
 14 13  1  0
 15  8  2  0
 16 17  1  0
 18 19  2  0
 19 38  1  0
 20 19  1  0
 20 23  1  0
 21 22  1  0
 21 18  1  0
 22 20  2  0
 23 24  1  0
 24 25  2  0
 26 29  1  0
 26 25  1  0
 27 26  2  0
 28 27  1  0
 28 23  2  0
 29 30  1  0
 30 31  1  0
 31 32  2  0
 33 32  1  0
 33 37  1  0
 34 33  2  0
 35 30  2  0
 35 34  1  0
 36 35  1  0
 38 39  1  0
 39 42  1  0
 39 41  1  0
 40 38  2  0
 43 18  1  0
 43 44  1  0
 45 43  1  0
 47 48  1  0
 47 46  2  0
 49 60  2  0
 50 48  1  0
 50 55  1  0
 51 59  1  0
 51 61  1  0
 52 58  1  0
 52 54  1  0
 53 59  1  0
 54 53  1  0
 55 54  2  0
 56 57  1  0
 56 50  2  0
 57 52  2  0
 58 51  1  0
 59 49  1  0
 61 63  2  0
 62 61  1  0
 64 62  1  0
 65 74  2  0
 65 70  1  0
 66 62  1  0
 66 70  1  0
 67 66  1  0
 68 69  1  0
 68 67  1  0
 69 65  1  0
 70 71  2  0
 71 72  1  0
 73 72  2  0
 74 73  1  0
 75 49  1  0
 75 76  1  0
 75 85  1  0
 76 79  1  0
 77 81  1  0
 77 76  1  0
 78 77  2  0
 81 80  1  0
 83 81  1  0
 83 84  1  0
 83 82  1  0
 85 88  1  1
 85 86  1  0
 87 85  1  0
M  ISO  4   8 100  16 100  47 101  48 101
M  END
>  <TORSDO>  (19) 
F 18

>  <SCORE>  (19) 
-14.016

>  <name>  (19) 
18

>  <ligand_id>  (19) 
18

>  <original_smiles>  (19) 
[H]c1c([H])c([H])c2c(c1[H])C([H])([H])C([H])([H])C([H])([H])C2([H])N([H])C(=O)C1([H])N(C(=O)C([H])(N([H])C(=O)C([H])(N([H])C([H])([H])[H])C([H])([H])[H])C(C([H])([H])[H])(C([H])([H])[H])C([H])([H])[H])C([H])([H])c2c([H])c(OC([H])([H])C([H])([H])c3c([H])c([H])c(N([H])C(=O)N4C([H])([H])C([H])([H])C([H])([H])C([H])(n5nc(-c6c([H])c([H])c(Oc7c([H])c([H])c(F)c([H])c7F)c([H])c6[H])c(C(=O)N([H])[H])c5N([H])[H])C4([H])[H])c(C([H])([H])[H])c3[H])c([H])c([H])c2C1([H])[H]

>  <smiles>  (19) 
[H]c1c([H])c([H])c2c(c1[H])C([H])([H])C([H])([H])C([H])([H])C2([H])N([H])C(=O)C1([H])N(C(=O)C([H])(N([H])C(=O)C([H])(N([H])C([H])([H])[H])C([H])([H])[H])C(C([H])([H])[H])(C([H])([H])[H])C([H])([H])[H])C([H])([H])c2c([H])c(OC([H])([H])C([H])([H])c3c([H])c([H])c(N([H])C(=O)N4C([H])([H])C([H])([H])C([H])([H])C([H])(n5nc(-c6c([H])c([H])c(Oc7c([H])c([H])c(F)c([H])c7F)c([H])c6[H])c(C(=O)N([H])[H])c5N([H])[H])C4([H])[H])c(C([H])([H])[H])c3[H])c([H])c([H])c2C1([H])[H]

$$$$
19:0:0
     RDKit          3D

 87 94  0  0  1  0  0  0  0  0999 V2000
  -26.8290  -22.4080   20.1520 C   0  0  0  0  0  1  0  0  0  0  0  0
  -28.3100  -22.8400   20.1340 C   0  0  0  0  0  3  0  0  0  0  0  0
  -28.3290  -24.4950   20.8050 C   0  0  0  0  0  2  0  0  0  0  0  0
  -28.2770  -26.0410   20.2810 O   0  0  0  0  0  0  0  0  0  0  0  0
  -24.6340  -31.9310   23.2500 C   0  0  0  0  0  0  0  0  0  0  0  0
  -27.2130  -27.0650   20.3150 C   0  0  0  0  0  0  0  0  0  0  0  0
  -23.4480  -30.5180   21.6170 C   0  0  0  0  0  3  0  0  0  0  0  0
  -24.9040  -28.9040   20.2220 C   0  0  0  0  0  0  0  0  0  0  0  0
  -26.0090  -30.7510   21.4710 C   0  0  0  0  0  2  0  0  0  0  0  0
  -26.0870  -29.3350   20.8380 C   0  0  0  0  0  0  0  0  0  0  0  0
  -27.2420  -28.4400   20.8490 C   0  0  0  0  0  3  0  0  0  0  0  0
  -26.0030  -26.7670   19.6540 C   0  0  0  0  0  3  0  0  0  0  0  0
  -24.8860  -27.6390   19.6090 C   0  0  0  0  0  3  0  0  0  0  0  0
  -23.6800  -29.8180   20.2500 C   0  0  0  0  0  2  0  0  0  0  0  0
  -24.7180  -31.0960   22.1650 N   0  0  0  0  0  0  0  0  0  0  0  0
  -23.5440  -32.2220   23.7660 O   0  0  0  0  0  0  0  0  0  0  0  0
  -22.7580  -29.5290   22.5880 C   0  0  0  0  0  0  0  0  0  0  0  0
  -21.4290  -29.3550   22.4540 N   0  0  0  0  0  0  0  0  0  0  0  0
  -23.4210  -28.9140   23.4260 O   0  0  0  0  0  0  0  0  0  0  0  0
  -20.9480  -29.9010   21.7550 H   0  0  0  0  0  0  0  0  0  0  0  0
  -18.0480  -28.1420   22.9590 C   0  0  0  0  0  0  0  0  0  0  0  0
  -20.6060  -28.4190   23.2280 C   0  0  0  0  0  3  0  0  0  0  0  0
  -20.7130  -26.9830   22.6630 C   0  0  0  0  0  2  0  0  0  0  0  0
  -19.6150  -26.6500   21.6470 C   0  0  0  0  0  2  0  0  0  0  0  0
  -18.2320  -26.7920   22.2870 C   0  0  0  0  0  2  0  0  0  0  0  0
  -19.1640  -28.9140   23.3850 C   0  0  0  0  0  0  0  0  0  0  0  0
  -18.9340  -30.1750   23.9750 C   0  0  0  0  0  3  0  0  0  0  0  0
  -17.6270  -30.6670   24.1420 C   0  0  0  0  0  3  0  0  0  0  0  0
  -16.5280  -29.8930   23.7300 C   0  0  0  0  0  3  0  0  0  0  0  0
  -16.7410  -28.6320   23.1460 C   0  0  0  0  0  3  0  0  0  0  0  0
  -25.9040  -32.5780   23.8840 C   0  0  0  0  0  3  0  0  0  0  0  0
  -25.5830  -33.9800   24.2060 N   0  0  0  0  0  0  0  0  0  0  0  0
  -25.9150  -35.0350   23.4480 C   0  0  0  0  0  0  0  0  0  0  0  0
  -26.5890  -34.9300   22.4200 O   0  0  0  0  0  0  0  0  0  0  0  0
  -24.9920  -34.1380   25.0090 H   0  0  0  0  0  0  0  0  0  0  0  0
  -24.1970  -36.8330   23.0810 C   0  0  0  0  0  1  0  0  0  0  0  0
  -25.4300  -36.4260   23.9030 C   0  0  0  0  0  3  0  0  0  0  0  0
  -27.5570  -37.3110   24.7550 C   0  0  0  0  0  1  0  0  0  0  0  0
  -26.4670  -37.4780   23.7960 N   0  0  0  0  0  0  0  0  0  0  0  0
  -26.0630  -38.4000   23.9350 H   0  0  0  0  0  0  0  0  0  0  0  0
  -26.4040  -31.8240   25.1780 C   0  0  1  0  0  0  0  0  0  0  0  0
  -25.3000  -31.5950   26.2360 C   0  0  0  0  0  1  0  0  0  0  0  0
  -26.9970  -30.4450   24.8190 C   0  0  0  0  0  1  0  0  0  0  0  0
  -27.5510  -32.6270   25.8390 C   0  0  0  0  0  1  0  0  0  0  0  0
  -29.2610  -21.3810   20.5500 C   0  0  0  0  0  3  0  0  0  0  0  0
  -31.8560  -21.1740   20.9090 C   0  0  0  0  0  1  0  0  0  0  0  0
  -30.6930  -21.7270   20.0690 C   0  0  0  0  0  2  0  0  0  0  0  0
  -28.9790  -19.6430   20.2280 C   0  0  0  0  0  3  0  0  0  0  0  0
  -29.9990  -18.1890   20.4100 C   0  0  0  0  0  3  0  0  0  0  0  0
  -30.4250  -15.3060   20.2700 C   0  0  0  0  0  0  0  0  0  0  0  0
  -30.3710  -12.8850   19.3610 C   0  0  0  0  0  2  0  0  0  0  0  0
  -29.4440  -12.7520   18.1250 C   0  0  0  0  0  2  0  0  0  0  0  0
  -28.0020  -12.4570   18.5640 C   0  0  0  0  0  2  0  0  0  0  0  0
  -27.5610  -13.3910   19.7210 C   0  0  0  0  0  3  0  0  0  0  0  0
  -28.6160  -13.5070   20.8440 C   0  0  0  0  0  2  0  0  0  0  0  0
  -29.8490  -14.0070   20.2210 N   0  0  0  0  0  0  0  0  0  0  0  0
  -31.6350  -15.3230   20.0060 O   0  0  0  0  0  0  0  0  0  0  0  0
  -29.6680  -16.5640   20.4130 N   0  0  0  0  0  0  0  0  0  0  0  0
  -28.6940  -16.3770   20.5900 H   0  0  0  0  0  0  0  0  0  0  0  0
  -25.1950  -13.9370   20.4830 C   0  0  0  0  0  0  0  0  0  0  0  0
  -24.1410  -13.1500   20.8580 C   0  0  0  0  0  0  0  0  0  0  0  0
  -24.6180  -11.8030   20.8230 C   0  0  0  0  0  0  0  0  0  0  0  0
  -26.2380  -13.0640   20.2330 N   0  0  0  0  0  0  0  0  0  0  0  0
  -25.9060  -11.7770   20.5030 N   0  0  0  0  0  0  0  0  0  0  0  0
  -23.9000  -10.5360   21.0160 C   0  0  0  0  0  0  0  0  0  0  0  0
  -24.3360   -9.5770   21.9570 C   0  0  0  0  0  3  0  0  0  0  0  0
  -23.6170   -8.3740   22.1330 C   0  0  0  0  0  3  0  0  0  0  0  0
  -22.4530   -8.1240   21.3670 C   0  0  0  0  0  0  0  0  0  0  0  0
  -22.0380   -9.0710   20.4160 C   0  0  0  0  0  3  0  0  0  0  0  0
  -22.7560  -10.2650   20.2410 C   0  0  0  0  0  3  0  0  0  0  0  0
  -21.7050   -6.9760   21.4540 O   0  0  0  0  0  0  0  0  0  0  0  0
  -21.6290   -6.2510   22.6160 C   0  0  0  0  0  0  0  0  0  0  0  0
  -21.1350   -6.8110   23.8150 C   0  0  0  0  0  3  0  0  0  0  0  0
  -21.0150   -6.0100   24.9670 C   0  0  0  0  0  3  0  0  0  0  0  0
  -21.3820   -4.6500   24.9240 C   0  0  0  0  0  0  0  0  0  0  0  0
  -21.8630   -4.0900   23.7270 C   0  0  0  0  0  3  0  0  0  0  0  0
  -21.9860   -4.8890   22.5780 C   0  0  0  0  0  0  0  0  0  0  0  0
  -22.4360   -4.3410   21.4220 F   0  0  0  0  0  0  0  0  0  0  0  0
  -21.2550   -3.8770   26.0270 F   0  0  0  0  0  0  0  0  0  0  0  0
  -22.7460  -13.6150   21.1400 C   0  0  0  0  0  0  0  0  0  0  0  0
  -22.0300  -12.9110   22.0110 N   0  0  0  0  0  0  0  0  0  0  0  0
  -22.2990  -14.6390   20.6250 O   0  0  0  0  0  0  0  0  0  0  0  0
  -22.4000  -12.0790   22.4470 H   0  0  0  0  0  0  0  0  0  0  0  0
  -21.0900  -13.2050   22.2380 H   0  0  0  0  0  0  0  0  0  0  0  0
  -25.3580  -15.3080   20.3020 N   0  0  0  0  0  0  0  0  0  0  0  0
  -24.6010  -15.9780   20.3820 H   0  0  0  0  0  0  0  0  0  0  0  0
  -26.2060  -15.7170   19.9340 H   0  0  0  0  0  0  0  0  0  0  0  0
  2  1  1  0
  2 45  1  0
  2  3  1  0
  4  6  1  0
  4  3  1  0
  5 16  2  0
  6 11  1  0
  7 15  1  0
  7 17  1  0
  8 14  1  0
  8 10  1  0
  9 15  1  0
 10 11  2  0
 10  9  1  0
 12  6  2  0
 13 12  1  0
 13  8  2  0
 14  7  1  0
 15  5  1  0
 17 19  2  0
 18 17  1  0
 20 18  1  0
 21 30  2  0
 21 26  1  0
 22 18  1  0
 22 26  1  0
 23 22  1  0
 24 25  1  0
 24 23  1  0
 25 21  1  0
 26 27  2  0
 27 28  1  0
 29 28  2  0
 30 29  1  0
 31  5  1  0
 31 32  1  0
 31 41  1  0
 32 35  1  0
 33 37  1  0
 33 32  1  0
 34 33  2  0
 37 36  1  0
 39 37  1  0
 39 40  1  0
 39 38  1  0
 41 44  1  1
 41 42  1  0
 43 41  1  0
 45 47  1  0
 47 46  1  0
 48 49  2  0
 48 45  1  0
 49 58  1  0
 50 58  1  0
 51 56  1  0
 52 53  1  0
 52 51  1  0
 54 53  1  0
 54 63  1  0
 54 55  1  0
 56 50  1  0
 56 55  1  0
 57 50  2  0
 58 59  1  0
 60 61  2  0
 61 80  1  0
 62 61  1  0
 62 65  1  0
 63 60  1  0
 63 64  1  0
 64 62  2  0
 65 66  1  0
 66 67  2  0
 68 71  1  0
 68 67  1  0
 69 68  2  0
 70 69  1  0
 70 65  2  0
 71 72  1  0
 72 73  1  0
 73 74  2  0
 75 74  1  0
 75 79  1  0
 76 75  2  0
 77 72  2  0
 77 76  1  0
 78 77  1  0
 80 81  1  0
 81 84  1  0
 81 83  1  0
 82 80  2  0
 85 86  1  0
 85 60  1  0
 87 85  1  0
M  ISO  4   3 101   4 101  50 100  58 100
M  END
>  <TORSDO>  (20) 
F 21

>  <SCORE>  (20) 
-15.504

>  <name>  (20) 
19

>  <ligand_id>  (20) 
19

>  <original_smiles>  (20) 
[H]c1c([H])c([H])c2c(c1[H])C([H])([H])C([H])([H])C([H])([H])C2([H])N([H])C(=O)C1([H])N(C(=O)C([H])(N([H])C(=O)C([H])(N([H])C([H])([H])[H])C([H])([H])[H])C(C([H])([H])[H])(C([H])([H])[H])C([H])([H])[H])C([H])([H])c2c([H])c(OC([H])([H])C([H])(C([H])([H])[H])C([H])(C([H])([H])C([H])([H])[H])C([H])([H])C([H])([H])N([H])C(=O)N3C([H])([H])C([H])([H])C([H])([H])C([H])(n4nc(-c5c([H])c([H])c(Oc6c([H])c([H])c(F)c([H])c6F)c([H])c5[H])c(C(=O)N([H])[H])c4N([H])[H])C3([H])[H])c([H])c([H])c2C1([H])[H]

>  <smiles>  (20) 
[H]c1c([H])c([H])c2c(c1[H])C([H])([H])C([H])([H])C([H])([H])C2([H])N([H])C(=O)C1([H])N(C(=O)C([H])(N([H])C(=O)C([H])(N([H])C([H])([H])[H])C([H])([H])[H])C(C([H])([H])[H])(C([H])([H])[H])C([H])([H])[H])C([H])([H])c2c([H])c(OC([H])([H])C([H])(C([H])([H])[H])C([H])(C([H])([H])C([H])([H])[H])C([H])([H])C([H])([H])N([H])C(=O)N3C([H])([H])C([H])([H])C([H])([H])C([H])(n4nc(-c5c([H])c([H])c(Oc6c([H])c([H])c(F)c([H])c6F)c([H])c5[H])c(C(=O)N([H])[H])c4N([H])[H])C3([H])[H])c([H])c([H])c2C1([H])[H]

$$$$
20:0:0
     RDKit          3D

 88 95  0  0  1  0  0  0  0  0999 V2000
  -29.0320  -21.3050   19.7730 C   0  0  0  0  0  0  0  0  0  0  0  0
  -28.9590  -21.3480   18.5410 O   0  0  0  0  0  0  0  0  0  0  0  0
  -29.3500  -19.6460   20.4450 C   0  0  0  0  0  0  0  0  0  0  0  0
  -29.1380  -19.5590   21.6600 O   0  0  0  0  0  0  0  0  0  0  0  0
  -29.9120  -18.1300   19.6560 C   0  0  0  0  0  0  0  0  0  0  0  0
  -30.5160  -15.2900   19.9020 C   0  0  0  0  0  0  0  0  0  0  0  0
  -30.3910  -12.8830   18.9770 C   0  0  0  0  0  2  0  0  0  0  0  0
  -29.3900  -12.7630   17.8000 C   0  0  0  0  0  2  0  0  0  0  0  0
  -27.9650  -12.5070   18.3220 C   0  0  0  0  0  2  0  0  0  0  0  0
  -27.6100  -13.4300   19.5140 C   0  0  0  0  0  3  0  0  0  0  0  0
  -28.7310  -13.5080   20.5740 C   0  0  0  0  0  2  0  0  0  0  0  0
  -29.9360  -13.9950   19.8860 N   0  0  0  0  0  0  0  0  0  0  0  0
  -31.6970  -15.3050   19.5290 O   0  0  0  0  0  0  0  0  0  0  0  0
  -29.7710  -16.5420   20.1130 N   0  0  0  0  0  4  0  0  0  0  0  0
  -28.8570  -16.3550   20.5000 H   0  0  0  0  0  0  0  0  0  0  0  0
  -25.2970  -13.9880   20.4330 C   0  0  0  0  0  0  0  0  0  0  0  0
  -24.2550  -13.2090   20.8510 C   0  0  0  0  0  0  0  0  0  0  0  0
  -24.7060  -11.8560   20.7510 C   0  0  0  0  0  0  0  0  0  0  0  0
  -26.3130  -13.1120   20.0970 N   0  0  0  0  0  0  0  0  0  0  0  0
  -25.9740  -11.8210   20.3550 N   0  0  0  0  0  0  0  0  0  0  0  0
  -23.9800  -10.5940   20.9510 C   0  0  0  0  0  0  0  0  0  0  0  0
  -24.4420   -9.6110   21.8540 C   0  0  0  0  0  3  0  0  0  0  0  0
  -23.7140   -8.4170   22.0450 C   0  0  0  0  0  3  0  0  0  0  0  0
  -22.5100   -8.1970   21.3340 C   0  0  0  0  0  0  0  0  0  0  0  0
  -22.0680   -9.1690   20.4190 C   0  0  0  0  0  3  0  0  0  0  0  0
  -22.7960  -10.3540   20.2250 C   0  0  0  0  0  3  0  0  0  0  0  0
  -21.7510   -7.0560   21.4360 O   0  0  0  0  0  0  0  0  0  0  0  0
  -21.7250   -6.3100   22.5870 C   0  0  0  0  0  0  0  0  0  0  0  0
  -21.2960   -6.8530   23.8180 C   0  0  0  0  0  3  0  0  0  0  0  0
  -21.2190   -6.0320   24.9600 C   0  0  0  0  0  3  0  0  0  0  0  0
  -21.5600   -4.6690   24.8740 C   0  0  0  0  0  0  0  0  0  0  0  0
  -21.9810   -4.1250   23.6470 C   0  0  0  0  0  3  0  0  0  0  0  0
  -22.0600   -4.9440   22.5070 C   0  0  0  0  0  0  0  0  0  0  0  0
  -22.4460   -4.4090   21.3230 F   0  0  0  0  0  0  0  0  0  0  0  0
  -21.4780   -3.8780   25.9700 F   0  0  0  0  0  0  0  0  0  0  0  0
  -22.8830  -13.6880   21.2220 C   0  0  0  0  0  0  0  0  0  0  0  0
  -22.2030  -12.9730   22.1100 N   0  0  0  0  0  0  0  0  0  0  0  0
  -22.4260  -14.7340   20.7600 O   0  0  0  0  0  0  0  0  0  0  0  0
  -22.5880  -12.1280   22.5040 H   0  0  0  0  0  0  0  0  0  0  0  0
  -21.2840  -13.2750   22.4020 H   0  0  0  0  0  0  0  0  0  0  0  0
  -25.4580  -15.3620   20.2820 N   0  0  0  0  0  0  0  0  0  0  0  0
  -24.6980  -16.0120   20.4540 H   0  0  0  0  0  0  0  0  0  0  0  0
  -26.2680  -15.8030   19.8670 H   0  0  0  0  0  0  0  0  0  0  0  0
  -30.7520  -18.6800   17.2730 C   0  0  0  0  0  1  0  0  0  0  0  0
  -29.5890  -18.1760   18.1420 C   0  0  0  0  0  2  0  0  0  0  0  0
  -28.7980  -22.8530   20.5210 C   0  0  0  0  0  2  0  0  0  0  0  0
  -28.0820  -24.3790   19.9260 C   0  0  0  0  0  2  0  0  0  0  0  0
  -28.2050  -25.9620   20.3290 O   0  0  0  0  0  0  0  0  0  0  0  0
  -24.6110  -31.8820   23.2240 C   0  0  0  0  0  0  0  0  0  0  0  0
  -27.1870  -27.0370   20.2180 C   0  0  0  0  0  0  0  0  0  0  0  0
  -23.4260  -30.4870   21.5770 C   0  0  0  0  0  3  0  0  0  0  0  0
  -24.8820  -28.8910   20.1580 C   0  0  0  0  0  0  0  0  0  0  0  0
  -25.9900  -30.7080   21.4450 C   0  0  0  0  0  2  0  0  0  0  0  0
  -26.0630  -29.3030   20.7880 C   0  0  0  0  0  0  0  0  0  0  0  0
  -27.2090  -28.3940   20.7980 C   0  0  0  0  0  3  0  0  0  0  0  0
  -25.9820  -26.7720   19.5290 C   0  0  0  0  0  3  0  0  0  0  0  0
  -24.8660  -27.6460   19.5080 C   0  0  0  0  0  3  0  0  0  0  0  0
  -23.6610  -29.8070   20.2010 C   0  0  0  0  0  2  0  0  0  0  0  0
  -24.6960  -31.0530   22.1360 N   0  0  0  0  0  0  0  0  0  0  0  0
  -23.5190  -32.1720   23.7400 O   0  0  0  0  0  0  0  0  0  0  0  0
  -22.7280  -29.4890   22.5370 C   0  0  0  0  0  0  0  0  0  0  0  0
  -21.3990  -29.3220   22.4020 N   0  0  0  0  0  0  0  0  0  0  0  0
  -23.3880  -28.8660   23.3720 O   0  0  0  0  0  0  0  0  0  0  0  0
  -20.9200  -29.8760   21.7060 H   0  0  0  0  0  0  0  0  0  0  0  0
  -18.0140  -28.1150   22.8870 C   0  0  0  0  0  0  0  0  0  0  0  0
  -20.5710  -28.3850   23.1680 C   0  0  0  0  0  3  0  0  0  0  0  0
  -20.6790  -26.9520   22.5940 C   0  0  0  0  0  2  0  0  0  0  0  0
  -19.5840  -26.6280   21.5720 C   0  0  0  0  0  2  0  0  0  0  0  0
  -18.1970  -26.7680   22.2080 C   0  0  0  0  0  2  0  0  0  0  0  0
  -19.1280  -28.8810   23.3230 C   0  0  0  0  0  0  0  0  0  0  0  0
  -18.9000  -30.1390   23.9200 C   0  0  0  0  0  3  0  0  0  0  0  0
  -17.5910  -30.6330   24.0850 C   0  0  0  0  0  3  0  0  0  0  0  0
  -16.4930  -29.8640   23.6620 C   0  0  0  0  0  3  0  0  0  0  0  0
  -16.7040  -28.6070   23.0700 C   0  0  0  0  0  3  0  0  0  0  0  0
  -25.8800  -32.5230   23.8650 C   0  0  0  0  0  3  0  0  0  0  0  0
  -25.5650  -33.9250   24.1880 N   0  0  0  0  0  0  0  0  0  0  0  0
  -25.9030  -34.9810   23.4370 C   0  0  0  0  0  0  0  0  0  0  0  0
  -26.5750  -34.8770   22.4080 O   0  0  0  0  0  0  0  0  0  0  0  0
  -24.9660  -34.0790   24.9870 H   0  0  0  0  0  0  0  0  0  0  0  0
  -24.1830  -36.7870   23.0850 C   0  0  0  0  0  1  0  0  0  0  0  0
  -25.4210  -36.3730   23.8960 C   0  0  0  0  0  3  0  0  0  0  0  0
  -27.5520  -37.2560   24.7420 C   0  0  0  0  0  1  0  0  0  0  0  0
  -26.4580  -37.4220   23.7880 N   0  0  0  0  0  0  0  0  0  0  0  0
  -26.0540  -38.3450   23.9260 H   0  0  0  0  0  0  0  0  0  0  0  0
  -26.3700  -31.7640   25.1600 C   0  0  1  0  0  0  0  0  0  0  0  0
  -25.2570  -31.5410   26.2110 C   0  0  0  0  0  1  0  0  0  0  0  0
  -26.9560  -30.3790   24.8010 C   0  0  0  0  0  1  0  0  0  0  0  0
  -27.5120  -32.5620   25.8340 C   0  0  0  0  0  1  0  0  0  0  0  0
  1  3  1  0
  1 46  1  0
  2  1  2  0
  3  4  2  0
  5 14  2  0
  5  3  1  0
  6 14  1  0
  7 12  1  0
  8  9  1  0
  8  7  1  0
 10  9  1  0
 10 19  1  0
 10 11  1  0
 12  6  1  0
 12 11  1  0
 13  6  2  0
 14 15  1  0
 16 17  2  0
 17 36  1  0
 18 17  1  0
 18 21  1  0
 19 20  1  0
 19 16  1  0
 20 18  2  0
 21 22  1  0
 22 23  2  0
 24 27  1  0
 24 23  1  0
 25 24  2  0
 26 25  1  0
 26 21  2  0
 27 28  1  0
 28 29  1  0
 29 30  2  0
 31 30  1  0
 31 35  1  0
 32 31  2  0
 33 28  2  0
 33 32  1  0
 34 33  1  0
 36 37  1  0
 37 40  1  0
 37 39  1  0
 38 36  2  0
 41 16  1  0
 41 42  1  0
 43 41  1  0
 44 45  1  0
 45  5  1  0
 47 48  1  0
 47 46  1  0
 49 60  2  0
 50 48  1  0
 50 55  1  0
 51 59  1  0
 51 61  1  0
 52 58  1  0
 52 54  1  0
 53 59  1  0
 54 55  2  0
 54 53  1  0
 56 50  2  0
 57 56  1  0
 57 52  2  0
 58 51  1  0
 59 49  1  0
 61 63  2  0
 62 61  1  0
 64 62  1  0
 65 74  2  0
 65 70  1  0
 66 62  1  0
 66 70  1  0
 67 66  1  0
 68 69  1  0
 68 67  1  0
 69 65  1  0
 70 71  2  0
 71 72  1  0
 73 72  2  0
 74 73  1  0
 75 49  1  0
 75 76  1  0
 75 85  1  0
 76 79  1  0
 77 81  1  0
 77 76  1  0
 78 77  2  0
 81 80  1  0
 83 81  1  0
 83 84  1  0
 83 82  1  0
 85 88  1  1
 85 86  1  0
 87 85  1  0
M  ISO  4   6 100  14 100  47 101  48 101
M  END
>  <TORSDO>  (21) 
F 21

>  <SCORE>  (21) 
-14.496

>  <name>  (21) 
20

>  <ligand_id>  (21) 
20

>  <original_smiles>  (21) 
[H]c1c([H])c([H])c2c(c1[H])C([H])([H])C([H])([H])C([H])([H])C2([H])N([H])C(=O)C1([H])N(C(=O)C([H])(N([H])C(=O)C([H])(N([H])C([H])([H])[H])C([H])([H])[H])C(C([H])([H])[H])(C([H])([H])[H])C([H])([H])[H])C([H])([H])c2c([H])c(OC([H])([H])C([H])([H])C(=O)C(=O)C([H])(N([H])C(=O)N3C([H])([H])C([H])([H])C([H])([H])C([H])(n4nc(-c5c([H])c([H])c(Oc6c([H])c([H])c(F)c([H])c6F)c([H])c5[H])c(C(=O)N([H])[H])c4N([H])[H])C3([H])[H])C([H])([H])C([H])([H])[H])c([H])c([H])c2C1([H])[H]

>  <smiles>  (21) 
[H]c1c([H])c([H])c2c(c1[H])C([H])([H])C([H])([H])C([H])([H])C2([H])N([H])C(=O)C1([H])N(C(=O)C([H])(N([H])C(=O)C([H])(N([H])C([H])([H])[H])C([H])([H])[H])C(C([H])([H])[H])(C([H])([H])[H])C([H])([H])[H])C([H])([H])c2c([H])c(OC([H])([H])C([H])([H])C(=O)C(=O)C([H])(N([H])C(=O)N3C([H])([H])C([H])([H])C([H])([H])C([H])(n4nc(-c5c([H])c([H])c(Oc6c([H])c([H])c(F)c([H])c6F)c([H])c5[H])c(C(=O)N([H])[H])c4N([H])[H])C3([H])[H])C([H])([H])C([H])([H])[H])c([H])c([H])c2C1([H])[H]

$$$$
21:0:0
     RDKit          3D

 89 97  0  0  1  0  0  0  0  0999 V2000
  -28.6260  -21.4530   19.1350 C   0  0  0  0  0  2  0  0  0  0  0  0
  -28.7160  -21.5070   21.4920 C   0  0  0  0  0  2  0  0  0  0  0  0
  -28.6400  -23.1570   19.1070 C   0  0  0  0  0  2  0  0  0  0  0  0
  -28.7220  -23.2070   21.4340 C   0  0  0  0  0  2  0  0  0  0  0  0
  -29.3160  -20.5360   20.3120 C   0  0  0  0  0  3  0  0  0  0  0  0
  -28.0510  -24.1710   20.2720 C   0  0  0  0  0  3  0  0  0  0  0  0
  -28.1780  -25.8520   20.2790 O   0  0  0  0  0  0  0  0  0  0  0  0
  -24.6180  -31.8920   23.2360 C   0  0  0  0  0  0  0  0  0  0  0  0
  -27.1540  -26.9560   20.2350 C   0  0  0  0  0  0  0  0  0  0  0  0
  -23.4230  -30.5040   21.5920 C   0  0  0  0  0  3  0  0  0  0  0  0
  -24.8660  -28.8780   20.1790 C   0  0  0  0  0  0  0  0  0  0  0  0
  -25.9920  -30.6870   21.4580 C   0  0  0  0  0  2  0  0  0  0  0  0
  -26.0560  -29.2700   20.8030 C   0  0  0  0  0  0  0  0  0  0  0  0
  -27.1930  -28.3340   20.8000 C   0  0  0  0  0  3  0  0  0  0  0  0
  -25.9310  -26.7250   19.5650 C   0  0  0  0  0  3  0  0  0  0  0  0
  -24.8320  -27.6270   19.5400 C   0  0  0  0  0  3  0  0  0  0  0  0
  -23.6550  -29.8130   20.2190 C   0  0  0  0  0  2  0  0  0  0  0  0
  -24.7000  -31.0570   22.1480 N   0  0  0  0  0  0  0  0  0  0  0  0
  -23.5280  -32.1890   23.7540 O   0  0  0  0  0  0  0  0  0  0  0  0
  -22.7150  -29.5170   22.5570 C   0  0  0  0  0  0  0  0  0  0  0  0
  -21.3840  -29.3640   22.4290 N   0  0  0  0  0  0  0  0  0  0  0  0
  -23.3720  -28.8870   23.3900 O   0  0  0  0  0  0  0  0  0  0  0  0
  -20.9060  -29.9200   21.7340 H   0  0  0  0  0  0  0  0  0  0  0  0
  -17.9900  -28.1820   22.9370 C   0  0  0  0  0  0  0  0  0  0  0  0
  -20.5520  -28.4310   23.1980 C   0  0  0  0  0  3  0  0  0  0  0  0
  -20.6420  -26.9990   22.6180 C   0  0  0  0  0  2  0  0  0  0  0  0
  -19.5370  -26.6880   21.6030 C   0  0  0  0  0  2  0  0  0  0  0  0
  -18.1570  -26.8370   22.2500 C   0  0  0  0  0  2  0  0  0  0  0  0
  -19.1130  -28.9360   23.3670 C   0  0  0  0  0  0  0  0  0  0  0  0
  -18.9000  -30.1930   23.9740 C   0  0  0  0  0  3  0  0  0  0  0  0
  -17.5970  -30.6960   24.1510 C   0  0  0  0  0  3  0  0  0  0  0  0
  -16.4880  -29.9390   23.7340 C   0  0  0  0  0  3  0  0  0  0  0  0
  -16.6860  -28.6830   23.1330 C   0  0  0  0  0  3  0  0  0  0  0  0
  -25.8880  -32.5290   23.8780 C   0  0  0  0  0  3  0  0  0  0  0  0
  -26.3750  -31.7670   25.1720 C   0  0  1  0  0  0  0  0  0  0  0  0
  -25.2630  -31.5510   26.2260 C   0  0  0  0  0  1  0  0  0  0  0  0
  -26.9520  -30.3780   24.8130 C   0  0  0  0  0  1  0  0  0  0  0  0
  -27.5230  -32.5570   25.8440 C   0  0  0  0  0  1  0  0  0  0  0  0
  -25.5790  -33.9320   24.2060 N   0  0  0  0  0  0  0  0  0  0  0  0
  -25.9060  -34.9880   23.4510 C   0  0  0  0  0  0  0  0  0  0  0  0
  -26.5630  -34.8840   22.4120 O   0  0  0  0  0  0  0  0  0  0  0  0
  -24.9930  -34.0860   25.0150 H   0  0  0  0  0  0  0  0  0  0  0  0
  -24.1770  -36.7940   23.1380 C   0  0  0  0  0  1  0  0  0  0  0  0
  -25.4370  -36.3820   23.9190 C   0  0  0  0  0  3  0  0  0  0  0  0
  -27.5870  -37.2730   24.7050 C   0  0  0  0  0  1  0  0  0  0  0  0
  -26.4710  -37.4310   23.7770 N   0  0  0  0  0  0  0  0  0  0  0  0
  -26.0700  -38.3550   23.9150 H   0  0  0  0  0  0  0  0  0  0  0  0
  -29.9380  -18.7660   20.3320 C   0  0  0  0  0  3  0  0  0  0  0  0
  -31.1290  -18.8390   21.1980 N   0  0  0  0  0  4  0  0  0  0  0  0
  -30.8640  -18.8930   22.1650 H   0  0  0  0  0  0  0  0  0  0  0  0
  -31.6760  -19.6510   20.9750 H   0  0  0  0  0  0  0  0  0  0  0  0
  -31.7130  -18.0310   21.0700 H   0  0  0  0  0  0  0  0  0  0  0  0
  -29.4430  -17.0020   20.4600 C   0  0  0  0  0  2  0  0  0  0  0  0
  -30.2910  -15.4330   20.2620 C   0  0  0  0  0  0  0  0  0  0  0  0
  -30.3250  -12.9710   19.3670 C   0  0  0  0  0  2  0  0  0  0  0  0
  -29.3930  -12.7640   18.1420 C   0  0  0  0  0  2  0  0  0  0  0  0
  -27.9520  -12.4660   18.5880 C   0  0  0  0  0  2  0  0  0  0  0  0
  -27.5000  -13.4050   19.7320 C   0  0  0  0  0  3  0  0  0  0  0  0
  -28.5580  -13.5530   20.8450 C   0  0  0  0  0  2  0  0  0  0  0  0
  -29.7800  -14.0930   20.2240 N   0  0  0  0  0  0  0  0  0  0  0  0
  -31.5060  -15.4380   20.0040 O   0  0  0  0  0  0  0  0  0  0  0  0
  -25.1380  -13.9290   20.5290 C   0  0  0  0  0  0  0  0  0  0  0  0
  -24.0860  -13.1390   20.8990 C   0  0  0  0  0  0  0  0  0  0  0  0
  -24.5640  -11.7930   20.8420 C   0  0  0  0  0  0  0  0  0  0  0  0
  -26.1840  -13.0660   20.2550 N   0  0  0  0  0  0  0  0  0  0  0  0
  -25.8510  -11.7730   20.5130 N   0  0  0  0  0  0  0  0  0  0  0  0
  -23.8460  -10.5220   21.0220 C   0  0  0  0  0  0  0  0  0  0  0  0
  -24.2800   -9.5530   21.9530 C   0  0  0  0  0  3  0  0  0  0  0  0
  -23.5600   -8.3510   22.1240 C   0  0  0  0  0  3  0  0  0  0  0  0
  -22.3910   -8.1090   21.3630 C   0  0  0  0  0  0  0  0  0  0  0  0
  -21.9760   -9.0680   20.4220 C   0  0  0  0  0  3  0  0  0  0  0  0
  -22.6970  -10.2610   20.2500 C   0  0  0  0  0  3  0  0  0  0  0  0
  -21.6430   -6.9590   21.4430 O   0  0  0  0  0  0  0  0  0  0  0  0
  -21.5740   -6.2230   22.5970 C   0  0  0  0  0  0  0  0  0  0  0  0
  -21.0850   -6.7730   23.8030 C   0  0  0  0  0  3  0  0  0  0  0  0
  -20.9650   -5.9610   24.9490 C   0  0  0  0  0  3  0  0  0  0  0  0
  -21.3260   -4.6020   24.8910 C   0  0  0  0  0  0  0  0  0  0  0  0
  -21.8070   -4.0520   23.6900 C   0  0  0  0  0  3  0  0  0  0  0  0
  -21.9280   -4.8610   22.5470 C   0  0  0  0  0  0  0  0  0  0  0  0
  -22.3730   -4.3200   21.3870 F   0  0  0  0  0  0  0  0  0  0  0  0
  -21.2040   -3.8200   25.9890 F   0  0  0  0  0  0  0  0  0  0  0  0
  -22.6890  -13.6020   21.1880 C   0  0  0  0  0  0  0  0  0  0  0  0
  -21.9770  -12.8940   22.0570 N   0  0  0  0  0  0  0  0  0  0  0  0
  -22.2400  -14.6280   20.6790 O   0  0  0  0  0  0  0  0  0  0  0  0
  -22.3540  -12.0650   22.4890 H   0  0  0  0  0  0  0  0  0  0  0  0
  -21.0380  -13.1870   22.2930 H   0  0  0  0  0  0  0  0  0  0  0  0
  -25.2900  -15.3040   20.3730 N   0  0  0  0  0  0  0  0  0  0  0  0
  -24.5230  -15.9520   20.5160 H   0  0  0  0  0  0  0  0  0  0  0  0
  -26.1350  -15.7560   20.0500 H   0  0  0  0  0  0  0  0  0  0  0  0
  1  5  1  0
  3  1  1  0
  3  6  1  0
  4  2  1  0
  5 48  1  0
  5  2  1  0
  6  7  1  0
  6  4  1  0
  8 19  2  0
  9  7  1  0
  9 14  1  0
 10 18  1  0
 10 20  1  0
 11 17  1  0
 11 13  1  0
 12 18  1  0
 13 12  1  0
 14 13  2  0
 15  9  2  0
 16 15  1  0
 16 11  2  0
 17 10  1  0
 18  8  1  0
 20 22  2  0
 21 20  1  0
 23 21  1  0
 24 33  2  0
 24 29  1  0
 25 21  1  0
 25 29  1  0
 26 25  1  0
 27 28  1  0
 27 26  1  0
 28 24  1  0
 29 30  2  0
 30 31  1  0
 32 31  2  0
 33 32  1  0
 34  8  1  0
 34 39  1  0
 34 35  1  0
 35 38  1  1
 35 36  1  0
 37 35  1  0
 39 42  1  0
 40 44  1  0
 40 39  1  0
 41 40  2  0
 44 43  1  0
 46 47  1  0
 46 44  1  0
 46 45  1  0
 48 53  1  0
 48 49  1  0
 49 50  1  0
 51 49  1  0
 52 49  1  0
 54 53  1  0
 55 60  1  0
 56 57  1  0
 56 55  1  0
 58 57  1  0
 58 65  1  0
 58 59  1  0
 60 54  1  0
 60 59  1  0
 61 54  2  0
 62 63  2  0
 63 82  1  0
 64 63  1  0
 64 67  1  0
 65 66  1  0
 65 62  1  0
 66 64  2  0
 67 68  1  0
 68 69  2  0
 70 73  1  0
 70 69  1  0
 71 70  2  0
 72 71  1  0
 72 67  2  0
 73 74  1  0
 74 75  1  0
 75 76  2  0
 77 76  1  0
 77 81  1  0
 78 77  2  0
 79 74  2  0
 79 78  1  0
 80 79  1  0
 82 83  1  0
 83 86  1  0
 83 85  1  0
 84 82  2  0
 87 88  1  0
 87 62  1  0
 89 87  1  0
M  ISO  4   6 101   7 101  53 100  54 100
M  END
>  <TORSDO>  (22) 
F 19

>  <SCORE>  (22) 
-16.735

>  <name>  (22) 
21

>  <ligand_id>  (22) 
21

>  <original_smiles>  (22) 
[H]c1c([H])c([H])c2c(c1[H])C([H])([H])C([H])([H])C([H])([H])C2([H])N([H])C(=O)C1([H])N(C(=O)C([H])(N([H])C(=O)C([H])(N([H])C([H])([H])[H])C([H])([H])[H])C(C([H])([H])[H])(C([H])([H])[H])C([H])([H])[H])C([H])([H])c2c([H])c(OC3([H])C([H])([H])C([H])([H])C([H])(C([H])(C([H])([H])C(=O)N4C([H])([H])C([H])([H])C([H])([H])C([H])(n5nc(-c6c([H])c([H])c(Oc7c([H])c([H])c(F)c([H])c7F)c([H])c6[H])c(C(=O)N([H])[H])c5N([H])[H])C4([H])[H])[N+]([H])([H])[H])C([H])([H])C3([H])[H])c([H])c([H])c2C1([H])[H]

>  <smiles>  (22) 
[H]c1c([H])c([H])c2c(c1[H])C([H])([H])C([H])([H])C([H])([H])C2([H])N([H])C(=O)C1([H])N(C(=O)C([H])(N([H])C(=O)C([H])(N([H])C([H])([H])[H])C([H])([H])[H])C(C([H])([H])[H])(C([H])([H])[H])C([H])([H])[H])C([H])([H])c2c([H])c(OC3([H])C([H])([H])C([H])([H])C([H])(C([H])(C([H])([H])C(=O)N4C([H])([H])C([H])([H])C([H])([H])C([H])(n5nc(-c6c([H])c([H])c(Oc7c([H])c([H])c(F)c([H])c7F)c([H])c6[H])c(C(=O)N([H])[H])c5N([H])[H])C4([H])[H])[N+]([H])([H])[H])C([H])([H])C3([H])[H])c([H])c([H])c2C1([H])[H]

$$$$
22:0:0
     RDKit          3D

 91 99  0  0  1  0  0  0  0  0999 V2000
  -30.1190  -19.4420   19.2170 C   0  0  0  0  0  2  0  0  0  0  0  0
  -29.7060  -19.0200   21.5910 C   0  0  0  0  0  2  0  0  0  0  0  0
  -29.5340  -20.8950   19.3330 C   0  0  0  0  0  2  0  0  0  0  0  0
  -29.1580  -20.4820   21.7430 C   0  0  0  0  0  2  0  0  0  0  0  0
  -29.4230  -18.4480   20.1910 C   0  0  0  0  0  3  0  0  0  0  0  0
  -29.5990  -21.4840   20.7090 N   0  0  2  0  0  4  0  0  0  0  0  0
  -30.5710  -21.6780   20.9000 H   0  0  0  0  0  0  0  0  0  0  0  0
  -29.6710  -16.5910   18.4330 C   0  0  0  0  0  1  0  0  0  0  0  0
  -29.5240  -16.8670   19.9450 C   0  0  0  0  0  3  0  0  0  0  0  0
  -31.0710  -14.8620   20.4280 C   0  0  0  0  0  0  0  0  0  0  0  0
  -30.8170  -12.6230   19.3790 C   0  0  0  0  0  2  0  0  0  0  0  0
  -29.9120  -12.6860   18.1330 C   0  0  0  0  0  2  0  0  0  0  0  0
  -28.4280  -12.5520   18.5290 C   0  0  0  0  0  2  0  0  0  0  0  0
  -28.0290  -13.4390   19.7410 C   0  0  0  0  0  3  0  0  0  0  0  0
  -29.0670  -13.3670   20.8810 C   0  0  0  0  0  2  0  0  0  0  0  0
  -30.3800  -13.6850   20.3080 N   0  0  0  0  0  0  0  0  0  0  0  0
  -32.2590  -14.9320   20.1170 O   0  0  0  0  0  0  0  0  0  0  0  0
  -30.4270  -16.0160   20.7890 N   0  0  0  0  0  0  0  0  0  0  0  0
  -31.0690  -16.6090   21.2960 H   0  0  0  0  0  0  0  0  0  0  0  0
  -25.6190  -14.0160   20.4100 C   0  0  0  0  0  0  0  0  0  0  0  0
  -24.5530  -13.2330   20.7620 C   0  0  0  0  0  0  0  0  0  0  0  0
  -25.0350  -11.8870   20.7580 C   0  0  0  0  0  0  0  0  0  0  0  0
  -26.6790  -13.1460   20.2090 N   0  0  0  0  0  0  0  0  0  0  0  0
  -26.3330  -11.8620   20.4820 N   0  0  0  0  0  0  0  0  0  0  0  0
  -24.3220  -10.6180   20.9410 C   0  0  0  0  0  0  0  0  0  0  0  0
  -24.7050   -9.6920   21.9360 C   0  0  0  0  0  3  0  0  0  0  0  0
  -23.9900   -8.4870   22.1050 C   0  0  0  0  0  3  0  0  0  0  0  0
  -22.8790   -8.1980   21.2780 C   0  0  0  0  0  0  0  0  0  0  0  0
  -22.5170   -9.1120   20.2730 C   0  0  0  0  0  3  0  0  0  0  0  0
  -23.2320  -10.3090   20.1020 C   0  0  0  0  0  3  0  0  0  0  0  0
  -22.1420   -7.0400   21.3520 O   0  0  0  0  0  0  0  0  0  0  0  0
  -21.9720   -6.3710   22.5370 C   0  0  0  0  0  0  0  0  0  0  0  0
  -21.3280   -6.9670   23.6440 C   0  0  0  0  0  3  0  0  0  0  0  0
  -21.1130   -6.2190   24.8190 C   0  0  0  0  0  3  0  0  0  0  0  0
  -21.5320   -4.8770   24.8860 C   0  0  0  0  0  0  0  0  0  0  0  0
  -22.1680   -4.2810   23.7840 C   0  0  0  0  0  3  0  0  0  0  0  0
  -22.3850   -5.0250   22.6110 C   0  0  0  0  0  0  0  0  0  0  0  0
  -22.9800   -4.4400   21.5440 F   0  0  0  0  0  0  0  0  0  0  0  0
  -21.3180   -4.1560   26.0120 F   0  0  0  0  0  0  0  0  0  0  0  0
  -23.1440  -13.6940   20.9920 C   0  0  0  0  0  0  0  0  0  0  0  0
  -22.4040  -12.9990   21.8480 N   0  0  0  0  0  0  0  0  0  0  0  0
  -22.7050  -14.7060   20.4470 O   0  0  0  0  0  0  0  0  0  0  0  0
  -22.7710  -12.1810   22.3130 H   0  0  0  0  0  0  0  0  0  0  0  0
  -21.4570  -13.2910   22.0440 H   0  0  0  0  0  0  0  0  0  0  0  0
  -25.7660  -15.3850   20.2160 N   0  0  0  0  0  0  0  0  0  0  0  0
  -24.9830  -16.0250   20.2850 H   0  0  0  0  0  0  0  0  0  0  0  0
  -26.6110  -15.8270   19.8790 H   0  0  0  0  0  0  0  0  0  0  0  0
  -28.8390  -22.7940   20.8830 C   0  0  0  0  0  2  0  0  0  0  0  0
  -29.3650  -24.1520   20.2540 C   0  0  0  0  0  2  0  0  0  0  0  0
  -28.4920  -25.4010   20.6920 C   0  0  0  0  0  2  0  0  0  0  0  0
  -28.6950  -26.7370   20.1020 O   0  0  0  0  0  0  0  0  0  0  0  0
  -24.6570  -31.8210   23.2080 C   0  0  0  0  0  0  0  0  0  0  0  0
  -27.5510  -27.5370   20.0560 C   0  0  0  0  0  0  0  0  0  0  0  0
  -23.5530  -30.4190   21.4990 C   0  0  0  0  0  3  0  0  0  0  0  0
  -25.1060  -29.0030   20.0480 C   0  0  0  0  0  0  0  0  0  0  0  0
  -26.0720  -30.8830   21.3720 C   0  0  0  0  0  2  0  0  0  0  0  0
  -26.2350  -29.5370   20.6840 C   0  0  0  0  0  0  0  0  0  0  0  0
  -27.4620  -28.8140   20.6830 C   0  0  0  0  0  3  0  0  0  0  0  0
  -26.4070  -27.0620   19.3760 C   0  0  0  0  0  3  0  0  0  0  0  0
  -25.1940  -27.7710   19.3840 C   0  0  0  0  0  3  0  0  0  0  0  0
  -23.8240  -29.8050   20.1020 C   0  0  0  0  0  2  0  0  0  0  0  0
  -24.7780  -31.0560   22.0850 N   0  0  0  0  0  0  0  0  0  0  0  0
  -23.5520  -32.0230   23.7320 O   0  0  0  0  0  0  0  0  0  0  0  0
  -22.9320  -29.3360   22.4130 C   0  0  0  0  0  0  0  0  0  0  0  0
  -21.6160  -29.1040   22.2650 N   0  0  0  0  0  0  0  0  0  0  0  0
  -23.6310  -28.7090   23.2110 O   0  0  0  0  0  0  0  0  0  0  0  0
  -21.1080  -29.6660   21.5960 H   0  0  0  0  0  0  0  0  0  0  0  0
  -18.2800  -27.7860   22.7250 C   0  0  0  0  0  0  0  0  0  0  0  0
  -20.8320  -28.1050   22.9920 C   0  0  0  0  0  3  0  0  0  0  0  0
  -20.9710  -26.7090   22.3420 C   0  0  0  0  0  2  0  0  0  0  0  0
  -19.8710  -26.4070   21.3200 C   0  0  0  0  0  2  0  0  0  0  0  0
  -18.4900  -26.4780   21.9800 C   0  0  0  0  0  2  0  0  0  0  0  0
  -19.3800  -28.5560   23.1860 C   0  0  0  0  0  0  0  0  0  0  0  0
  -19.1300  -29.7810   23.8430 C   0  0  0  0  0  3  0  0  0  0  0  0
  -17.8130  -30.2360   24.0430 C   0  0  0  0  0  3  0  0  0  0  0  0
  -16.7270  -29.4610   23.5970 C   0  0  0  0  0  3  0  0  0  0  0  0
  -16.9620  -28.2370   22.9440 C   0  0  0  0  0  3  0  0  0  0  0  0
  -25.8960  -32.4960   23.8720 C   0  0  0  0  0  3  0  0  0  0  0  0
  -26.4030  -31.7340   25.1590 C   0  0  1  0  0  0  0  0  0  0  0  0
  -25.2870  -31.4430   26.1890 C   0  0  0  0  0  1  0  0  0  0  0  0
  -27.0530  -30.3850   24.7740 C   0  0  0  0  0  1  0  0  0  0  0  0
  -27.5000  -32.5680   25.8630 C   0  0  0  0  0  1  0  0  0  0  0  0
  -25.5260  -33.8790   24.2020 N   0  0  0  0  0  0  0  0  0  0  0  0
  -25.8150  -34.9460   23.4460 C   0  0  0  0  0  0  0  0  0  0  0  0
  -26.4950  -34.8730   22.4180 O   0  0  0  0  0  0  0  0  0  0  0  0
  -24.9210  -34.0070   25.0000 H   0  0  0  0  0  0  0  0  0  0  0  0
  -24.0140  -36.6630   23.0820 C   0  0  0  0  0  1  0  0  0  0  0  0
  -25.2650  -36.3110   23.9010 C   0  0  0  0  0  3  0  0  0  0  0  0
  -27.3440  -37.2960   24.7610 C   0  0  0  0  0  1  0  0  0  0  0  0
  -26.2520  -37.4080   23.7970 N   0  0  0  0  0  0  0  0  0  0  0  0
  -25.8030  -38.3100   23.9300 H   0  0  0  0  0  0  0  0  0  0  0  0
  1  3  1  0
  1  5  1  0
  2  4  1  0
  3  6  1  0
  5  9  1  0
  5  2  1  0
  6 48  1  0
  6  7  1  1
  6  4  1  0
  9  8  1  0
  9 18  1  0
 10 18  1  0
 11 16  1  0
 12 13  1  0
 12 11  1  0
 14 13  1  0
 14 23  1  0
 14 15  1  0
 16 10  1  0
 16 15  1  0
 17 10  2  0
 18 19  1  0
 20 21  2  0
 21 40  1  0
 22 21  1  0
 22 25  1  0
 23 20  1  0
 23 24  1  0
 24 22  2  0
 25 26  1  0
 26 27  2  0
 28 31  1  0
 28 27  1  0
 29 28  2  0
 30 29  1  0
 30 25  2  0
 31 32  1  0
 32 37  2  0
 32 33  1  0
 33 34  2  0
 34 35  1  0
 35 39  1  0
 36 35  2  0
 37 36  1  0
 38 37  1  0
 40 41  1  0
 41 44  1  0
 41 43  1  0
 42 40  2  0
 45 46  1  0
 45 20  1  0
 47 45  1  0
 49 50  1  0
 49 48  1  0
 51 50  1  0
 52 63  2  0
 53 51  1  0
 53 58  1  0
 54 62  1  0
 54 64  1  0
 55 61  1  0
 55 57  1  0
 56 62  1  0
 57 56  1  0
 58 57  2  0
 59 60  1  0
 59 53  2  0
 60 55  2  0
 61 54  1  0
 62 52  1  0
 64 66  2  0
 65 64  1  0
 67 65  1  0
 68 77  2  0
 68 73  1  0
 69 65  1  0
 69 73  1  0
 70 69  1  0
 71 72  1  0
 71 70  1  0
 72 68  1  0
 73 74  2  0
 74 75  1  0
 76 75  2  0
 77 76  1  0
 78 52  1  0
 78 83  1  0
 78 79  1  0
 79 82  1  1
 79 80  1  0
 81 79  1  0
 83 86  1  0
 84 88  1  0
 84 83  1  0
 85 84  2  0
 88 87  1  0
 90 88  1  0
 90 91  1  0
 90 89  1  0
M  ISO  4  10 100  18 100  50 101  51 101
M  END
>  <TORSDO>  (23) 
F 20

>  <SCORE>  (23) 
-12.217

>  <name>  (23) 
22

>  <ligand_id>  (23) 
22

>  <original_smiles>  (23) 
[H]c1c([H])c([H])c2c(c1[H])C([H])([H])C([H])([H])C([H])([H])C2([H])N([H])C(=O)C1([H])N(C(=O)C([H])(N([H])C(=O)C([H])(N([H])C([H])([H])[H])C([H])([H])[H])C(C([H])([H])[H])(C([H])([H])[H])C([H])([H])[H])C([H])([H])c2c([H])c(OC([H])([H])C([H])([H])C([H])([H])[N+]3([H])C([H])([H])C([H])([H])C([H])(C([H])(N([H])C(=O)N4C([H])([H])C([H])([H])C([H])([H])C([H])(n5nc(-c6c([H])c([H])c(Oc7c([H])c([H])c(F)c([H])c7F)c([H])c6[H])c(C(=O)N([H])[H])c5N([H])[H])C4([H])[H])C([H])([H])[H])C([H])([H])C3([H])[H])c([H])c([H])c2C1([H])[H]

>  <smiles>  (23) 
[H]c1c([H])c([H])c2c(c1[H])C([H])([H])C([H])([H])C([H])([H])C2([H])N([H])C(=O)C1([H])N(C(=O)C([H])(N([H])C(=O)C([H])(N([H])C([H])([H])[H])C([H])([H])[H])C(C([H])([H])[H])(C([H])([H])[H])C([H])([H])[H])C([H])([H])c2c([H])c(OC([H])([H])C([H])([H])C([H])([H])[N+]3([H])C([H])([H])C([H])([H])C([H])(C([H])(N([H])C(=O)N4C([H])([H])C([H])([H])C([H])([H])C([H])(n5nc(-c6c([H])c([H])c(Oc7c([H])c([H])c(F)c([H])c7F)c([H])c6[H])c(C(=O)N([H])[H])c5N([H])[H])C4([H])[H])C([H])([H])[H])C([H])([H])C3([H])[H])c([H])c([H])c2C1([H])[H]

$$$$
23:0:0
     RDKit          3D

 94103  0  0  1  0  0  0  0  0999 V2000
  -28.7750  -19.9130   20.8280 C   0  0  0  0  0  2  0  0  0  0  0  0
  -28.9860  -21.4440   20.9130 C   0  0  0  0  0  2  0  0  0  0  0  0
  -29.3800  -21.1260   18.4760 C   0  0  0  0  0  2  0  0  0  0  0  0
  -29.9730  -19.2110   20.1460 C   0  0  0  0  0  3  0  0  0  0  0  0
  -30.4450  -20.0910   18.9240 C   0  0  0  0  0  3  0  0  0  0  0  0
  -31.0770  -19.4120   17.7030 C   0  0  0  0  0  1  0  0  0  0  0  0
  -29.0630  -22.0880   19.5650 N   0  0  1  0  0  4  0  0  0  0  0  0
  -29.8590  -22.7090   19.6010 H   0  0  0  0  0  0  0  0  0  0  0  0
  -30.8860  -14.7020   21.0650 C   0  0  0  0  0  0  0  0  0  0  0  0
  -30.7500  -12.3850   20.2760 C   0  0  0  0  0  2  0  0  0  0  0  0
  -29.9640  -12.3730   18.9490 C   0  0  0  0  0  2  0  0  0  0  0  0
  -28.4570  -12.2530   19.2220 C   0  0  0  0  0  2  0  0  0  0  0  0
  -27.9440  -13.2710   20.2740 C   0  0  0  0  0  3  0  0  0  0  0  0
  -28.8560  -13.2940   21.5220 C   0  0  0  0  0  2  0  0  0  0  0  0
  -30.2360  -13.5110   21.0670 N   0  0  0  0  0  0  0  0  0  0  0  0
  -32.1130  -14.7880   21.0380 O   0  0  0  0  0  0  0  0  0  0  0  0
  -29.5940  -16.8340   21.2760 C   0  0  0  0  0  2  0  0  0  0  0  0
  -29.6850  -17.6860   19.9960 C   0  0  0  0  0  3  0  0  0  0  0  0
  -30.7180  -16.6570   19.5320 C   0  0  0  0  0  3  0  0  0  0  0  0
  -30.1540  -15.7090   20.5200 N   0  0  0  0  0  0  0  0  0  0  0  0
  -25.4820  -13.9010   20.6890 C   0  0  0  0  0  0  0  0  0  0  0  0
  -24.3750  -13.1330   20.9460 C   0  0  0  0  0  0  0  0  0  0  0  0
  -24.8410  -11.7850   21.0280 C   0  0  0  0  0  0  0  0  0  0  0  0
  -26.5460  -13.0160   20.6150 N   0  0  0  0  0  0  0  0  0  0  0  0
  -26.1590  -11.7440   20.8890 N   0  0  0  0  0  0  0  0  0  0  0  0
  -24.1040  -10.5240   21.1820 C   0  0  0  0  0  0  0  0  0  0  0  0
  -24.4640   -9.5720   22.1620 C   0  0  0  0  0  3  0  0  0  0  0  0
  -23.7270   -8.3770   22.3040 C   0  0  0  0  0  3  0  0  0  0  0  0
  -22.6180   -8.1230   21.4640 C   0  0  0  0  0  0  0  0  0  0  0  0
  -22.2770   -9.0620   20.4760 C   0  0  0  0  0  3  0  0  0  0  0  0
  -23.0130  -10.2510   20.3320 C   0  0  0  0  0  3  0  0  0  0  0  0
  -21.8660   -6.9740   21.5080 O   0  0  0  0  0  0  0  0  0  0  0  0
  -21.7400   -6.2390   22.6590 C   0  0  0  0  0  0  0  0  0  0  0  0
  -21.1940   -6.7930   23.8370 C   0  0  0  0  0  3  0  0  0  0  0  0
  -21.0140   -5.9840   24.9770 C   0  0  0  0  0  3  0  0  0  0  0  0
  -21.3760   -4.6240   24.9410 C   0  0  0  0  0  0  0  0  0  0  0  0
  -21.9190   -4.0720   23.7690 C   0  0  0  0  0  3  0  0  0  0  0  0
  -22.0940   -4.8750   22.6290 C   0  0  0  0  0  0  0  0  0  0  0  0
  -22.5980   -4.3320   21.4940 F   0  0  0  0  0  0  0  0  0  0  0  0
  -21.1970   -3.8460   26.0330 F   0  0  0  0  0  0  0  0  0  0  0  0
  -22.9540  -13.6060   21.0280 C   0  0  0  0  0  0  0  0  0  0  0  0
  -22.1470  -12.9600   21.8630 N   0  0  0  0  0  0  0  0  0  0  0  0
  -22.5640  -14.5800   20.3880 O   0  0  0  0  0  0  0  0  0  0  0  0
  -22.4810  -12.1720   22.3980 H   0  0  0  0  0  0  0  0  0  0  0  0
  -21.1900  -13.2630   21.9750 H   0  0  0  0  0  0  0  0  0  0  0  0
  -25.6630  -15.2670   20.4990 N   0  0  0  0  0  0  0  0  0  0  0  0
  -24.9030  -15.9320   20.5830 H   0  0  0  0  0  0  0  0  0  0  0  0
  -26.5620  -15.7160   20.3740 H   0  0  0  0  0  0  0  0  0  0  0  0
  -31.9410  -15.3820   17.6610 C   0  0  0  0  0  1  0  0  0  0  0  0
  -30.6400  -16.0600   18.1170 C   0  0  0  0  0  2  0  0  0  0  0  0
  -27.8940  -22.9560   19.2450 C   0  0  0  0  0  2  0  0  0  0  0  0
  -27.8660  -24.2800   20.0500 C   0  0  0  0  0  2  0  0  0  0  0  0
  -28.4550  -25.4970   19.2910 C   0  0  0  0  0  2  0  0  0  0  0  0
  -28.3630  -26.7270   20.0270 O   0  0  0  0  0  0  0  0  0  0  0  0
  -24.5090  -31.8060   23.2050 C   0  0  0  0  0  0  0  0  0  0  0  0
  -27.1740  -27.4320   20.0300 C   0  0  0  0  0  0  0  0  0  0  0  0
  -23.3220  -30.4690   21.4950 C   0  0  0  0  0  3  0  0  0  0  0  0
  -24.7890  -28.9560   20.0630 C   0  0  0  0  0  0  0  0  0  0  0  0
  -25.8560  -30.8090   21.3520 C   0  0  0  0  0  2  0  0  0  0  0  0
  -25.9420  -29.4500   20.6890 C   0  0  0  0  0  0  0  0  0  0  0  0
  -27.1320  -28.6900   20.6790 C   0  0  0  0  0  3  0  0  0  0  0  0
  -25.9910  -26.9490   19.4210 C   0  0  0  0  0  3  0  0  0  0  0  0
  -24.8060  -27.6990   19.4370 C   0  0  0  0  0  3  0  0  0  0  0  0
  -23.5610  -29.8330   20.1000 C   0  0  0  0  0  2  0  0  0  0  0  0
  -24.5810  -31.0420   22.0770 N   0  0  0  0  0  0  0  0  0  0  0  0
  -23.4200  -32.0630   23.7380 O   0  0  0  0  0  0  0  0  0  0  0  0
  -22.6490  -29.4210   22.4140 C   0  0  0  0  0  0  0  0  0  0  0  0
  -21.3180  -29.2810   22.2980 N   0  0  0  0  0  0  0  0  0  0  0  0
  -23.3240  -28.7360   23.1890 O   0  0  0  0  0  0  0  0  0  0  0  0
  -20.8320  -29.8870   21.6510 H   0  0  0  0  0  0  0  0  0  0  0  0
  -17.9190  -28.1840   22.8100 C   0  0  0  0  0  0  0  0  0  0  0  0
  -20.4880  -28.3290   23.0360 C   0  0  0  0  0  3  0  0  0  0  0  0
  -20.5210  -26.9310   22.3730 C   0  0  0  0  0  2  0  0  0  0  0  0
  -19.3870  -26.7090   21.3690 C   0  0  0  0  0  2  0  0  0  0  0  0
  -18.0270  -26.8700   22.0530 C   0  0  0  0  0  2  0  0  0  0  0  0
  -19.0740  -28.8750   23.2620 C   0  0  0  0  0  0  0  0  0  0  0  0
  -18.9180  -30.1090   23.9310 C   0  0  0  0  0  3  0  0  0  0  0  0
  -17.6380  -30.6500   24.1520 C   0  0  0  0  0  3  0  0  0  0  0  0
  -16.4970  -29.9530   23.7200 C   0  0  0  0  0  3  0  0  0  0  0  0
  -16.6370  -28.7200   23.0570 C   0  0  0  0  0  3  0  0  0  0  0  0
  -25.7870  -32.4150   23.8610 C   0  0  0  0  0  3  0  0  0  0  0  0
  -26.2450  -31.6380   25.1540 C   0  0  1  0  0  0  0  0  0  0  0  0
  -25.1200  -31.4390   26.1980 C   0  0  0  0  0  1  0  0  0  0  0  0
  -26.7930  -30.2420   24.7810 C   0  0  0  0  0  1  0  0  0  0  0  0
  -27.4120  -32.3910   25.8360 C   0  0  0  0  0  1  0  0  0  0  0  0
  -25.4970  -33.8190   24.1760 N   0  0  0  0  0  0  0  0  0  0  0  0
  -25.8680  -34.8590   23.4170 C   0  0  0  0  0  0  0  0  0  0  0  0
  -26.5590  -34.7340   22.4030 O   0  0  0  0  0  0  0  0  0  0  0  0
  -24.8840  -33.9910   24.9580 H   0  0  0  0  0  0  0  0  0  0  0  0
  -24.1930  -36.6890   22.9990 C   0  0  0  0  0  1  0  0  0  0  0  0
  -25.3950  -36.2590   23.8530 C   0  0  0  0  0  3  0  0  0  0  0  0
  -27.5130  -37.1120   24.7540 C   0  0  0  0  0  1  0  0  0  0  0  0
  -26.4520  -37.2880   23.7680 N   0  0  0  0  0  0  0  0  0  0  0  0
  -26.0600  -38.2190   23.8850 H   0  0  0  0  0  0  0  0  0  0  0  0
  1  2  1  0
  3  5  1  0
  3  7  1  0
  4  1  1  0
  5  6  1  0
  5  4  1  0
  7  8  1  1
  7  2  1  0
  9 15  1  0
 10 15  1  0
 11 12  1  0
 11 10  1  0
 13 12  1  0
 13 24  1  0
 13 14  1  0
 15 14  1  0
 16  9  2  0
 18  4  1  0
 18 17  1  0
 19 50  1  0
 19 18  1  0
 19 20  1  0
 20  9  1  0
 20 17  1  0
 21 22  2  0
 22 41  1  0
 22 23  1  0
 23 26  1  0
 24 21  1  0
 24 25  1  0
 25 23  2  0
 26 27  1  0
 27 28  2  0
 29 32  1  0
 29 28  1  0
 30 29  2  0
 31 30  1  0
 31 26  2  0
 32 33  1  0
 33 34  1  0
 34 35  2  0
 36 35  1  0
 36 40  1  0
 37 36  2  0
 38 33  2  0
 38 37  1  0
 39 38  1  0
 41 42  1  0
 42 45  1  0
 42 44  1  0
 43 41  2  0
 46 47  1  0
 46 21  1  0
 48 46  1  0
 49 50  1  0
 51  7  1  0
 51 52  1  0
 53 54  1  0
 53 52  1  0
 54 56  1  0
 55 66  2  0
 56 61  1  0
 57 65  1  0
 57 67  1  0
 58 64  1  0
 58 60  1  0
 59 65  1  0
 60 59  1  0
 61 60  2  0
 62 63  1  0
 62 56  2  0
 63 58  2  0
 64 57  1  0
 65 55  1  0
 67 69  2  0
 68 67  1  0
 70 68  1  0
 71 80  2  0
 71 76  1  0
 72 68  1  0
 72 76  1  0
 73 72  1  0
 74 75  1  0
 74 73  1  0
 75 71  1  0
 76 77  2  0
 77 78  1  0
 79 78  2  0
 80 79  1  0
 81 55  1  0
 81 86  1  0
 81 82  1  0
 82 85  1  1
 82 83  1  0
 84 82  1  0
 86 89  1  0
 87 91  1  0
 87 86  1  0
 88 87  2  0
 91 90  1  0
 93 91  1  0
 93 94  1  0
 93 92  1  0
M  ISO  4   9 100  20 100  53 101  54 101
M  END
>  <TORSDO>  (24) 
F 20

>  <SCORE>  (24) 
-13.189

>  <name>  (24) 
23

>  <ligand_id>  (24) 
23

>  <original_smiles>  (24) 
[H]c1c([H])c([H])c2c(c1[H])C([H])([H])C([H])([H])C([H])([H])C2([H])N([H])C(=O)C1([H])N(C(=O)C([H])(N([H])C(=O)C([H])(N([H])C([H])([H])[H])C([H])([H])[H])C(C([H])([H])[H])(C([H])([H])[H])C([H])([H])[H])C([H])([H])c2c([H])c(OC([H])([H])C([H])([H])C([H])([H])[N+]3([H])C([H])([H])C([H])([H])C([H])(C4([H])C([H])([H])N(C(=O)N5C([H])([H])C([H])([H])C([H])([H])C([H])(n6nc(-c7c([H])c([H])c(Oc8c([H])c([H])c(F)c([H])c8F)c([H])c7[H])c(C(=O)N([H])[H])c6N([H])[H])C5([H])[H])C4([H])C([H])([H])C([H])([H])[H])C([H])(C([H])([H])[H])C3([H])[H])c([H])c([H])c2C1([H])[H]

>  <smiles>  (24) 
[H]c1c([H])c([H])c2c(c1[H])C([H])([H])C([H])([H])C([H])([H])C2([H])N([H])C(=O)C1([H])N(C(=O)C([H])(N([H])C(=O)C([H])(N([H])C([H])([H])[H])C([H])([H])[H])C(C([H])([H])[H])(C([H])([H])[H])C([H])([H])[H])C([H])([H])c2c([H])c(OC([H])([H])C([H])([H])C([H])([H])[N+]3([H])C([H])([H])C([H])([H])C([H])(C4([H])C([H])([H])N(C(=O)N5C([H])([H])C([H])([H])C([H])([H])C([H])(n6nc(-c7c([H])c([H])c(Oc8c([H])c([H])c(F)c([H])c8F)c([H])c7[H])c(C(=O)N([H])[H])c6N([H])[H])C5([H])[H])C4([H])C([H])([H])C([H])([H])[H])C([H])(C([H])([H])[H])C3([H])[H])c([H])c([H])c2C1([H])[H]

$$$$
25:0:0
     RDKit          3D

 94102  0  0  1  0  0  0  0  0999 V2000
  -30.3190  -20.8100   20.2870 C   0  0  0  0  0  2  0  0  0  0  0  0
  -30.9590  -20.4970   22.4460 C   0  0  0  0  0  2  0  0  0  0  0  0
  -30.5570  -19.5070   21.2520 C   0  0  0  0  0  3  0  0  0  0  0  0
  -29.6230  -22.0900   21.1130 C   0  0  0  0  0  3  0  0  0  0  0  0
  -29.7830  -21.4790   22.5850 C   0  0  0  0  0  3  0  0  0  0  0  0
  -29.8950  -23.7230   20.7710 C   0  0  0  0  0  3  0  0  0  0  0  0
  -28.7610  -24.7860   20.1230 C   0  0  0  0  0  3  0  0  0  0  0  0
  -28.8870  -26.2850   19.7490 O   0  0  0  0  0  0  0  0  0  0  0  0
  -24.7680  -31.4230   22.7740 C   0  0  0  0  0  0  0  0  0  0  0  0
  -27.7430  -27.1430   19.5940 C   0  0  0  0  0  0  0  0  0  0  0  0
  -23.6700  -29.9660   21.1150 C   0  0  0  0  0  3  0  0  0  0  0  0
  -25.2360  -28.6180   19.5750 C   0  0  0  0  0  0  0  0  0  0  0  0
  -26.1590  -30.5340   20.8720 C   0  0  0  0  0  2  0  0  0  0  0  0
  -26.3660  -29.1790   20.1820 C   0  0  0  0  0  0  0  0  0  0  0  0
  -27.6160  -28.4620   20.1710 C   0  0  0  0  0  3  0  0  0  0  0  0
  -26.5920  -26.6790   18.9170 C   0  0  0  0  0  3  0  0  0  0  0  0
  -25.3640  -27.3850   18.9110 C   0  0  0  0  0  3  0  0  0  0  0  0
  -23.9140  -29.3640   19.7030 C   0  0  0  0  0  2  0  0  0  0  0  0
  -24.8840  -30.6640   21.6430 N   0  0  0  0  0  0  0  0  0  0  0  0
  -23.6800  -31.5590   23.3550 O   0  0  0  0  0  0  0  0  0  0  0  0
  -23.1500  -28.8520   22.0590 C   0  0  0  0  0  0  0  0  0  0  0  0
  -21.8590  -28.4940   21.9340 N   0  0  0  0  0  0  0  0  0  0  0  0
  -23.9100  -28.3050   22.8650 O   0  0  0  0  0  0  0  0  0  0  0  0
  -21.2920  -28.9940   21.2610 H   0  0  0  0  0  0  0  0  0  0  0  0
  -18.7070  -26.7630   22.3610 C   0  0  0  0  0  0  0  0  0  0  0  0
  -21.1810  -27.4340   22.6880 C   0  0  0  0  0  3  0  0  0  0  0  0
  -21.5290  -26.0410   22.1150 C   0  0  0  0  0  2  0  0  0  0  0  0
  -20.5170  -25.5480   21.0780 C   0  0  0  0  0  2  0  0  0  0  0  0
  -19.1160  -25.4640   21.6910 C   0  0  0  0  0  2  0  0  0  0  0  0
  -19.6740  -27.6970   22.8160 C   0  0  0  0  0  0  0  0  0  0  0  0
  -19.2410  -28.9070   23.4040 C   0  0  0  0  0  3  0  0  0  0  0  0
  -17.8690  -29.1830   23.5440 C   0  0  0  0  0  3  0  0  0  0  0  0
  -16.9140  -28.2500   23.1020 C   0  0  0  0  0  3  0  0  0  0  0  0
  -17.3350  -27.0410   22.5190 C   0  0  0  0  0  3  0  0  0  0  0  0
  -25.9900  -32.1760   23.3840 C   0  0  0  0  0  3  0  0  0  0  0  0
  -25.5180  -33.4800   23.8730 N   0  0  0  0  0  0  0  0  0  0  0  0
  -25.7430  -34.6520   23.2610 C   0  0  0  0  0  0  0  0  0  0  0  0
  -26.4390  -34.7540   22.2470 O   0  0  0  0  0  0  0  0  0  0  0  0
  -24.9000  -33.4680   24.6720 H   0  0  0  0  0  0  0  0  0  0  0  0
  -23.8550  -36.3050   23.0580 C   0  0  0  0  0  1  0  0  0  0  0  0
  -25.0970  -35.9110   23.8730 C   0  0  0  0  0  3  0  0  0  0  0  0
  -27.1000  -36.8750   24.9200 C   0  0  0  0  0  1  0  0  0  0  0  0
  -26.0190  -37.0680   23.9560 N   0  0  0  0  0  0  0  0  0  0  0  0
  -25.5150  -37.9130   24.2110 H   0  0  0  0  0  0  0  0  0  0  0  0
  -26.6920  -31.3760   24.5490 C   0  0  1  0  0  0  0  0  0  0  0  0
  -25.7210  -30.8900   25.6510 C   0  0  0  0  0  1  0  0  0  0  0  0
  -27.4290  -30.1370   23.9910 C   0  0  0  0  0  1  0  0  0  0  0  0
  -27.7690  -32.2640   25.2230 C   0  0  0  0  0  1  0  0  0  0  0  0
  -29.7660  -22.2630   23.9530 C   0  0  0  0  0  2  0  0  0  0  0  0
  -29.8370  -21.3890   25.1740 N   0  0  0  0  0  4  0  0  0  0  0  0
  -29.0260  -20.7990   25.2720 H   0  0  0  0  0  0  0  0  0  0  0  0
  -29.8890  -21.9610   26.0010 H   0  0  0  0  0  0  0  0  0  0  0  0
  -30.6470  -20.7870   25.2030 H   0  0  0  0  0  0  0  0  0  0  0  0
  -31.2780  -17.9220   21.1150 C   0  0  0  0  0  3  0  0  0  0  0  0
  -31.6550  -15.4920   19.6240 C   0  0  0  0  0  0  0  0  0  0  0  0
  -31.2510  -13.2310   18.4370 C   0  0  0  0  0  2  0  0  0  0  0  0
  -30.0900  -13.0920   17.3860 C   0  0  0  0  0  2  0  0  0  0  0  0
  -28.7760  -12.8060   18.1160 C   0  0  0  0  0  2  0  0  0  0  0  0
  -28.5080  -13.8770   19.1810 C   0  0  0  0  0  3  0  0  0  0  0  0
  -29.7120  -13.8840   20.1720 C   0  0  0  0  0  2  0  0  0  0  0  0
  -30.9160  -14.3160   19.4300 N   0  0  0  0  0  0  0  0  0  0  0  0
  -32.8260  -15.4280   19.1610 O   0  0  0  0  0  0  0  0  0  0  0  0
  -31.1030  -16.7950   19.9590 N   0  0  0  0  0  0  0  0  0  0  0  0
  -31.0620  -17.3160   19.0690 H   0  0  0  0  0  0  0  0  0  0  0  0
  -26.3650  -14.6160   20.3820 C   0  0  0  0  0  0  0  0  0  0  0  0
  -25.2700  -13.9100   20.7990 C   0  0  0  0  0  0  0  0  0  0  0  0
  -25.5300  -12.5480   20.4850 C   0  0  0  0  0  0  0  0  0  0  0  0
  -27.2220  -13.6780   19.8330 N   0  0  0  0  0  0  0  0  0  0  0  0
  -26.7230  -12.4260   19.9510 N   0  0  0  0  0  0  0  0  0  0  0  0
  -24.6940  -11.3550   20.6340 C   0  0  0  0  0  0  0  0  0  0  0  0
  -25.0710  -10.2570   21.4450 C   0  0  0  0  0  3  0  0  0  0  0  0
  -24.2170   -9.1240   21.5740 C   0  0  0  0  0  3  0  0  0  0  0  0
  -22.9740   -9.0900   20.9080 C   0  0  0  0  0  0  0  0  0  0  0  0
  -22.6130  -10.1730   20.0940 C   0  0  0  0  0  3  0  0  0  0  0  0
  -23.4630  -11.2990   19.9580 C   0  0  0  0  0  3  0  0  0  0  0  0
  -22.1060   -8.0330   20.9350 O   0  0  0  0  0  0  0  0  0  0  0  0
  -21.9560   -7.2710   22.0690 C   0  0  0  0  0  0  0  0  0  0  0  0
  -21.5660   -7.8400   23.3000 C   0  0  0  0  0  3  0  0  0  0  0  0
  -21.3520   -7.0190   24.4200 C   0  0  0  0  0  3  0  0  0  0  0  0
  -21.5110   -5.6250   24.3150 C   0  0  0  0  0  0  0  0  0  0  0  0
  -21.8850   -5.0510   23.0860 C   0  0  0  0  0  3  0  0  0  0  0  0
  -22.0930   -5.8740   21.9590 C   0  0  0  0  0  0  0  0  0  0  0  0
  -22.4380   -5.3120   20.7800 F   0  0  0  0  0  0  0  0  0  0  0  0
  -21.2860   -4.8260   25.3930 F   0  0  0  0  0  0  0  0  0  0  0  0
  -24.0040  -14.4820   21.3730 C   0  0  0  0  0  0  0  0  0  0  0  0
  -23.3710  -13.7700   22.3080 N   0  0  0  0  0  0  0  0  0  0  0  0
  -23.6050  -15.6070   21.0590 O   0  0  0  0  0  0  0  0  0  0  0  0
  -23.7120  -12.8550   22.6070 H   0  0  0  0  0  0  0  0  0  0  0  0
  -22.5410  -14.1650   22.7420 H   0  0  0  0  0  0  0  0  0  0  0  0
  -26.6450  -15.9800   20.3620 N   0  0  0  0  0  0  0  0  0  0  0  0
  -25.8430  -16.6090   20.5000 H   0  0  0  0  0  0  0  0  0  0  0  0
  -27.3990  -16.3870   19.8440 H   0  0  0  0  0  0  0  0  0  0  0  0
  -31.0570  -16.0590   23.1520 C   0  0  0  0  0  1  0  0  0  0  0  0
  -30.6160  -17.3030   22.3920 C   0  0  0  0  0  2  0  0  0  0  0  0
  1  4  1  0
  1  3  1  0
  2  5  1  0
  3 54  1  0
  3  2  1  0
  4  6  1  0
  4  5  1  0
  5 49  1  0
  7  6  2  0
  8  7  1  0
  9 20  2  0
 10  8  1  0
 10 15  1  0
 11 19  1  0
 11 21  1  0
 12 18  1  0
 12 14  1  0
 13 19  1  0
 14 13  1  0
 15 14  2  0
 16 10  2  0
 17 16  1  0
 17 12  2  0
 18 11  1  0
 19  9  1  0
 21 23  2  0
 22 21  1  0
 24 22  1  0
 25 34  2  0
 25 30  1  0
 26 22  1  0
 26 30  1  0
 27 26  1  0
 28 29  1  0
 28 27  1  0
 29 25  1  0
 30 31  2  0
 31 32  1  0
 33 32  2  0
 34 33  1  0
 35  9  1  0
 35 36  1  0
 35 45  1  0
 36 39  1  0
 37 41  1  0
 37 36  1  0
 38 37  2  0
 41 40  1  0
 41 43  1  0
 43 44  1  0
 43 42  1  0
 45 48  1  1
 45 46  1  0
 47 45  1  0
 49 50  1  0
 50 53  1  0
 50 51  1  0
 50 52  1  0
 54 94  1  0
 55 63  1  0
 56 61  1  0
 57 58  1  0
 57 56  1  0
 59 58  1  0
 59 68  1  0
 59 60  1  0
 61 55  1  0
 61 60  1  0
 62 55  2  0
 63 54  1  0
 64 63  1  0
 65 66  2  0
 66 85  1  0
 67 70  1  0
 67 66  1  0
 68 69  1  0
 68 65  1  0
 69 67  2  0
 70 71  1  0
 71 72  2  0
 73 76  1  0
 73 72  1  0
 74 73  2  0
 75 74  1  0
 75 70  2  0
 76 77  1  0
 77 78  1  0
 78 79  2  0
 80 79  1  0
 80 84  1  0
 81 80  2  0
 82 77  2  0
 82 81  1  0
 83 82  1  0
 85 86  1  0
 86 88  1  0
 86 89  1  0
 87 85  2  0
 90 65  1  0
 90 91  1  0
 92 90  1  0
 94 93  1  0
M  ISO  4   7 101   8 101  55 100  63 100
M  END
>  <TORSDO>  (25) 
F 22

>  <SCORE>  (25) 
-8.102

>  <name>  (25) 
25

>  <ligand_id>  (25) 
25

>  <original_smiles>  (25) 
[H]c1c([H])c([H])c2c(c1[H])C([H])([H])C([H])([H])C([H])([H])C2([H])N([H])C(=O)C1([H])N(C(=O)C([H])(N([H])C(=O)C([H])(N([H])C([H])([H])[H])C([H])([H])[H])C(C([H])([H])[H])(C([H])([H])[H])C([H])([H])[H])C([H])([H])c2c([H])c(OC([H])([H])C([H])([H])C3([H])C([H])([H])C([H])(C([H])(N([H])C(=O)N4C([H])([H])C([H])([H])C([H])([H])C([H])(n5nc(-c6c([H])c([H])c(Oc7c([H])c([H])c(F)c([H])c7F)c([H])c6[H])c(C(=O)N([H])[H])c5N([H])[H])C4([H])[H])C([H])([H])C([H])([H])[H])C([H])([H])C3([H])C([H])([H])[N+]([H])([H])[H])c([H])c([H])c2C1([H])[H]

>  <smiles>  (25) 
[H]c1c([H])c([H])c2c(c1[H])C([H])([H])C([H])([H])C([H])([H])C2([H])N([H])C(=O)C1([H])N(C(=O)C([H])(N([H])C(=O)C([H])(N([H])C([H])([H])[H])C([H])([H])[H])C(C([H])([H])[H])(C([H])([H])[H])C([H])([H])[H])C([H])([H])c2c([H])c(OC([H])([H])C([H])([H])C3([H])C([H])([H])C([H])(C([H])(N([H])C(=O)N4C([H])([H])C([H])([H])C([H])([H])C([H])(n5nc(-c6c([H])c([H])c(Oc7c([H])c([H])c(F)c([H])c7F)c([H])c6[H])c(C(=O)N([H])[H])c5N([H])[H])C4([H])[H])C([H])([H])C([H])([H])[H])C([H])([H])C3([H])C([H])([H])[N+]([H])([H])[H])c([H])c([H])c2C1([H])[H]

$$$$
26:0:0
     RDKit          3D

 86 94  0  0  1  0  0  0  0  0999 V2000
  -28.4750  -22.0290   21.9290 C   0  0  0  0  0  1  0  0  0  0  0  0
  -28.8390  -22.1390   20.4140 C   0  0  0  0  0  3  0  0  0  0  0  0
  -30.2630  -15.7810   19.9980 C   0  0  0  0  0  0  0  0  0  0  0  0
  -30.3390  -13.2340   19.1910 C   0  0  0  0  0  2  0  0  0  0  0  0
  -29.4200  -12.7860   18.0200 C   0  0  0  0  0  2  0  0  0  0  0  0
  -28.0130  -12.4230   18.5290 C   0  0  0  0  0  2  0  0  0  0  0  0
  -27.5190  -13.4340   19.5900 C   0  0  0  0  0  3  0  0  0  0  0  0
  -28.5860  -13.7930   20.6490 C   0  0  0  0  0  2  0  0  0  0  0  0
  -29.7150  -14.4240   19.9260 N   0  0  0  0  0  0  0  0  0  0  0  0
  -31.5030  -15.6820   19.9010 O   0  0  0  0  0  0  0  0  0  0  0  0
  -29.3450  -17.9400   18.5900 C   0  0  0  0  0  2  0  0  0  0  0  0
  -29.4640  -18.6930   20.6640 C   0  0  0  0  0  2  0  0  0  0  0  0
  -29.4830  -19.5910   18.5950 C   0  0  0  0  0  3  0  0  0  0  0  0
  -28.8510  -20.2420   19.9140 C   0  0  0  0  0  3  0  0  0  0  0  0
  -29.0360  -20.2090   17.2400 C   0  0  0  0  0  1  0  0  0  0  0  0
  -29.5590  -17.1910   19.9010 N   0  0  0  0  0  0  0  0  0  0  0  0
  -25.1960  -13.9400   20.4830 C   0  0  0  0  0  0  0  0  0  0  0  0
  -24.1530  -13.1460   20.8720 C   0  0  0  0  0  0  0  0  0  0  0  0
  -24.6310  -11.7990   20.7980 C   0  0  0  0  0  0  0  0  0  0  0  0
  -26.2350  -13.0790   20.1750 N   0  0  0  0  0  0  0  0  0  0  0  0
  -25.9130  -11.7840   20.4370 N   0  0  0  0  0  0  0  0  0  0  0  0
  -23.9180  -10.5300   20.9890 C   0  0  0  0  0  0  0  0  0  0  0  0
  -24.3630   -9.5640   21.9170 C   0  0  0  0  0  3  0  0  0  0  0  0
  -23.6450   -8.3620   22.1030 C   0  0  0  0  0  3  0  0  0  0  0  0
  -22.4670   -8.1180   21.3570 C   0  0  0  0  0  0  0  0  0  0  0  0
  -22.0410   -9.0720   20.4190 C   0  0  0  0  0  3  0  0  0  0  0  0
  -22.7580  -10.2650   20.2310 C   0  0  0  0  0  3  0  0  0  0  0  0
  -21.7190   -6.9690   21.4510 O   0  0  0  0  0  0  0  0  0  0  0  0
  -21.6580   -6.2390   22.6110 C   0  0  0  0  0  0  0  0  0  0  0  0
  -21.1800   -6.7970   23.8160 C   0  0  0  0  0  3  0  0  0  0  0  0
  -21.0700   -5.9940   24.9680 C   0  0  0  0  0  3  0  0  0  0  0  0
  -21.4270   -4.6340   24.9170 C   0  0  0  0  0  0  0  0  0  0  0  0
  -21.8980   -4.0740   23.7160 C   0  0  0  0  0  3  0  0  0  0  0  0
  -22.0110   -4.8750   22.5650 C   0  0  0  0  0  0  0  0  0  0  0  0
  -22.4480   -4.3260   21.4060 F   0  0  0  0  0  0  0  0  0  0  0  0
  -21.3150   -3.8600   26.0230 F   0  0  0  0  0  0  0  0  0  0  0  0
  -22.7610  -13.6110   21.1840 C   0  0  0  0  0  0  0  0  0  0  0  0
  -22.0630  -12.9000   22.0620 N   0  0  0  0  0  0  0  0  0  0  0  0
  -22.3030  -14.6390   20.6870 O   0  0  0  0  0  0  0  0  0  0  0  0
  -22.4540  -12.0770   22.4970 H   0  0  0  0  0  0  0  0  0  0  0  0
  -21.1250  -13.1830   22.3010 H   0  0  0  0  0  0  0  0  0  0  0  0
  -25.3420  -15.3150   20.3310 N   0  0  0  0  0  0  0  0  0  0  0  0
  -24.5770  -15.9620   20.4970 H   0  0  0  0  0  0  0  0  0  0  0  0
  -26.1890  -15.7730   20.0270 H   0  0  0  0  0  0  0  0  0  0  0  0
  -28.0520  -23.8720   19.9490 C   0  0  0  0  0  2  0  0  0  0  0  0
  -28.1300  -25.5970   20.3270 O   0  0  0  0  0  0  0  0  0  0  0  0
  -24.6500  -31.9110   23.2280 C   0  0  0  0  0  0  0  0  0  0  0  0
  -27.1670  -26.8140   20.2410 C   0  0  0  0  0  0  0  0  0  0  0  0
  -23.4570  -30.5050   21.5970 C   0  0  0  0  0  3  0  0  0  0  0  0
  -24.9030  -28.8540   20.1830 C   0  0  0  0  0  0  0  0  0  0  0  0
  -26.0340  -30.6420   21.4830 C   0  0  0  0  0  2  0  0  0  0  0  0
  -26.0950  -29.2070   20.8260 C   0  0  0  0  0  0  0  0  0  0  0  0
  -27.2070  -28.2130   20.8230 C   0  0  0  0  0  3  0  0  0  0  0  0
  -25.9370  -26.6740   19.5480 C   0  0  0  0  0  3  0  0  0  0  0  0
  -24.8610  -27.6120   19.5280 C   0  0  0  0  0  3  0  0  0  0  0  0
  -23.7000  -29.8070   20.2240 C   0  0  0  0  0  2  0  0  0  0  0  0
  -24.7370  -31.0580   22.1520 N   0  0  0  0  0  0  0  0  0  0  0  0
  -23.5580  -32.2170   23.7380 O   0  0  0  0  0  0  0  0  0  0  0  0
  -22.7390  -29.5340   22.5710 C   0  0  0  0  0  0  0  0  0  0  0  0
  -21.4050  -29.3830   22.4470 N   0  0  0  0  0  0  0  0  0  0  0  0
  -23.3930  -28.9160   23.4160 O   0  0  0  0  0  0  0  0  0  0  0  0
  -20.9300  -29.9430   21.7520 H   0  0  0  0  0  0  0  0  0  0  0  0
  -18.0120  -28.1610   22.9390 C   0  0  0  0  0  0  0  0  0  0  0  0
  -20.5690  -28.4490   23.2190 C   0  0  0  0  0  3  0  0  0  0  0  0
  -20.6840  -27.0090   22.6610 C   0  0  0  0  0  2  0  0  0  0  0  0
  -19.5900  -26.6690   21.6430 C   0  0  0  0  0  2  0  0  0  0  0  0
  -18.2030  -26.8070   22.2770 C   0  0  0  0  0  2  0  0  0  0  0  0
  -19.1230  -28.9390   23.3670 C   0  0  0  0  0  0  0  0  0  0  0  0
  -18.8850  -30.1990   23.9540 C   0  0  0  0  0  3  0  0  0  0  0  0
  -17.5740  -30.6840   24.1180 C   0  0  0  0  0  3  0  0  0  0  0  0
  -16.4780  -29.9060   23.7060 C   0  0  0  0  0  3  0  0  0  0  0  0
  -16.7010  -28.6470   23.1220 C   0  0  0  0  0  3  0  0  0  0  0  0
  -25.9170  -32.5550   23.8700 C   0  0  0  0  0  3  0  0  0  0  0  0
  -25.6040  -33.9590   24.1950 N   0  0  0  0  0  0  0  0  0  0  0  0
  -25.9240  -35.0190   23.4370 C   0  0  0  0  0  0  0  0  0  0  0  0
  -26.5660  -34.9170   22.3910 O   0  0  0  0  0  0  0  0  0  0  0  0
  -25.0310  -34.1130   25.0090 H   0  0  0  0  0  0  0  0  0  0  0  0
  -24.1880  -36.8190   23.1430 C   0  0  0  0  0  1  0  0  0  0  0  0
  -25.4560  -36.4110   23.9090 C   0  0  0  0  0  3  0  0  0  0  0  0
  -27.6130  -37.3070   24.6610 C   0  0  0  0  0  1  0  0  0  0  0  0
  -26.4800  -37.4670   23.7560 N   0  0  0  0  0  0  0  0  0  0  0  0
  -26.0740  -38.3850   23.9140 H   0  0  0  0  0  0  0  0  0  0  0  0
  -26.4030  -31.8060   25.1730 C   0  0  1  0  0  0  0  0  0  0  0  0
  -25.2940  -31.6060   26.2340 C   0  0  0  0  0  1  0  0  0  0  0  0
  -26.9770  -30.4130   24.8320 C   0  0  0  0  0  1  0  0  0  0  0  0
  -27.5540  -32.5980   25.8370 C   0  0  0  0  0  1  0  0  0  0  0  0
  2  1  1  0
  4  9  1  0
  5  6  1  0
  5  4  1  0
  7  6  1  0
  7 20  1  0
  7  8  1  0
  9  3  1  0
  9  8  1  0
 10  3  2  0
 11 13  1  0
 11 16  1  0
 13 15  1  0
 13 14  1  0
 14  2  1  0
 14 12  1  0
 16  3  1  0
 16 12  1  0
 17 18  2  0
 18 37  1  0
 19 18  1  0
 19 22  1  0
 20 21  1  0
 20 17  1  0
 21 19  2  0
 22 23  1  0
 23 24  2  0
 25 28  1  0
 25 24  1  0
 26 25  2  0
 27 26  1  0
 27 22  2  0
 28 29  1  0
 29 30  1  0
 30 31  2  0
 32 31  1  0
 32 36  1  0
 33 32  2  0
 34 29  2  0
 34 33  1  0
 35 34  1  0
 37 38  1  0
 38 41  1  0
 38 40  1  0
 39 37  2  0
 42 17  1  0
 42 43  1  0
 44 42  1  0
 45 46  1  0
 45  2  1  0
 47 58  2  0
 48 46  1  0
 48 53  1  0
 49 57  1  0
 49 59  1  0
 50 56  1  0
 50 52  1  0
 51 57  1  0
 52 51  1  0
 53 52  2  0
 54 48  2  0
 55 54  1  0
 55 50  2  0
 56 49  1  0
 57 47  1  0
 59 61  2  0
 60 59  1  0
 62 60  1  0
 63 72  2  0
 63 68  1  0
 64 60  1  0
 64 68  1  0
 65 64  1  0
 66 67  1  0
 66 65  1  0
 67 63  1  0
 68 69  2  0
 69 70  1  0
 71 70  2  0
 72 71  1  0
 73 47  1  0
 73 74  1  0
 73 83  1  0
 74 77  1  0
 75 79  1  0
 75 74  1  0
 76 75  2  0
 79 78  1  0
 81 79  1  0
 81 82  1  0
 81 80  1  0
 83 86  1  1
 83 84  1  0
 85 83  1  0
M  ISO  4   3 100  16 100  45 101  46 101
M  END
>  <TORSDO>  (26) 
F 17

>  <SCORE>  (26) 
-16.697

>  <name>  (26) 
26

>  <ligand_id>  (26) 
26

>  <original_smiles>  (26) 
[H]c1c([H])c([H])c2c(c1[H])C([H])([H])C([H])([H])C([H])([H])C2([H])N([H])C(=O)C1([H])N(C(=O)C([H])(N([H])C(=O)C([H])(N([H])C([H])([H])[H])C([H])([H])[H])C(C([H])([H])[H])(C([H])([H])[H])C([H])([H])[H])C([H])([H])c2c([H])c(OC([H])([H])C([H])(C([H])([H])[H])C3([H])C([H])([H])N(C(=O)N4C([H])([H])C([H])([H])C([H])([H])C([H])(n5nc(-c6c([H])c([H])c(Oc7c([H])c([H])c(F)c([H])c7F)c([H])c6[H])c(C(=O)N([H])[H])c5N([H])[H])C4([H])[H])C([H])([H])C3([H])C([H])([H])[H])c([H])c([H])c2C1([H])[H]

>  <smiles>  (26) 
[H]c1c([H])c([H])c2c(c1[H])C([H])([H])C([H])([H])C([H])([H])C2([H])N([H])C(=O)C1([H])N(C(=O)C([H])(N([H])C(=O)C([H])(N([H])C([H])([H])[H])C([H])([H])[H])C(C([H])([H])[H])(C([H])([H])[H])C([H])([H])[H])C([H])([H])c2c([H])c(OC([H])([H])C([H])(C([H])([H])[H])C3([H])C([H])([H])N(C(=O)N4C([H])([H])C([H])([H])C([H])([H])C([H])(n5nc(-c6c([H])c([H])c(Oc7c([H])c([H])c(F)c([H])c7F)c([H])c6[H])c(C(=O)N([H])[H])c5N([H])[H])C4([H])[H])C([H])([H])C3([H])C([H])([H])[H])c([H])c([H])c2C1([H])[H]

$$$$
27:0:0
     RDKit          3D

 86 94  0  0  1  0  0  0  0  0999 V2000
  -28.3540  -21.3880   20.0860 C   0  0  0  0  0  2  0  0  0  0  0  0
  -30.5300  -17.8490   20.9910 C   0  0  0  0  0  3  0  0  0  0  0  0
  -28.8140  -17.2680   19.5410 C   0  0  0  0  0  3  0  0  0  0  0  0
  -30.1250  -19.2720   20.9430 C   0  0  0  0  0  3  0  0  0  0  0  0
  -28.4200  -18.6860   19.4850 C   0  0  0  0  0  3  0  0  0  0  0  0
  -29.8960  -16.7170   20.3240 C   0  0  0  0  0  0  0  0  0  0  0  0
  -29.0240  -19.8140   20.1740 C   0  0  0  0  0  0  0  0  0  0  0  0
  -30.5140  -15.1850   20.2380 C   0  0  0  0  0  0  0  0  0  0  0  0
  -30.3700  -12.7810   19.3740 C   0  0  0  0  0  2  0  0  0  0  0  0
  -29.4420  -12.6580   18.1430 C   0  0  0  0  0  2  0  0  0  0  0  0
  -27.9900  -12.4210   18.5880 C   0  0  0  0  0  2  0  0  0  0  0  0
  -27.5670  -13.3690   19.7390 C   0  0  0  0  0  3  0  0  0  0  0  0
  -28.6280  -13.4950   20.8510 C   0  0  0  0  0  2  0  0  0  0  0  0
  -29.8800  -13.9250   20.2150 N   0  0  0  0  0  0  0  0  0  0  0  0
  -31.7310  -15.1220   20.0210 O   0  0  0  0  0  0  0  0  0  0  0  0
  -25.2100  -13.9170   20.5480 C   0  0  0  0  0  0  0  0  0  0  0  0
  -24.1520  -13.1350   20.9210 C   0  0  0  0  0  0  0  0  0  0  0  0
  -24.6190  -11.7850   20.8630 C   0  0  0  0  0  0  0  0  0  0  0  0
  -26.2470  -13.0460   20.2700 N   0  0  0  0  0  0  0  0  0  0  0  0
  -25.9070  -11.7560   20.5320 N   0  0  0  0  0  0  0  0  0  0  0  0
  -23.8930  -10.5180   21.0440 C   0  0  0  0  0  0  0  0  0  0  0  0
  -24.3230   -9.5470   21.9760 C   0  0  0  0  0  3  0  0  0  0  0  0
  -23.5950   -8.3500   22.1480 C   0  0  0  0  0  3  0  0  0  0  0  0
  -22.4250   -8.1140   21.3870 C   0  0  0  0  0  0  0  0  0  0  0  0
  -22.0140   -9.0740   20.4460 C   0  0  0  0  0  3  0  0  0  0  0  0
  -22.7420  -10.2630   20.2710 C   0  0  0  0  0  3  0  0  0  0  0  0
  -21.6690   -6.9690   21.4690 O   0  0  0  0  0  0  0  0  0  0  0  0
  -21.5920   -6.2340   22.6250 C   0  0  0  0  0  0  0  0  0  0  0  0
  -21.1090   -6.7910   23.8290 C   0  0  0  0  0  3  0  0  0  0  0  0
  -20.9830   -5.9850   24.9780 C   0  0  0  0  0  3  0  0  0  0  0  0
  -21.3290   -4.6200   24.9230 C   0  0  0  0  0  0  0  0  0  0  0  0
  -21.8060   -4.0630   23.7240 C   0  0  0  0  0  3  0  0  0  0  0  0
  -21.9330   -4.8680   22.5770 C   0  0  0  0  0  0  0  0  0  0  0  0
  -22.3730   -4.3210   21.4180 F   0  0  0  0  0  0  0  0  0  0  0  0
  -21.2020   -3.8430   26.0230 F   0  0  0  0  0  0  0  0  0  0  0  0
  -22.7600  -13.6070   21.2170 C   0  0  0  0  0  0  0  0  0  0  0  0
  -22.0450  -12.9070   22.0900 N   0  0  0  0  0  0  0  0  0  0  0  0
  -22.3150  -14.6350   20.7080 O   0  0  0  0  0  0  0  0  0  0  0  0
  -22.4170  -12.0760   22.5250 H   0  0  0  0  0  0  0  0  0  0  0  0
  -21.1080  -13.2020   22.3230 H   0  0  0  0  0  0  0  0  0  0  0  0
  -25.3710  -15.2910   20.3950 N   0  0  0  0  0  0  0  0  0  0  0  0
  -24.6150  -15.9480   20.5520 H   0  0  0  0  0  0  0  0  0  0  0  0
  -26.2330  -15.7400   20.1140 H   0  0  0  0  0  0  0  0  0  0  0  0
  -28.8690  -23.0320   20.3380 C   0  0  0  0  0  3  0  0  0  0  0  0
  -27.9130  -24.4850   20.1320 C   0  0  0  0  0  3  0  0  0  0  0  0
  -28.1990  -26.0540   20.3210 O   0  0  0  0  0  0  0  0  0  0  0  0
  -24.6440  -31.9110   23.2900 C   0  0  0  0  0  0  0  0  0  0  0  0
  -27.1760  -27.1060   20.2570 C   0  0  0  0  0  0  0  0  0  0  0  0
  -23.4380  -30.5300   21.6480 C   0  0  0  0  0  3  0  0  0  0  0  0
  -24.8750  -28.9360   20.2180 C   0  0  0  0  0  0  0  0  0  0  0  0
  -26.0000  -30.7520   21.4890 C   0  0  0  0  0  2  0  0  0  0  0  0
  -26.0630  -29.3520   20.8330 C   0  0  0  0  0  0  0  0  0  0  0  0
  -27.2130  -28.4570   20.8280 C   0  0  0  0  0  3  0  0  0  0  0  0
  -25.9590  -26.8150   19.6010 C   0  0  0  0  0  3  0  0  0  0  0  0
  -24.8430  -27.6860   19.5810 C   0  0  0  0  0  3  0  0  0  0  0  0
  -23.6580  -29.8540   20.2670 C   0  0  0  0  0  2  0  0  0  0  0  0
  -24.7160  -31.0880   22.1970 N   0  0  0  0  0  0  0  0  0  0  0  0
  -23.5590  -32.2030   23.8160 O   0  0  0  0  0  0  0  0  0  0  0  0
  -22.7460  -29.5270   22.6090 C   0  0  0  0  0  0  0  0  0  0  0  0
  -21.4170  -29.3620   22.4770 N   0  0  0  0  0  0  0  0  0  0  0  0
  -23.4110  -28.9030   23.4380 O   0  0  0  0  0  0  0  0  0  0  0  0
  -20.9350  -29.9220   21.7870 H   0  0  0  0  0  0  0  0  0  0  0  0
  -18.0330  -28.1540   22.9630 C   0  0  0  0  0  0  0  0  0  0  0  0
  -20.5890  -28.4260   23.2450 C   0  0  0  0  0  3  0  0  0  0  0  0
  -20.6970  -26.9910   22.6790 C   0  0  0  0  0  2  0  0  0  0  0  0
  -19.6030  -26.6600   21.6580 C   0  0  0  0  0  2  0  0  0  0  0  0
  -18.2170  -26.8030   22.2920 C   0  0  0  0  0  2  0  0  0  0  0  0
  -19.1460  -28.9220   23.3970 C   0  0  0  0  0  0  0  0  0  0  0  0
  -18.9170  -30.1830   23.9900 C   0  0  0  0  0  3  0  0  0  0  0  0
  -17.6100  -30.6780   24.1480 C   0  0  0  0  0  3  0  0  0  0  0  0
  -16.5110  -29.9090   23.7270 C   0  0  0  0  0  3  0  0  0  0  0  0
  -16.7230  -28.6480   23.1430 C   0  0  0  0  0  3  0  0  0  0  0  0
  -25.9220  -32.5420   23.9220 C   0  0  0  0  0  3  0  0  0  0  0  0
  -26.4190  -31.7750   25.2100 C   0  0  1  0  0  0  0  0  0  0  0  0
  -25.3150  -31.5540   26.2700 C   0  0  0  0  0  1  0  0  0  0  0  0
  -26.9920  -30.3880   24.8380 C   0  0  0  0  0  1  0  0  0  0  0  0
  -27.5720  -32.5620   25.8770 C   0  0  0  0  0  1  0  0  0  0  0  0
  -25.6170  -33.9450   24.2490 N   0  0  0  0  0  0  0  0  0  0  0  0
  -25.9260  -34.9980   23.4800 C   0  0  0  0  0  0  0  0  0  0  0  0
  -26.5630  -34.8890   22.4280 O   0  0  0  0  0  0  0  0  0  0  0  0
  -25.0460  -34.1020   25.0680 H   0  0  0  0  0  0  0  0  0  0  0  0
  -24.1750  -36.7870   23.1980 C   0  0  0  0  0  1  0  0  0  0  0  0
  -25.4580  -36.3900   23.9480 C   0  0  0  0  0  3  0  0  0  0  0  0
  -27.6260  -37.2980   24.6630 C   0  0  0  0  0  1  0  0  0  0  0  0
  -26.4790  -37.4460   23.7720 N   0  0  0  0  0  0  0  0  0  0  0  0
  -26.0760  -38.3670   23.9230 H   0  0  0  0  0  0  0  0  0  0  0  0
  1  7  1  0
  1 44  1  0
  3  6  1  0
  4  2  1  0
  5  3  2  0
  5  7  1  0
  6  2  2  0
  7  4  2  0
  8  6  1  0
  9 14  1  0
 10 11  1  0
 10  9  1  0
 12 11  1  0
 12 19  1  0
 12 13  1  0
 14  8  1  0
 14 13  1  0
 15  8  2  0
 16 17  2  0
 17 36  1  0
 18 17  1  0
 18 21  1  0
 19 20  1  0
 19 16  1  0
 20 18  2  0
 21 22  1  0
 22 23  2  0
 24 27  1  0
 24 23  1  0
 25 24  2  0
 26 25  1  0
 26 21  2  0
 27 28  1  0
 28 29  1  0
 29 30  2  0
 31 30  1  0
 31 35  1  0
 32 31  2  0
 33 28  2  0
 33 32  1  0
 34 33  1  0
 36 37  1  0
 37 40  1  0
 37 39  1  0
 38 36  2  0
 41 16  1  0
 41 42  1  0
 43 41  1  0
 45 46  1  0
 45 44  2  0
 47 58  2  0
 48 46  1  0
 48 53  1  0
 49 57  1  0
 49 59  1  0
 50 56  1  0
 50 52  1  0
 51 57  1  0
 52 51  1  0
 53 52  2  0
 54 48  2  0
 55 54  1  0
 55 50  2  0
 56 49  1  0
 57 47  1  0
 59 61  2  0
 60 59  1  0
 62 60  1  0
 63 72  2  0
 63 68  1  0
 64 60  1  0
 64 68  1  0
 65 64  1  0
 66 67  1  0
 66 65  1  0
 67 63  1  0
 68 69  2  0
 69 70  1  0
 71 70  2  0
 72 71  1  0
 73 47  1  0
 73 78  1  0
 73 74  1  0
 74 77  1  1
 74 75  1  0
 76 74  1  0
 78 81  1  0
 79 83  1  0
 79 78  1  0
 80 79  2  0
 83 82  1  0
 85 86  1  0
 85 83  1  0
 85 84  1  0
M  ISO  4   6 100   8 100  45 101  46 101
M  END
>  <TORSDO>  (27) 
F 19

>  <SCORE>  (27) 
-15.722

>  <name>  (27) 
27

>  <ligand_id>  (27) 
27

>  <original_smiles>  (27) 
[H]c1c([H])c([H])c2c(c1[H])C([H])([H])C([H])([H])C([H])([H])C2([H])N([H])C(=O)C1([H])N(C(=O)C([H])(N([H])C(=O)C([H])(N([H])C([H])([H])[H])C([H])([H])[H])C(C([H])([H])[H])(C([H])([H])[H])C([H])([H])[H])C([H])([H])c2c([H])c(OC([H])([H])C([H])([H])C([H])([H])c3c([H])c([H])c(C(=O)N4C([H])([H])C([H])([H])C([H])([H])C([H])(n5nc(-c6c([H])c([H])c(Oc7c([H])c([H])c(F)c([H])c7F)c([H])c6[H])c(C(=O)N([H])[H])c5N([H])[H])C4([H])[H])c([H])c3[H])c([H])c([H])c2C1([H])[H]

>  <smiles>  (27) 
[H]c1c([H])c([H])c2c(c1[H])C([H])([H])C([H])([H])C([H])([H])C2([H])N([H])C(=O)C1([H])N(C(=O)C([H])(N([H])C(=O)C([H])(N([H])C([H])([H])[H])C([H])([H])[H])C(C([H])([H])[H])(C([H])([H])[H])C([H])([H])[H])C([H])([H])c2c([H])c(OC([H])([H])C([H])([H])C([H])([H])c3c([H])c([H])c(C(=O)N4C([H])([H])C([H])([H])C([H])([H])C([H])(n5nc(-c6c([H])c([H])c(Oc7c([H])c([H])c(F)c([H])c7F)c([H])c6[H])c(C(=O)N([H])[H])c5N([H])[H])C4([H])[H])c([H])c3[H])c([H])c([H])c2C1([H])[H]

$$$$
28:0:0
     RDKit          3D

 87 94  0  0  1  0  0  0  0  0999 V2000
  -28.7080  -20.6170   20.3160 C   0  0  0  0  0  0  0  0  0  0  0  0
  -27.4990  -20.3770   20.3720 O   0  0  0  0  0  0  0  0  0  0  0  0
  -29.0010  -22.4200   20.2990 C   0  0  0  0  0  3  0  0  0  0  0  0
  -27.9840  -24.0170   20.2220 C   0  0  0  0  0  3  0  0  0  0  0  0
  -28.1900  -25.7250   20.3060 O   0  0  0  0  0  0  0  0  0  0  0  0
  -24.6590  -31.8880   23.2460 C   0  0  0  0  0  0  0  0  0  0  0  0
  -27.1960  -26.8870   20.2530 C   0  0  0  0  0  0  0  0  0  0  0  0
  -23.4680  -30.4930   21.6060 C   0  0  0  0  0  3  0  0  0  0  0  0
  -24.9160  -28.8600   20.1930 C   0  0  0  0  0  0  0  0  0  0  0  0
  -26.0430  -30.6600   21.4790 C   0  0  0  0  0  2  0  0  0  0  0  0
  -26.1090  -29.2370   20.8230 C   0  0  0  0  0  0  0  0  0  0  0  0
  -27.2380  -28.2770   20.8210 C   0  0  0  0  0  3  0  0  0  0  0  0
  -25.9700  -26.6950   19.5740 C   0  0  0  0  0  3  0  0  0  0  0  0
  -24.8800  -27.6130   19.5460 C   0  0  0  0  0  3  0  0  0  0  0  0
  -23.7060  -29.8010   20.2350 C   0  0  0  0  0  2  0  0  0  0  0  0
  -24.7470  -31.0440   22.1640 N   0  0  0  0  0  0  0  0  0  0  0  0
  -23.5670  -32.1850   23.7600 O   0  0  0  0  0  0  0  0  0  0  0  0
  -22.7580  -29.5100   22.5750 C   0  0  0  0  0  0  0  0  0  0  0  0
  -21.4270  -29.3480   22.4420 N   0  0  0  0  0  0  0  0  0  0  0  0
  -23.4130  -28.8900   23.4160 O   0  0  0  0  0  0  0  0  0  0  0  0
  -20.9490  -29.8990   21.7430 H   0  0  0  0  0  0  0  0  0  0  0  0
  -18.0390  -28.1370   22.9420 C   0  0  0  0  0  0  0  0  0  0  0  0
  -20.5980  -28.4120   23.2120 C   0  0  0  0  0  3  0  0  0  0  0  0
  -20.7050  -26.9790   22.6410 C   0  0  0  0  0  2  0  0  0  0  0  0
  -19.6080  -26.6510   21.6230 C   0  0  0  0  0  2  0  0  0  0  0  0
  -18.2230  -26.7900   22.2630 C   0  0  0  0  0  2  0  0  0  0  0  0
  -19.1550  -28.9060   23.3720 C   0  0  0  0  0  0  0  0  0  0  0  0
  -18.9250  -30.1630   23.9720 C   0  0  0  0  0  3  0  0  0  0  0  0
  -17.6160  -30.6530   24.1410 C   0  0  0  0  0  3  0  0  0  0  0  0
  -16.5170  -29.8840   23.7230 C   0  0  0  0  0  3  0  0  0  0  0  0
  -16.7300  -28.6270   23.1290 C   0  0  0  0  0  3  0  0  0  0  0  0
  -25.9250  -32.5320   23.8880 C   0  0  0  0  0  3  0  0  0  0  0  0
  -25.6090  -33.9360   24.2130 N   0  0  0  0  0  0  0  0  0  0  0  0
  -25.9250  -34.9940   23.4540 C   0  0  0  0  0  0  0  0  0  0  0  0
  -26.5720  -34.8910   22.4090 O   0  0  0  0  0  0  0  0  0  0  0  0
  -25.0290  -34.0890   25.0250 H   0  0  0  0  0  0  0  0  0  0  0  0
  -24.1800  -36.7890   23.1610 C   0  0  0  0  0  1  0  0  0  0  0  0
  -25.4510  -36.3860   23.9250 C   0  0  0  0  0  3  0  0  0  0  0  0
  -27.6080  -37.2920   24.6810 C   0  0  0  0  0  1  0  0  0  0  0  0
  -26.4760  -37.4420   23.7690 N   0  0  0  0  0  0  0  0  0  0  0  0
  -26.0700  -38.3630   23.9170 H   0  0  0  0  0  0  0  0  0  0  0  0
  -26.4130  -31.7770   25.1860 C   0  0  1  0  0  0  0  0  0  0  0  0
  -25.3010  -31.5620   26.2380 C   0  0  0  0  0  1  0  0  0  0  0  0
  -26.9950  -30.3890   24.8340 C   0  0  0  0  0  1  0  0  0  0  0  0
  -27.5570  -32.5750   25.8560 C   0  0  0  0  0  1  0  0  0  0  0  0
  -29.7770  -19.0450   20.2410 C   0  0  0  0  0  3  0  0  0  0  0  0
  -30.5290  -19.2580   18.9940 N   0  0  0  0  0  4  0  0  0  0  0  0
  -29.9270  -19.1490   18.1980 H   0  0  0  0  0  0  0  0  0  0  0  0
  -31.2920  -18.6100   18.9210 H   0  0  0  0  0  0  0  0  0  0  0  0
  -30.9070  -20.1880   18.9760 H   0  0  0  0  0  0  0  0  0  0  0  0
  -29.4410  -17.1880   20.3690 C   0  0  0  0  0  2  0  0  0  0  0  0
  -30.3140  -15.5880   20.1740 C   0  0  0  0  0  0  0  0  0  0  0  0
  -30.3910  -13.0890   19.2930 C   0  0  0  0  0  2  0  0  0  0  0  0
  -29.4520  -12.8120   18.0830 C   0  0  0  0  0  2  0  0  0  0  0  0
  -28.0270  -12.4780   18.5530 C   0  0  0  0  0  2  0  0  0  0  0  0
  -27.5680  -13.4290   19.6830 C   0  0  0  0  0  3  0  0  0  0  0  0
  -28.6330  -13.6360   20.7800 C   0  0  0  0  0  2  0  0  0  0  0  0
  -29.8260  -14.2230   20.1370 N   0  0  0  0  0  0  0  0  0  0  0  0
  -31.5300  -15.5790   19.9060 O   0  0  0  0  0  0  0  0  0  0  0  0
  -25.2210  -13.9350   20.5250 C   0  0  0  0  0  0  0  0  0  0  0  0
  -24.1780  -13.1400   20.9040 C   0  0  0  0  0  0  0  0  0  0  0  0
  -24.6560  -11.7950   20.8310 C   0  0  0  0  0  0  0  0  0  0  0  0
  -26.2630  -13.0770   20.2280 N   0  0  0  0  0  0  0  0  0  0  0  0
  -25.9400  -11.7810   20.4810 N   0  0  0  0  0  0  0  0  0  0  0  0
  -23.9440  -10.5220   21.0130 C   0  0  0  0  0  0  0  0  0  0  0  0
  -24.3800   -9.5560   21.9470 C   0  0  0  0  0  3  0  0  0  0  0  0
  -23.6630   -8.3520   22.1180 C   0  0  0  0  0  3  0  0  0  0  0  0
  -22.4960   -8.1050   21.3570 C   0  0  0  0  0  0  0  0  0  0  0  0
  -22.0800   -9.0590   20.4120 C   0  0  0  0  0  3  0  0  0  0  0  0
  -22.7970  -10.2550   20.2390 C   0  0  0  0  0  3  0  0  0  0  0  0
  -21.7520   -6.9530   21.4370 O   0  0  0  0  0  0  0  0  0  0  0  0
  -21.6660   -6.2300   22.6010 C   0  0  0  0  0  0  0  0  0  0  0  0
  -21.1450   -6.7890   23.7880 C   0  0  0  0  0  3  0  0  0  0  0  0
  -21.0110   -5.9920   24.9420 C   0  0  0  0  0  3  0  0  0  0  0  0
  -21.3870   -4.6360   24.9090 C   0  0  0  0  0  0  0  0  0  0  0  0
  -21.9010   -4.0760   23.7260 C   0  0  0  0  0  3  0  0  0  0  0  0
  -22.0370   -4.8710   22.5750 C   0  0  0  0  0  0  0  0  0  0  0  0
  -22.5130   -4.3200   21.4320 F   0  0  0  0  0  0  0  0  0  0  0  0
  -21.2510   -3.8670   26.0160 F   0  0  0  0  0  0  0  0  0  0  0  0
  -22.7840  -13.5990   21.2180 C   0  0  0  0  0  0  0  0  0  0  0  0
  -22.0860  -12.8850   22.0930 N   0  0  0  0  0  0  0  0  0  0  0  0
  -22.3250  -14.6270   20.7220 O   0  0  0  0  0  0  0  0  0  0  0  0
  -22.4720  -12.0530   22.5160 H   0  0  0  0  0  0  0  0  0  0  0  0
  -21.1520  -13.1740   22.3470 H   0  0  0  0  0  0  0  0  0  0  0  0
  -25.3670  -15.3110   20.3760 N   0  0  0  0  0  0  0  0  0  0  0  0
  -24.5980  -15.9550   20.5300 H   0  0  0  0  0  0  0  0  0  0  0  0
  -26.2040  -15.7680   20.0380 H   0  0  0  0  0  0  0  0  0  0  0  0
  1  2  2  0
  3  1  1  0
  4  3  2  0
  4  5  1  0
  6 17  2  0
  7  5  1  0
  7 12  1  0
  8 16  1  0
  8 18  1  0
  9 15  1  0
  9 11  1  0
 10 16  1  0
 11 10  1  0
 12 11  2  0
 13  7  2  0
 14 13  1  0
 14  9  2  0
 15  8  1  0
 16  6  1  0
 18 20  2  0
 19 18  1  0
 21 19  1  0
 22 31  2  0
 22 27  1  0
 23 19  1  0
 23 27  1  0
 24 23  1  0
 25 26  1  0
 25 24  1  0
 26 22  1  0
 27 28  2  0
 28 29  1  0
 30 29  2  0
 31 30  1  0
 32  6  1  0
 32 33  1  0
 32 42  1  0
 33 36  1  0
 34 38  1  0
 34 33  1  0
 35 34  2  0
 38 37  1  0
 40 41  1  0
 40 38  1  0
 40 39  1  0
 42 45  1  1
 42 43  1  0
 44 42  1  0
 46  1  1  0
 46 51  1  0
 47 46  1  0
 48 47  1  0
 49 47  1  0
 50 47  1  0
 52 51  1  0
 53 58  1  0
 54 55  1  0
 54 53  1  0
 56 55  1  0
 56 63  1  0
 56 57  1  0
 58 52  1  0
 58 57  1  0
 59 52  2  0
 60 61  2  0
 61 80  1  0
 62 61  1  0
 62 65  1  0
 63 64  1  0
 63 60  1  0
 64 62  2  0
 65 66  1  0
 66 67  2  0
 68 71  1  0
 68 67  1  0
 69 68  2  0
 70 69  1  0
 70 65  2  0
 71 72  1  0
 72 73  1  0
 73 74  2  0
 75 74  1  0
 75 79  1  0
 76 75  2  0
 77 72  2  0
 77 76  1  0
 78 77  1  0
 80 81  1  0
 81 84  1  0
 81 83  1  0
 82 80  2  0
 85 60  1  0
 85 86  1  0
 87 85  1  0
M  ISO  4   4 101   5 101  51 100  52 100
M  END
>  <TORSDO>  (28) 
F 21

>  <SCORE>  (28) 
-16.281

>  <name>  (28) 
28

>  <ligand_id>  (28) 
28

>  <original_smiles>  (28) 
[H]c1c([H])c([H])c2c(c1[H])C([H])([H])C([H])([H])C([H])([H])C2([H])N([H])C(=O)C1([H])N(C(=O)C([H])(N([H])C(=O)C([H])(N([H])C([H])([H])[H])C([H])([H])[H])C(C([H])([H])[H])(C([H])([H])[H])C([H])([H])[H])C([H])([H])c2c([H])c(OC([H])([H])C([H])([H])C(=O)C([H])(C([H])([H])C(=O)N3C([H])([H])C([H])([H])C([H])([H])C([H])(n4nc(-c5c([H])c([H])c(Oc6c([H])c([H])c(F)c([H])c6F)c([H])c5[H])c(C(=O)N([H])[H])c4N([H])[H])C3([H])[H])[N+]([H])([H])[H])c([H])c([H])c2C1([H])[H]

>  <smiles>  (28) 
[H]c1c([H])c([H])c2c(c1[H])C([H])([H])C([H])([H])C([H])([H])C2([H])N([H])C(=O)C1([H])N(C(=O)C([H])(N([H])C(=O)C([H])(N([H])C([H])([H])[H])C([H])([H])[H])C(C([H])([H])[H])(C([H])([H])[H])C([H])([H])[H])C([H])([H])c2c([H])c(OC([H])([H])C([H])([H])C(=O)C([H])(C([H])([H])C(=O)N3C([H])([H])C([H])([H])C([H])([H])C([H])(n4nc(-c5c([H])c([H])c(Oc6c([H])c([H])c(F)c([H])c6F)c([H])c5[H])c(C(=O)N([H])[H])c4N([H])[H])C3([H])[H])[N+]([H])([H])[H])c([H])c([H])c2C1([H])[H]

$$$$
29:0:0
     RDKit          3D

 91 99  0  0  1  0  0  0  0  0999 V2000
  -27.9570  -20.1540   20.0360 C   0  0  0  0  0  2  0  0  0  0  0  0
  -28.5610  -18.7140   19.9180 C   0  0  0  0  0  2  0  0  0  0  0  0
  -30.1560  -21.1030   20.6320 C   0  0  0  0  0  2  0  0  0  0  0  0
  -28.9940  -21.2380   19.6350 C   0  0  0  0  0  3  0  0  0  0  0  0
  -29.8360  -18.4510   20.7720 C   0  0  0  0  0  3  0  0  0  0  0  0
  -30.8160  -19.6810   20.6200 C   0  0  0  0  0  3  0  0  0  0  0  0
  -31.9440  -19.6770   21.6740 C   0  0  0  0  0  1  0  0  0  0  0  0
  -27.2640  -22.6270   18.3190 C   0  0  0  0  0  1  0  0  0  0  0  0
  -28.5230  -22.7070   19.2070 C   0  0  0  0  0  3  0  0  0  0  0  0
  -28.4130  -23.9330   20.2060 C   0  0  0  0  0  2  0  0  0  0  0  0
  -28.5650  -25.3460   19.4940 C   0  0  0  0  0  2  0  0  0  0  0  0
  -28.4080  -26.5900   20.2460 O   0  0  0  0  0  0  0  0  0  0  0  0
  -24.6050  -31.8800   23.2290 C   0  0  0  0  0  0  0  0  0  0  0  0
  -27.2440  -27.3560   20.1840 C   0  0  0  0  0  0  0  0  0  0  0  0
  -23.4060  -30.4740   21.5880 C   0  0  0  0  0  3  0  0  0  0  0  0
  -24.8620  -28.9260   20.1700 C   0  0  0  0  0  0  0  0  0  0  0  0
  -25.9390  -30.8120   21.4040 C   0  0  0  0  0  2  0  0  0  0  0  0
  -26.0220  -29.4330   20.7650 C   0  0  0  0  0  0  0  0  0  0  0  0
  -27.2120  -28.6570   20.7670 C   0  0  0  0  0  3  0  0  0  0  0  0
  -26.0530  -26.8780   19.5920 C   0  0  0  0  0  3  0  0  0  0  0  0
  -24.8760  -27.6520   19.5800 C   0  0  0  0  0  3  0  0  0  0  0  0
  -23.6220  -29.7940   20.2100 C   0  0  0  0  0  2  0  0  0  0  0  0
  -24.6680  -31.0720   22.1320 N   0  0  0  0  0  0  0  0  0  0  0  0
  -23.5210  -32.1550   23.7630 O   0  0  0  0  0  0  0  0  0  0  0  0
  -22.7470  -29.4580   22.5500 C   0  0  0  0  0  0  0  0  0  0  0  0
  -21.4210  -29.2770   22.4200 N   0  0  0  0  0  0  0  0  0  0  0  0
  -23.4260  -28.8340   23.3700 O   0  0  0  0  0  0  0  0  0  0  0  0
  -20.9340  -29.8320   21.7320 H   0  0  0  0  0  0  0  0  0  0  0  0
  -18.0440  -28.0940   22.9240 C   0  0  0  0  0  0  0  0  0  0  0  0
  -20.6030  -28.3420   23.1920 C   0  0  0  0  0  3  0  0  0  0  0  0
  -20.6980  -26.9100   22.6130 C   0  0  0  0  0  2  0  0  0  0  0  0
  -19.5940  -26.5950   21.6010 C   0  0  0  0  0  2  0  0  0  0  0  0
  -18.2130  -26.7460   22.2460 C   0  0  0  0  0  2  0  0  0  0  0  0
  -19.1660  -28.8500   23.3540 C   0  0  0  0  0  0  0  0  0  0  0  0
  -18.9540  -30.1130   23.9480 C   0  0  0  0  0  3  0  0  0  0  0  0
  -17.6510  -30.6200   24.1180 C   0  0  0  0  0  3  0  0  0  0  0  0
  -16.5440  -29.8610   23.7040 C   0  0  0  0  0  3  0  0  0  0  0  0
  -16.7400  -28.6000   23.1130 C   0  0  0  0  0  3  0  0  0  0  0  0
  -25.8870  -32.5150   23.8530 C   0  0  0  0  0  3  0  0  0  0  0  0
  -26.4020  -31.7460   25.1320 C   0  0  1  0  0  0  0  0  0  0  0  0
  -25.3080  -31.5110   26.1990 C   0  0  0  0  0  1  0  0  0  0  0  0
  -26.9870  -30.3700   24.7430 C   0  0  0  0  0  1  0  0  0  0  0  0
  -27.5510  -32.5420   25.7940 C   0  0  0  0  0  1  0  0  0  0  0  0
  -25.5750  -33.9130   24.1810 N   0  0  0  0  0  0  0  0  0  0  0  0
  -25.9080  -34.9650   23.4220 C   0  0  0  0  0  0  0  0  0  0  0  0
  -26.5820  -34.8610   22.3940 O   0  0  0  0  0  0  0  0  0  0  0  0
  -24.9780  -34.0680   24.9800 H   0  0  0  0  0  0  0  0  0  0  0  0
  -24.1840  -36.7580   23.0530 C   0  0  0  0  0  1  0  0  0  0  0  0
  -25.4180  -36.3530   23.8750 C   0  0  0  0  0  3  0  0  0  0  0  0
  -27.5440  -37.2380   24.7260 C   0  0  0  0  0  1  0  0  0  0  0  0
  -26.4520  -37.4060   23.7720 N   0  0  0  0  0  0  0  0  0  0  0  0
  -26.0440  -38.3270   23.9150 H   0  0  0  0  0  0  0  0  0  0  0  0
  -30.5820  -17.0900   20.4100 C   0  0  0  0  0  2  0  0  0  0  0  0
  -30.6530  -14.5890   20.3670 C   0  0  0  0  0  0  0  0  0  0  0  0
  -30.3320  -12.3880   19.2930 C   0  0  0  0  0  2  0  0  0  0  0  0
  -29.3930  -12.5620   18.0830 C   0  0  0  0  0  2  0  0  0  0  0  0
  -27.9240  -12.4170   18.5260 C   0  0  0  0  0  2  0  0  0  0  0  0
  -27.5850  -13.2730   19.7750 C   0  0  0  0  0  3  0  0  0  0  0  0
  -28.6510  -13.1180   20.8830 C   0  0  0  0  0  2  0  0  0  0  0  0
  -29.9590  -13.4160   20.2850 N   0  0  0  0  0  0  0  0  0  0  0  0
  -31.8240  -14.6590   19.9870 O   0  0  0  0  0  0  0  0  0  0  0  0
  -29.9720  -15.7410   20.6480 N   0  0  0  0  0  0  0  0  0  0  0  0
  -28.9990  -15.6810   20.9110 H   0  0  0  0  0  0  0  0  0  0  0  0
  -25.1970  -13.8720   20.5090 C   0  0  0  0  0  0  0  0  0  0  0  0
  -24.1310  -13.0990   20.8860 C   0  0  0  0  0  0  0  0  0  0  0  0
  -24.5920  -11.7480   20.8550 C   0  0  0  0  0  0  0  0  0  0  0  0
  -26.2390  -12.9910   20.2710 N   0  0  0  0  0  0  0  0  0  0  0  0
  -25.8810  -11.7080   20.5390 N   0  0  0  0  0  0  0  0  0  0  0  0
  -23.8660  -10.4860   21.0490 C   0  0  0  0  0  0  0  0  0  0  0  0
  -24.3000   -9.5200   21.9850 C   0  0  0  0  0  3  0  0  0  0  0  0
  -23.5730   -8.3240   22.1670 C   0  0  0  0  0  3  0  0  0  0  0  0
  -22.3990   -8.0860   21.4170 C   0  0  0  0  0  0  0  0  0  0  0  0
  -21.9830   -9.0400   20.4700 C   0  0  0  0  0  3  0  0  0  0  0  0
  -22.7120  -10.2270   20.2850 C   0  0  0  0  0  3  0  0  0  0  0  0
  -21.6440   -6.9410   21.5070 O   0  0  0  0  0  0  0  0  0  0  0  0
  -21.5950   -6.2020   22.6620 C   0  0  0  0  0  0  0  0  0  0  0  0
  -21.1600   -6.7580   23.8840 C   0  0  0  0  0  3  0  0  0  0  0  0
  -21.0590   -5.9460   25.0310 C   0  0  0  0  0  3  0  0  0  0  0  0
  -21.3810   -4.5770   24.9570 C   0  0  0  0  0  0  0  0  0  0  0  0
  -21.8080   -4.0210   23.7380 C   0  0  0  0  0  3  0  0  0  0  0  0
  -21.9110   -4.8300   22.5930 C   0  0  0  0  0  0  0  0  0  0  0  0
  -22.3040   -4.2840   21.4180 F   0  0  0  0  0  0  0  0  0  0  0  0
  -21.2750   -3.7950   26.0550 F   0  0  0  0  0  0  0  0  0  0  0  0
  -22.7350  -13.5790   21.1640 C   0  0  0  0  0  0  0  0  0  0  0  0
  -22.0080  -12.8850   22.0320 N   0  0  0  0  0  0  0  0  0  0  0  0
  -22.2970  -14.6050   20.6450 O   0  0  0  0  0  0  0  0  0  0  0  0
  -22.3740  -12.0570   22.4780 H   0  0  0  0  0  0  0  0  0  0  0  0
  -21.0720  -13.1880   22.2570 H   0  0  0  0  0  0  0  0  0  0  0  0
  -25.3600  -15.2430   20.3250 N   0  0  0  0  0  0  0  0  0  0  0  0
  -24.5890  -15.8930   20.4340 H   0  0  0  0  0  0  0  0  0  0  0  0
  -26.2020  -15.6810   19.9740 H   0  0  0  0  0  0  0  0  0  0  0  0
  2  1  1  0
  2  5  1  0
  4  9  1  0
  4  1  1  0
  4  3  1  0
  5 53  1  0
  6  3  1  0
  6  5  1  0
  6  7  1  0
  9  8  1  0
  9 10  1  0
 11 10  1  0
 11 12  1  0
 13 24  2  0
 14 12  1  0
 14 19  1  0
 15 23  1  0
 15 25  1  0
 16 22  1  0
 16 18  1  0
 17 23  1  0
 18 19  2  0
 18 17  1  0
 20 14  2  0
 21 20  1  0
 21 16  2  0
 22 15  1  0
 23 13  1  0
 25 27  2  0
 26 25  1  0
 28 26  1  0
 29 38  2  0
 29 34  1  0
 30 26  1  0
 30 34  1  0
 31 30  1  0
 32 33  1  0
 32 31  1  0
 33 29  1  0
 34 35  2  0
 35 36  1  0
 37 36  2  0
 38 37  1  0
 39 13  1  0
 39 44  1  0
 39 40  1  0
 40 43  1  1
 40 41  1  0
 42 40  1  0
 44 47  1  0
 45 49  1  0
 45 44  1  0
 46 45  2  0
 49 48  1  0
 51 49  1  0
 51 52  1  0
 51 50  1  0
 53 62  1  0
 54 62  1  0
 55 60  1  0
 56 57  1  0
 56 55  1  0
 58 57  1  0
 58 67  1  0
 58 59  1  0
 60 54  1  0
 60 59  1  0
 61 54  2  0
 62 63  1  0
 64 65  2  0
 65 84  1  0
 66 65  1  0
 66 69  1  0
 67 64  1  0
 67 68  1  0
 68 66  2  0
 69 70  1  0
 70 71  2  0
 72 75  1  0
 72 71  1  0
 73 72  2  0
 74 73  1  0
 74 69  2  0
 75 76  1  0
 76 77  1  0
 77 78  2  0
 79 78  1  0
 79 83  1  0
 80 79  2  0
 81 76  2  0
 81 80  1  0
 82 81  1  0
 84 85  1  0
 85 88  1  0
 85 87  1  0
 86 84  2  0
 89 90  1  0
 89 64  1  0
 91 89  1  0
M  ISO  4  11 101  12 101  54 100  62 100
M  END
>  <TORSDO>  (29) 
F 20

>  <SCORE>  (29) 
-13.971

>  <name>  (29) 
29

>  <ligand_id>  (29) 
29

>  <original_smiles>  (29) 
[H]c1c([H])c([H])c2c(c1[H])C([H])([H])C([H])([H])C([H])([H])C2([H])N([H])C(=O)C1([H])N(C(=O)C([H])(N([H])C(=O)C([H])(N([H])C([H])([H])[H])C([H])([H])[H])C(C([H])([H])[H])(C([H])([H])[H])C([H])([H])[H])C([H])([H])c2c([H])c(OC([H])([H])C([H])([H])C([H])(C([H])([H])[H])C3([H])C([H])([H])C([H])([H])C([H])(C([H])([H])N([H])C(=O)N4C([H])([H])C([H])([H])C([H])([H])C([H])(n5nc(-c6c([H])c([H])c(Oc7c([H])c([H])c(F)c([H])c7F)c([H])c6[H])c(C(=O)N([H])[H])c5N([H])[H])C4([H])[H])C([H])(C([H])([H])[H])C3([H])[H])c([H])c([H])c2C1([H])[H]

>  <smiles>  (29) 
[H]c1c([H])c([H])c2c(c1[H])C([H])([H])C([H])([H])C([H])([H])C2([H])N([H])C(=O)C1([H])N(C(=O)C([H])(N([H])C(=O)C([H])(N([H])C([H])([H])[H])C([H])([H])[H])C(C([H])([H])[H])(C([H])([H])[H])C([H])([H])[H])C([H])([H])c2c([H])c(OC([H])([H])C([H])([H])C([H])(C([H])([H])[H])C3([H])C([H])([H])C([H])([H])C([H])(C([H])([H])N([H])C(=O)N4C([H])([H])C([H])([H])C([H])([H])C([H])(n5nc(-c6c([H])c([H])c(Oc7c([H])c([H])c(F)c([H])c7F)c([H])c6[H])c(C(=O)N([H])[H])c5N([H])[H])C4([H])[H])C([H])(C([H])([H])[H])C3([H])[H])c([H])c([H])c2C1([H])[H]

$$$$
30:0:0
     RDKit          3D

 89 97  0  0  1  0  0  0  0  0999 V2000
  -28.1440  -20.3880   21.2160 C   0  0  0  0  0  2  0  0  0  0  0  0
  -29.5790  -22.3750   21.2160 C   0  0  0  0  0  2  0  0  0  0  0  0
  -28.7900  -20.3940   19.8250 C   0  0  0  0  0  3  0  0  0  0  0  0
  -29.0160  -22.3190   19.7910 C   0  0  0  0  0  3  0  0  0  0  0  0
  -28.8460  -21.3930   22.0490 N   0  0  0  0  0  4  0  0  0  0  0  0
  -29.4980  -20.9390   22.6680 H   0  0  0  0  0  0  0  0  0  0  0  0
  -28.1710  -21.8660   22.6300 H   0  0  0  0  0  0  0  0  0  0  0  0
  -30.3560  -15.9250   19.7140 C   0  0  0  0  0  0  0  0  0  0  0  0
  -30.4180  -13.3720   18.9180 C   0  0  0  0  0  2  0  0  0  0  0  0
  -29.4510  -12.9490   17.7760 C   0  0  0  0  0  2  0  0  0  0  0  0
  -28.0680  -12.5840   18.3350 C   0  0  0  0  0  2  0  0  0  0  0  0
  -27.6210  -13.5930   19.4170 C   0  0  0  0  0  3  0  0  0  0  0  0
  -28.7210  -13.9320   20.4500 C   0  0  0  0  0  2  0  0  0  0  0  0
  -29.8370  -14.5560   19.7010 N   0  0  0  0  0  0  0  0  0  0  0  0
  -31.5750  -15.8550   19.4680 O   0  0  0  0  0  0  0  0  0  0  0  0
  -29.8190  -18.8230   19.7620 C   0  0  0  0  0  0  0  0  0  0  0  0
  -29.5840  -17.2820   19.8100 N   0  0  0  0  0  0  0  0  0  0  0  0
  -31.0100  -19.1180   19.6470 O   0  0  0  0  0  0  0  0  0  0  0  0
  -28.6030  -17.0930   19.9290 H   0  0  0  0  0  0  0  0  0  0  0  0
  -25.3400  -14.1100   20.4030 C   0  0  0  0  0  0  0  0  0  0  0  0
  -24.3080  -13.3230   20.8280 C   0  0  0  0  0  0  0  0  0  0  0  0
  -24.7600  -11.9730   20.7030 C   0  0  0  0  0  0  0  0  0  0  0  0
  -26.3500  -13.2420   20.0340 N   0  0  0  0  0  0  0  0  0  0  0  0
  -26.0220  -11.9460   20.2820 N   0  0  0  0  0  0  0  0  0  0  0  0
  -24.0370  -10.7090   20.9020 C   0  0  0  0  0  0  0  0  0  0  0  0
  -24.4770   -9.7430   21.8340 C   0  0  0  0  0  3  0  0  0  0  0  0
  -23.7480   -8.5490   22.0230 C   0  0  0  0  0  3  0  0  0  0  0  0
  -22.5680   -8.3110   21.2800 C   0  0  0  0  0  0  0  0  0  0  0  0
  -22.1480   -9.2650   20.3360 C   0  0  0  0  0  3  0  0  0  0  0  0
  -22.8770  -10.4510   20.1460 C   0  0  0  0  0  3  0  0  0  0  0  0
  -21.8120   -7.1680   21.3790 O   0  0  0  0  0  0  0  0  0  0  0  0
  -21.6930   -6.4820   22.5620 C   0  0  0  0  0  0  0  0  0  0  0  0
  -21.1420   -7.0790   23.7170 C   0  0  0  0  0  3  0  0  0  0  0  0
  -20.9740   -6.3190   24.8900 C   0  0  0  0  0  3  0  0  0  0  0  0
  -21.3470   -4.9610   24.9100 C   0  0  0  0  0  0  0  0  0  0  0  0
  -21.8900   -4.3630   23.7600 C   0  0  0  0  0  3  0  0  0  0  0  0
  -22.0590   -5.1210   22.5880 C   0  0  0  0  0  0  0  0  0  0  0  0
  -22.5640   -4.5350   21.4760 F   0  0  0  0  0  0  0  0  0  0  0  0
  -21.1790   -4.2270   26.0350 F   0  0  0  0  0  0  0  0  0  0  0  0
  -22.9410  -13.7990   21.2240 C   0  0  0  0  0  0  0  0  0  0  0  0
  -22.2850  -13.0880   22.1330 N   0  0  0  0  0  0  0  0  0  0  0  0
  -22.4680  -14.8380   20.7640 O   0  0  0  0  0  0  0  0  0  0  0  0
  -22.6820  -12.2470   22.5260 H   0  0  0  0  0  0  0  0  0  0  0  0
  -21.3710  -13.3880   22.4400 H   0  0  0  0  0  0  0  0  0  0  0  0
  -25.4990  -15.4870   20.2660 N   0  0  0  0  0  0  0  0  0  0  0  0
  -24.7440  -16.1380   20.4560 H   0  0  0  0  0  0  0  0  0  0  0  0
  -26.3000  -15.9250   19.8330 H   0  0  0  0  0  0  0  0  0  0  0  0
  -28.0160  -23.9920   19.5990 C   0  0  0  0  0  2  0  0  0  0  0  0
  -28.1570  -25.7510   19.7480 O   0  0  0  0  0  0  0  0  0  0  0  0
  -24.6260  -31.8400   23.0470 C   0  0  0  0  0  0  0  0  0  0  0  0
  -27.1600  -26.9470   19.7640 C   0  0  0  0  0  0  0  0  0  0  0  0
  -23.4180  -30.4970   21.3780 C   0  0  0  0  0  3  0  0  0  0  0  0
  -24.8540  -28.9410   19.8540 C   0  0  0  0  0  0  0  0  0  0  0  0
  -25.9890  -30.6920   21.1960 C   0  0  0  0  0  2  0  0  0  0  0  0
  -26.0600  -29.2920   20.4730 C   0  0  0  0  0  0  0  0  0  0  0  0
  -27.1950  -28.3250   20.3930 C   0  0  0  0  0  3  0  0  0  0  0  0
  -25.9120  -26.8090   19.1010 C   0  0  0  0  0  3  0  0  0  0  0  0
  -24.8190  -27.7270   19.1450 C   0  0  0  0  0  3  0  0  0  0  0  0
  -23.6330  -29.8670   19.9710 C   0  0  0  0  0  2  0  0  0  0  0  0
  -24.7030  -31.0410   21.9270 N   0  0  0  0  0  0  0  0  0  0  0  0
  -23.5410  -32.0970   23.6000 O   0  0  0  0  0  0  0  0  0  0  0  0
  -22.7430  -29.4650   22.3220 C   0  0  0  0  0  0  0  0  0  0  0  0
  -21.4110  -29.2900   22.2230 N   0  0  0  0  0  0  0  0  0  0  0  0
  -23.4310  -28.8190   23.1180 O   0  0  0  0  0  0  0  0  0  0  0  0
  -20.9040  -29.8600   21.5600 H   0  0  0  0  0  0  0  0  0  0  0  0
  -18.0590  -28.0020   22.7810 C   0  0  0  0  0  0  0  0  0  0  0  0
  -20.6220  -28.3050   22.9740 C   0  0  0  0  0  3  0  0  0  0  0  0
  -20.7260  -26.9010   22.3310 C   0  0  0  0  0  2  0  0  0  0  0  0
  -19.5990  -26.6100   21.3340 C   0  0  0  0  0  2  0  0  0  0  0  0
  -18.2380  -26.6930   22.0290 C   0  0  0  0  0  2  0  0  0  0  0  0
  -19.1780  -28.7650   23.2110 C   0  0  0  0  0  0  0  0  0  0  0  0
  -18.9520  -29.9860   23.8840 C   0  0  0  0  0  3  0  0  0  0  0  0
  -17.6450  -30.4470   24.1250 C   0  0  0  0  0  3  0  0  0  0  0  0
  -16.5410  -29.6810   23.7060 C   0  0  0  0  0  3  0  0  0  0  0  0
  -16.7500  -28.4590   23.0410 C   0  0  0  0  0  3  0  0  0  0  0  0
  -25.8940  -32.4840   23.6840 C   0  0  0  0  0  3  0  0  0  0  0  0
  -25.5660  -33.8730   24.0630 N   0  0  0  0  0  0  0  0  0  0  0  0
  -25.8710  -34.9630   23.3460 C   0  0  0  0  0  0  0  0  0  0  0  0
  -26.5180  -34.9070   22.2980 O   0  0  0  0  0  0  0  0  0  0  0  0
  -24.9840  -33.9870   24.8800 H   0  0  0  0  0  0  0  0  0  0  0  0
  -24.1210  -36.7620   23.1170 C   0  0  0  0  0  1  0  0  0  0  0  0
  -25.3890  -36.3320   23.8730 C   0  0  0  0  0  3  0  0  0  0  0  0
  -27.5320  -37.2180   24.6850 C   0  0  0  0  0  1  0  0  0  0  0  0
  -26.4090  -37.4000   23.7700 N   0  0  0  0  0  0  0  0  0  0  0  0
  -25.9970  -38.3100   23.9550 H   0  0  0  0  0  0  0  0  0  0  0  0
  -26.4200  -31.6950   24.9470 C   0  0  1  0  0  0  0  0  0  0  0  0
  -25.3360  -31.4380   26.0200 C   0  0  0  0  0  1  0  0  0  0  0  0
  -27.0060  -30.3240   24.5440 C   0  0  0  0  0  1  0  0  0  0  0  0
  -27.5740  -32.4820   25.6150 C   0  0  0  0  0  1  0  0  0  0  0  0
  1  5  1  0
  2  5  1  0
  3 16  1  0
  3  1  1  0
  4 48  1  0
  4  3  1  0
  4  2  1  0
  5  7  1  0
  5  6  1  0
  8 17  1  0
  9 14  1  0
 10 11  1  0
 10  9  1  0
 12 11  1  0
 12 23  1  0
 12 13  1  0
 14  8  1  0
 14 13  1  0
 15  8  2  0
 16 17  1  0
 17 19  1  0
 18 16  2  0
 20 21  2  0
 21 40  1  0
 22 21  1  0
 22 25  1  0
 23 24  1  0
 23 20  1  0
 24 22  2  0
 25 26  1  0
 26 27  2  0
 28 31  1  0
 28 27  1  0
 29 28  2  0
 30 29  1  0
 30 25  2  0
 31 32  1  0
 32 37  2  0
 32 33  1  0
 33 34  2  0
 34 35  1  0
 35 39  1  0
 36 35  2  0
 37 36  1  0
 38 37  1  0
 40 41  1  0
 41 44  1  0
 41 43  1  0
 42 40  2  0
 45 20  1  0
 45 46  1  0
 47 45  1  0
 48 49  1  0
 49 51  1  0
 50 61  2  0
 51 56  1  0
 52 60  1  0
 52 62  1  0
 53 59  1  0
 53 55  1  0
 54 60  1  0
 55 54  1  0
 56 55  2  0
 57 58  1  0
 57 51  2  0
 58 53  2  0
 59 52  1  0
 60 50  1  0
 62 64  2  0
 63 62  1  0
 65 63  1  0
 66 75  2  0
 66 71  1  0
 67 63  1  0
 67 71  1  0
 68 67  1  0
 69 70  1  0
 69 68  1  0
 70 66  1  0
 71 72  2  0
 72 73  1  0
 74 73  2  0
 75 74  1  0
 76 50  1  0
 76 77  1  0
 76 86  1  0
 77 80  1  0
 78 82  1  0
 78 77  1  0
 79 78  2  0
 82 81  1  0
 84 82  1  0
 84 85  1  0
 84 83  1  0
 86 89  1  1
 86 87  1  0
 88 86  1  0
M  ISO  4   8 100  17 100  48 101  49 101
M  END
>  <TORSDO>  (30) 
F 17

>  <SCORE>  (30) 
-15.690

>  <name>  (30) 
30

>  <ligand_id>  (30) 
30

>  <original_smiles>  (30) 
[H]c1c([H])c([H])c2c(c1[H])C([H])([H])C([H])([H])C([H])([H])C2([H])N([H])C(=O)C1([H])N(C(=O)C([H])(N([H])C(=O)C([H])(N([H])C([H])([H])[H])C([H])([H])[H])C(C([H])([H])[H])(C([H])([H])[H])C([H])([H])[H])C([H])([H])c2c([H])c(OC([H])([H])C3([H])C([H])(C(=O)N([H])C(=O)N4C([H])([H])C([H])([H])C([H])([H])C([H])(n5nc(-c6c([H])c([H])c(Oc7c([H])c([H])c(F)c([H])c7F)c([H])c6[H])c(C(=O)N([H])[H])c5N([H])[H])C4([H])[H])C([H])([H])[N+]([H])([H])C3([H])[H])c([H])c([H])c2C1([H])[H]

>  <smiles>  (30) 
[H]c1c([H])c([H])c2c(c1[H])C([H])([H])C([H])([H])C([H])([H])C2([H])N([H])C(=O)C1([H])N(C(=O)C([H])(N([H])C(=O)C([H])(N([H])C([H])([H])[H])C([H])([H])[H])C(C([H])([H])[H])(C([H])([H])[H])C([H])([H])[H])C([H])([H])c2c([H])c(OC([H])([H])C3([H])C([H])(C(=O)N([H])C(=O)N4C([H])([H])C([H])([H])C([H])([H])C([H])(n5nc(-c6c([H])c([H])c(Oc7c([H])c([H])c(F)c([H])c7F)c([H])c6[H])c(C(=O)N([H])[H])c5N([H])[H])C4([H])[H])C([H])([H])[N+]([H])([H])C3([H])[H])c([H])c([H])c2C1([H])[H]

$$$$
31:0:0
     RDKit          3D

 92100  0  0  1  0  0  0  0  0999 V2000
  -27.1490  -21.3110   18.5700 C   0  0  0  0  0  3  0  0  0  0  0  0
  -29.0710  -21.4150   17.0910 C   0  0  0  0  0  3  0  0  0  0  0  0
  -27.2680  -22.6940   18.8160 C   0  0  0  0  0  3  0  0  0  0  0  0
  -29.2150  -22.7900   17.3650 C   0  0  0  0  0  3  0  0  0  0  0  0
  -28.0680  -20.6530   17.7290 C   0  0  0  0  0  0  0  0  0  0  0  0
  -28.3220  -23.4410   18.2420 C   0  0  0  0  0  0  0  0  0  0  0  0
  -27.9280  -19.1580   17.4570 C   0  0  0  0  0  2  0  0  0  0  0  0
  -28.4030  -18.1990   18.5910 C   0  0  0  0  0  2  0  0  0  0  0  0
  -30.7790  -18.3220   17.5750 C   0  0  0  0  0  1  0  0  0  0  0  0
  -30.4150  -18.9380   19.9670 C   0  0  0  0  0  1  0  0  0  0  0  0
  -29.9370  -18.0070   18.8340 C   0  0  1  0  0  0  0  0  0  0  0  0
  -30.2820  -16.5230   19.1620 C   0  0  0  0  0  2  0  0  0  0  0  0
  -29.9320  -15.8940   20.5450 C   0  0  0  0  0  2  0  0  0  0  0  0
  -30.6920  -14.5530   20.6800 C   0  0  0  0  0  0  0  0  0  0  0  0
  -30.4400  -12.3380   19.6910 C   0  0  0  0  0  2  0  0  0  0  0  0
  -29.5830  -12.5250   18.4230 C   0  0  0  0  0  2  0  0  0  0  0  0
  -28.0840  -12.4030   18.7630 C   0  0  0  0  0  2  0  0  0  0  0  0
  -27.6700  -13.2850   19.9710 C   0  0  0  0  0  3  0  0  0  0  0  0
  -28.6660  -13.1470   21.1450 C   0  0  0  0  0  2  0  0  0  0  0  0
  -30.0240  -13.3730   20.6440 N   0  0  0  0  0  0  0  0  0  0  0  0
  -31.9140  -14.6090   20.5270 O   0  0  0  0  0  0  0  0  0  0  0  0
  -25.2420  -13.9020   20.5530 C   0  0  0  0  0  0  0  0  0  0  0  0
  -24.1560  -13.1330   20.8800 C   0  0  0  0  0  0  0  0  0  0  0  0
  -24.6230  -11.7830   20.9100 C   0  0  0  0  0  0  0  0  0  0  0  0
  -26.2980  -13.0180   20.3960 N   0  0  0  0  0  0  0  0  0  0  0  0
  -25.9290  -11.7420   20.6740 N   0  0  0  0  0  0  0  0  0  0  0  0
  -23.8920  -10.5220   21.0880 C   0  0  0  0  0  0  0  0  0  0  0  0
  -24.2920   -9.5650   22.0460 C   0  0  0  0  0  3  0  0  0  0  0  0
  -23.5610   -8.3680   22.2100 C   0  0  0  0  0  3  0  0  0  0  0  0
  -22.4150   -8.1230   21.4160 C   0  0  0  0  0  0  0  0  0  0  0  0
  -22.0350   -9.0690   20.4480 C   0  0  0  0  0  3  0  0  0  0  0  0
  -22.7680  -10.2560   20.2830 C   0  0  0  0  0  3  0  0  0  0  0  0
  -21.6570   -6.9790   21.4890 O   0  0  0  0  0  0  0  0  0  0  0  0
  -21.5860   -6.2360   22.6390 C   0  0  0  0  0  0  0  0  0  0  0  0
  -21.1530   -6.7960   23.8630 C   0  0  0  0  0  3  0  0  0  0  0  0
  -21.0260   -5.9800   25.0050 C   0  0  0  0  0  3  0  0  0  0  0  0
  -21.3230   -4.6060   24.9250 C   0  0  0  0  0  0  0  0  0  0  0  0
  -21.7500   -4.0460   23.7090 C   0  0  0  0  0  3  0  0  0  0  0  0
  -21.8770   -4.8590   22.5680 C   0  0  0  0  0  0  0  0  0  0  0  0
  -22.2680   -4.3110   21.3930 F   0  0  0  0  0  0  0  0  0  0  0  0
  -21.1940   -3.8210   26.0200 F   0  0  0  0  0  0  0  0  0  0  0  0
  -22.7450  -13.6110   21.0610 C   0  0  0  0  0  0  0  0  0  0  0  0
  -21.9710  -12.9330   21.9010 N   0  0  0  0  0  0  0  0  0  0  0  0
  -22.3330  -14.6180   20.4910 O   0  0  0  0  0  0  0  0  0  0  0  0
  -22.3130  -12.1150   22.3830 H   0  0  0  0  0  0  0  0  0  0  0  0
  -21.0220  -13.2390   22.0650 H   0  0  0  0  0  0  0  0  0  0  0  0
  -25.4110  -15.2690   20.3570 N   0  0  0  0  0  0  0  0  0  0  0  0
  -24.6350  -15.9220   20.4140 H   0  0  0  0  0  0  0  0  0  0  0  0
  -26.2800  -15.7140   20.0870 H   0  0  0  0  0  0  0  0  0  0  0  0
  -28.4700  -24.9420   18.4990 C   0  0  0  0  0  2  0  0  0  0  0  0
  -28.3530  -25.3570   19.9840 C   0  0  0  0  0  2  0  0  0  0  0  0
  -28.3790  -26.7770   20.1690 O   0  0  0  0  0  0  0  0  0  0  0  0
  -24.5560  -31.9330   23.2540 C   0  0  0  0  0  0  0  0  0  0  0  0
  -27.1820  -27.4640   20.1800 C   0  0  0  0  0  0  0  0  0  0  0  0
  -23.3440  -30.5290   21.6160 C   0  0  0  0  0  3  0  0  0  0  0  0
  -24.7890  -28.9750   20.2070 C   0  0  0  0  0  0  0  0  0  0  0  0
  -25.8750  -30.8650   21.4310 C   0  0  0  0  0  2  0  0  0  0  0  0
  -25.9520  -29.4960   20.7850 C   0  0  0  0  0  0  0  0  0  0  0  0
  -27.1510  -28.7520   20.7610 C   0  0  0  0  0  3  0  0  0  0  0  0
  -25.9900  -26.9440   19.6220 C   0  0  0  0  0  3  0  0  0  0  0  0
  -24.8020  -27.6970   19.6250 C   0  0  0  0  0  3  0  0  0  0  0  0
  -23.5510  -29.8410   20.2450 C   0  0  0  0  0  2  0  0  0  0  0  0
  -24.6090  -31.1250   22.1570 N   0  0  0  0  0  0  0  0  0  0  0  0
  -23.4740  -32.2200   23.7860 O   0  0  0  0  0  0  0  0  0  0  0  0
  -22.6840  -29.5190   22.5820 C   0  0  0  0  0  0  0  0  0  0  0  0
  -21.3580  -29.3500   22.4560 N   0  0  0  0  0  0  0  0  0  0  0  0
  -23.3600  -28.8890   23.3980 O   0  0  0  0  0  0  0  0  0  0  0  0
  -20.8740  -29.9030   21.7630 H   0  0  0  0  0  0  0  0  0  0  0  0
  -17.9700  -28.2040   22.9690 C   0  0  0  0  0  0  0  0  0  0  0  0
  -20.5310  -28.4240   23.2320 C   0  0  0  0  0  3  0  0  0  0  0  0
  -20.6120  -26.9920   22.6520 C   0  0  0  0  0  2  0  0  0  0  0  0
  -19.5020  -26.6860   21.6430 C   0  0  0  0  0  2  0  0  0  0  0  0
  -18.1240  -26.8520   22.2930 C   0  0  0  0  0  2  0  0  0  0  0  0
  -19.1000  -28.9500   23.3940 C   0  0  0  0  0  0  0  0  0  0  0  0
  -18.9020  -30.2190   23.9810 C   0  0  0  0  0  3  0  0  0  0  0  0
  -17.6060  -30.7410   24.1480 C   0  0  0  0  0  3  0  0  0  0  0  0
  -16.4880  -29.9900   23.7420 C   0  0  0  0  0  3  0  0  0  0  0  0
  -16.6730  -28.7240   23.1590 C   0  0  0  0  0  3  0  0  0  0  0  0
  -25.8460  -32.5570   23.8720 C   0  0  0  0  0  3  0  0  0  0  0  0
  -25.5460  -33.9580   24.1950 N   0  0  0  0  0  0  0  0  0  0  0  0
  -25.8960  -35.0030   23.4320 C   0  0  0  0  0  0  0  0  0  0  0  0
  -26.5730  -34.8880   22.4070 O   0  0  0  0  0  0  0  0  0  0  0  0
  -24.9400  -34.1230   24.9840 H   0  0  0  0  0  0  0  0  0  0  0  0
  -24.1860  -36.8090   23.0520 C   0  0  0  0  0  1  0  0  0  0  0  0
  -25.4150  -36.3960   23.8770 C   0  0  0  0  0  3  0  0  0  0  0  0
  -27.5500  -37.2610   24.7260 C   0  0  0  0  0  1  0  0  0  0  0  0
  -26.4580  -37.4400   23.7720 N   0  0  0  0  0  0  0  0  0  0  0  0
  -26.0590  -38.3630   23.9170 H   0  0  0  0  0  0  0  0  0  0  0  0
  -26.3610  -31.7890   25.1520 C   0  0  1  0  0  0  0  0  0  0  0  0
  -25.2680  -31.5570   26.2220 C   0  0  0  0  0  1  0  0  0  0  0  0
  -26.9400  -30.4070   24.7670 C   0  0  0  0  0  1  0  0  0  0  0  0
  -27.5170  -32.5830   25.8070 C   0  0  0  0  0  1  0  0  0  0  0  0
  1  3  1  0
  2  4  2  0
  2  5  1  0
  4  6  1  0
  5  1  2  0
  6 50  1  0
  6  3  2  0
  7  5  1  0
  7  8  1  0
  8 11  1  0
 11  9  1  6
 11 12  1  0
 11 10  1  0
 12 13  1  0
 13 14  1  0
 15 20  1  0
 16 17  1  0
 16 15  1  0
 18 17  1  0
 18 25  1  0
 18 19  1  0
 20 14  1  0
 20 19  1  0
 21 14  2  0
 22 23  2  0
 23 24  1  0
 23 42  1  0
 24 27  1  0
 25 22  1  0
 25 26  1  0
 26 24  2  0
 27 28  1  0
 28 29  2  0
 30 33  1  0
 30 29  1  0
 31 30  2  0
 32 31  1  0
 32 27  2  0
 33 34  1  0
 34 35  1  0
 35 36  2  0
 37 36  1  0
 37 41  1  0
 38 37  2  0
 39 34  2  0
 39 38  1  0
 40 39  1  0
 42 43  1  0
 43 46  1  0
 43 45  1  0
 44 42  2  0
 47 48  1  0
 47 22  1  0
 49 47  1  0
 50 51  1  0
 51 52  1  0
 52 54  1  0
 53 64  2  0
 54 59  1  0
 55 63  1  0
 55 65  1  0
 56 62  1  0
 56 58  1  0
 57 63  1  0
 58 57  1  0
 59 58  2  0
 60 61  1  0
 60 54  2  0
 61 56  2  0
 62 55  1  0
 63 53  1  0
 65 67  2  0
 66 65  1  0
 68 66  1  0
 69 78  2  0
 69 74  1  0
 70 66  1  0
 70 74  1  0
 71 70  1  0
 72 73  1  0
 72 71  1  0
 73 69  1  0
 74 75  2  0
 75 76  1  0
 77 76  2  0
 78 77  1  0
 79 53  1  0
 79 80  1  0
 79 89  1  0
 80 83  1  0
 81 85  1  0
 81 80  1  0
 82 81  2  0
 85 84  1  0
 87 85  1  0
 87 88  1  0
 87 86  1  0
 89 92  1  1
 89 90  1  0
 91 89  1  0
M  ISO  4  13 100  14 100  51 101  52 101
M  END
>  <TORSDO>  (31) 
F 23

>  <SCORE>  (31) 
-12.963

>  <name>  (31) 
31

>  <ligand_id>  (31) 
31

>  <original_smiles>  (31) 
[H]c1c([H])c([H])c2c(c1[H])C([H])([H])C([H])([H])C([H])([H])C2([H])N([H])C(=O)C1([H])N(C(=O)C([H])(N([H])C(=O)C([H])(N([H])C([H])([H])[H])C([H])([H])[H])C(C([H])([H])[H])(C([H])([H])[H])C([H])([H])[H])C([H])([H])c2c([H])c(OC([H])([H])C([H])([H])c3c([H])c([H])c(C([H])([H])C([H])([H])C(C([H])([H])[H])(C([H])([H])[H])C([H])([H])C([H])([H])C(=O)N4C([H])([H])C([H])([H])C([H])([H])C([H])(n5nc(-c6c([H])c([H])c(Oc7c([H])c([H])c(F)c([H])c7F)c([H])c6[H])c(C(=O)N([H])[H])c5N([H])[H])C4([H])[H])c([H])c3[H])c([H])c([H])c2C1([H])[H]

>  <smiles>  (31) 
[H]c1c([H])c([H])c2c(c1[H])C([H])([H])C([H])([H])C([H])([H])C2([H])N([H])C(=O)C1([H])N(C(=O)C([H])(N([H])C(=O)C([H])(N([H])C([H])([H])[H])C([H])([H])[H])C(C([H])([H])[H])(C([H])([H])[H])C([H])([H])[H])C([H])([H])c2c([H])c(OC([H])([H])C([H])([H])c3c([H])c([H])c(C([H])([H])C([H])([H])C(C([H])([H])[H])(C([H])([H])[H])C([H])([H])C([H])([H])C(=O)N4C([H])([H])C([H])([H])C([H])([H])C([H])(n5nc(-c6c([H])c([H])c(Oc7c([H])c([H])c(F)c([H])c7F)c([H])c6[H])c(C(=O)N([H])[H])c5N([H])[H])C4([H])[H])c([H])c3[H])c([H])c([H])c2C1([H])[H]

$$$$
32:0:0
     RDKit          3D

 87 94  0  0  1  0  0  0  0  0999 V2000
  -28.9570  -21.1940   19.9550 C   0  0  0  0  0  3  0  0  0  0  0  0
  -28.7290  -22.8340   20.6270 C   0  0  0  0  0  3  0  0  0  0  0  0
  -28.0800  -24.3580   19.9620 C   0  0  0  0  0  3  0  0  0  0  0  0
  -28.1890  -25.9400   20.3610 O   0  0  0  0  0  0  0  0  0  0  0  0
  -24.6030  -31.8700   23.2340 C   0  0  0  0  0  0  0  0  0  0  0  0
  -27.1710  -27.0130   20.2430 C   0  0  0  0  0  0  0  0  0  0  0  0
  -23.4130  -30.4670   21.5950 C   0  0  0  0  0  3  0  0  0  0  0  0
  -24.8670  -28.8650   20.1800 C   0  0  0  0  0  0  0  0  0  0  0  0
  -25.9770  -30.6880   21.4550 C   0  0  0  0  0  2  0  0  0  0  0  0
  -26.0490  -29.2800   20.8050 C   0  0  0  0  0  0  0  0  0  0  0  0
  -27.1930  -28.3720   20.8180 C   0  0  0  0  0  3  0  0  0  0  0  0
  -25.9660  -26.7450   19.5550 C   0  0  0  0  0  3  0  0  0  0  0  0
  -24.8490  -27.6180   19.5350 C   0  0  0  0  0  3  0  0  0  0  0  0
  -23.6460  -29.7810   20.2210 C   0  0  0  0  0  2  0  0  0  0  0  0
  -24.6860  -31.0350   22.1480 N   0  0  0  0  0  0  0  0  0  0  0  0
  -23.5130  -32.1610   23.7510 O   0  0  0  0  0  0  0  0  0  0  0  0
  -22.7190  -29.4740   22.5610 C   0  0  0  0  0  0  0  0  0  0  0  0
  -21.3900  -29.3050   22.4310 N   0  0  0  0  0  0  0  0  0  0  0  0
  -23.3820  -28.8550   23.3980 O   0  0  0  0  0  0  0  0  0  0  0  0
  -20.9080  -29.8570   21.7340 H   0  0  0  0  0  0  0  0  0  0  0  0
  -18.0090  -28.0880   22.9190 C   0  0  0  0  0  0  0  0  0  0  0  0
  -20.5640  -28.3710   23.2030 C   0  0  0  0  0  3  0  0  0  0  0  0
  -20.6790  -26.9340   22.6440 C   0  0  0  0  0  2  0  0  0  0  0  0
  -19.5880  -26.5960   21.6230 C   0  0  0  0  0  2  0  0  0  0  0  0
  -18.2000  -26.7350   22.2540 C   0  0  0  0  0  2  0  0  0  0  0  0
  -19.1180  -28.8630   23.3520 C   0  0  0  0  0  0  0  0  0  0  0  0
  -18.8830  -30.1250   23.9370 C   0  0  0  0  0  3  0  0  0  0  0  0
  -17.5740  -30.6150   24.0940 C   0  0  0  0  0  3  0  0  0  0  0  0
  -16.4790  -29.8390   23.6750 C   0  0  0  0  0  3  0  0  0  0  0  0
  -16.6970  -28.5770   23.0950 C   0  0  0  0  0  3  0  0  0  0  0  0
  -25.8740  -32.5130   23.8670 C   0  0  0  0  0  3  0  0  0  0  0  0
  -25.5600  -33.9170   24.1830 N   0  0  0  0  0  0  0  0  0  0  0  0
  -25.9050  -34.9690   23.4280 C   0  0  0  0  0  0  0  0  0  0  0  0
  -26.5810  -34.8600   22.4040 O   0  0  0  0  0  0  0  0  0  0  0  0
  -24.9590  -34.0760   24.9780 H   0  0  0  0  0  0  0  0  0  0  0  0
  -24.1900  -36.7780   23.0620 C   0  0  0  0  0  1  0  0  0  0  0  0
  -25.4230  -36.3640   23.8810 C   0  0  0  0  0  3  0  0  0  0  0  0
  -27.5560  -37.2430   24.7260 C   0  0  0  0  0  1  0  0  0  0  0  0
  -26.4630  -37.4110   23.7720 N   0  0  0  0  0  0  0  0  0  0  0  0
  -26.0600  -38.3340   23.9110 H   0  0  0  0  0  0  0  0  0  0  0  0
  -26.3670  -31.7610   25.1650 C   0  0  1  0  0  0  0  0  0  0  0  0
  -25.2590  -31.5490   26.2220 C   0  0  0  0  0  1  0  0  0  0  0  0
  -26.9480  -30.3720   24.8130 C   0  0  0  0  0  1  0  0  0  0  0  0
  -27.5150  -32.5580   25.8290 C   0  0  0  0  0  1  0  0  0  0  0  0
  -29.2130  -19.5660   20.6570 C   0  0  0  0  0  3  0  0  0  0  0  0
  -29.8740  -18.0510   19.9780 C   0  0  0  0  0  3  0  0  0  0  0  0
  -30.4590  -15.2400   20.2760 C   0  0  0  0  0  0  0  0  0  0  0  0
  -30.4050  -12.8170   19.3880 C   0  0  0  0  0  2  0  0  0  0  0  0
  -29.4850  -12.6720   18.1490 C   0  0  0  0  0  2  0  0  0  0  0  0
  -28.0310  -12.4170   18.5800 C   0  0  0  0  0  2  0  0  0  0  0  0
  -27.5940  -13.3610   19.7290 C   0  0  0  0  0  3  0  0  0  0  0  0
  -28.6410  -13.4620   20.8600 C   0  0  0  0  0  2  0  0  0  0  0  0
  -29.8870  -13.9430   20.2450 N   0  0  0  0  0  0  0  0  0  0  0  0
  -31.6570  -15.2590   19.9640 O   0  0  0  0  0  0  0  0  0  0  0  0
  -29.7160  -16.4890   20.4820 N   0  0  0  0  0  0  0  0  0  0  0  0
  -28.7520  -16.2940   20.7080 H   0  0  0  0  0  0  0  0  0  0  0  0
  -25.2150  -13.9160   20.4680 C   0  0  0  0  0  0  0  0  0  0  0  0
  -24.1560  -13.1360   20.8400 C   0  0  0  0  0  0  0  0  0  0  0  0
  -24.6290  -11.7870   20.8140 C   0  0  0  0  0  0  0  0  0  0  0  0
  -26.2620  -13.0440   20.2310 N   0  0  0  0  0  0  0  0  0  0  0  0
  -25.9220  -11.7570   20.5070 N   0  0  0  0  0  0  0  0  0  0  0  0
  -23.9060  -10.5220   21.0060 C   0  0  0  0  0  0  0  0  0  0  0  0
  -24.3340   -9.5600   21.9470 C   0  0  0  0  0  3  0  0  0  0  0  0
  -23.6080   -8.3620   22.1270 C   0  0  0  0  0  3  0  0  0  0  0  0
  -22.4400   -8.1190   21.3670 C   0  0  0  0  0  0  0  0  0  0  0  0
  -22.0310   -9.0690   20.4150 C   0  0  0  0  0  3  0  0  0  0  0  0
  -22.7580  -10.2580   20.2330 C   0  0  0  0  0  3  0  0  0  0  0  0
  -21.6860   -6.9730   21.4560 O   0  0  0  0  0  0  0  0  0  0  0  0
  -21.6290   -6.2370   22.6130 C   0  0  0  0  0  0  0  0  0  0  0  0
  -21.1830   -6.7970   23.8300 C   0  0  0  0  0  3  0  0  0  0  0  0
  -21.0730   -5.9880   24.9790 C   0  0  0  0  0  3  0  0  0  0  0  0
  -21.3990   -4.6200   24.9100 C   0  0  0  0  0  0  0  0  0  0  0  0
  -21.8380   -4.0600   23.6980 C   0  0  0  0  0  3  0  0  0  0  0  0
  -21.9490   -4.8660   22.5520 C   0  0  0  0  0  0  0  0  0  0  0  0
  -22.3520   -4.3160   21.3810 F   0  0  0  0  0  0  0  0  0  0  0  0
  -21.2860   -3.8400   26.0120 F   0  0  0  0  0  0  0  0  0  0  0  0
  -22.7570  -13.6070   21.1000 C   0  0  0  0  0  0  0  0  0  0  0  0
  -22.0250  -12.9110   21.9630 N   0  0  0  0  0  0  0  0  0  0  0  0
  -22.3200  -14.6310   20.5750 O   0  0  0  0  0  0  0  0  0  0  0  0
  -22.3930  -12.0830   22.4090 H   0  0  0  0  0  0  0  0  0  0  0  0
  -21.0850  -13.2100   22.1810 H   0  0  0  0  0  0  0  0  0  0  0  0
  -25.3700  -15.2860   20.2830 N   0  0  0  0  0  0  0  0  0  0  0  0
  -24.5890  -15.9270   20.3710 H   0  0  0  0  0  0  0  0  0  0  0  0
  -26.1870  -15.7190   19.8660 H   0  0  0  0  0  0  0  0  0  0  0  0
  -29.2820  -17.9430   18.5730 C   0  0  0  0  0  0  0  0  0  0  0  0
  -29.9930  -18.2500   17.5950 O   0  0  0  0  0  0  0  0  0  0  0  0
  -28.1230  -17.4950   18.4620 O   0  0  0  0  0  1  0  0  0  0  0  0
  1  2  1  0
  1 45  2  0
  3  4  1  0
  3  2  2  0
  5 16  2  0
  6  4  1  0
  6 11  1  0
  7 15  1  0
  7 17  1  0
  8 14  1  0
  8 10  1  0
  9 15  1  0
 10 11  2  0
 10  9  1  0
 12  6  2  0
 13 12  1  0
 13  8  2  0
 14  7  1  0
 15  5  1  0
 17 19  2  0
 18 17  1  0
 20 18  1  0
 21 30  2  0
 21 26  1  0
 22 18  1  0
 22 26  1  0
 23 22  1  0
 24 25  1  0
 24 23  1  0
 25 21  1  0
 26 27  2  0
 27 28  1  0
 29 28  2  0
 30 29  1  0
 31  5  1  0
 31 32  1  0
 31 41  1  0
 32 35  1  0
 33 37  1  0
 33 32  1  0
 34 33  2  0
 37 36  1  0
 39 37  1  0
 39 40  1  0
 39 38  1  0
 41 44  1  1
 41 42  1  0
 43 41  1  0
 46 55  1  0
 46 45  1  0
 47 55  1  0
 48 53  1  0
 49 50  1  0
 49 48  1  0
 51 50  1  0
 51 60  1  0
 51 52  1  0
 53 47  1  0
 53 52  1  0
 54 47  2  0
 55 56  1  0
 57 58  2  0
 58 77  1  0
 59 58  1  0
 59 62  1  0
 60 57  1  0
 60 61  1  0
 61 59  2  0
 62 63  1  0
 63 64  2  0
 65 68  1  0
 65 64  1  0
 66 65  2  0
 67 66  1  0
 67 62  2  0
 68 69  1  0
 69 70  1  0
 70 71  2  0
 72 71  1  0
 72 76  1  0
 73 72  2  0
 74 69  2  0
 74 73  1  0
 75 74  1  0
 77 78  1  0
 78 81  1  0
 78 80  1  0
 79 77  2  0
 82 83  1  0
 82 57  1  0
 84 82  1  0
 85 46  1  0
 86 85  2  0
 87 85  1  0
M  ISO  4   3 101   4 101  47 100  55 100
M  END
>  <TORSDO>  (32) 
F 21

>  <SCORE>  (32) 
-15.143

>  <name>  (32) 
32

>  <ligand_id>  (32) 
32

>  <original_smiles>  (32) 
[H]c1c([H])c([H])c2c(c1[H])C([H])([H])C([H])([H])C([H])([H])C2([H])N([H])C(=O)C1([H])N(C(=O)C([H])(N([H])C(=O)C([H])(N([H])C([H])([H])[H])C([H])([H])[H])C(C([H])([H])[H])(C([H])([H])[H])C([H])([H])[H])C([H])([H])c2c([H])c(OC([H])([H])C([H])([H])C([H])([H])C([H])([H])C([H])(C(=O)[O-])N([H])C(=O)N3C([H])([H])C([H])([H])C([H])([H])C([H])(n4nc(-c5c([H])c([H])c(Oc6c([H])c([H])c(F)c([H])c6F)c([H])c5[H])c(C(=O)N([H])[H])c4N([H])[H])C3([H])[H])c([H])c([H])c2C1([H])[H]

>  <smiles>  (32) 
[H]c1c([H])c([H])c2c(c1[H])C([H])([H])C([H])([H])C([H])([H])C2([H])N([H])C(=O)C1([H])N(C(=O)C([H])(N([H])C(=O)C([H])(N([H])C([H])([H])[H])C([H])([H])[H])C(C([H])([H])[H])(C([H])([H])[H])C([H])([H])[H])C([H])([H])c2c([H])c(OC([H])([H])C([H])([H])C([H])([H])C([H])([H])C([H])(C(=O)[O-])N([H])C(=O)N3C([H])([H])C([H])([H])C([H])([H])C([H])(n4nc(-c5c([H])c([H])c(Oc6c([H])c([H])c(F)c([H])c6F)c([H])c5[H])c(C(=O)N([H])[H])c4N([H])[H])C3([H])[H])c([H])c([H])c2C1([H])[H]

$$$$
33:0:0
     RDKit          3D

 88 95  0  0  1  0  0  0  0  0999 V2000
  -29.0850  -21.4730   19.9630 N   0  0  0  0  0  4  0  0  0  0  0  0
  -29.9730  -21.6420   19.5140 H   0  0  0  0  0  0  0  0  0  0  0  0
  -28.4300  -21.3200   19.2130 H   0  0  0  0  0  0  0  0  0  0  0  0
  -28.6840  -22.9290   20.6380 C   0  0  0  0  0  2  0  0  0  0  0  0
  -28.2370  -24.4500   19.8500 C   0  0  0  0  0  2  0  0  0  0  0  0
  -28.2260  -26.0050   20.3240 O   0  0  0  0  0  0  0  0  0  0  0  0
  -24.6110  -31.8690   23.2170 C   0  0  0  0  0  0  0  0  0  0  0  0
  -27.1840  -27.0450   20.2010 C   0  0  0  0  0  0  0  0  0  0  0  0
  -23.4180  -30.4700   21.5770 C   0  0  0  0  0  3  0  0  0  0  0  0
  -24.8690  -28.8760   20.1540 C   0  0  0  0  0  0  0  0  0  0  0  0
  -25.9800  -30.6990   21.4300 C   0  0  0  0  0  2  0  0  0  0  0  0
  -26.0490  -29.2960   20.7780 C   0  0  0  0  0  0  0  0  0  0  0  0
  -27.1980  -28.3950   20.7890 C   0  0  0  0  0  3  0  0  0  0  0  0
  -25.9760  -26.7630   19.5210 C   0  0  0  0  0  3  0  0  0  0  0  0
  -24.8530  -27.6290   19.5090 C   0  0  0  0  0  3  0  0  0  0  0  0
  -23.6480  -29.7910   20.1990 C   0  0  0  0  0  2  0  0  0  0  0  0
  -24.6900  -31.0400   22.1300 N   0  0  0  0  0  0  0  0  0  0  0  0
  -23.5210  -32.1590   23.7400 O   0  0  0  0  0  0  0  0  0  0  0  0
  -22.7310  -29.4700   22.5420 C   0  0  0  0  0  0  0  0  0  0  0  0
  -21.4010  -29.3030   22.4200 N   0  0  0  0  0  0  0  0  0  0  0  0
  -23.4000  -28.8440   23.3680 O   0  0  0  0  0  0  0  0  0  0  0  0
  -20.9130  -29.8560   21.7290 H   0  0  0  0  0  0  0  0  0  0  0  0
  -18.0250  -28.0850   22.9210 C   0  0  0  0  0  0  0  0  0  0  0  0
  -20.5820  -28.3670   23.1960 C   0  0  0  0  0  3  0  0  0  0  0  0
  -20.6950  -26.9310   22.6330 C   0  0  0  0  0  2  0  0  0  0  0  0
  -19.6020  -26.5930   21.6160 C   0  0  0  0  0  2  0  0  0  0  0  0
  -18.2130  -26.7340   22.2500 C   0  0  0  0  0  2  0  0  0  0  0  0
  -19.1370  -28.8570   23.3510 C   0  0  0  0  0  0  0  0  0  0  0  0
  -18.9030  -30.1200   23.9350 C   0  0  0  0  0  3  0  0  0  0  0  0
  -17.5930  -30.6100   24.0980 C   0  0  0  0  0  3  0  0  0  0  0  0
  -16.4980  -29.8350   23.6800 C   0  0  0  0  0  3  0  0  0  0  0  0
  -16.7130  -28.5740   23.0990 C   0  0  0  0  0  3  0  0  0  0  0  0
  -25.8850  -32.5120   23.8450 C   0  0  0  0  0  3  0  0  0  0  0  0
  -26.3920  -31.7530   25.1330 C   0  0  1  0  0  0  0  0  0  0  0  0
  -25.2930  -31.5320   26.1980 C   0  0  0  0  0  1  0  0  0  0  0  0
  -26.9740  -30.3680   24.7650 C   0  0  0  0  0  1  0  0  0  0  0  0
  -27.5420  -32.5500   25.7940 C   0  0  0  0  0  1  0  0  0  0  0  0
  -25.5720  -33.9120   24.1730 N   0  0  0  0  0  0  0  0  0  0  0  0
  -25.9070  -34.9710   23.4240 C   0  0  0  0  0  0  0  0  0  0  0  0
  -26.5750  -34.8720   22.3920 O   0  0  0  0  0  0  0  0  0  0  0  0
  -24.9830  -34.0650   24.9790 H   0  0  0  0  0  0  0  0  0  0  0  0
  -24.1850  -36.7750   23.0820 C   0  0  0  0  0  1  0  0  0  0  0  0
  -25.4240  -36.3590   23.8910 C   0  0  0  0  0  3  0  0  0  0  0  0
  -27.5600  -37.2420   24.7230 C   0  0  0  0  0  1  0  0  0  0  0  0
  -26.4580  -37.4120   23.7800 N   0  0  0  0  0  0  0  0  0  0  0  0
  -26.0500  -38.3300   23.9310 H   0  0  0  0  0  0  0  0  0  0  0  0
  -29.2590  -19.9980   20.6890 C   0  0  0  0  0  3  0  0  0  0  0  0
  -30.0840  -20.2770   21.9510 C   0  0  0  0  0  3  0  0  0  0  0  0
  -31.1650  -20.8740   21.9480 O   0  0  0  0  0  0  0  0  0  0  0  0
  -31.2420  -18.6670   19.4370 C   0  0  0  0  0  1  0  0  0  0  0  0
  -29.8160  -18.4480   19.9820 C   0  0  0  0  0  3  0  0  0  0  0  0
  -29.7600  -16.7880   20.6430 C   0  0  0  0  0  2  0  0  0  0  0  0
  -30.5070  -15.2700   20.2220 C   0  0  0  0  0  0  0  0  0  0  0  0
  -30.4630  -12.8470   19.3110 C   0  0  0  0  0  2  0  0  0  0  0  0
  -29.5300  -12.6960   18.0810 C   0  0  0  0  0  2  0  0  0  0  0  0
  -28.0800  -12.4310   18.5190 C   0  0  0  0  0  2  0  0  0  0  0  0
  -27.6450  -13.3780   19.6650 C   0  0  0  0  0  3  0  0  0  0  0  0
  -28.6990  -13.4880   20.7880 C   0  0  0  0  0  2  0  0  0  0  0  0
  -29.9520  -13.9650   20.1820 N   0  0  0  0  0  0  0  0  0  0  0  0
  -31.6980  -15.2830   19.8820 O   0  0  0  0  0  0  0  0  0  0  0  0
  -25.2690  -13.9330   20.4100 C   0  0  0  0  0  0  0  0  0  0  0  0
  -24.2120  -13.1540   20.7880 C   0  0  0  0  0  0  0  0  0  0  0  0
  -24.6870  -11.8060   20.7730 C   0  0  0  0  0  0  0  0  0  0  0  0
  -26.3180  -13.0620   20.1750 N   0  0  0  0  0  0  0  0  0  0  0  0
  -25.9810  -11.7780   20.4650 N   0  0  0  0  0  0  0  0  0  0  0  0
  -23.9700  -10.5400   20.9760 C   0  0  0  0  0  0  0  0  0  0  0  0
  -24.4080   -9.5840   21.9180 C   0  0  0  0  0  3  0  0  0  0  0  0
  -23.6880   -8.3850   22.1110 C   0  0  0  0  0  3  0  0  0  0  0  0
  -22.5140   -8.1330   21.3610 C   0  0  0  0  0  0  0  0  0  0  0  0
  -22.0940   -9.0780   20.4080 C   0  0  0  0  0  3  0  0  0  0  0  0
  -22.8150  -10.2680   20.2140 C   0  0  0  0  0  3  0  0  0  0  0  0
  -21.7660   -6.9850   21.4620 O   0  0  0  0  0  0  0  0  0  0  0  0
  -21.7270   -6.2500   22.6200 C   0  0  0  0  0  0  0  0  0  0  0  0
  -21.3060   -6.8110   23.8440 C   0  0  0  0  0  3  0  0  0  0  0  0
  -21.2170   -6.0020   24.9950 C   0  0  0  0  0  3  0  0  0  0  0  0
  -21.5360   -4.6320   24.9210 C   0  0  0  0  0  0  0  0  0  0  0  0
  -21.9490   -4.0720   23.6990 C   0  0  0  0  0  3  0  0  0  0  0  0
  -22.0410   -4.8770   22.5510 C   0  0  0  0  0  0  0  0  0  0  0  0
  -22.4190   -4.3270   21.3730 F   0  0  0  0  0  0  0  0  0  0  0  0
  -21.4410   -3.8540   26.0230 F   0  0  0  0  0  0  0  0  0  0  0  0
  -22.8100  -13.6230   21.0490 C   0  0  0  0  0  0  0  0  0  0  0  0
  -22.0860  -12.9330   21.9200 N   0  0  0  0  0  0  0  0  0  0  0  0
  -22.3660  -14.6390   20.5130 O   0  0  0  0  0  0  0  0  0  0  0  0
  -22.4590  -12.1120   22.3740 H   0  0  0  0  0  0  0  0  0  0  0  0
  -21.1450  -13.2270   22.1410 H   0  0  0  0  0  0  0  0  0  0  0  0
  -25.4190  -15.3030   20.2160 N   0  0  0  0  0  0  0  0  0  0  0  0
  -24.6400  -15.9470   20.3100 H   0  0  0  0  0  0  0  0  0  0  0  0
  -26.2620  -15.7450   19.8740 H   0  0  0  0  0  0  0  0  0  0  0  0
  1  4  1  0
  1 47  1  0
  2  1  1  0
  3  1  1  0
  5  6  1  0
  5  4  1  0
  7 18  2  0
  8  6  1  0
  8 13  1  0
  9 17  1  0
  9 19  1  0
 10 16  1  0
 10 12  1  0
 11 17  1  0
 12 13  2  0
 12 11  1  0
 14  8  2  0
 15 14  1  0
 15 10  2  0
 16  9  1  0
 17  7  1  0
 19 21  2  0
 20 19  1  0
 22 20  1  0
 23 32  2  0
 23 28  1  0
 24 20  1  0
 24 28  1  0
 25 24  1  0
 26 27  1  0
 26 25  1  0
 27 23  1  0
 28 29  2  0
 29 30  1  0
 31 30  2  0
 32 31  1  0
 33  7  1  0
 33 38  1  0
 33 34  1  0
 34 37  1  1
 34 35  1  0
 36 34  1  0
 38 41  1  0
 39 43  1  0
 39 38  1  0
 40 39  2  0
 43 42  1  0
 45 43  1  0
 45 46  1  0
 45 44  1  0
 47 48  1  0
 49 48  2  0
 51 50  1  0
 51 52  1  0
 51 47  1  0
 53 52  1  0
 54 59  1  0
 55 56  1  0
 55 54  1  0
 57 56  1  0
 57 64  1  0
 57 58  1  0
 59 53  1  0
 59 58  1  0
 60 53  2  0
 61 62  2  0
 62 81  1  0
 63 62  1  0
 63 66  1  0
 64 61  1  0
 64 65  1  0
 65 63  2  0
 66 67  1  0
 67 68  2  0
 69 72  1  0
 69 68  1  0
 70 69  2  0
 71 70  1  0
 71 66  2  0
 72 73  1  0
 73 74  1  0
 74 75  2  0
 76 75  1  0
 76 80  1  0
 77 76  2  0
 78 73  2  0
 78 77  1  0
 79 78  1  0
 81 82  1  0
 82 85  1  0
 82 84  1  0
 83 81  2  0
 86 87  1  0
 86 61  1  0
 88 86  1  0
M  ISO  4   5 101   6 101  52 100  53 100
M  END
>  <TORSDO>  (33) 
F 22

>  <SCORE>  (33) 
-14.740

>  <name>  (33) 
33

>  <ligand_id>  (33) 
33

>  <original_smiles>  (33) 
[H]C(=O)C([H])(C([H])(C([H])([H])[H])C([H])([H])C(=O)N1C([H])([H])C([H])([H])C([H])([H])C([H])(n2nc(-c3c([H])c([H])c(Oc4c([H])c([H])c(F)c([H])c4F)c([H])c3[H])c(C(=O)N([H])[H])c2N([H])[H])C1([H])[H])[N+]([H])([H])C([H])([H])C([H])([H])Oc1c([H])c([H])c2c(c1[H])C([H])([H])N(C(=O)C([H])(N([H])C(=O)C([H])(N([H])C([H])([H])[H])C([H])([H])[H])C(C([H])([H])[H])(C([H])([H])[H])C([H])([H])[H])C([H])(C(=O)N([H])C1([H])c3c([H])c([H])c([H])c([H])c3C([H])([H])C([H])([H])C1([H])[H])C2([H])[H]

>  <smiles>  (33) 
[H]C(=O)C([H])(C([H])(C([H])([H])[H])C([H])([H])C(=O)N1C([H])([H])C([H])([H])C([H])([H])C([H])(n2nc(-c3c([H])c([H])c(Oc4c([H])c([H])c(F)c([H])c4F)c([H])c3[H])c(C(=O)N([H])[H])c2N([H])[H])C1([H])[H])[N+]([H])([H])C([H])([H])C([H])([H])Oc1c([H])c([H])c2c(c1[H])C([H])([H])N(C(=O)C([H])(N([H])C(=O)C([H])(N([H])C([H])([H])[H])C([H])([H])[H])C(C([H])([H])[H])(C([H])([H])[H])C([H])([H])[H])C([H])(C(=O)N([H])C1([H])c3c([H])c([H])c([H])c([H])c3C([H])([H])C([H])([H])C1([H])[H])C2([H])[H]

$$$$
34:0:0
     RDKit          3D

 85 92  0  0  1  0  0  0  0  0999 V2000
  -29.1120  -22.2240   20.0470 C   0  0  0  0  0  3  0  0  0  0  0  0
  -27.7130  -19.9440   20.7460 C   0  0  0  0  0  1  0  0  0  0  0  0
  -28.9040  -20.2920   19.8430 C   0  0  0  0  0  3  0  0  0  0  0  0
  -30.5040  -15.8390   19.9080 C   0  0  0  0  0  0  0  0  0  0  0  0
  -30.6110  -13.2670   19.1820 C   0  0  0  0  0  2  0  0  0  0  0  0
  -29.6950  -12.8110   18.0120 C   0  0  0  0  0  2  0  0  0  0  0  0
  -28.2910  -12.4510   18.5220 C   0  0  0  0  0  2  0  0  0  0  0  0
  -27.7950  -13.4780   19.5650 C   0  0  0  0  0  3  0  0  0  0  0  0
  -28.8520  -13.8540   20.6300 C   0  0  0  0  0  2  0  0  0  0  0  0
  -29.9920  -14.4660   19.9100 N   0  0  0  0  0  0  0  0  0  0  0  0
  -31.7320  -15.7690   19.7100 O   0  0  0  0  0  0  0  0  0  0  0  0
  -29.9530  -18.7340   19.8420 C   0  0  0  0  0  0  0  0  0  0  0  0
  -29.7260  -17.1950   19.9370 N   0  0  0  0  0  0  0  0  0  0  0  0
  -31.1420  -19.0380   19.7270 O   0  0  0  0  0  0  0  0  0  0  0  0
  -28.7410  -17.0110   20.0390 H   0  0  0  0  0  0  0  0  0  0  0  0
  -25.4790  -13.9980   20.4620 C   0  0  0  0  0  0  0  0  0  0  0  0
  -24.4330  -13.2140   20.8570 C   0  0  0  0  0  0  0  0  0  0  0  0
  -24.8920  -11.8630   20.7610 C   0  0  0  0  0  0  0  0  0  0  0  0
  -26.5040  -13.1290   20.1410 N   0  0  0  0  0  0  0  0  0  0  0  0
  -26.1690  -11.8350   20.3880 N   0  0  0  0  0  0  0  0  0  0  0  0
  -24.1650  -10.6000   20.9480 C   0  0  0  0  0  0  0  0  0  0  0  0
  -24.5790   -9.6400   21.8970 C   0  0  0  0  0  3  0  0  0  0  0  0
  -23.8490   -8.4450   22.0740 C   0  0  0  0  0  3  0  0  0  0  0  0
  -22.6900   -8.2000   21.2990 C   0  0  0  0  0  0  0  0  0  0  0  0
  -22.2950   -9.1480   20.3390 C   0  0  0  0  0  3  0  0  0  0  0  0
  -23.0250  -10.3340   20.1620 C   0  0  0  0  0  3  0  0  0  0  0  0
  -21.9320   -7.0560   21.3840 O   0  0  0  0  0  0  0  0  0  0  0  0
  -21.7940   -6.3690   22.5640 C   0  0  0  0  0  0  0  0  0  0  0  0
  -21.2090   -6.9590   23.7050 C   0  0  0  0  0  3  0  0  0  0  0  0
  -21.0240   -6.1960   24.8750 C   0  0  0  0  0  3  0  0  0  0  0  0
  -21.4120   -4.8430   24.9030 C   0  0  0  0  0  0  0  0  0  0  0  0
  -21.9890   -4.2520   23.7650 C   0  0  0  0  0  3  0  0  0  0  0  0
  -22.1760   -5.0130   22.5980 C   0  0  0  0  0  0  0  0  0  0  0  0
  -22.7150   -4.4340   21.4980 F   0  0  0  0  0  0  0  0  0  0  0  0
  -21.2270   -4.1070   26.0240 F   0  0  0  0  0  0  0  0  0  0  0  0
  -23.0520  -13.6900   21.1980 C   0  0  0  0  0  0  0  0  0  0  0  0
  -22.3630  -12.9840   22.0850 N   0  0  0  0  0  0  0  0  0  0  0  0
  -22.5970  -14.7260   20.7130 O   0  0  0  0  0  0  0  0  0  0  0  0
  -22.7470  -12.1470   22.5000 H   0  0  0  0  0  0  0  0  0  0  0  0
  -21.4380  -13.2850   22.3570 H   0  0  0  0  0  0  0  0  0  0  0  0
  -25.6390  -15.3730   20.3150 N   0  0  0  0  0  0  0  0  0  0  0  0
  -24.8740  -16.0230   20.4660 H   0  0  0  0  0  0  0  0  0  0  0  0
  -26.4590  -15.8100   19.9190 H   0  0  0  0  0  0  0  0  0  0  0  0
  -28.1100  -23.9010   19.9980 C   0  0  0  0  0  3  0  0  0  0  0  0
  -28.2630  -25.6510   20.2080 O   0  0  0  0  0  0  0  0  0  0  0  0
  -24.6940  -31.8630   23.2410 C   0  0  0  0  0  0  0  0  0  0  0  0
  -27.2780  -26.8560   20.1740 C   0  0  0  0  0  0  0  0  0  0  0  0
  -23.5290  -30.4940   21.5640 C   0  0  0  0  0  3  0  0  0  0  0  0
  -24.9990  -28.8800   20.1340 C   0  0  0  0  0  0  0  0  0  0  0  0
  -26.1080  -30.6500   21.4720 C   0  0  0  0  0  2  0  0  0  0  0  0
  -26.1870  -29.2300   20.7870 C   0  0  0  0  0  0  0  0  0  0  0  0
  -27.3110  -28.2490   20.7730 C   0  0  0  0  0  3  0  0  0  0  0  0
  -26.0540  -26.7170   19.4710 C   0  0  0  0  0  3  0  0  0  0  0  0
  -24.9720  -27.6510   19.4530 C   0  0  0  0  0  3  0  0  0  0  0  0
  -23.7870  -29.8250   20.1830 C   0  0  0  0  0  2  0  0  0  0  0  0
  -24.8000  -31.0350   22.1460 N   0  0  0  0  0  0  0  0  0  0  0  0
  -23.5940  -32.1480   23.7460 O   0  0  0  0  0  0  0  0  0  0  0  0
  -22.8060  -29.4960   22.5080 C   0  0  0  0  0  0  0  0  0  0  0  0
  -21.4790  -29.3250   22.3520 N   0  0  0  0  0  0  0  0  0  0  0  0
  -23.4510  -28.8710   23.3530 O   0  0  0  0  0  0  0  0  0  0  0  0
  -21.0070  -29.8800   21.6510 H   0  0  0  0  0  0  0  0  0  0  0  0
  -18.0940  -28.0780   22.7930 C   0  0  0  0  0  0  0  0  0  0  0  0
  -20.6480  -28.3680   23.0940 C   0  0  0  0  0  3  0  0  0  0  0  0
  -20.7700  -26.9470   22.4950 C   0  0  0  0  0  2  0  0  0  0  0  0
  -19.6860  -26.6330   21.4590 C   0  0  0  0  0  2  0  0  0  0  0  0
  -18.2940  -26.7480   22.0870 C   0  0  0  0  0  2  0  0  0  0  0  0
  -19.1980  -28.8470   23.2510 C   0  0  0  0  0  0  0  0  0  0  0  0
  -18.9530  -30.0880   23.8760 C   0  0  0  0  0  3  0  0  0  0  0  0
  -17.6390  -30.5640   24.0430 C   0  0  0  0  0  3  0  0  0  0  0  0
  -16.5500  -29.7940   23.5980 C   0  0  0  0  0  3  0  0  0  0  0  0
  -16.7780  -28.5520   22.9790 C   0  0  0  0  0  3  0  0  0  0  0  0
  -25.9470  -32.5040   23.9120 C   0  0  0  0  0  3  0  0  0  0  0  0
  -25.6290  -33.9090   24.2330 N   0  0  0  0  0  0  0  0  0  0  0  0
  -25.9470  -34.9670   23.4740 C   0  0  0  0  0  0  0  0  0  0  0  0
  -26.5960  -34.8620   22.4310 O   0  0  0  0  0  0  0  0  0  0  0  0
  -25.0470  -34.0630   25.0440 H   0  0  0  0  0  0  0  0  0  0  0  0
  -24.1910  -36.7540   23.1940 C   0  0  0  0  0  1  0  0  0  0  0  0
  -25.4750  -36.3610   23.9430 C   0  0  0  0  0  3  0  0  0  0  0  0
  -27.6330  -37.2880   24.6680 C   0  0  0  0  0  1  0  0  0  0  0  0
  -26.4920  -37.4210   23.7640 N   0  0  0  0  0  0  0  0  0  0  0  0
  -26.0830  -38.3410   23.9030 H   0  0  0  0  0  0  0  0  0  0  0  0
  -26.4030  -31.7470   25.2210 C   0  0  1  0  0  0  0  0  0  0  0  0
  -25.2650  -31.5310   26.2460 C   0  0  0  0  0  1  0  0  0  0  0  0
  -26.9920  -30.3580   24.8830 C   0  0  0  0  0  1  0  0  0  0  0  0
  -27.5310  -32.5410   25.9200 C   0  0  0  0  0  1  0  0  0  0  0  0
  3  1  1  0
  3  2  1  0
  4 10  1  0
  4 13  1  0
  5 10  1  0
  6  7  1  0
  6  5  1  0
  8  7  1  0
  8 19  1  0
  8  9  1  0
 10  9  1  0
 11  4  2  0
 12  3  1  0
 12 13  1  0
 13 15  1  0
 14 12  2  0
 16 17  2  0
 17 36  1  0
 18 17  1  0
 18 21  1  0
 19 20  1  0
 19 16  1  0
 20 18  2  0
 21 22  1  0
 22 23  2  0
 24 27  1  0
 24 23  1  0
 25 24  2  0
 26 25  1  0
 26 21  2  0
 27 28  1  0
 28 33  2  0
 28 29  1  0
 29 30  2  0
 30 31  1  0
 31 35  1  0
 32 31  2  0
 33 32  1  0
 34 33  1  0
 36 37  1  0
 37 40  1  0
 37 39  1  0
 38 36  2  0
 41 16  1  0
 41 42  1  0
 43 41  1  0
 44  1  2  0
 44 45  1  0
 46 57  2  0
 47 45  1  0
 47 52  1  0
 48 56  1  0
 48 58  1  0
 49 55  1  0
 49 51  1  0
 50 56  1  0
 51 50  1  0
 52 51  2  0
 53 47  2  0
 54 53  1  0
 54 49  2  0
 55 48  1  0
 56 46  1  0
 58 60  2  0
 59 58  1  0
 61 59  1  0
 62 71  2  0
 62 67  1  0
 63 59  1  0
 63 67  1  0
 64 63  1  0
 65 66  1  0
 65 64  1  0
 66 62  1  0
 67 68  2  0
 68 69  1  0
 70 69  2  0
 71 70  1  0
 72 46  1  0
 72 73  1  0
 72 82  1  0
 73 76  1  0
 74 78  1  0
 74 73  1  0
 75 74  2  0
 78 77  1  0
 80 81  1  0
 80 78  1  0
 80 79  1  0
 82 85  1  1
 82 83  1  0
 84 82  1  0
M  ISO  4   4 100  13 100  44 101  45 101
M  END
>  <TORSDO>  (34) 
F 18

>  <SCORE>  (34) 
-15.672

>  <name>  (34) 
34

>  <ligand_id>  (34) 
34

>  <original_smiles>  (34) 
[H]c1c([H])c([H])c2c(c1[H])C([H])([H])C([H])([H])C([H])([H])C2([H])N([H])C(=O)C1([H])N(C(=O)C([H])(N([H])C(=O)C([H])(N([H])C([H])([H])[H])C([H])([H])[H])C(C([H])([H])[H])(C([H])([H])[H])C([H])([H])[H])C([H])([H])c2c([H])c(OC([H])([H])C([H])([H])C([H])(C(=O)N([H])C(=O)N3C([H])([H])C([H])([H])C([H])([H])C([H])(n4nc(-c5c([H])c([H])c(Oc6c([H])c([H])c(F)c([H])c6F)c([H])c5[H])c(C(=O)N([H])[H])c4N([H])[H])C3([H])[H])C([H])([H])[H])c([H])c([H])c2C1([H])[H]

>  <smiles>  (34) 
[H]c1c([H])c([H])c2c(c1[H])C([H])([H])C([H])([H])C([H])([H])C2([H])N([H])C(=O)C1([H])N(C(=O)C([H])(N([H])C(=O)C([H])(N([H])C([H])([H])[H])C([H])([H])[H])C(C([H])([H])[H])(C([H])([H])[H])C([H])([H])[H])C([H])([H])c2c([H])c(OC([H])([H])C([H])([H])C([H])(C(=O)N([H])C(=O)N3C([H])([H])C([H])([H])C([H])([H])C([H])(n4nc(-c5c([H])c([H])c(Oc6c([H])c([H])c(F)c([H])c6F)c([H])c5[H])c(C(=O)N([H])[H])c4N([H])[H])C3([H])[H])C([H])([H])[H])c([H])c([H])c2C1([H])[H]

$$$$
35:0:0
     RDKit          3D

 87 95  0  0  1  0  0  0  0  0999 V2000
  -27.1030  -20.2350   20.1960 C   0  0  0  0  0  3  0  0  0  0  0  0
  -28.0190  -19.1560   20.2410 C   0  0  0  0  0  3  0  0  0  0  0  0
  -27.5130  -21.5890   20.1860 C   0  0  0  0  0  3  0  0  0  0  0  0
  -29.8030  -20.7970   20.2610 C   0  0  0  0  0  3  0  0  0  0  0  0
  -29.4140  -19.3660   20.2710 C   0  0  0  0  0  0  0  0  0  0  0  0
  -28.8750  -21.9550   20.2220 C   0  0  0  0  0  0  0  0  0  0  0  0
  -30.3960  -18.0460   20.2620 C   0  0  0  0  0  3  0  0  0  0  0  0
  -29.9170  -16.4670   20.5750 C   0  0  0  0  0  3  0  0  0  0  0  0
  -30.7700  -15.0890   20.2400 C   0  0  0  0  0  0  0  0  0  0  0  0
  -30.6270  -12.7810   19.2050 C   0  0  0  0  0  2  0  0  0  0  0  0
  -29.6600  -12.8310   17.9990 C   0  0  0  0  0  2  0  0  0  0  0  0
  -28.2040  -12.6160   18.4570 C   0  0  0  0  0  2  0  0  0  0  0  0
  -27.8420  -13.4830   19.6890 C   0  0  0  0  0  3  0  0  0  0  0  0
  -28.9250  -13.4160   20.7850 C   0  0  0  0  0  2  0  0  0  0  0  0
  -30.1980  -13.8220   20.1780 N   0  0  0  0  0  0  0  0  0  0  0  0
  -31.9510  -15.1870   19.8870 O   0  0  0  0  0  0  0  0  0  0  0  0
  -25.4810  -14.0560   20.4990 C   0  0  0  0  0  0  0  0  0  0  0  0
  -24.4230  -13.2770   20.8760 C   0  0  0  0  0  0  0  0  0  0  0  0
  -24.8810  -11.9260   20.8010 C   0  0  0  0  0  0  0  0  0  0  0  0
  -26.5140  -13.1800   20.2100 N   0  0  0  0  0  0  0  0  0  0  0  0
  -26.1630  -11.8920   20.4560 N   0  0  0  0  0  0  0  0  0  0  0  0
  -24.1550  -10.6620   20.9780 C   0  0  0  0  0  0  0  0  0  0  0  0
  -24.5600   -9.7040   21.9330 C   0  0  0  0  0  3  0  0  0  0  0  0
  -23.8320   -8.5050   22.0970 C   0  0  0  0  0  3  0  0  0  0  0  0
  -22.6860   -8.2550   21.3050 C   0  0  0  0  0  0  0  0  0  0  0  0
  -22.3010   -9.2030   20.3400 C   0  0  0  0  0  3  0  0  0  0  0  0
  -23.0280  -10.3930   20.1760 C   0  0  0  0  0  3  0  0  0  0  0  0
  -21.9340   -7.1080   21.3770 O   0  0  0  0  0  0  0  0  0  0  0  0
  -21.7790   -6.4210   22.5540 C   0  0  0  0  0  0  0  0  0  0  0  0
  -21.1770   -7.0090   23.6880 C   0  0  0  0  0  3  0  0  0  0  0  0
  -20.9760   -6.2450   24.8550 C   0  0  0  0  0  3  0  0  0  0  0  0
  -21.3670   -4.8920   24.8870 C   0  0  0  0  0  0  0  0  0  0  0  0
  -21.9620   -4.3040   23.7580 C   0  0  0  0  0  3  0  0  0  0  0  0
  -22.1650   -5.0660   22.5940 C   0  0  0  0  0  0  0  0  0  0  0  0
  -22.7200   -4.4890   21.5000 F   0  0  0  0  0  0  0  0  0  0  0  0
  -21.1680   -4.1550   26.0040 F   0  0  0  0  0  0  0  0  0  0  0  0
  -23.0340  -13.7520   21.1920 C   0  0  0  0  0  0  0  0  0  0  0  0
  -22.3280  -13.0440   22.0650 N   0  0  0  0  0  0  0  0  0  0  0  0
  -22.5860  -14.7870   20.7000 O   0  0  0  0  0  0  0  0  0  0  0  0
  -22.7020  -12.2060   22.4860 H   0  0  0  0  0  0  0  0  0  0  0  0
  -21.3990  -13.3480   22.3180 H   0  0  0  0  0  0  0  0  0  0  0  0
  -25.6480  -15.4320   20.3550 N   0  0  0  0  0  0  0  0  0  0  0  0
  -24.8900  -16.0880   20.5070 H   0  0  0  0  0  0  0  0  0  0  0  0
  -26.4890  -15.8720   20.0090 H   0  0  0  0  0  0  0  0  0  0  0  0
  -29.2450  -23.5570   20.2620 C   0  0  0  0  0  3  0  0  0  0  0  0
  -28.1600  -24.8190   20.0300 C   0  0  0  0  0  3  0  0  0  0  0  0
  -28.4060  -26.3380   20.2310 O   0  0  0  0  0  0  0  0  0  0  0  0
  -24.5940  -31.8610   23.2590 C   0  0  0  0  0  0  0  0  0  0  0  0
  -27.3260  -27.2880   20.1690 C   0  0  0  0  0  0  0  0  0  0  0  0
  -23.4590  -30.4930   21.5530 C   0  0  0  0  0  3  0  0  0  0  0  0
  -24.9670  -28.9840   20.1230 C   0  0  0  0  0  0  0  0  0  0  0  0
  -26.0100  -30.8050   21.4610 C   0  0  0  0  0  2  0  0  0  0  0  0
  -26.1220  -29.4360   20.7740 C   0  0  0  0  0  0  0  0  0  0  0  0
  -27.3040  -28.6050   20.7790 C   0  0  0  0  0  3  0  0  0  0  0  0
  -26.1410  -26.9310   19.4890 C   0  0  0  0  0  3  0  0  0  0  0  0
  -24.9880  -27.7440   19.4670 C   0  0  0  0  0  3  0  0  0  0  0  0
  -23.7240  -29.8580   20.1620 C   0  0  0  0  0  2  0  0  0  0  0  0
  -24.7060  -31.0730   22.1470 N   0  0  0  0  0  0  0  0  0  0  0  0
  -23.4910  -32.1150   23.7670 O   0  0  0  0  0  0  0  0  0  0  0  0
  -22.7720  -29.4490   22.4690 C   0  0  0  0  0  0  0  0  0  0  0  0
  -21.4520  -29.2590   22.2970 N   0  0  0  0  0  0  0  0  0  0  0  0
  -23.4300  -28.8140   23.2970 O   0  0  0  0  0  0  0  0  0  0  0  0
  -20.9790  -29.8230   21.6040 H   0  0  0  0  0  0  0  0  0  0  0  0
  -18.0740  -28.0060   22.6810 C   0  0  0  0  0  0  0  0  0  0  0  0
  -20.6230  -28.2900   23.0200 C   0  0  0  0  0  3  0  0  0  0  0  0
  -20.7570  -26.8770   22.4040 C   0  0  0  0  0  2  0  0  0  0  0  0
  -19.6820  -26.5720   21.3560 C   0  0  0  0  0  2  0  0  0  0  0  0
  -18.2840  -26.6810   21.9700 C   0  0  0  0  0  2  0  0  0  0  0  0
  -19.1730  -28.7700   23.1600 C   0  0  0  0  0  0  0  0  0  0  0  0
  -18.9230  -30.0110   23.7860 C   0  0  0  0  0  3  0  0  0  0  0  0
  -17.6080  -30.4880   23.9380 C   0  0  0  0  0  3  0  0  0  0  0  0
  -16.5240  -29.7230   23.4740 C   0  0  0  0  0  3  0  0  0  0  0  0
  -16.7580  -28.4840   22.8510 C   0  0  0  0  0  3  0  0  0  0  0  0
  -25.8470  -32.4960   23.9380 C   0  0  0  0  0  3  0  0  0  0  0  0
  -26.2970  -31.7320   25.2440 C   0  0  1  0  0  0  0  0  0  0  0  0
  -25.1520  -31.4990   26.2570 C   0  0  0  0  0  1  0  0  0  0  0  0
  -26.9000  -30.3530   24.8910 C   0  0  0  0  0  1  0  0  0  0  0  0
  -27.4130  -32.5310   25.9560 C   0  0  0  0  0  1  0  0  0  0  0  0
  -25.5230  -33.8960   24.2500 N   0  0  0  0  0  0  0  0  0  0  0  0
  -25.8410  -34.9450   23.4790 C   0  0  0  0  0  0  0  0  0  0  0  0
  -26.5050  -34.8350   22.4440 O   0  0  0  0  0  0  0  0  0  0  0  0
  -24.9300  -34.0540   25.0520 H   0  0  0  0  0  0  0  0  0  0  0  0
  -24.0750  -36.7080   23.1440 C   0  0  0  0  0  1  0  0  0  0  0  0
  -25.3460  -36.3360   23.9230 C   0  0  0  0  0  3  0  0  0  0  0  0
  -27.4810  -37.2830   24.6840 C   0  0  0  0  0  1  0  0  0  0  0  0
  -26.3580  -37.4030   23.7580 N   0  0  0  0  0  0  0  0  0  0  0  0
  -25.9400  -38.3200   23.8840 H   0  0  0  0  0  0  0  0  0  0  0  0
  1  2  1  0
  2  5  2  0
  3  1  2  0
  3  6  1  0
  4  5  1  0
  6  4  2  0
  6 45  1  0
  7  5  1  0
  7  8  2  0
  9  8  1  0
 10 15  1  0
 11 12  1  0
 11 10  1  0
 13 12  1  0
 13 20  1  0
 13 14  1  0
 15  9  1  0
 15 14  1  0
 16  9  2  0
 17 18  2  0
 18 37  1  0
 19 18  1  0
 19 22  1  0
 20 21  1  0
 20 17  1  0
 21 19  2  0
 22 23  1  0
 23 24  2  0
 25 28  1  0
 25 24  1  0
 26 25  2  0
 27 26  1  0
 27 22  2  0
 28 29  1  0
 29 34  2  0
 29 30  1  0
 30 31  2  0
 31 32  1  0
 32 36  1  0
 33 32  2  0
 34 33  1  0
 35 34  1  0
 37 38  1  0
 38 41  1  0
 38 40  1  0
 39 37  2  0
 42 17  1  0
 42 43  1  0
 44 42  1  0
 46 47  1  0
 46 45  2  0
 48 59  2  0
 49 47  1  0
 49 54  1  0
 50 58  1  0
 50 60  1  0
 51 57  1  0
 51 53  1  0
 52 58  1  0
 53 54  2  0
 53 52  1  0
 55 49  2  0
 56 55  1  0
 56 51  2  0
 57 50  1  0
 58 48  1  0
 60 62  2  0
 61 60  1  0
 63 61  1  0
 64 73  2  0
 64 69  1  0
 65 61  1  0
 65 69  1  0
 66 65  1  0
 67 68  1  0
 67 66  1  0
 68 64  1  0
 69 70  2  0
 70 71  1  0
 72 71  2  0
 73 72  1  0
 74 48  1  0
 74 79  1  0
 74 75  1  0
 75 78  1  1
 75 76  1  0
 77 75  1  0
 79 82  1  0
 80 84  1  0
 80 79  1  0
 81 80  2  0
 84 83  1  0
 86 87  1  0
 86 84  1  0
 86 85  1  0
M  ISO  4   8 100   9 100  46 101  47 101
M  END
>  <TORSDO>  (35) 
F 20

>  <SCORE>  (35) 
-12.862

>  <name>  (35) 
35

>  <ligand_id>  (35) 
35

>  <original_smiles>  (35) 
[H]c1c([H])c(C([H])([H])C([H])([H])Oc2c([H])c([H])c3c(c2[H])C([H])([H])N(C(=O)C([H])(N([H])C(=O)C([H])(N([H])C([H])([H])[H])C([H])([H])[H])C(C([H])([H])[H])(C([H])([H])[H])C([H])([H])[H])C([H])(C(=O)N([H])C2([H])c4c([H])c([H])c([H])c([H])c4C([H])([H])C([H])([H])C2([H])[H])C3([H])[H])c([H])c(C([H])([H])C([H])([H])C(=O)N2C([H])([H])C([H])([H])C([H])([H])C([H])(n3nc(-c4c([H])c([H])c(Oc5c([H])c([H])c(F)c([H])c5F)c([H])c4[H])c(C(=O)N([H])[H])c3N([H])[H])C2([H])[H])c1[H]

>  <smiles>  (35) 
[H]c1c([H])c(C([H])([H])C([H])([H])Oc2c([H])c([H])c3c(c2[H])C([H])([H])N(C(=O)C([H])(N([H])C(=O)C([H])(N([H])C([H])([H])[H])C([H])([H])[H])C(C([H])([H])[H])(C([H])([H])[H])C([H])([H])[H])C([H])(C(=O)N([H])C2([H])c4c([H])c([H])c([H])c([H])c4C([H])([H])C([H])([H])C2([H])[H])C3([H])[H])c([H])c(C([H])([H])C([H])([H])C(=O)N2C([H])([H])C([H])([H])C([H])([H])C([H])(n3nc(-c4c([H])c([H])c(Oc5c([H])c([H])c(F)c([H])c5F)c([H])c4[H])c(C(=O)N([H])[H])c3N([H])[H])C2([H])[H])c1[H]

$$$$
36:0:0
     RDKit          3D

 90 98  0  0  1  0  0  0  0  0999 V2000
  -29.6290  -22.8310   18.7050 C   0  0  0  0  0  2  0  0  0  0  0  0
  -28.5460  -23.9300   18.4110 C   0  0  0  0  0  3  0  0  0  0  0  0
  -28.7550  -22.2230   19.7840 C   0  0  0  0  0  3  0  0  0  0  0  0
  -28.0730  -23.9840   19.9130 C   0  0  0  0  0  3  0  0  0  0  0  0
  -29.2600  -24.8220   16.1410 C   0  0  0  0  0  1  0  0  0  0  0  0
  -28.9950  -25.1560   17.6170 C   0  0  0  0  0  2  0  0  0  0  0  0
  -28.2690  -25.6560   20.2490 O   0  0  0  0  0  0  0  0  0  0  0  0
  -24.6630  -31.8100   23.1280 C   0  0  0  0  0  0  0  0  0  0  0  0
  -27.2840  -26.8250   20.1630 C   0  0  0  0  0  0  0  0  0  0  0  0
  -23.5070  -30.3980   21.4780 C   0  0  0  0  0  3  0  0  0  0  0  0
  -24.9890  -28.7740   20.0830 C   0  0  0  0  0  0  0  0  0  0  0  0
  -26.0820  -30.5830   21.3870 C   0  0  0  0  0  2  0  0  0  0  0  0
  -26.1690  -29.1590   20.7320 C   0  0  0  0  0  0  0  0  0  0  0  0
  -27.3030  -28.2080   20.7450 C   0  0  0  0  0  3  0  0  0  0  0  0
  -26.0700  -26.6250   19.4630 C   0  0  0  0  0  3  0  0  0  0  0  0
  -24.9720  -27.5320   19.4290 C   0  0  0  0  0  3  0  0  0  0  0  0
  -23.7690  -29.7030   20.1110 C   0  0  0  0  0  2  0  0  0  0  0  0
  -24.7730  -30.9610   22.0510 N   0  0  0  0  0  0  0  0  0  0  0  0
  -23.5620  -32.1010   23.6250 O   0  0  0  0  0  0  0  0  0  0  0  0
  -22.7900  -29.4130   22.4390 C   0  0  0  0  0  0  0  0  0  0  0  0
  -21.4610  -29.2500   22.2960 N   0  0  0  0  0  0  0  0  0  0  0  0
  -23.4420  -28.7930   23.2840 O   0  0  0  0  0  0  0  0  0  0  0  0
  -20.9890  -29.8010   21.5920 H   0  0  0  0  0  0  0  0  0  0  0  0
  -18.0770  -28.0190   22.7520 C   0  0  0  0  0  0  0  0  0  0  0  0
  -20.6290  -28.3120   23.0580 C   0  0  0  0  0  3  0  0  0  0  0  0
  -20.7540  -26.8760   22.4950 C   0  0  0  0  0  2  0  0  0  0  0  0
  -19.6740  -26.5380   21.4640 C   0  0  0  0  0  2  0  0  0  0  0  0
  -18.2790  -26.6700   22.0820 C   0  0  0  0  0  2  0  0  0  0  0  0
  -19.1800  -28.7960   23.1950 C   0  0  0  0  0  0  0  0  0  0  0  0
  -18.9380  -30.0550   23.7860 C   0  0  0  0  0  3  0  0  0  0  0  0
  -17.6250  -30.5380   23.9390 C   0  0  0  0  0  3  0  0  0  0  0  0
  -16.5350  -29.7590   23.5120 C   0  0  0  0  0  3  0  0  0  0  0  0
  -16.7620  -28.5020   22.9220 C   0  0  0  0  0  3  0  0  0  0  0  0
  -25.9140  -32.4660   23.7830 C   0  0  0  0  0  3  0  0  0  0  0  0
  -25.5760  -33.8630   24.1160 N   0  0  0  0  0  0  0  0  0  0  0  0
  -25.9150  -34.9350   23.3870 C   0  0  0  0  0  0  0  0  0  0  0  0
  -26.6070  -34.8520   22.3690 O   0  0  0  0  0  0  0  0  0  0  0  0
  -24.9620  -34.0000   24.9040 H   0  0  0  0  0  0  0  0  0  0  0  0
  -24.1880  -36.7360   23.0350 C   0  0  0  0  0  1  0  0  0  0  0  0
  -25.4150  -36.3160   23.8590 C   0  0  0  0  0  3  0  0  0  0  0  0
  -27.5220  -37.2070   24.7500 C   0  0  0  0  0  1  0  0  0  0  0  0
  -26.4430  -37.3780   23.7820 N   0  0  0  0  0  0  0  0  0  0  0  0
  -26.0260  -38.2930   23.9340 H   0  0  0  0  0  0  0  0  0  0  0  0
  -26.3990  -31.7110   25.0820 C   0  0  1  0  0  0  0  0  0  0  0  0
  -25.2810  -31.4800   26.1250 C   0  0  0  0  0  1  0  0  0  0  0  0
  -26.9980  -30.3320   24.7280 C   0  0  0  0  0  1  0  0  0  0  0  0
  -27.5310  -32.5170   25.7630 C   0  0  0  0  0  1  0  0  0  0  0  0
  -29.0190  -20.5120   20.5260 C   0  0  0  0  0  3  0  0  0  0  0  0
  -27.6940  -20.1480   21.0560 N   0  0  0  0  0  4  0  0  0  0  0  0
  -27.0810  -19.8670   20.3100 H   0  0  0  0  0  0  0  0  0  0  0  0
  -27.2760  -20.9310   21.5250 H   0  0  0  0  0  0  0  0  0  0  0  0
  -27.7580  -19.3960   21.7170 H   0  0  0  0  0  0  0  0  0  0  0  0
  -29.7330  -18.8780   19.9250 C   0  0  0  0  0  3  0  0  0  0  0  0
  -29.6790  -17.0730   20.4440 C   0  0  0  0  0  3  0  0  0  0  0  0
  -30.4620  -15.4790   20.0490 C   0  0  0  0  0  0  0  0  0  0  0  0
  -30.4780  -12.9900   19.1580 C   0  0  0  0  0  2  0  0  0  0  0  0
  -29.5260  -12.7510   17.9530 C   0  0  0  0  0  2  0  0  0  0  0  0
  -28.1000  -12.4460   18.4380 C   0  0  0  0  0  2  0  0  0  0  0  0
  -27.6680  -13.4130   19.5640 C   0  0  0  0  0  3  0  0  0  0  0  0
  -28.7410  -13.5740   20.6620 C   0  0  0  0  0  2  0  0  0  0  0  0
  -29.9480  -14.1290   20.0160 N   0  0  0  0  0  0  0  0  0  0  0  0
  -31.6590  -15.4630   19.7120 O   0  0  0  0  0  0  0  0  0  0  0  0
  -25.3220  -13.9650   20.3810 C   0  0  0  0  0  0  0  0  0  0  0  0
  -24.2710  -13.1880   20.7790 C   0  0  0  0  0  0  0  0  0  0  0  0
  -24.7380  -11.8380   20.7380 C   0  0  0  0  0  0  0  0  0  0  0  0
  -26.3580  -13.0900   20.1100 N   0  0  0  0  0  0  0  0  0  0  0  0
  -26.0220  -11.8040   20.3930 N   0  0  0  0  0  0  0  0  0  0  0  0
  -24.0150  -10.5760   20.9480 C   0  0  0  0  0  0  0  0  0  0  0  0
  -24.4570   -9.6170   21.8860 C   0  0  0  0  0  3  0  0  0  0  0  0
  -23.7300   -8.4230   22.0860 C   0  0  0  0  0  3  0  0  0  0  0  0
  -22.5470   -8.1800   21.3480 C   0  0  0  0  0  0  0  0  0  0  0  0
  -22.1230   -9.1280   20.4000 C   0  0  0  0  0  3  0  0  0  0  0  0
  -22.8510  -10.3140   20.1990 C   0  0  0  0  0  3  0  0  0  0  0  0
  -21.7910   -7.0380   21.4570 O   0  0  0  0  0  0  0  0  0  0  0  0
  -21.7430   -6.3150   22.6230 C   0  0  0  0  0  0  0  0  0  0  0  0
  -21.3090   -6.8890   23.8380 C   0  0  0  0  0  3  0  0  0  0  0  0
  -21.2090   -6.0920   24.9960 C   0  0  0  0  0  3  0  0  0  0  0  0
  -21.5320   -4.7230   24.9400 C   0  0  0  0  0  0  0  0  0  0  0  0
  -21.9590   -4.1490   23.7300 C   0  0  0  0  0  3  0  0  0  0  0  0
  -22.0610   -4.9440   22.5730 C   0  0  0  0  0  0  0  0  0  0  0  0
  -22.4540   -4.3800   21.4050 F   0  0  0  0  0  0  0  0  0  0  0  0
  -21.4290   -3.9550   26.0510 F   0  0  0  0  0  0  0  0  0  0  0  0
  -22.8820  -13.6680   21.0780 C   0  0  0  0  0  0  0  0  0  0  0  0
  -22.1730  -12.9780   21.9640 N   0  0  0  0  0  0  0  0  0  0  0  0
  -22.4340  -14.6900   20.5610 O   0  0  0  0  0  0  0  0  0  0  0  0
  -22.5470  -12.1490   22.4030 H   0  0  0  0  0  0  0  0  0  0  0  0
  -21.2430  -13.2830   22.2120 H   0  0  0  0  0  0  0  0  0  0  0  0
  -25.4790  -15.3360   20.1990 N   0  0  0  0  0  0  0  0  0  0  0  0
  -24.7100  -15.9850   20.3270 H   0  0  0  0  0  0  0  0  0  0  0  0
  -26.3100  -15.7750   19.8260 H   0  0  0  0  0  0  0  0  0  0  0  0
  1  3  1  0
  2  6  1  0
  2  1  1  0
  2  4  1  0
  3  4  1  0
  3 48  1  0
  4  7  1  0
  5  6  1  0
  8 19  2  0
  9  7  1  0
  9 14  1  0
 10 18  1  0
 10 20  1  0
 11 17  1  0
 11 13  1  0
 12 18  1  0
 13 14  2  0
 13 12  1  0
 15  9  2  0
 16 15  1  0
 16 11  2  0
 17 10  1  0
 18  8  1  0
 20 22  2  0
 21 20  1  0
 23 21  1  0
 24 33  2  0
 24 29  1  0
 25 21  1  0
 25 29  1  0
 26 25  1  0
 27 28  1  0
 27 26  1  0
 28 24  1  0
 29 30  2  0
 30 31  1  0
 32 31  2  0
 33 32  1  0
 34  8  1  0
 34 35  1  0
 34 44  1  0
 35 38  1  0
 36 40  1  0
 36 35  1  0
 37 36  2  0
 40 39  1  0
 42 40  1  0
 42 43  1  0
 42 41  1  0
 44 47  1  1
 44 45  1  0
 46 44  1  0
 48 53  1  0
 48 49  1  0
 49 51  1  0
 49 52  1  0
 50 49  1  0
 53 54  2  0
 55 54  1  0
 56 61  1  0
 57 58  1  0
 57 56  1  0
 59 58  1  0
 59 66  1  0
 59 60  1  0
 61 55  1  0
 61 60  1  0
 62 55  2  0
 63 64  2  0
 64 83  1  0
 65 64  1  0
 65 68  1  0
 66 63  1  0
 66 67  1  0
 67 65  2  0
 68 69  1  0
 69 70  2  0
 71 74  1  0
 71 70  1  0
 72 71  2  0
 73 72  1  0
 73 68  2  0
 74 75  1  0
 75 76  1  0
 76 77  2  0
 78 77  1  0
 78 82  1  0
 79 78  2  0
 80 75  2  0
 80 79  1  0
 81 80  1  0
 83 84  1  0
 84 87  1  0
 84 86  1  0
 85 83  2  0
 88 89  1  0
 88 63  1  0
 90 88  1  0
M  ISO  4   4 101   7 101  54 100  55 100
M  END
>  <TORSDO>  (36) 
F 21

>  <SCORE>  (36) 
-15.774

>  <name>  (36) 
36

>  <ligand_id>  (36) 
36

>  <original_smiles>  (36) 
[H]c1c([H])c([H])c2c(c1[H])C([H])([H])C([H])([H])C([H])([H])C2([H])N([H])C(=O)C1([H])N(C(=O)C([H])(N([H])C(=O)C([H])(N([H])C([H])([H])[H])C([H])([H])[H])C(C([H])([H])[H])(C([H])([H])[H])C([H])([H])[H])C([H])([H])c2c([H])c(OC3([H])C([H])(C([H])([H])C([H])([H])[H])C([H])([H])C3([H])C([H])(C([H])([H])C([H])([H])C(=O)N3C([H])([H])C([H])([H])C([H])([H])C([H])(n4nc(-c5c([H])c([H])c(Oc6c([H])c([H])c(F)c([H])c6F)c([H])c5[H])c(C(=O)N([H])[H])c4N([H])[H])C3([H])[H])[N+]([H])([H])[H])c([H])c([H])c2C1([H])[H]

>  <smiles>  (36) 
[H]c1c([H])c([H])c2c(c1[H])C([H])([H])C([H])([H])C([H])([H])C2([H])N([H])C(=O)C1([H])N(C(=O)C([H])(N([H])C(=O)C([H])(N([H])C([H])([H])[H])C([H])([H])[H])C(C([H])([H])[H])(C([H])([H])[H])C([H])([H])[H])C([H])([H])c2c([H])c(OC3([H])C([H])(C([H])([H])C([H])([H])[H])C([H])([H])C3([H])C([H])(C([H])([H])C([H])([H])C(=O)N3C([H])([H])C([H])([H])C([H])([H])C([H])(n4nc(-c5c([H])c([H])c(Oc6c([H])c([H])c(F)c([H])c6F)c([H])c5[H])c(C(=O)N([H])[H])c4N([H])[H])C3([H])[H])[N+]([H])([H])[H])c([H])c([H])c2C1([H])[H]

$$$$
37:0:0
     RDKit          3D

 85 92  0  0  1  0  0  0  0  0999 V2000
  -29.1120  -22.2240   20.0470 C   0  0  0  0  0  3  0  0  0  0  0  0
  -27.7130  -19.9440   20.7460 C   0  0  0  0  0  1  0  0  0  0  0  0
  -28.9040  -20.2920   19.8430 C   0  0  0  0  0  3  0  0  0  0  0  0
  -30.5040  -15.8390   19.9080 C   0  0  0  0  0  0  0  0  0  0  0  0
  -30.6110  -13.2670   19.1820 C   0  0  0  0  0  2  0  0  0  0  0  0
  -29.6950  -12.8110   18.0120 C   0  0  0  0  0  2  0  0  0  0  0  0
  -28.2910  -12.4510   18.5220 C   0  0  0  0  0  2  0  0  0  0  0  0
  -27.7950  -13.4780   19.5650 C   0  0  0  0  0  3  0  0  0  0  0  0
  -28.8520  -13.8540   20.6300 C   0  0  0  0  0  2  0  0  0  0  0  0
  -29.9920  -14.4660   19.9100 N   0  0  0  0  0  0  0  0  0  0  0  0
  -31.7320  -15.7690   19.7100 O   0  0  0  0  0  0  0  0  0  0  0  0
  -29.9530  -18.7340   19.8420 C   0  0  0  0  0  0  0  0  0  0  0  0
  -29.7260  -17.1950   19.9370 N   0  0  0  0  0  0  0  0  0  0  0  0
  -31.1420  -19.0380   19.7270 O   0  0  0  0  0  0  0  0  0  0  0  0
  -28.7410  -17.0110   20.0390 H   0  0  0  0  0  0  0  0  0  0  0  0
  -25.4790  -13.9980   20.4620 C   0  0  0  0  0  0  0  0  0  0  0  0
  -24.4330  -13.2140   20.8570 C   0  0  0  0  0  0  0  0  0  0  0  0
  -24.8920  -11.8630   20.7610 C   0  0  0  0  0  0  0  0  0  0  0  0
  -26.5040  -13.1290   20.1410 N   0  0  0  0  0  0  0  0  0  0  0  0
  -26.1690  -11.8350   20.3880 N   0  0  0  0  0  0  0  0  0  0  0  0
  -24.1650  -10.6000   20.9480 C   0  0  0  0  0  0  0  0  0  0  0  0
  -24.5790   -9.6400   21.8970 C   0  0  0  0  0  3  0  0  0  0  0  0
  -23.8490   -8.4450   22.0740 C   0  0  0  0  0  3  0  0  0  0  0  0
  -22.6900   -8.2000   21.2990 C   0  0  0  0  0  0  0  0  0  0  0  0
  -22.2950   -9.1480   20.3390 C   0  0  0  0  0  3  0  0  0  0  0  0
  -23.0250  -10.3340   20.1620 C   0  0  0  0  0  3  0  0  0  0  0  0
  -21.9320   -7.0560   21.3840 O   0  0  0  0  0  0  0  0  0  0  0  0
  -21.7940   -6.3690   22.5640 C   0  0  0  0  0  0  0  0  0  0  0  0
  -21.2090   -6.9590   23.7050 C   0  0  0  0  0  3  0  0  0  0  0  0
  -21.0240   -6.1960   24.8750 C   0  0  0  0  0  3  0  0  0  0  0  0
  -21.4120   -4.8430   24.9030 C   0  0  0  0  0  0  0  0  0  0  0  0
  -21.9890   -4.2520   23.7650 C   0  0  0  0  0  3  0  0  0  0  0  0
  -22.1760   -5.0130   22.5980 C   0  0  0  0  0  0  0  0  0  0  0  0
  -22.7150   -4.4340   21.4980 F   0  0  0  0  0  0  0  0  0  0  0  0
  -21.2270   -4.1070   26.0240 F   0  0  0  0  0  0  0  0  0  0  0  0
  -23.0520  -13.6900   21.1980 C   0  0  0  0  0  0  0  0  0  0  0  0
  -22.3630  -12.9840   22.0850 N   0  0  0  0  0  0  0  0  0  0  0  0
  -22.5970  -14.7260   20.7130 O   0  0  0  0  0  0  0  0  0  0  0  0
  -22.7470  -12.1470   22.5000 H   0  0  0  0  0  0  0  0  0  0  0  0
  -21.4380  -13.2850   22.3570 H   0  0  0  0  0  0  0  0  0  0  0  0
  -25.6390  -15.3730   20.3150 N   0  0  0  0  0  0  0  0  0  0  0  0
  -24.8740  -16.0230   20.4660 H   0  0  0  0  0  0  0  0  0  0  0  0
  -26.4590  -15.8100   19.9190 H   0  0  0  0  0  0  0  0  0  0  0  0
  -28.1100  -23.9010   19.9980 C   0  0  0  0  0  3  0  0  0  0  0  0
  -28.2630  -25.6510   20.2080 O   0  0  0  0  0  0  0  0  0  0  0  0
  -24.6940  -31.8630   23.2410 C   0  0  0  0  0  0  0  0  0  0  0  0
  -27.2780  -26.8560   20.1740 C   0  0  0  0  0  0  0  0  0  0  0  0
  -23.5290  -30.4940   21.5640 C   0  0  0  0  0  3  0  0  0  0  0  0
  -24.9990  -28.8800   20.1340 C   0  0  0  0  0  0  0  0  0  0  0  0
  -26.1080  -30.6500   21.4720 C   0  0  0  0  0  2  0  0  0  0  0  0
  -26.1870  -29.2300   20.7870 C   0  0  0  0  0  0  0  0  0  0  0  0
  -27.3110  -28.2490   20.7730 C   0  0  0  0  0  3  0  0  0  0  0  0
  -26.0540  -26.7170   19.4710 C   0  0  0  0  0  3  0  0  0  0  0  0
  -24.9720  -27.6510   19.4530 C   0  0  0  0  0  3  0  0  0  0  0  0
  -23.7870  -29.8250   20.1830 C   0  0  0  0  0  2  0  0  0  0  0  0
  -24.8000  -31.0350   22.1460 N   0  0  0  0  0  0  0  0  0  0  0  0
  -23.5940  -32.1480   23.7460 O   0  0  0  0  0  0  0  0  0  0  0  0
  -22.8060  -29.4960   22.5080 C   0  0  0  0  0  0  0  0  0  0  0  0
  -21.4790  -29.3250   22.3520 N   0  0  0  0  0  0  0  0  0  0  0  0
  -23.4510  -28.8710   23.3530 O   0  0  0  0  0  0  0  0  0  0  0  0
  -21.0070  -29.8800   21.6510 H   0  0  0  0  0  0  0  0  0  0  0  0
  -18.0940  -28.0780   22.7930 C   0  0  0  0  0  0  0  0  0  0  0  0
  -20.6480  -28.3680   23.0940 C   0  0  0  0  0  3  0  0  0  0  0  0
  -20.7700  -26.9470   22.4950 C   0  0  0  0  0  2  0  0  0  0  0  0
  -19.6860  -26.6330   21.4590 C   0  0  0  0  0  2  0  0  0  0  0  0
  -18.2940  -26.7480   22.0870 C   0  0  0  0  0  2  0  0  0  0  0  0
  -19.1980  -28.8470   23.2510 C   0  0  0  0  0  0  0  0  0  0  0  0
  -18.9530  -30.0880   23.8760 C   0  0  0  0  0  3  0  0  0  0  0  0
  -17.6390  -30.5640   24.0430 C   0  0  0  0  0  3  0  0  0  0  0  0
  -16.5500  -29.7940   23.5980 C   0  0  0  0  0  3  0  0  0  0  0  0
  -16.7780  -28.5520   22.9790 C   0  0  0  0  0  3  0  0  0  0  0  0
  -25.9470  -32.5040   23.9120 C   0  0  0  0  0  3  0  0  0  0  0  0
  -25.6290  -33.9090   24.2330 N   0  0  0  0  0  0  0  0  0  0  0  0
  -25.9470  -34.9670   23.4740 C   0  0  0  0  0  0  0  0  0  0  0  0
  -26.5960  -34.8620   22.4310 O   0  0  0  0  0  0  0  0  0  0  0  0
  -25.0470  -34.0630   25.0440 H   0  0  0  0  0  0  0  0  0  0  0  0
  -24.1910  -36.7540   23.1940 C   0  0  0  0  0  1  0  0  0  0  0  0
  -25.4750  -36.3610   23.9430 C   0  0  0  0  0  3  0  0  0  0  0  0
  -27.6330  -37.2880   24.6680 C   0  0  0  0  0  1  0  0  0  0  0  0
  -26.4920  -37.4210   23.7640 N   0  0  0  0  0  0  0  0  0  0  0  0
  -26.0830  -38.3410   23.9030 H   0  0  0  0  0  0  0  0  0  0  0  0
  -26.4030  -31.7470   25.2210 C   0  0  1  0  0  0  0  0  0  0  0  0
  -25.2650  -31.5310   26.2460 C   0  0  0  0  0  1  0  0  0  0  0  0
  -26.9920  -30.3580   24.8830 C   0  0  0  0  0  1  0  0  0  0  0  0
  -27.5310  -32.5410   25.9200 C   0  0  0  0  0  1  0  0  0  0  0  0
  3  1  1  0
  3  2  1  0
  4 10  1  0
  4 13  1  0
  5 10  1  0
  6  7  1  0
  6  5  1  0
  8  7  1  0
  8 19  1  0
  8  9  1  0
 10  9  1  0
 11  4  2  0
 12  3  1  0
 12 13  1  0
 13 15  1  0
 14 12  2  0
 16 17  2  0
 17 36  1  0
 18 17  1  0
 18 21  1  0
 19 20  1  0
 19 16  1  0
 20 18  2  0
 21 22  1  0
 22 23  2  0
 24 27  1  0
 24 23  1  0
 25 24  2  0
 26 25  1  0
 26 21  2  0
 27 28  1  0
 28 33  2  0
 28 29  1  0
 29 30  2  0
 30 31  1  0
 31 35  1  0
 32 31  2  0
 33 32  1  0
 34 33  1  0
 36 37  1  0
 37 40  1  0
 37 39  1  0
 38 36  2  0
 41 16  1  0
 41 42  1  0
 43 41  1  0
 44  1  2  0
 44 45  1  0
 46 57  2  0
 47 45  1  0
 47 52  1  0
 48 56  1  0
 48 58  1  0
 49 55  1  0
 49 51  1  0
 50 56  1  0
 51 50  1  0
 52 51  2  0
 53 47  2  0
 54 53  1  0
 54 49  2  0
 55 48  1  0
 56 46  1  0
 58 60  2  0
 59 58  1  0
 61 59  1  0
 62 71  2  0
 62 67  1  0
 63 59  1  0
 63 67  1  0
 64 63  1  0
 65 66  1  0
 65 64  1  0
 66 62  1  0
 67 68  2  0
 68 69  1  0
 70 69  2  0
 71 70  1  0
 72 46  1  0
 72 73  1  0
 72 82  1  0
 73 76  1  0
 74 78  1  0
 74 73  1  0
 75 74  2  0
 78 77  1  0
 80 81  1  0
 80 78  1  0
 80 79  1  0
 82 85  1  1
 82 83  1  0
 84 82  1  0
M  ISO  4   4 100  13 100  44 101  45 101
M  END
>  <TORSDO>  (37) 
F 18

>  <SCORE>  (37) 
-15.672

>  <name>  (37) 
37

>  <ligand_id>  (37) 
37

>  <original_smiles>  (37) 
[H]c1c([H])c([H])c2c(c1[H])C([H])([H])C([H])([H])C([H])([H])C2([H])N([H])C(=O)C1([H])N(C(=O)C([H])(N([H])C(=O)C([H])(N([H])C([H])([H])[H])C([H])([H])[H])C(C([H])([H])[H])(C([H])([H])[H])C([H])([H])[H])C([H])([H])c2c([H])c(OC([H])([H])C([H])([H])C([H])(C(=O)N([H])C(=O)N3C([H])([H])C([H])([H])C([H])([H])C([H])(n4nc(-c5c([H])c([H])c(Oc6c([H])c([H])c(F)c([H])c6F)c([H])c5[H])c(C(=O)N([H])[H])c4N([H])[H])C3([H])[H])C([H])([H])[H])c([H])c([H])c2C1([H])[H]

>  <smiles>  (37) 
[H]c1c([H])c([H])c2c(c1[H])C([H])([H])C([H])([H])C([H])([H])C2([H])N([H])C(=O)C1([H])N(C(=O)C([H])(N([H])C(=O)C([H])(N([H])C([H])([H])[H])C([H])([H])[H])C(C([H])([H])[H])(C([H])([H])[H])C([H])([H])[H])C([H])([H])c2c([H])c(OC([H])([H])C([H])([H])C([H])(C(=O)N([H])C(=O)N3C([H])([H])C([H])([H])C([H])([H])C([H])(n4nc(-c5c([H])c([H])c(Oc6c([H])c([H])c(F)c([H])c6F)c([H])c5[H])c(C(=O)N([H])[H])c4N([H])[H])C3([H])[H])C([H])([H])[H])c([H])c([H])c2C1([H])[H]

$$$$
38:0:0
     RDKit          3D

 88 96  0  0  1  0  0  0  0  0999 V2000
  -28.6120  -21.6890   20.3880 C   0  0  0  0  0  2  0  0  0  0  0  0
  -29.6490  -20.4830   20.2940 N   0  0  0  0  0  4  0  0  0  0  0  0
  -30.0660  -20.5330   19.3780 H   0  0  0  0  0  0  0  0  0  0  0  0
  -30.3850  -20.7200   20.9400 H   0  0  0  0  0  0  0  0  0  0  0  0
  -30.5480  -15.0480   20.2710 C   0  0  0  0  0  0  0  0  0  0  0  0
  -30.3740  -12.6970   19.3220 C   0  0  0  0  0  2  0  0  0  0  0  0
  -29.4260  -12.6140   18.1060 C   0  0  0  0  0  2  0  0  0  0  0  0
  -27.9800  -12.3640   18.5710 C   0  0  0  0  0  2  0  0  0  0  0  0
  -27.5680  -13.2980   19.7340 C   0  0  0  0  0  3  0  0  0  0  0  0
  -28.6440  -13.3870   20.8400 C   0  0  0  0  0  2  0  0  0  0  0  0
  -29.8940  -13.8120   20.1920 N   0  0  0  0  0  0  0  0  0  0  0  0
  -31.7700  -15.0210   20.0870 O   0  0  0  0  0  0  0  0  0  0  0  0
  -28.3490  -18.2100   19.6660 C   0  0  0  0  0  2  0  0  0  0  0  0
  -28.5190  -16.6590   19.9180 C   0  0  0  0  0  2  0  0  0  0  0  0
  -30.4650  -17.7520   20.5440 C   0  0  0  0  0  2  0  0  0  0  0  0
  -29.3330  -18.9440   20.5810 C   0  0  0  0  0  3  0  0  0  0  0  0
  -29.8820  -16.3230   20.3800 N   0  0  0  0  0  0  0  0  0  0  0  0
  -25.2000  -13.8710   20.5110 C   0  0  0  0  0  0  0  0  0  0  0  0
  -24.1450  -13.0920   20.8870 C   0  0  0  0  0  0  0  0  0  0  0  0
  -24.6130  -11.7430   20.8420 C   0  0  0  0  0  0  0  0  0  0  0  0
  -26.2440  -12.9960   20.2570 N   0  0  0  0  0  0  0  0  0  0  0  0
  -25.9020  -11.7120   20.5230 N   0  0  0  0  0  0  0  0  0  0  0  0
  -23.8940  -10.4790   21.0250 C   0  0  0  0  0  0  0  0  0  0  0  0
  -24.3200   -9.5160   21.9660 C   0  0  0  0  0  3  0  0  0  0  0  0
  -23.5980   -8.3160   22.1370 C   0  0  0  0  0  3  0  0  0  0  0  0
  -22.4370   -8.0700   21.3670 C   0  0  0  0  0  0  0  0  0  0  0  0
  -22.0310   -9.0210   20.4150 C   0  0  0  0  0  3  0  0  0  0  0  0
  -22.7530  -10.2130   20.2410 C   0  0  0  0  0  3  0  0  0  0  0  0
  -21.6890   -6.9210   21.4470 O   0  0  0  0  0  0  0  0  0  0  0  0
  -21.6050   -6.1990   22.6110 C   0  0  0  0  0  0  0  0  0  0  0  0
  -21.1140   -6.7670   23.8070 C   0  0  0  0  0  3  0  0  0  0  0  0
  -20.9790   -5.9700   24.9610 C   0  0  0  0  0  3  0  0  0  0  0  0
  -21.3240   -4.6060   24.9200 C   0  0  0  0  0  0  0  0  0  0  0  0
  -21.8090   -4.0380   23.7290 C   0  0  0  0  0  3  0  0  0  0  0  0
  -21.9460   -4.8310   22.5760 C   0  0  0  0  0  0  0  0  0  0  0  0
  -22.3930   -4.2740   21.4250 F   0  0  0  0  0  0  0  0  0  0  0  0
  -21.1870   -3.8370   26.0250 F   0  0  0  0  0  0  0  0  0  0  0  0
  -22.7490  -13.5640   21.1700 C   0  0  0  0  0  0  0  0  0  0  0  0
  -22.0300  -12.8600   22.0370 N   0  0  0  0  0  0  0  0  0  0  0  0
  -22.3060  -14.5920   20.6590 O   0  0  0  0  0  0  0  0  0  0  0  0
  -22.4020  -12.0290   22.4710 H   0  0  0  0  0  0  0  0  0  0  0  0
  -21.0930  -13.1590   22.2710 H   0  0  0  0  0  0  0  0  0  0  0  0
  -25.3470  -15.2430   20.3310 N   0  0  0  0  0  0  0  0  0  0  0  0
  -24.5640  -15.8790   20.4380 H   0  0  0  0  0  0  0  0  0  0  0  0
  -26.1700  -15.6850   19.9470 H   0  0  0  0  0  0  0  0  0  0  0  0
  -29.0320  -23.3370   20.2920 C   0  0  0  0  0  3  0  0  0  0  0  0
  -27.9540  -24.6450   20.2310 C   0  0  0  0  0  3  0  0  0  0  0  0
  -28.2370  -26.1870   20.2540 O   0  0  0  0  0  0  0  0  0  0  0  0
  -24.6210  -31.8990   23.2420 C   0  0  0  0  0  0  0  0  0  0  0  0
  -27.1770  -27.1720   20.2040 C   0  0  0  0  0  0  0  0  0  0  0  0
  -23.4110  -30.5070   21.6090 C   0  0  0  0  0  3  0  0  0  0  0  0
  -24.8500  -28.9270   20.1800 C   0  0  0  0  0  0  0  0  0  0  0  0
  -25.9650  -30.7640   21.4330 C   0  0  0  0  0  2  0  0  0  0  0  0
  -26.0340  -29.3710   20.7810 C   0  0  0  0  0  0  0  0  0  0  0  0
  -27.1990  -28.5120   20.7720 C   0  0  0  0  0  3  0  0  0  0  0  0
  -25.9620  -26.8320   19.5670 C   0  0  0  0  0  3  0  0  0  0  0  0
  -24.8280  -27.6710   19.5570 C   0  0  0  0  0  3  0  0  0  0  0  0
  -23.6250  -29.8270   20.2300 C   0  0  0  0  0  2  0  0  0  0  0  0
  -24.6860  -31.0780   22.1500 N   0  0  0  0  0  0  0  0  0  0  0  0
  -23.5370  -32.1860   23.7740 O   0  0  0  0  0  0  0  0  0  0  0  0
  -22.7320  -29.5010   22.5730 C   0  0  0  0  0  0  0  0  0  0  0  0
  -21.4030  -29.3330   22.4480 N   0  0  0  0  0  0  0  0  0  0  0  0
  -23.4030  -28.8750   23.3970 O   0  0  0  0  0  0  0  0  0  0  0  0
  -20.9180  -29.8870   21.7570 H   0  0  0  0  0  0  0  0  0  0  0  0
  -18.0200  -28.1410   22.9630 C   0  0  0  0  0  0  0  0  0  0  0  0
  -20.5800  -28.3980   23.2220 C   0  0  0  0  0  3  0  0  0  0  0  0
  -20.6770  -26.9650   22.6490 C   0  0  0  0  0  2  0  0  0  0  0  0
  -19.5720  -26.6430   21.6390 C   0  0  0  0  0  2  0  0  0  0  0  0
  -18.1940  -26.7900   22.2890 C   0  0  0  0  0  2  0  0  0  0  0  0
  -19.1410  -28.9020   23.3870 C   0  0  0  0  0  0  0  0  0  0  0  0
  -18.9240  -30.1650   23.9800 C   0  0  0  0  0  3  0  0  0  0  0  0
  -17.6210  -30.6650   24.1530 C   0  0  0  0  0  3  0  0  0  0  0  0
  -16.5140  -29.9020   23.7440 C   0  0  0  0  0  3  0  0  0  0  0  0
  -16.7150  -28.6400   23.1550 C   0  0  0  0  0  3  0  0  0  0  0  0
  -25.9020  -32.5320   23.8640 C   0  0  0  0  0  3  0  0  0  0  0  0
  -26.4180  -31.7590   25.1400 C   0  0  1  0  0  0  0  0  0  0  0  0
  -25.3250  -31.5230   26.2100 C   0  0  0  0  0  1  0  0  0  0  0  0
  -26.9990  -30.3810   24.7510 C   0  0  0  0  0  1  0  0  0  0  0  0
  -27.5700  -32.5510   25.8010 C   0  0  0  0  0  1  0  0  0  0  0  0
  -25.5920  -33.9290   24.2040 N   0  0  0  0  0  0  0  0  0  0  0  0
  -25.9030  -34.9880   23.4440 C   0  0  0  0  0  0  0  0  0  0  0  0
  -26.5460  -34.8900   22.3950 O   0  0  0  0  0  0  0  0  0  0  0  0
  -25.0180  -34.0790   25.0200 H   0  0  0  0  0  0  0  0  0  0  0  0
  -24.1540  -36.7750   23.1540 C   0  0  0  0  0  1  0  0  0  0  0  0
  -25.4260  -36.3740   23.9200 C   0  0  0  0  0  3  0  0  0  0  0  0
  -27.5810  -37.2750   24.6780 C   0  0  0  0  0  1  0  0  0  0  0  0
  -26.4480  -37.4340   23.7700 N   0  0  0  0  0  0  0  0  0  0  0  0
  -26.0420  -38.3520   23.9290 H   0  0  0  0  0  0  0  0  0  0  0  0
  2  1  1  0
  2  4  1  0
  3  2  1  0
  5 17  1  0
  6 11  1  0
  7  8  1  0
  7  6  1  0
  9  8  1  0
  9 21  1  0
  9 10  1  0
 11  5  1  0
 11 10  1  0
 12  5  2  0
 13 14  1  0
 13 16  1  0
 14 17  1  0
 15 16  1  0
 16  2  1  0
 17 15  1  0
 18 19  2  0
 19 38  1  0
 20 19  1  0
 20 23  1  0
 21 18  1  0
 21 22  1  0
 22 20  2  0
 23 24  1  0
 24 25  2  0
 26 29  1  0
 26 25  1  0
 27 26  2  0
 28 27  1  0
 28 23  2  0
 29 30  1  0
 30 31  1  0
 31 32  2  0
 33 32  1  0
 33 37  1  0
 34 33  2  0
 35 30  2  0
 35 34  1  0
 36 35  1  0
 38 39  1  0
 39 42  1  0
 39 41  1  0
 40 38  2  0
 43 44  1  0
 43 18  1  0
 45 43  1  0
 46  1  1  0
 47 48  1  0
 47 46  2  0
 49 60  2  0
 50 48  1  0
 50 55  1  0
 51 59  1  0
 51 61  1  0
 52 58  1  0
 52 54  1  0
 53 59  1  0
 54 53  1  0
 55 54  2  0
 56 50  2  0
 57 56  1  0
 57 52  2  0
 58 51  1  0
 59 49  1  0
 61 63  2  0
 62 61  1  0
 64 62  1  0
 65 74  2  0
 65 70  1  0
 66 62  1  0
 66 70  1  0
 67 66  1  0
 68 69  1  0
 68 67  1  0
 69 65  1  0
 70 71  2  0
 71 72  1  0
 73 72  2  0
 74 73  1  0
 75 49  1  0
 75 80  1  0
 75 76  1  0
 76 79  1  1
 76 77  1  0
 78 76  1  0
 80 83  1  0
 81 85  1  0
 81 80  1  0
 82 81  2  0
 85 84  1  0
 87 85  1  0
 87 88  1  0
 87 86  1  0
M  ISO  4   5 100  17 100  47 101  48 101
M  END
>  <TORSDO>  (38) 
F 19

>  <SCORE>  (38) 
-15.412

>  <name>  (38) 
38

>  <ligand_id>  (38) 
38

>  <original_smiles>  (38) 
[H]c1c([H])c([H])c2c(c1[H])C([H])([H])C([H])([H])C([H])([H])C2([H])N([H])C(=O)C1([H])N(C(=O)C([H])(N([H])C(=O)C([H])(N([H])C([H])([H])[H])C([H])([H])[H])C(C([H])([H])[H])(C([H])([H])[H])C([H])([H])[H])C([H])([H])c2c([H])c(OC([H])([H])C([H])([H])C([H])([H])[N+]([H])([H])C3([H])C([H])([H])N(C(=O)N4C([H])([H])C([H])([H])C([H])([H])C([H])(n5nc(-c6c([H])c([H])c(Oc7c([H])c([H])c(F)c([H])c7F)c([H])c6[H])c(C(=O)N([H])[H])c5N([H])[H])C4([H])[H])C([H])([H])C3([H])[H])c([H])c([H])c2C1([H])[H]

>  <smiles>  (38) 
[H]c1c([H])c([H])c2c(c1[H])C([H])([H])C([H])([H])C([H])([H])C2([H])N([H])C(=O)C1([H])N(C(=O)C([H])(N([H])C(=O)C([H])(N([H])C([H])([H])[H])C([H])([H])[H])C(C([H])([H])[H])(C([H])([H])[H])C([H])([H])[H])C([H])([H])c2c([H])c(OC([H])([H])C([H])([H])C([H])([H])[N+]([H])([H])C3([H])C([H])([H])N(C(=O)N4C([H])([H])C([H])([H])C([H])([H])C([H])(n5nc(-c6c([H])c([H])c(Oc7c([H])c([H])c(F)c([H])c7F)c([H])c6[H])c(C(=O)N([H])[H])c5N([H])[H])C4([H])[H])C([H])([H])C3([H])[H])c([H])c([H])c2C1([H])[H]

$$$$
39:0:0
     RDKit          3D

 85 92  0  0  1  0  0  0  0  0999 V2000
  -28.6580  -22.8200   20.6240 C   0  0  0  0  0  2  0  0  0  0  0  0
  -29.0490  -21.2170   19.9500 C   0  0  0  0  0  3  0  0  0  0  0  0
  -29.1370  -19.5660   20.6180 C   0  0  0  0  0  3  0  0  0  0  0  0
  -31.4550  -18.4110   20.1470 C   0  0  0  0  0  1  0  0  0  0  0  0
  -29.9530  -18.0940   20.0420 C   0  0  0  0  0  0  0  0  0  0  0  0
  -30.4550  -15.2160   20.2470 C   0  0  0  0  0  0  0  0  0  0  0  0
  -30.3670  -12.7970   19.3560 C   0  0  0  0  0  2  0  0  0  0  0  0
  -29.4370  -12.6330   18.1270 C   0  0  0  0  0  2  0  0  0  0  0  0
  -27.9900  -12.3780   18.5800 C   0  0  0  0  0  2  0  0  0  0  0  0
  -27.5590  -13.3410   19.7140 C   0  0  0  0  0  3  0  0  0  0  0  0
  -28.6150  -13.4610   20.8360 C   0  0  0  0  0  2  0  0  0  0  0  0
  -29.8580  -13.9320   20.2060 N   0  0  0  0  0  0  0  0  0  0  0  0
  -31.6600  -15.1990   19.9620 O   0  0  0  0  0  0  0  0  0  0  0  0
  -29.7250  -16.4890   20.4020 N   0  0  0  0  0  4  0  0  0  0  0  0
  -28.7690  -16.3050   20.6690 H   0  0  0  0  0  0  0  0  0  0  0  0
  -25.1870  -13.9060   20.4610 C   0  0  0  0  0  0  0  0  0  0  0  0
  -24.1270  -13.1310   20.8370 C   0  0  0  0  0  0  0  0  0  0  0  0
  -24.5960  -11.7820   20.8190 C   0  0  0  0  0  0  0  0  0  0  0  0
  -26.2320  -13.0310   20.2260 N   0  0  0  0  0  0  0  0  0  0  0  0
  -25.8880  -11.7480   20.5100 N   0  0  0  0  0  0  0  0  0  0  0  0
  -23.8710  -10.5190   21.0190 C   0  0  0  0  0  0  0  0  0  0  0  0
  -24.3140   -9.5510   21.9470 C   0  0  0  0  0  3  0  0  0  0  0  0
  -23.5870   -8.3570   22.1370 C   0  0  0  0  0  3  0  0  0  0  0  0
  -22.4030   -8.1200   21.3970 C   0  0  0  0  0  0  0  0  0  0  0  0
  -21.9790   -9.0760   20.4570 C   0  0  0  0  0  3  0  0  0  0  0  0
  -22.7070  -10.2630   20.2660 C   0  0  0  0  0  3  0  0  0  0  0  0
  -21.6460   -6.9780   21.4970 O   0  0  0  0  0  0  0  0  0  0  0  0
  -21.6230   -6.2280   22.6440 C   0  0  0  0  0  0  0  0  0  0  0  0
  -21.2480   -6.7790   23.8880 C   0  0  0  0  0  3  0  0  0  0  0  0
  -21.1700   -5.9570   25.0280 C   0  0  0  0  0  3  0  0  0  0  0  0
  -21.4600   -4.5830   24.9280 C   0  0  0  0  0  0  0  0  0  0  0  0
  -21.8300   -4.0300   23.6890 C   0  0  0  0  0  3  0  0  0  0  0  0
  -21.9080   -4.8510   22.5500 C   0  0  0  0  0  0  0  0  0  0  0  0
  -22.2450   -4.3090   21.3550 F   0  0  0  0  0  0  0  0  0  0  0  0
  -21.3790   -3.7890   26.0220 F   0  0  0  0  0  0  0  0  0  0  0  0
  -22.7290  -13.6090   21.1010 C   0  0  0  0  0  0  0  0  0  0  0  0
  -22.0040  -12.9210   21.9750 N   0  0  0  0  0  0  0  0  0  0  0  0
  -22.2890  -14.6260   20.5650 O   0  0  0  0  0  0  0  0  0  0  0  0
  -22.3750  -12.0980   22.4250 H   0  0  0  0  0  0  0  0  0  0  0  0
  -21.0650  -13.2230   22.1980 H   0  0  0  0  0  0  0  0  0  0  0  0
  -25.3490  -15.2760   20.2710 N   0  0  0  0  0  0  0  0  0  0  0  0
  -24.5800  -15.9310   20.3690 H   0  0  0  0  0  0  0  0  0  0  0  0
  -26.1870  -15.7020   19.8970 H   0  0  0  0  0  0  0  0  0  0  0  0
  -28.1390  -24.3590   19.8920 C   0  0  0  0  0  2  0  0  0  0  0  0
  -28.2040  -25.9310   20.3240 O   0  0  0  0  0  0  0  0  0  0  0  0
  -24.6370  -31.8590   23.1920 C   0  0  0  0  0  0  0  0  0  0  0  0
  -27.1830  -26.9980   20.1980 C   0  0  0  0  0  0  0  0  0  0  0  0
  -23.4360  -30.4530   21.5650 C   0  0  0  0  0  3  0  0  0  0  0  0
  -24.8780  -28.8490   20.1420 C   0  0  0  0  0  0  0  0  0  0  0  0
  -25.9970  -30.6740   21.4060 C   0  0  0  0  0  2  0  0  0  0  0  0
  -26.0630  -29.2650   20.7590 C   0  0  0  0  0  0  0  0  0  0  0  0
  -27.2060  -28.3570   20.7700 C   0  0  0  0  0  3  0  0  0  0  0  0
  -25.9740  -26.7280   19.5160 C   0  0  0  0  0  3  0  0  0  0  0  0
  -24.8570  -27.6010   19.4980 C   0  0  0  0  0  3  0  0  0  0  0  0
  -23.6580  -29.7640   20.1910 C   0  0  0  0  0  2  0  0  0  0  0  0
  -24.7110  -31.0210   22.1080 N   0  0  0  0  0  0  0  0  0  0  0  0
  -23.5510  -32.1520   23.7170 O   0  0  0  0  0  0  0  0  0  0  0  0
  -22.7480  -29.4590   22.5400 C   0  0  0  0  0  0  0  0  0  0  0  0
  -21.4170  -29.3010   22.4280 N   0  0  0  0  0  0  0  0  0  0  0  0
  -23.4190  -28.8350   23.3650 O   0  0  0  0  0  0  0  0  0  0  0  0
  -20.9280  -29.8590   21.7420 H   0  0  0  0  0  0  0  0  0  0  0  0
  -18.0350  -28.1010   22.9580 C   0  0  0  0  0  0  0  0  0  0  0  0
  -20.5960  -28.3690   23.2100 C   0  0  0  0  0  3  0  0  0  0  0  0
  -20.6950  -26.9330   22.6480 C   0  0  0  0  0  2  0  0  0  0  0  0
  -19.5910  -26.6010   21.6410 C   0  0  0  0  0  2  0  0  0  0  0  0
  -18.2110  -26.7480   22.2880 C   0  0  0  0  0  2  0  0  0  0  0  0
  -19.1550  -28.8680   23.3770 C   0  0  0  0  0  0  0  0  0  0  0  0
  -18.9360  -30.1310   23.9670 C   0  0  0  0  0  3  0  0  0  0  0  0
  -17.6320  -30.6290   24.1410 C   0  0  0  0  0  3  0  0  0  0  0  0
  -16.5270  -29.8600   23.7380 C   0  0  0  0  0  3  0  0  0  0  0  0
  -16.7290  -28.5970   23.1530 C   0  0  0  0  0  3  0  0  0  0  0  0
  -25.9120  -32.5050   23.8140 C   0  0  0  0  0  3  0  0  0  0  0  0
  -26.4350  -31.7390   25.0920 C   0  0  1  0  0  0  0  0  0  0  0  0
  -25.3450  -31.5060   26.1650 C   0  0  0  0  0  1  0  0  0  0  0  0
  -27.0170  -30.3600   24.7090 C   0  0  0  0  0  1  0  0  0  0  0  0
  -27.5870  -32.5360   25.7460 C   0  0  0  0  0  1  0  0  0  0  0  0
  -25.5910  -33.9020   24.1590 N   0  0  0  0  0  0  0  0  0  0  0  0
  -25.9050  -34.9680   23.4110 C   0  0  0  0  0  0  0  0  0  0  0  0
  -26.5600  -34.8810   22.3690 O   0  0  0  0  0  0  0  0  0  0  0  0
  -25.0120  -34.0430   24.9720 H   0  0  0  0  0  0  0  0  0  0  0  0
  -24.1550  -36.7550   23.1170 C   0  0  0  0  0  1  0  0  0  0  0  0
  -25.4180  -36.3490   23.8940 C   0  0  0  0  0  3  0  0  0  0  0  0
  -27.5650  -37.2450   24.6830 C   0  0  0  0  0  1  0  0  0  0  0  0
  -26.4380  -37.4140   23.7680 N   0  0  0  0  0  0  0  0  0  0  0  0
  -26.0280  -38.3270   23.9390 H   0  0  0  0  0  0  0  0  0  0  0  0
  2  3  2  0
  2  1  1  0
  5  4  1  0
  5 14  2  0
  5  3  1  0
  6 14  1  0
  7 12  1  0
  8  9  1  0
  8  7  1  0
 10  9  1  0
 10 19  1  0
 10 11  1  0
 12  6  1  0
 12 11  1  0
 13  6  2  0
 14 15  1  0
 16 17  2  0
 17 36  1  0
 18 17  1  0
 18 21  1  0
 19 16  1  0
 19 20  1  0
 20 18  2  0
 21 22  1  0
 22 23  2  0
 24 27  1  0
 24 23  1  0
 25 24  2  0
 26 25  1  0
 26 21  2  0
 27 28  1  0
 28 29  1  0
 29 30  2  0
 31 30  1  0
 31 35  1  0
 32 31  2  0
 33 28  2  0
 33 32  1  0
 34 33  1  0
 36 37  1  0
 37 40  1  0
 37 39  1  0
 38 36  2  0
 41 42  1  0
 41 16  1  0
 43 41  1  0
 44 45  1  0
 44  1  1  0
 46 57  2  0
 47 45  1  0
 47 52  1  0
 48 56  1  0
 48 58  1  0
 49 55  1  0
 49 51  1  0
 50 56  1  0
 51 52  2  0
 51 50  1  0
 53 47  2  0
 54 53  1  0
 54 49  2  0
 55 48  1  0
 56 46  1  0
 58 60  2  0
 59 58  1  0
 61 59  1  0
 62 71  2  0
 62 67  1  0
 63 59  1  0
 63 67  1  0
 64 63  1  0
 65 66  1  0
 65 64  1  0
 66 62  1  0
 67 68  2  0
 68 69  1  0
 70 69  2  0
 71 70  1  0
 72 46  1  0
 72 77  1  0
 72 73  1  0
 73 76  1  1
 73 74  1  0
 75 73  1  0
 77 80  1  0
 78 82  1  0
 78 77  1  0
 79 78  2  0
 82 81  1  0
 84 82  1  0
 84 85  1  0
 84 83  1  0
M  ISO  4   6 100  14 100  44 101  45 101
M  END
>  <TORSDO>  (39) 
F 20

>  <SCORE>  (39) 
-15.358

>  <name>  (39) 
39

>  <ligand_id>  (39) 
39

>  <original_smiles>  (39) 
[H]c1c([H])c([H])c2c(c1[H])C([H])([H])C([H])([H])C([H])([H])C2([H])N([H])C(=O)C1([H])N(C(=O)C([H])(N([H])C(=O)C([H])(N([H])C([H])([H])[H])C([H])([H])[H])C(C([H])([H])[H])(C([H])([H])[H])C([H])([H])[H])C([H])([H])c2c([H])c(OC([H])([H])C([H])([H])C([H])([H])C([H])([H])C([H])(N([H])C(=O)N3C([H])([H])C([H])([H])C([H])([H])C([H])(n4nc(-c5c([H])c([H])c(Oc6c([H])c([H])c(F)c([H])c6F)c([H])c5[H])c(C(=O)N([H])[H])c4N([H])[H])C3([H])[H])C([H])([H])[H])c([H])c([H])c2C1([H])[H]

>  <smiles>  (39) 
[H]c1c([H])c([H])c2c(c1[H])C([H])([H])C([H])([H])C([H])([H])C2([H])N([H])C(=O)C1([H])N(C(=O)C([H])(N([H])C(=O)C([H])(N([H])C([H])([H])[H])C([H])([H])[H])C(C([H])([H])[H])(C([H])([H])[H])C([H])([H])[H])C([H])([H])c2c([H])c(OC([H])([H])C([H])([H])C([H])([H])C([H])([H])C([H])(N([H])C(=O)N3C([H])([H])C([H])([H])C([H])([H])C([H])(n4nc(-c5c([H])c([H])c(Oc6c([H])c([H])c(F)c([H])c6F)c([H])c5[H])c(C(=O)N([H])[H])c4N([H])[H])C3([H])[H])C([H])([H])[H])c([H])c([H])c2C1([H])[H]

$$$$
40:0:0
     RDKit          3D

 84 91  0  0  1  0  0  0  0  0999 V2000
  -28.7320  -22.7870   20.5900 C   0  0  0  0  0  3  0  0  0  0  0  0
  -30.1170  -21.2460   18.9140 C   0  0  0  0  0  1  0  0  0  0  0  0
  -28.9750  -21.1360   19.9300 C   0  0  0  0  0  3  0  0  0  0  0  0
  -29.1790  -19.5490   20.7280 C   0  0  0  0  0  2  0  0  0  0  0  0
  -29.6130  -16.6030   20.5570 C   0  0  0  0  0  3  0  0  0  0  0  0
  -29.8560  -18.0210   20.2600 C   0  0  0  0  0  3  0  0  0  0  0  0
  -30.4050  -15.2290   20.2430 C   0  0  0  0  0  0  0  0  0  0  0  0
  -30.3520  -12.7870   19.3870 C   0  0  0  0  0  2  0  0  0  0  0  0
  -29.4340  -12.6360   18.1470 C   0  0  0  0  0  2  0  0  0  0  0  0
  -27.9770  -12.3850   18.5750 C   0  0  0  0  0  2  0  0  0  0  0  0
  -27.5410  -13.3370   19.7170 C   0  0  0  0  0  3  0  0  0  0  0  0
  -28.5880  -13.4470   20.8460 C   0  0  0  0  0  2  0  0  0  0  0  0
  -29.8400  -13.9230   20.2380 N   0  0  0  0  0  0  0  0  0  0  0  0
  -31.6010  -15.2180   19.9170 O   0  0  0  0  0  0  0  0  0  0  0  0
  -25.1680  -13.9010   20.4620 C   0  0  0  0  0  0  0  0  0  0  0  0
  -24.1060  -13.1270   20.8380 C   0  0  0  0  0  0  0  0  0  0  0  0
  -24.5750  -11.7760   20.8210 C   0  0  0  0  0  0  0  0  0  0  0  0
  -26.2110  -13.0240   20.2250 N   0  0  0  0  0  0  0  0  0  0  0  0
  -25.8670  -11.7410   20.5100 N   0  0  0  0  0  0  0  0  0  0  0  0
  -23.8480  -10.5150   21.0240 C   0  0  0  0  0  0  0  0  0  0  0  0
  -24.2910   -9.5460   21.9510 C   0  0  0  0  0  3  0  0  0  0  0  0
  -23.5620   -8.3530   22.1440 C   0  0  0  0  0  3  0  0  0  0  0  0
  -22.3760   -8.1190   21.4080 C   0  0  0  0  0  0  0  0  0  0  0  0
  -21.9520   -9.0760   20.4700 C   0  0  0  0  0  3  0  0  0  0  0  0
  -22.6810  -10.2610   20.2760 C   0  0  0  0  0  3  0  0  0  0  0  0
  -21.6180   -6.9770   21.5100 O   0  0  0  0  0  0  0  0  0  0  0  0
  -21.6010   -6.2240   22.6570 C   0  0  0  0  0  0  0  0  0  0  0  0
  -21.2350   -6.7740   23.9040 C   0  0  0  0  0  3  0  0  0  0  0  0
  -21.1640   -5.9480   25.0450 C   0  0  0  0  0  3  0  0  0  0  0  0
  -21.4480   -4.5730   24.9370 C   0  0  0  0  0  0  0  0  0  0  0  0
  -21.8070   -4.0230   23.6940 C   0  0  0  0  0  3  0  0  0  0  0  0
  -21.8800   -4.8460   22.5570 C   0  0  0  0  0  0  0  0  0  0  0  0
  -22.2050   -4.3060   21.3580 F   0  0  0  0  0  0  0  0  0  0  0  0
  -21.3720   -3.7780   26.0300 F   0  0  0  0  0  0  0  0  0  0  0  0
  -22.7090  -13.6050   21.1000 C   0  0  0  0  0  0  0  0  0  0  0  0
  -21.9810  -12.9220   21.9770 N   0  0  0  0  0  0  0  0  0  0  0  0
  -22.2710  -14.6210   20.5620 O   0  0  0  0  0  0  0  0  0  0  0  0
  -22.3480  -12.1010   22.4330 H   0  0  0  0  0  0  0  0  0  0  0  0
  -21.0420  -13.2270   22.1940 H   0  0  0  0  0  0  0  0  0  0  0  0
  -25.3300  -15.2710   20.2740 N   0  0  0  0  0  0  0  0  0  0  0  0
  -24.5670  -15.9270   20.3910 H   0  0  0  0  0  0  0  0  0  0  0  0
  -26.1820  -15.7090   19.9460 H   0  0  0  0  0  0  0  0  0  0  0  0
  -28.0910  -24.3200   19.9190 C   0  0  0  0  0  3  0  0  0  0  0  0
  -28.2010  -25.9060   20.3150 O   0  0  0  0  0  0  0  0  0  0  0  0
  -24.6480  -31.8580   23.2000 C   0  0  0  0  0  0  0  0  0  0  0  0
  -27.1860  -26.9840   20.2000 C   0  0  0  0  0  0  0  0  0  0  0  0
  -23.4450  -30.4540   21.5740 C   0  0  0  0  0  3  0  0  0  0  0  0
  -24.8860  -28.8470   20.1500 C   0  0  0  0  0  0  0  0  0  0  0  0
  -26.0080  -30.6690   21.4150 C   0  0  0  0  0  2  0  0  0  0  0  0
  -26.0730  -29.2580   20.7670 C   0  0  0  0  0  0  0  0  0  0  0  0
  -27.2150  -28.3450   20.7730 C   0  0  0  0  0  3  0  0  0  0  0  0
  -25.9750  -26.7220   19.5210 C   0  0  0  0  0  3  0  0  0  0  0  0
  -24.8600  -27.5980   19.5060 C   0  0  0  0  0  3  0  0  0  0  0  0
  -23.6660  -29.7640   20.1990 C   0  0  0  0  0  2  0  0  0  0  0  0
  -24.7220  -31.0210   22.1160 N   0  0  0  0  0  0  0  0  0  0  0  0
  -23.5620  -32.1530   23.7260 O   0  0  0  0  0  0  0  0  0  0  0  0
  -22.7560  -29.4630   22.5480 C   0  0  0  0  0  0  0  0  0  0  0  0
  -21.4240  -29.3040   22.4330 N   0  0  0  0  0  0  0  0  0  0  0  0
  -23.4240  -28.8390   23.3750 O   0  0  0  0  0  0  0  0  0  0  0  0
  -20.9380  -29.8580   21.7430 H   0  0  0  0  0  0  0  0  0  0  0  0
  -18.0420  -28.1030   22.9590 C   0  0  0  0  0  0  0  0  0  0  0  0
  -20.6020  -28.3740   23.2150 C   0  0  0  0  0  3  0  0  0  0  0  0
  -20.7030  -26.9360   22.6530 C   0  0  0  0  0  2  0  0  0  0  0  0
  -19.5990  -26.6040   21.6440 C   0  0  0  0  0  2  0  0  0  0  0  0
  -18.2180  -26.7510   22.2900 C   0  0  0  0  0  2  0  0  0  0  0  0
  -19.1610  -28.8730   23.3790 C   0  0  0  0  0  0  0  0  0  0  0  0
  -18.9390  -30.1360   23.9690 C   0  0  0  0  0  3  0  0  0  0  0  0
  -17.6330  -30.6320   24.1400 C   0  0  0  0  0  3  0  0  0  0  0  0
  -16.5300  -29.8620   23.7340 C   0  0  0  0  0  3  0  0  0  0  0  0
  -16.7350  -28.5990   23.1500 C   0  0  0  0  0  3  0  0  0  0  0  0
  -25.9250  -32.5010   23.8240 C   0  0  0  0  0  3  0  0  0  0  0  0
  -26.4440  -31.7330   25.1010 C   0  0  1  0  0  0  0  0  0  0  0  0
  -25.3550  -31.4990   26.1760 C   0  0  0  0  0  1  0  0  0  0  0  0
  -27.0250  -30.3520   24.7190 C   0  0  0  0  0  1  0  0  0  0  0  0
  -27.5980  -32.5270   25.7570 C   0  0  0  0  0  1  0  0  0  0  0  0
  -25.6060  -33.8980   24.1670 N   0  0  0  0  0  0  0  0  0  0  0  0
  -25.9220  -34.9640   23.4210 C   0  0  0  0  0  0  0  0  0  0  0  0
  -26.5760  -34.8760   22.3780 O   0  0  0  0  0  0  0  0  0  0  0  0
  -25.0220  -34.0390   24.9790 H   0  0  0  0  0  0  0  0  0  0  0  0
  -24.1750  -36.7550   23.1310 C   0  0  0  0  0  1  0  0  0  0  0  0
  -25.4390  -36.3480   23.9040 C   0  0  0  0  0  3  0  0  0  0  0  0
  -27.5920  -37.2400   24.6830 C   0  0  0  0  0  1  0  0  0  0  0  0
  -26.4620  -37.4090   23.7720 N   0  0  0  0  0  0  0  0  0  0  0  0
  -26.0550  -38.3250   23.9380 H   0  0  0  0  0  0  0  0  0  0  0  0
  3  2  1  0
  3  1  1  0
  3  4  1  0
  6  5  2  0
  6  4  1  0
  7  5  1  0
  8 13  1  0
  9 10  1  0
  9  8  1  0
 11 10  1  0
 11 18  1  0
 11 12  1  0
 13  7  1  0
 13 12  1  0
 14  7  2  0
 15 16  2  0
 16 35  1  0
 17 16  1  0
 17 20  1  0
 18 15  1  0
 18 19  1  0
 19 17  2  0
 20 21  1  0
 21 22  2  0
 23 26  1  0
 23 22  1  0
 24 23  2  0
 25 24  1  0
 25 20  2  0
 26 27  1  0
 27 28  1  0
 28 29  2  0
 30 29  1  0
 30 34  1  0
 31 30  2  0
 32 27  2  0
 32 31  1  0
 33 32  1  0
 35 36  1  0
 36 39  1  0
 36 38  1  0
 37 35  2  0
 40 41  1  0
 40 15  1  0
 42 40  1  0
 43 44  1  0
 43  1  2  0
 45 56  2  0
 46 44  1  0
 46 51  1  0
 47 55  1  0
 47 57  1  0
 48 54  1  0
 48 50  1  0
 49 55  1  0
 50 51  2  0
 50 49  1  0
 52 46  2  0
 53 52  1  0
 53 48  2  0
 54 47  1  0
 55 45  1  0
 57 59  2  0
 58 57  1  0
 60 58  1  0
 61 70  2  0
 61 66  1  0
 62 58  1  0
 62 66  1  0
 63 62  1  0
 64 65  1  0
 64 63  1  0
 65 61  1  0
 66 67  2  0
 67 68  1  0
 69 68  2  0
 70 69  1  0
 71 45  1  0
 71 76  1  0
 71 72  1  0
 72 75  1  1
 72 73  1  0
 74 72  1  0
 76 79  1  0
 77 81  1  0
 77 76  1  0
 78 77  2  0
 81 80  1  0
 83 81  1  0
 83 84  1  0
 83 82  1  0
M  ISO  4   5 100   7 100  43 101  44 101
M  END
>  <TORSDO>  (40) 
F 20

>  <SCORE>  (40) 
-15.297

>  <name>  (40) 
40

>  <ligand_id>  (40) 
40

>  <original_smiles>  (40) 
[H]C(C(=O)N1C([H])([H])C([H])([H])C([H])([H])C([H])(n2nc(-c3c([H])c([H])c(Oc4c([H])c([H])c(F)c([H])c4F)c([H])c3[H])c(C(=O)N([H])[H])c2N([H])[H])C1([H])[H])=C([H])C([H])([H])C([H])(C([H])([H])[H])C([H])([H])C([H])([H])Oc1c([H])c([H])c2c(c1[H])C([H])([H])N(C(=O)C([H])(N([H])C(=O)C([H])(N([H])C([H])([H])[H])C([H])([H])[H])C(C([H])([H])[H])(C([H])([H])[H])C([H])([H])[H])C([H])(C(=O)N([H])C1([H])c3c([H])c([H])c([H])c([H])c3C([H])([H])C([H])([H])C1([H])[H])C2([H])[H]

>  <smiles>  (40) 
[H]C(C(=O)N1C([H])([H])C([H])([H])C([H])([H])C([H])(n2nc(-c3c([H])c([H])c(Oc4c([H])c([H])c(F)c([H])c4F)c([H])c3[H])c(C(=O)N([H])[H])c2N([H])[H])C1([H])[H])=C([H])C([H])([H])C([H])(C([H])([H])[H])C([H])([H])C([H])([H])Oc1c([H])c([H])c2c(c1[H])C([H])([H])N(C(=O)C([H])(N([H])C(=O)C([H])(N([H])C([H])([H])[H])C([H])([H])[H])C(C([H])([H])[H])(C([H])([H])[H])C([H])([H])[H])C([H])(C(=O)N([H])C1([H])c3c([H])c([H])c([H])c([H])c3C([H])([H])C([H])([H])C1([H])[H])C2([H])[H]

$$$$
41:0:0
     RDKit          3D

 93101  0  0  1  0  0  0  0  0999 V2000
  -29.2920  -19.0160   19.8510 C   0  0  0  0  0  2  0  0  0  0  0  0
  -30.0040  -18.7860   22.3020 C   0  0  0  0  0  2  0  0  0  0  0  0
  -28.4710  -20.2900   20.2050 C   0  0  0  0  0  2  0  0  0  0  0  0
  -29.9820  -21.3470   21.8960 C   0  0  0  0  0  2  0  0  0  0  0  0
  -29.5650  -18.0280   21.0240 C   0  0  0  0  0  3  0  0  0  0  0  0
  -30.8520  -20.0710   22.0830 C   0  0  0  0  0  3  0  0  0  0  0  0
  -31.7920  -20.2670   23.2870 C   0  0  0  0  0  1  0  0  0  0  0  0
  -29.2790  -21.4950   20.5870 N   0  0  2  0  0  4  0  0  0  0  0  0
  -29.9800  -21.6050   19.8680 H   0  0  0  0  0  0  0  0  0  0  0  0
  -30.8820  -14.5580   20.1160 C   0  0  0  0  0  0  0  0  0  0  0  0
  -30.4810  -12.4350   18.9260 C   0  0  0  0  0  2  0  0  0  0  0  0
  -29.4950  -12.6980   17.7680 C   0  0  0  0  0  2  0  0  0  0  0  0
  -28.0400  -12.5630   18.2580 C   0  0  0  0  0  2  0  0  0  0  0  0
  -27.7710  -13.3560   19.5660 C   0  0  0  0  0  3  0  0  0  0  0  0
  -28.8730  -13.1000   20.6180 C   0  0  0  0  0  2  0  0  0  0  0  0
  -30.1710  -13.4000   19.9950 N   0  0  0  0  0  0  0  0  0  0  0  0
  -32.0260  -14.6460   19.6630 O   0  0  0  0  0  0  0  0  0  0  0  0
  -30.5960  -16.9310   20.6270 C   0  0  0  0  0  0  0  0  0  0  0  0
  -30.1890  -15.6320   20.5750 N   0  0  0  0  0  0  0  0  0  0  0  0
  -31.7440  -17.3070   20.3700 O   0  0  0  0  0  0  0  0  0  0  0  0
  -29.2400  -15.4500   20.8510 H   0  0  0  0  0  0  0  0  0  0  0  0
  -25.4070  -13.9610   20.3750 C   0  0  0  0  0  0  0  0  0  0  0  0
  -24.3510  -13.1880   20.7740 C   0  0  0  0  0  0  0  0  0  0  0  0
  -24.8040  -11.8340   20.7120 C   0  0  0  0  0  0  0  0  0  0  0  0
  -26.4370  -13.0780   20.0950 N   0  0  0  0  0  0  0  0  0  0  0  0
  -26.0830  -11.7930   20.3580 N   0  0  0  0  0  0  0  0  0  0  0  0
  -24.0790  -10.5730   20.9140 C   0  0  0  0  0  0  0  0  0  0  0  0
  -24.5100   -9.6190   21.8620 C   0  0  0  0  0  3  0  0  0  0  0  0
  -23.7860   -8.4220   22.0510 C   0  0  0  0  0  3  0  0  0  0  0  0
  -22.6180   -8.1700   21.2920 C   0  0  0  0  0  0  0  0  0  0  0  0
  -22.2080   -9.1130   20.3340 C   0  0  0  0  0  3  0  0  0  0  0  0
  -22.9320  -10.3020   20.1420 C   0  0  0  0  0  3  0  0  0  0  0  0
  -21.8670   -7.0250   21.3900 O   0  0  0  0  0  0  0  0  0  0  0  0
  -21.7610   -6.3320   22.5700 C   0  0  0  0  0  0  0  0  0  0  0  0
  -21.2570   -6.9320   23.7440 C   0  0  0  0  0  3  0  0  0  0  0  0
  -21.1010   -6.1640   24.9150 C   0  0  0  0  0  3  0  0  0  0  0  0
  -21.4370   -4.7970   24.9120 C   0  0  0  0  0  0  0  0  0  0  0  0
  -21.9350   -4.1970   23.7420 C   0  0  0  0  0  3  0  0  0  0  0  0
  -22.0930   -4.9620   22.5740 C   0  0  0  0  0  0  0  0  0  0  0  0
  -22.5520   -4.3740   21.4430 F   0  0  0  0  0  0  0  0  0  0  0  0
  -21.2800   -4.0560   26.0350 F   0  0  0  0  0  0  0  0  0  0  0  0
  -22.9660  -13.6670   21.1010 C   0  0  0  0  0  0  0  0  0  0  0  0
  -22.2720  -12.9740   21.9970 N   0  0  0  0  0  0  0  0  0  0  0  0
  -22.5080  -14.6910   20.5960 O   0  0  0  0  0  0  0  0  0  0  0  0
  -22.6530  -12.1440   22.4280 H   0  0  0  0  0  0  0  0  0  0  0  0
  -21.3440  -13.2800   22.2570 H   0  0  0  0  0  0  0  0  0  0  0  0
  -25.5710  -15.3330   20.2030 N   0  0  0  0  0  0  0  0  0  0  0  0
  -24.8040  -15.9820   20.3400 H   0  0  0  0  0  0  0  0  0  0  0  0
  -26.3870  -15.7660   19.7930 H   0  0  0  0  0  0  0  0  0  0  0  0
  -28.4400  -22.7440   20.5700 C   0  0  0  0  0  2  0  0  0  0  0  0
  -29.1800  -24.1130   20.3810 C   0  0  0  0  0  2  0  0  0  0  0  0
  -28.2560  -25.3100   20.7530 C   0  0  0  0  0  2  0  0  0  0  0  0
  -28.5100  -26.5940   20.1240 O   0  0  0  0  0  0  0  0  0  0  0  0
  -24.5820  -31.7450   23.1330 C   0  0  0  0  0  0  0  0  0  0  0  0
  -27.3750  -27.3860   20.0490 C   0  0  0  0  0  0  0  0  0  0  0  0
  -23.4420  -30.3400   21.4500 C   0  0  0  0  0  3  0  0  0  0  0  0
  -24.9590  -28.8670   20.0220 C   0  0  0  0  0  0  0  0  0  0  0  0
  -25.9650  -30.7540   21.3080 C   0  0  0  0  0  2  0  0  0  0  0  0
  -26.0970  -29.3950   20.6490 C   0  0  0  0  0  0  0  0  0  0  0  0
  -27.3100  -28.6640   20.6600 C   0  0  0  0  0  3  0  0  0  0  0  0
  -26.2300  -26.9010   19.3790 C   0  0  0  0  0  3  0  0  0  0  0  0
  -25.0230  -27.6210   19.3800 C   0  0  0  0  0  3  0  0  0  0  0  0
  -23.6930  -29.6930   20.0630 C   0  0  0  0  0  2  0  0  0  0  0  0
  -24.6790  -30.9610   22.0230 N   0  0  0  0  0  0  0  0  0  0  0  0
  -23.4840  -31.9850   23.6550 O   0  0  0  0  0  0  0  0  0  0  0  0
  -22.7970  -29.2880   22.3810 C   0  0  0  0  0  0  0  0  0  0  0  0
  -21.4760  -29.0910   22.2410 N   0  0  0  0  0  0  0  0  0  0  0  0
  -23.4820  -28.6520   23.1870 O   0  0  0  0  0  0  0  0  0  0  0  0
  -20.9830  -29.6570   21.5630 H   0  0  0  0  0  0  0  0  0  0  0  0
  -18.1090  -27.8590   22.7020 C   0  0  0  0  0  0  0  0  0  0  0  0
  -20.6660  -28.1270   22.9840 C   0  0  0  0  0  3  0  0  0  0  0  0
  -20.7790  -26.7120   22.3680 C   0  0  0  0  0  2  0  0  0  0  0  0
  -19.6790  -26.4100   21.3450 C   0  0  0  0  0  2  0  0  0  0  0  0
  -18.2950  -26.5300   21.9900 C   0  0  0  0  0  2  0  0  0  0  0  0
  -19.2220  -28.6160   23.1550 C   0  0  0  0  0  0  0  0  0  0  0  0
  -18.9950  -29.8620   23.7790 C   0  0  0  0  0  3  0  0  0  0  0  0
  -17.6870  -30.3500   23.9560 C   0  0  0  0  0  3  0  0  0  0  0  0
  -16.5880  -29.5890   23.5200 C   0  0  0  0  0  3  0  0  0  0  0  0
  -16.8000  -28.3450   22.8980 C   0  0  0  0  0  3  0  0  0  0  0  0
  -25.8400  -32.3980   23.7860 C   0  0  0  0  0  3  0  0  0  0  0  0
  -26.3540  -31.6180   25.0580 C   0  0  1  0  0  0  0  0  0  0  0  0
  -25.2500  -31.3350   26.1030 C   0  0  0  0  0  1  0  0  0  0  0  0
  -26.9770  -30.2620   24.6520 C   0  0  0  0  0  1  0  0  0  0  0  0
  -27.4750  -32.4300   25.7500 C   0  0  0  0  0  1  0  0  0  0  0  0
  -25.4920  -33.7830   24.1290 N   0  0  0  0  0  0  0  0  0  0  0  0
  -25.8140  -34.8530   23.3910 C   0  0  0  0  0  0  0  0  0  0  0  0
  -26.5060  -34.7810   22.3730 O   0  0  0  0  0  0  0  0  0  0  0  0
  -24.8790  -33.9130   24.9210 H   0  0  0  0  0  0  0  0  0  0  0  0
  -24.0510  -36.6090   23.0230 C   0  0  0  0  0  1  0  0  0  0  0  0
  -25.2830  -36.2230   23.8570 C   0  0  0  0  0  3  0  0  0  0  0  0
  -27.3760  -37.1440   24.7490 C   0  0  0  0  0  1  0  0  0  0  0  0
  -26.2930  -37.3010   23.7830 N   0  0  0  0  0  0  0  0  0  0  0  0
  -25.8620  -38.2090   23.9350 H   0  0  0  0  0  0  0  0  0  0  0  0
  1  3  1  0
  1  5  1  0
  3  8  1  0
  4  6  1  0
  5 18  1  0
  5  2  1  0
  6  2  1  0
  6  7  1  0
  8  4  1  0
  8  9  1  6
 10 19  1  0
 11 16  1  0
 12 13  1  0
 12 11  1  0
 14 13  1  0
 14 25  1  0
 14 15  1  0
 16 10  1  0
 16 15  1  0
 17 10  2  0
 19 18  1  0
 19 21  1  0
 20 18  2  0
 22 23  2  0
 23 42  1  0
 24 23  1  0
 24 27  1  0
 25 26  1  0
 25 22  1  0
 26 24  2  0
 27 28  1  0
 28 29  2  0
 30 33  1  0
 30 29  1  0
 31 30  2  0
 32 31  1  0
 32 27  2  0
 33 34  1  0
 34 39  2  0
 34 35  1  0
 35 36  2  0
 37 36  1  0
 37 41  1  0
 38 37  2  0
 39 38  1  0
 40 39  1  0
 42 43  1  0
 43 46  1  0
 43 45  1  0
 44 42  2  0
 47 48  1  0
 47 22  1  0
 49 47  1  0
 50  8  1  0
 51 50  1  0
 51 52  1  0
 53 52  1  0
 54 65  2  0
 55 53  1  0
 55 60  1  0
 56 64  1  0
 56 66  1  0
 57 63  1  0
 57 59  1  0
 58 64  1  0
 59 60  2  0
 59 58  1  0
 61 62  1  0
 61 55  2  0
 62 57  2  0
 63 56  1  0
 64 54  1  0
 66 68  2  0
 67 66  1  0
 69 67  1  0
 70 79  2  0
 70 75  1  0
 71 67  1  0
 71 75  1  0
 72 71  1  0
 73 74  1  0
 73 72  1  0
 74 70  1  0
 75 76  2  0
 76 77  1  0
 78 77  2  0
 79 78  1  0
 80 54  1  0
 80 85  1  0
 80 81  1  0
 81 84  1  1
 81 82  1  0
 83 81  1  0
 85 88  1  0
 86 90  1  0
 86 85  1  0
 87 86  2  0
 90 89  1  0
 92 90  1  0
 92 93  1  0
 92 91  1  0
M  ISO  4  10 100  19 100  52 101  53 101
M  END
>  <TORSDO>  (41) 
F 19

>  <SCORE>  (41) 
-13.595

>  <name>  (41) 
41

>  <ligand_id>  (41) 
41

>  <original_smiles>  (41) 
[H]c1c([H])c([H])c2c(c1[H])C([H])([H])C([H])([H])C([H])([H])C2([H])N([H])C(=O)C1([H])N(C(=O)C([H])(N([H])C(=O)C([H])(N([H])C([H])([H])[H])C([H])([H])[H])C(C([H])([H])[H])(C([H])([H])[H])C([H])([H])[H])C([H])([H])c2c([H])c(OC([H])([H])C([H])([H])C([H])([H])[N+]3([H])C([H])([H])C([H])([H])C([H])(C(=O)N([H])C(=O)N4C([H])([H])C([H])([H])C([H])([H])C([H])(n5nc(-c6c([H])c([H])c(Oc7c([H])c([H])c(F)c([H])c7F)c([H])c6[H])c(C(=O)N([H])[H])c5N([H])[H])C4([H])[H])C([H])([H])C([H])(C([H])([H])[H])C3([H])[H])c([H])c([H])c2C1([H])[H]

>  <smiles>  (41) 
[H]c1c([H])c([H])c2c(c1[H])C([H])([H])C([H])([H])C([H])([H])C2([H])N([H])C(=O)C1([H])N(C(=O)C([H])(N([H])C(=O)C([H])(N([H])C([H])([H])[H])C([H])([H])[H])C(C([H])([H])[H])(C([H])([H])[H])C([H])([H])[H])C([H])([H])c2c([H])c(OC([H])([H])C([H])([H])C([H])([H])[N+]3([H])C([H])([H])C([H])([H])C([H])(C(=O)N([H])C(=O)N4C([H])([H])C([H])([H])C([H])([H])C([H])(n5nc(-c6c([H])c([H])c(Oc7c([H])c([H])c(F)c([H])c7F)c([H])c6[H])c(C(=O)N([H])[H])c5N([H])[H])C4([H])[H])C([H])([H])C([H])(C([H])([H])[H])C3([H])[H])c([H])c([H])c2C1([H])[H]

$$$$
42:0:0
     RDKit          3D

 86 93  0  0  1  0  0  0  0  0999 V2000
  -28.8030  -22.9130   20.5450 C   0  0  0  0  0  0  0  0  0  0  0  0
  -29.3980  -23.0810   21.6140 O   0  0  0  0  0  0  0  0  0  0  0  0
  -28.9460  -21.3020   19.8920 C   0  0  0  0  0  2  0  0  0  0  0  0
  -29.1920  -19.6690   20.6030 C   0  0  0  0  0  2  0  0  0  0  0  0
  -31.3950  -18.4420   19.7750 C   0  0  0  0  0  1  0  0  0  0  0  0
  -29.8960  -18.1530   19.9530 C   0  0  0  0  0  0  0  0  0  0  0  0
  -30.4500  -15.2630   20.1950 C   0  0  0  0  0  0  0  0  0  0  0  0
  -30.3620  -12.8340   19.3090 C   0  0  0  0  0  2  0  0  0  0  0  0
  -29.4300  -12.6790   18.0820 C   0  0  0  0  0  2  0  0  0  0  0  0
  -27.9810  -12.4250   18.5320 C   0  0  0  0  0  2  0  0  0  0  0  0
  -27.5590  -13.3690   19.6880 C   0  0  0  0  0  3  0  0  0  0  0  0
  -28.6230  -13.4840   20.8010 C   0  0  0  0  0  2  0  0  0  0  0  0
  -29.8580  -13.9690   20.1670 N   0  0  0  0  0  0  0  0  0  0  0  0
  -31.6480  -15.2440   19.8860 O   0  0  0  0  0  0  0  0  0  0  0  0
  -29.7220  -16.5430   20.3690 N   0  0  0  0  0  4  0  0  0  0  0  0
  -28.7870  -16.3570   20.7020 H   0  0  0  0  0  0  0  0  0  0  0  0
  -25.1950  -13.9270   20.4620 C   0  0  0  0  0  0  0  0  0  0  0  0
  -24.1370  -13.1500   20.8440 C   0  0  0  0  0  0  0  0  0  0  0  0
  -24.6060  -11.7990   20.8120 C   0  0  0  0  0  0  0  0  0  0  0  0
  -26.2360  -13.0520   20.2100 N   0  0  0  0  0  0  0  0  0  0  0  0
  -25.8940  -11.7670   20.4870 N   0  0  0  0  0  0  0  0  0  0  0  0
  -23.8800  -10.5370   21.0120 C   0  0  0  0  0  0  0  0  0  0  0  0
  -24.3240   -9.5670   21.9370 C   0  0  0  0  0  3  0  0  0  0  0  0
  -23.5980   -8.3720   22.1280 C   0  0  0  0  0  3  0  0  0  0  0  0
  -22.4110   -8.1380   21.3930 C   0  0  0  0  0  0  0  0  0  0  0  0
  -21.9850   -9.0960   20.4570 C   0  0  0  0  0  3  0  0  0  0  0  0
  -22.7120  -10.2820   20.2640 C   0  0  0  0  0  3  0  0  0  0  0  0
  -21.6530   -6.9960   21.4940 O   0  0  0  0  0  0  0  0  0  0  0  0
  -21.6290   -6.2470   22.6430 C   0  0  0  0  0  0  0  0  0  0  0  0
  -21.2420   -6.7980   23.8840 C   0  0  0  0  0  3  0  0  0  0  0  0
  -21.1650   -5.9750   25.0270 C   0  0  0  0  0  3  0  0  0  0  0  0
  -21.4650   -4.6030   24.9290 C   0  0  0  0  0  0  0  0  0  0  0  0
  -21.8440   -4.0520   23.6920 C   0  0  0  0  0  3  0  0  0  0  0  0
  -21.9240   -4.8720   22.5540 C   0  0  0  0  0  0  0  0  0  0  0  0
  -22.2700   -4.3310   21.3600 F   0  0  0  0  0  0  0  0  0  0  0  0
  -21.3820   -3.8110   26.0240 F   0  0  0  0  0  0  0  0  0  0  0  0
  -22.7420  -13.6270   21.1220 C   0  0  0  0  0  0  0  0  0  0  0  0
  -22.0220  -12.9370   22.0000 N   0  0  0  0  0  0  0  0  0  0  0  0
  -22.2990  -14.6470   20.5980 O   0  0  0  0  0  0  0  0  0  0  0  0
  -22.3950  -12.1130   22.4490 H   0  0  0  0  0  0  0  0  0  0  0  0
  -21.0860  -13.2400   22.2290 H   0  0  0  0  0  0  0  0  0  0  0  0
  -25.3550  -15.2970   20.2740 N   0  0  0  0  0  0  0  0  0  0  0  0
  -24.5920  -15.9540   20.3950 H   0  0  0  0  0  0  0  0  0  0  0  0
  -26.1910  -15.7260   19.8980 H   0  0  0  0  0  0  0  0  0  0  0  0
  -27.9800  -24.3230   19.9320 C   0  0  0  0  0  2  0  0  0  0  0  0
  -28.1920  -25.9010   20.3200 O   0  0  0  0  0  0  0  0  0  0  0  0
  -24.6390  -31.8690   23.2090 C   0  0  0  0  0  0  0  0  0  0  0  0
  -27.1880  -26.9920   20.2160 C   0  0  0  0  0  0  0  0  0  0  0  0
  -23.4410  -30.4670   21.5790 C   0  0  0  0  0  3  0  0  0  0  0  0
  -24.8870  -28.8560   20.1630 C   0  0  0  0  0  0  0  0  0  0  0  0
  -26.0060  -30.6790   21.4290 C   0  0  0  0  0  2  0  0  0  0  0  0
  -26.0730  -29.2680   20.7810 C   0  0  0  0  0  0  0  0  0  0  0  0
  -27.2170  -28.3550   20.7870 C   0  0  0  0  0  3  0  0  0  0  0  0
  -25.9770  -26.7300   19.5380 C   0  0  0  0  0  3  0  0  0  0  0  0
  -24.8610  -27.6080   19.5220 C   0  0  0  0  0  3  0  0  0  0  0  0
  -23.6680  -29.7750   20.2070 C   0  0  0  0  0  2  0  0  0  0  0  0
  -24.7170  -31.0320   22.1260 N   0  0  0  0  0  0  0  0  0  0  0  0
  -23.5510  -32.1650   23.7300 O   0  0  0  0  0  0  0  0  0  0  0  0
  -22.7480  -29.4780   22.5520 C   0  0  0  0  0  0  0  0  0  0  0  0
  -21.4160  -29.3210   22.4350 N   0  0  0  0  0  0  0  0  0  0  0  0
  -23.4150  -28.8510   23.3800 O   0  0  0  0  0  0  0  0  0  0  0  0
  -20.9320  -29.8760   21.7430 H   0  0  0  0  0  0  0  0  0  0  0  0
  -18.0290  -28.1300   22.9600 C   0  0  0  0  0  0  0  0  0  0  0  0
  -20.5920  -28.3900   23.2130 C   0  0  0  0  0  3  0  0  0  0  0  0
  -20.6850  -26.9550   22.6460 C   0  0  0  0  0  2  0  0  0  0  0  0
  -19.5790  -26.6310   21.6360 C   0  0  0  0  0  2  0  0  0  0  0  0
  -18.2000  -26.7800   22.2850 C   0  0  0  0  0  2  0  0  0  0  0  0
  -19.1510  -28.8940   23.3810 C   0  0  0  0  0  0  0  0  0  0  0  0
  -18.9350  -30.1560   23.9750 C   0  0  0  0  0  3  0  0  0  0  0  0
  -17.6310  -30.6570   24.1490 C   0  0  0  0  0  3  0  0  0  0  0  0
  -16.5250  -29.8920   23.7420 C   0  0  0  0  0  3  0  0  0  0  0  0
  -16.7240  -28.6300   23.1540 C   0  0  0  0  0  3  0  0  0  0  0  0
  -25.9130  -32.5120   23.8380 C   0  0  0  0  0  3  0  0  0  0  0  0
  -26.4230  -31.7470   25.1220 C   0  0  1  0  0  0  0  0  0  0  0  0
  -25.3260  -31.5190   26.1900 C   0  0  0  0  0  1  0  0  0  0  0  0
  -27.0040  -30.3650   24.7470 C   0  0  0  0  0  1  0  0  0  0  0  0
  -27.5760  -32.5420   25.7810 C   0  0  0  0  0  1  0  0  0  0  0  0
  -25.5960  -33.9120   24.1750 N   0  0  0  0  0  0  0  0  0  0  0  0
  -25.9200  -34.9740   23.4250 C   0  0  0  0  0  0  0  0  0  0  0  0
  -26.5790  -34.8800   22.3870 O   0  0  0  0  0  0  0  0  0  0  0  0
  -25.0060  -34.0580   24.9820 H   0  0  0  0  0  0  0  0  0  0  0  0
  -24.1810  -36.7700   23.1160 C   0  0  0  0  0  1  0  0  0  0  0  0
  -25.4380  -36.3610   23.9000 C   0  0  0  0  0  3  0  0  0  0  0  0
  -27.5860  -37.2510   24.6950 C   0  0  0  0  0  1  0  0  0  0  0  0
  -26.4670  -37.4180   23.7720 N   0  0  0  0  0  0  0  0  0  0  0  0
  -26.0610  -38.3370   23.9250 H   0  0  0  0  0  0  0  0  0  0  0  0
  1  2  2  0
  3  1  1  0
  3  4  1  0
  5  6  1  0
  6 15  2  0
  6  4  1  0
  7 15  1  0
  8 13  1  0
  9 10  1  0
  9  8  1  0
 11 10  1  0
 11 20  1  0
 11 12  1  0
 13  7  1  0
 13 12  1  0
 14  7  2  0
 15 16  1  0
 17 18  2  0
 18 37  1  0
 19 18  1  0
 19 22  1  0
 20 17  1  0
 20 21  1  0
 21 19  2  0
 22 23  1  0
 23 24  2  0
 25 28  1  0
 25 24  1  0
 26 25  2  0
 27 26  1  0
 27 22  2  0
 28 29  1  0
 29 30  1  0
 30 31  2  0
 32 31  1  0
 32 36  1  0
 33 32  2  0
 34 29  2  0
 34 33  1  0
 35 34  1  0
 37 38  1  0
 38 41  1  0
 38 40  1  0
 39 37  2  0
 42 43  1  0
 42 17  1  0
 44 42  1  0
 45 46  1  0
 45  1  1  0
 47 58  2  0
 48 46  1  0
 48 53  1  0
 49 57  1  0
 49 59  1  0
 50 56  1  0
 50 52  1  0
 51 57  1  0
 52 53  2  0
 52 51  1  0
 54 48  2  0
 55 54  1  0
 55 50  2  0
 56 49  1  0
 57 47  1  0
 59 61  2  0
 60 59  1  0
 62 60  1  0
 63 72  2  0
 63 68  1  0
 64 60  1  0
 64 68  1  0
 65 64  1  0
 66 67  1  0
 66 65  1  0
 67 63  1  0
 68 69  2  0
 69 70  1  0
 71 70  2  0
 72 71  1  0
 73 47  1  0
 73 78  1  0
 73 74  1  0
 74 77  1  1
 74 75  1  0
 76 74  1  0
 78 81  1  0
 79 83  1  0
 79 78  1  0
 80 79  2  0
 83 82  1  0
 85 83  1  0
 85 86  1  0
 85 84  1  0
M  ISO  4   7 100  15 100  45 101  46 101
M  END
>  <TORSDO>  (42) 
F 20

>  <SCORE>  (42) 
-15.469

>  <name>  (42) 
42

>  <ligand_id>  (42) 
42

>  <original_smiles>  (42) 
[H]c1c([H])c([H])c2c(c1[H])C([H])([H])C([H])([H])C([H])([H])C2([H])N([H])C(=O)C1([H])N(C(=O)C([H])(N([H])C(=O)C([H])(N([H])C([H])([H])[H])C([H])([H])[H])C(C([H])([H])[H])(C([H])([H])[H])C([H])([H])[H])C([H])([H])c2c([H])c(OC([H])([H])C(=O)C([H])([H])C([H])([H])C([H])(N([H])C(=O)N3C([H])([H])C([H])([H])C([H])([H])C([H])(n4nc(-c5c([H])c([H])c(Oc6c([H])c([H])c(F)c([H])c6F)c([H])c5[H])c(C(=O)N([H])[H])c4N([H])[H])C3([H])[H])C([H])([H])[H])c([H])c([H])c2C1([H])[H]

>  <smiles>  (42) 
[H]c1c([H])c([H])c2c(c1[H])C([H])([H])C([H])([H])C([H])([H])C2([H])N([H])C(=O)C1([H])N(C(=O)C([H])(N([H])C(=O)C([H])(N([H])C([H])([H])[H])C([H])([H])[H])C(C([H])([H])[H])(C([H])([H])[H])C([H])([H])[H])C([H])([H])c2c([H])c(OC([H])([H])C(=O)C([H])([H])C([H])([H])C([H])(N([H])C(=O)N3C([H])([H])C([H])([H])C([H])([H])C([H])(n4nc(-c5c([H])c([H])c(Oc6c([H])c([H])c(F)c([H])c6F)c([H])c5[H])c(C(=O)N([H])[H])c4N([H])[H])C3([H])[H])C([H])([H])[H])c([H])c([H])c2C1([H])[H]

$$$$
43:0:0
     RDKit          3D

 86 94  0  0  1  0  0  0  0  0999 V2000
  -30.4550  -22.3890   20.4030 C   0  0  0  0  0  1  0  0  0  0  0  0
  -29.0430  -22.1010   19.8460 C   0  0  0  0  0  3  0  0  0  0  0  0
  -30.3410  -15.7280   19.7660 C   0  0  0  0  0  0  0  0  0  0  0  0
  -30.3790  -13.2110   18.8940 C   0  0  0  0  0  2  0  0  0  0  0  0
  -29.3980  -12.7840   17.7730 C   0  0  0  0  0  2  0  0  0  0  0  0
  -28.0160  -12.4370   18.3440 C   0  0  0  0  0  2  0  0  0  0  0  0
  -27.5890  -13.4310   19.4480 C   0  0  0  0  0  3  0  0  0  0  0  0
  -28.7030  -13.7510   20.4650 C   0  0  0  0  0  2  0  0  0  0  0  0
  -29.7900  -14.3810   19.6860 N   0  0  0  0  0  0  0  0  0  0  0  0
  -31.5810  -15.6200   19.6620 O   0  0  0  0  0  0  0  0  0  0  0  0
  -28.2550  -19.2430   18.8750 C   0  0  0  0  0  2  0  0  0  0  0  0
  -28.3990  -17.6090   19.0980 C   0  0  0  0  0  2  0  0  0  0  0  0
  -29.9940  -18.7450   20.1780 C   0  0  0  0  0  2  0  0  0  0  0  0
  -28.8440  -20.1560   20.0470 C   0  0  1  0  0  0  0  0  0  0  0  0
  -27.8520  -20.0210   21.2360 C   0  0  0  0  0  1  0  0  0  0  0  0
  -29.6420  -17.1350   19.8200 N   0  0  0  0  0  0  0  0  0  0  0  0
  -25.3070  -13.9460   20.4280 C   0  0  0  0  0  0  0  0  0  0  0  0
  -24.2750  -13.1590   20.8440 C   0  0  0  0  0  0  0  0  0  0  0  0
  -24.7340  -11.8080   20.7310 C   0  0  0  0  0  0  0  0  0  0  0  0
  -26.3260  -13.0820   20.0730 N   0  0  0  0  0  0  0  0  0  0  0  0
  -25.9990  -11.7870   20.3190 N   0  0  0  0  0  0  0  0  0  0  0  0
  -24.0180  -10.5410   20.9190 C   0  0  0  0  0  0  0  0  0  0  0  0
  -24.4560   -9.5780   21.8540 C   0  0  0  0  0  3  0  0  0  0  0  0
  -23.7350   -8.3770   22.0390 C   0  0  0  0  0  3  0  0  0  0  0  0
  -22.5630   -8.1340   21.2890 C   0  0  0  0  0  0  0  0  0  0  0  0
  -22.1410   -9.0860   20.3450 C   0  0  0  0  0  3  0  0  0  0  0  0
  -22.8620  -10.2750   20.1580 C   0  0  0  0  0  3  0  0  0  0  0  0
  -21.8110   -6.9890   21.3840 O   0  0  0  0  0  0  0  0  0  0  0  0
  -21.6950   -6.2970   22.5630 C   0  0  0  0  0  0  0  0  0  0  0  0
  -21.1640   -6.8920   23.7270 C   0  0  0  0  0  3  0  0  0  0  0  0
  -20.9990   -6.1270   24.8990 C   0  0  0  0  0  3  0  0  0  0  0  0
  -21.3560   -4.7660   24.9060 C   0  0  0  0  0  0  0  0  0  0  0  0
  -21.8790   -4.1680   23.7470 C   0  0  0  0  0  3  0  0  0  0  0  0
  -22.0450   -4.9310   22.5770 C   0  0  0  0  0  0  0  0  0  0  0  0
  -22.5290   -4.3450   21.4560 F   0  0  0  0  0  0  0  0  0  0  0  0
  -21.1900   -4.0280   26.0290 F   0  0  0  0  0  0  0  0  0  0  0  0
  -22.9040  -13.6250   21.2260 C   0  0  0  0  0  0  0  0  0  0  0  0
  -22.2410  -12.9030   22.1190 N   0  0  0  0  0  0  0  0  0  0  0  0
  -22.4330  -14.6690   20.7710 O   0  0  0  0  0  0  0  0  0  0  0  0
  -22.6340  -12.0570   22.5060 H   0  0  0  0  0  0  0  0  0  0  0  0
  -21.3240  -13.1990   22.4240 H   0  0  0  0  0  0  0  0  0  0  0  0
  -25.4660  -15.3190   20.2890 N   0  0  0  0  0  0  0  0  0  0  0  0
  -24.7320  -15.9870   20.4920 H   0  0  0  0  0  0  0  0  0  0  0  0
  -26.3010  -15.7590   19.9310 H   0  0  0  0  0  0  0  0  0  0  0  0
  -28.0660  -23.7880   20.0680 C   0  0  0  0  0  2  0  0  0  0  0  0
  -28.2230  -25.5570   19.9990 O   0  0  0  0  0  0  0  0  0  0  0  0
  -24.6990  -31.8200   23.0790 C   0  0  0  0  0  0  0  0  0  0  0  0
  -27.2350  -26.7620   20.0180 C   0  0  0  0  0  0  0  0  0  0  0  0
  -23.5100  -30.4210   21.4470 C   0  0  0  0  0  3  0  0  0  0  0  0
  -24.9540  -28.7930   20.0100 C   0  0  0  0  0  0  0  0  0  0  0  0
  -26.0890  -30.5790   21.3030 C   0  0  0  0  0  2  0  0  0  0  0  0
  -26.1590  -29.1500   20.6280 C   0  0  0  0  0  0  0  0  0  0  0  0
  -27.2830  -28.1670   20.5940 C   0  0  0  0  0  3  0  0  0  0  0  0
  -25.9880  -26.6150   19.3580 C   0  0  0  0  0  3  0  0  0  0  0  0
  -24.9090  -27.5490   19.3520 C   0  0  0  0  0  3  0  0  0  0  0  0
  -23.7410  -29.7280   20.0730 C   0  0  0  0  0  2  0  0  0  0  0  0
  -24.7920  -30.9740   21.9950 N   0  0  0  0  0  0  0  0  0  0  0  0
  -23.6080  -32.1080   23.6020 O   0  0  0  0  0  0  0  0  0  0  0  0
  -22.8040  -29.4370   22.4180 C   0  0  0  0  0  0  0  0  0  0  0  0
  -21.4730  -29.2780   22.3050 N   0  0  0  0  0  0  0  0  0  0  0  0
  -23.4740  -28.8080   23.2430 O   0  0  0  0  0  0  0  0  0  0  0  0
  -20.9830  -29.8410   21.6220 H   0  0  0  0  0  0  0  0  0  0  0  0
  -18.0880  -28.0760   22.8830 C   0  0  0  0  0  0  0  0  0  0  0  0
  -20.6570  -28.3340   23.0800 C   0  0  0  0  0  3  0  0  0  0  0  0
  -20.7390  -26.9110   22.4800 C   0  0  0  0  0  2  0  0  0  0  0  0
  -19.6120  -26.6120   21.4860 C   0  0  0  0  0  2  0  0  0  0  0  0
  -18.2460  -26.7430   22.1660 C   0  0  0  0  0  2  0  0  0  0  0  0
  -19.2230  -28.8310   23.2920 C   0  0  0  0  0  0  0  0  0  0  0  0
  -19.0140  -30.0750   23.9250 C   0  0  0  0  0  3  0  0  0  0  0  0
  -17.7150  -30.5660   24.1460 C   0  0  0  0  0  3  0  0  0  0  0  0
  -16.5990  -29.8090   23.7470 C   0  0  0  0  0  3  0  0  0  0  0  0
  -16.7900  -28.5670   23.1210 C   0  0  0  0  0  3  0  0  0  0  0  0
  -25.9630  -32.4760   23.7180 C   0  0  0  0  0  3  0  0  0  0  0  0
  -25.6210  -33.8580   24.1000 N   0  0  0  0  0  0  0  0  0  0  0  0
  -25.8920  -34.9510   23.3740 C   0  0  0  0  0  0  0  0  0  0  0  0
  -26.5090  -34.9030   22.3080 O   0  0  0  0  0  0  0  0  0  0  0  0
  -25.0730  -33.9690   24.9420 H   0  0  0  0  0  0  0  0  0  0  0  0
  -24.0920  -36.7120   23.1950 C   0  0  0  0  0  1  0  0  0  0  0  0
  -25.3940  -36.3130   23.9080 C   0  0  0  0  0  3  0  0  0  0  0  0
  -27.5470  -37.2440   24.6350 C   0  0  0  0  0  1  0  0  0  0  0  0
  -26.3870  -37.4010   23.7640 N   0  0  0  0  0  0  0  0  0  0  0  0
  -25.9600  -38.3010   23.9680 H   0  0  0  0  0  0  0  0  0  0  0  0
  -26.4940  -31.6940   24.9820 C   0  0  1  0  0  0  0  0  0  0  0  0
  -25.4090  -31.4200   26.0530 C   0  0  0  0  0  1  0  0  0  0  0  0
  -27.1030  -30.3310   24.5790 C   0  0  0  0  0  1  0  0  0  0  0  0
  -27.6330  -32.5010   25.6520 C   0  0  0  0  0  1  0  0  0  0  0  0
  2 14  1  0
  2 45  1  0
  2  1  1  0
  3 16  1  0
  4  9  1  0
  5  6  1  0
  5  4  1  0
  7  6  1  0
  7 20  1  0
  7  8  1  0
  9  3  1  0
  9  8  1  0
 10  3  2  0
 11 12  1  0
 11 14  1  0
 12 16  1  0
 14 13  1  0
 14 15  1  1
 16 13  1  0
 17 18  2  0
 18 37  1  0
 19 18  1  0
 19 22  1  0
 20 21  1  0
 20 17  1  0
 21 19  2  0
 22 23  1  0
 23 24  2  0
 25 28  1  0
 25 24  1  0
 26 25  2  0
 27 26  1  0
 27 22  2  0
 28 29  1  0
 29 34  2  0
 29 30  1  0
 30 31  2  0
 31 32  1  0
 32 36  1  0
 33 32  2  0
 34 33  1  0
 35 34  1  0
 37 38  1  0
 38 41  1  0
 38 40  1  0
 39 37  2  0
 42 17  1  0
 42 43  1  0
 44 42  1  0
 46 48  1  0
 46 45  1  0
 47 58  2  0
 48 53  1  0
 49 57  1  0
 49 59  1  0
 50 56  1  0
 50 52  1  0
 51 57  1  0
 52 51  1  0
 53 52  2  0
 54 48  2  0
 55 54  1  0
 55 50  2  0
 56 49  1  0
 57 47  1  0
 59 61  2  0
 60 59  1  0
 62 60  1  0
 63 72  2  0
 63 68  1  0
 64 60  1  0
 64 68  1  0
 65 64  1  0
 66 67  1  0
 66 65  1  0
 67 63  1  0
 68 69  2  0
 69 70  1  0
 71 70  2  0
 72 71  1  0
 73 47  1  0
 73 74  1  0
 73 83  1  0
 74 77  1  0
 75 79  1  0
 75 74  1  0
 76 75  2  0
 79 78  1  0
 81 79  1  0
 81 82  1  0
 81 80  1  0
 83 86  1  1
 83 84  1  0
 85 83  1  0
M  ISO  4   3 100  16 100  45 101  46 101
M  END
>  <TORSDO>  (43) 
F 17

>  <SCORE>  (43) 
-15.270

>  <name>  (43) 
43

>  <ligand_id>  (43) 
43

>  <original_smiles>  (43) 
[H]c1c([H])c([H])c2c(c1[H])C([H])([H])C([H])([H])C([H])([H])C2([H])N([H])C(=O)C1([H])N(C(=O)C([H])(N([H])C(=O)C([H])(N([H])C([H])([H])[H])C([H])([H])[H])C(C([H])([H])[H])(C([H])([H])[H])C([H])([H])[H])C([H])([H])c2c([H])c(OC([H])([H])C([H])(C([H])([H])[H])C3(C([H])([H])[H])C([H])([H])N(C(=O)N4C([H])([H])C([H])([H])C([H])([H])C([H])(n5nc(-c6c([H])c([H])c(Oc7c([H])c([H])c(F)c([H])c7F)c([H])c6[H])c(C(=O)N([H])[H])c5N([H])[H])C4([H])[H])C([H])([H])C3([H])[H])c([H])c([H])c2C1([H])[H]

>  <smiles>  (43) 
[H]c1c([H])c([H])c2c(c1[H])C([H])([H])C([H])([H])C([H])([H])C2([H])N([H])C(=O)C1([H])N(C(=O)C([H])(N([H])C(=O)C([H])(N([H])C([H])([H])[H])C([H])([H])[H])C(C([H])([H])[H])(C([H])([H])[H])C([H])([H])[H])C([H])([H])c2c([H])c(OC([H])([H])C([H])(C([H])([H])[H])C3(C([H])([H])[H])C([H])([H])N(C(=O)N4C([H])([H])C([H])([H])C([H])([H])C([H])(n5nc(-c6c([H])c([H])c(Oc7c([H])c([H])c(F)c([H])c7F)c([H])c6[H])c(C(=O)N([H])[H])c5N([H])[H])C4([H])[H])C([H])([H])C3([H])[H])c([H])c([H])c2C1([H])[H]

$$$$
44:0:0
     RDKit          3D

 87 95  0  0  1  0  0  0  0  0999 V2000
  -30.2150  -20.1190   21.6390 C   0  0  0  0  0  2  0  0  0  0  0  0
  -30.6770  -21.1520   20.5860 C   0  0  0  0  0  2  0  0  0  0  0  0
  -29.2270  -19.5290   20.6160 C   0  0  0  0  0  3  0  0  0  0  0  0
  -29.2350  -21.2550   20.0780 C   0  0  0  0  0  3  0  0  0  0  0  0
  -30.4530  -15.3340   20.1990 C   0  0  0  0  0  0  0  0  0  0  0  0
  -30.4150  -12.8890   19.3560 C   0  0  0  0  0  2  0  0  0  0  0  0
  -29.4960  -12.7180   18.1200 C   0  0  0  0  0  2  0  0  0  0  0  0
  -28.0470  -12.4470   18.5580 C   0  0  0  0  0  2  0  0  0  0  0  0
  -27.6030  -13.3950   19.7010 C   0  0  0  0  0  3  0  0  0  0  0  0
  -28.6540  -13.5290   20.8250 C   0  0  0  0  0  2  0  0  0  0  0  0
  -29.8900  -14.0270   20.1990 N   0  0  0  0  0  0  0  0  0  0  0  0
  -31.6540  -15.3220   19.8900 O   0  0  0  0  0  0  0  0  0  0  0  0
  -29.9590  -18.0240   20.0670 C   0  0  0  0  0  0  0  0  0  0  0  0
  -29.7120  -16.6030   20.3990 N   0  0  0  0  0  0  0  0  0  0  0  0
  -30.8620  -18.2210   19.2500 O   0  0  0  0  0  0  0  0  0  0  0  0
  -28.8280  -16.4650   20.8630 H   0  0  0  0  0  0  0  0  0  0  0  0
  -25.2290  -13.9310   20.4620 C   0  0  0  0  0  0  0  0  0  0  0  0
  -24.1750  -13.1460   20.8360 C   0  0  0  0  0  0  0  0  0  0  0  0
  -24.6530  -11.8000   20.8020 C   0  0  0  0  0  0  0  0  0  0  0  0
  -26.2780  -13.0660   20.2130 N   0  0  0  0  0  0  0  0  0  0  0  0
  -25.9440  -11.7770   20.4860 N   0  0  0  0  0  0  0  0  0  0  0  0
  -23.9360  -10.5320   20.9960 C   0  0  0  0  0  0  0  0  0  0  0  0
  -24.3770   -9.5670   21.9290 C   0  0  0  0  0  3  0  0  0  0  0  0
  -23.6560   -8.3660   22.1120 C   0  0  0  0  0  3  0  0  0  0  0  0
  -22.4810   -8.1220   21.3630 C   0  0  0  0  0  0  0  0  0  0  0  0
  -22.0600   -9.0750   20.4180 C   0  0  0  0  0  3  0  0  0  0  0  0
  -22.7810  -10.2670   20.2340 C   0  0  0  0  0  3  0  0  0  0  0  0
  -21.7330   -6.9720   21.4540 O   0  0  0  0  0  0  0  0  0  0  0  0
  -21.6930   -6.2300   22.6070 C   0  0  0  0  0  0  0  0  0  0  0  0
  -21.2590   -6.7790   23.8330 C   0  0  0  0  0  3  0  0  0  0  0  0
  -21.1670   -5.9610   24.9770 C   0  0  0  0  0  3  0  0  0  0  0  0
  -21.5000   -4.5960   24.8960 C   0  0  0  0  0  0  0  0  0  0  0  0
  -21.9260   -4.0460   23.6750 C   0  0  0  0  0  3  0  0  0  0  0  0
  -22.0190   -4.8610   22.5330 C   0  0  0  0  0  0  0  0  0  0  0  0
  -22.4110   -4.3200   21.3530 F   0  0  0  0  0  0  0  0  0  0  0  0
  -21.4050   -3.8090   25.9930 F   0  0  0  0  0  0  0  0  0  0  0  0
  -22.7750  -13.6130   21.1080 C   0  0  0  0  0  0  0  0  0  0  0  0
  -22.0510  -12.9100   21.9720 N   0  0  0  0  0  0  0  0  0  0  0  0
  -22.3320  -14.6370   20.5900 O   0  0  0  0  0  0  0  0  0  0  0  0
  -22.4230  -12.0840   22.4160 H   0  0  0  0  0  0  0  0  0  0  0  0
  -21.1100  -13.2050   22.1930 H   0  0  0  0  0  0  0  0  0  0  0  0
  -25.3780  -15.3040   20.2820 N   0  0  0  0  0  0  0  0  0  0  0  0
  -24.6000  -15.9450   20.3880 H   0  0  0  0  0  0  0  0  0  0  0  0
  -26.2090  -15.7470   19.9140 H   0  0  0  0  0  0  0  0  0  0  0  0
  -28.4990  -22.8080   20.6230 C   0  0  0  0  0  2  0  0  0  0  0  0
  -28.3550  -24.4350   19.8790 C   0  0  0  0  0  2  0  0  0  0  0  0
  -28.2580  -25.9930   20.3960 O   0  0  0  0  0  0  0  0  0  0  0  0
  -24.6240  -31.9150   23.2270 C   0  0  0  0  0  0  0  0  0  0  0  0
  -27.2290  -27.0540   20.2520 C   0  0  0  0  0  0  0  0  0  0  0  0
  -23.4490  -30.5090   21.5810 C   0  0  0  0  0  3  0  0  0  0  0  0
  -24.9150  -28.9060   20.1740 C   0  0  0  0  0  0  0  0  0  0  0  0
  -26.0130  -30.7340   21.4580 C   0  0  0  0  0  2  0  0  0  0  0  0
  -26.0910  -29.3240   20.8080 C   0  0  0  0  0  0  0  0  0  0  0  0
  -27.2380  -28.4150   20.8280 C   0  0  0  0  0  3  0  0  0  0  0  0
  -26.0260  -26.7810   19.5630 C   0  0  0  0  0  3  0  0  0  0  0  0
  -24.9060  -27.6550   19.5330 C   0  0  0  0  0  3  0  0  0  0  0  0
  -23.6900  -29.8180   20.2100 C   0  0  0  0  0  2  0  0  0  0  0  0
  -24.7150  -31.0800   22.1430 N   0  0  0  0  0  0  0  0  0  0  0  0
  -23.5290  -32.2040   23.7380 O   0  0  0  0  0  0  0  0  0  0  0  0
  -22.7500  -29.5150   22.5460 C   0  0  0  0  0  0  0  0  0  0  0  0
  -21.4210  -29.3490   22.4120 N   0  0  0  0  0  0  0  0  0  0  0  0
  -23.4100  -28.8940   23.3840 O   0  0  0  0  0  0  0  0  0  0  0  0
  -20.9410  -29.9010   21.7150 H   0  0  0  0  0  0  0  0  0  0  0  0
  -18.0350  -28.1460   22.9070 C   0  0  0  0  0  0  0  0  0  0  0  0
  -20.5930  -28.4140   23.1810 C   0  0  0  0  0  3  0  0  0  0  0  0
  -20.6970  -26.9800   22.6090 C   0  0  0  0  0  2  0  0  0  0  0  0
  -19.5990  -26.6560   21.5900 C   0  0  0  0  0  2  0  0  0  0  0  0
  -18.2150  -26.7990   22.2290 C   0  0  0  0  0  2  0  0  0  0  0  0
  -19.1510  -28.9120   23.3400 C   0  0  0  0  0  0  0  0  0  0  0  0
  -18.9260  -30.1700   23.9380 C   0  0  0  0  0  3  0  0  0  0  0  0
  -17.6190  -30.6670   24.1040 C   0  0  0  0  0  3  0  0  0  0  0  0
  -16.5180  -29.8990   23.6850 C   0  0  0  0  0  3  0  0  0  0  0  0
  -16.7260  -28.6410   23.0930 C   0  0  0  0  0  3  0  0  0  0  0  0
  -25.8880  -32.5640   23.8690 C   0  0  0  0  0  3  0  0  0  0  0  0
  -25.5670  -33.9680   24.1830 N   0  0  0  0  0  0  0  0  0  0  0  0
  -25.9110  -35.0210   23.4280 C   0  0  0  0  0  0  0  0  0  0  0  0
  -26.5920  -34.9130   22.4060 O   0  0  0  0  0  0  0  0  0  0  0  0
  -24.9610  -34.1240   24.9750 H   0  0  0  0  0  0  0  0  0  0  0  0
  -24.1920  -36.8240   23.0520 C   0  0  0  0  0  1  0  0  0  0  0  0
  -25.4220  -36.4150   23.8770 C   0  0  0  0  0  3  0  0  0  0  0  0
  -27.5490  -37.3020   24.7310 C   0  0  0  0  0  1  0  0  0  0  0  0
  -26.4600  -37.4660   23.7730 N   0  0  0  0  0  0  0  0  0  0  0  0
  -26.0520  -38.3870   23.9080 H   0  0  0  0  0  0  0  0  0  0  0  0
  -26.3750  -31.8150   25.1720 C   0  0  1  0  0  0  0  0  0  0  0  0
  -25.2580  -31.6000   26.2220 C   0  0  0  0  0  1  0  0  0  0  0  0
  -26.9620  -30.4280   24.8270 C   0  0  0  0  0  1  0  0  0  0  0  0
  -27.5130  -32.6190   25.8440 C   0  0  0  0  0  1  0  0  0  0  0  0
  2  1  1  0
  3 13  1  0
  3  1  1  0
  4  2  1  0
  4  3  1  0
  4 45  1  0
  5 11  1  0
  5 14  1  0
  6 11  1  0
  7  8  1  0
  7  6  1  0
  9  8  1  0
  9 20  1  0
  9 10  1  0
 11 10  1  0
 12  5  2  0
 13 14  1  0
 14 16  1  0
 15 13  2  0
 17 18  2  0
 18 37  1  0
 19 18  1  0
 19 22  1  0
 20 17  1  0
 20 21  1  0
 21 19  2  0
 22 23  1  0
 23 24  2  0
 25 28  1  0
 25 24  1  0
 26 25  2  0
 27 26  1  0
 27 22  2  0
 28 29  1  0
 29 30  1  0
 30 31  2  0
 32 31  1  0
 32 36  1  0
 33 32  2  0
 34 29  2  0
 34 33  1  0
 35 34  1  0
 37 38  1  0
 38 41  1  0
 38 40  1  0
 39 37  2  0
 42 43  1  0
 42 17  1  0
 44 42  1  0
 46 47  1  0
 46 45  1  0
 48 59  2  0
 49 47  1  0
 49 54  1  0
 50 58  1  0
 50 60  1  0
 51 57  1  0
 51 53  1  0
 52 58  1  0
 53 54  2  0
 53 52  1  0
 55 49  2  0
 56 55  1  0
 56 51  2  0
 57 50  1  0
 58 48  1  0
 60 62  2  0
 61 60  1  0
 63 61  1  0
 64 73  2  0
 64 69  1  0
 65 61  1  0
 65 69  1  0
 66 65  1  0
 67 68  1  0
 67 66  1  0
 68 64  1  0
 69 70  2  0
 70 71  1  0
 72 71  2  0
 73 72  1  0
 74 48  1  0
 74 75  1  0
 74 84  1  0
 75 78  1  0
 76 80  1  0
 76 75  1  0
 77 76  2  0
 80 79  1  0
 82 80  1  0
 82 83  1  0
 82 81  1  0
 84 87  1  1
 84 85  1  0
 86 84  1  0
M  ISO  4   5 100  14 100  46 101  47 101
M  END
>  <TORSDO>  (44) 
F 18

>  <SCORE>  (44) 
-16.067

>  <name>  (44) 
44

>  <ligand_id>  (44) 
44

>  <original_smiles>  (44) 
[H]c1c([H])c([H])c2c(c1[H])C([H])([H])C([H])([H])C([H])([H])C2([H])N([H])C(=O)C1([H])N(C(=O)C([H])(N([H])C(=O)C([H])(N([H])C([H])([H])[H])C([H])([H])[H])C(C([H])([H])[H])(C([H])([H])[H])C([H])([H])[H])C([H])([H])c2c([H])c(OC([H])([H])C([H])([H])C3([H])C([H])([H])C([H])([H])C3([H])C(=O)N([H])C(=O)N3C([H])([H])C([H])([H])C([H])([H])C([H])(n4nc(-c5c([H])c([H])c(Oc6c([H])c([H])c(F)c([H])c6F)c([H])c5[H])c(C(=O)N([H])[H])c4N([H])[H])C3([H])[H])c([H])c([H])c2C1([H])[H]

>  <smiles>  (44) 
[H]c1c([H])c([H])c2c(c1[H])C([H])([H])C([H])([H])C([H])([H])C2([H])N([H])C(=O)C1([H])N(C(=O)C([H])(N([H])C(=O)C([H])(N([H])C([H])([H])[H])C([H])([H])[H])C(C([H])([H])[H])(C([H])([H])[H])C([H])([H])[H])C([H])([H])c2c([H])c(OC([H])([H])C([H])([H])C3([H])C([H])([H])C([H])([H])C3([H])C(=O)N([H])C(=O)N3C([H])([H])C([H])([H])C([H])([H])C([H])(n4nc(-c5c([H])c([H])c(Oc6c([H])c([H])c(F)c([H])c6F)c([H])c5[H])c(C(=O)N([H])[H])c4N([H])[H])C3([H])[H])c([H])c([H])c2C1([H])[H]

$$$$
45:0:0
     RDKit          3D

 88 96  0  0  1  0  0  0  0  0999 V2000
  -29.3930  -20.4660   21.4550 C   0  0  0  0  0  2  0  0  0  0  0  0
  -29.2850  -20.3670   19.1120 C   0  0  0  0  0  2  0  0  0  0  0  0
  -28.6410  -21.9460   21.4350 C   0  0  0  0  0  2  0  0  0  0  0  0
  -28.5270  -21.8360   19.0880 C   0  0  0  0  0  2  0  0  0  0  0  0
  -29.1380  -19.3210   20.3340 C   0  0  0  0  0  3  0  0  0  0  0  0
  -28.7760  -22.9830   20.2010 C   0  0  0  0  0  3  0  0  0  0  0  0
  -30.4720  -15.2290   20.2800 C   0  0  0  0  0  0  0  0  0  0  0  0
  -30.3930  -12.8220   19.3850 C   0  0  0  0  0  2  0  0  0  0  0  0
  -29.4640  -12.6810   18.1560 C   0  0  0  0  0  2  0  0  0  0  0  0
  -28.0130  -12.4270   18.6030 C   0  0  0  0  0  2  0  0  0  0  0  0
  -27.5800  -13.3750   19.7510 C   0  0  0  0  0  3  0  0  0  0  0  0
  -28.6380  -13.4830   20.8690 C   0  0  0  0  0  2  0  0  0  0  0  0
  -29.8790  -13.9490   20.2340 N   0  0  0  0  0  0  0  0  0  0  0  0
  -31.6870  -15.2170   20.0470 O   0  0  0  0  0  0  0  0  0  0  0  0
  -30.0840  -17.8840   20.3220 C   0  0  0  0  0  0  0  0  0  0  0  0
  -29.7140  -16.4740   20.3780 N   0  0  0  0  0  0  0  0  0  0  0  0
  -31.2890  -18.1360   20.2470 O   0  0  0  0  0  0  0  0  0  0  0  0
  -28.7230  -16.3310   20.4780 H   0  0  0  0  0  0  0  0  0  0  0  0
  -25.2090  -13.9190   20.5270 C   0  0  0  0  0  0  0  0  0  0  0  0
  -24.1550  -13.1320   20.8980 C   0  0  0  0  0  0  0  0  0  0  0  0
  -24.6290  -11.7840   20.8500 C   0  0  0  0  0  0  0  0  0  0  0  0
  -26.2550  -13.0520   20.2660 N   0  0  0  0  0  0  0  0  0  0  0  0
  -25.9180  -11.7620   20.5280 N   0  0  0  0  0  0  0  0  0  0  0  0
  -23.9110  -10.5170   21.0300 C   0  0  0  0  0  0  0  0  0  0  0  0
  -24.3350   -9.5530   21.9710 C   0  0  0  0  0  3  0  0  0  0  0  0
  -23.6150   -8.3520   22.1420 C   0  0  0  0  0  3  0  0  0  0  0  0
  -22.4550   -8.1040   21.3700 C   0  0  0  0  0  0  0  0  0  0  0  0
  -22.0490   -9.0560   20.4180 C   0  0  0  0  0  3  0  0  0  0  0  0
  -22.7700  -10.2490   20.2460 C   0  0  0  0  0  3  0  0  0  0  0  0
  -21.7060   -6.9550   21.4500 O   0  0  0  0  0  0  0  0  0  0  0  0
  -21.6200   -6.2300   22.6110 C   0  0  0  0  0  0  0  0  0  0  0  0
  -21.1150   -6.7920   23.8040 C   0  0  0  0  0  3  0  0  0  0  0  0
  -20.9780   -5.9920   24.9570 C   0  0  0  0  0  3  0  0  0  0  0  0
  -21.3370   -4.6320   24.9160 C   0  0  0  0  0  0  0  0  0  0  0  0
  -21.8360   -4.0690   23.7270 C   0  0  0  0  0  3  0  0  0  0  0  0
  -21.9730   -4.8660   22.5780 C   0  0  0  0  0  0  0  0  0  0  0  0
  -22.4340   -4.3130   21.4300 F   0  0  0  0  0  0  0  0  0  0  0  0
  -21.1990   -3.8610   26.0200 F   0  0  0  0  0  0  0  0  0  0  0  0
  -22.7560  -13.5980   21.1780 C   0  0  0  0  0  0  0  0  0  0  0  0
  -22.0380  -12.8930   22.0450 N   0  0  0  0  0  0  0  0  0  0  0  0
  -22.3100  -14.6240   20.6660 O   0  0  0  0  0  0  0  0  0  0  0  0
  -22.4110  -12.0640   22.4820 H   0  0  0  0  0  0  0  0  0  0  0  0
  -21.1000  -13.1880   22.2760 H   0  0  0  0  0  0  0  0  0  0  0  0
  -25.3590  -15.2920   20.3600 N   0  0  0  0  0  0  0  0  0  0  0  0
  -24.5790  -15.9310   20.4730 H   0  0  0  0  0  0  0  0  0  0  0  0
  -26.1820  -15.7380   19.9790 H   0  0  0  0  0  0  0  0  0  0  0  0
  -27.8680  -24.4940   20.0990 C   0  0  0  0  0  2  0  0  0  0  0  0
  -28.1730  -26.0630   20.2840 O   0  0  0  0  0  0  0  0  0  0  0  0
  -24.6400  -31.9500   23.2440 C   0  0  0  0  0  0  0  0  0  0  0  0
  -27.1560  -27.1230   20.2160 C   0  0  0  0  0  0  0  0  0  0  0  0
  -23.4260  -30.5590   21.6140 C   0  0  0  0  0  3  0  0  0  0  0  0
  -24.8570  -28.9590   20.1840 C   0  0  0  0  0  0  0  0  0  0  0  0
  -25.9880  -30.7790   21.4440 C   0  0  0  0  0  2  0  0  0  0  0  0
  -26.0470  -29.3760   20.7920 C   0  0  0  0  0  0  0  0  0  0  0  0
  -27.1950  -28.4770   20.7870 C   0  0  0  0  0  3  0  0  0  0  0  0
  -25.9370  -26.8390   19.5620 C   0  0  0  0  0  3  0  0  0  0  0  0
  -24.8210  -27.7090   19.5490 C   0  0  0  0  0  3  0  0  0  0  0  0
  -23.6390  -29.8760   20.2370 C   0  0  0  0  0  2  0  0  0  0  0  0
  -24.7060  -31.1200   22.1550 N   0  0  0  0  0  0  0  0  0  0  0  0
  -23.5580  -32.2450   23.7730 O   0  0  0  0  0  0  0  0  0  0  0  0
  -22.7380  -29.5630   22.5840 C   0  0  0  0  0  0  0  0  0  0  0  0
  -21.4090  -29.3940   22.4570 N   0  0  0  0  0  0  0  0  0  0  0  0
  -23.4050  -28.9450   23.4180 O   0  0  0  0  0  0  0  0  0  0  0  0
  -20.9260  -29.9420   21.7610 H   0  0  0  0  0  0  0  0  0  0  0  0
  -18.0280  -28.1890   22.9680 C   0  0  0  0  0  0  0  0  0  0  0  0
  -20.5860  -28.4610   23.2340 C   0  0  0  0  0  3  0  0  0  0  0  0
  -20.6910  -27.0240   22.6710 C   0  0  0  0  0  2  0  0  0  0  0  0
  -19.5910  -26.6920   21.6580 C   0  0  0  0  0  2  0  0  0  0  0  0
  -18.2080  -26.8370   22.3000 C   0  0  0  0  0  2  0  0  0  0  0  0
  -19.1440  -28.9590   23.3920 C   0  0  0  0  0  0  0  0  0  0  0  0
  -18.9200  -30.2220   23.9810 C   0  0  0  0  0  3  0  0  0  0  0  0
  -17.6120  -30.7180   24.1470 C   0  0  0  0  0  3  0  0  0  0  0  0
  -16.5110  -29.9470   23.7360 C   0  0  0  0  0  3  0  0  0  0  0  0
  -16.7200  -28.6840   23.1530 C   0  0  0  0  0  3  0  0  0  0  0  0
  -25.9230  -32.5830   23.8650 C   0  0  0  0  0  3  0  0  0  0  0  0
  -25.6170  -33.9840   24.1980 N   0  0  0  0  0  0  0  0  0  0  0  0
  -25.9270  -35.0390   23.4320 C   0  0  0  0  0  0  0  0  0  0  0  0
  -26.5640  -34.9350   22.3820 O   0  0  0  0  0  0  0  0  0  0  0  0
  -25.0460  -34.1390   25.0160 H   0  0  0  0  0  0  0  0  0  0  0  0
  -24.1800  -36.8320   23.1500 C   0  0  0  0  0  1  0  0  0  0  0  0
  -25.4570  -36.4300   23.9060 C   0  0  0  0  0  3  0  0  0  0  0  0
  -27.6190  -37.3320   24.6450 C   0  0  0  0  0  1  0  0  0  0  0  0
  -26.4810  -37.4860   23.7430 N   0  0  0  0  0  0  0  0  0  0  0  0
  -26.0780  -38.4060   23.8950 H   0  0  0  0  0  0  0  0  0  0  0  0
  -26.4320  -31.8160   25.1480 C   0  0  1  0  0  0  0  0  0  0  0  0
  -25.3360  -31.5910   26.2160 C   0  0  0  0  0  1  0  0  0  0  0  0
  -27.0090  -30.4320   24.7710 C   0  0  0  0  0  1  0  0  0  0  0  0
  -27.5860  -32.6080   25.8070 C   0  0  0  0  0  1  0  0  0  0  0  0
  2  5  1  0
  3  1  1  0
  4  2  1  0
  4  6  1  0
  5 15  1  0
  5  1  1  0
  6 47  1  0
  6  3  1  0
  7 16  1  0
  8 13  1  0
  9 10  1  0
  9  8  1  0
 11 10  1  0
 11 22  1  0
 11 12  1  0
 13  7  1  0
 13 12  1  0
 14  7  2  0
 15 16  1  0
 16 18  1  0
 17 15  2  0
 19 20  2  0
 20 39  1  0
 21 20  1  0
 21 24  1  0
 22 19  1  0
 22 23  1  0
 23 21  2  0
 24 25  1  0
 25 26  2  0
 27 30  1  0
 27 26  1  0
 28 27  2  0
 29 28  1  0
 29 24  2  0
 30 31  1  0
 31 32  1  0
 32 33  2  0
 34 33  1  0
 34 38  1  0
 35 34  2  0
 36 31  2  0
 36 35  1  0
 37 36  1  0
 39 40  1  0
 40 43  1  0
 40 42  1  0
 41 39  2  0
 44 45  1  0
 44 19  1  0
 46 44  1  0
 47 48  1  0
 49 60  2  0
 50 48  1  0
 50 55  1  0
 51 59  1  0
 51 61  1  0
 52 58  1  0
 52 54  1  0
 53 59  1  0
 54 53  1  0
 55 54  2  0
 56 50  2  0
 57 56  1  0
 57 52  2  0
 58 51  1  0
 59 49  1  0
 61 63  2  0
 62 61  1  0
 64 62  1  0
 65 74  2  0
 65 70  1  0
 66 62  1  0
 66 70  1  0
 67 66  1  0
 68 69  1  0
 68 67  1  0
 69 65  1  0
 70 71  2  0
 71 72  1  0
 73 72  2  0
 74 73  1  0
 75 49  1  0
 75 76  1  0
 75 85  1  0
 76 79  1  0
 77 81  1  0
 77 76  1  0
 78 77  2  0
 81 80  1  0
 83 84  1  0
 83 81  1  0
 83 82  1  0
 85 88  1  1
 85 86  1  0
 87 85  1  0
M  ISO  4   7 100  16 100  47 101  48 101
M  END
>  <TORSDO>  (45) 
F 17

>  <SCORE>  (45) 
-16.140

>  <name>  (45) 
45

>  <ligand_id>  (45) 
45

>  <original_smiles>  (45) 
[H]c1c([H])c([H])c2c(c1[H])C([H])([H])C([H])([H])C([H])([H])C2([H])N([H])C(=O)C1([H])N(C(=O)C([H])(N([H])C(=O)C([H])(N([H])C([H])([H])[H])C([H])([H])[H])C(C([H])([H])[H])(C([H])([H])[H])C([H])([H])[H])C([H])([H])c2c([H])c(OC([H])([H])C3([H])C([H])([H])C([H])([H])C([H])(C(=O)N([H])C(=O)N4C([H])([H])C([H])([H])C([H])([H])C([H])(n5nc(-c6c([H])c([H])c(Oc7c([H])c([H])c(F)c([H])c7F)c([H])c6[H])c(C(=O)N([H])[H])c5N([H])[H])C4([H])[H])C([H])([H])C3([H])[H])c([H])c([H])c2C1([H])[H]

>  <smiles>  (45) 
[H]c1c([H])c([H])c2c(c1[H])C([H])([H])C([H])([H])C([H])([H])C2([H])N([H])C(=O)C1([H])N(C(=O)C([H])(N([H])C(=O)C([H])(N([H])C([H])([H])[H])C([H])([H])[H])C(C([H])([H])[H])(C([H])([H])[H])C([H])([H])[H])C([H])([H])c2c([H])c(OC([H])([H])C3([H])C([H])([H])C([H])([H])C([H])(C(=O)N([H])C(=O)N4C([H])([H])C([H])([H])C([H])([H])C([H])(n5nc(-c6c([H])c([H])c(Oc7c([H])c([H])c(F)c([H])c7F)c([H])c6[H])c(C(=O)N([H])[H])c5N([H])[H])C4([H])[H])C([H])([H])C3([H])[H])c([H])c([H])c2C1([H])[H]

$$$$
46:0:0
     RDKit          3D

 88 96  0  0  1  0  0  0  0  0999 V2000
  -31.1660  -22.4350   20.6440 C   0  0  0  0  0  3  0  0  0  0  0  0
  -30.7720  -21.0740   20.5680 C   0  0  0  0  0  3  0  0  0  0  0  0
  -30.2620  -23.5190   20.4940 C   0  0  0  0  0  3  0  0  0  0  0  0
  -28.5210  -21.8630   20.1830 C   0  0  0  0  0  3  0  0  0  0  0  0
  -29.4330  -20.6900   20.3390 C   0  0  0  0  0  0  0  0  0  0  0  0
  -28.8900  -23.3100   20.2540 C   0  0  0  0  0  0  0  0  0  0  0  0
  -29.0640  -19.0670   20.2850 C   0  0  0  0  0  3  0  0  0  0  0  0
  -30.1380  -17.7530   20.4270 C   0  0  0  0  0  3  0  0  0  0  0  0
  -30.5190  -15.0060   20.3280 C   0  0  0  0  0  0  0  0  0  0  0  0
  -30.3980  -12.6520   19.3870 C   0  0  0  0  0  2  0  0  0  0  0  0
  -29.4650  -12.6010   18.1550 C   0  0  0  0  0  2  0  0  0  0  0  0
  -28.0050  -12.3770   18.5890 C   0  0  0  0  0  2  0  0  0  0  0  0
  -27.5920  -13.2960   19.7700 C   0  0  0  0  0  3  0  0  0  0  0  0
  -28.6510  -13.3250   20.8910 C   0  0  0  0  0  2  0  0  0  0  0  0
  -29.9170  -13.7480   20.2760 N   0  0  0  0  0  0  0  0  0  0  0  0
  -31.7260  -15.0580   20.0670 O   0  0  0  0  0  0  0  0  0  0  0  0
  -29.7550  -16.2050   20.4600 N   0  0  0  0  0  0  0  0  0  0  0  0
  -28.7730  -16.0300   20.6060 H   0  0  0  0  0  0  0  0  0  0  0  0
  -25.2090  -13.8510   20.5170 C   0  0  0  0  0  0  0  0  0  0  0  0
  -24.1530  -13.0660   20.8890 C   0  0  0  0  0  0  0  0  0  0  0  0
  -24.6300  -11.7190   20.8570 C   0  0  0  0  0  0  0  0  0  0  0  0
  -26.2590  -12.9820   20.2740 N   0  0  0  0  0  0  0  0  0  0  0  0
  -25.9210  -11.6950   20.5470 N   0  0  0  0  0  0  0  0  0  0  0  0
  -23.9140  -10.4500   21.0470 C   0  0  0  0  0  0  0  0  0  0  0  0
  -24.3540   -9.4860   21.9790 C   0  0  0  0  0  3  0  0  0  0  0  0
  -23.6370   -8.2830   22.1590 C   0  0  0  0  0  3  0  0  0  0  0  0
  -22.4650   -8.0370   21.4060 C   0  0  0  0  0  0  0  0  0  0  0  0
  -22.0430   -8.9890   20.4620 C   0  0  0  0  0  3  0  0  0  0  0  0
  -22.7600  -10.1840   20.2820 C   0  0  0  0  0  3  0  0  0  0  0  0
  -21.7190   -6.8870   21.4940 O   0  0  0  0  0  0  0  0  0  0  0  0
  -21.6800   -6.1410   22.6450 C   0  0  0  0  0  0  0  0  0  0  0  0
  -21.2540   -6.6880   23.8740 C   0  0  0  0  0  3  0  0  0  0  0  0
  -21.1640   -5.8670   25.0170 C   0  0  0  0  0  3  0  0  0  0  0  0
  -21.4890   -4.5000   24.9310 C   0  0  0  0  0  0  0  0  0  0  0  0
  -21.9080   -3.9530   23.7050 C   0  0  0  0  0  3  0  0  0  0  0  0
  -22.0000   -4.7690   22.5650 C   0  0  0  0  0  0  0  0  0  0  0  0
  -22.3840   -4.2320   21.3820 F   0  0  0  0  0  0  0  0  0  0  0  0
  -21.3950   -3.7090   26.0250 F   0  0  0  0  0  0  0  0  0  0  0  0
  -22.7510  -13.5310   21.1550 C   0  0  0  0  0  0  0  0  0  0  0  0
  -22.0280  -12.8330   22.0230 N   0  0  0  0  0  0  0  0  0  0  0  0
  -22.3060  -14.5500   20.6280 O   0  0  0  0  0  0  0  0  0  0  0  0
  -22.4040  -12.0120   22.4750 H   0  0  0  0  0  0  0  0  0  0  0  0
  -21.0860  -13.1250   22.2410 H   0  0  0  0  0  0  0  0  0  0  0  0
  -25.3570  -15.2230   20.3360 N   0  0  0  0  0  0  0  0  0  0  0  0
  -24.5720  -15.8590   20.4340 H   0  0  0  0  0  0  0  0  0  0  0  0
  -26.1840  -15.6700   19.9620 H   0  0  0  0  0  0  0  0  0  0  0  0
  -27.9020  -24.6250   20.0350 C   0  0  0  0  0  2  0  0  0  0  0  0
  -28.2300  -26.1410   20.2680 O   0  0  0  0  0  0  0  0  0  0  0  0
  -24.6420  -31.8930   23.2460 C   0  0  0  0  0  0  0  0  0  0  0  0
  -27.1940  -27.1540   20.2040 C   0  0  0  0  0  0  0  0  0  0  0  0
  -23.4360  -30.5070   21.6060 C   0  0  0  0  0  3  0  0  0  0  0  0
  -24.8760  -28.9260   20.1780 C   0  0  0  0  0  0  0  0  0  0  0  0
  -25.9940  -30.7520   21.4450 C   0  0  0  0  0  2  0  0  0  0  0  0
  -26.0600  -29.3590   20.7890 C   0  0  0  0  0  0  0  0  0  0  0  0
  -27.2190  -28.4890   20.7860 C   0  0  0  0  0  3  0  0  0  0  0  0
  -25.9810  -26.8340   19.5510 C   0  0  0  0  0  3  0  0  0  0  0  0
  -24.8510  -27.6770   19.5430 C   0  0  0  0  0  3  0  0  0  0  0  0
  -23.6540  -29.8310   20.2270 C   0  0  0  0  0  2  0  0  0  0  0  0
  -24.7100  -31.0710   22.1540 N   0  0  0  0  0  0  0  0  0  0  0  0
  -23.5560  -32.1830   23.7730 O   0  0  0  0  0  0  0  0  0  0  0  0
  -22.7480  -29.5030   22.5670 C   0  0  0  0  0  0  0  0  0  0  0  0
  -21.4190  -29.3390   22.4380 N   0  0  0  0  0  0  0  0  0  0  0  0
  -23.4130  -28.8730   23.3930 O   0  0  0  0  0  0  0  0  0  0  0  0
  -20.9370  -29.8980   21.7460 H   0  0  0  0  0  0  0  0  0  0  0  0
  -18.0310  -28.1490   22.9270 C   0  0  0  0  0  0  0  0  0  0  0  0
  -20.5900  -28.4070   23.2090 C   0  0  0  0  0  3  0  0  0  0  0  0
  -20.6920  -26.9720   22.6410 C   0  0  0  0  0  2  0  0  0  0  0  0
  -19.5940  -26.6460   21.6230 C   0  0  0  0  0  2  0  0  0  0  0  0
  -18.2090  -26.7960   22.2580 C   0  0  0  0  0  2  0  0  0  0  0  0
  -19.1490  -28.9120   23.3590 C   0  0  0  0  0  0  0  0  0  0  0  0
  -18.9260  -30.1750   23.9480 C   0  0  0  0  0  3  0  0  0  0  0  0
  -17.6200  -30.6770   24.1060 C   0  0  0  0  0  3  0  0  0  0  0  0
  -16.5180  -29.9110   23.6880 C   0  0  0  0  0  3  0  0  0  0  0  0
  -16.7250  -28.6490   23.1040 C   0  0  0  0  0  3  0  0  0  0  0  0
  -25.9210  -32.5210   23.8760 C   0  0  0  0  0  3  0  0  0  0  0  0
  -26.4300  -31.7450   25.1520 C   0  0  1  0  0  0  0  0  0  0  0  0
  -25.3320  -31.5120   26.2170 C   0  0  0  0  0  1  0  0  0  0  0  0
  -27.0050  -30.3640   24.7630 C   0  0  0  0  0  1  0  0  0  0  0  0
  -27.5830  -32.5300   25.8180 C   0  0  0  0  0  1  0  0  0  0  0  0
  -25.6140  -33.9190   24.2170 N   0  0  0  0  0  0  0  0  0  0  0  0
  -25.9260  -34.9790   23.4580 C   0  0  0  0  0  0  0  0  0  0  0  0
  -26.5690  -34.8820   22.4090 O   0  0  0  0  0  0  0  0  0  0  0  0
  -25.0410  -34.0690   25.0350 H   0  0  0  0  0  0  0  0  0  0  0  0
  -24.1750  -36.7650   23.1780 C   0  0  0  0  0  1  0  0  0  0  0  0
  -25.4520  -36.3660   23.9370 C   0  0  0  0  0  3  0  0  0  0  0  0
  -27.6130  -37.2660   24.6780 C   0  0  0  0  0  1  0  0  0  0  0  0
  -26.4740  -37.4240   23.7780 N   0  0  0  0  0  0  0  0  0  0  0  0
  -26.0690  -38.3430   23.9370 H   0  0  0  0  0  0  0  0  0  0  0  0
  2  1  1  0
  3  1  2  0
  4  6  2  0
  4  5  1  0
  5  2  2  0
  6  3  1  0
  7  5  1  0
  7  8  2  0
  8 17  1  0
  9 17  1  0
 10 15  1  0
 11 12  1  0
 11 10  1  0
 13 12  1  0
 13 22  1  0
 13 14  1  0
 15  9  1  0
 15 14  1  0
 16  9  2  0
 17 18  1  0
 19 20  2  0
 20 39  1  0
 21 20  1  0
 21 24  1  0
 22 19  1  0
 22 23  1  0
 23 21  2  0
 24 25  1  0
 25 26  2  0
 27 30  1  0
 27 26  1  0
 28 27  2  0
 29 28  1  0
 29 24  2  0
 30 31  1  0
 31 32  1  0
 32 33  2  0
 34 33  1  0
 34 38  1  0
 35 34  2  0
 36 31  2  0
 36 35  1  0
 37 36  1  0
 39 40  1  0
 40 43  1  0
 40 42  1  0
 41 39  2  0
 44 45  1  0
 44 19  1  0
 46 44  1  0
 47  6  1  0
 47 48  1  0
 49 60  2  0
 50 48  1  0
 50 55  1  0
 51 59  1  0
 51 61  1  0
 52 58  1  0
 52 54  1  0
 53 59  1  0
 54 53  1  0
 55 54  2  0
 56 50  2  0
 57 56  1  0
 57 52  2  0
 58 51  1  0
 59 49  1  0
 61 63  2  0
 62 61  1  0
 64 62  1  0
 65 74  2  0
 65 70  1  0
 66 62  1  0
 66 70  1  0
 67 66  1  0
 68 69  1  0
 68 67  1  0
 69 65  1  0
 70 71  2  0
 71 72  1  0
 73 72  2  0
 74 73  1  0
 75 49  1  0
 75 80  1  0
 75 76  1  0
 76 79  1  1
 76 77  1  0
 78 76  1  0
 80 83  1  0
 81 85  1  0
 81 80  1  0
 82 81  2  0
 85 84  1  0
 87 85  1  0
 87 88  1  0
 87 86  1  0
M  ISO  4   9 100  17 100  47 101  48 101
M  END
>  <TORSDO>  (46) 
F 19

>  <SCORE>  (46) 
-14.983

>  <name>  (46) 
46

>  <ligand_id>  (46) 
46

>  <original_smiles>  (46) 
[H]c1c([H])c(C([H])([H])Oc2c([H])c([H])c3c(c2[H])C([H])([H])N(C(=O)C([H])(N([H])C(=O)C([H])(N([H])C([H])([H])[H])C([H])([H])[H])C(C([H])([H])[H])(C([H])([H])[H])C([H])([H])[H])C([H])(C(=O)N([H])C2([H])c4c([H])c([H])c([H])c([H])c4C([H])([H])C([H])([H])C2([H])[H])C3([H])[H])c([H])c(C([H])([H])C([H])([H])N([H])C(=O)N2C([H])([H])C([H])([H])C([H])([H])C([H])(n3nc(-c4c([H])c([H])c(Oc5c([H])c([H])c(F)c([H])c5F)c([H])c4[H])c(C(=O)N([H])[H])c3N([H])[H])C2([H])[H])c1[H]

>  <smiles>  (46) 
[H]c1c([H])c(C([H])([H])Oc2c([H])c([H])c3c(c2[H])C([H])([H])N(C(=O)C([H])(N([H])C(=O)C([H])(N([H])C([H])([H])[H])C([H])([H])[H])C(C([H])([H])[H])(C([H])([H])[H])C([H])([H])[H])C([H])(C(=O)N([H])C2([H])c4c([H])c([H])c([H])c([H])c4C([H])([H])C([H])([H])C2([H])[H])C3([H])[H])c([H])c(C([H])([H])C([H])([H])N([H])C(=O)N2C([H])([H])C([H])([H])C([H])([H])C([H])(n3nc(-c4c([H])c([H])c(Oc5c([H])c([H])c(F)c([H])c5F)c([H])c4[H])c(C(=O)N([H])[H])c3N([H])[H])C2([H])[H])c1[H]

$$$$
47:0:0
     RDKit          3D

 88 96  0  0  1  0  0  0  0  0999 V2000
  -30.6630  -15.4550   20.4470 C   0  0  0  0  0  0  0  0  0  0  0  0
  -30.4810  -13.1500   19.2820 C   0  0  0  0  0  2  0  0  0  0  0  0
  -29.5390  -13.1310   18.0530 C   0  0  0  0  0  2  0  0  0  0  0  0
  -28.0800  -12.8820   18.4830 C   0  0  0  0  0  2  0  0  0  0  0  0
  -27.6810  -13.7310   19.7140 C   0  0  0  0  0  3  0  0  0  0  0  0
  -28.7510  -13.7200   20.8270 C   0  0  0  0  0  2  0  0  0  0  0  0
  -29.9980  -14.2190   20.2210 N   0  0  0  0  0  0  0  0  0  0  0  0
  -31.8980  -15.3610   20.3950 O   0  0  0  0  0  0  0  0  0  0  0  0
  -28.7000  -19.5920   19.6750 C   0  0  0  0  0  2  0  0  0  0  0  0
  -28.9450  -17.0130   19.4920 C   0  0  0  0  0  2  0  0  0  0  0  0
  -30.2460  -18.2310   21.2390 C   0  0  0  0  0  2  0  0  0  0  0  0
  -28.9830  -18.3820   18.7450 C   0  0  0  0  0  3  0  0  0  0  0  0
  -29.8250  -19.8520   20.6800 C   0  0  0  0  0  3  0  0  0  0  0  0
  -29.9930  -16.7840   20.5010 N   0  0  0  0  0  0  0  0  0  0  0  0
  -25.2920  -14.3200   20.3840 C   0  0  0  0  0  0  0  0  0  0  0  0
  -24.2190  -13.5530   20.7410 C   0  0  0  0  0  0  0  0  0  0  0  0
  -24.6930  -12.2040   20.7710 C   0  0  0  0  0  0  0  0  0  0  0  0
  -26.3440  -13.4370   20.2040 N   0  0  0  0  0  0  0  0  0  0  0  0
  -25.9940  -12.1620   20.5070 N   0  0  0  0  0  0  0  0  0  0  0  0
  -23.9650  -10.9470   20.9770 C   0  0  0  0  0  0  0  0  0  0  0  0
  -24.3890   -9.9960   21.9310 C   0  0  0  0  0  3  0  0  0  0  0  0
  -23.6590   -8.8040   22.1240 C   0  0  0  0  0  3  0  0  0  0  0  0
  -22.4930   -8.5550   21.3630 C   0  0  0  0  0  0  0  0  0  0  0  0
  -22.0880   -9.4940   20.3990 C   0  0  0  0  0  3  0  0  0  0  0  0
  -22.8180  -10.6780   20.2020 C   0  0  0  0  0  3  0  0  0  0  0  0
  -21.7360   -7.4130   21.4660 O   0  0  0  0  0  0  0  0  0  0  0  0
  -21.7160   -6.6650   22.6150 C   0  0  0  0  0  0  0  0  0  0  0  0
  -21.3600   -7.2220   23.8620 C   0  0  0  0  0  3  0  0  0  0  0  0
  -21.2860   -6.4010   25.0060 C   0  0  0  0  0  3  0  0  0  0  0  0
  -21.5570   -5.0230   24.9020 C   0  0  0  0  0  0  0  0  0  0  0  0
  -21.9080   -4.4650   23.6600 C   0  0  0  0  0  3  0  0  0  0  0  0
  -21.9840   -5.2840   22.5190 C   0  0  0  0  0  0  0  0  0  0  0  0
  -22.3010   -4.7380   21.3200 F   0  0  0  0  0  0  0  0  0  0  0  0
  -21.4790   -4.2330   25.9970 F   0  0  0  0  0  0  0  0  0  0  0  0
  -22.8130  -14.0340   20.9410 C   0  0  0  0  0  0  0  0  0  0  0  0
  -22.0620  -13.3800   21.8220 N   0  0  0  0  0  0  0  0  0  0  0  0
  -22.3870  -15.0260   20.3520 O   0  0  0  0  0  0  0  0  0  0  0  0
  -22.4210  -12.5800   22.3210 H   0  0  0  0  0  0  0  0  0  0  0  0
  -21.1170  -13.6880   22.0000 H   0  0  0  0  0  0  0  0  0  0  0  0
  -25.4500  -15.6850   20.1690 N   0  0  0  0  0  0  0  0  0  0  0  0
  -24.6760  -16.3350   20.2430 H   0  0  0  0  0  0  0  0  0  0  0  0
  -26.3110  -16.1250   19.8750 H   0  0  0  0  0  0  0  0  0  0  0  0
  -28.4660  -17.6860   16.2960 C   0  0  0  0  0  1  0  0  0  0  0  0
  -27.9790  -18.3990   17.5680 C   0  0  0  0  0  2  0  0  0  0  0  0
  -29.4860  -21.3760   21.5480 C   0  0  0  0  0  2  0  0  0  0  0  0
  -29.5280  -23.1030   21.0960 C   0  0  0  0  0  3  0  0  0  0  0  0
  -28.6520  -24.5460   21.6760 C   0  0  0  0  0  3  0  0  0  0  0  0
  -28.8070  -26.1610   21.4930 O   0  0  0  0  0  0  0  0  0  0  0  0
  -24.6520  -32.0970   23.5700 C   0  0  0  0  0  0  0  0  0  0  0  0
  -27.7280  -27.1550   21.2910 C   0  0  0  0  0  0  0  0  0  0  0  0
  -23.7010  -30.5070   21.9480 C   0  0  0  0  0  3  0  0  0  0  0  0
  -25.3600  -28.8670   20.8400 C   0  0  0  0  0  0  0  0  0  0  0  0
  -26.2540  -30.8490   22.0440 C   0  0  0  0  0  2  0  0  0  0  0  0
  -26.4550  -29.3970   21.5330 C   0  0  0  0  0  0  0  0  0  0  0  0
  -27.6400  -28.5610   21.7280 C   0  0  0  0  0  3  0  0  0  0  0  0
  -26.5990  -26.7550   20.5430 C   0  0  0  0  0  3  0  0  0  0  0  0
  -25.4540  -27.5640   20.3260 C   0  0  0  0  0  3  0  0  0  0  0  0
  -24.1050  -29.7200   20.6710 C   0  0  0  0  0  2  0  0  0  0  0  0
  -24.8830  -31.1830   22.5740 N   0  0  0  0  0  0  0  0  0  0  0  0
  -23.5020  -32.3730   23.9480 O   0  0  0  0  0  0  0  0  0  0  0  0
  -22.9510  -29.5610   22.9220 C   0  0  0  0  0  0  0  0  0  0  0  0
  -21.6490  -29.3240   22.6770 N   0  0  0  0  0  0  0  0  0  0  0  0
  -23.5510  -29.0380   23.8640 O   0  0  0  0  0  0  0  0  0  0  0  0
  -21.2190  -29.7980   21.8950 H   0  0  0  0  0  0  0  0  0  0  0  0
  -18.2760  -28.0210   22.9550 C   0  0  0  0  0  0  0  0  0  0  0  0
  -20.7860  -28.4170   23.4400 C   0  0  0  0  0  3  0  0  0  0  0  0
  -20.9940  -26.9490   22.9980 C   0  0  0  0  0  2  0  0  0  0  0  0
  -20.0100  -26.5010   21.9130 C   0  0  0  0  0  2  0  0  0  0  0  0
  -18.5660  -26.6340   22.4080 C   0  0  0  0  0  2  0  0  0  0  0  0
  -19.3180  -28.8650   23.4240 C   0  0  0  0  0  0  0  0  0  0  0  0
  -18.9940  -30.1560   23.8940 C   0  0  0  0  0  3  0  0  0  0  0  0
  -17.6600  -30.6070   23.8980 C   0  0  0  0  0  3  0  0  0  0  0  0
  -16.6310  -29.7640   23.4430 C   0  0  0  0  0  3  0  0  0  0  0  0
  -16.9390  -28.4730   22.9780 C   0  0  0  0  0  3  0  0  0  0  0  0
  -25.8200  -32.8530   24.2720 C   0  0  0  0  0  3  0  0  0  0  0  0
  -26.1940  -32.2450   25.6800 C   0  0  1  0  0  0  0  0  0  0  0  0
  -24.9770  -32.0320   26.6110 C   0  0  0  0  0  1  0  0  0  0  0  0
  -26.9040  -30.8810   25.5210 C   0  0  0  0  0  1  0  0  0  0  0  0
  -27.1930  -33.1780   26.4050 C   0  0  0  0  0  1  0  0  0  0  0  0
  -25.4220  -34.2640   24.4180 N   0  0  0  0  0  0  0  0  0  0  0  0
  -25.8000  -35.2570   23.6030 C   0  0  0  0  0  0  0  0  0  0  0  0
  -26.5810  -35.0860   22.6640 O   0  0  0  0  0  0  0  0  0  0  0  0
  -24.7370  -34.4660   25.1330 H   0  0  0  0  0  0  0  0  0  0  0  0
  -24.0600  -36.9390   22.8990 C   0  0  0  0  0  1  0  0  0  0  0  0
  -25.2210  -36.6630   23.8690 C   0  0  0  0  0  3  0  0  0  0  0  0
  -27.2320  -37.7090   24.8160 C   0  0  0  0  0  1  0  0  0  0  0  0
  -26.2250  -37.7440   23.7590 N   0  0  0  0  0  0  0  0  0  0  0  0
  -25.7750  -38.6560   23.7790 H   0  0  0  0  0  0  0  0  0  0  0  0
  1 14  1  0
  2  7  1  0
  3  4  1  0
  3  2  1  0
  5  4  1  0
  5 18  1  0
  5  6  1  0
  7  1  1  0
  7  6  1  0
  8  1  2  0
  9 13  1  0
 10 14  1  0
 12 44  1  0
 12 10  1  0
 12  9  1  0
 13 11  1  0
 13 45  1  0
 14 11  1  0
 15 16  2  0
 16 17  1  0
 16 35  1  0
 17 20  1  0
 18 15  1  0
 18 19  1  0
 19 17  2  0
 20 21  1  0
 21 22  2  0
 23 26  1  0
 23 22  1  0
 24 23  2  0
 25 24  1  0
 25 20  2  0
 26 27  1  0
 27 28  1  0
 28 29  2  0
 30 29  1  0
 30 34  1  0
 31 30  2  0
 32 27  2  0
 32 31  1  0
 33 32  1  0
 35 36  1  0
 36 39  1  0
 36 38  1  0
 37 35  2  0
 40 41  1  0
 40 15  1  0
 42 40  1  0
 43 44  1  0
 46 45  1  0
 46 47  2  0
 48 47  1  0
 49 60  2  0
 50 48  1  0
 50 55  1  0
 51 59  1  0
 51 61  1  0
 52 54  1  0
 53 59  1  0
 54 55  2  0
 54 53  1  0
 56 50  2  0
 57 56  1  0
 57 52  2  0
 58 52  1  0
 58 51  1  0
 59 49  1  0
 61 63  2  0
 62 61  1  0
 64 62  1  0
 65 74  2  0
 65 70  1  0
 66 62  1  0
 67 66  1  0
 68 69  1  0
 68 67  1  0
 69 65  1  0
 70 66  1  0
 70 71  2  0
 71 72  1  0
 73 72  2  0
 74 73  1  0
 75 49  1  0
 75 80  1  0
 75 76  1  0
 76 79  1  1
 76 77  1  0
 78 76  1  0
 80 83  1  0
 81 85  1  0
 81 80  1  0
 82 81  2  0
 85 84  1  0
 87 88  1  0
 87 85  1  0
 87 86  1  0
M  ISO  4   1 100  14 100  47 101  48 101
M  END
>  <TORSDO>  (47) 
F 19

>  <SCORE>  (47) 
-12.461

>  <name>  (47) 
47

>  <ligand_id>  (47) 
47

>  <original_smiles>  (47) 
[H]c1c([H])c([H])c2c(c1[H])C([H])([H])C([H])([H])C([H])([H])C2([H])N([H])C(=O)C1([H])N(C(=O)C([H])(N([H])C(=O)C([H])(N([H])C([H])([H])[H])C([H])([H])[H])C(C([H])([H])[H])(C([H])([H])[H])C([H])([H])[H])C([H])([H])c2c([H])c(OC([H])([H])C([H])([H])C([H])([H])C3([H])C([H])([H])N(C(=O)N4C([H])([H])C([H])([H])C([H])([H])C([H])(n5nc(-c6c([H])c([H])c(Oc7c([H])c([H])c(F)c([H])c7F)c([H])c6[H])c(C(=O)N([H])[H])c5N([H])[H])C4([H])[H])C([H])([H])C([H])(C([H])([H])C([H])([H])[H])C3([H])[H])c([H])c([H])c2C1([H])[H]

>  <smiles>  (47) 
[H]c1c([H])c([H])c2c(c1[H])C([H])([H])C([H])([H])C([H])([H])C2([H])N([H])C(=O)C1([H])N(C(=O)C([H])(N([H])C(=O)C([H])(N([H])C([H])([H])[H])C([H])([H])[H])C(C([H])([H])[H])(C([H])([H])[H])C([H])([H])[H])C([H])([H])c2c([H])c(OC([H])([H])C([H])([H])C([H])([H])C3([H])C([H])([H])N(C(=O)N4C([H])([H])C([H])([H])C([H])([H])C([H])(n5nc(-c6c([H])c([H])c(Oc7c([H])c([H])c(F)c([H])c7F)c([H])c6[H])c(C(=O)N([H])[H])c5N([H])[H])C4([H])[H])C([H])([H])C([H])(C([H])([H])C([H])([H])[H])C3([H])[H])c([H])c([H])c2C1([H])[H]

$$$$
48:0:0
     RDKit          3D

 89 97  0  0  1  0  0  0  0  0999 V2000
  -28.2900  -21.0980   18.3370 C   0  0  0  0  0  1  0  0  0  0  0  0
  -27.1240  -21.0780   20.5090 C   0  0  0  0  0  1  0  0  0  0  0  0
  -28.5300  -21.1310   19.8580 C   0  0  1  0  0  0  0  0  0  0  0  0
  -30.6960  -15.4380   20.0370 C   0  0  0  0  0  0  0  0  0  0  0  0
  -30.6210  -12.9930   19.1780 C   0  0  0  0  0  2  0  0  0  0  0  0
  -29.6670  -12.7640   17.9830 C   0  0  0  0  0  2  0  0  0  0  0  0
  -28.2370  -12.4850   18.4720 C   0  0  0  0  0  2  0  0  0  0  0  0
  -27.8170  -13.4630   19.5940 C   0  0  0  0  0  3  0  0  0  0  0  0
  -28.8910  -13.6600   20.6810 C   0  0  0  0  0  2  0  0  0  0  0  0
  -30.1010  -14.1490   20.0060 N   0  0  0  0  0  0  0  0  0  0  0  0
  -31.8940  -15.4020   19.7240 O   0  0  0  0  0  0  0  0  0  0  0  0
  -30.3280  -19.2070   21.3130 C   0  0  0  0  0  2  0  0  0  0  0  0
  -30.5830  -17.6210   21.4370 C   0  0  0  0  0  2  0  0  0  0  0  0
  -29.2080  -19.4820   20.2950 C   0  0  0  0  0  3  0  0  0  0  0  0
  -29.4330  -17.9770   19.4880 C   0  0  0  0  0  3  0  0  0  0  0  0
  -30.0380  -16.7480   20.3340 N   0  0  0  0  0  0  0  0  0  0  0  0
  -25.4950  -14.0100   20.4920 C   0  0  0  0  0  0  0  0  0  0  0  0
  -24.4480  -13.2260   20.8840 C   0  0  0  0  0  0  0  0  0  0  0  0
  -24.9030  -11.8760   20.7830 C   0  0  0  0  0  0  0  0  0  0  0  0
  -26.5160  -13.1380   20.1620 N   0  0  0  0  0  0  0  0  0  0  0  0
  -26.1760  -11.8460   20.4050 N   0  0  0  0  0  0  0  0  0  0  0  0
  -24.1770  -10.6120   20.9610 C   0  0  0  0  0  0  0  0  0  0  0  0
  -24.5960   -9.6410   21.8990 C   0  0  0  0  0  3  0  0  0  0  0  0
  -23.8640   -8.4460   22.0670 C   0  0  0  0  0  3  0  0  0  0  0  0
  -22.6970   -8.2130   21.3000 C   0  0  0  0  0  0  0  0  0  0  0  0
  -22.3000   -9.1710   20.3520 C   0  0  0  0  0  3  0  0  0  0  0  0
  -23.0330  -10.3570   20.1810 C   0  0  0  0  0  3  0  0  0  0  0  0
  -21.9390   -7.0690   21.3810 O   0  0  0  0  0  0  0  0  0  0  0  0
  -21.8010   -6.3800   22.5570 C   0  0  0  0  0  0  0  0  0  0  0  0
  -21.2160   -6.9650   23.7020 C   0  0  0  0  0  3  0  0  0  0  0  0
  -21.0270   -6.1940   24.8670 C   0  0  0  0  0  3  0  0  0  0  0  0
  -21.4130   -4.8430   24.8880 C   0  0  0  0  0  0  0  0  0  0  0  0
  -21.9910   -4.2570   23.7480 C   0  0  0  0  0  3  0  0  0  0  0  0
  -22.1810   -5.0210   22.5840 C   0  0  0  0  0  0  0  0  0  0  0  0
  -22.7190   -4.4460   21.4820 F   0  0  0  0  0  0  0  0  0  0  0  0
  -21.2250   -4.1000   26.0060 F   0  0  0  0  0  0  0  0  0  0  0  0
  -23.0690  -13.7030   21.2370 C   0  0  0  0  0  0  0  0  0  0  0  0
  -22.3770  -12.9900   22.1180 N   0  0  0  0  0  0  0  0  0  0  0  0
  -22.6150  -14.7450   20.7640 O   0  0  0  0  0  0  0  0  0  0  0  0
  -22.7560  -12.1430   22.5200 H   0  0  0  0  0  0  0  0  0  0  0  0
  -21.4580  -13.2960   22.4020 H   0  0  0  0  0  0  0  0  0  0  0  0
  -25.6590  -15.3870   20.3600 N   0  0  0  0  0  0  0  0  0  0  0  0
  -24.9050  -16.0370   20.5540 H   0  0  0  0  0  0  0  0  0  0  0  0
  -26.5020  -15.8440   20.0340 H   0  0  0  0  0  0  0  0  0  0  0  0
  -31.6610  -18.7010   18.4340 C   0  0  0  0  0  1  0  0  0  0  0  0
  -30.2490  -18.1570   18.1920 C   0  0  0  0  0  2  0  0  0  0  0  0
  -28.9770  -22.8510   20.1560 C   0  0  0  0  0  3  0  0  0  0  0  0
  -28.0470  -24.3870   19.9560 C   0  0  0  0  0  3  0  0  0  0  0  0
  -28.3220  -25.9950   20.1830 O   0  0  0  0  0  0  0  0  0  0  0  0
  -24.6820  -31.8410   23.2250 C   0  0  0  0  0  0  0  0  0  0  0  0
  -27.3200  -27.0920   20.1090 C   0  0  0  0  0  0  0  0  0  0  0  0
  -23.5310  -30.4950   21.5170 C   0  0  0  0  0  3  0  0  0  0  0  0
  -25.0150  -28.9530   20.0670 C   0  0  0  0  0  0  0  0  0  0  0  0
  -26.0970  -30.7310   21.4270 C   0  0  0  0  0  2  0  0  0  0  0  0
  -26.1880  -29.3460   20.7260 C   0  0  0  0  0  0  0  0  0  0  0  0
  -27.3340  -28.4370   20.7240 C   0  0  0  0  0  3  0  0  0  0  0  0
  -26.1250  -26.8510   19.3940 C   0  0  0  0  0  3  0  0  0  0  0  0
  -25.0070  -27.7250   19.3870 C   0  0  0  0  0  3  0  0  0  0  0  0
  -23.7900  -29.8660   20.1210 C   0  0  0  0  0  2  0  0  0  0  0  0
  -24.7920  -31.0480   22.1120 N   0  0  0  0  0  0  0  0  0  0  0  0
  -23.5810  -32.1070   23.7320 O   0  0  0  0  0  0  0  0  0  0  0  0
  -22.8340  -29.4570   22.4330 C   0  0  0  0  0  0  0  0  0  0  0  0
  -21.5090  -29.2810   22.2780 N   0  0  0  0  0  0  0  0  0  0  0  0
  -23.4930  -28.8140   23.2550 O   0  0  0  0  0  0  0  0  0  0  0  0
  -21.0310  -29.8530   21.5970 H   0  0  0  0  0  0  0  0  0  0  0  0
  -18.1280  -28.0460   22.7140 C   0  0  0  0  0  0  0  0  0  0  0  0
  -20.6860  -28.3090   23.0010 C   0  0  0  0  0  3  0  0  0  0  0  0
  -20.7940  -26.9020   22.3680 C   0  0  0  0  0  2  0  0  0  0  0  0
  -19.6970  -26.6200   21.3340 C   0  0  0  0  0  2  0  0  0  0  0  0
  -18.3120  -26.7310   21.9770 C   0  0  0  0  0  2  0  0  0  0  0  0
  -19.2410  -28.7940   23.1810 C   0  0  0  0  0  0  0  0  0  0  0  0
  -19.0090  -30.0240   23.8330 C   0  0  0  0  0  3  0  0  0  0  0  0
  -17.7010  -30.5070   24.0210 C   0  0  0  0  0  3  0  0  0  0  0  0
  -16.6030  -29.7570   23.5620 C   0  0  0  0  0  3  0  0  0  0  0  0
  -16.8170  -28.5260   22.9150 C   0  0  0  0  0  3  0  0  0  0  0  0
  -25.9370  -32.4740   23.9030 C   0  0  0  0  0  3  0  0  0  0  0  0
  -26.3920  -31.7010   25.2020 C   0  0  1  0  0  0  0  0  0  0  0  0
  -25.2550  -31.4730   26.2240 C   0  0  0  0  0  1  0  0  0  0  0  0
  -26.9870  -30.3190   24.8450 C   0  0  0  0  0  1  0  0  0  0  0  0
  -27.5110  -32.4940   25.9150 C   0  0  0  0  0  1  0  0  0  0  0  0
  -25.6150  -33.8740   24.2310 N   0  0  0  0  0  0  0  0  0  0  0  0
  -25.9250  -34.9350   23.4710 C   0  0  0  0  0  0  0  0  0  0  0  0
  -26.5750  -34.8350   22.4280 O   0  0  0  0  0  0  0  0  0  0  0  0
  -25.0350  -34.0220   25.0440 H   0  0  0  0  0  0  0  0  0  0  0  0
  -24.1560  -36.7050   23.1840 C   0  0  0  0  0  1  0  0  0  0  0  0
  -25.4380  -36.3200   23.9410 C   0  0  0  0  0  3  0  0  0  0  0  0
  -27.5850  -37.2560   24.6820 C   0  0  0  0  0  1  0  0  0  0  0  0
  -26.4500  -37.3870   23.7730 N   0  0  0  0  0  0  0  0  0  0  0  0
  -26.0350  -38.3040   23.9110 H   0  0  0  0  0  0  0  0  0  0  0  0
  3  1  1  6
  3 47  1  0
  3  2  1  0
  4 16  1  0
  5 10  1  0
  6  7  1  0
  6  5  1  0
  8  7  1  0
  8 20  1  0
  8  9  1  0
 10  4  1  0
 10  9  1  0
 11  4  2  0
 12 13  1  0
 14  3  1  0
 14 12  1  0
 15 46  1  0
 15 14  1  0
 15 16  1  0
 16 13  1  0
 17 18  2  0
 18 37  1  0
 19 18  1  0
 19 22  1  0
 20 21  1  0
 20 17  1  0
 21 19  2  0
 22 23  1  0
 23 24  2  0
 25 28  1  0
 25 24  1  0
 26 25  2  0
 27 26  1  0
 27 22  2  0
 28 29  1  0
 29 34  2  0
 29 30  1  0
 30 31  2  0
 31 32  1  0
 32 36  1  0
 33 32  2  0
 34 33  1  0
 35 34  1  0
 37 38  1  0
 38 41  1  0
 38 40  1  0
 39 37  2  0
 42 17  1  0
 42 43  1  0
 44 42  1  0
 46 45  1  0
 48 47  2  0
 48 49  1  0
 50 61  2  0
 51 49  1  0
 51 56  1  0
 52 60  1  0
 52 62  1  0
 53 59  1  0
 53 55  1  0
 54 60  1  0
 55 54  1  0
 56 55  2  0
 57 51  2  0
 58 57  1  0
 58 53  2  0
 59 52  1  0
 60 50  1  0
 62 64  2  0
 63 62  1  0
 65 63  1  0
 66 75  2  0
 66 71  1  0
 67 63  1  0
 67 71  1  0
 68 67  1  0
 69 70  1  0
 69 68  1  0
 70 66  1  0
 71 72  2  0
 72 73  1  0
 74 73  2  0
 75 74  1  0
 76 50  1  0
 76 81  1  0
 76 77  1  0
 77 80  1  1
 77 78  1  0
 79 77  1  0
 81 84  1  0
 82 86  1  0
 82 81  1  0
 83 82  2  0
 86 85  1  0
 88 89  1  0
 88 86  1  0
 88 87  1  0
M  ISO  4   4 100  16 100  48 101  49 101
M  END
>  <TORSDO>  (48) 
F 19

>  <SCORE>  (48) 
-14.946

>  <name>  (48) 
48

>  <ligand_id>  (48) 
48

>  <original_smiles>  (48) 
[H]c1c([H])c([H])c2c(c1[H])C([H])([H])C([H])([H])C([H])([H])C2([H])N([H])C(=O)C1([H])N(C(=O)C([H])(N([H])C(=O)C([H])(N([H])C([H])([H])[H])C([H])([H])[H])C(C([H])([H])[H])(C([H])([H])[H])C([H])([H])[H])C([H])([H])c2c([H])c(OC([H])([H])C([H])([H])C(C([H])([H])[H])(C([H])([H])[H])C3([H])C([H])([H])C([H])([H])N(C(=O)N4C([H])([H])C([H])([H])C([H])([H])C([H])(n5nc(-c6c([H])c([H])c(Oc7c([H])c([H])c(F)c([H])c7F)c([H])c6[H])c(C(=O)N([H])[H])c5N([H])[H])C4([H])[H])C3([H])C([H])([H])C([H])([H])[H])c([H])c([H])c2C1([H])[H]

>  <smiles>  (48) 
[H]c1c([H])c([H])c2c(c1[H])C([H])([H])C([H])([H])C([H])([H])C2([H])N([H])C(=O)C1([H])N(C(=O)C([H])(N([H])C(=O)C([H])(N([H])C([H])([H])[H])C([H])([H])[H])C(C([H])([H])[H])(C([H])([H])[H])C([H])([H])[H])C([H])([H])c2c([H])c(OC([H])([H])C([H])([H])C(C([H])([H])[H])(C([H])([H])[H])C3([H])C([H])([H])C([H])([H])N(C(=O)N4C([H])([H])C([H])([H])C([H])([H])C([H])(n5nc(-c6c([H])c([H])c(Oc7c([H])c([H])c(F)c([H])c7F)c([H])c6[H])c(C(=O)N([H])[H])c5N([H])[H])C4([H])[H])C3([H])C([H])([H])C([H])([H])[H])c([H])c([H])c2C1([H])[H]

$$$$
49:0:0
     RDKit          3D

 92100  0  0  1  0  0  0  0  0999 V2000
  -30.7790  -19.7030   21.0770 C   0  0  0  0  0  2  0  0  0  0  0  0
  -28.9400  -18.8140   19.7330 C   0  0  0  0  0  2  0  0  0  0  0  0
  -30.0080  -21.0340   21.2990 C   0  0  0  0  0  2  0  0  0  0  0  0
  -29.8810  -18.4390   20.8960 C   0  0  0  0  0  3  0  0  0  0  0  0
  -28.1500  -20.1630   19.9580 C   0  0  0  0  0  3  0  0  0  0  0  0
  -27.1910  -20.3580   18.7620 C   0  0  0  0  0  1  0  0  0  0  0  0
  -29.0290  -21.3690   20.2250 N   0  0  1  0  0  4  0  0  0  0  0  0
  -29.5560  -21.5350   19.3800 H   0  0  0  0  0  0  0  0  0  0  0  0
  -31.6870  -16.9910   21.9760 C   0  0  0  0  0  1  0  0  0  0  0  0
  -30.7320  -17.0930   20.7630 C   0  0  0  0  0  3  0  0  0  0  0  0
  -30.6120  -14.6550   20.0710 C   0  0  0  0  0  0  0  0  0  0  0  0
  -30.2380  -12.4820   18.9390 C   0  0  0  0  0  2  0  0  0  0  0  0
  -29.2380  -12.6500   17.7790 C   0  0  0  0  0  2  0  0  0  0  0  0
  -27.7960  -12.4730   18.2890 C   0  0  0  0  0  2  0  0  0  0  0  0
  -27.5070  -13.2990   19.5710 C   0  0  0  0  0  3  0  0  0  0  0  0
  -28.6320  -13.1580   20.6230 C   0  0  0  0  0  2  0  0  0  0  0  0
  -29.9030  -13.4890   19.9680 N   0  0  0  0  0  0  0  0  0  0  0  0
  -31.7310  -14.7490   19.5670 O   0  0  0  0  0  0  0  0  0  0  0  0
  -30.0270  -15.7700   20.6160 N   0  0  0  0  0  0  0  0  0  0  0  0
  -29.0790  -15.6880   20.9510 H   0  0  0  0  0  0  0  0  0  0  0  0
  -25.1430  -13.8330   20.4190 C   0  0  0  0  0  0  0  0  0  0  0  0
  -24.1140  -13.0330   20.8320 C   0  0  0  0  0  0  0  0  0  0  0  0
  -24.6040  -11.6920   20.7680 C   0  0  0  0  0  0  0  0  0  0  0  0
  -26.1950  -12.9800   20.1250 N   0  0  0  0  0  0  0  0  0  0  0  0
  -25.8790  -11.6870   20.3960 N   0  0  0  0  0  0  0  0  0  0  0  0
  -23.9150  -10.4110   20.9800 C   0  0  0  0  0  0  0  0  0  0  0  0
  -24.3770   -9.4720   21.9290 C   0  0  0  0  0  3  0  0  0  0  0  0
  -23.6840   -8.2580   22.1300 C   0  0  0  0  0  3  0  0  0  0  0  0
  -22.5160   -7.9740   21.3820 C   0  0  0  0  0  0  0  0  0  0  0  0
  -22.0750   -8.9020   20.4220 C   0  0  0  0  0  3  0  0  0  0  0  0
  -22.7690  -10.1070   20.2190 C   0  0  0  0  0  3  0  0  0  0  0  0
  -21.7960   -6.8100   21.4910 O   0  0  0  0  0  0  0  0  0  0  0  0
  -21.7400   -6.1040   22.6660 C   0  0  0  0  0  0  0  0  0  0  0  0
  -21.2450   -6.6800   23.8570 C   0  0  0  0  0  3  0  0  0  0  0  0
  -21.1400   -5.8990   25.0250 C   0  0  0  0  0  3  0  0  0  0  0  0
  -21.5200   -4.5430   25.0030 C   0  0  0  0  0  0  0  0  0  0  0  0
  -22.0090   -3.9690   23.8170 C   0  0  0  0  0  3  0  0  0  0  0  0
  -22.1150   -4.7460   22.6520 C   0  0  0  0  0  0  0  0  0  0  0  0
  -22.5660   -4.1820   21.5050 F   0  0  0  0  0  0  0  0  0  0  0  0
  -21.4140   -3.7900   26.1230 F   0  0  0  0  0  0  0  0  0  0  0  0
  -22.7220  -13.4760   21.1760 C   0  0  0  0  0  0  0  0  0  0  0  0
  -22.0500  -12.7510   22.0620 N   0  0  0  0  0  0  0  0  0  0  0  0
  -22.2410  -14.5000   20.6940 O   0  0  0  0  0  0  0  0  0  0  0  0
  -22.4520  -11.9200   22.4720 H   0  0  0  0  0  0  0  0  0  0  0  0
  -21.1170  -13.0310   22.3360 H   0  0  0  0  0  0  0  0  0  0  0  0
  -25.2660  -15.2080   20.2460 N   0  0  0  0  0  0  0  0  0  0  0  0
  -24.4890  -15.8400   20.4060 H   0  0  0  0  0  0  0  0  0  0  0  0
  -26.0780  -15.6700   19.8550 H   0  0  0  0  0  0  0  0  0  0  0  0
  -28.2810  -22.6580   20.5480 C   0  0  0  0  0  2  0  0  0  0  0  0
  -28.9390  -24.0460   20.1590 C   0  0  0  0  0  2  0  0  0  0  0  0
  -28.1420  -25.2980   20.6980 C   0  0  0  0  0  2  0  0  0  0  0  0
  -28.3930  -26.6300   20.1290 O   0  0  0  0  0  0  0  0  0  0  0  0
  -24.6290  -31.9040   23.2240 C   0  0  0  0  0  0  0  0  0  0  0  0
  -27.2820  -27.4680   20.0900 C   0  0  0  0  0  0  0  0  0  0  0  0
  -23.4370  -30.5200   21.5620 C   0  0  0  0  0  3  0  0  0  0  0  0
  -24.9010  -29.0240   20.1010 C   0  0  0  0  0  0  0  0  0  0  0  0
  -25.9670  -30.8870   21.3760 C   0  0  0  0  0  2  0  0  0  0  0  0
  -26.0620  -29.5250   20.7060 C   0  0  0  0  0  0  0  0  0  0  0  0
  -27.2600  -28.7580   20.6910 C   0  0  0  0  0  3  0  0  0  0  0  0
  -26.1090  -27.0180   19.4450 C   0  0  0  0  0  3  0  0  0  0  0  0
  -24.9260  -27.7760   19.4580 C   0  0  0  0  0  3  0  0  0  0  0  0
  -23.6520  -29.8770   20.1680 C   0  0  0  0  0  2  0  0  0  0  0  0
  -24.6960  -31.1190   22.1110 N   0  0  0  0  0  0  0  0  0  0  0  0
  -23.5440  -32.1600   23.7660 O   0  0  0  0  0  0  0  0  0  0  0  0
  -22.7910  -29.4780   22.5050 C   0  0  0  0  0  0  0  0  0  0  0  0
  -21.4660  -29.2910   22.3790 N   0  0  0  0  0  0  0  0  0  0  0  0
  -23.4780  -28.8410   23.3070 O   0  0  0  0  0  0  0  0  0  0  0  0
  -20.9720  -29.8530   21.6990 H   0  0  0  0  0  0  0  0  0  0  0  0
  -18.0930  -28.0950   22.8890 C   0  0  0  0  0  0  0  0  0  0  0  0
  -20.6550  -28.3360   23.1350 C   0  0  0  0  0  3  0  0  0  0  0  0
  -20.7470  -26.9210   22.5200 C   0  0  0  0  0  2  0  0  0  0  0  0
  -19.6300  -26.6290   21.5130 C   0  0  0  0  0  2  0  0  0  0  0  0
  -18.2560  -26.7620   22.1780 C   0  0  0  0  0  2  0  0  0  0  0  0
  -19.2200  -28.8400   23.3260 C   0  0  0  0  0  0  0  0  0  0  0  0
  -19.0150  -30.0890   23.9510 C   0  0  0  0  0  3  0  0  0  0  0  0
  -17.7140  -30.5890   24.1500 C   0  0  0  0  0  3  0  0  0  0  0  0
  -16.6020  -29.8400   23.7320 C   0  0  0  0  0  3  0  0  0  0  0  0
  -16.7920  -28.5940   23.1070 C   0  0  0  0  0  3  0  0  0  0  0  0
  -25.9070  -32.5380   23.8520 C   0  0  0  0  0  3  0  0  0  0  0  0
  -26.4200  -31.7650   25.1290 C   0  0  1  0  0  0  0  0  0  0  0  0
  -25.3220  -31.5140   26.1880 C   0  0  0  0  0  1  0  0  0  0  0  0
  -27.0170  -30.3940   24.7340 C   0  0  0  0  0  1  0  0  0  0  0  0
  -27.5590  -32.5690   25.8020 C   0  0  0  0  0  1  0  0  0  0  0  0
  -25.5940  -33.9350   24.1830 N   0  0  0  0  0  0  0  0  0  0  0  0
  -25.9200  -34.9880   23.4240 C   0  0  0  0  0  0  0  0  0  0  0  0
  -26.5880  -34.8870   22.3910 O   0  0  0  0  0  0  0  0  0  0  0  0
  -25.0000  -34.0890   24.9850 H   0  0  0  0  0  0  0  0  0  0  0  0
  -24.1810  -36.7710   23.0700 C   0  0  0  0  0  1  0  0  0  0  0  0
  -25.4260  -36.3750   23.8810 C   0  0  0  0  0  3  0  0  0  0  0  0
  -27.5540  -37.2750   24.7100 C   0  0  0  0  0  1  0  0  0  0  0  0
  -26.4530  -37.4340   23.7640 N   0  0  0  0  0  0  0  0  0  0  0  0
  -26.0420  -38.3530   23.9060 H   0  0  0  0  0  0  0  0  0  0  0  0
  1  3  1  0
  2  5  1  0
  2  4  1  0
  4 10  1  0
  4  1  1  0
  5  6  1  0
  5  7  1  0
  7 49  1  0
  7  3  1  0
  7  8  1  6
 10  9  1  0
 11 19  1  0
 12 17  1  0
 13 14  1  0
 13 12  1  0
 15 14  1  0
 15 24  1  0
 15 16  1  0
 17 11  1  0
 17 16  1  0
 18 11  2  0
 19 10  1  0
 19 20  1  0
 21 22  2  0
 22 41  1  0
 23 22  1  0
 23 26  1  0
 24 25  1  0
 24 21  1  0
 25 23  2  0
 26 27  1  0
 27 28  2  0
 29 32  1  0
 29 28  1  0
 30 29  2  0
 31 30  1  0
 31 26  2  0
 32 33  1  0
 33 34  1  0
 34 35  2  0
 36 35  1  0
 36 40  1  0
 37 36  2  0
 38 33  2  0
 38 37  1  0
 39 38  1  0
 41 42  1  0
 42 45  1  0
 42 44  1  0
 43 41  2  0
 46 47  1  0
 46 21  1  0
 48 46  1  0
 50 49  1  0
 50 51  1  0
 52 51  1  0
 53 64  2  0
 54 52  1  0
 54 59  1  0
 55 63  1  0
 55 65  1  0
 56 62  1  0
 56 58  1  0
 57 63  1  0
 58 57  1  0
 59 58  2  0
 60 61  1  0
 60 54  2  0
 61 56  2  0
 62 55  1  0
 63 53  1  0
 65 67  2  0
 66 65  1  0
 68 66  1  0
 69 78  2  0
 69 74  1  0
 70 66  1  0
 70 74  1  0
 71 70  1  0
 72 73  1  0
 72 71  1  0
 73 69  1  0
 74 75  2  0
 75 76  1  0
 77 76  2  0
 78 77  1  0
 79 53  1  0
 79 84  1  0
 79 80  1  0
 80 83  1  1
 80 81  1  0
 82 80  1  0
 84 87  1  0
 85 89  1  0
 85 84  1  0
 86 85  2  0
 89 88  1  0
 91 89  1  0
 91 92  1  0
 91 90  1  0
M  ISO  4  11 100  19 100  51 101  52 101
M  END
>  <TORSDO>  (49) 
F 20

>  <SCORE>  (49) 
-13.328

>  <name>  (49) 
49

>  <ligand_id>  (49) 
49

>  <original_smiles>  (49) 
[H]c1c([H])c([H])c2c(c1[H])C([H])([H])C([H])([H])C([H])([H])C2([H])N([H])C(=O)C1([H])N(C(=O)C([H])(N([H])C(=O)C([H])(N([H])C([H])([H])[H])C([H])([H])[H])C(C([H])([H])[H])(C([H])([H])[H])C([H])([H])[H])C([H])([H])c2c([H])c(OC([H])([H])C([H])([H])C([H])([H])[N+]3([H])C([H])([H])C([H])([H])C([H])(C([H])(N([H])C(=O)N4C([H])([H])C([H])([H])C([H])([H])C([H])(n5nc(-c6c([H])c([H])c(Oc7c([H])c([H])c(F)c([H])c7F)c([H])c6[H])c(C(=O)N([H])[H])c5N([H])[H])C4([H])[H])C([H])([H])[H])C([H])([H])C3([H])C([H])([H])[H])c([H])c([H])c2C1([H])[H]

>  <smiles>  (49) 
[H]c1c([H])c([H])c2c(c1[H])C([H])([H])C([H])([H])C([H])([H])C2([H])N([H])C(=O)C1([H])N(C(=O)C([H])(N([H])C(=O)C([H])(N([H])C([H])([H])[H])C([H])([H])[H])C(C([H])([H])[H])(C([H])([H])[H])C([H])([H])[H])C([H])([H])c2c([H])c(OC([H])([H])C([H])([H])C([H])([H])[N+]3([H])C([H])([H])C([H])([H])C([H])(C([H])(N([H])C(=O)N4C([H])([H])C([H])([H])C([H])([H])C([H])(n5nc(-c6c([H])c([H])c(Oc7c([H])c([H])c(F)c([H])c7F)c([H])c6[H])c(C(=O)N([H])[H])c5N([H])[H])C4([H])[H])C([H])([H])[H])C([H])([H])C3([H])C([H])([H])[H])c([H])c([H])c2C1([H])[H]

$$$$
51:0:0
     RDKit          3D

 88 96  0  0  1  0  0  0  0  0999 V2000
  -30.5040  -20.6120   19.6040 C   0  0  0  0  0  3  0  0  0  0  0  0
  -30.6780  -19.1390   19.6850 C   0  0  0  0  0  3  0  0  0  0  0  0
  -28.4210  -18.9510   20.1040 C   0  0  0  0  0  3  0  0  0  0  0  0
  -29.2860  -21.4050   19.7730 C   0  0  0  0  0  0  0  0  0  0  0  0
  -28.2410  -20.4280   20.0370 C   0  0  0  0  0  0  0  0  0  0  0  0
  -29.6430  -18.1600   19.9570 C   0  0  0  0  0  0  0  0  0  0  0  0
  -26.8520  -20.9800   20.2960 C   0  0  0  0  0  1  0  0  0  0  0  0
  -30.5080  -15.3650   19.8860 C   0  0  0  0  0  0  0  0  0  0  0  0
  -30.4460  -12.9200   19.0550 C   0  0  0  0  0  2  0  0  0  0  0  0
  -29.4700  -12.7440   17.8630 C   0  0  0  0  0  2  0  0  0  0  0  0
  -28.0340  -12.5030   18.3650 C   0  0  0  0  0  2  0  0  0  0  0  0
  -27.6450  -13.4950   19.4910 C   0  0  0  0  0  3  0  0  0  0  0  0
  -28.7340  -13.6050   20.5780 C   0  0  0  0  0  2  0  0  0  0  0  0
  -29.9600  -14.0610   19.9040 N   0  0  0  0  0  0  0  0  0  0  0  0
  -31.7060  -15.4080   19.5720 O   0  0  0  0  0  0  0  0  0  0  0  0
  -29.6740  -16.5580   20.0580 N   0  0  0  0  0  0  0  0  0  0  0  0
  -28.7660  -16.2180   20.3360 H   0  0  0  0  0  0  0  0  0  0  0  0
  -25.3240  -14.1180   20.3520 C   0  0  0  0  0  0  0  0  0  0  0  0
  -24.2570  -13.3670   20.7580 C   0  0  0  0  0  0  0  0  0  0  0  0
  -24.6820  -12.0040   20.6850 C   0  0  0  0  0  0  0  0  0  0  0  0
  -26.3280  -13.2160   20.0490 N   0  0  0  0  0  0  0  0  0  0  0  0
  -25.9560  -11.9380   20.3180 N   0  0  0  0  0  0  0  0  0  0  0  0
  -23.9280  -10.7600   20.8870 C   0  0  0  0  0  0  0  0  0  0  0  0
  -24.3580   -9.7730   21.8000 C   0  0  0  0  0  3  0  0  0  0  0  0
  -23.6040   -8.5950   21.9920 C   0  0  0  0  0  3  0  0  0  0  0  0
  -22.4050   -8.3940   21.2670 C   0  0  0  0  0  0  0  0  0  0  0  0
  -21.9910   -9.3700   20.3420 C   0  0  0  0  0  3  0  0  0  0  0  0
  -22.7470  -10.5390   20.1500 C   0  0  0  0  0  3  0  0  0  0  0  0
  -21.6220   -7.2700   21.3670 O   0  0  0  0  0  0  0  0  0  0  0  0
  -21.5800   -6.5210   22.5170 C   0  0  0  0  0  0  0  0  0  0  0  0
  -21.1840   -7.0750   23.7530 C   0  0  0  0  0  3  0  0  0  0  0  0
  -21.0890   -6.2550   24.8950 C   0  0  0  0  0  3  0  0  0  0  0  0
  -21.3820   -4.8810   24.8010 C   0  0  0  0  0  0  0  0  0  0  0  0
  -21.7740   -4.3270   23.5700 C   0  0  0  0  0  3  0  0  0  0  0  0
  -21.8700   -5.1440   22.4300 C   0  0  0  0  0  0  0  0  0  0  0  0
  -22.2280   -4.6010   21.2420 F   0  0  0  0  0  0  0  0  0  0  0  0
  -21.2850   -4.0910   25.8950 F   0  0  0  0  0  0  0  0  0  0  0  0
  -22.8860  -13.8790   21.0920 C   0  0  0  0  0  0  0  0  0  0  0  0
  -22.1750  -13.1930   21.9800 N   0  0  0  0  0  0  0  0  0  0  0  0
  -22.4580  -14.9230   20.6020 O   0  0  0  0  0  0  0  0  0  0  0  0
  -22.5330  -12.3470   22.3980 H   0  0  0  0  0  0  0  0  0  0  0  0
  -21.2580  -13.5210   22.2460 H   0  0  0  0  0  0  0  0  0  0  0  0
  -25.5160  -15.4860   20.1850 N   0  0  0  0  0  0  0  0  0  0  0  0
  -24.7620  -16.1510   20.3200 H   0  0  0  0  0  0  0  0  0  0  0  0
  -26.3370  -15.9010   19.7650 H   0  0  0  0  0  0  0  0  0  0  0  0
  -29.2620  -23.1400   19.9010 C   0  0  0  0  0  3  0  0  0  0  0  0
  -28.2280  -24.5020   19.4350 C   0  0  0  0  0  3  0  0  0  0  0  0
  -28.3690  -26.1040   19.7160 O   0  0  0  0  0  0  0  0  0  0  0  0
  -24.5580  -31.6770   22.9960 C   0  0  0  0  0  0  0  0  0  0  0  0
  -27.2980  -27.1250   19.7040 C   0  0  0  0  0  0  0  0  0  0  0  0
  -23.4120  -30.3280   21.2840 C   0  0  0  0  0  3  0  0  0  0  0  0
  -24.9160  -28.8700   19.7690 C   0  0  0  0  0  0  0  0  0  0  0  0
  -25.9620  -30.6640   21.1390 C   0  0  0  0  0  2  0  0  0  0  0  0
  -26.0870  -29.3020   20.4040 C   0  0  0  0  0  0  0  0  0  0  0  0
  -27.2730  -28.4500   20.3480 C   0  0  0  0  0  3  0  0  0  0  0  0
  -26.0920  -26.8310   19.0300 C   0  0  0  0  0  3  0  0  0  0  0  0
  -24.9380  -27.6560   19.0640 C   0  0  0  0  0  3  0  0  0  0  0  0
  -23.6610  -29.7340   19.8700 C   0  0  0  0  0  2  0  0  0  0  0  0
  -24.6640  -30.9150   21.8600 N   0  0  0  0  0  0  0  0  0  0  0  0
  -23.4620  -31.8940   23.5360 O   0  0  0  0  0  0  0  0  0  0  0  0
  -22.7640  -29.2510   22.1930 C   0  0  0  0  0  0  0  0  0  0  0  0
  -21.4360  -29.0630   22.0860 N   0  0  0  0  0  0  0  0  0  0  0  0
  -23.4630  -28.5890   22.9650 O   0  0  0  0  0  0  0  0  0  0  0  0
  -20.9250  -29.6550   21.4460 H   0  0  0  0  0  0  0  0  0  0  0  0
  -18.0860  -27.7790   22.6180 C   0  0  0  0  0  0  0  0  0  0  0  0
  -20.6510  -28.0560   22.8070 C   0  0  0  0  0  3  0  0  0  0  0  0
  -20.7450  -26.6760   22.1150 C   0  0  0  0  0  2  0  0  0  0  0  0
  -19.6090  -26.4220   21.1190 C   0  0  0  0  0  2  0  0  0  0  0  0
  -18.2520  -26.4920   21.8250 C   0  0  0  0  0  2  0  0  0  0  0  0
  -19.2130  -28.5200   23.0650 C   0  0  0  0  0  0  0  0  0  0  0  0
  -19.0020  -29.7220   23.7740 C   0  0  0  0  0  3  0  0  0  0  0  0
  -17.7000  -30.1860   24.0350 C   0  0  0  0  0  3  0  0  0  0  0  0
  -16.5880  -29.4430   23.6010 C   0  0  0  0  0  3  0  0  0  0  0  0
  -16.7830  -28.2400   22.8990 C   0  0  0  0  0  3  0  0  0  0  0  0
  -25.8080  -32.3320   23.6600 C   0  0  0  0  0  3  0  0  0  0  0  0
  -25.4450  -33.7060   24.0500 N   0  0  0  0  0  0  0  0  0  0  0  0
  -25.7320  -34.8060   23.3410 C   0  0  0  0  0  0  0  0  0  0  0  0
  -26.3930  -34.7730   22.3000 O   0  0  0  0  0  0  0  0  0  0  0  0
  -24.8550  -33.8010   24.8620 H   0  0  0  0  0  0  0  0  0  0  0  0
  -23.9290  -36.5480   23.1060 C   0  0  0  0  0  1  0  0  0  0  0  0
  -25.2040  -36.1560   23.8680 C   0  0  0  0  0  3  0  0  0  0  0  0
  -27.3200  -37.1020   24.6850 C   0  0  0  0  0  1  0  0  0  0  0  0
  -26.1920  -37.2540   23.7710 N   0  0  0  0  0  0  0  0  0  0  0  0
  -25.7530  -38.1520   23.9550 H   0  0  0  0  0  0  0  0  0  0  0  0
  -26.3320  -31.5310   24.9170 C   0  0  1  0  0  0  0  0  0  0  0  0
  -25.2350  -31.2260   25.9650 C   0  0  0  0  0  1  0  0  0  0  0  0
  -26.9570  -30.1830   24.4910 C   0  0  0  0  0  1  0  0  0  0  0  0
  -27.4530  -32.3330   25.6190 C   0  0  0  0  0  1  0  0  0  0  0  0
  1  2  2  0
  1  4  1  0
  2  6  1  0
  4 46  1  0
  4  5  2  0
  5  3  1  0
  5  7  1  0
  6 16  1  0
  6  3  2  0
  8 14  1  0
  8 16  1  0
  9 14  1  0
 10 11  1  0
 10  9  1  0
 12 11  1  0
 12 21  1  0
 12 13  1  0
 14 13  1  0
 15  8  2  0
 16 17  1  0
 18 19  2  0
 19 38  1  0
 20 19  1  0
 20 23  1  0
 21 22  1  0
 21 18  1  0
 22 20  2  0
 23 24  1  0
 24 25  2  0
 26 29  1  0
 26 25  1  0
 27 26  2  0
 28 27  1  0
 28 23  2  0
 29 30  1  0
 30 31  1  0
 31 32  2  0
 33 32  1  0
 33 37  1  0
 34 33  2  0
 35 30  2  0
 35 34  1  0
 36 35  1  0
 38 39  1  0
 39 42  1  0
 39 41  1  0
 40 38  2  0
 43 44  1  0
 43 18  1  0
 45 43  1  0
 47 48  1  0
 47 46  2  0
 49 60  2  0
 50 48  1  0
 50 55  1  0
 51 59  1  0
 51 61  1  0
 52 58  1  0
 52 54  1  0
 53 59  1  0
 54 53  1  0
 55 54  2  0
 56 57  1  0
 56 50  2  0
 57 52  2  0
 58 51  1  0
 59 49  1  0
 61 63  2  0
 62 61  1  0
 64 62  1  0
 65 74  2  0
 65 70  1  0
 66 62  1  0
 66 70  1  0
 67 66  1  0
 68 69  1  0
 68 67  1  0
 69 65  1  0
 70 71  2  0
 71 72  1  0
 73 72  2  0
 74 73  1  0
 75 49  1  0
 75 76  1  0
 75 85  1  0
 76 79  1  0
 77 81  1  0
 77 76  1  0
 78 77  2  0
 81 80  1  0
 83 81  1  0
 83 84  1  0
 83 82  1  0
 85 88  1  1
 85 86  1  0
 87 85  1  0
M  ISO  4   8 100  16 100  47 101  48 101
M  END
>  <TORSDO>  (50) 
F 18

>  <SCORE>  (50) 
-14.192

>  <name>  (50) 
51

>  <ligand_id>  (50) 
51

>  <original_smiles>  (50) 
[H]c1c([H])c([H])c2c(c1[H])C([H])([H])C([H])([H])C([H])([H])C2([H])N([H])C(=O)C1([H])N(C(=O)C([H])(N([H])C(=O)C([H])(N([H])C([H])([H])[H])C([H])([H])[H])C(C([H])([H])[H])(C([H])([H])[H])C([H])([H])[H])C([H])([H])c2c([H])c(OC([H])([H])C([H])([H])c3c([H])c([H])c(N([H])C(=O)N4C([H])([H])C([H])([H])C([H])([H])C([H])(n5nc(-c6c([H])c([H])c(Oc7c([H])c([H])c(F)c([H])c7F)c([H])c6[H])c(C(=O)N([H])[H])c5N([H])[H])C4([H])[H])c([H])c3C([H])([H])[H])c([H])c([H])c2C1([H])[H]

>  <smiles>  (50) 
[H]c1c([H])c([H])c2c(c1[H])C([H])([H])C([H])([H])C([H])([H])C2([H])N([H])C(=O)C1([H])N(C(=O)C([H])(N([H])C(=O)C([H])(N([H])C([H])([H])[H])C([H])([H])[H])C(C([H])([H])[H])(C([H])([H])[H])C([H])([H])[H])C([H])([H])c2c([H])c(OC([H])([H])C([H])([H])c3c([H])c([H])c(N([H])C(=O)N4C([H])([H])C([H])([H])C([H])([H])C([H])(n5nc(-c6c([H])c([H])c(Oc7c([H])c([H])c(F)c([H])c7F)c([H])c6[H])c(C(=O)N([H])[H])c5N([H])[H])C4([H])[H])c([H])c3C([H])([H])[H])c([H])c([H])c2C1([H])[H]

$$$$
52:0:0
     RDKit          3D

 85 92  0  0  1  0  0  0  0  0999 V2000
  -28.7360  -22.8500   20.5090 C   0  0  0  0  0  2  0  0  0  0  0  0
  -29.1990  -21.2810   19.7980 C   0  0  0  0  0  2  0  0  0  0  0  0
  -27.6380  -19.2160   20.3900 C   0  0  0  0  0  1  0  0  0  0  0  0
  -29.1250  -19.5870   20.3610 C   0  0  0  0  0  3  0  0  0  0  0  0
  -29.9810  -18.1240   19.8180 C   0  0  0  0  0  2  0  0  0  0  0  0
  -30.4890  -15.2580   19.9080 C   0  0  0  0  0  0  0  0  0  0  0  0
  -30.3530  -12.8600   18.9620 C   0  0  0  0  0  2  0  0  0  0  0  0
  -29.3440  -12.7350   17.7930 C   0  0  0  0  0  2  0  0  0  0  0  0
  -27.9290  -12.4650   18.3270 C   0  0  0  0  0  2  0  0  0  0  0  0
  -27.5720  -13.3940   19.5150 C   0  0  0  0  0  3  0  0  0  0  0  0
  -28.6980  -13.4820   20.5700 C   0  0  0  0  0  2  0  0  0  0  0  0
  -29.8990  -13.9700   19.8760 N   0  0  0  0  0  0  0  0  0  0  0  0
  -31.6720  -15.2710   19.5430 O   0  0  0  0  0  0  0  0  0  0  0  0
  -29.7580  -16.5140   20.1390 N   0  0  0  0  0  0  0  0  0  0  0  0
  -28.8180  -16.3250   20.4550 H   0  0  0  0  0  0  0  0  0  0  0  0
  -25.2630  -13.9450   20.4490 C   0  0  0  0  0  0  0  0  0  0  0  0
  -24.2230  -13.1620   20.8670 C   0  0  0  0  0  0  0  0  0  0  0  0
  -24.6750  -11.8120   20.7600 C   0  0  0  0  0  0  0  0  0  0  0  0
  -26.2780  -13.0710   20.1040 N   0  0  0  0  0  0  0  0  0  0  0  0
  -25.9420  -11.7800   20.3600 N   0  0  0  0  0  0  0  0  0  0  0  0
  -23.9530  -10.5480   20.9600 C   0  0  0  0  0  0  0  0  0  0  0  0
  -24.4160   -9.5670   21.8620 C   0  0  0  0  0  3  0  0  0  0  0  0
  -23.6940   -8.3690   22.0510 C   0  0  0  0  0  3  0  0  0  0  0  0
  -22.4930   -8.1440   21.3370 C   0  0  0  0  0  0  0  0  0  0  0  0
  -22.0480   -9.1140   20.4220 C   0  0  0  0  0  3  0  0  0  0  0  0
  -22.7690  -10.3040   20.2310 C   0  0  0  0  0  3  0  0  0  0  0  0
  -21.7370   -7.0020   21.4390 O   0  0  0  0  0  0  0  0  0  0  0  0
  -21.7010   -6.2620   22.5950 C   0  0  0  0  0  0  0  0  0  0  0  0
  -21.2780   -6.8180   23.8220 C   0  0  0  0  0  3  0  0  0  0  0  0
  -21.1880   -6.0040   24.9690 C   0  0  0  0  0  3  0  0  0  0  0  0
  -21.5120   -4.6370   24.8900 C   0  0  0  0  0  0  0  0  0  0  0  0
  -21.9270   -4.0810   23.6680 C   0  0  0  0  0  3  0  0  0  0  0  0
  -22.0190   -4.8910   22.5230 C   0  0  0  0  0  0  0  0  0  0  0  0
  -22.3990   -4.3440   21.3430 F   0  0  0  0  0  0  0  0  0  0  0  0
  -21.4190   -3.8530   25.9910 F   0  0  0  0  0  0  0  0  0  0  0  0
  -22.8510  -13.6380   21.2460 C   0  0  0  0  0  0  0  0  0  0  0  0
  -22.1790  -12.9220   22.1390 N   0  0  0  0  0  0  0  0  0  0  0  0
  -22.3870  -14.6790   20.7850 O   0  0  0  0  0  0  0  0  0  0  0  0
  -22.5680  -12.0790   22.5350 H   0  0  0  0  0  0  0  0  0  0  0  0
  -21.2590  -13.2210   22.4320 H   0  0  0  0  0  0  0  0  0  0  0  0
  -25.4210  -15.3200   20.3040 N   0  0  0  0  0  0  0  0  0  0  0  0
  -24.6620  -15.9700   20.4810 H   0  0  0  0  0  0  0  0  0  0  0  0
  -26.2330  -15.7650   19.8970 H   0  0  0  0  0  0  0  0  0  0  0  0
  -28.2600  -24.4220   19.8130 C   0  0  0  0  0  2  0  0  0  0  0  0
  -28.2620  -25.9730   20.3270 O   0  0  0  0  0  0  0  0  0  0  0  0
  -24.6500  -31.8560   23.2370 C   0  0  0  0  0  0  0  0  0  0  0  0
  -27.2310  -27.0300   20.2070 C   0  0  0  0  0  0  0  0  0  0  0  0
  -23.4580  -30.4580   21.5960 C   0  0  0  0  0  3  0  0  0  0  0  0
  -24.9130  -28.8680   20.1660 C   0  0  0  0  0  0  0  0  0  0  0  0
  -26.0200  -30.6900   21.4460 C   0  0  0  0  0  2  0  0  0  0  0  0
  -26.0950  -29.2870   20.7880 C   0  0  0  0  0  0  0  0  0  0  0  0
  -27.2440  -28.3860   20.7900 C   0  0  0  0  0  3  0  0  0  0  0  0
  -26.0220  -26.7580   19.5250 C   0  0  0  0  0  3  0  0  0  0  0  0
  -24.8980  -27.6230   19.5170 C   0  0  0  0  0  3  0  0  0  0  0  0
  -23.6880  -29.7770   20.2180 C   0  0  0  0  0  2  0  0  0  0  0  0
  -24.7300  -31.0280   22.1470 N   0  0  0  0  0  0  0  0  0  0  0  0
  -23.5610  -32.1410   23.7600 O   0  0  0  0  0  0  0  0  0  0  0  0
  -22.7720  -29.4580   22.5610 C   0  0  0  0  0  0  0  0  0  0  0  0
  -21.4420  -29.2870   22.4330 N   0  0  0  0  0  0  0  0  0  0  0  0
  -23.4400  -28.8360   23.3900 O   0  0  0  0  0  0  0  0  0  0  0  0
  -20.9570  -29.8400   21.7400 H   0  0  0  0  0  0  0  0  0  0  0  0
  -18.0660  -28.0580   22.9290 C   0  0  0  0  0  0  0  0  0  0  0  0
  -20.6220  -28.3450   23.2020 C   0  0  0  0  0  3  0  0  0  0  0  0
  -20.7380  -26.9120   22.6330 C   0  0  0  0  0  2  0  0  0  0  0  0
  -19.6430  -26.5780   21.6150 C   0  0  0  0  0  2  0  0  0  0  0  0
  -18.2580  -26.7100   22.2530 C   0  0  0  0  0  2  0  0  0  0  0  0
  -19.1760  -28.8320   23.3600 C   0  0  0  0  0  0  0  0  0  0  0  0
  -18.9420  -30.0910   23.9560 C   0  0  0  0  0  3  0  0  0  0  0  0
  -17.6320  -30.5770   24.1200 C   0  0  0  0  0  3  0  0  0  0  0  0
  -16.5350  -29.8010   23.7020 C   0  0  0  0  0  3  0  0  0  0  0  0
  -16.7530  -28.5430   23.1140 C   0  0  0  0  0  3  0  0  0  0  0  0
  -25.9210  -32.4990   23.8700 C   0  0  0  0  0  3  0  0  0  0  0  0
  -26.4300  -31.7340   25.1550 C   0  0  1  0  0  0  0  0  0  0  0  0
  -25.3290  -31.4990   26.2170 C   0  0  0  0  0  1  0  0  0  0  0  0
  -27.0180  -30.3540   24.7800 C   0  0  0  0  0  1  0  0  0  0  0  0
  -27.5740  -32.5320   25.8220 C   0  0  0  0  0  1  0  0  0  0  0  0
  -25.6010  -33.8970   24.2070 N   0  0  0  0  0  0  0  0  0  0  0  0
  -25.9180  -34.9600   23.4570 C   0  0  0  0  0  0  0  0  0  0  0  0
  -26.5760  -34.8670   22.4170 O   0  0  0  0  0  0  0  0  0  0  0  0
  -25.0130  -34.0410   25.0150 H   0  0  0  0  0  0  0  0  0  0  0  0
  -24.1700  -36.7460   23.1520 C   0  0  0  0  0  1  0  0  0  0  0  0
  -25.4330  -36.3450   23.9320 C   0  0  0  0  0  3  0  0  0  0  0  0
  -27.5770  -37.2480   24.7200 C   0  0  0  0  0  1  0  0  0  0  0  0
  -26.4540  -37.4070   23.7980 N   0  0  0  0  0  0  0  0  0  0  0  0
  -26.0450  -38.3240   23.9530 H   0  0  0  0  0  0  0  0  0  0  0  0
  2  4  1  0
  2  1  1  0
  4  3  1  0
  5 14  1  0
  5  4  1  0
  6 14  1  0
  7 12  1  0
  8  9  1  0
  8  7  1  0
 10  9  1  0
 10 19  1  0
 10 11  1  0
 12  6  1  0
 12 11  1  0
 13  6  2  0
 14 15  1  0
 16 17  2  0
 17 36  1  0
 18 17  1  0
 18 21  1  0
 19 20  1  0
 19 16  1  0
 20 18  2  0
 21 22  1  0
 22 23  2  0
 24 27  1  0
 24 23  1  0
 25 24  2  0
 26 25  1  0
 26 21  2  0
 27 28  1  0
 28 29  1  0
 29 30  2  0
 31 30  1  0
 31 35  1  0
 32 31  2  0
 33 28  2  0
 33 32  1  0
 34 33  1  0
 36 37  1  0
 37 40  1  0
 37 39  1  0
 38 36  2  0
 41 16  1  0
 41 42  1  0
 43 41  1  0
 44 45  1  0
 44  1  1  0
 46 57  2  0
 47 45  1  0
 47 52  1  0
 48 56  1  0
 48 58  1  0
 49 55  1  0
 49 51  1  0
 50 56  1  0
 51 52  2  0
 51 50  1  0
 53 47  2  0
 54 53  1  0
 54 49  2  0
 55 48  1  0
 56 46  1  0
 58 60  2  0
 59 58  1  0
 61 59  1  0
 62 71  2  0
 62 67  1  0
 63 59  1  0
 63 67  1  0
 64 63  1  0
 65 66  1  0
 65 64  1  0
 66 62  1  0
 67 68  2  0
 68 69  1  0
 70 69  2  0
 71 70  1  0
 72 46  1  0
 72 77  1  0
 72 73  1  0
 73 76  1  1
 73 74  1  0
 75 73  1  0
 77 80  1  0
 78 82  1  0
 78 77  1  0
 79 78  2  0
 82 81  1  0
 84 82  1  0
 84 85  1  0
 84 83  1  0
M  ISO  4   6 100  14 100  44 101  45 101
M  END
>  <TORSDO>  (51) 
F 20

>  <SCORE>  (51) 
-15.337

>  <name>  (51) 
52

>  <ligand_id>  (51) 
52

>  <original_smiles>  (51) 
[H]c1c([H])c([H])c2c(c1[H])C([H])([H])C([H])([H])C([H])([H])C2([H])N([H])C(=O)C1([H])N(C(=O)C([H])(N([H])C(=O)C([H])(N([H])C([H])([H])[H])C([H])([H])[H])C(C([H])([H])[H])(C([H])([H])[H])C([H])([H])[H])C([H])([H])c2c([H])c(OC([H])([H])C([H])([H])C([H])([H])C([H])(C([H])([H])[H])C([H])([H])N([H])C(=O)N3C([H])([H])C([H])([H])C([H])([H])C([H])(n4nc(-c5c([H])c([H])c(Oc6c([H])c([H])c(F)c([H])c6F)c([H])c5[H])c(C(=O)N([H])[H])c4N([H])[H])C3([H])[H])c([H])c([H])c2C1([H])[H]

>  <smiles>  (51) 
[H]c1c([H])c([H])c2c(c1[H])C([H])([H])C([H])([H])C([H])([H])C2([H])N([H])C(=O)C1([H])N(C(=O)C([H])(N([H])C(=O)C([H])(N([H])C([H])([H])[H])C([H])([H])[H])C(C([H])([H])[H])(C([H])([H])[H])C([H])([H])[H])C([H])([H])c2c([H])c(OC([H])([H])C([H])([H])C([H])([H])C([H])(C([H])([H])[H])C([H])([H])N([H])C(=O)N3C([H])([H])C([H])([H])C([H])([H])C([H])(n4nc(-c5c([H])c([H])c(Oc6c([H])c([H])c(F)c([H])c6F)c([H])c5[H])c(C(=O)N([H])[H])c4N([H])[H])C3([H])[H])c([H])c([H])c2C1([H])[H]

$$$$
53:0:0
     RDKit          3D

 90 98  0  0  1  0  0  0  0  0999 V2000
  -29.3900  -19.8680   21.5940 C   0  0  0  0  0  2  0  0  0  0  0  0
  -29.0100  -19.8020   19.0730 C   0  0  0  0  0  2  0  0  0  0  0  0
  -29.6950  -21.4150   21.3740 C   0  0  0  0  0  2  0  0  0  0  0  0
  -29.0570  -21.4150   19.0790 C   0  0  0  0  0  2  0  0  0  0  0  0
  -29.1880  -18.9020   20.3690 C   0  0  0  0  0  3  0  0  0  0  0  0
  -28.8540  -22.1660   20.3720 N   0  0  2  0  0  4  0  0  0  0  0  0
  -27.8920  -22.0430   20.6560 H   0  0  0  0  0  0  0  0  0  0  0  0
  -29.7150  -16.1900   20.4530 C   0  0  0  0  0  3  0  0  0  0  0  0
  -30.0670  -17.5410   20.2720 C   0  0  0  0  0  0  0  0  0  0  0  0
  -30.5710  -14.9250   20.2770 C   0  0  0  0  0  0  0  0  0  0  0  0
  -30.4050  -12.6020   19.3330 C   0  0  0  0  0  2  0  0  0  0  0  0
  -29.4600  -12.6260   18.1090 C   0  0  0  0  0  2  0  0  0  0  0  0
  -27.9960  -12.4310   18.5520 C   0  0  0  0  0  2  0  0  0  0  0  0
  -27.6150  -13.3370   19.7520 C   0  0  0  0  0  3  0  0  0  0  0  0
  -28.6820  -13.2990   20.8640 C   0  0  0  0  0  2  0  0  0  0  0  0
  -29.9660  -13.6760   20.2630 N   0  0  0  0  0  0  0  0  0  0  0  0
  -31.7680  -14.9680   19.9720 O   0  0  0  0  0  0  0  0  0  0  0  0
  -25.2430  -13.9160   20.5310 C   0  0  0  0  0  0  0  0  0  0  0  0
  -24.1830  -13.1380   20.9060 C   0  0  0  0  0  0  0  0  0  0  0  0
  -24.6450  -11.7870   20.8500 C   0  0  0  0  0  0  0  0  0  0  0  0
  -26.2800  -13.0390   20.2620 N   0  0  0  0  0  0  0  0  0  0  0  0
  -25.9300  -11.7530   20.5190 N   0  0  0  0  0  0  0  0  0  0  0  0
  -23.9180  -10.5230   21.0320 C   0  0  0  0  0  0  0  0  0  0  0  0
  -24.3430   -9.5540   21.9690 C   0  0  0  0  0  3  0  0  0  0  0  0
  -23.6170   -8.3560   22.1390 C   0  0  0  0  0  3  0  0  0  0  0  0
  -22.4520   -8.1160   21.3720 C   0  0  0  0  0  0  0  0  0  0  0  0
  -22.0460   -9.0740   20.4260 C   0  0  0  0  0  3  0  0  0  0  0  0
  -22.7730  -10.2640   20.2530 C   0  0  0  0  0  3  0  0  0  0  0  0
  -21.6980   -6.9700   21.4510 O   0  0  0  0  0  0  0  0  0  0  0  0
  -21.6120   -6.2460   22.6120 C   0  0  0  0  0  0  0  0  0  0  0  0
  -21.1060   -6.8070   23.8060 C   0  0  0  0  0  3  0  0  0  0  0  0
  -20.9680   -6.0050   24.9560 C   0  0  0  0  0  3  0  0  0  0  0  0
  -21.3260   -4.6450   24.9170 C   0  0  0  0  0  0  0  0  0  0  0  0
  -21.8250   -4.0830   23.7290 C   0  0  0  0  0  3  0  0  0  0  0  0
  -21.9650   -4.8810   22.5790 C   0  0  0  0  0  0  0  0  0  0  0  0
  -22.4270   -4.3300   21.4310 F   0  0  0  0  0  0  0  0  0  0  0  0
  -21.1880   -3.8740   26.0200 F   0  0  0  0  0  0  0  0  0  0  0  0
  -22.7890  -13.6140   21.2020 C   0  0  0  0  0  0  0  0  0  0  0  0
  -22.0690  -12.9070   22.0640 N   0  0  0  0  0  0  0  0  0  0  0  0
  -22.3490  -14.6490   20.7030 O   0  0  0  0  0  0  0  0  0  0  0  0
  -22.4370  -12.0700   22.4930 H   0  0  0  0  0  0  0  0  0  0  0  0
  -21.1350  -13.2090   22.3030 H   0  0  0  0  0  0  0  0  0  0  0  0
  -25.4060  -15.2890   20.3710 N   0  0  0  0  0  0  0  0  0  0  0  0
  -24.6360  -15.9380   20.4990 H   0  0  0  0  0  0  0  0  0  0  0  0
  -26.2430  -15.7330   20.0170 H   0  0  0  0  0  0  0  0  0  0  0  0
  -31.3120  -17.9040   19.9360 O   0  0  0  0  0  0  0  0  0  0  0  0
  -31.3230  -18.8480   19.8490 H   0  0  0  0  0  0  0  0  0  0  0  0
  -29.1440  -23.7160   20.3430 C   0  0  0  0  0  3  0  0  0  0  0  0
  -28.0220  -24.8600   19.9820 C   0  0  0  0  0  3  0  0  0  0  0  0
  -28.2620  -26.3630   20.1670 O   0  0  0  0  0  0  0  0  0  0  0  0
  -24.6130  -31.9050   23.2350 C   0  0  0  0  0  0  0  0  0  0  0  0
  -27.1770  -27.2870   20.1250 C   0  0  0  0  0  0  0  0  0  0  0  0
  -23.3940  -30.5160   21.6030 C   0  0  0  0  0  3  0  0  0  0  0  0
  -24.8280  -28.9680   20.1470 C   0  0  0  0  0  0  0  0  0  0  0  0
  -25.9390  -30.8140   21.3980 C   0  0  0  0  0  2  0  0  0  0  0  0
  -26.0100  -29.4330   20.7350 C   0  0  0  0  0  0  0  0  0  0  0  0
  -27.1870  -28.6080   20.7080 C   0  0  0  0  0  3  0  0  0  0  0  0
  -25.9660  -26.9050   19.5030 C   0  0  0  0  0  3  0  0  0  0  0  0
  -24.8140  -27.7150   19.5180 C   0  0  0  0  0  3  0  0  0  0  0  0
  -23.5950  -29.8510   20.2160 C   0  0  0  0  0  2  0  0  0  0  0  0
  -24.6700  -31.0980   22.1340 N   0  0  0  0  0  0  0  0  0  0  0  0
  -23.5350  -32.1790   23.7830 O   0  0  0  0  0  0  0  0  0  0  0  0
  -22.7380  -29.4960   22.5660 C   0  0  0  0  0  0  0  0  0  0  0  0
  -21.4130  -29.3060   22.4440 N   0  0  0  0  0  0  0  0  0  0  0  0
  -23.4240  -28.8770   23.3850 O   0  0  0  0  0  0  0  0  0  0  0  0
  -20.9170  -29.8580   21.7590 H   0  0  0  0  0  0  0  0  0  0  0  0
  -18.0490  -28.0670   22.9570 C   0  0  0  0  0  0  0  0  0  0  0  0
  -20.6060  -28.3590   23.2180 C   0  0  0  0  0  3  0  0  0  0  0  0
  -20.7220  -26.9280   22.6440 C   0  0  0  0  0  2  0  0  0  0  0  0
  -19.6220  -26.5910   21.6340 C   0  0  0  0  0  2  0  0  0  0  0  0
  -18.2400  -26.7190   22.2810 C   0  0  0  0  0  2  0  0  0  0  0  0
  -19.1590  -28.8440   23.3820 C   0  0  0  0  0  0  0  0  0  0  0  0
  -18.9260  -30.1030   23.9750 C   0  0  0  0  0  3  0  0  0  0  0  0
  -17.6160  -30.5870   24.1470 C   0  0  0  0  0  3  0  0  0  0  0  0
  -16.5200  -29.8090   23.7360 C   0  0  0  0  0  3  0  0  0  0  0  0
  -16.7380  -28.5510   23.1470 C   0  0  0  0  0  3  0  0  0  0  0  0
  -25.9010  -32.5380   23.8480 C   0  0  0  0  0  3  0  0  0  0  0  0
  -26.4380  -31.7560   25.1080 C   0  0  1  0  0  0  0  0  0  0  0  0
  -25.3600  -31.4960   26.1870 C   0  0  0  0  0  1  0  0  0  0  0  0
  -27.0270  -30.3870   24.6960 C   0  0  0  0  0  1  0  0  0  0  0  0
  -27.5890  -32.5510   25.7670 C   0  0  0  0  0  1  0  0  0  0  0  0
  -25.5860  -33.9310   24.2030 N   0  0  0  0  0  0  0  0  0  0  0  0
  -25.8710  -34.9950   23.4410 C   0  0  0  0  0  0  0  0  0  0  0  0
  -26.4930  -34.9100   22.3790 O   0  0  0  0  0  0  0  0  0  0  0  0
  -25.0280  -34.0700   25.0320 H   0  0  0  0  0  0  0  0  0  0  0  0
  -24.1010  -36.7680   23.1930 C   0  0  0  0  0  1  0  0  0  0  0  0
  -25.3900  -36.3750   23.9340 C   0  0  0  0  0  3  0  0  0  0  0  0
  -27.5460  -37.2920   24.6640 C   0  0  0  0  0  1  0  0  0  0  0  0
  -26.4000  -37.4430   23.7720 N   0  0  0  0  0  0  0  0  0  0  0  0
  -25.9870  -38.3570   23.9340 H   0  0  0  0  0  0  0  0  0  0  0  0
  2  4  1  0
  2  5  1  0
  3  1  1  0
  4  6  1  0
  5  9  1  0
  5  1  1  0
  6  7  1  1
  6  3  1  0
  9  8  2  0
 10  8  1  0
 11 16  1  0
 12 13  1  0
 12 11  1  0
 14 13  1  0
 14 21  1  0
 14 15  1  0
 16 10  1  0
 16 15  1  0
 17 10  2  0
 18 19  2  0
 19 38  1  0
 20 19  1  0
 20 23  1  0
 21 22  1  0
 21 18  1  0
 22 20  2  0
 23 24  1  0
 24 25  2  0
 26 29  1  0
 26 25  1  0
 27 26  2  0
 28 27  1  0
 28 23  2  0
 29 30  1  0
 30 31  1  0
 31 32  2  0
 33 32  1  0
 33 37  1  0
 34 33  2  0
 35 30  2  0
 35 34  1  0
 36 35  1  0
 38 39  1  0
 39 42  1  0
 39 41  1  0
 40 38  2  0
 43 44  1  0
 43 18  1  0
 45 43  1  0
 46  9  1  0
 47 46  1  0
 48  6  1  0
 49 50  1  0
 49 48  2  0
 51 62  2  0
 52 50  1  0
 52 57  1  0
 53 61  1  0
 53 63  1  0
 54 60  1  0
 54 56  1  0
 55 61  1  0
 56 55  1  0
 57 56  2  0
 58 59  1  0
 58 52  2  0
 59 54  2  0
 60 53  1  0
 61 51  1  0
 63 65  2  0
 64 63  1  0
 66 64  1  0
 67 76  2  0
 67 72  1  0
 68 64  1  0
 68 72  1  0
 69 68  1  0
 70 71  1  0
 70 69  1  0
 71 67  1  0
 72 73  2  0
 73 74  1  0
 75 74  2  0
 76 75  1  0
 77 51  1  0
 77 82  1  0
 77 78  1  0
 78 81  1  1
 78 79  1  0
 80 78  1  0
 82 85  1  0
 83 87  1  0
 83 82  1  0
 84 83  2  0
 87 86  1  0
 89 90  1  0
 89 87  1  0
 89 88  1  0
M  ISO  4   8 100  10 100  49 101  50 101
M  END
>  <TORSDO>  (52) 
F 20

>  <SCORE>  (52) 
-13.578

>  <name>  (52) 
53

>  <ligand_id>  (52) 
53

>  <original_smiles>  (52) 
[H]OC(=C([H])C(=O)N1C([H])([H])C([H])([H])C([H])([H])C([H])(n2nc(-c3c([H])c([H])c(Oc4c([H])c([H])c(F)c([H])c4F)c([H])c3[H])c(C(=O)N([H])[H])c2N([H])[H])C1([H])[H])C1([H])C([H])([H])C([H])([H])[N+]([H])(C([H])([H])C([H])([H])Oc2c([H])c([H])c3c(c2[H])C([H])([H])N(C(=O)C([H])(N([H])C(=O)C([H])(N([H])C([H])([H])[H])C([H])([H])[H])C(C([H])([H])[H])(C([H])([H])[H])C([H])([H])[H])C([H])(C(=O)N([H])C2([H])c4c([H])c([H])c([H])c([H])c4C([H])([H])C([H])([H])C2([H])[H])C3([H])[H])C([H])([H])C1([H])[H]

>  <smiles>  (52) 
[H]OC(=C([H])C(=O)N1C([H])([H])C([H])([H])C([H])([H])C([H])(n2nc(-c3c([H])c([H])c(Oc4c([H])c([H])c(F)c([H])c4F)c([H])c3[H])c(C(=O)N([H])[H])c2N([H])[H])C1([H])[H])C1([H])C([H])([H])C([H])([H])[N+]([H])(C([H])([H])C([H])([H])Oc2c([H])c([H])c3c(c2[H])C([H])([H])N(C(=O)C([H])(N([H])C(=O)C([H])(N([H])C([H])([H])[H])C([H])([H])[H])C(C([H])([H])[H])(C([H])([H])[H])C([H])([H])[H])C([H])(C(=O)N([H])C2([H])c4c([H])c([H])c([H])c([H])c4C([H])([H])C([H])([H])C2([H])[H])C3([H])[H])C([H])([H])C1([H])[H]

$$$$
54:0:0
     RDKit          3D

 88 95  0  0  1  0  0  0  0  0999 V2000
  -29.4320  -20.5080   20.5190 C   0  0  0  0  0  3  0  0  0  0  0  0
  -29.0740  -18.9180   20.2500 C   0  0  0  0  0  0  0  0  0  0  0  0
  -28.0550  -18.6830   19.5960 O   0  0  0  0  0  0  0  0  0  0  0  0
  -29.9850  -17.6220   20.8140 C   0  0  0  0  0  3  0  0  0  0  0  0
  -30.3300  -14.9670   20.2530 C   0  0  0  0  0  0  0  0  0  0  0  0
  -30.1680  -12.6900   19.1660 C   0  0  0  0  0  2  0  0  0  0  0  0
  -29.1830  -12.7270   17.9760 C   0  0  0  0  0  2  0  0  0  0  0  0
  -27.7400  -12.4820   18.4570 C   0  0  0  0  0  2  0  0  0  0  0  0
  -27.3800  -13.3260   19.7090 C   0  0  0  0  0  3  0  0  0  0  0  0
  -28.4830  -13.2720   20.7860 C   0  0  0  0  0  2  0  0  0  0  0  0
  -29.7270  -13.7200   20.1470 N   0  0  0  0  0  0  0  0  0  0  0  0
  -31.5120  -15.0600   19.9070 O   0  0  0  0  0  0  0  0  0  0  0  0
  -29.5780  -16.1210   20.5750 N   0  0  0  0  0  0  0  0  0  0  0  0
  -28.5970  -15.9430   20.7290 H   0  0  0  0  0  0  0  0  0  0  0  0
  -25.0110  -13.8240   20.5410 C   0  0  0  0  0  0  0  0  0  0  0  0
  -23.9810  -13.0120   20.9290 C   0  0  0  0  0  0  0  0  0  0  0  0
  -24.4810  -11.6760   20.8510 C   0  0  0  0  0  0  0  0  0  0  0  0
  -26.0690  -12.9800   20.2440 N   0  0  0  0  0  0  0  0  0  0  0  0
  -25.7610  -11.6820   20.4970 N   0  0  0  0  0  0  0  0  0  0  0  0
  -23.7950  -10.3900   21.0360 C   0  0  0  0  0  0  0  0  0  0  0  0
  -24.2700   -9.4230   21.9490 C   0  0  0  0  0  3  0  0  0  0  0  0
  -23.5810   -8.2030   22.1240 C   0  0  0  0  0  3  0  0  0  0  0  0
  -22.4030   -7.9410   21.3850 C   0  0  0  0  0  0  0  0  0  0  0  0
  -21.9480   -8.8970   20.4600 C   0  0  0  0  0  3  0  0  0  0  0  0
  -22.6370  -10.1080   20.2830 C   0  0  0  0  0  3  0  0  0  0  0  0
  -21.6820   -6.7750   21.4700 O   0  0  0  0  0  0  0  0  0  0  0  0
  -21.6710   -6.0170   22.6140 C   0  0  0  0  0  0  0  0  0  0  0  0
  -21.2370   -6.5420   23.8510 C   0  0  0  0  0  3  0  0  0  0  0  0
  -21.1750   -5.7090   24.9860 C   0  0  0  0  0  3  0  0  0  0  0  0
  -21.5380   -4.3520   24.8860 C   0  0  0  0  0  0  0  0  0  0  0  0
  -21.9650   -3.8270   23.6530 C   0  0  0  0  0  3  0  0  0  0  0  0
  -22.0280   -4.6570   22.5210 C   0  0  0  0  0  0  0  0  0  0  0  0
  -22.4200   -4.1400   21.3300 F   0  0  0  0  0  0  0  0  0  0  0  0
  -21.4720   -3.5500   25.9740 F   0  0  0  0  0  0  0  0  0  0  0  0
  -22.5820  -13.4440   21.2540 C   0  0  0  0  0  0  0  0  0  0  0  0
  -21.9000  -12.7090   22.1250 N   0  0  0  0  0  0  0  0  0  0  0  0
  -22.1020  -14.4700   20.7720 O   0  0  0  0  0  0  0  0  0  0  0  0
  -22.3030  -11.8820   22.5380 H   0  0  0  0  0  0  0  0  0  0  0  0
  -20.9620  -12.9810   22.3850 H   0  0  0  0  0  0  0  0  0  0  0  0
  -25.1290  -15.2020   20.3880 N   0  0  0  0  0  0  0  0  0  0  0  0
  -24.3420  -15.8260   20.5330 H   0  0  0  0  0  0  0  0  0  0  0  0
  -25.9370  -15.6740   20.0040 H   0  0  0  0  0  0  0  0  0  0  0  0
  -31.2990  -16.8810   22.9510 C   0  0  0  0  0  1  0  0  0  0  0  0
  -30.2700  -17.8330   22.3230 C   0  0  0  0  0  2  0  0  0  0  0  0
  -28.4960  -21.8300   20.0810 C   0  0  0  0  0  3  0  0  0  0  0  0
  -28.8600  -23.4410   20.4020 C   0  0  0  0  0  3  0  0  0  0  0  0
  -27.8910  -24.7500   20.0090 C   0  0  0  0  0  3  0  0  0  0  0  0
  -28.1680  -26.2540   20.2560 O   0  0  0  0  0  0  0  0  0  0  0  0
  -24.5810  -31.9280   23.2450 C   0  0  0  0  0  0  0  0  0  0  0  0
  -27.1160  -27.2320   20.1840 C   0  0  0  0  0  0  0  0  0  0  0  0
  -23.3660  -30.5520   21.6020 C   0  0  0  0  0  3  0  0  0  0  0  0
  -24.7980  -28.9780   20.1640 C   0  0  0  0  0  0  0  0  0  0  0  0
  -25.9190  -30.8040   21.4310 C   0  0  0  0  0  2  0  0  0  0  0  0
  -25.9800  -29.4170   20.7720 C   0  0  0  0  0  0  0  0  0  0  0  0
  -27.1420  -28.5600   20.7660 C   0  0  0  0  0  3  0  0  0  0  0  0
  -25.9090  -26.8910   19.5350 C   0  0  0  0  0  3  0  0  0  0  0  0
  -24.7740  -27.7280   19.5290 C   0  0  0  0  0  3  0  0  0  0  0  0
  -23.5770  -29.8810   20.2180 C   0  0  0  0  0  2  0  0  0  0  0  0
  -24.6420  -31.1150   22.1470 N   0  0  0  0  0  0  0  0  0  0  0  0
  -23.4990  -32.2180   23.7780 O   0  0  0  0  0  0  0  0  0  0  0  0
  -22.6820  -29.5430   22.5580 C   0  0  0  0  0  0  0  0  0  0  0  0
  -21.3530  -29.3810   22.4320 N   0  0  0  0  0  0  0  0  0  0  0  0
  -23.3500  -28.9080   23.3790 O   0  0  0  0  0  0  0  0  0  0  0  0
  -20.8700  -29.9460   21.7460 H   0  0  0  0  0  0  0  0  0  0  0  0
  -17.9620  -28.2110   22.9380 C   0  0  0  0  0  0  0  0  0  0  0  0
  -20.5240  -28.4490   23.2010 C   0  0  0  0  0  3  0  0  0  0  0  0
  -20.6110  -27.0180   22.6210 C   0  0  0  0  0  2  0  0  0  0  0  0
  -19.5050  -26.7100   21.6060 C   0  0  0  0  0  2  0  0  0  0  0  0
  -18.1250  -26.8640   22.2540 C   0  0  0  0  0  2  0  0  0  0  0  0
  -19.0890  -28.9620   23.3680 C   0  0  0  0  0  0  0  0  0  0  0  0
  -18.8810  -30.2220   23.9690 C   0  0  0  0  0  3  0  0  0  0  0  0
  -17.5800  -30.7330   24.1420 C   0  0  0  0  0  3  0  0  0  0  0  0
  -16.4690  -29.9790   23.7250 C   0  0  0  0  0  3  0  0  0  0  0  0
  -16.6610  -28.7200   23.1300 C   0  0  0  0  0  3  0  0  0  0  0  0
  -25.8670  -32.5490   23.8720 C   0  0  0  0  0  3  0  0  0  0  0  0
  -26.3680  -31.7750   25.1530 C   0  0  1  0  0  0  0  0  0  0  0  0
  -25.2670  -31.5510   26.2170 C   0  0  0  0  0  1  0  0  0  0  0  0
  -26.9370  -30.3880   24.7710 C   0  0  0  0  0  1  0  0  0  0  0  0
  -27.5240  -32.5570   25.8190 C   0  0  0  0  0  1  0  0  0  0  0  0
  -25.5690  -33.9510   24.2030 N   0  0  0  0  0  0  0  0  0  0  0  0
  -25.8970  -35.0030   23.4410 C   0  0  0  0  0  0  0  0  0  0  0  0
  -26.5480  -34.8940   22.3980 O   0  0  0  0  0  0  0  0  0  0  0  0
  -24.9890  -34.1100   25.0140 H   0  0  0  0  0  0  0  0  0  0  0  0
  -24.1680  -36.8050   23.1300 C   0  0  0  0  0  1  0  0  0  0  0  0
  -25.4300  -36.3970   23.9070 C   0  0  0  0  0  3  0  0  0  0  0  0
  -27.5900  -37.2800   24.6740 C   0  0  0  0  0  1  0  0  0  0  0  0
  -26.4640  -37.4450   23.7590 N   0  0  0  0  0  0  0  0  0  0  0  0
  -26.0650  -38.3680   23.9090 H   0  0  0  0  0  0  0  0  0  0  0  0
  2  1  1  0
  2  4  1  0
  3  2  2  0
  4 44  1  0
  5 13  1  0
  6 11  1  0
  7  8  1  0
  7  6  1  0
  9  8  1  0
  9 18  1  0
  9 10  1  0
 11  5  1  0
 11 10  1  0
 12  5  2  0
 13 14  1  0
 13  4  1  0
 15 16  2  0
 16 35  1  0
 17 16  1  0
 17 20  1  0
 18 19  1  0
 18 15  1  0
 19 17  2  0
 20 21  1  0
 21 22  2  0
 23 26  1  0
 23 22  1  0
 24 23  2  0
 25 24  1  0
 25 20  2  0
 26 27  1  0
 27 28  1  0
 28 29  2  0
 30 29  1  0
 30 34  1  0
 31 30  2  0
 32 27  2  0
 32 31  1  0
 33 32  1  0
 35 36  1  0
 36 39  1  0
 36 38  1  0
 37 35  2  0
 40 41  1  0
 40 15  1  0
 42 40  1  0
 44 43  1  0
 45 46  1  0
 45  1  2  0
 47 48  1  0
 47 46  2  0
 49 60  2  0
 50 48  1  0
 50 55  1  0
 51 59  1  0
 51 61  1  0
 52 58  1  0
 52 54  1  0
 53 59  1  0
 54 53  1  0
 55 54  2  0
 56 50  2  0
 57 56  1  0
 57 52  2  0
 58 51  1  0
 59 49  1  0
 61 63  2  0
 62 61  1  0
 64 62  1  0
 65 74  2  0
 65 70  1  0
 66 62  1  0
 66 70  1  0
 67 66  1  0
 68 69  1  0
 68 67  1  0
 69 65  1  0
 70 71  2  0
 71 72  1  0
 73 72  2  0
 74 73  1  0
 75 49  1  0
 75 80  1  0
 75 76  1  0
 76 79  1  1
 76 77  1  0
 78 76  1  0
 80 83  1  0
 81 85  1  0
 81 80  1  0
 82 81  2  0
 85 84  1  0
 87 85  1  0
 87 88  1  0
 87 86  1  0
M  ISO  4   5 100  13 100  47 101  48 101
M  END
>  <TORSDO>  (53) 
F 22

>  <SCORE>  (53) 
-12.209

>  <name>  (53) 
54

>  <ligand_id>  (53) 
54

>  <original_smiles>  (53) 
[H]c1c([H])c([H])c2c(c1[H])C([H])([H])C([H])([H])C([H])([H])C2([H])N([H])C(=O)C1([H])N(C(=O)C([H])(N([H])C(=O)C([H])(N([H])C([H])([H])[H])C([H])([H])[H])C(C([H])([H])[H])(C([H])([H])[H])C([H])([H])[H])C([H])([H])c2c([H])c(OC([H])([H])C([H])([H])C([H])([H])C([H])([H])C(=O)C([H])(N([H])C(=O)N3C([H])([H])C([H])([H])C([H])([H])C([H])(n4nc(-c5c([H])c([H])c(Oc6c([H])c([H])c(F)c([H])c6F)c([H])c5[H])c(C(=O)N([H])[H])c4N([H])[H])C3([H])[H])C([H])([H])C([H])([H])[H])c([H])c([H])c2C1([H])[H]

>  <smiles>  (53) 
[H]c1c([H])c([H])c2c(c1[H])C([H])([H])C([H])([H])C([H])([H])C2([H])N([H])C(=O)C1([H])N(C(=O)C([H])(N([H])C(=O)C([H])(N([H])C([H])([H])[H])C([H])([H])[H])C(C([H])([H])[H])(C([H])([H])[H])C([H])([H])[H])C([H])([H])c2c([H])c(OC([H])([H])C([H])([H])C([H])([H])C([H])([H])C(=O)C([H])(N([H])C(=O)N3C([H])([H])C([H])([H])C([H])([H])C([H])(n4nc(-c5c([H])c([H])c(Oc6c([H])c([H])c(F)c([H])c6F)c([H])c5[H])c(C(=O)N([H])[H])c4N([H])[H])C3([H])[H])C([H])([H])C([H])([H])[H])c([H])c([H])c2C1([H])[H]

$$$$
55:0:0
     RDKit          3D

 93101  0  0  1  0  0  0  0  0999 V2000
  -30.4680  -15.3350   20.3760 C   0  0  0  0  0  0  0  0  0  0  0  0
  -30.3820  -12.9030   19.4490 C   0  0  0  0  0  2  0  0  0  0  0  0
  -29.4850  -12.6480   18.2150 C   0  0  0  0  0  2  0  0  0  0  0  0
  -28.0400  -12.3710   18.6550 C   0  0  0  0  0  2  0  0  0  0  0  0
  -27.5690  -13.3560   19.7520 C   0  0  0  0  0  3  0  0  0  0  0  0
  -28.6020  -13.5550   20.8810 C   0  0  0  0  0  2  0  0  0  0  0  0
  -29.8140  -14.0740   20.2290 N   0  0  0  0  0  0  0  0  0  0  0  0
  -31.6940  -15.1790   20.2620 O   0  0  0  0  0  0  0  0  0  0  0  0
  -30.7600  -17.7090   19.3620 C   0  0  0  0  0  2  0  0  0  0  0  0
  -29.0000  -17.9170   20.7530 C   0  0  0  0  0  2  0  0  0  0  0  0
  -30.6930  -19.2440   19.8400 C   0  0  0  0  0  3  0  0  0  0  0  0
  -29.2060  -19.5370   20.1320 C   0  0  0  0  0  3  0  0  0  0  0  0
  -29.9310  -16.7320   20.1480 N   0  0  0  0  0  0  0  0  0  0  0  0
  -25.1970  -13.9140   20.4810 C   0  0  0  0  0  0  0  0  0  0  0  0
  -24.1310  -13.1370   20.8370 C   0  0  0  0  0  0  0  0  0  0  0  0
  -24.6010  -11.7880   20.8250 C   0  0  0  0  0  0  0  0  0  0  0  0
  -26.2420  -13.0390   20.2550 N   0  0  0  0  0  0  0  0  0  0  0  0
  -25.8980  -11.7550   20.5350 N   0  0  0  0  0  0  0  0  0  0  0  0
  -23.8750  -10.5260   21.0080 C   0  0  0  0  0  0  0  0  0  0  0  0
  -24.2920   -9.5640   21.9540 C   0  0  0  0  0  3  0  0  0  0  0  0
  -23.5610   -8.3690   22.1290 C   0  0  0  0  0  3  0  0  0  0  0  0
  -22.4000   -8.1250   21.3570 C   0  0  0  0  0  0  0  0  0  0  0  0
  -22.0030   -9.0770   20.4020 C   0  0  0  0  0  3  0  0  0  0  0  0
  -22.7350  -10.2630   20.2240 C   0  0  0  0  0  3  0  0  0  0  0  0
  -21.6430   -6.9820   21.4410 O   0  0  0  0  0  0  0  0  0  0  0  0
  -21.5750   -6.2480   22.5980 C   0  0  0  0  0  0  0  0  0  0  0  0
  -21.1330   -6.8120   23.8140 C   0  0  0  0  0  3  0  0  0  0  0  0
  -21.0110   -6.0030   24.9620 C   0  0  0  0  0  3  0  0  0  0  0  0
  -21.3210   -4.6310   24.8940 C   0  0  0  0  0  0  0  0  0  0  0  0
  -21.7540   -4.0670   23.6820 C   0  0  0  0  0  3  0  0  0  0  0  0
  -21.8780   -4.8730   22.5360 C   0  0  0  0  0  0  0  0  0  0  0  0
  -22.2750   -4.3190   21.3660 F   0  0  0  0  0  0  0  0  0  0  0  0
  -21.1970   -3.8530   25.9950 F   0  0  0  0  0  0  0  0  0  0  0  0
  -22.7280  -13.6140   21.0710 C   0  0  0  0  0  0  0  0  0  0  0  0
  -21.9830  -12.9270   21.9290 N   0  0  0  0  0  0  0  0  0  0  0  0
  -22.3010  -14.6320   20.5270 O   0  0  0  0  0  0  0  0  0  0  0  0
  -22.3440  -12.1060   22.3910 H   0  0  0  0  0  0  0  0  0  0  0  0
  -21.0380  -13.2270   22.1260 H   0  0  0  0  0  0  0  0  0  0  0  0
  -25.3650  -15.2850   20.2950 N   0  0  0  0  0  0  0  0  0  0  0  0
  -24.5980  -15.9430   20.3860 H   0  0  0  0  0  0  0  0  0  0  0  0
  -26.2200  -15.7170   19.9710 H   0  0  0  0  0  0  0  0  0  0  0  0
  -28.6900  -21.0430   20.7000 N   0  0  0  0  0  4  0  0  0  0  0  0
  -28.9600  -21.0610   21.6700 H   0  0  0  0  0  0  0  0  0  0  0  0
  -27.6880  -20.9380   20.7240 H   0  0  0  0  0  0  0  0  0  0  0  0
  -28.9040  -22.6260   20.1590 C   0  0  0  0  0  3  0  0  0  0  0  0
  -27.9860  -24.1670   20.5000 C   0  0  0  0  0  3  0  0  0  0  0  0
  -28.2320  -25.8130   20.3170 O   0  0  0  0  0  0  0  0  0  0  0  0
  -24.6410  -31.8580   23.1940 C   0  0  0  0  0  0  0  0  0  0  0  0
  -27.2220  -26.9220   20.2710 C   0  0  0  0  0  0  0  0  0  0  0  0
  -23.4650  -30.4390   21.5660 C   0  0  0  0  0  3  0  0  0  0  0  0
  -24.9270  -28.8160   20.1740 C   0  0  0  0  0  0  0  0  0  0  0  0
  -26.0330  -30.6490   21.4340 C   0  0  0  0  0  2  0  0  0  0  0  0
  -26.1100  -29.2270   20.8000 C   0  0  0  0  0  0  0  0  0  0  0  0
  -27.2530  -28.3030   20.8190 C   0  0  0  0  0  3  0  0  0  0  0  0
  -26.0090  -26.6730   19.5890 C   0  0  0  0  0  3  0  0  0  0  0  0
  -24.9030  -27.5610   19.5460 C   0  0  0  0  0  3  0  0  0  0  0  0
  -23.7090  -29.7390   20.1990 C   0  0  0  0  0  2  0  0  0  0  0  0
  -24.7350  -31.0110   22.1170 N   0  0  0  0  0  0  0  0  0  0  0  0
  -23.5470  -32.1490   23.7050 O   0  0  0  0  0  0  0  0  0  0  0  0
  -22.7680  -29.4520   22.5380 C   0  0  0  0  0  0  0  0  0  0  0  0
  -21.4370  -29.2900   22.4150 N   0  0  0  0  0  0  0  0  0  0  0  0
  -23.4310  -28.8320   23.3730 O   0  0  0  0  0  0  0  0  0  0  0  0
  -20.9550  -29.8420   21.7190 H   0  0  0  0  0  0  0  0  0  0  0  0
  -18.0480  -28.0980   22.9420 C   0  0  0  0  0  0  0  0  0  0  0  0
  -20.6110  -28.3570   23.1900 C   0  0  0  0  0  3  0  0  0  0  0  0
  -20.7030  -26.9220   22.6210 C   0  0  0  0  0  2  0  0  0  0  0  0
  -19.5960  -26.6010   21.6130 C   0  0  0  0  0  2  0  0  0  0  0  0
  -18.2180  -26.7480   22.2640 C   0  0  0  0  0  2  0  0  0  0  0  0
  -19.1720  -28.8600   23.3610 C   0  0  0  0  0  0  0  0  0  0  0  0
  -18.9560  -30.1220   23.9580 C   0  0  0  0  0  3  0  0  0  0  0  0
  -17.6530  -30.6200   24.1390 C   0  0  0  0  0  3  0  0  0  0  0  0
  -16.5450  -29.8570   23.7300 C   0  0  0  0  0  3  0  0  0  0  0  0
  -16.7440  -28.5970   23.1380 C   0  0  0  0  0  3  0  0  0  0  0  0
  -25.9030  -32.5150   23.8290 C   0  0  0  0  0  3  0  0  0  0  0  0
  -25.5720  -33.9160   24.1520 N   0  0  0  0  0  0  0  0  0  0  0  0
  -25.9080  -34.9770   23.4060 C   0  0  0  0  0  0  0  0  0  0  0  0
  -26.5900  -34.8820   22.3840 O   0  0  0  0  0  0  0  0  0  0  0  0
  -24.9670  -34.0610   24.9460 H   0  0  0  0  0  0  0  0  0  0  0  0
  -24.1800  -36.7750   23.0400 C   0  0  0  0  0  1  0  0  0  0  0  0
  -25.4100  -36.3640   23.8650 C   0  0  0  0  0  3  0  0  0  0  0  0
  -27.5290  -37.2550   24.7310 C   0  0  0  0  0  1  0  0  0  0  0  0
  -26.4410  -37.4220   23.7720 N   0  0  0  0  0  0  0  0  0  0  0  0
  -26.0300  -38.3410   23.9140 H   0  0  0  0  0  0  0  0  0  0  0  0
  -26.4030  -31.7670   25.1270 C   0  0  1  0  0  0  0  0  0  0  0  0
  -25.2990  -31.5420   26.1860 C   0  0  0  0  0  1  0  0  0  0  0  0
  -26.9980  -30.3850   24.7720 C   0  0  0  0  0  1  0  0  0  0  0  0
  -27.5420  -32.5760   25.7910 C   0  0  0  0  0  1  0  0  0  0  0  0
  -31.5870  -19.5090   21.0800 C   0  0  0  0  0  2  0  0  0  0  0  0
  -33.1070  -19.3690   20.8500 C   0  0  0  0  0  2  0  0  0  0  0  0
  -33.6690  -20.4520   20.0230 N   0  0  0  0  0  4  0  0  0  0  0  0
  -33.3280  -20.4140   19.0790 H   0  0  0  0  0  0  0  0  0  0  0  0
  -34.6700  -20.3660   19.9920 H   0  0  0  0  0  0  0  0  0  0  0  0
  -33.4530  -21.3490   20.4190 H   0  0  0  0  0  0  0  0  0  0  0  0
  2  7  1  0
  3  4  1  0
  3  2  1  0
  5  4  1  0
  5 17  1  0
  5  6  1  0
  7  1  1  0
  7  6  1  0
  8  1  2  0
  9 11  1  0
  9 13  1  0
 11 12  1  0
 11 88  1  0
 12 42  1  0
 12 10  1  0
 13  1  1  0
 13 10  1  0
 14 15  2  0
 15 34  1  0
 16 15  1  0
 16 19  1  0
 17 14  1  0
 17 18  1  0
 18 16  2  0
 19 20  1  0
 20 21  2  0
 22 25  1  0
 22 21  1  0
 23 22  2  0
 24 23  1  0
 24 19  2  0
 25 26  1  0
 26 27  1  0
 27 28  2  0
 29 28  1  0
 29 33  1  0
 30 29  2  0
 31 26  2  0
 31 30  1  0
 32 31  1  0
 34 35  1  0
 35 38  1  0
 35 37  1  0
 36 34  2  0
 39 40  1  0
 39 14  1  0
 41 39  1  0
 42 44  1  0
 42 43  1  0
 45 46  2  0
 45 42  1  0
 47 46  1  0
 48 59  2  0
 49 47  1  0
 49 54  1  0
 50 58  1  0
 50 60  1  0
 51 57  1  0
 51 53  1  0
 52 58  1  0
 53 54  2  0
 53 52  1  0
 55 49  2  0
 56 55  1  0
 56 51  2  0
 57 50  1  0
 58 48  1  0
 60 62  2  0
 61 60  1  0
 63 61  1  0
 64 73  2  0
 64 69  1  0
 65 61  1  0
 65 69  1  0
 66 65  1  0
 67 68  1  0
 67 66  1  0
 68 64  1  0
 69 70  2  0
 70 71  1  0
 72 71  2  0
 73 72  1  0
 74 48  1  0
 74 75  1  0
 74 84  1  0
 75 78  1  0
 76 80  1  0
 76 75  1  0
 77 76  2  0
 80 79  1  0
 82 80  1  0
 82 83  1  0
 82 81  1  0
 84 87  1  1
 84 85  1  0
 86 84  1  0
 89 88  1  0
 90 93  1  0
 90 89  1  0
 91 90  1  0
 92 90  1  0
M  ISO  4   1 100  13 100  46 101  47 101
M  END
>  <TORSDO>  (54) 
F 21

>  <SCORE>  (54) 
-15.539

>  <name>  (54) 
55

>  <ligand_id>  (54) 
55

>  <original_smiles>  (54) 
[H]c1c([H])c([H])c2c(c1[H])C([H])([H])C([H])([H])C([H])([H])C2([H])N([H])C(=O)C1([H])N(C(=O)C([H])(N([H])C(=O)C([H])(N([H])C([H])([H])[H])C([H])([H])[H])C(C([H])([H])[H])(C([H])([H])[H])C([H])([H])[H])C([H])([H])c2c([H])c(OC([H])([H])C([H])([H])[N+]([H])([H])C3([H])C([H])([H])N(C(=O)N4C([H])([H])C([H])([H])C([H])([H])C([H])(n5nc(-c6c([H])c([H])c(Oc7c([H])c([H])c(F)c([H])c7F)c([H])c6[H])c(C(=O)N([H])[H])c5N([H])[H])C4([H])[H])C([H])([H])C3([H])C([H])([H])C([H])([H])[N+]([H])([H])[H])c([H])c([H])c2C1([H])[H]

>  <smiles>  (54) 
[H]c1c([H])c([H])c2c(c1[H])C([H])([H])C([H])([H])C([H])([H])C2([H])N([H])C(=O)C1([H])N(C(=O)C([H])(N([H])C(=O)C([H])(N([H])C([H])([H])[H])C([H])([H])[H])C(C([H])([H])[H])(C([H])([H])[H])C([H])([H])[H])C([H])([H])c2c([H])c(OC([H])([H])C([H])([H])[N+]([H])([H])C3([H])C([H])([H])N(C(=O)N4C([H])([H])C([H])([H])C([H])([H])C([H])(n5nc(-c6c([H])c([H])c(Oc7c([H])c([H])c(F)c([H])c7F)c([H])c6[H])c(C(=O)N([H])[H])c5N([H])[H])C4([H])[H])C([H])([H])C3([H])C([H])([H])C([H])([H])[N+]([H])([H])[H])c([H])c([H])c2C1([H])[H]

$$$$
56:0:0
     RDKit          3D

 87 94  0  0  1  0  0  0  0  0999 V2000
  -29.1140  -21.1920   20.0000 C   0  0  0  0  0  2  0  0  0  0  0  0
  -29.0870  -19.5370   20.6790 C   0  0  0  0  0  2  0  0  0  0  0  0
  -30.4580  -15.2480   20.2630 C   0  0  0  0  0  0  0  0  0  0  0  0
  -30.4110  -12.8190   19.3790 C   0  0  0  0  0  2  0  0  0  0  0  0
  -29.4880  -12.6430   18.1470 C   0  0  0  0  0  2  0  0  0  0  0  0
  -28.0370  -12.3800   18.5850 C   0  0  0  0  0  2  0  0  0  0  0  0
  -27.5940  -13.3320   19.7250 C   0  0  0  0  0  3  0  0  0  0  0  0
  -28.6450  -13.4560   20.8510 C   0  0  0  0  0  2  0  0  0  0  0  0
  -29.8840  -13.9480   20.2300 N   0  0  0  0  0  0  0  0  0  0  0  0
  -31.6620  -15.2730   19.9480 O   0  0  0  0  0  0  0  0  0  0  0  0
  -29.9440  -18.1030   20.2280 C   0  0  0  0  0  0  0  0  0  0  0  0
  -29.6670  -16.6560   20.4710 N   0  0  0  0  0  0  0  0  0  0  0  0
  -31.0880  -18.3960   19.5780 N   0  0  0  0  0  4  0  0  0  0  0  0
  -28.7270  -16.5780   20.8230 H   0  0  0  0  0  0  0  0  0  0  0  0
  -31.3540  -19.3560   19.4040 H   0  0  0  0  0  0  0  0  0  0  0  0
  -31.7350  -17.6780   19.2770 H   0  0  0  0  0  0  0  0  0  0  0  0
  -25.2180  -13.8810   20.4730 C   0  0  0  0  0  0  0  0  0  0  0  0
  -24.1630  -13.0990   20.8480 C   0  0  0  0  0  0  0  0  0  0  0  0
  -24.6380  -11.7510   20.8220 C   0  0  0  0  0  0  0  0  0  0  0  0
  -26.2670  -13.0110   20.2330 N   0  0  0  0  0  0  0  0  0  0  0  0
  -25.9300  -11.7250   20.5110 N   0  0  0  0  0  0  0  0  0  0  0  0
  -23.9200  -10.4850   21.0160 C   0  0  0  0  0  0  0  0  0  0  0  0
  -24.3550   -9.5230   21.9540 C   0  0  0  0  0  3  0  0  0  0  0  0
  -23.6330   -8.3240   22.1370 C   0  0  0  0  0  3  0  0  0  0  0  0
  -22.4610   -8.0790   21.3830 C   0  0  0  0  0  0  0  0  0  0  0  0
  -22.0440   -9.0290   20.4340 C   0  0  0  0  0  3  0  0  0  0  0  0
  -22.7670  -10.2200   20.2490 C   0  0  0  0  0  3  0  0  0  0  0  0
  -21.7100   -6.9310   21.4750 O   0  0  0  0  0  0  0  0  0  0  0  0
  -21.6650   -6.1920   22.6300 C   0  0  0  0  0  0  0  0  0  0  0  0
  -21.2360   -6.7480   23.8540 C   0  0  0  0  0  3  0  0  0  0  0  0
  -21.1390   -5.9350   25.0010 C   0  0  0  0  0  3  0  0  0  0  0  0
  -21.4600   -4.5670   24.9240 C   0  0  0  0  0  0  0  0  0  0  0  0
  -21.8820   -4.0100   23.7040 C   0  0  0  0  0  3  0  0  0  0  0  0
  -21.9810   -4.8200   22.5600 C   0  0  0  0  0  0  0  0  0  0  0  0
  -22.3680   -4.2730   21.3820 F   0  0  0  0  0  0  0  0  0  0  0  0
  -21.3590   -3.7840   26.0250 F   0  0  0  0  0  0  0  0  0  0  0  0
  -22.7620  -13.5690   21.1130 C   0  0  0  0  0  0  0  0  0  0  0  0
  -22.0350  -12.8730   21.9790 N   0  0  0  0  0  0  0  0  0  0  0  0
  -22.3230  -14.5900   20.5860 O   0  0  0  0  0  0  0  0  0  0  0  0
  -22.4050  -12.0460   22.4270 H   0  0  0  0  0  0  0  0  0  0  0  0
  -21.0960  -13.1710   22.1990 H   0  0  0  0  0  0  0  0  0  0  0  0
  -25.3670  -15.2520   20.2840 N   0  0  0  0  0  0  0  0  0  0  0  0
  -24.5750  -15.8810   20.3620 H   0  0  0  0  0  0  0  0  0  0  0  0
  -26.1640  -15.6800   19.8330 H   0  0  0  0  0  0  0  0  0  0  0  0
  -28.6420  -22.7980   20.6400 C   0  0  0  0  0  2  0  0  0  0  0  0
  -28.1950  -24.3590   19.8890 C   0  0  0  0  0  2  0  0  0  0  0  0
  -28.2130  -25.9330   20.3440 O   0  0  0  0  0  0  0  0  0  0  0  0
  -24.6250  -31.8590   23.2150 C   0  0  0  0  0  0  0  0  0  0  0  0
  -27.1880  -26.9980   20.2190 C   0  0  0  0  0  0  0  0  0  0  0  0
  -23.4310  -30.4560   21.5820 C   0  0  0  0  0  3  0  0  0  0  0  0
  -24.8800  -28.8520   20.1610 C   0  0  0  0  0  0  0  0  0  0  0  0
  -25.9940  -30.6760   21.4330 C   0  0  0  0  0  2  0  0  0  0  0  0
  -26.0620  -29.2680   20.7830 C   0  0  0  0  0  0  0  0  0  0  0  0
  -27.2080  -28.3590   20.7910 C   0  0  0  0  0  3  0  0  0  0  0  0
  -25.9780  -26.7290   19.5390 C   0  0  0  0  0  3  0  0  0  0  0  0
  -24.8590  -27.6030   19.5200 C   0  0  0  0  0  3  0  0  0  0  0  0
  -23.6590  -29.7680   20.2070 C   0  0  0  0  0  2  0  0  0  0  0  0
  -24.7040  -31.0260   22.1290 N   0  0  0  0  0  0  0  0  0  0  0  0
  -23.5370  -32.1520   23.7360 O   0  0  0  0  0  0  0  0  0  0  0  0
  -22.7390  -29.4630   22.5520 C   0  0  0  0  0  0  0  0  0  0  0  0
  -21.4090  -29.3030   22.4310 N   0  0  0  0  0  0  0  0  0  0  0  0
  -23.4060  -28.8370   23.3810 O   0  0  0  0  0  0  0  0  0  0  0  0
  -20.9250  -29.8580   21.7390 H   0  0  0  0  0  0  0  0  0  0  0  0
  -18.0220  -28.1090   22.9500 C   0  0  0  0  0  0  0  0  0  0  0  0
  -20.5830  -28.3690   23.2060 C   0  0  0  0  0  3  0  0  0  0  0  0
  -20.6790  -26.9350   22.6350 C   0  0  0  0  0  2  0  0  0  0  0  0
  -19.5740  -26.6130   21.6240 C   0  0  0  0  0  2  0  0  0  0  0  0
  -18.1940  -26.7590   22.2730 C   0  0  0  0  0  2  0  0  0  0  0  0
  -19.1440  -28.8720   23.3730 C   0  0  0  0  0  0  0  0  0  0  0  0
  -18.9260  -30.1320   23.9700 C   0  0  0  0  0  3  0  0  0  0  0  0
  -17.6220  -30.6320   24.1440 C   0  0  0  0  0  3  0  0  0  0  0  0
  -16.5160  -29.8680   23.7350 C   0  0  0  0  0  3  0  0  0  0  0  0
  -16.7160  -28.6080   23.1440 C   0  0  0  0  0  3  0  0  0  0  0  0
  -25.8980  -32.5020   23.8460 C   0  0  0  0  0  3  0  0  0  0  0  0
  -26.4020  -31.7430   25.1360 C   0  0  1  0  0  0  0  0  0  0  0  0
  -25.3000  -31.5230   26.1990 C   0  0  0  0  0  1  0  0  0  0  0  0
  -26.9820  -30.3590   24.7710 C   0  0  0  0  0  1  0  0  0  0  0  0
  -27.5500  -32.5420   25.7970 C   0  0  0  0  0  1  0  0  0  0  0  0
  -25.5810  -33.9030   24.1730 N   0  0  0  0  0  0  0  0  0  0  0  0
  -25.9140  -34.9610   23.4220 C   0  0  0  0  0  0  0  0  0  0  0  0
  -26.5840  -34.8610   22.3900 O   0  0  0  0  0  0  0  0  0  0  0  0
  -24.9850  -34.0550   24.9740 H   0  0  0  0  0  0  0  0  0  0  0  0
  -24.1880  -36.7630   23.0840 C   0  0  0  0  0  1  0  0  0  0  0  0
  -25.4320  -36.3510   23.8860 C   0  0  0  0  0  3  0  0  0  0  0  0
  -27.5720  -37.2340   24.7100 C   0  0  0  0  0  1  0  0  0  0  0  0
  -26.4660  -37.4040   23.7710 N   0  0  0  0  0  0  0  0  0  0  0  0
  -26.0620  -38.3250   23.9210 H   0  0  0  0  0  0  0  0  0  0  0  0
  1 45  1  0
  1  2  1  0
  3 12  1  0
  4  9  1  0
  5  6  1  0
  5  4  1  0
  7  6  1  0
  7 20  1  0
  7  8  1  0
  9  3  1  0
  9  8  1  0
 10  3  2  0
 11 12  1  0
 11  2  1  0
 12 14  1  0
 13 11  2  0
 15 13  1  0
 16 13  1  0
 17 18  2  0
 18 37  1  0
 19 18  1  0
 19 22  1  0
 20 17  1  0
 20 21  1  0
 21 19  2  0
 22 23  1  0
 23 24  2  0
 25 28  1  0
 25 24  1  0
 26 25  2  0
 27 26  1  0
 27 22  2  0
 28 29  1  0
 29 30  1  0
 30 31  2  0
 32 31  1  0
 32 36  1  0
 33 32  2  0
 34 29  2  0
 34 33  1  0
 35 34  1  0
 37 38  1  0
 38 41  1  0
 38 40  1  0
 39 37  2  0
 42 43  1  0
 42 17  1  0
 44 42  1  0
 46 47  1  0
 46 45  1  0
 48 59  2  0
 49 47  1  0
 49 54  1  0
 50 58  1  0
 50 60  1  0
 51 57  1  0
 51 53  1  0
 52 58  1  0
 53 54  2  0
 53 52  1  0
 55 49  2  0
 56 55  1  0
 56 51  2  0
 57 50  1  0
 58 48  1  0
 60 62  2  0
 61 60  1  0
 63 61  1  0
 64 73  2  0
 64 69  1  0
 65 61  1  0
 65 69  1  0
 66 65  1  0
 67 68  1  0
 67 66  1  0
 68 64  1  0
 69 70  2  0
 70 71  1  0
 72 71  2  0
 73 72  1  0
 74 48  1  0
 74 79  1  0
 74 75  1  0
 75 78  1  1
 75 76  1  0
 77 75  1  0
 79 82  1  0
 80 84  1  0
 80 79  1  0
 81 80  2  0
 84 83  1  0
 86 84  1  0
 86 87  1  0
 86 85  1  0
M  ISO  4   3 100  12 100  46 101  47 101
M  END
>  <TORSDO>  (55) 
F 19

>  <SCORE>  (55) 
-15.847

>  <name>  (55) 
56

>  <ligand_id>  (55) 
56

>  <original_smiles>  (55) 
[H]c1c([H])c([H])c2c(c1[H])C([H])([H])C([H])([H])C([H])([H])C2([H])N([H])C(=O)C1([H])N(C(=O)C([H])(N([H])C(=O)C([H])(N([H])C([H])([H])[H])C([H])([H])[H])C(C([H])([H])[H])(C([H])([H])[H])C([H])([H])[H])C([H])([H])c2c([H])c(OC([H])([H])C([H])([H])C([H])([H])C([H])([H])C(N([H])C(=O)N3C([H])([H])C([H])([H])C([H])([H])C([H])(n4nc(-c5c([H])c([H])c(Oc6c([H])c([H])c(F)c([H])c6F)c([H])c5[H])c(C(=O)N([H])[H])c4N([H])[H])C3([H])[H])=[N+]([H])[H])c([H])c([H])c2C1([H])[H]

>  <smiles>  (55) 
[H]c1c([H])c([H])c2c(c1[H])C([H])([H])C([H])([H])C([H])([H])C2([H])N([H])C(=O)C1([H])N(C(=O)C([H])(N([H])C(=O)C([H])(N([H])C([H])([H])[H])C([H])([H])[H])C(C([H])([H])[H])(C([H])([H])[H])C([H])([H])[H])C([H])([H])c2c([H])c(OC([H])([H])C([H])([H])C([H])([H])C([H])([H])C(N([H])C(=O)N3C([H])([H])C([H])([H])C([H])([H])C([H])(n4nc(-c5c([H])c([H])c(Oc6c([H])c([H])c(F)c([H])c6F)c([H])c5[H])c(C(=O)N([H])[H])c4N([H])[H])C3([H])[H])=[N+]([H])[H])c([H])c([H])c2C1([H])[H]

$$$$
57:0:0
     RDKit          3D

 86 93  0  0  1  0  0  0  0  0999 V2000
  -26.9570  -21.7660   19.9360 C   0  0  0  0  0  1  0  0  0  0  0  0
  -28.4110  -22.2550   19.9930 C   0  0  0  0  0  3  0  0  0  0  0  0
  -29.4530  -20.7590   20.2010 C   0  0  0  0  0  0  0  0  0  0  0  0
  -30.6460  -21.0550   20.1060 O   0  0  0  0  0  0  0  0  0  0  0  0
  -29.2710  -18.9610   20.5200 C   0  0  0  0  0  2  0  0  0  0  0  0
  -30.7800  -17.8040   18.7160 C   0  0  0  0  0  1  0  0  0  0  0  0
  -28.4540  -16.9940   18.9040 C   0  0  0  0  0  1  0  0  0  0  0  0
  -29.7200  -17.3010   19.7220 C   0  0  2  0  0  0  0  0  0  0  0  0
  -30.3800  -15.6000   20.0960 C   0  0  0  0  0  0  0  0  0  0  0  0
  -30.4010  -13.0870   19.2560 C   0  0  0  0  0  2  0  0  0  0  0  0
  -29.4770  -12.7450   18.0570 C   0  0  0  0  0  2  0  0  0  0  0  0
  -28.0570  -12.4080   18.5390 C   0  0  0  0  0  2  0  0  0  0  0  0
  -27.5770  -13.4020   19.6190 C   0  0  0  0  0  3  0  0  0  0  0  0
  -28.6320  -13.6870   20.7080 C   0  0  0  0  0  2  0  0  0  0  0  0
  -29.8180  -14.2610   20.0340 N   0  0  0  0  0  0  0  0  0  0  0  0
  -31.6170  -15.4710   20.0610 O   0  0  0  0  0  0  0  0  0  0  0  0
  -25.2230  -13.9240   20.4240 C   0  0  0  0  0  0  0  0  0  0  0  0
  -24.1750  -13.1370   20.8060 C   0  0  0  0  0  0  0  0  0  0  0  0
  -24.6580  -11.7920   20.7750 C   0  0  0  0  0  0  0  0  0  0  0  0
  -26.2710  -13.0610   20.1660 N   0  0  0  0  0  0  0  0  0  0  0  0
  -25.9480  -11.7720   20.4470 N   0  0  0  0  0  0  0  0  0  0  0  0
  -23.9450  -10.5230   20.9760 C   0  0  0  0  0  0  0  0  0  0  0  0
  -24.3890   -9.5660   21.9140 C   0  0  0  0  0  3  0  0  0  0  0  0
  -23.6720   -8.3650   22.1040 C   0  0  0  0  0  3  0  0  0  0  0  0
  -22.4960   -8.1140   21.3570 C   0  0  0  0  0  0  0  0  0  0  0  0
  -22.0710   -9.0620   20.4090 C   0  0  0  0  0  3  0  0  0  0  0  0
  -22.7900  -10.2540   20.2170 C   0  0  0  0  0  3  0  0  0  0  0  0
  -21.7480   -6.9660   21.4580 O   0  0  0  0  0  0  0  0  0  0  0  0
  -21.7060   -6.2330   22.6170 C   0  0  0  0  0  0  0  0  0  0  0  0
  -21.2770   -6.7980   23.8390 C   0  0  0  0  0  3  0  0  0  0  0  0
  -21.1820   -5.9920   24.9910 C   0  0  0  0  0  3  0  0  0  0  0  0
  -21.5070   -4.6230   24.9230 C   0  0  0  0  0  0  0  0  0  0  0  0
  -21.9280   -4.0590   23.7060 C   0  0  0  0  0  3  0  0  0  0  0  0
  -22.0240   -4.8620   22.5550 C   0  0  0  0  0  0  0  0  0  0  0  0
  -22.4120   -4.3080   21.3810 F   0  0  0  0  0  0  0  0  0  0  0  0
  -21.4090   -3.8470   26.0270 F   0  0  0  0  0  0  0  0  0  0  0  0
  -22.7760  -13.6020   21.0830 C   0  0  0  0  0  0  0  0  0  0  0  0
  -22.0630  -12.9040   21.9580 N   0  0  0  0  0  0  0  0  0  0  0  0
  -22.3260  -14.6200   20.5600 O   0  0  0  0  0  0  0  0  0  0  0  0
  -22.4400  -12.0770   22.3990 H   0  0  0  0  0  0  0  0  0  0  0  0
  -21.1250  -13.1990   22.1920 H   0  0  0  0  0  0  0  0  0  0  0  0
  -25.3670  -15.2960   20.2390 N   0  0  0  0  0  0  0  0  0  0  0  0
  -24.5980  -15.9460   20.3630 H   0  0  0  0  0  0  0  0  0  0  0  0
  -26.2090  -15.7390   19.9010 H   0  0  0  0  0  0  0  0  0  0  0  0
  -28.3310  -24.0580   20.5870 C   0  0  0  0  0  2  0  0  0  0  0  0
  -28.2410  -25.7210   20.1290 O   0  0  0  0  0  0  0  0  0  0  0  0
  -24.6300  -31.8560   23.1410 C   0  0  0  0  0  0  0  0  0  0  0  0
  -27.2060  -26.8450   20.1920 C   0  0  0  0  0  0  0  0  0  0  0  0
  -23.4520  -30.4410   21.5110 C   0  0  0  0  0  3  0  0  0  0  0  0
  -24.9110  -28.8030   20.1170 C   0  0  0  0  0  0  0  0  0  0  0  0
  -26.0260  -30.6250   21.3820 C   0  0  0  0  0  2  0  0  0  0  0  0
  -26.1030  -29.1940   20.7410 C   0  0  0  0  0  0  0  0  0  0  0  0
  -27.2420  -28.2440   20.7390 C   0  0  0  0  0  3  0  0  0  0  0  0
  -25.9760  -26.6380   19.5230 C   0  0  0  0  0  3  0  0  0  0  0  0
  -24.8810  -27.5490   19.4860 C   0  0  0  0  0  3  0  0  0  0  0  0
  -23.6960  -29.7380   20.1460 C   0  0  0  0  0  2  0  0  0  0  0  0
  -24.7260  -31.0060   22.0630 N   0  0  0  0  0  0  0  0  0  0  0  0
  -23.5340  -32.1500   23.6480 O   0  0  0  0  0  0  0  0  0  0  0  0
  -22.7470  -29.4600   22.4830 C   0  0  0  0  0  0  0  0  0  0  0  0
  -21.4130  -29.3080   22.3640 N   0  0  0  0  0  0  0  0  0  0  0  0
  -23.4070  -28.8340   23.3150 O   0  0  0  0  0  0  0  0  0  0  0  0
  -20.9310  -29.8640   21.6720 H   0  0  0  0  0  0  0  0  0  0  0  0
  -18.0250  -28.1110   22.8970 C   0  0  0  0  0  0  0  0  0  0  0  0
  -20.5880  -28.3730   23.1400 C   0  0  0  0  0  3  0  0  0  0  0  0
  -20.6810  -26.9410   22.5630 C   0  0  0  0  0  2  0  0  0  0  0  0
  -19.5710  -26.6220   21.5570 C   0  0  0  0  0  2  0  0  0  0  0  0
  -18.1940  -26.7650   22.2120 C   0  0  0  0  0  2  0  0  0  0  0  0
  -19.1480  -28.8740   23.3170 C   0  0  0  0  0  0  0  0  0  0  0  0
  -18.9340  -30.1300   23.9220 C   0  0  0  0  0  3  0  0  0  0  0  0
  -17.6310  -30.6280   24.1080 C   0  0  0  0  0  3  0  0  0  0  0  0
  -16.5220  -29.8640   23.7030 C   0  0  0  0  0  3  0  0  0  0  0  0
  -16.7210  -28.6080   23.1020 C   0  0  0  0  0  3  0  0  0  0  0  0
  -25.8900  -32.5150   23.7780 C   0  0  0  0  0  3  0  0  0  0  0  0
  -26.4010  -31.7520   25.0650 C   0  0  1  0  0  0  0  0  0  0  0  0
  -25.3010  -31.5120   26.1280 C   0  0  0  0  0  1  0  0  0  0  0  0
  -26.9980  -30.3770   24.6940 C   0  0  0  0  0  1  0  0  0  0  0  0
  -27.5430  -32.5580   25.7300 C   0  0  0  0  0  1  0  0  0  0  0  0
  -25.5550  -33.9100   24.1230 N   0  0  0  0  0  0  0  0  0  0  0  0
  -25.8850  -34.9840   23.3930 C   0  0  0  0  0  0  0  0  0  0  0  0
  -26.5630  -34.9050   22.3660 O   0  0  0  0  0  0  0  0  0  0  0  0
  -24.9510  -34.0430   24.9210 H   0  0  0  0  0  0  0  0  0  0  0  0
  -24.1510  -36.7820   23.0670 C   0  0  0  0  0  1  0  0  0  0  0  0
  -25.3890  -36.3640   23.8760 C   0  0  0  0  0  3  0  0  0  0  0  0
  -27.5140  -37.2460   24.7380 C   0  0  0  0  0  1  0  0  0  0  0  0
  -26.4170  -37.4250   23.7910 N   0  0  0  0  0  0  0  0  0  0  0  0
  -26.0040  -38.3390   23.9560 H   0  0  0  0  0  0  0  0  0  0  0  0
  2  1  1  0
  2  3  1  0
  2 45  1  0
  3  5  1  0
  4  3  2  0
  8  6  1  6
  7  8  1  0
  8  9  1  0
  8  5  1  0
 10 15  1  0
 11 12  1  0
 11 10  1  0
 13 12  1  0
 13 20  1  0
 13 14  1  0
 15  9  1  0
 15 14  1  0
 16  9  2  0
 17 18  2  0
 18 37  1  0
 19 18  1  0
 19 22  1  0
 20 17  1  0
 20 21  1  0
 21 19  2  0
 22 23  1  0
 23 24  2  0
 25 28  1  0
 25 24  1  0
 26 25  2  0
 27 26  1  0
 27 22  2  0
 28 29  1  0
 29 30  1  0
 30 31  2  0
 32 31  1  0
 32 36  1  0
 33 32  2  0
 34 29  2  0
 34 33  1  0
 35 34  1  0
 37 38  1  0
 38 41  1  0
 38 40  1  0
 39 37  2  0
 42 43  1  0
 42 17  1  0
 44 42  1  0
 46 48  1  0
 46 45  1  0
 47 58  2  0
 48 53  1  0
 49 57  1  0
 49 59  1  0
 50 56  1  0
 50 52  1  0
 51 57  1  0
 52 51  1  0
 53 52  2  0
 54 48  2  0
 55 54  1  0
 55 50  2  0
 56 49  1  0
 57 47  1  0
 59 61  2  0
 60 59  1  0
 62 60  1  0
 63 72  2  0
 63 68  1  0
 64 60  1  0
 64 68  1  0
 65 64  1  0
 66 67  1  0
 66 65  1  0
 67 63  1  0
 68 69  2  0
 69 70  1  0
 71 70  2  0
 72 71  1  0
 73 47  1  0
 73 78  1  0
 73 74  1  0
 74 77  1  1
 74 75  1  0
 76 74  1  0
 78 81  1  0
 79 83  1  0
 79 78  1  0
 80 79  2  0
 83 82  1  0
 85 83  1  0
 85 86  1  0
 85 84  1  0
M  ISO  4   8 100   9 100  45 101  46 101
M  END
>  <TORSDO>  (56) 
F 20

>  <SCORE>  (56) 
-16.412

>  <name>  (56) 
57

>  <ligand_id>  (56) 
57

>  <original_smiles>  (56) 
[H]c1c([H])c([H])c2c(c1[H])C([H])([H])C([H])([H])C([H])([H])C2([H])N([H])C(=O)C1([H])N(C(=O)C([H])(N([H])C(=O)C([H])(N([H])C([H])([H])[H])C([H])([H])[H])C(C([H])([H])[H])(C([H])([H])[H])C([H])([H])[H])C([H])([H])c2c([H])c(OC([H])([H])C([H])(C(=O)C([H])([H])C(C(=O)N3C([H])([H])C([H])([H])C([H])([H])C([H])(n4nc(-c5c([H])c([H])c(Oc6c([H])c([H])c(F)c([H])c6F)c([H])c5[H])c(C(=O)N([H])[H])c4N([H])[H])C3([H])[H])(C([H])([H])[H])C([H])([H])[H])C([H])([H])[H])c([H])c([H])c2C1([H])[H]

>  <smiles>  (56) 
[H]c1c([H])c([H])c2c(c1[H])C([H])([H])C([H])([H])C([H])([H])C2([H])N([H])C(=O)C1([H])N(C(=O)C([H])(N([H])C(=O)C([H])(N([H])C([H])([H])[H])C([H])([H])[H])C(C([H])([H])[H])(C([H])([H])[H])C([H])([H])[H])C([H])([H])c2c([H])c(OC([H])([H])C([H])(C(=O)C([H])([H])C(C(=O)N3C([H])([H])C([H])([H])C([H])([H])C([H])(n4nc(-c5c([H])c([H])c(Oc6c([H])c([H])c(F)c([H])c6F)c([H])c5[H])c(C(=O)N([H])[H])c4N([H])[H])C3([H])[H])(C([H])([H])[H])C([H])([H])[H])C([H])([H])[H])c([H])c([H])c2C1([H])[H]

$$$$
58:0:0
     RDKit          3D

 85 93  0  0  1  0  0  0  0  0999 V2000
  -29.0300  -22.4120   20.3730 C   0  0  0  0  0  3  0  0  0  0  0  0
  -28.6860  -17.9240   20.6720 C   0  0  0  0  0  3  0  0  0  0  0  0
  -30.5770  -18.3740   19.5430 C   0  0  0  0  0  3  0  0  0  0  0  0
  -28.3720  -19.4230   20.7090 C   0  0  0  0  0  3  0  0  0  0  0  0
  -30.2600  -19.8500   19.5760 C   0  0  0  0  0  3  0  0  0  0  0  0
  -29.8440  -17.2070   20.0760 C   0  0  0  0  0  0  0  0  0  0  0  0
  -29.1230  -20.5890   20.1600 C   0  0  0  0  0  0  0  0  0  0  0  0
  -30.4300  -15.5560   20.0580 C   0  0  0  0  0  0  0  0  0  0  0  0
  -30.4300  -13.0300   19.2850 C   0  0  0  0  0  2  0  0  0  0  0  0
  -29.5260  -12.6990   18.0680 C   0  0  0  0  0  2  0  0  0  0  0  0
  -28.0990  -12.3790   18.5330 C   0  0  0  0  0  2  0  0  0  0  0  0
  -27.6160  -13.3780   19.6140 C   0  0  0  0  0  3  0  0  0  0  0  0
  -28.6600  -13.6710   20.7130 C   0  0  0  0  0  2  0  0  0  0  0  0
  -29.8590  -14.2220   20.0530 N   0  0  0  0  0  0  0  0  0  0  0  0
  -31.6490  -15.4380   19.8310 O   0  0  0  0  0  0  0  0  0  0  0  0
  -25.2780  -13.8880   20.4580 C   0  0  0  0  0  0  0  0  0  0  0  0
  -24.2330  -13.0950   20.8420 C   0  0  0  0  0  0  0  0  0  0  0  0
  -24.7090  -11.7500   20.7780 C   0  0  0  0  0  0  0  0  0  0  0  0
  -26.3160  -13.0270   20.1640 N   0  0  0  0  0  0  0  0  0  0  0  0
  -25.9930  -11.7310   20.4280 N   0  0  0  0  0  0  0  0  0  0  0  0
  -23.9920  -10.4800   20.9670 C   0  0  0  0  0  0  0  0  0  0  0  0
  -24.4190   -9.5220   21.9130 C   0  0  0  0  0  3  0  0  0  0  0  0
  -23.6970   -8.3210   22.0920 C   0  0  0  0  0  3  0  0  0  0  0  0
  -22.5350   -8.0710   21.3250 C   0  0  0  0  0  0  0  0  0  0  0  0
  -22.1260   -9.0180   20.3690 C   0  0  0  0  0  3  0  0  0  0  0  0
  -22.8480  -10.2090   20.1880 C   0  0  0  0  0  3  0  0  0  0  0  0
  -21.7860   -6.9220   21.4110 O   0  0  0  0  0  0  0  0  0  0  0  0
  -21.6870   -6.2140   22.5830 C   0  0  0  0  0  0  0  0  0  0  0  0
  -21.1900   -6.7980   23.7680 C   0  0  0  0  0  3  0  0  0  0  0  0
  -21.0410   -6.0160   24.9300 C   0  0  0  0  0  3  0  0  0  0  0  0
  -21.3790   -4.6490   24.9090 C   0  0  0  0  0  0  0  0  0  0  0  0
  -21.8680   -4.0630   23.7280 C   0  0  0  0  0  3  0  0  0  0  0  0
  -22.0200   -4.8430   22.5670 C   0  0  0  0  0  0  0  0  0  0  0  0
  -22.4720   -4.2690   21.4270 F   0  0  0  0  0  0  0  0  0  0  0  0
  -21.2270   -3.8960   26.0220 F   0  0  0  0  0  0  0  0  0  0  0  0
  -22.8390  -13.5610   21.1480 C   0  0  0  0  0  0  0  0  0  0  0  0
  -22.1340  -12.8560   22.0240 N   0  0  0  0  0  0  0  0  0  0  0  0
  -22.3860  -14.5870   20.6430 O   0  0  0  0  0  0  0  0  0  0  0  0
  -22.5120  -12.0240   22.4530 H   0  0  0  0  0  0  0  0  0  0  0  0
  -21.2000  -13.1530   22.2720 H   0  0  0  0  0  0  0  0  0  0  0  0
  -25.4240  -15.2640   20.3030 N   0  0  0  0  0  0  0  0  0  0  0  0
  -24.6560  -15.9070   20.4620 H   0  0  0  0  0  0  0  0  0  0  0  0
  -26.2600  -15.7230   19.9640 H   0  0  0  0  0  0  0  0  0  0  0  0
  -27.9900  -23.9660   20.1100 C   0  0  0  0  0  3  0  0  0  0  0  0
  -28.1760  -25.6700   20.2890 O   0  0  0  0  0  0  0  0  0  0  0  0
  -24.6760  -31.8400   23.2250 C   0  0  0  0  0  0  0  0  0  0  0  0
  -27.1930  -26.8400   20.2200 C   0  0  0  0  0  0  0  0  0  0  0  0
  -23.4830  -30.4510   21.5830 C   0  0  0  0  0  3  0  0  0  0  0  0
  -24.9250  -28.8230   20.1600 C   0  0  0  0  0  0  0  0  0  0  0  0
  -26.0560  -30.6170   21.4510 C   0  0  0  0  0  2  0  0  0  0  0  0
  -26.1180  -29.1930   20.7910 C   0  0  0  0  0  0  0  0  0  0  0  0
  -27.2410  -28.2270   20.7890 C   0  0  0  0  0  3  0  0  0  0  0  0
  -25.9690  -26.6550   19.5340 C   0  0  0  0  0  3  0  0  0  0  0  0
  -24.8840  -27.5770   19.5080 C   0  0  0  0  0  3  0  0  0  0  0  0
  -23.7160  -29.7650   20.2080 C   0  0  0  0  0  2  0  0  0  0  0  0
  -24.7620  -31.0000   22.1400 N   0  0  0  0  0  0  0  0  0  0  0  0
  -23.5860  -32.1360   23.7420 O   0  0  0  0  0  0  0  0  0  0  0  0
  -22.7740  -29.4650   22.5510 C   0  0  0  0  0  0  0  0  0  0  0  0
  -21.4420  -29.3100   22.4280 N   0  0  0  0  0  0  0  0  0  0  0  0
  -23.4320  -28.8370   23.3830 O   0  0  0  0  0  0  0  0  0  0  0  0
  -20.9610  -29.8680   21.7340 H   0  0  0  0  0  0  0  0  0  0  0  0
  -18.0530  -28.1070   22.9400 C   0  0  0  0  0  0  0  0  0  0  0  0
  -20.6150  -28.3730   23.1970 C   0  0  0  0  0  3  0  0  0  0  0  0
  -20.7140  -26.9420   22.6210 C   0  0  0  0  0  2  0  0  0  0  0  0
  -19.6100  -26.6220   21.6070 C   0  0  0  0  0  2  0  0  0  0  0  0
  -18.2300  -26.7620   22.2550 C   0  0  0  0  0  2  0  0  0  0  0  0
  -19.1720  -28.8700   23.3680 C   0  0  0  0  0  0  0  0  0  0  0  0
  -18.9510  -30.1260   23.9740 C   0  0  0  0  0  3  0  0  0  0  0  0
  -17.6440  -30.6190   24.1540 C   0  0  0  0  0  3  0  0  0  0  0  0
  -16.5410  -29.8550   23.7380 C   0  0  0  0  0  3  0  0  0  0  0  0
  -16.7460  -28.5990   23.1370 C   0  0  0  0  0  3  0  0  0  0  0  0
  -25.9450  -32.4840   23.8640 C   0  0  0  0  0  3  0  0  0  0  0  0
  -25.6280  -33.8850   24.2000 N   0  0  0  0  0  0  0  0  0  0  0  0
  -25.9460  -34.9490   23.4500 C   0  0  0  0  0  0  0  0  0  0  0  0
  -26.5980  -34.8530   22.4070 O   0  0  0  0  0  0  0  0  0  0  0  0
  -25.0450  -34.0310   25.0110 H   0  0  0  0  0  0  0  0  0  0  0  0
  -24.2030  -36.7460   23.1730 C   0  0  0  0  0  1  0  0  0  0  0  0
  -25.4750  -36.3380   23.9320 C   0  0  0  0  0  3  0  0  0  0  0  0
  -27.6270  -37.2420   24.6930 C   0  0  0  0  0  1  0  0  0  0  0  0
  -26.5000  -37.3930   23.7780 N   0  0  0  0  0  0  0  0  0  0  0  0
  -26.0950  -38.3150   23.9200 H   0  0  0  0  0  0  0  0  0  0  0  0
  -26.4410  -31.7210   25.1560 C   0  0  1  0  0  0  0  0  0  0  0  0
  -25.3350  -31.5000   26.2130 C   0  0  0  0  0  1  0  0  0  0  0  0
  -27.0220  -30.3360   24.7920 C   0  0  0  0  0  1  0  0  0  0  0  0
  -27.5880  -32.5150   25.8240 C   0  0  0  0  0  1  0  0  0  0  0  0
  2  4  1  0
  3  5  2  0
  3  6  1  0
  5  7  1  0
  6  2  2  0
  7  1  1  0
  7  4  2  0
  8  6  1  0
  9 14  1  0
 10 11  1  0
 10  9  1  0
 12 11  1  0
 12 19  1  0
 12 13  1  0
 14  8  1  0
 14 13  1  0
 15  8  2  0
 16 17  2  0
 17 36  1  0
 18 17  1  0
 18 21  1  0
 19 20  1  0
 19 16  1  0
 20 18  2  0
 21 22  1  0
 22 23  2  0
 24 27  1  0
 24 23  1  0
 25 24  2  0
 26 25  1  0
 26 21  2  0
 27 28  1  0
 28 29  1  0
 29 30  2  0
 31 30  1  0
 31 35  1  0
 32 31  2  0
 33 28  2  0
 33 32  1  0
 34 33  1  0
 36 37  1  0
 37 40  1  0
 37 39  1  0
 38 36  2  0
 41 16  1  0
 41 42  1  0
 43 41  1  0
 44 45  1  0
 44  1  2  0
 46 57  2  0
 47 45  1  0
 47 52  1  0
 48 56  1  0
 48 58  1  0
 49 55  1  0
 49 51  1  0
 50 56  1  0
 51 50  1  0
 52 51  2  0
 53 47  2  0
 54 53  1  0
 54 49  2  0
 55 48  1  0
 56 46  1  0
 58 60  2  0
 59 58  1  0
 61 59  1  0
 62 71  2  0
 62 67  1  0
 63 59  1  0
 63 67  1  0
 64 63  1  0
 65 66  1  0
 65 64  1  0
 66 62  1  0
 67 68  2  0
 68 69  1  0
 70 69  2  0
 71 70  1  0
 72 46  1  0
 72 73  1  0
 72 82  1  0
 73 76  1  0
 74 78  1  0
 74 73  1  0
 75 74  2  0
 78 77  1  0
 80 81  1  0
 80 78  1  0
 80 79  1  0
 82 85  1  1
 82 83  1  0
 84 82  1  0
M  ISO  4   6 100   8 100  44 101  45 101
M  END
>  <TORSDO>  (57) 
F 18

>  <SCORE>  (57) 
-16.308

>  <name>  (57) 
58

>  <ligand_id>  (57) 
58

>  <original_smiles>  (57) 
[H]c1c([H])c([H])c2c(c1[H])C([H])([H])C([H])([H])C([H])([H])C2([H])N([H])C(=O)C1([H])N(C(=O)C([H])(N([H])C(=O)C([H])(N([H])C([H])([H])[H])C([H])([H])[H])C(C([H])([H])[H])(C([H])([H])[H])C([H])([H])[H])C([H])([H])c2c([H])c(OC([H])([H])C([H])([H])c3c([H])c([H])c(C(=O)N4C([H])([H])C([H])([H])C([H])([H])C([H])(n5nc(-c6c([H])c([H])c(Oc7c([H])c([H])c(F)c([H])c7F)c([H])c6[H])c(C(=O)N([H])[H])c5N([H])[H])C4([H])[H])c([H])c3[H])c([H])c([H])c2C1([H])[H]

>  <smiles>  (57) 
[H]c1c([H])c([H])c2c(c1[H])C([H])([H])C([H])([H])C([H])([H])C2([H])N([H])C(=O)C1([H])N(C(=O)C([H])(N([H])C(=O)C([H])(N([H])C([H])([H])[H])C([H])([H])[H])C(C([H])([H])[H])(C([H])([H])[H])C([H])([H])[H])C([H])([H])c2c([H])c(OC([H])([H])C([H])([H])c3c([H])c([H])c(C(=O)N4C([H])([H])C([H])([H])C([H])([H])C([H])(n5nc(-c6c([H])c([H])c(Oc7c([H])c([H])c(F)c([H])c7F)c([H])c6[H])c(C(=O)N([H])[H])c5N([H])[H])C4([H])[H])c([H])c3[H])c([H])c([H])c2C1([H])[H]

$$$$
59:0:0
     RDKit          3D

 87 95  0  0  1  0  0  0  0  0999 V2000
  -27.2750  -22.4200   20.5120 C   0  0  0  0  0  2  0  0  0  0  0  0
  -26.9770  -23.8980   20.0720 C   0  0  0  0  0  2  0  0  0  0  0  0
  -29.3060  -23.6650   20.4930 C   0  0  0  0  0  2  0  0  0  0  0  0
  -28.7610  -22.1500   20.1880 C   0  0  0  0  0  3  0  0  0  0  0  0
  -28.1230  -24.7860   20.6180 C   0  0  0  0  0  3  0  0  0  0  0  0
  -29.4440  -20.7840   20.8030 C   0  0  0  0  0  0  0  0  0  0  0  0
  -30.2890  -20.9290   21.6890 O   0  0  0  0  0  0  0  0  0  0  0  0
  -29.1030  -19.2420   20.3500 C   0  0  0  0  0  3  0  0  0  0  0  0
  -30.1040  -17.9160   20.5950 C   0  0  0  0  0  3  0  0  0  0  0  0
  -29.5980  -16.3200   20.5790 C   0  0  0  0  0  2  0  0  0  0  0  0
  -30.5130  -14.9690   20.3210 C   0  0  0  0  0  0  0  0  0  0  0  0
  -30.4330  -12.6430   19.3210 C   0  0  0  0  0  2  0  0  0  0  0  0
  -29.4780  -12.6450   18.1000 C   0  0  0  0  0  2  0  0  0  0  0  0
  -28.0180  -12.4230   18.5430 C   0  0  0  0  0  2  0  0  0  0  0  0
  -27.6250  -13.3280   19.7390 C   0  0  0  0  0  3  0  0  0  0  0  0
  -28.6890  -13.2790   20.8550 C   0  0  0  0  0  2  0  0  0  0  0  0
  -29.9700  -13.6900   20.2700 N   0  0  0  0  0  0  0  0  0  0  0  0
  -31.7000  -15.0920   19.9950 O   0  0  0  0  0  0  0  0  0  0  0  0
  -25.2450  -13.9000   20.4990 C   0  0  0  0  0  0  0  0  0  0  0  0
  -24.1890  -13.1150   20.8760 C   0  0  0  0  0  0  0  0  0  0  0  0
  -24.6640  -11.7660   20.8380 C   0  0  0  0  0  0  0  0  0  0  0  0
  -26.2900  -13.0260   20.2450 N   0  0  0  0  0  0  0  0  0  0  0  0
  -25.9500  -11.7400   20.5170 N   0  0  0  0  0  0  0  0  0  0  0  0
  -23.9470  -10.4980   21.0300 C   0  0  0  0  0  0  0  0  0  0  0  0
  -24.3910   -9.5330   21.9600 C   0  0  0  0  0  3  0  0  0  0  0  0
  -23.6740   -8.3310   22.1390 C   0  0  0  0  0  3  0  0  0  0  0  0
  -22.4990   -8.0860   21.3880 C   0  0  0  0  0  0  0  0  0  0  0  0
  -22.0770   -9.0410   20.4460 C   0  0  0  0  0  3  0  0  0  0  0  0
  -22.7940  -10.2340   20.2650 C   0  0  0  0  0  3  0  0  0  0  0  0
  -21.7520   -6.9380   21.4780 O   0  0  0  0  0  0  0  0  0  0  0  0
  -21.7090   -6.1960   22.6310 C   0  0  0  0  0  0  0  0  0  0  0  0
  -21.2700   -6.7440   23.8560 C   0  0  0  0  0  3  0  0  0  0  0  0
  -21.1750   -5.9280   25.0000 C   0  0  0  0  0  3  0  0  0  0  0  0
  -21.5100   -4.5620   24.9210 C   0  0  0  0  0  0  0  0  0  0  0  0
  -21.9420   -4.0140   23.7020 C   0  0  0  0  0  3  0  0  0  0  0  0
  -22.0390   -4.8270   22.5600 C   0  0  0  0  0  0  0  0  0  0  0  0
  -22.4360   -4.2870   21.3820 F   0  0  0  0  0  0  0  0  0  0  0  0
  -21.4120   -3.7760   26.0190 F   0  0  0  0  0  0  0  0  0  0  0  0
  -22.7890  -13.5800   21.1580 C   0  0  0  0  0  0  0  0  0  0  0  0
  -22.0720  -12.8750   22.0240 N   0  0  0  0  0  0  0  0  0  0  0  0
  -22.3430  -14.6060   20.6470 O   0  0  0  0  0  0  0  0  0  0  0  0
  -22.4440  -12.0440   22.4580 H   0  0  0  0  0  0  0  0  0  0  0  0
  -21.1360  -13.1720   22.2600 H   0  0  0  0  0  0  0  0  0  0  0  0
  -25.4010  -15.2730   20.3290 N   0  0  0  0  0  0  0  0  0  0  0  0
  -24.6340  -15.9240   20.4580 H   0  0  0  0  0  0  0  0  0  0  0  0
  -26.2500  -15.7170   19.9990 H   0  0  0  0  0  0  0  0  0  0  0  0
  -28.2790  -26.2790   20.2210 O   0  0  0  0  0  0  0  0  0  0  0  0
  -24.6080  -31.9020   23.2400 C   0  0  0  0  0  0  0  0  0  0  0  0
  -27.1970  -27.2240   20.2130 C   0  0  0  0  0  0  0  0  0  0  0  0
  -23.4100  -30.5060   21.5980 C   0  0  0  0  0  3  0  0  0  0  0  0
  -24.8650  -28.9450   20.1720 C   0  0  0  0  0  0  0  0  0  0  0  0
  -25.9610  -30.7860   21.4330 C   0  0  0  0  0  2  0  0  0  0  0  0
  -26.0390  -29.3970   20.7860 C   0  0  0  0  0  0  0  0  0  0  0  0
  -27.2100  -28.5530   20.7890 C   0  0  0  0  0  3  0  0  0  0  0  0
  -26.0060  -26.8780   19.5420 C   0  0  0  0  0  3  0  0  0  0  0  0
  -24.8590  -27.6960   19.5360 C   0  0  0  0  0  3  0  0  0  0  0  0
  -23.6350  -29.8350   20.2170 C   0  0  0  0  0  2  0  0  0  0  0  0
  -24.6790  -31.0840   22.1460 N   0  0  0  0  0  0  0  0  0  0  0  0
  -23.5210  -32.1860   23.7680 O   0  0  0  0  0  0  0  0  0  0  0  0
  -22.7380  -29.4910   22.5560 C   0  0  0  0  0  0  0  0  0  0  0  0
  -21.4110  -29.3140   22.4250 N   0  0  0  0  0  0  0  0  0  0  0  0
  -23.4110  -28.8660   23.3790 O   0  0  0  0  0  0  0  0  0  0  0  0
  -20.9250  -29.8780   21.7420 H   0  0  0  0  0  0  0  0  0  0  0  0
  -18.0320  -28.1020   22.9080 C   0  0  0  0  0  0  0  0  0  0  0  0
  -20.5880  -28.3710   23.1880 C   0  0  0  0  0  3  0  0  0  0  0  0
  -20.6970  -26.9410   22.6090 C   0  0  0  0  0  2  0  0  0  0  0  0
  -19.5990  -26.6170   21.5910 C   0  0  0  0  0  2  0  0  0  0  0  0
  -18.2130  -26.7550   22.2300 C   0  0  0  0  0  2  0  0  0  0  0  0
  -19.1470  -28.8680   23.3420 C   0  0  0  0  0  0  0  0  0  0  0  0
  -18.9230  -30.1280   23.9370 C   0  0  0  0  0  3  0  0  0  0  0  0
  -17.6160  -30.6230   24.1050 C   0  0  0  0  0  3  0  0  0  0  0  0
  -16.5140  -29.8560   23.6870 C   0  0  0  0  0  3  0  0  0  0  0  0
  -16.7240  -28.5980   23.0940 C   0  0  0  0  0  3  0  0  0  0  0  0
  -25.8860  -32.5370   23.8670 C   0  0  0  0  0  3  0  0  0  0  0  0
  -26.3920  -31.7720   25.1510 C   0  0  1  0  0  0  0  0  0  0  0  0
  -25.2920  -31.5420   26.2130 C   0  0  0  0  0  1  0  0  0  0  0  0
  -26.9770  -30.3920   24.7710 C   0  0  0  0  0  1  0  0  0  0  0  0
  -27.5390  -32.5680   25.8180 C   0  0  0  0  0  1  0  0  0  0  0  0
  -25.5770  -33.9380   24.1930 N   0  0  0  0  0  0  0  0  0  0  0  0
  -25.9060  -34.9900   23.4320 C   0  0  0  0  0  0  0  0  0  0  0  0
  -26.5710  -34.8850   22.3980 O   0  0  0  0  0  0  0  0  0  0  0  0
  -24.9920  -34.0980   25.0000 H   0  0  0  0  0  0  0  0  0  0  0  0
  -24.1810  -36.7880   23.0780 C   0  0  0  0  0  1  0  0  0  0  0  0
  -25.4210  -36.3820   23.8880 C   0  0  0  0  0  3  0  0  0  0  0  0
  -27.5560  -37.2680   24.7180 C   0  0  0  0  0  1  0  0  0  0  0  0
  -26.4550  -37.4330   23.7720 N   0  0  0  0  0  0  0  0  0  0  0  0
  -26.0490  -38.3540   23.9180 H   0  0  0  0  0  0  0  0  0  0  0  0
  2  1  1  0
  2  5  1  0
  3  5  1  0
  4  3  1  0
  4  1  1  0
  4  6  1  0
  5 47  1  0
  6  7  2  0
  8  9  2  0
  8  6  1  0
 10  9  1  0
 11 10  1  0
 12 17  1  0
 13 14  1  0
 13 12  1  0
 15 14  1  0
 15 22  1  0
 15 16  1  0
 17 11  1  0
 17 16  1  0
 18 11  2  0
 19 20  2  0
 20 39  1  0
 21 20  1  0
 21 24  1  0
 22 19  1  0
 22 23  1  0
 23 21  2  0
 24 25  1  0
 25 26  2  0
 27 30  1  0
 27 26  1  0
 28 27  2  0
 29 28  1  0
 29 24  2  0
 30 31  1  0
 31 32  1  0
 32 33  2  0
 34 33  1  0
 34 38  1  0
 35 34  2  0
 36 31  2  0
 36 35  1  0
 37 36  1  0
 39 40  1  0
 40 43  1  0
 40 42  1  0
 41 39  2  0
 44 45  1  0
 44 19  1  0
 46 44  1  0
 48 59  2  0
 49 47  1  0
 49 54  1  0
 50 58  1  0
 50 60  1  0
 51 57  1  0
 51 53  1  0
 52 58  1  0
 53 54  2  0
 53 52  1  0
 55 49  2  0
 56 55  1  0
 56 51  2  0
 57 50  1  0
 58 48  1  0
 60 62  2  0
 61 60  1  0
 63 61  1  0
 64 73  2  0
 64 69  1  0
 65 61  1  0
 65 69  1  0
 66 65  1  0
 67 68  1  0
 67 66  1  0
 68 64  1  0
 69 70  2  0
 70 71  1  0
 72 71  2  0
 73 72  1  0
 74 48  1  0
 74 79  1  0
 74 75  1  0
 75 78  1  1
 75 76  1  0
 77 75  1  0
 79 82  1  0
 80 84  1  0
 80 79  1  0
 81 80  2  0
 84 83  1  0
 86 84  1  0
 86 87  1  0
 86 85  1  0
M  ISO  4   5 101  10 100  11 100  47 101
M  END
>  <TORSDO>  (58) 
F 20

>  <SCORE>  (58) 
-13.832

>  <name>  (58) 
59

>  <ligand_id>  (58) 
59

>  <original_smiles>  (58) 
[H]c1c([H])c([H])c2c(c1[H])C([H])([H])C([H])([H])C([H])([H])C2([H])N([H])C(=O)C1([H])N(C(=O)C([H])(N([H])C(=O)C([H])(N([H])C([H])([H])[H])C([H])([H])[H])C(C([H])([H])[H])(C([H])([H])[H])C([H])([H])[H])C([H])([H])c2c([H])c(OC3([H])C([H])([H])C([H])([H])C([H])(C(=O)C([H])([H])C([H])([H])C([H])([H])C(=O)N4C([H])([H])C([H])([H])C([H])([H])C([H])(n5nc(-c6c([H])c([H])c(Oc7c([H])c([H])c(F)c([H])c7F)c([H])c6[H])c(C(=O)N([H])[H])c5N([H])[H])C4([H])[H])C3([H])[H])c([H])c([H])c2C1([H])[H]

>  <smiles>  (58) 
[H]c1c([H])c([H])c2c(c1[H])C([H])([H])C([H])([H])C([H])([H])C2([H])N([H])C(=O)C1([H])N(C(=O)C([H])(N([H])C(=O)C([H])(N([H])C([H])([H])[H])C([H])([H])[H])C(C([H])([H])[H])(C([H])([H])[H])C([H])([H])[H])C([H])([H])c2c([H])c(OC3([H])C([H])([H])C([H])([H])C([H])(C(=O)C([H])([H])C([H])([H])C([H])([H])C(=O)N4C([H])([H])C([H])([H])C([H])([H])C([H])(n5nc(-c6c([H])c([H])c(Oc7c([H])c([H])c(F)c([H])c7F)c([H])c6[H])c(C(=O)N([H])[H])c5N([H])[H])C4([H])[H])C3([H])[H])c([H])c([H])c2C1([H])[H]

$$$$
60:0:0
     RDKit          3D

 84 91  0  0  1  0  0  0  0  0999 V2000
  -28.9630  -22.2410   20.2970 C   0  0  0  0  0  3  0  0  0  0  0  0
  -28.7320  -20.3300   20.2530 C   0  0  0  0  0  2  0  0  0  0  0  0
  -30.7870  -18.9710   21.4170 C   0  0  0  0  0  1  0  0  0  0  0  0
  -29.7920  -18.7280   20.2760 C   0  0  0  0  0  0  0  0  0  0  0  0
  -30.3110  -15.6260   20.1850 C   0  0  0  0  0  0  0  0  0  0  0  0
  -30.3880  -13.1080   19.3380 C   0  0  0  0  0  2  0  0  0  0  0  0
  -29.4810  -12.7380   18.1310 C   0  0  0  0  0  2  0  0  0  0  0  0
  -28.0600  -12.3890   18.5980 C   0  0  0  0  0  2  0  0  0  0  0  0
  -27.5650  -13.3740   19.6830 C   0  0  0  0  0  3  0  0  0  0  0  0
  -28.6090  -13.6620   20.7850 C   0  0  0  0  0  2  0  0  0  0  0  0
  -29.7790  -14.2730   20.1170 N   0  0  0  0  0  0  0  0  0  0  0  0
  -31.5410  -15.5740   20.0010 O   0  0  0  0  0  0  0  0  0  0  0  0
  -29.5580  -16.9780   20.2680 N   0  0  0  0  0  4  0  0  0  0  0  0
  -28.5700  -16.7720   20.3430 H   0  0  0  0  0  0  0  0  0  0  0  0
  -25.2030  -13.8800   20.4720 C   0  0  0  0  0  0  0  0  0  0  0  0
  -24.1580  -13.0850   20.8480 C   0  0  0  0  0  0  0  0  0  0  0  0
  -24.6470  -11.7430   20.8110 C   0  0  0  0  0  0  0  0  0  0  0  0
  -26.2560  -13.0220   20.2160 N   0  0  0  0  0  0  0  0  0  0  0  0
  -25.9370  -11.7300   20.4870 N   0  0  0  0  0  0  0  0  0  0  0  0
  -23.9370  -10.4700   21.0030 C   0  0  0  0  0  0  0  0  0  0  0  0
  -24.3790   -9.5100   21.9410 C   0  0  0  0  0  3  0  0  0  0  0  0
  -23.6650   -8.3060   22.1240 C   0  0  0  0  0  3  0  0  0  0  0  0
  -22.4950   -8.0520   21.3690 C   0  0  0  0  0  0  0  0  0  0  0  0
  -22.0730   -9.0010   20.4210 C   0  0  0  0  0  3  0  0  0  0  0  0
  -22.7870  -10.1960   20.2360 C   0  0  0  0  0  3  0  0  0  0  0  0
  -21.7520   -6.9010   21.4620 O   0  0  0  0  0  0  0  0  0  0  0  0
  -21.7000   -6.1680   22.6210 C   0  0  0  0  0  0  0  0  0  0  0  0
  -21.2460   -6.7270   23.8350 C   0  0  0  0  0  3  0  0  0  0  0  0
  -21.1420   -5.9200   24.9860 C   0  0  0  0  0  3  0  0  0  0  0  0
  -21.4830   -4.5570   24.9230 C   0  0  0  0  0  0  0  0  0  0  0  0
  -21.9310   -3.9970   23.7140 C   0  0  0  0  0  3  0  0  0  0  0  0
  -22.0360   -4.8010   22.5650 C   0  0  0  0  0  0  0  0  0  0  0  0
  -22.4470   -4.2510   21.3970 F   0  0  0  0  0  0  0  0  0  0  0  0
  -21.3770   -3.7800   26.0280 F   0  0  0  0  0  0  0  0  0  0  0  0
  -22.7570  -13.5430   21.1230 C   0  0  0  0  0  0  0  0  0  0  0  0
  -22.0450  -12.8450   22.0000 N   0  0  0  0  0  0  0  0  0  0  0  0
  -22.3010  -14.5570   20.5960 O   0  0  0  0  0  0  0  0  0  0  0  0
  -22.4280  -12.0240   22.4480 H   0  0  0  0  0  0  0  0  0  0  0  0
  -21.1040  -13.1330   22.2280 H   0  0  0  0  0  0  0  0  0  0  0  0
  -25.3410  -15.2530   20.2930 N   0  0  0  0  0  0  0  0  0  0  0  0
  -24.5600  -15.8910   20.4070 H   0  0  0  0  0  0  0  0  0  0  0  0
  -26.1690  -15.7030   19.9260 H   0  0  0  0  0  0  0  0  0  0  0  0
  -27.9640  -23.8850   20.2090 C   0  0  0  0  0  3  0  0  0  0  0  0
  -28.1630  -25.6150   20.3100 O   0  0  0  0  0  0  0  0  0  0  0  0
  -24.6740  -31.8780   23.2110 C   0  0  0  0  0  0  0  0  0  0  0  0
  -27.1850  -26.8070   20.2510 C   0  0  0  0  0  0  0  0  0  0  0  0
  -23.4790  -30.4780   21.5820 C   0  0  0  0  0  3  0  0  0  0  0  0
  -24.9200  -28.8210   20.1790 C   0  0  0  0  0  0  0  0  0  0  0  0
  -26.0570  -30.6190   21.4560 C   0  0  0  0  0  2  0  0  0  0  0  0
  -26.1150  -29.1860   20.8090 C   0  0  0  0  0  0  0  0  0  0  0  0
  -27.2350  -28.2060   20.8110 C   0  0  0  0  0  3  0  0  0  0  0  0
  -25.9550  -26.6400   19.5680 C   0  0  0  0  0  3  0  0  0  0  0  0
  -24.8750  -27.5720   19.5350 C   0  0  0  0  0  3  0  0  0  0  0  0
  -23.7160  -29.7730   20.2150 C   0  0  0  0  0  2  0  0  0  0  0  0
  -24.7610  -31.0240   22.1350 N   0  0  0  0  0  0  0  0  0  0  0  0
  -23.5830  -32.1840   23.7210 O   0  0  0  0  0  0  0  0  0  0  0  0
  -22.7610  -29.5060   22.5560 C   0  0  0  0  0  0  0  0  0  0  0  0
  -21.4270  -29.3610   22.4340 N   0  0  0  0  0  0  0  0  0  0  0  0
  -23.4140  -28.8810   23.3950 O   0  0  0  0  0  0  0  0  0  0  0  0
  -20.9510  -29.9160   21.7370 H   0  0  0  0  0  0  0  0  0  0  0  0
  -18.0320  -28.1790   22.9550 C   0  0  0  0  0  0  0  0  0  0  0  0
  -20.5940  -28.4350   23.2120 C   0  0  0  0  0  3  0  0  0  0  0  0
  -20.6850  -26.9980   22.6460 C   0  0  0  0  0  2  0  0  0  0  0  0
  -19.5810  -26.6760   21.6340 C   0  0  0  0  0  2  0  0  0  0  0  0
  -18.2010  -26.8280   22.2800 C   0  0  0  0  0  2  0  0  0  0  0  0
  -19.1540  -28.9400   23.3780 C   0  0  0  0  0  0  0  0  0  0  0  0
  -18.9390  -30.2020   23.9750 C   0  0  0  0  0  3  0  0  0  0  0  0
  -17.6350  -30.7020   24.1490 C   0  0  0  0  0  3  0  0  0  0  0  0
  -16.5270  -29.9390   23.7390 C   0  0  0  0  0  3  0  0  0  0  0  0
  -16.7270  -28.6800   23.1480 C   0  0  0  0  0  3  0  0  0  0  0  0
  -25.9410  -32.5240   23.8500 C   0  0  0  0  0  3  0  0  0  0  0  0
  -26.4430  -31.7590   25.1370 C   0  0  1  0  0  0  0  0  0  0  0  0
  -25.3400  -31.5350   26.2010 C   0  0  0  0  0  1  0  0  0  0  0  0
  -27.0220  -30.3750   24.7720 C   0  0  0  0  0  1  0  0  0  0  0  0
  -27.5920  -32.5520   25.8030 C   0  0  0  0  0  1  0  0  0  0  0  0
  -25.6210  -33.9230   24.1920 N   0  0  0  0  0  0  0  0  0  0  0  0
  -25.9270  -34.9900   23.4420 C   0  0  0  0  0  0  0  0  0  0  0  0
  -26.5660  -34.9020   22.3900 O   0  0  0  0  0  0  0  0  0  0  0  0
  -25.0470  -34.0640   25.0100 H   0  0  0  0  0  0  0  0  0  0  0  0
  -24.1680  -36.7780   23.1890 C   0  0  0  0  0  1  0  0  0  0  0  0
  -25.4520  -36.3760   23.9310 C   0  0  0  0  0  3  0  0  0  0  0  0
  -27.6160  -37.2850   24.6580 C   0  0  0  0  0  1  0  0  0  0  0  0
  -26.4680  -37.4400   23.7700 N   0  0  0  0  0  0  0  0  0  0  0  0
  -26.0600  -38.3560   23.9350 H   0  0  0  0  0  0  0  0  0  0  0  0
  2  4  1  0
  2  1  1  0
  4  3  1  0
  5 13  1  0
  6 11  1  0
  7  8  1  0
  7  6  1  0
  9  8  1  0
  9 18  1  0
  9 10  1  0
 11  5  1  0
 11 10  1  0
 12  5  2  0
 13  4  2  0
 13 14  1  0
 15 16  2  0
 16 35  1  0
 17 16  1  0
 17 20  1  0
 18 15  1  0
 18 19  1  0
 19 17  2  0
 20 21  1  0
 21 22  2  0
 23 26  1  0
 23 22  1  0
 24 23  2  0
 25 24  1  0
 25 20  2  0
 26 27  1  0
 27 28  1  0
 28 29  2  0
 30 29  1  0
 30 34  1  0
 31 30  2  0
 32 27  2  0
 32 31  1  0
 33 32  1  0
 35 36  1  0
 36 39  1  0
 36 38  1  0
 37 35  2  0
 40 41  1  0
 40 15  1  0
 42 40  1  0
 43  1  2  0
 43 44  1  0
 45 56  2  0
 46 44  1  0
 46 51  1  0
 47 55  1  0
 47 57  1  0
 48 54  1  0
 48 50  1  0
 49 55  1  0
 50 51  2  0
 50 49  1  0
 52 46  2  0
 53 52  1  0
 53 48  2  0
 54 47  1  0
 55 45  1  0
 57 59  2  0
 58 57  1  0
 60 58  1  0
 61 70  2  0
 61 66  1  0
 62 58  1  0
 62 66  1  0
 63 62  1  0
 64 65  1  0
 64 63  1  0
 65 61  1  0
 66 67  2  0
 67 68  1  0
 69 68  2  0
 70 69  1  0
 71 45  1  0
 71 76  1  0
 71 72  1  0
 72 75  1  1
 72 73  1  0
 74 72  1  0
 76 79  1  0
 77 81  1  0
 77 76  1  0
 78 77  2  0
 81 80  1  0
 83 81  1  0
 83 84  1  0
 83 82  1  0
M  ISO  4   5 100  13 100  43 101  44 101
M  END
>  <TORSDO>  (59) 
F 19

>  <SCORE>  (59) 
-16.387

>  <name>  (59) 
60

>  <ligand_id>  (59) 
60

>  <original_smiles>  (59) 
[H]c1c([H])c([H])c2c(c1[H])C([H])([H])C([H])([H])C([H])([H])C2([H])N([H])C(=O)C1([H])N(C(=O)C([H])(N([H])C(=O)C([H])(N([H])C([H])([H])[H])C([H])([H])[H])C(C([H])([H])[H])(C([H])([H])[H])C([H])([H])[H])C([H])([H])c2c([H])c(OC([H])([H])C([H])([H])C([H])([H])C([H])(N([H])C(=O)N3C([H])([H])C([H])([H])C([H])([H])C([H])(n4nc(-c5c([H])c([H])c(Oc6c([H])c([H])c(F)c([H])c6F)c([H])c5[H])c(C(=O)N([H])[H])c4N([H])[H])C3([H])[H])C([H])([H])[H])c([H])c([H])c2C1([H])[H]

>  <smiles>  (59) 
[H]c1c([H])c([H])c2c(c1[H])C([H])([H])C([H])([H])C([H])([H])C2([H])N([H])C(=O)C1([H])N(C(=O)C([H])(N([H])C(=O)C([H])(N([H])C([H])([H])[H])C([H])([H])[H])C(C([H])([H])[H])(C([H])([H])[H])C([H])([H])[H])C([H])([H])c2c([H])c(OC([H])([H])C([H])([H])C([H])([H])C([H])(N([H])C(=O)N3C([H])([H])C([H])([H])C([H])([H])C([H])(n4nc(-c5c([H])c([H])c(Oc6c([H])c([H])c(F)c([H])c6F)c([H])c5[H])c(C(=O)N([H])[H])c4N([H])[H])C3([H])[H])C([H])([H])[H])c([H])c([H])c2C1([H])[H]

$$$$
61:0:0
     RDKit          3D

 89 97  0  0  1  0  0  0  0  0999 V2000
  -28.5180  -21.8450   19.4040 C   0  0  0  0  0  2  0  0  0  0  0  0
  -29.3890  -20.8490   20.2910 C   0  0  0  0  0  3  0  0  0  0  0  0
  -28.8520  -23.1690   20.2450 C   0  0  0  0  0  3  0  0  0  0  0  0
  -29.0560  -22.0180   21.3560 C   0  0  0  0  0  3  0  0  0  0  0  0
  -28.9890  -19.2400   20.5080 C   0  0  0  0  0  0  0  0  0  0  0  0
  -27.8630  -18.9400   20.9110 O   0  0  0  0  0  0  0  0  0  0  0  0
  -29.9760  -17.9270   20.2420 C   0  0  0  0  0  3  0  0  0  0  0  0
  -29.5680  -16.3180   20.6060 C   0  0  0  0  0  3  0  0  0  0  0  0
  -30.4010  -14.9240   20.2240 C   0  0  0  0  0  0  0  0  0  0  0  0
  -30.2990  -12.5670   19.2590 C   0  0  0  0  0  2  0  0  0  0  0  0
  -29.3280  -12.5420   18.0520 C   0  0  0  0  0  2  0  0  0  0  0  0
  -27.8780  -12.3100   18.5210 C   0  0  0  0  0  2  0  0  0  0  0  0
  -27.4990  -13.2170   19.7200 C   0  0  0  0  0  3  0  0  0  0  0  0
  -28.5870  -13.2180   20.8160 C   0  0  0  0  0  2  0  0  0  0  0  0
  -29.8470  -13.6420   20.1930 N   0  0  0  0  0  0  0  0  0  0  0  0
  -31.5730  -15.0180   19.8440 O   0  0  0  0  0  0  0  0  0  0  0  0
  -25.1420  -13.7700   20.5500 C   0  0  0  0  0  0  0  0  0  0  0  0
  -24.0910  -12.9830   20.9320 C   0  0  0  0  0  0  0  0  0  0  0  0
  -24.5560  -11.6340   20.8530 C   0  0  0  0  0  0  0  0  0  0  0  0
  -26.1790  -12.9010   20.2540 N   0  0  0  0  0  0  0  0  0  0  0  0
  -25.8380  -11.6090   20.5010 N   0  0  0  0  0  0  0  0  0  0  0  0
  -23.8370  -10.3660   21.0350 C   0  0  0  0  0  0  0  0  0  0  0  0
  -24.2720   -9.3950   21.9650 C   0  0  0  0  0  3  0  0  0  0  0  0
  -23.5520   -8.1940   22.1350 C   0  0  0  0  0  3  0  0  0  0  0  0
  -22.3810   -7.9540   21.3770 C   0  0  0  0  0  0  0  0  0  0  0  0
  -21.9650   -8.9130   20.4370 C   0  0  0  0  0  3  0  0  0  0  0  0
  -22.6860  -10.1070   20.2640 C   0  0  0  0  0  3  0  0  0  0  0  0
  -21.6320   -6.8050   21.4570 O   0  0  0  0  0  0  0  0  0  0  0  0
  -21.5530   -6.0770   22.6180 C   0  0  0  0  0  0  0  0  0  0  0  0
  -21.0660   -6.6380   23.8180 C   0  0  0  0  0  3  0  0  0  0  0  0
  -20.9370   -5.8350   24.9690 C   0  0  0  0  0  3  0  0  0  0  0  0
  -21.2840   -4.4720   24.9200 C   0  0  0  0  0  0  0  0  0  0  0  0
  -21.7650   -3.9100   23.7240 C   0  0  0  0  0  3  0  0  0  0  0  0
  -21.8960   -4.7090   22.5750 C   0  0  0  0  0  0  0  0  0  0  0  0
  -22.3390   -4.1580   21.4200 F   0  0  0  0  0  0  0  0  0  0  0  0
  -21.1520   -3.6980   26.0230 F   0  0  0  0  0  0  0  0  0  0  0  0
  -22.7020  -13.4500   21.2590 C   0  0  0  0  0  0  0  0  0  0  0  0
  -22.0030  -12.7340   22.1310 N   0  0  0  0  0  0  0  0  0  0  0  0
  -22.2470  -14.4860   20.7760 O   0  0  0  0  0  0  0  0  0  0  0  0
  -22.3850  -11.8950   22.5430 H   0  0  0  0  0  0  0  0  0  0  0  0
  -21.0750  -13.0300   22.3940 H   0  0  0  0  0  0  0  0  0  0  0  0
  -25.2950  -15.1450   20.4040 N   0  0  0  0  0  0  0  0  0  0  0  0
  -24.5310  -15.7920   20.5600 H   0  0  0  0  0  0  0  0  0  0  0  0
  -26.1410  -15.6020   20.0860 H   0  0  0  0  0  0  0  0  0  0  0  0
  -30.0540  -22.3050   22.4800 C   0  0  0  0  0  2  0  0  0  0  0  0
  -31.3850  -21.4210   24.4720 C   0  0  0  0  0  1  0  0  0  0  0  0
  -30.3800  -21.0880   23.3600 C   0  0  0  0  0  2  0  0  0  0  0  0
  -27.8510  -24.5410   20.2890 C   0  0  0  0  0  2  0  0  0  0  0  0
  -28.1680  -26.0790   20.3260 O   0  0  0  0  0  0  0  0  0  0  0  0
  -24.5870  -31.8700   23.2310 C   0  0  0  0  0  0  0  0  0  0  0  0
  -27.1240  -27.0850   20.2560 C   0  0  0  0  0  0  0  0  0  0  0  0
  -23.3790  -30.4710   21.6030 C   0  0  0  0  0  3  0  0  0  0  0  0
  -24.8170  -28.8720   20.1980 C   0  0  0  0  0  0  0  0  0  0  0  0
  -25.9400  -30.7050   21.4440 C   0  0  0  0  0  2  0  0  0  0  0  0
  -26.0010  -29.3060   20.8050 C   0  0  0  0  0  0  0  0  0  0  0  0
  -27.1560  -28.4300   20.8130 C   0  0  0  0  0  3  0  0  0  0  0  0
  -25.9090  -26.7620   19.6080 C   0  0  0  0  0  3  0  0  0  0  0  0
  -24.7850  -27.6140   19.5830 C   0  0  0  0  0  3  0  0  0  0  0  0
  -23.5990  -29.7840   20.2300 C   0  0  0  0  0  2  0  0  0  0  0  0
  -24.6560  -31.0370   22.1480 N   0  0  0  0  0  0  0  0  0  0  0  0
  -23.5020  -32.1700   23.7530 O   0  0  0  0  0  0  0  0  0  0  0  0
  -22.6870  -29.4790   22.5700 C   0  0  0  0  0  0  0  0  0  0  0  0
  -21.3570  -29.3220   22.4430 N   0  0  0  0  0  0  0  0  0  0  0  0
  -23.3500  -28.8520   23.4010 O   0  0  0  0  0  0  0  0  0  0  0  0
  -20.8800  -29.8770   21.7480 H   0  0  0  0  0  0  0  0  0  0  0  0
  -17.9600  -28.1740   22.9650 C   0  0  0  0  0  0  0  0  0  0  0  0
  -20.5240  -28.4000   23.2210 C   0  0  0  0  0  3  0  0  0  0  0  0
  -20.6020  -26.9630   22.6550 C   0  0  0  0  0  2  0  0  0  0  0  0
  -19.4920  -26.6510   21.6460 C   0  0  0  0  0  2  0  0  0  0  0  0
  -18.1140  -26.8200   22.2930 C   0  0  0  0  0  2  0  0  0  0  0  0
  -19.0920  -28.9230   23.3860 C   0  0  0  0  0  0  0  0  0  0  0  0
  -18.8930  -30.1890   23.9770 C   0  0  0  0  0  3  0  0  0  0  0  0
  -17.5960  -30.7090   24.1480 C   0  0  0  0  0  3  0  0  0  0  0  0
  -16.4790  -29.9570   23.7430 C   0  0  0  0  0  3  0  0  0  0  0  0
  -16.6620  -28.6920   23.1580 C   0  0  0  0  0  3  0  0  0  0  0  0
  -25.8690  -32.5010   23.8550 C   0  0  0  0  0  3  0  0  0  0  0  0
  -25.5630  -33.9020   24.1870 N   0  0  0  0  0  0  0  0  0  0  0  0
  -25.8820  -34.9560   23.4240 C   0  0  0  0  0  0  0  0  0  0  0  0
  -26.5310  -34.8520   22.3800 O   0  0  0  0  0  0  0  0  0  0  0  0
  -24.9900  -34.0580   25.0040 H   0  0  0  0  0  0  0  0  0  0  0  0
  -24.1440  -36.7490   23.1120 C   0  0  0  0  0  1  0  0  0  0  0  0
  -25.4060  -36.3460   23.8920 C   0  0  0  0  0  3  0  0  0  0  0  0
  -27.5570  -37.2350   24.6730 C   0  0  0  0  0  1  0  0  0  0  0  0
  -26.4340  -37.4000   23.7540 N   0  0  0  0  0  0  0  0  0  0  0  0
  -26.0300  -38.3180   23.9120 H   0  0  0  0  0  0  0  0  0  0  0  0
  -26.3780  -31.7330   25.1380 C   0  0  1  0  0  0  0  0  0  0  0  0
  -25.2800  -31.5010   26.2010 C   0  0  0  0  0  1  0  0  0  0  0  0
  -26.9610  -30.3530   24.7570 C   0  0  0  0  0  1  0  0  0  0  0  0
  -27.5270  -32.5290   25.8020 C   0  0  0  0  0  1  0  0  0  0  0  0
  1  3  1  0
  1  2  1  0
  2  5  1  0
  2  4  1  0
  3 48  1  0
  3  4  1  0
  4 45  1  0
  5  6  2  0
  7  5  1  0
  7  8  2  0
  9  8  1  0
 10 15  1  0
 11 12  1  0
 11 10  1  0
 13 12  1  0
 13 20  1  0
 13 14  1  0
 15  9  1  0
 15 14  1  0
 16  9  2  0
 17 18  2  0
 18 37  1  0
 19 18  1  0
 19 22  1  0
 20 21  1  0
 20 17  1  0
 21 19  2  0
 22 23  1  0
 23 24  2  0
 25 28  1  0
 25 24  1  0
 26 25  2  0
 27 26  1  0
 27 22  2  0
 28 29  1  0
 29 30  1  0
 30 31  2  0
 32 31  1  0
 32 36  1  0
 33 32  2  0
 34 29  2  0
 34 33  1  0
 35 34  1  0
 37 38  1  0
 38 41  1  0
 38 40  1  0
 39 37  2  0
 42 17  1  0
 42 43  1  0
 44 42  1  0
 45 47  1  0
 47 46  1  0
 48 49  1  0
 50 61  2  0
 51 49  1  0
 51 56  1  0
 52 60  1  0
 52 62  1  0
 53 59  1  0
 53 55  1  0
 54 60  1  0
 55 56  2  0
 55 54  1  0
 57 51  2  0
 58 57  1  0
 58 53  2  0
 59 52  1  0
 60 50  1  0
 62 64  2  0
 63 62  1  0
 65 63  1  0
 66 75  2  0
 66 71  1  0
 67 63  1  0
 67 71  1  0
 68 67  1  0
 69 70  1  0
 69 68  1  0
 70 66  1  0
 71 72  2  0
 72 73  1  0
 74 73  2  0
 75 74  1  0
 76 50  1  0
 76 77  1  0
 76 86  1  0
 77 80  1  0
 78 82  1  0
 78 77  1  0
 79 78  2  0
 82 81  1  0
 84 82  1  0
 84 85  1  0
 84 83  1  0
 86 89  1  1
 86 87  1  0
 88 86  1  0
M  ISO  4   8 100   9 100  48 101  49 101
M  END
>  <TORSDO>  (60) 
F 22

>  <SCORE>  (60) 
-14.557

>  <name>  (60) 
61

>  <ligand_id>  (60) 
61

>  <original_smiles>  (60) 
[H]c1c([H])c([H])c2c(c1[H])C([H])([H])C([H])([H])C([H])([H])C2([H])N([H])C(=O)C1([H])N(C(=O)C([H])(N([H])C(=O)C([H])(N([H])C([H])([H])[H])C([H])([H])[H])C(C([H])([H])[H])(C([H])([H])[H])C([H])([H])[H])C([H])([H])c2c([H])c(OC([H])([H])C3([H])C([H])([H])C([H])(C(=O)C([H])([H])C([H])([H])C(=O)N4C([H])([H])C([H])([H])C([H])([H])C([H])(n5nc(-c6c([H])c([H])c(Oc7c([H])c([H])c(F)c([H])c7F)c([H])c6[H])c(C(=O)N([H])[H])c5N([H])[H])C4([H])[H])C3([H])C([H])([H])C([H])([H])C([H])([H])[H])c([H])c([H])c2C1([H])[H]

>  <smiles>  (60) 
[H]c1c([H])c([H])c2c(c1[H])C([H])([H])C([H])([H])C([H])([H])C2([H])N([H])C(=O)C1([H])N(C(=O)C([H])(N([H])C(=O)C([H])(N([H])C([H])([H])[H])C([H])([H])[H])C(C([H])([H])[H])(C([H])([H])[H])C([H])([H])[H])C([H])([H])c2c([H])c(OC([H])([H])C3([H])C([H])([H])C([H])(C(=O)C([H])([H])C([H])([H])C(=O)N4C([H])([H])C([H])([H])C([H])([H])C([H])(n5nc(-c6c([H])c([H])c(Oc7c([H])c([H])c(F)c([H])c7F)c([H])c6[H])c(C(=O)N([H])[H])c5N([H])[H])C4([H])[H])C3([H])C([H])([H])C([H])([H])C([H])([H])[H])c([H])c([H])c2C1([H])[H]

$$$$
62:0:0
     RDKit          3D

 87 94  0  0  1  0  0  0  0  0999 V2000
  -29.4710  -23.7040   22.0960 C   0  0  0  0  0  1  0  0  0  0  0  0
  -29.1490  -23.5990   20.5920 C   0  0  0  0  0  3  0  0  0  0  0  0
  -27.3740  -21.6470   20.7370 C   0  0  0  0  0  1  0  0  0  0  0  0
  -28.7840  -21.9960   20.2240 C   0  0  0  0  0  3  0  0  0  0  0  0
  -29.7920  -20.6980   20.5550 C   0  0  0  0  0  2  0  0  0  0  0  0
  -29.3920  -19.0780   20.3920 C   0  0  0  0  0  3  0  0  0  0  0  0
  -30.4740  -17.8090   20.5150 C   0  0  0  0  0  3  0  0  0  0  0  0
  -30.8520  -15.1090   20.3890 C   0  0  0  0  0  0  0  0  0  0  0  0
  -30.7420  -12.7500   19.4820 C   0  0  0  0  0  2  0  0  0  0  0  0
  -29.8390  -12.6760   18.2280 C   0  0  0  0  0  2  0  0  0  0  0  0
  -28.3620  -12.4910   18.6220 C   0  0  0  0  0  2  0  0  0  0  0  0
  -27.9300  -13.4460   19.7660 C   0  0  0  0  0  3  0  0  0  0  0  0
  -28.9530  -13.4800   20.9210 C   0  0  0  0  0  2  0  0  0  0  0  0
  -30.2460  -13.8610   20.3400 N   0  0  0  0  0  0  0  0  0  0  0  0
  -32.0570  -15.1750   20.1190 O   0  0  0  0  0  0  0  0  0  0  0  0
  -30.0820  -16.2880   20.5440 N   0  0  0  0  0  0  0  0  0  0  0  0
  -29.1020  -16.1080   20.7030 H   0  0  0  0  0  0  0  0  0  0  0  0
  -25.5370  -14.0450   20.4470 C   0  0  0  0  0  0  0  0  0  0  0  0
  -24.4600  -13.2790   20.8020 C   0  0  0  0  0  0  0  0  0  0  0  0
  -24.9190  -11.9260   20.7930 C   0  0  0  0  0  0  0  0  0  0  0  0
  -26.5800  -13.1600   20.2380 N   0  0  0  0  0  0  0  0  0  0  0  0
  -26.2170  -11.8810   20.5130 N   0  0  0  0  0  0  0  0  0  0  0  0
  -24.1830  -10.6690   20.9780 C   0  0  0  0  0  0  0  0  0  0  0  0
  -24.5630   -9.7240   21.9560 C   0  0  0  0  0  3  0  0  0  0  0  0
  -23.8240   -8.5340   22.1280 C   0  0  0  0  0  3  0  0  0  0  0  0
  -22.6900   -8.2790   21.3190 C   0  0  0  0  0  0  0  0  0  0  0  0
  -22.3290   -9.2120   20.3310 C   0  0  0  0  0  3  0  0  0  0  0  0
  -23.0690  -10.3950   20.1590 C   0  0  0  0  0  3  0  0  0  0  0  0
  -21.9280   -7.1380   21.3970 O   0  0  0  0  0  0  0  0  0  0  0  0
  -21.7870   -6.4450   22.5720 C   0  0  0  0  0  0  0  0  0  0  0  0
  -21.2500   -7.0480   23.7310 C   0  0  0  0  0  3  0  0  0  0  0  0
  -21.0570   -6.2810   24.8970 C   0  0  0  0  0  3  0  0  0  0  0  0
  -21.3920   -4.9130   24.9040 C   0  0  0  0  0  0  0  0  0  0  0  0
  -21.9200   -4.3110   23.7500 C   0  0  0  0  0  3  0  0  0  0  0  0
  -22.1140   -5.0750   22.5850 C   0  0  0  0  0  0  0  0  0  0  0  0
  -22.6050   -4.4850   21.4690 F   0  0  0  0  0  0  0  0  0  0  0  0
  -21.1990   -4.1740   26.0220 F   0  0  0  0  0  0  0  0  0  0  0  0
  -23.0600  -13.7660   21.0360 C   0  0  0  0  0  0  0  0  0  0  0  0
  -22.3130  -13.0860   21.8980 N   0  0  0  0  0  0  0  0  0  0  0  0
  -22.6400  -14.7850   20.4910 O   0  0  0  0  0  0  0  0  0  0  0  0
  -22.6710  -12.2620   22.3600 H   0  0  0  0  0  0  0  0  0  0  0  0
  -21.3720  -13.3940   22.0980 H   0  0  0  0  0  0  0  0  0  0  0  0
  -25.7090  -15.4140   20.2600 N   0  0  0  0  0  0  0  0  0  0  0  0
  -24.9350  -16.0640   20.3400 H   0  0  0  0  0  0  0  0  0  0  0  0
  -26.5530  -15.8460   19.9100 H   0  0  0  0  0  0  0  0  0  0  0  0
  -28.1450  -24.8800   20.1880 C   0  0  0  0  0  2  0  0  0  0  0  0
  -28.4320  -26.3950   20.3230 O   0  0  0  0  0  0  0  0  0  0  0  0
  -24.6870  -31.9340   23.2830 C   0  0  0  0  0  0  0  0  0  0  0  0
  -27.3670  -27.3510   20.2210 C   0  0  0  0  0  0  0  0  0  0  0  0
  -23.5260  -30.5560   21.5990 C   0  0  0  0  0  3  0  0  0  0  0  0
  -25.0170  -29.0460   20.1580 C   0  0  0  0  0  0  0  0  0  0  0  0
  -26.0750  -30.8790   21.4660 C   0  0  0  0  0  2  0  0  0  0  0  0
  -26.1770  -29.5020   20.7960 C   0  0  0  0  0  0  0  0  0  0  0  0
  -27.3530  -28.6730   20.8120 C   0  0  0  0  0  3  0  0  0  0  0  0
  -26.1840  -26.9890   19.5390 C   0  0  0  0  0  3  0  0  0  0  0  0
  -25.0320  -27.8020   19.5110 C   0  0  0  0  0  3  0  0  0  0  0  0
  -23.7720  -29.9150   20.2070 C   0  0  0  0  0  2  0  0  0  0  0  0
  -24.7820  -31.1450   22.1700 N   0  0  0  0  0  0  0  0  0  0  0  0
  -23.5920  -32.1850   23.8060 O   0  0  0  0  0  0  0  0  0  0  0  0
  -22.8600  -29.5160   22.5350 C   0  0  0  0  0  0  0  0  0  0  0  0
  -21.5340  -29.3330   22.3980 N   0  0  0  0  0  0  0  0  0  0  0  0
  -23.5340  -28.8770   23.3440 O   0  0  0  0  0  0  0  0  0  0  0  0
  -21.0450  -29.9010   21.7190 H   0  0  0  0  0  0  0  0  0  0  0  0
  -18.1580  -28.1090   22.8710 C   0  0  0  0  0  0  0  0  0  0  0  0
  -20.7170  -28.3690   23.1390 C   0  0  0  0  0  3  0  0  0  0  0  0
  -20.8210  -26.9560   22.5180 C   0  0  0  0  0  2  0  0  0  0  0  0
  -19.7180  -26.6630   21.4990 C   0  0  0  0  0  2  0  0  0  0  0  0
  -18.3360  -26.7830   22.1490 C   0  0  0  0  0  2  0  0  0  0  0  0
  -19.2760  -28.8600   23.3210 C   0  0  0  0  0  0  0  0  0  0  0  0
  -19.0550  -30.1010   23.9550 C   0  0  0  0  0  3  0  0  0  0  0  0
  -17.7490  -30.5910   24.1450 C   0  0  0  0  0  3  0  0  0  0  0  0
  -16.6450  -29.8360   23.7100 C   0  0  0  0  0  3  0  0  0  0  0  0
  -16.8500  -28.5980   23.0770 C   0  0  0  0  0  3  0  0  0  0  0  0
  -25.9500  -32.5750   23.9350 C   0  0  0  0  0  3  0  0  0  0  0  0
  -25.6290  -33.9770   24.2480 N   0  0  0  0  0  0  0  0  0  0  0  0
  -25.9520  -35.0250   23.4790 C   0  0  0  0  0  0  0  0  0  0  0  0
  -26.6190  -34.9160   22.4480 O   0  0  0  0  0  0  0  0  0  0  0  0
  -25.0420  -34.1340   25.0530 H   0  0  0  0  0  0  0  0  0  0  0  0
  -24.1960  -36.7930   23.1380 C   0  0  0  0  0  1  0  0  0  0  0  0
  -25.4580  -36.4150   23.9280 C   0  0  0  0  0  3  0  0  0  0  0  0
  -27.5960  -37.3450   24.7000 C   0  0  0  0  0  1  0  0  0  0  0  0
  -26.4720  -37.4800   23.7760 N   0  0  0  0  0  0  0  0  0  0  0  0
  -26.0540  -38.3960   23.9150 H   0  0  0  0  0  0  0  0  0  0  0  0
  -26.4270  -31.8170   25.2360 C   0  0  1  0  0  0  0  0  0  0  0  0
  -25.3020  -31.5930   26.2750 C   0  0  0  0  0  1  0  0  0  0  0  0
  -27.0220  -30.4350   24.8780 C   0  0  0  0  0  1  0  0  0  0  0  0
  -27.5550  -32.6220   25.9230 C   0  0  0  0  0  1  0  0  0  0  0  0
  2  1  1  0
  4  5  1  0
  4  2  1  0
  4  3  1  0
  6  7  2  0
  6  5  1  0
  7 16  1  0
  8 16  1  0
  9 14  1  0
 10 11  1  0
 10  9  1  0
 12 11  1  0
 12 21  1  0
 12 13  1  0
 14  8  1  0
 14 13  1  0
 15  8  2  0
 16 17  1  0
 18 19  2  0
 19 38  1  0
 20 19  1  0
 20 23  1  0
 21 18  1  0
 21 22  1  0
 22 20  2  0
 23 24  1  0
 24 25  2  0
 26 29  1  0
 26 25  1  0
 27 26  2  0
 28 27  1  0
 28 23  2  0
 29 30  1  0
 30 35  2  0
 30 31  1  0
 31 32  2  0
 32 33  1  0
 33 37  1  0
 34 33  2  0
 35 34  1  0
 36 35  1  0
 38 39  1  0
 39 42  1  0
 39 41  1  0
 40 38  2  0
 43 44  1  0
 43 18  1  0
 45 43  1  0
 46 47  1  0
 46  2  1  0
 48 59  2  0
 49 47  1  0
 49 54  1  0
 50 58  1  0
 50 60  1  0
 51 57  1  0
 51 53  1  0
 52 58  1  0
 53 54  2  0
 53 52  1  0
 55 49  2  0
 56 55  1  0
 56 51  2  0
 57 50  1  0
 58 48  1  0
 60 62  2  0
 61 60  1  0
 63 61  1  0
 64 73  2  0
 64 69  1  0
 65 61  1  0
 65 69  1  0
 66 65  1  0
 67 68  1  0
 67 66  1  0
 68 64  1  0
 69 70  2  0
 70 71  1  0
 72 71  2  0
 73 72  1  0
 74 48  1  0
 74 75  1  0
 74 84  1  0
 75 78  1  0
 76 80  1  0
 76 75  1  0
 77 76  2  0
 80 79  1  0
 82 83  1  0
 82 80  1  0
 82 81  1  0
 84 87  1  1
 84 85  1  0
 86 84  1  0
M  ISO  4   8 100  16 100  46 101  47 101
M  END
>  <TORSDO>  (61) 
F 21

>  <SCORE>  (61) 
-12.918

>  <name>  (61) 
62

>  <ligand_id>  (61) 
62

>  <original_smiles>  (61) 
[H]c1c([H])c([H])c2c(c1[H])C([H])([H])C([H])([H])C([H])([H])C2([H])N([H])C(=O)C1([H])N(C(=O)C([H])(N([H])C(=O)C([H])(N([H])C([H])([H])[H])C([H])([H])[H])C(C([H])([H])[H])(C([H])([H])[H])C([H])([H])[H])C([H])([H])c2c([H])c(OC([H])([H])C([H])(C([H])([H])[H])C([H])(C([H])([H])[H])C([H])([H])C([H])([H])C([H])([H])N([H])C(=O)N3C([H])([H])C([H])([H])C([H])([H])C([H])(n4nc(-c5c([H])c([H])c(Oc6c([H])c([H])c(F)c([H])c6F)c([H])c5[H])c(C(=O)N([H])[H])c4N([H])[H])C3([H])[H])c([H])c([H])c2C1([H])[H]

>  <smiles>  (61) 
[H]c1c([H])c([H])c2c(c1[H])C([H])([H])C([H])([H])C([H])([H])C2([H])N([H])C(=O)C1([H])N(C(=O)C([H])(N([H])C(=O)C([H])(N([H])C([H])([H])[H])C([H])([H])[H])C(C([H])([H])[H])(C([H])([H])[H])C([H])([H])[H])C([H])([H])c2c([H])c(OC([H])([H])C([H])(C([H])([H])[H])C([H])(C([H])([H])[H])C([H])([H])C([H])([H])C([H])([H])N([H])C(=O)N3C([H])([H])C([H])([H])C([H])([H])C([H])(n4nc(-c5c([H])c([H])c(Oc6c([H])c([H])c(F)c([H])c6F)c([H])c5[H])c(C(=O)N([H])[H])c4N([H])[H])C3([H])[H])c([H])c([H])c2C1([H])[H]

$$$$
63:0:0
     RDKit          3D

 91 99  0  0  1  0  0  0  0  0999 V2000
  -31.0200  -20.2000   20.3750 C   0  0  0  0  0  2  0  0  0  0  0  0
  -28.4620  -21.1260   19.7740 C   0  0  0  0  0  2  0  0  0  0  0  0
  -30.6050  -21.6180   20.9820 C   0  0  0  0  0  3  0  0  0  0  0  0
  -29.1780  -22.2160   20.6560 C   0  0  0  0  0  3  0  0  0  0  0  0
  -29.9510  -19.0750   20.0930 C   0  0  0  0  0  3  0  0  0  0  0  0
  -30.8710  -21.6740   22.4980 C   0  0  0  0  0  1  0  0  0  0  0  0
  -28.6050  -19.7080   20.3080 N   0  0  0  0  0  4  0  0  0  0  0  0
  -27.9120  -19.1330   19.8570 H   0  0  0  0  0  0  0  0  0  0  0  0
  -28.3810  -19.7250   21.2890 H   0  0  0  0  0  0  0  0  0  0  0  0
  -30.1980  -17.6500   22.2720 C   0  0  0  0  0  1  0  0  0  0  0  0
  -30.2950  -17.6000   20.7390 C   0  0  0  0  0  3  0  0  0  0  0  0
  -29.7060  -16.1790   20.1920 C   0  0  0  0  0  2  0  0  0  0  0  0
  -30.5590  -14.8000   20.1900 C   0  0  0  0  0  0  0  0  0  0  0  0
  -30.3630  -12.5180   19.1970 C   0  0  0  0  0  2  0  0  0  0  0  0
  -29.3940  -12.6060   17.9940 C   0  0  0  0  0  2  0  0  0  0  0  0
  -27.9310  -12.4350   18.4480 C   0  0  0  0  0  2  0  0  0  0  0  0
  -27.5850  -13.3080   19.6820 C   0  0  0  0  0  3  0  0  0  0  0  0
  -28.6680  -13.2090   20.7740 C   0  0  0  0  0  2  0  0  0  0  0  0
  -29.9580  -13.5580   20.1700 N   0  0  0  0  0  0  0  0  0  0  0  0
  -31.7640  -14.8770   19.9280 O   0  0  0  0  0  0  0  0  0  0  0  0
  -25.2160  -13.8950   20.4710 C   0  0  0  0  0  0  0  0  0  0  0  0
  -24.1580  -13.1210   20.8580 C   0  0  0  0  0  0  0  0  0  0  0  0
  -24.6210  -11.7690   20.8140 C   0  0  0  0  0  0  0  0  0  0  0  0
  -26.2540  -13.0170   20.2040 N   0  0  0  0  0  0  0  0  0  0  0  0
  -25.9060  -11.7330   20.4780 N   0  0  0  0  0  0  0  0  0  0  0  0
  -23.8980  -10.5060   21.0140 C   0  0  0  0  0  0  0  0  0  0  0  0
  -24.3450   -9.5360   21.9380 C   0  0  0  0  0  3  0  0  0  0  0  0
  -23.6220   -8.3380   22.1250 C   0  0  0  0  0  3  0  0  0  0  0  0
  -22.4360   -8.1030   21.3890 C   0  0  0  0  0  0  0  0  0  0  0  0
  -22.0060   -9.0620   20.4540 C   0  0  0  0  0  3  0  0  0  0  0  0
  -22.7310  -10.2510   20.2650 C   0  0  0  0  0  3  0  0  0  0  0  0
  -21.6830   -6.9580   21.4870 O   0  0  0  0  0  0  0  0  0  0  0  0
  -21.6540   -6.2120   22.6380 C   0  0  0  0  0  0  0  0  0  0  0  0
  -21.2510   -6.7650   23.8730 C   0  0  0  0  0  3  0  0  0  0  0  0
  -21.1670   -5.9440   25.0160 C   0  0  0  0  0  3  0  0  0  0  0  0
  -21.4760   -4.5740   24.9250 C   0  0  0  0  0  0  0  0  0  0  0  0
  -21.8740   -4.0220   23.6950 C   0  0  0  0  0  3  0  0  0  0  0  0
  -21.9590   -4.8390   22.5540 C   0  0  0  0  0  0  0  0  0  0  0  0
  -22.3200   -4.2970   21.3660 F   0  0  0  0  0  0  0  0  0  0  0  0
  -21.3900   -3.7850   26.0210 F   0  0  0  0  0  0  0  0  0  0  0  0
  -22.7650  -13.5960   21.1540 C   0  0  0  0  0  0  0  0  0  0  0  0
  -22.0520  -12.8970   22.0290 N   0  0  0  0  0  0  0  0  0  0  0  0
  -22.3180  -14.6240   20.6450 O   0  0  0  0  0  0  0  0  0  0  0  0
  -22.4280  -12.0670   22.4630 H   0  0  0  0  0  0  0  0  0  0  0  0
  -21.1160  -13.1970   22.2690 H   0  0  0  0  0  0  0  0  0  0  0  0
  -25.3780  -15.2670   20.2960 N   0  0  0  0  0  0  0  0  0  0  0  0
  -24.6150  -15.9210   20.4300 H   0  0  0  0  0  0  0  0  0  0  0  0
  -26.2160  -15.7020   19.9350 H   0  0  0  0  0  0  0  0  0  0  0  0
  -29.2070  -23.7850   20.1740 C   0  0  0  0  0  3  0  0  0  0  0  0
  -28.1530  -24.9160   20.6630 C   0  0  0  0  0  3  0  0  0  0  0  0
  -28.3820  -26.3800   20.3670 O   0  0  0  0  0  0  0  0  0  0  0  0
  -24.6020  -31.8880   23.2560 C   0  0  0  0  0  0  0  0  0  0  0  0
  -27.2780  -27.2620   20.3100 C   0  0  0  0  0  0  0  0  0  0  0  0
  -23.4350  -30.4670   21.6090 C   0  0  0  0  0  3  0  0  0  0  0  0
  -24.9170  -28.9030   20.2220 C   0  0  0  0  0  0  0  0  0  0  0  0
  -25.9780  -30.7820   21.4700 C   0  0  0  0  0  2  0  0  0  0  0  0
  -26.0740  -29.3910   20.8420 C   0  0  0  0  0  0  0  0  0  0  0  0
  -27.2590  -28.5860   20.8720 C   0  0  0  0  0  3  0  0  0  0  0  0
  -26.1020  -26.8490   19.6460 C   0  0  0  0  0  3  0  0  0  0  0  0
  -24.9390  -27.6410   19.6080 C   0  0  0  0  0  3  0  0  0  0  0  0
  -23.6790  -29.7800   20.2400 C   0  0  0  0  0  2  0  0  0  0  0  0
  -24.6890  -31.0650   22.1670 N   0  0  0  0  0  0  0  0  0  0  0  0
  -23.5080  -32.1680   23.7690 O   0  0  0  0  0  0  0  0  0  0  0  0
  -22.7560  -29.4580   22.5690 C   0  0  0  0  0  0  0  0  0  0  0  0
  -21.4310  -29.2850   22.4330 N   0  0  0  0  0  0  0  0  0  0  0  0
  -23.4240  -28.8340   23.3980 O   0  0  0  0  0  0  0  0  0  0  0  0
  -20.9500  -29.8430   21.7390 H   0  0  0  0  0  0  0  0  0  0  0  0
  -18.0430  -28.1030   22.9140 C   0  0  0  0  0  0  0  0  0  0  0  0
  -20.6010  -28.3550   23.2030 C   0  0  0  0  0  3  0  0  0  0  0  0
  -20.7020  -26.9180   22.6350 C   0  0  0  0  0  2  0  0  0  0  0  0
  -19.6060  -26.5950   21.6160 C   0  0  0  0  0  2  0  0  0  0  0  0
  -18.2200  -26.7490   22.2470 C   0  0  0  0  0  2  0  0  0  0  0  0
  -19.1620  -28.8630   23.3490 C   0  0  0  0  0  0  0  0  0  0  0  0
  -18.9420  -30.1290   23.9320 C   0  0  0  0  0  3  0  0  0  0  0  0
  -17.6370  -30.6340   24.0880 C   0  0  0  0  0  3  0  0  0  0  0  0
  -16.5340  -29.8710   23.6690 C   0  0  0  0  0  3  0  0  0  0  0  0
  -16.7380  -28.6080   23.0860 C   0  0  0  0  0  3  0  0  0  0  0  0
  -25.8680  -32.5370   23.8920 C   0  0  0  0  0  3  0  0  0  0  0  0
  -26.3590  -31.7880   25.1910 C   0  0  1  0  0  0  0  0  0  0  0  0
  -25.2460  -31.5640   26.2430 C   0  0  0  0  0  1  0  0  0  0  0  0
  -26.9540  -30.4060   24.8320 C   0  0  0  0  0  1  0  0  0  0  0  0
  -27.4940  -32.5960   25.8630 C   0  0  0  0  0  1  0  0  0  0  0  0
  -25.5470  -33.9390   24.2000 N   0  0  0  0  0  0  0  0  0  0  0  0
  -25.8950  -34.9840   23.4360 C   0  0  0  0  0  0  0  0  0  0  0  0
  -26.5880  -34.8680   22.4220 O   0  0  0  0  0  0  0  0  0  0  0  0
  -24.9330  -34.1010   24.9850 H   0  0  0  0  0  0  0  0  0  0  0  0
  -24.1770  -36.7740   23.0170 C   0  0  0  0  0  1  0  0  0  0  0  0
  -25.3960  -36.3770   23.8660 C   0  0  0  0  0  3  0  0  0  0  0  0
  -27.5090  -37.2700   24.7420 C   0  0  0  0  0  1  0  0  0  0  0  0
  -26.4310  -37.4290   23.7700 N   0  0  0  0  0  0  0  0  0  0  0  0
  -26.0240  -38.3520   23.8970 H   0  0  0  0  0  0  0  0  0  0  0  0
  1  3  1  0
  2  7  1  0
  2  4  1  0
  3  6  1  0
  4 49  1  0
  4  3  1  0
  5  7  1  0
  5  1  1  0
  5 11  1  0
  7  9  1  0
  8  7  1  0
 11 10  1  0
 12 11  1  0
 13 12  1  0
 14 19  1  0
 15 16  1  0
 15 14  1  0
 17 16  1  0
 17 24  1  0
 17 18  1  0
 19 13  1  0
 19 18  1  0
 20 13  2  0
 21 22  2  0
 22 41  1  0
 23 22  1  0
 23 26  1  0
 24 21  1  0
 24 25  1  0
 25 23  2  0
 26 27  1  0
 27 28  2  0
 29 32  1  0
 29 28  1  0
 30 29  2  0
 31 30  1  0
 31 26  2  0
 32 33  1  0
 33 34  1  0
 34 35  2  0
 36 35  1  0
 36 40  1  0
 37 36  2  0
 38 33  2  0
 38 37  1  0
 39 38  1  0
 41 42  1  0
 42 45  1  0
 42 44  1  0
 43 41  2  0
 46 47  1  0
 46 21  1  0
 48 46  1  0
 49 50  2  0
 51 50  1  0
 52 63  2  0
 53 51  1  0
 53 58  1  0
 54 62  1  0
 54 64  1  0
 55 61  1  0
 55 57  1  0
 56 62  1  0
 57 58  2  0
 57 56  1  0
 59 53  2  0
 60 59  1  0
 60 55  2  0
 61 54  1  0
 62 52  1  0
 64 66  2  0
 65 64  1  0
 67 65  1  0
 68 77  2  0
 68 73  1  0
 69 65  1  0
 69 73  1  0
 70 69  1  0
 71 72  1  0
 71 70  1  0
 72 68  1  0
 73 74  2  0
 74 75  1  0
 76 75  2  0
 77 76  1  0
 78 52  1  0
 78 83  1  0
 78 79  1  0
 79 82  1  1
 79 80  1  0
 81 79  1  0
 83 86  1  0
 84 88  1  0
 84 83  1  0
 85 84  2  0
 88 87  1  0
 90 88  1  0
 90 91  1  0
 90 89  1  0
M  ISO  4  12 100  13 100  50 101  51 101
M  END
>  <TORSDO>  (62) 
F 20

>  <SCORE>  (62) 
-13.881

>  <name>  (62) 
63

>  <ligand_id>  (62) 
63

>  <original_smiles>  (62) 
[H]c1c([H])c([H])c2c(c1[H])C([H])([H])C([H])([H])C([H])([H])C2([H])N([H])C(=O)C1([H])N(C(=O)C([H])(N([H])C(=O)C([H])(N([H])C([H])([H])[H])C([H])([H])[H])C(C([H])([H])[H])(C([H])([H])[H])C([H])([H])[H])C([H])([H])c2c([H])c(OC([H])([H])C([H])([H])C3([H])C([H])(C([H])([H])[H])C([H])([H])C([H])(C([H])(C([H])([H])[H])C([H])([H])C(=O)N4C([H])([H])C([H])([H])C([H])([H])C([H])(n5nc(-c6c([H])c([H])c(Oc7c([H])c([H])c(F)c([H])c7F)c([H])c6[H])c(C(=O)N([H])[H])c5N([H])[H])C4([H])[H])[N+]([H])([H])C3([H])[H])c([H])c([H])c2C1([H])[H]

>  <smiles>  (62) 
[H]c1c([H])c([H])c2c(c1[H])C([H])([H])C([H])([H])C([H])([H])C2([H])N([H])C(=O)C1([H])N(C(=O)C([H])(N([H])C(=O)C([H])(N([H])C([H])([H])[H])C([H])([H])[H])C(C([H])([H])[H])(C([H])([H])[H])C([H])([H])[H])C([H])([H])c2c([H])c(OC([H])([H])C([H])([H])C3([H])C([H])(C([H])([H])[H])C([H])([H])C([H])(C([H])(C([H])([H])[H])C([H])([H])C(=O)N4C([H])([H])C([H])([H])C([H])([H])C([H])(n5nc(-c6c([H])c([H])c(Oc7c([H])c([H])c(F)c([H])c7F)c([H])c6[H])c(C(=O)N([H])[H])c5N([H])[H])C4([H])[H])[N+]([H])([H])C3([H])[H])c([H])c([H])c2C1([H])[H]

$$$$
64:0:0
     RDKit          3D

 89 96  0  0  1  0  0  0  0  0999 V2000
  -29.3660  -19.3880   19.8510 C   0  0  0  0  0  3  0  0  0  0  0  0
  -30.8150  -15.4070   21.0040 C   0  0  0  0  0  0  0  0  0  0  0  0
  -30.9240  -12.8300   20.7090 C   0  0  0  0  0  2  0  0  0  0  0  0
  -30.2730  -12.3320   19.3950 C   0  0  0  0  0  2  0  0  0  0  0  0
  -28.7610  -12.1170   19.5850 C   0  0  0  0  0  2  0  0  0  0  0  0
  -28.1040  -13.2880   20.3600 C   0  0  0  0  0  3  0  0  0  0  0  0
  -28.9060  -13.7240   21.6030 C   0  0  0  0  0  2  0  0  0  0  0  0
  -30.2450  -14.1100   21.1300 N   0  0  0  0  0  0  0  0  0  0  0  0
  -32.0550  -15.3780   21.0470 O   0  0  0  0  0  0  0  0  0  0  0  0
  -30.3830  -18.0510   20.3550 C   0  0  0  0  0  0  0  0  0  0  0  0
  -30.0600  -16.6350   20.6540 N   0  0  0  0  0  0  0  0  0  0  0  0
  -31.5660  -18.3810   20.4630 O   0  0  0  0  0  0  0  0  0  0  0  0
  -29.0710  -16.4580   20.5770 H   0  0  0  0  0  0  0  0  0  0  0  0
  -25.6730  -13.9690   20.7070 C   0  0  0  0  0  0  0  0  0  0  0  0
  -24.5330  -13.2500   20.9290 C   0  0  0  0  0  0  0  0  0  0  0  0
  -24.9380  -11.8830   21.0230 C   0  0  0  0  0  0  0  0  0  0  0  0
  -26.7010  -13.0440   20.6600 N   0  0  0  0  0  0  0  0  0  0  0  0
  -26.2620  -11.7860   20.9250 N   0  0  0  0  0  0  0  0  0  0  0  0
  -24.1330  -10.6600   21.1400 C   0  0  0  0  0  0  0  0  0  0  0  0
  -24.4060   -9.6860   22.1250 C   0  0  0  0  0  3  0  0  0  0  0  0
  -23.6040   -8.5290   22.2300 C   0  0  0  0  0  3  0  0  0  0  0  0
  -22.5160   -8.3360   21.3470 C   0  0  0  0  0  0  0  0  0  0  0  0
  -22.2620   -9.2980   20.3510 C   0  0  0  0  0  3  0  0  0  0  0  0
  -23.0630  -10.4460   20.2450 C   0  0  0  0  0  3  0  0  0  0  0  0
  -21.6990   -7.2330   21.3580 O   0  0  0  0  0  0  0  0  0  0  0  0
  -21.5280   -6.4730   22.4900 C   0  0  0  0  0  0  0  0  0  0  0  0
  -21.0830   -7.0350   23.7050 C   0  0  0  0  0  3  0  0  0  0  0  0
  -20.8550   -6.2070   24.8220 C   0  0  0  0  0  3  0  0  0  0  0  0
  -21.0650   -4.8180   24.7250 C   0  0  0  0  0  0  0  0  0  0  0  0
  -21.5040   -4.2560   23.5140 C   0  0  0  0  0  3  0  0  0  0  0  0
  -21.7330   -5.0820   22.3980 C   0  0  0  0  0  0  0  0  0  0  0  0
  -22.1350   -4.5300   21.2280 F   0  0  0  0  0  0  0  0  0  0  0  0
  -20.8390   -4.0220   25.7950 F   0  0  0  0  0  0  0  0  0  0  0  0
  -23.1330  -13.7910   20.9430 C   0  0  0  0  0  0  0  0  0  0  0  0
  -22.2510  -13.1870   21.7300 N   0  0  0  0  0  0  0  0  0  0  0  0
  -22.8280  -14.7900   20.2900 O   0  0  0  0  0  0  0  0  0  0  0  0
  -22.5100  -12.3790   22.2790 H   0  0  0  0  0  0  0  0  0  0  0  0
  -21.3030  -13.5320   21.7850 H   0  0  0  0  0  0  0  0  0  0  0  0
  -25.9220  -15.3230   20.5040 N   0  0  0  0  0  0  0  0  0  0  0  0
  -25.1660  -15.9980   20.4670 H   0  0  0  0  0  0  0  0  0  0  0  0
  -26.8180  -15.7130   20.2490 H   0  0  0  0  0  0  0  0  0  0  0  0
  -29.4620  -21.1570   20.2010 C   0  0  0  0  0  2  0  0  0  0  0  0
  -28.7700  -22.6710   19.4950 C   0  0  0  0  0  2  0  0  0  0  0  0
  -28.2210  -24.2660   20.1270 C   0  0  0  0  0  2  0  0  0  0  0  0
  -28.2210  -25.8450   19.6590 O   0  0  0  0  0  0  0  0  0  0  0  0
  -24.6820  -31.5680   23.1280 C   0  0  0  0  0  0  0  0  0  0  0  0
  -27.1740  -26.8940   19.7860 C   0  0  0  0  0  0  0  0  0  0  0  0
  -23.4540  -30.2780   21.4290 C   0  0  0  0  0  3  0  0  0  0  0  0
  -24.8720  -28.7560   19.8910 C   0  0  0  0  0  0  0  0  0  0  0  0
  -26.0150  -30.5030   21.2430 C   0  0  0  0  0  2  0  0  0  0  0  0
  -26.0730  -29.1340   20.5080 C   0  0  0  0  0  0  0  0  0  0  0  0
  -27.2200  -28.2280   20.4250 C   0  0  0  0  0  3  0  0  0  0  0  0
  -25.9390  -26.6580   19.1450 C   0  0  0  0  0  3  0  0  0  0  0  0
  -24.8270  -27.5380   19.1920 C   0  0  0  0  0  3  0  0  0  0  0  0
  -23.6560  -29.6740   20.0120 C   0  0  0  0  0  2  0  0  0  0  0  0
  -24.7400  -30.8070   21.9880 N   0  0  0  0  0  0  0  0  0  0  0  0
  -23.6040  -31.8250   23.6870 O   0  0  0  0  0  0  0  0  0  0  0  0
  -22.7770  -29.2260   22.3460 C   0  0  0  0  0  0  0  0  0  0  0  0
  -21.4420  -29.0840   22.2500 N   0  0  0  0  0  0  0  0  0  0  0  0
  -23.4590  -28.5390   23.1110 O   0  0  0  0  0  0  0  0  0  0  0  0
  -20.9430  -29.6900   21.6140 H   0  0  0  0  0  0  0  0  0  0  0  0
  -18.0630  -27.8850   22.7930 C   0  0  0  0  0  0  0  0  0  0  0  0
  -20.6350  -28.1010   22.9800 C   0  0  0  0  0  3  0  0  0  0  0  0
  -20.6930  -26.7130   22.3020 C   0  0  0  0  0  2  0  0  0  0  0  0
  -19.5520  -26.4770   21.3080 C   0  0  0  0  0  2  0  0  0  0  0  0
  -18.1970  -26.5880   22.0110 C   0  0  0  0  0  2  0  0  0  0  0  0
  -19.2080  -28.6020   23.2340 C   0  0  0  0  0  0  0  0  0  0  0  0
  -19.0240  -29.8150   23.9330 C   0  0  0  0  0  3  0  0  0  0  0  0
  -17.7310  -30.3130   24.1890 C   0  0  0  0  0  3  0  0  0  0  0  0
  -16.6040  -29.5920   23.7610 C   0  0  0  0  0  3  0  0  0  0  0  0
  -16.7700  -28.3800   23.0670 C   0  0  0  0  0  3  0  0  0  0  0  0
  -25.9680  -32.1690   23.7760 C   0  0  0  0  0  3  0  0  0  0  0  0
  -25.6470  -33.5320   24.2370 N   0  0  0  0  0  0  0  0  0  0  0  0
  -25.9990  -34.6610   23.6040 C   0  0  0  0  0  0  0  0  0  0  0  0
  -26.6880  -34.6610   22.5820 O   0  0  0  0  0  0  0  0  0  0  0  0
  -25.0370  -33.6040   25.0370 H   0  0  0  0  0  0  0  0  0  0  0  0
  -24.2930  -36.5020   23.4100 C   0  0  0  0  0  1  0  0  0  0  0  0
  -25.5110  -35.9980   24.1980 C   0  0  0  0  0  3  0  0  0  0  0  0
  -27.6310  -36.7750   25.1680 C   0  0  0  0  0  1  0  0  0  0  0  0
  -26.5540  -37.0480   24.2210 N   0  0  0  0  0  0  0  0  0  0  0  0
  -26.1500  -37.9510   24.4520 H   0  0  0  0  0  0  0  0  0  0  0  0
  -26.5200  -31.3050   24.9770 C   0  0  1  0  0  0  0  0  0  0  0  0
  -25.4550  -30.9830   26.0530 C   0  0  0  0  0  1  0  0  0  0  0  0
  -27.0930  -29.9630   24.4720 C   0  0  0  0  0  1  0  0  0  0  0  0
  -27.6860  -32.0510   25.6670 C   0  0  0  0  0  1  0  0  0  0  0  0
  -27.9260  -18.9160   20.1900 C   0  0  0  0  0  2  0  0  0  0  0  0
  -26.0650  -20.4190   19.2480 C   0  0  0  0  0  1  0  0  0  0  0  0
  -25.8560  -17.9230   19.1070 C   0  0  0  0  0  1  0  0  0  0  0  0
  -26.8470  -19.0990   19.0950 C   0  0  0  0  0  3  0  0  0  0  0  0
  1 86  1  0
  1 42  1  0
  1 10  1  0
  2  9  2  0
  2  8  1  0
  3  8  1  0
  4  5  1  0
  4  3  1  0
  6  5  1  0
  6 17  1  0
  6  7  1  0
  8  7  1  0
 10 12  2  0
 10 11  1  0
 11  2  1  0
 13 11  1  0
 14 15  2  0
 15 34  1  0
 15 16  1  0
 16 19  1  0
 17 14  1  0
 17 18  1  0
 18 16  2  0
 19 20  1  0
 20 21  2  0
 22 25  1  0
 22 21  1  0
 23 22  2  0
 24 23  1  0
 24 19  2  0
 25 26  1  0
 26 27  1  0
 27 28  2  0
 29 28  1  0
 29 33  1  0
 30 29  2  0
 31 26  2  0
 31 30  1  0
 32 31  1  0
 34 35  1  0
 35 38  1  0
 35 37  1  0
 36 34  2  0
 39 14  1  0
 40 39  1  0
 41 39  1  0
 43 44  1  0
 43 42  1  0
 45 47  1  0
 45 44  1  0
 46 57  2  0
 47 52  1  0
 48 56  1  0
 48 58  1  0
 49 55  1  0
 49 51  1  0
 50 56  1  0
 51 50  1  0
 52 51  2  0
 53 54  1  0
 53 47  2  0
 54 49  2  0
 55 48  1  0
 56 46  1  0
 58 60  2  0
 59 58  1  0
 61 59  1  0
 62 71  2  0
 62 67  1  0
 63 59  1  0
 63 67  1  0
 64 63  1  0
 65 66  1  0
 65 64  1  0
 66 62  1  0
 67 68  2  0
 68 69  1  0
 70 69  2  0
 71 70  1  0
 72 46  1  0
 72 73  1  0
 72 82  1  0
 73 76  1  0
 74 78  1  0
 74 73  1  0
 75 74  2  0
 78 77  1  0
 78 80  1  0
 80 81  1  0
 80 79  1  0
 82 85  1  1
 82 83  1  0
 84 82  1  0
 89 88  1  0
 89 87  1  0
 89 86  1  0
M  ISO  4   2 100  11 100  44 101  45 101
M  END
>  <TORSDO>  (63) 
F 21

>  <SCORE>  (63) 
-12.522

>  <name>  (63) 
64

>  <ligand_id>  (63) 
64

>  <original_smiles>  (63) 
[H]c1c([H])c([H])c2c(c1[H])C([H])([H])C([H])([H])C([H])([H])C2([H])N([H])C(=O)C1([H])N(C(=O)C([H])(N([H])C(=O)C([H])(N([H])C([H])([H])[H])C([H])([H])[H])C(C([H])([H])[H])(C([H])([H])[H])C([H])([H])[H])C([H])([H])c2c([H])c(OC([H])([H])C([H])([H])C([H])([H])C([H])(C(=O)N([H])C(=O)N3C([H])([H])C([H])([H])C([H])([H])C([H])(n4nc(-c5c([H])c([H])c(Oc6c([H])c([H])c(F)c([H])c6F)c([H])c5[H])c(C(=O)N([H])[H])c4N([H])[H])C3([H])[H])C([H])([H])C([H])(C([H])([H])[H])C([H])([H])[H])c([H])c([H])c2C1([H])[H]

>  <smiles>  (63) 
[H]c1c([H])c([H])c2c(c1[H])C([H])([H])C([H])([H])C([H])([H])C2([H])N([H])C(=O)C1([H])N(C(=O)C([H])(N([H])C(=O)C([H])(N([H])C([H])([H])[H])C([H])([H])[H])C(C([H])([H])[H])(C([H])([H])[H])C([H])([H])[H])C([H])([H])c2c([H])c(OC([H])([H])C([H])([H])C([H])([H])C([H])(C(=O)N([H])C(=O)N3C([H])([H])C([H])([H])C([H])([H])C([H])(n4nc(-c5c([H])c([H])c(Oc6c([H])c([H])c(F)c([H])c6F)c([H])c5[H])c(C(=O)N([H])[H])c4N([H])[H])C3([H])[H])C([H])([H])C([H])(C([H])([H])[H])C([H])([H])[H])c([H])c([H])c2C1([H])[H]

$$$$
65:0:0
     RDKit          3D

 90 98  0  0  1  0  0  0  0  0999 V2000
  -27.5950  -23.1440   19.7510 C   0  0  0  0  0  3  0  0  0  0  0  0
  -29.3020  -22.9920   21.4320 C   0  0  0  0  0  3  0  0  0  0  0  0
  -27.7460  -21.7480   19.4970 C   0  0  0  0  0  3  0  0  0  0  0  0
  -29.4470  -21.5920   21.1830 C   0  0  0  0  0  3  0  0  0  0  0  0
  -28.3680  -23.8090   20.7350 C   0  0  0  0  0  0  0  0  0  0  0  0
  -28.6590  -20.9190   20.2140 C   0  0  0  0  0  0  0  0  0  0  0  0
  -27.3050  -18.7620   19.9810 C   0  0  0  0  0  1  0  0  0  0  0  0
  -28.7250  -19.3680   19.9040 C   0  0  0  0  0  3  0  0  0  0  0  0
  -29.7090  -18.3920   20.6980 C   0  0  0  0  0  2  0  0  0  0  0  0
  -30.2890  -17.1200   19.9200 C   0  0  0  0  0  2  0  0  0  0  0  0
  -30.7980  -14.6120   20.0750 C   0  0  0  0  0  0  0  0  0  0  0  0
  -30.4980  -12.3760   19.0390 C   0  0  0  0  0  2  0  0  0  0  0  0
  -29.5170  -12.5210   17.8570 C   0  0  0  0  0  2  0  0  0  0  0  0
  -28.0580  -12.3980   18.3390 C   0  0  0  0  0  2  0  0  0  0  0  0
  -27.7640  -13.2640   19.5930 C   0  0  0  0  0  3  0  0  0  0  0  0
  -28.8600  -13.1040   20.6680 C   0  0  0  0  0  2  0  0  0  0  0  0
  -30.1510  -13.4070   20.0390 N   0  0  0  0  0  0  0  0  0  0  0  0
  -31.9360  -14.7360   19.6100 O   0  0  0  0  0  0  0  0  0  0  0  0
  -30.0540  -15.7150   20.4170 N   0  0  0  0  0  0  0  0  0  0  0  0
  -29.1410  -15.5170   20.8040 H   0  0  0  0  0  0  0  0  0  0  0  0
  -25.4270  -13.8960   20.4500 C   0  0  0  0  0  0  0  0  0  0  0  0
  -24.3660  -13.1330   20.8610 C   0  0  0  0  0  0  0  0  0  0  0  0
  -24.7980  -11.7750   20.7760 C   0  0  0  0  0  0  0  0  0  0  0  0
  -26.4360  -12.9990   20.1390 N   0  0  0  0  0  0  0  0  0  0  0  0
  -26.0670  -11.7160   20.3950 N   0  0  0  0  0  0  0  0  0  0  0  0
  -24.0550  -10.5240   20.9760 C   0  0  0  0  0  0  0  0  0  0  0  0
  -24.4920   -9.5440   21.8930 C   0  0  0  0  0  3  0  0  0  0  0  0
  -23.7500   -8.3590   22.0810 C   0  0  0  0  0  3  0  0  0  0  0  0
  -22.5560   -8.1450   21.3520 C   0  0  0  0  0  0  0  0  0  0  0  0
  -22.1390   -9.1140   20.4200 C   0  0  0  0  0  3  0  0  0  0  0  0
  -22.8840  -10.2890   20.2310 C   0  0  0  0  0  3  0  0  0  0  0  0
  -21.7830   -7.0140   21.4510 O   0  0  0  0  0  0  0  0  0  0  0  0
  -21.7320   -6.2750   22.6050 C   0  0  0  0  0  0  0  0  0  0  0  0
  -21.3010   -6.8340   23.8280 C   0  0  0  0  0  3  0  0  0  0  0  0
  -21.1970   -6.0230   24.9750 C   0  0  0  0  0  3  0  0  0  0  0  0
  -21.5100   -4.6530   24.9010 C   0  0  0  0  0  0  0  0  0  0  0  0
  -21.9330   -4.0930   23.6810 C   0  0  0  0  0  3  0  0  0  0  0  0
  -22.0390   -4.9010   22.5370 C   0  0  0  0  0  0  0  0  0  0  0  0
  -22.4270   -4.3510   21.3600 F   0  0  0  0  0  0  0  0  0  0  0  0
  -21.4020   -3.8710   25.9990 F   0  0  0  0  0  0  0  0  0  0  0  0
  -22.9960  -13.6310   21.2210 C   0  0  0  0  0  0  0  0  0  0  0  0
  -22.3010  -12.9250   22.1060 N   0  0  0  0  0  0  0  0  0  0  0  0
  -22.5550  -14.6810   20.7540 O   0  0  0  0  0  0  0  0  0  0  0  0
  -22.6720  -12.0730   22.4980 H   0  0  0  0  0  0  0  0  0  0  0  0
  -21.3850  -13.2370   22.3920 H   0  0  0  0  0  0  0  0  0  0  0  0
  -25.6060  -15.2660   20.2950 N   0  0  0  0  0  0  0  0  0  0  0  0
  -24.8510  -15.9220   20.4540 H   0  0  0  0  0  0  0  0  0  0  0  0
  -26.4280  -15.6990   19.9000 H   0  0  0  0  0  0  0  0  0  0  0  0
  -28.0690  -25.2800   21.2070 C   0  0  0  0  0  2  0  0  0  0  0  0
  -28.3190  -26.4480   20.3470 O   0  0  0  0  0  0  0  0  0  0  0  0
  -24.5710  -31.8810   23.2390 C   0  0  0  0  0  0  0  0  0  0  0  0
  -27.2460  -27.3300   20.2690 C   0  0  0  0  0  0  0  0  0  0  0  0
  -23.4070  -30.4750   21.5750 C   0  0  0  0  0  3  0  0  0  0  0  0
  -24.8910  -28.9220   20.1900 C   0  0  0  0  0  0  0  0  0  0  0  0
  -25.9500  -30.7980   21.4540 C   0  0  0  0  0  2  0  0  0  0  0  0
  -26.0450  -29.4220   20.8100 C   0  0  0  0  0  0  0  0  0  0  0  0
  -27.2330  -28.6360   20.8400 C   0  0  0  0  0  3  0  0  0  0  0  0
  -26.0820  -26.8760   19.6210 C   0  0  0  0  0  3  0  0  0  0  0  0
  -24.9120  -27.6550   19.5860 C   0  0  0  0  0  3  0  0  0  0  0  0
  -23.6560  -29.7960   20.2020 C   0  0  0  0  0  2  0  0  0  0  0  0
  -24.6600  -31.0700   22.1440 N   0  0  0  0  0  0  0  0  0  0  0  0
  -23.4760  -32.1600   23.7470 O   0  0  0  0  0  0  0  0  0  0  0  0
  -22.7250  -29.4610   22.5250 C   0  0  0  0  0  0  0  0  0  0  0  0
  -21.4000  -29.2920   22.3780 N   0  0  0  0  0  0  0  0  0  0  0  0
  -23.3870  -28.8320   23.3540 O   0  0  0  0  0  0  0  0  0  0  0  0
  -20.9250  -29.8580   21.6910 H   0  0  0  0  0  0  0  0  0  0  0  0
  -18.0040  -28.1340   22.8340 C   0  0  0  0  0  0  0  0  0  0  0  0
  -20.5630  -28.3640   23.1390 C   0  0  0  0  0  3  0  0  0  0  0  0
  -20.6540  -26.9320   22.5630 C   0  0  0  0  0  2  0  0  0  0  0  0
  -19.5600  -26.6240   21.5340 C   0  0  0  0  0  2  0  0  0  0  0  0
  -18.1710  -26.7840   22.1590 C   0  0  0  0  0  2  0  0  0  0  0  0
  -19.1260  -28.8820   23.2790 C   0  0  0  0  0  0  0  0  0  0  0  0
  -18.9150  -30.1440   23.8720 C   0  0  0  0  0  3  0  0  0  0  0  0
  -17.6140  -30.6620   24.0240 C   0  0  0  0  0  3  0  0  0  0  0  0
  -16.5070  -29.9110   23.5960 C   0  0  0  0  0  3  0  0  0  0  0  0
  -16.7010  -28.6490   23.0070 C   0  0  0  0  0  3  0  0  0  0  0  0
  -25.8410  -32.5190   23.8840 C   0  0  0  0  0  3  0  0  0  0  0  0
  -26.3290  -31.7550   25.1760 C   0  0  1  0  0  0  0  0  0  0  0  0
  -25.2090  -31.5150   26.2160 C   0  0  0  0  0  1  0  0  0  0  0  0
  -26.9320  -30.3800   24.8070 C   0  0  0  0  0  1  0  0  0  0  0  0
  -27.4570  -32.5590   25.8630 C   0  0  0  0  0  1  0  0  0  0  0  0
  -25.5230  -33.9170   24.2020 N   0  0  0  0  0  0  0  0  0  0  0  0
  -25.8710  -34.9680   23.4470 C   0  0  0  0  0  0  0  0  0  0  0  0
  -26.5590  -34.8590   22.4270 O   0  0  0  0  0  0  0  0  0  0  0  0
  -24.9170  -34.0770   24.9930 H   0  0  0  0  0  0  0  0  0  0  0  0
  -24.1440  -36.7540   23.0550 C   0  0  0  0  0  1  0  0  0  0  0  0
  -25.3730  -36.3580   23.8900 C   0  0  0  0  0  3  0  0  0  0  0  0
  -27.4840  -37.2520   24.7610 C   0  0  0  0  0  1  0  0  0  0  0  0
  -26.4060  -37.4130   23.7900 N   0  0  0  0  0  0  0  0  0  0  0  0
  -25.9940  -38.3320   23.9180 H   0  0  0  0  0  0  0  0  0  0  0  0
  1  5  1  0
  3  1  2  0
  3  6  1  0
  4  2  1  0
  5 49  1  0
  5  2  2  0
  6  4  2  0
  8  7  1  0
  8  6  1  0
  8  9  1  0
 10 19  1  0
 10  9  1  0
 11 19  1  0
 12 17  1  0
 13 14  1  0
 13 12  1  0
 15 14  1  0
 15 24  1  0
 15 16  1  0
 17 11  1  0
 17 16  1  0
 18 11  2  0
 19 20  1  0
 21 22  2  0
 22 41  1  0
 23 22  1  0
 23 26  1  0
 24 25  1  0
 24 21  1  0
 25 23  2  0
 26 27  1  0
 27 28  2  0
 29 32  1  0
 29 28  1  0
 30 29  2  0
 31 30  1  0
 31 26  2  0
 32 33  1  0
 33 34  1  0
 34 35  2  0
 36 35  1  0
 36 40  1  0
 37 36  2  0
 38 33  2  0
 38 37  1  0
 39 38  1  0
 41 42  1  0
 42 45  1  0
 42 44  1  0
 43 41  2  0
 46 21  1  0
 46 47  1  0
 48 46  1  0
 50 49  1  0
 51 62  2  0
 52 50  1  0
 52 57  1  0
 53 61  1  0
 53 63  1  0
 54 60  1  0
 54 56  1  0
 55 61  1  0
 56 57  2  0
 56 55  1  0
 58 52  2  0
 59 58  1  0
 59 54  2  0
 60 53  1  0
 61 51  1  0
 63 65  2  0
 64 63  1  0
 66 64  1  0
 67 76  2  0
 67 72  1  0
 68 64  1  0
 68 72  1  0
 69 68  1  0
 70 71  1  0
 70 69  1  0
 71 67  1  0
 72 73  2  0
 73 74  1  0
 75 74  2  0
 76 75  1  0
 77 51  1  0
 77 82  1  0
 77 78  1  0
 78 81  1  1
 78 79  1  0
 80 78  1  0
 82 85  1  0
 83 87  1  0
 83 82  1  0
 84 83  2  0
 87 86  1  0
 89 87  1  0
 89 90  1  0
 89 88  1  0
M  ISO  4  11 100  19 100  49 101  50 101
M  END
>  <TORSDO>  (64) 
F 20

>  <SCORE>  (64) 
-13.844

>  <name>  (64) 
65

>  <ligand_id>  (64) 
65

>  <original_smiles>  (64) 
[H]c1c([H])c([H])c2c(c1[H])C([H])([H])C([H])([H])C([H])([H])C2([H])N([H])C(=O)C1([H])N(C(=O)C([H])(N([H])C(=O)C([H])(N([H])C([H])([H])[H])C([H])([H])[H])C(C([H])([H])[H])(C([H])([H])[H])C([H])([H])[H])C([H])([H])c2c([H])c(OC([H])([H])c3c([H])c([H])c(C([H])(C([H])([H])[H])C([H])([H])C([H])([H])N([H])C(=O)N4C([H])([H])C([H])([H])C([H])([H])C([H])(n5nc(-c6c([H])c([H])c(Oc7c([H])c([H])c(F)c([H])c7F)c([H])c6[H])c(C(=O)N([H])[H])c5N([H])[H])C4([H])[H])c([H])c3[H])c([H])c([H])c2C1([H])[H]

>  <smiles>  (64) 
[H]c1c([H])c([H])c2c(c1[H])C([H])([H])C([H])([H])C([H])([H])C2([H])N([H])C(=O)C1([H])N(C(=O)C([H])(N([H])C(=O)C([H])(N([H])C([H])([H])[H])C([H])([H])[H])C(C([H])([H])[H])(C([H])([H])[H])C([H])([H])[H])C([H])([H])c2c([H])c(OC([H])([H])c3c([H])c([H])c(C([H])(C([H])([H])[H])C([H])([H])C([H])([H])N([H])C(=O)N4C([H])([H])C([H])([H])C([H])([H])C([H])(n5nc(-c6c([H])c([H])c(Oc7c([H])c([H])c(F)c([H])c7F)c([H])c6[H])c(C(=O)N([H])[H])c5N([H])[H])C4([H])[H])c([H])c3[H])c([H])c([H])c2C1([H])[H]

$$$$
66:0:0
     RDKit          3D

 92100  0  0  1  0  0  0  0  0999 V2000
  -29.5700  -20.1320   20.1800 C   0  0  0  0  0  3  0  0  0  0  0  0
  -32.7460  -21.5790   21.2340 C   0  0  0  0  0  2  0  0  0  0  0  0
  -31.6530  -21.7480   20.1720 C   0  0  0  0  0  2  0  0  0  0  0  0
  -32.0130  -19.3940   20.6500 C   0  0  0  0  0  2  0  0  0  0  0  0
  -33.2770  -20.1680   21.0080 C   0  0  0  0  0  3  0  0  0  0  0  0
  -31.0840  -20.3440   19.8400 C   0  0  0  0  0  3  0  0  0  0  0  0
  -34.0230  -19.5910   22.2180 C   0  0  0  0  0  1  0  0  0  0  0  0
  -28.5730  -21.4510   19.9610 N   0  0  0  0  0  4  0  0  0  0  0  0
  -27.8250  -21.2880   20.6170 H   0  0  0  0  0  0  0  0  0  0  0  0
  -28.1540  -21.3280   19.0530 H   0  0  0  0  0  0  0  0  0  0  0  0
  -28.8560  -23.0820   20.1130 C   0  0  0  0  0  3  0  0  0  0  0  0
  -27.7810  -24.4740   19.8100 C   0  0  0  0  0  3  0  0  0  0  0  0
  -28.0050  -26.0960   19.7880 O   0  0  0  0  0  0  0  0  0  0  0  0
  -24.5790  -31.9050   23.0810 C   0  0  0  0  0  0  0  0  0  0  0  0
  -26.9680  -27.1550   19.7910 C   0  0  0  0  0  0  0  0  0  0  0  0
  -23.2850  -30.5240   21.5000 C   0  0  0  0  0  3  0  0  0  0  0  0
  -24.6440  -28.9780   19.9400 C   0  0  0  0  0  0  0  0  0  0  0  0
  -25.8260  -30.7880   21.1690 C   0  0  0  0  0  2  0  0  0  0  0  0
  -25.8660  -29.3950   20.4850 C   0  0  0  0  0  0  0  0  0  0  0  0
  -27.0200  -28.5020   20.3900 C   0  0  0  0  0  3  0  0  0  0  0  0
  -25.7140  -26.8810   19.2010 C   0  0  0  0  0  3  0  0  0  0  0  0
  -24.5890  -27.7420   19.2780 C   0  0  0  0  0  3  0  0  0  0  0  0
  -23.4180  -29.8750   20.0960 C   0  0  0  0  0  2  0  0  0  0  0  0
  -24.5870  -31.0980   21.9700 N   0  0  0  0  0  0  0  0  0  0  0  0
  -23.5270  -32.1670   23.6850 O   0  0  0  0  0  0  0  0  0  0  0  0
  -22.6750  -29.4970   22.4910 C   0  0  0  0  0  0  0  0  0  0  0  0
  -21.3590  -29.2410   22.3860 N   0  0  0  0  0  0  0  0  0  0  0  0
  -23.3930  -28.9310   23.3190 O   0  0  0  0  0  0  0  0  0  0  0  0
  -20.8310  -29.7590   21.6980 H   0  0  0  0  0  0  0  0  0  0  0  0
  -18.0960  -27.7330   22.8790 C   0  0  0  0  0  0  0  0  0  0  0  0
  -20.6120  -28.2600   23.1850 C   0  0  0  0  0  3  0  0  0  0  0  0
  -20.8630  -26.8210   22.6790 C   0  0  0  0  0  2  0  0  0  0  0  0
  -19.8240  -26.3500   21.6560 C   0  0  0  0  0  2  0  0  0  0  0  0
  -18.4190  -26.3810   22.2670 C   0  0  0  0  0  2  0  0  0  0  0  0
  -19.1240  -28.6200   23.2950 C   0  0  0  0  0  0  0  0  0  0  0  0
  -18.7670  -29.8770   23.8290 C   0  0  0  0  0  3  0  0  0  0  0  0
  -17.4160  -30.2500   23.9540 C   0  0  0  0  0  3  0  0  0  0  0  0
  -16.4030  -29.3600   23.5590 C   0  0  0  0  0  3  0  0  0  0  0  0
  -16.7420  -28.1050   23.0250 C   0  0  0  0  0  3  0  0  0  0  0  0
  -25.8870  -32.5480   23.6340 C   0  0  0  0  0  3  0  0  0  0  0  0
  -25.5760  -33.9340   24.0270 N   0  0  0  0  0  0  0  0  0  0  0  0
  -25.9010  -35.0240   23.3170 C   0  0  0  0  0  0  0  0  0  0  0  0
  -26.5530  -34.9660   22.2710 O   0  0  0  0  0  0  0  0  0  0  0  0
  -24.9940  -34.0480   24.8430 H   0  0  0  0  0  0  0  0  0  0  0  0
  -24.1870  -36.8540   23.0640 C   0  0  0  0  0  1  0  0  0  0  0  0
  -25.4280  -36.3940   23.8460 C   0  0  0  0  0  3  0  0  0  0  0  0
  -27.5750  -37.2190   24.7100 C   0  0  0  0  0  1  0  0  0  0  0  0
  -26.4700  -37.4420   23.7820 N   0  0  0  0  0  0  0  0  0  0  0  0
  -26.0740  -38.3560   23.9770 H   0  0  0  0  0  0  0  0  0  0  0  0
  -26.4930  -31.7600   24.8620 C   0  0  1  0  0  0  0  0  0  0  0  0
  -25.4650  -31.4670   25.9810 C   0  0  0  0  0  1  0  0  0  0  0  0
  -27.0950  -30.4110   24.4100 C   0  0  0  0  0  1  0  0  0  0  0  0
  -27.6580  -32.5710   25.4780 C   0  0  0  0  0  1  0  0  0  0  0  0
  -28.3020  -17.9510   21.1360 C   0  0  0  0  0  1  0  0  0  0  0  0
  -29.1510  -18.4150   19.9410 C   0  0  0  0  0  3  0  0  0  0  0  0
  -29.9240  -16.9500   19.2970 C   0  0  0  0  0  2  0  0  0  0  0  0
  -30.6770  -15.4580   19.7600 C   0  0  0  0  0  0  0  0  0  0  0  0
  -30.6350  -13.0110   18.9660 C   0  0  0  0  0  2  0  0  0  0  0  0
  -29.6710  -12.7930   17.7720 C   0  0  0  0  0  2  0  0  0  0  0  0
  -28.2350  -12.5430   18.2640 C   0  0  0  0  0  2  0  0  0  0  0  0
  -27.8200  -13.5270   19.3880 C   0  0  0  0  0  3  0  0  0  0  0  0
  -28.9040  -13.7100   20.4660 C   0  0  0  0  0  2  0  0  0  0  0  0
  -30.1210  -14.1610   19.7820 N   0  0  0  0  0  0  0  0  0  0  0  0
  -31.9090  -15.4360   19.6410 O   0  0  0  0  0  0  0  0  0  0  0  0
  -25.4910  -14.0800   20.2650 C   0  0  0  0  0  0  0  0  0  0  0  0
  -24.4470  -13.2980   20.6750 C   0  0  0  0  0  0  0  0  0  0  0  0
  -24.9120  -11.9480   20.6080 C   0  0  0  0  0  0  0  0  0  0  0  0
  -26.5190  -13.2070   19.9610 N   0  0  0  0  0  0  0  0  0  0  0  0
  -26.1890  -11.9180   20.2400 N   0  0  0  0  0  0  0  0  0  0  0  0
  -24.1960  -10.6840   20.8200 C   0  0  0  0  0  0  0  0  0  0  0  0
  -24.6060   -9.7540   21.8000 C   0  0  0  0  0  3  0  0  0  0  0  0
  -23.8840   -8.5550   21.9950 C   0  0  0  0  0  3  0  0  0  0  0  0
  -22.7400   -8.2790   21.2090 C   0  0  0  0  0  0  0  0  0  0  0  0
  -22.3510   -9.1990   20.2190 C   0  0  0  0  0  3  0  0  0  0  0  0
  -23.0720  -10.3870   20.0220 C   0  0  0  0  0  3  0  0  0  0  0  0
  -21.9930   -7.1300   21.3110 O   0  0  0  0  0  0  0  0  0  0  0  0
  -21.8260   -6.4850   22.5110 C   0  0  0  0  0  0  0  0  0  0  0  0
  -21.2340   -7.1220   23.6240 C   0  0  0  0  0  3  0  0  0  0  0  0
  -21.0150   -6.4020   24.8150 C   0  0  0  0  0  3  0  0  0  0  0  0
  -21.3780   -5.0430   24.8930 C   0  0  0  0  0  0  0  0  0  0  0  0
  -21.9630   -4.4060   23.7850 C   0  0  0  0  0  3  0  0  0  0  0  0
  -22.1830   -5.1240   22.5970 C   0  0  0  0  0  0  0  0  0  0  0  0
  -22.7250   -4.4980   21.5240 F   0  0  0  0  0  0  0  0  0  0  0  0
  -21.1640   -4.3500   26.0360 F   0  0  0  0  0  0  0  0  0  0  0  0
  -23.0630  -13.7710   21.0090 C   0  0  0  0  0  0  0  0  0  0  0  0
  -22.3800  -13.0770   21.9130 N   0  0  0  0  0  0  0  0  0  0  0  0
  -22.5990  -14.7930   20.5060 O   0  0  0  0  0  0  0  0  0  0  0  0
  -22.7710  -12.2470   22.3350 H   0  0  0  0  0  0  0  0  0  0  0  0
  -21.4550  -13.3770   22.1840 H   0  0  0  0  0  0  0  0  0  0  0  0
  -25.6470  -15.4520   20.0930 N   0  0  0  0  0  0  0  0  0  0  0  0
  -24.8920  -16.1090   20.2600 H   0  0  0  0  0  0  0  0  0  0  0  0
  -26.4830  -15.8930   19.7340 H   0  0  0  0  0  0  0  0  0  0  0  0
  1  8  1  0
  3  2  1  0
  4  5  1  0
  5  2  1  0
  5  7  1  0
  6  3  1  0
  6  1  1  0
  6  4  1  0
  8 11  1  0
  8  9  1  0
 10  8  1  0
 12 11  2  0
 13 15  1  0
 13 12  1  0
 14 25  2  0
 15 20  1  0
 16 24  1  0
 16 26  1  0
 17 23  1  0
 17 19  1  0
 18 24  1  0
 19 18  1  0
 20 19  2  0
 21 22  1  0
 21 15  2  0
 22 17  2  0
 23 16  1  0
 24 14  1  0
 26 28  2  0
 27 26  1  0
 29 27  1  0
 30 39  2  0
 30 35  1  0
 31 27  1  0
 31 35  1  0
 32 31  1  0
 33 34  1  0
 33 32  1  0
 34 30  1  0
 35 36  2  0
 36 37  1  0
 38 37  2  0
 39 38  1  0
 40 14  1  0
 40 41  1  0
 40 50  1  0
 41 44  1  0
 42 46  1  0
 42 41  1  0
 43 42  2  0
 46 45  1  0
 48 46  1  0
 48 49  1  0
 48 47  1  0
 50 53  1  1
 50 51  1  0
 52 50  1  0
 55  1  1  0
 55 54  1  0
 56 57  1  0
 56 55  1  0
 57 63  1  0
 58 63  1  0
 59 60  1  0
 59 58  1  0
 61 60  1  0
 61 68  1  0
 61 62  1  0
 63 62  1  0
 64 57  2  0
 65 66  2  0
 66 85  1  0
 67 66  1  0
 67 70  1  0
 68 69  1  0
 68 65  1  0
 69 67  2  0
 70 71  1  0
 71 72  2  0
 73 76  1  0
 73 72  1  0
 74 73  2  0
 75 74  1  0
 75 70  2  0
 76 77  1  0
 77 82  2  0
 77 78  1  0
 78 79  2  0
 79 80  1  0
 80 84  1  0
 81 80  2  0
 82 81  1  0
 83 82  1  0
 85 86  1  0
 86 89  1  0
 86 88  1  0
 87 85  2  0
 90 91  1  0
 90 65  1  0
 92 90  1  0
M  ISO  4  12 101  13 101  56 100  57 100
M  END
>  <TORSDO>  (65) 
F 22

>  <SCORE>  (65) 
-13.582

>  <name>  (65) 
66

>  <ligand_id>  (65) 
66

>  <original_smiles>  (65) 
[H]c1c([H])c([H])c2c(c1[H])C([H])([H])C([H])([H])C([H])([H])C2([H])N([H])C(=O)C1([H])N(C(=O)C([H])(N([H])C(=O)C([H])(N([H])C([H])([H])[H])C([H])([H])[H])C(C([H])([H])[H])(C([H])([H])[H])C([H])([H])[H])C([H])([H])c2c([H])c(OC([H])([H])C([H])([H])[N+]([H])([H])C([H])(C([H])(C([H])([H])[H])C([H])([H])C(=O)N3C([H])([H])C([H])([H])C([H])([H])C([H])(n4nc(-c5c([H])c([H])c(Oc6c([H])c([H])c(F)c([H])c6F)c([H])c5[H])c(C(=O)N([H])[H])c4N([H])[H])C3([H])[H])C3([H])C([H])([H])C([H])([H])C([H])(C([H])([H])[H])C3([H])[H])c([H])c([H])c2C1([H])[H]

>  <smiles>  (65) 
[H]c1c([H])c([H])c2c(c1[H])C([H])([H])C([H])([H])C([H])([H])C2([H])N([H])C(=O)C1([H])N(C(=O)C([H])(N([H])C(=O)C([H])(N([H])C([H])([H])[H])C([H])([H])[H])C(C([H])([H])[H])(C([H])([H])[H])C([H])([H])[H])C([H])([H])c2c([H])c(OC([H])([H])C([H])([H])[N+]([H])([H])C([H])(C([H])(C([H])([H])[H])C([H])([H])C(=O)N3C([H])([H])C([H])([H])C([H])([H])C([H])(n4nc(-c5c([H])c([H])c(Oc6c([H])c([H])c(F)c([H])c6F)c([H])c5[H])c(C(=O)N([H])[H])c4N([H])[H])C3([H])[H])C3([H])C([H])([H])C([H])([H])C([H])(C([H])([H])[H])C3([H])[H])c([H])c([H])c2C1([H])[H]

$$$$
67:0:0
     RDKit          3D

 97105  0  0  1  0  0  0  0  0999 V2000
  -30.0150  -21.3220   20.9950 C   0  0  0  0  0  2  0  0  0  0  0  0
  -28.9550  -22.1580   20.2600 C   0  0  0  0  0  2  0  0  0  0  0  0
  -30.6730  -22.8870   18.6250 C   0  0  0  0  0  2  0  0  0  0  0  0
  -31.0840  -20.7800   20.0270 C   0  0  0  0  0  3  0  0  0  0  0  0
  -31.7350  -22.0250   19.3590 C   0  0  0  0  0  3  0  0  0  0  0  0
  -29.5480  -23.3020   19.5130 N   0  0  1  0  0  4  0  0  0  0  0  0
  -29.9350  -23.9190   20.2130 H   0  0  0  0  0  0  0  0  0  0  0  0
  -34.1710  -21.1850   19.2000 C   0  0  0  0  0  1  0  0  0  0  0  0
  -32.9410  -21.7100   18.4450 C   0  0  0  0  0  2  0  0  0  0  0  0
  -28.4810  -24.0630   18.8050 C   0  0  0  0  0  2  0  0  0  0  0  0
  -28.9310  -25.3510   18.0760 C   0  0  0  0  0  2  0  0  0  0  0  0
  -29.4840  -26.4800   18.9730 C   0  0  0  0  0  2  0  0  0  0  0  0
  -28.7880  -26.6810   20.2020 O   0  0  0  0  0  0  0  0  0  0  0  0
  -24.7660  -31.6760   23.2740 C   0  0  0  0  0  0  0  0  0  0  0  0
  -27.6120  -27.3900   20.1560 C   0  0  0  0  0  0  0  0  0  0  0  0
  -23.6480  -30.2990   21.5490 C   0  0  0  0  0  3  0  0  0  0  0  0
  -25.1830  -28.8320   20.1400 C   0  0  0  0  0  0  0  0  0  0  0  0
  -26.1730  -30.7110   21.4600 C   0  0  0  0  0  2  0  0  0  0  0  0
  -26.3080  -29.3620   20.7850 C   0  0  0  0  0  0  0  0  0  0  0  0
  -27.5240  -28.6430   20.8000 C   0  0  0  0  0  3  0  0  0  0  0  0
  -26.4610  -26.8590   19.5350 C   0  0  0  0  0  3  0  0  0  0  0  0
  -25.2520  -27.5750   19.5180 C   0  0  0  0  0  3  0  0  0  0  0  0
  -23.9220  -29.6630   20.1610 C   0  0  0  0  0  2  0  0  0  0  0  0
  -24.8780  -30.9080   22.1530 N   0  0  0  0  0  0  0  0  0  0  0  0
  -23.6600  -31.9140   23.7790 O   0  0  0  0  0  0  0  0  0  0  0  0
  -22.9820  -29.2400   22.4550 C   0  0  0  0  0  0  0  0  0  0  0  0
  -21.6690  -29.0330   22.2660 N   0  0  0  0  0  0  0  0  0  0  0  0
  -23.6440  -28.6070   23.2820 O   0  0  0  0  0  0  0  0  0  0  0  0
  -21.1960  -29.5980   21.5730 H   0  0  0  0  0  0  0  0  0  0  0  0
  -18.3030  -27.7610   22.5810 C   0  0  0  0  0  0  0  0  0  0  0  0
  -20.8390  -28.0610   22.9770 C   0  0  0  0  0  3  0  0  0  0  0  0
  -20.9980  -26.6470   22.3730 C   0  0  0  0  0  2  0  0  0  0  0  0
  -19.9500  -26.3270   21.3010 C   0  0  0  0  0  2  0  0  0  0  0  0
  -18.5380  -26.4320   21.8830 C   0  0  0  0  0  2  0  0  0  0  0  0
  -19.3850  -28.5330   23.0800 C   0  0  0  0  0  0  0  0  0  0  0  0
  -19.1140  -29.7790   23.6870 C   0  0  0  0  0  3  0  0  0  0  0  0
  -17.7940  -30.2520   23.8040 C   0  0  0  0  0  3  0  0  0  0  0  0
  -16.7260  -29.4750   23.3250 C   0  0  0  0  0  3  0  0  0  0  0  0
  -16.9800  -28.2320   22.7190 C   0  0  0  0  0  3  0  0  0  0  0  0
  -26.0170  -32.3090   23.9590 C   0  0  0  0  0  3  0  0  0  0  0  0
  -26.4940  -31.5180   25.2380 C   0  0  1  0  0  0  0  0  0  0  0  0
  -25.3560  -31.2200   26.2430 C   0  0  0  0  0  1  0  0  0  0  0  0
  -27.1360  -30.1700   24.8390 C   0  0  0  0  0  1  0  0  0  0  0  0
  -27.5850  -32.3280   25.9770 C   0  0  0  0  0  1  0  0  0  0  0  0
  -25.6790  -33.6960   24.3010 N   0  0  0  0  0  0  0  0  0  0  0  0
  -26.0240  -34.7650   23.5700 C   0  0  0  0  0  0  0  0  0  0  0  0
  -26.7340  -34.6870   22.5630 O   0  0  0  0  0  0  0  0  0  0  0  0
  -25.0560  -33.8310   25.0830 H   0  0  0  0  0  0  0  0  0  0  0  0
  -24.2800  -36.5330   23.1800 C   0  0  0  0  0  1  0  0  0  0  0  0
  -25.4990  -36.1380   24.0290 C   0  0  0  0  0  3  0  0  0  0  0  0
  -27.5910  -37.0390   24.9460 C   0  0  0  0  0  1  0  0  0  0  0  0
  -26.5160  -37.2090   23.9710 N   0  0  0  0  0  0  0  0  0  0  0  0
  -26.0900  -38.1190   24.1250 H   0  0  0  0  0  0  0  0  0  0  0  0
  -30.5510  -19.7320   19.0030 C   0  0  0  0  0  2  0  0  0  0  0  0
  -29.7780  -18.5200   19.5670 C   0  0  0  0  0  2  0  0  0  0  0  0
  -30.6610  -17.3480   20.0310 C   0  0  0  0  0  2  0  0  0  0  0  0
  -29.1440  -16.4810   21.9020 C   0  0  0  0  0  1  0  0  0  0  0  0
  -29.8490  -16.1410   20.5730 C   0  0  0  0  0  3  0  0  0  0  0  0
  -30.6680  -14.8180   20.6970 C   0  0  0  0  0  3  0  0  0  0  0  0
  -30.6640  -14.0140   19.3690 C   0  0  0  0  0  0  0  0  0  0  0  0
  -29.8860  -12.1110   17.9930 C   0  0  0  0  0  2  0  0  0  0  0  0
  -28.7610  -12.5070   17.0220 C   0  0  0  0  0  2  0  0  0  0  0  0
  -27.3880  -12.3930   17.7090 C   0  0  0  0  0  2  0  0  0  0  0  0
  -27.3560  -13.1110   19.0830 C   0  0  0  0  0  3  0  0  0  0  0  0
  -28.5720  -12.7120   19.9480 C   0  0  0  0  0  2  0  0  0  0  0  0
  -29.8040  -12.9740   19.1820 N   0  0  0  0  0  0  0  0  0  0  0  0
  -31.5120  -14.3110   18.5210 O   0  0  0  0  0  0  0  0  0  0  0  0
  -25.1380  -13.7770   20.2110 C   0  0  0  0  0  0  0  0  0  0  0  0
  -24.1220  -13.0290   20.7420 C   0  0  0  0  0  0  0  0  0  0  0  0
  -24.5190  -11.6650   20.5970 C   0  0  0  0  0  0  0  0  0  0  0  0
  -26.0950  -12.8700   19.7810 N   0  0  0  0  0  0  0  0  0  0  0  0
  -25.7330  -11.5920   20.0660 N   0  0  0  0  0  0  0  0  0  0  0  0
  -23.7910  -10.4220   20.8800 C   0  0  0  0  0  0  0  0  0  0  0  0
  -24.3040   -9.4490   21.7660 C   0  0  0  0  0  3  0  0  0  0  0  0
  -23.5760   -8.2700   22.0370 C   0  0  0  0  0  3  0  0  0  0  0  0
  -22.3210   -8.0550   21.4200 C   0  0  0  0  0  0  0  0  0  0  0  0
  -21.8250   -9.0140   20.5200 C   0  0  0  0  0  3  0  0  0  0  0  0
  -22.5520  -10.1850   20.2490 C   0  0  0  0  0  3  0  0  0  0  0  0
  -21.5550   -6.9280   21.6020 O   0  0  0  0  0  0  0  0  0  0  0  0
  -21.5960   -6.2110   22.7710 C   0  0  0  0  0  0  0  0  0  0  0  0
  -21.3000   -6.8030   24.0190 C   0  0  0  0  0  3  0  0  0  0  0  0
  -21.2870   -6.0130   25.1870 C   0  0  0  0  0  3  0  0  0  0  0  0
  -21.5580   -4.6350   25.1080 C   0  0  0  0  0  0  0  0  0  0  0  0
  -21.8460   -4.0430   23.8660 C   0  0  0  0  0  3  0  0  0  0  0  0
  -21.8620   -4.8290   22.7000 C   0  0  0  0  0  0  0  0  0  0  0  0
  -22.1200   -4.2510   21.5030 F   0  0  0  0  0  0  0  0  0  0  0  0
  -21.5380   -3.8740   26.2280 F   0  0  0  0  0  0  0  0  0  0  0  0
  -22.8120  -13.5420   21.2670 C   0  0  0  0  0  0  0  0  0  0  0  0
  -22.2330  -12.8580   22.2470 N   0  0  0  0  0  0  0  0  0  0  0  0
  -22.3160  -14.5850   20.8410 O   0  0  0  0  0  0  0  0  0  0  0  0
  -22.6470  -12.0120   22.6090 H   0  0  0  0  0  0  0  0  0  0  0  0
  -21.3610  -13.1840   22.6400 H   0  0  0  0  0  0  0  0  0  0  0  0
  -25.3210  -15.1460   20.0420 N   0  0  0  0  0  0  0  0  0  0  0  0
  -24.6150  -15.8250   20.3050 H   0  0  0  0  0  0  0  0  0  0  0  0
  -26.1290  -15.5690   19.6010 H   0  0  0  0  0  0  0  0  0  0  0  0
  -32.8700  -13.7690   21.5790 C   0  0  0  0  0  1  0  0  0  0  0  0
  -32.1040  -15.0580   21.2360 C   0  0  0  0  0  2  0  0  0  0  0  0
  2  1  1  0
  3  5  1  0
  3  6  1  0
  4 54  1  0
  4  1  1  0
  5  9  1  0
  5  4  1  0
  6  7  1  1
  6  2  1  0
  9  8  1  0
 10  6  1  0
 11 10  1  0
 11 12  1  0
 12 13  1  0
 14 25  2  0
 15 13  1  0
 15 20  1  0
 16 24  1  0
 16 26  1  0
 17 23  1  0
 17 19  1  0
 18 24  1  0
 19 20  2  0
 19 18  1  0
 21 15  2  0
 22 21  1  0
 22 17  2  0
 23 16  1  0
 24 14  1  0
 26 28  2  0
 27 26  1  0
 29 27  1  0
 30 39  2  0
 30 35  1  0
 31 27  1  0
 31 35  1  0
 32 31  1  0
 33 34  1  0
 33 32  1  0
 34 30  1  0
 35 36  2  0
 36 37  1  0
 38 37  2  0
 39 38  1  0
 40 14  1  0
 40 45  1  0
 40 41  1  0
 41 44  1  1
 41 42  1  0
 43 41  1  0
 45 48  1  0
 46 50  1  0
 46 45  1  0
 47 46  2  0
 50 49  1  0
 52 50  1  0
 52 53  1  0
 52 51  1  0
 54 55  1  0
 55 56  1  0
 56 58  1  0
 58 59  1  0
 58 57  1  0
 59 97  1  0
 60 59  1  0
 61 66  1  0
 62 63  1  0
 62 61  1  0
 64 63  1  0
 64 71  1  0
 64 65  1  0
 66 60  1  0
 66 65  1  0
 67 60  2  0
 68 69  2  0
 69 88  1  0
 70 69  1  0
 70 73  1  0
 71 72  1  0
 71 68  1  0
 72 70  2  0
 73 74  1  0
 74 75  2  0
 76 79  1  0
 76 75  1  0
 77 76  2  0
 78 77  1  0
 78 73  2  0
 79 80  1  0
 80 81  1  0
 81 82  2  0
 83 82  1  0
 83 87  1  0
 84 83  2  0
 85 80  2  0
 85 84  1  0
 86 85  1  0
 88 89  1  0
 89 91  1  0
 89 92  1  0
 90 88  2  0
 93 68  1  0
 93 94  1  0
 95 93  1  0
 97 96  1  0
M  ISO  4  12 101  13 101  59 100  60 100
M  END
>  <TORSDO>  (66) 
F 26

>  <SCORE>  (66) 
-8.621

>  <name>  (66) 
67

>  <ligand_id>  (66) 
67

>  <original_smiles>  (66) 
[H]c1c([H])c([H])c2c(c1[H])C([H])([H])C([H])([H])C([H])([H])C2([H])N([H])C(=O)C1([H])N(C(=O)C([H])(N([H])C(=O)C([H])(N([H])C([H])([H])[H])C([H])([H])[H])C(C([H])([H])[H])(C([H])([H])[H])C([H])([H])[H])C([H])([H])c2c([H])c(OC([H])([H])C([H])([H])C([H])([H])[N+]3([H])C([H])([H])C([H])([H])C([H])(C([H])([H])C([H])([H])C([H])([H])C([H])(C([H])([H])[H])C([H])(C(=O)N4C([H])([H])C([H])([H])C([H])([H])C([H])(n5nc(-c6c([H])c([H])c(Oc7c([H])c([H])c(F)c([H])c7F)c([H])c6[H])c(C(=O)N([H])[H])c5N([H])[H])C4([H])[H])C([H])([H])C([H])([H])[H])C([H])(C([H])([H])C([H])([H])[H])C3([H])[H])c([H])c([H])c2C1([H])[H]

>  <smiles>  (66) 
[H]c1c([H])c([H])c2c(c1[H])C([H])([H])C([H])([H])C([H])([H])C2([H])N([H])C(=O)C1([H])N(C(=O)C([H])(N([H])C(=O)C([H])(N([H])C([H])([H])[H])C([H])([H])[H])C(C([H])([H])[H])(C([H])([H])[H])C([H])([H])[H])C([H])([H])c2c([H])c(OC([H])([H])C([H])([H])C([H])([H])[N+]3([H])C([H])([H])C([H])([H])C([H])(C([H])([H])C([H])([H])C([H])([H])C([H])(C([H])([H])[H])C([H])(C(=O)N4C([H])([H])C([H])([H])C([H])([H])C([H])(n5nc(-c6c([H])c([H])c(Oc7c([H])c([H])c(F)c([H])c7F)c([H])c6[H])c(C(=O)N([H])[H])c5N([H])[H])C4([H])[H])C([H])([H])C([H])([H])[H])C([H])(C([H])([H])C([H])([H])[H])C3([H])[H])c([H])c([H])c2C1([H])[H]

$$$$
68:0:0
     RDKit          3D

 87 95  0  0  1  0  0  0  0  0999 V2000
  -28.8960  -23.0370   20.0900 C   0  0  0  0  0  0  0  0  0  0  0  0
  -29.7990  -23.2460   19.2750 O   0  0  0  0  0  0  0  0  0  0  0  0
  -28.7910  -21.4150   20.6650 C   0  0  0  0  0  2  0  0  0  0  0  0
  -27.9420  -18.1830   18.6750 C   0  0  0  0  0  2  0  0  0  0  0  0
  -28.8240  -16.8980   18.7320 C   0  0  0  0  0  3  0  0  0  0  0  0
  -28.7110  -19.5350   18.6810 C   0  0  0  0  0  2  0  0  0  0  0  0
  -29.6570  -18.3200   20.7730 C   0  0  0  0  0  2  0  0  0  0  0  0
  -29.8350  -16.8230   19.9070 C   0  0  0  0  0  0  0  0  0  0  0  0
  -29.4080  -19.8830   20.0230 C   0  0  0  0  0  3  0  0  0  0  0  0
  -30.4680  -15.2180   20.2200 C   0  0  0  0  0  0  0  0  0  0  0  0
  -30.3690  -12.7850   19.3810 C   0  0  0  0  0  2  0  0  0  0  0  0
  -29.4400  -12.6010   18.1570 C   0  0  0  0  0  2  0  0  0  0  0  0
  -27.9970  -12.3260   18.6140 C   0  0  0  0  0  2  0  0  0  0  0  0
  -27.5490  -13.2920   19.7370 C   0  0  0  0  0  3  0  0  0  0  0  0
  -28.6110  -13.4870   20.8400 C   0  0  0  0  0  2  0  0  0  0  0  0
  -29.8520  -13.9420   20.1920 N   0  0  0  0  0  0  0  0  0  0  0  0
  -31.7000  -15.1260   20.1420 O   0  0  0  0  0  0  0  0  0  0  0  0
  -25.1920  -13.8620   20.5210 C   0  0  0  0  0  0  0  0  0  0  0  0
  -24.1340  -13.0850   20.8980 C   0  0  0  0  0  0  0  0  0  0  0  0
  -24.6020  -11.7350   20.8660 C   0  0  0  0  0  0  0  0  0  0  0  0
  -26.2330  -12.9840   20.2700 N   0  0  0  0  0  0  0  0  0  0  0  0
  -25.8910  -11.7000   20.5460 N   0  0  0  0  0  0  0  0  0  0  0  0
  -23.8810  -10.4720   21.0580 C   0  0  0  0  0  0  0  0  0  0  0  0
  -24.3280   -9.5010   21.9810 C   0  0  0  0  0  3  0  0  0  0  0  0
  -23.6070   -8.3020   22.1620 C   0  0  0  0  0  3  0  0  0  0  0  0
  -22.4240   -8.0650   21.4220 C   0  0  0  0  0  0  0  0  0  0  0  0
  -21.9970   -9.0260   20.4880 C   0  0  0  0  0  3  0  0  0  0  0  0
  -22.7190  -10.2170   20.3050 C   0  0  0  0  0  3  0  0  0  0  0  0
  -21.6720   -6.9200   21.5150 O   0  0  0  0  0  0  0  0  0  0  0  0
  -21.6470   -6.1660   22.6600 C   0  0  0  0  0  0  0  0  0  0  0  0
  -21.2570   -6.7110   23.9040 C   0  0  0  0  0  3  0  0  0  0  0  0
  -21.1820   -5.8830   25.0420 C   0  0  0  0  0  3  0  0  0  0  0  0
  -21.4840   -4.5120   24.9380 C   0  0  0  0  0  0  0  0  0  0  0  0
  -21.8670   -3.9680   23.7000 C   0  0  0  0  0  3  0  0  0  0  0  0
  -21.9460   -4.7920   22.5650 C   0  0  0  0  0  0  0  0  0  0  0  0
  -22.2940   -4.2570   21.3690 F   0  0  0  0  0  0  0  0  0  0  0  0
  -21.4040   -3.7160   26.0300 F   0  0  0  0  0  0  0  0  0  0  0  0
  -22.7360  -13.5590   21.1710 C   0  0  0  0  0  0  0  0  0  0  0  0
  -22.0140  -12.8630   22.0410 N   0  0  0  0  0  0  0  0  0  0  0  0
  -22.2940  -14.5800   20.6480 O   0  0  0  0  0  0  0  0  0  0  0  0
  -22.3880  -12.0390   22.4880 H   0  0  0  0  0  0  0  0  0  0  0  0
  -21.0750  -13.1580   22.2670 H   0  0  0  0  0  0  0  0  0  0  0  0
  -25.3500  -15.2340   20.3400 N   0  0  0  0  0  0  0  0  0  0  0  0
  -24.5790  -15.8820   20.4560 H   0  0  0  0  0  0  0  0  0  0  0  0
  -26.2000  -15.6810   20.0210 H   0  0  0  0  0  0  0  0  0  0  0  0
  -27.9190  -24.3980   20.4860 C   0  0  0  0  0  2  0  0  0  0  0  0
  -28.2290  -25.9680   20.2370 O   0  0  0  0  0  0  0  0  0  0  0  0
  -24.6380  -31.8600   23.1960 C   0  0  0  0  0  0  0  0  0  0  0  0
  -27.1990  -27.0250   20.2080 C   0  0  0  0  0  0  0  0  0  0  0  0
  -23.4400  -30.4520   21.5710 C   0  0  0  0  0  3  0  0  0  0  0  0
  -24.8860  -28.8520   20.1570 C   0  0  0  0  0  0  0  0  0  0  0  0
  -26.0020  -30.6880   21.4080 C   0  0  0  0  0  2  0  0  0  0  0  0
  -26.0740  -29.2790   20.7650 C   0  0  0  0  0  0  0  0  0  0  0  0
  -27.2290  -28.3860   20.7630 C   0  0  0  0  0  3  0  0  0  0  0  0
  -25.9810  -26.7310   19.5550 C   0  0  0  0  0  3  0  0  0  0  0  0
  -24.8610  -27.5970   19.5310 C   0  0  0  0  0  3  0  0  0  0  0  0
  -23.6630  -29.7640   20.1990 C   0  0  0  0  0  2  0  0  0  0  0  0
  -24.7140  -31.0250   22.1130 N   0  0  0  0  0  0  0  0  0  0  0  0
  -23.5490  -32.1510   23.7190 O   0  0  0  0  0  0  0  0  0  0  0  0
  -22.7540  -29.4580   22.5440 C   0  0  0  0  0  0  0  0  0  0  0  0
  -21.4220  -29.2960   22.4270 N   0  0  0  0  0  0  0  0  0  0  0  0
  -23.4240  -28.8350   23.3700 O   0  0  0  0  0  0  0  0  0  0  0  0
  -20.9350  -29.8500   21.7360 H   0  0  0  0  0  0  0  0  0  0  0  0
  -18.0400  -28.1000   22.9580 C   0  0  0  0  0  0  0  0  0  0  0  0
  -20.6010  -28.3640   23.2080 C   0  0  0  0  0  3  0  0  0  0  0  0
  -20.6990  -26.9290   22.6420 C   0  0  0  0  0  2  0  0  0  0  0  0
  -19.5920  -26.6010   21.6350 C   0  0  0  0  0  2  0  0  0  0  0  0
  -18.2140  -26.7480   22.2860 C   0  0  0  0  0  2  0  0  0  0  0  0
  -19.1610  -28.8650   23.3760 C   0  0  0  0  0  0  0  0  0  0  0  0
  -18.9430  -30.1280   23.9680 C   0  0  0  0  0  3  0  0  0  0  0  0
  -17.6380  -30.6250   24.1460 C   0  0  0  0  0  3  0  0  0  0  0  0
  -16.5330  -29.8580   23.7410 C   0  0  0  0  0  3  0  0  0  0  0  0
  -16.7340  -28.5970   23.1520 C   0  0  0  0  0  3  0  0  0  0  0  0
  -25.9110  -32.5070   23.8210 C   0  0  0  0  0  3  0  0  0  0  0  0
  -26.4350  -31.7370   25.0960 C   0  0  1  0  0  0  0  0  0  0  0  0
  -25.3460  -31.4960   26.1680 C   0  0  0  0  0  1  0  0  0  0  0  0
  -27.0230  -30.3620   24.7090 C   0  0  0  0  0  1  0  0  0  0  0  0
  -27.5840  -32.5380   25.7530 C   0  0  0  0  0  1  0  0  0  0  0  0
  -25.5860  -33.9020   24.1640 N   0  0  0  0  0  0  0  0  0  0  0  0
  -25.9060  -34.9700   23.4200 C   0  0  0  0  0  0  0  0  0  0  0  0
  -26.5670  -34.8840   22.3810 O   0  0  0  0  0  0  0  0  0  0  0  0
  -24.9950  -34.0420   24.9700 H   0  0  0  0  0  0  0  0  0  0  0  0
  -24.1610  -36.7600   23.1170 C   0  0  0  0  0  1  0  0  0  0  0  0
  -25.4170  -36.3500   23.9030 C   0  0  0  0  0  3  0  0  0  0  0  0
  -27.5570  -37.2420   24.7130 C   0  0  0  0  0  1  0  0  0  0  0  0
  -26.4390  -37.4120   23.7880 N   0  0  0  0  0  0  0  0  0  0  0  0
  -26.0280  -38.3270   23.9520 H   0  0  0  0  0  0  0  0  0  0  0  0
  1 46  1  0
  1  3  1  0
  2  1  2  0
  4  6  1  0
  4  5  1  0
  5  8  2  0
  6  9  1  0
  8 10  1  0
  8  7  1  0
  9  3  1  0
  9  7  1  0
 11 16  1  0
 12 13  1  0
 12 11  1  0
 14 13  1  0
 14 21  1  0
 14 15  1  0
 16 10  1  0
 16 15  1  0
 17 10  2  0
 18 19  2  0
 19 38  1  0
 20 19  1  0
 20 23  1  0
 21 18  1  0
 21 22  1  0
 22 20  2  0
 23 24  1  0
 24 25  2  0
 26 29  1  0
 26 25  1  0
 27 26  2  0
 28 27  1  0
 28 23  2  0
 29 30  1  0
 30 31  1  0
 31 32  2  0
 33 32  1  0
 33 37  1  0
 34 33  2  0
 35 30  2  0
 35 34  1  0
 36 35  1  0
 38 39  1  0
 39 42  1  0
 39 41  1  0
 40 38  2  0
 43 44  1  0
 43 18  1  0
 45 43  1  0
 47 46  1  0
 48 59  2  0
 49 47  1  0
 49 54  1  0
 50 58  1  0
 50 60  1  0
 51 57  1  0
 51 53  1  0
 52 58  1  0
 53 52  1  0
 54 53  2  0
 55 49  2  0
 56 55  1  0
 56 51  2  0
 57 50  1  0
 58 48  1  0
 60 62  2  0
 61 60  1  0
 63 61  1  0
 64 73  2  0
 64 69  1  0
 65 61  1  0
 65 69  1  0
 66 65  1  0
 67 68  1  0
 67 66  1  0
 68 64  1  0
 69 70  2  0
 70 71  1  0
 72 71  2  0
 73 72  1  0
 74 48  1  0
 74 79  1  0
 74 75  1  0
 75 78  1  1
 75 76  1  0
 77 75  1  0
 79 82  1  0
 80 84  1  0
 80 79  1  0
 81 80  2  0
 84 83  1  0
 86 84  1  0
 86 87  1  0
 86 85  1  0
M  ISO  4   8 100  10 100  46 101  47 101
M  END
>  <TORSDO>  (67) 
F 19

>  <SCORE>  (67) 
-16.160

>  <name>  (67) 
68

>  <ligand_id>  (67) 
68

>  <original_smiles>  (67) 
[H]c1c([H])c([H])c2c(c1[H])C([H])([H])C([H])([H])C([H])([H])C2([H])N([H])C(=O)C1([H])N(C(=O)C([H])(N([H])C(=O)C([H])(N([H])C([H])([H])[H])C([H])([H])[H])C(C([H])([H])[H])(C([H])([H])[H])C([H])([H])[H])C([H])([H])c2c([H])c(OC([H])([H])C(=O)C([H])([H])C3([H])C([H])([H])C([H])([H])C([H])([H])C([H])(C(=O)N4C([H])([H])C([H])([H])C([H])([H])C([H])(n5nc(-c6c([H])c([H])c(Oc7c([H])c([H])c(F)c([H])c7F)c([H])c6[H])c(C(=O)N([H])[H])c5N([H])[H])C4([H])[H])C3([H])[H])c([H])c([H])c2C1([H])[H]

>  <smiles>  (67) 
[H]c1c([H])c([H])c2c(c1[H])C([H])([H])C([H])([H])C([H])([H])C2([H])N([H])C(=O)C1([H])N(C(=O)C([H])(N([H])C(=O)C([H])(N([H])C([H])([H])[H])C([H])([H])[H])C(C([H])([H])[H])(C([H])([H])[H])C([H])([H])[H])C([H])([H])c2c([H])c(OC([H])([H])C(=O)C([H])([H])C3([H])C([H])([H])C([H])([H])C([H])([H])C([H])(C(=O)N4C([H])([H])C([H])([H])C([H])([H])C([H])(n5nc(-c6c([H])c([H])c(Oc7c([H])c([H])c(F)c([H])c7F)c([H])c6[H])c(C(=O)N([H])[H])c5N([H])[H])C4([H])[H])C3([H])[H])c([H])c([H])c2C1([H])[H]

$$$$
69:0:0
     RDKit          3D

 88 96  0  0  1  0  0  0  0  0999 V2000
  -28.6810  -21.1880   18.5630 C   0  0  0  0  0  2  0  0  0  0  0  0
  -29.2380  -19.7430   18.4220 C   0  0  0  0  0  2  0  0  0  0  0  0
  -29.9140  -20.6500   20.5220 C   0  0  0  0  0  2  0  0  0  0  0  0
  -29.4450  -21.9690   19.6610 C   0  0  0  0  0  3  0  0  0  0  0  0
  -29.5660  -19.2020   19.8230 C   0  0  0  0  0  3  0  0  0  0  0  0
  -28.5510  -23.3330   20.0900 C   0  0  0  0  0  2  0  0  0  0  0  0
  -28.9860  -24.8070   20.7290 C   0  0  0  0  0  2  0  0  0  0  0  0
  -28.8420  -26.2240   20.1420 O   0  0  0  0  0  0  0  0  0  0  0  0
  -24.6400  -31.4940   23.1010 C   0  0  0  0  0  0  0  0  0  0  0  0
  -27.6660  -27.0380   20.1590 C   0  0  0  0  0  0  0  0  0  0  0  0
  -23.6090  -30.0580   21.3770 C   0  0  0  0  0  3  0  0  0  0  0  0
  -25.2220  -28.5870   20.0230 C   0  0  0  0  0  0  0  0  0  0  0  0
  -26.1390  -30.4960   21.3390 C   0  0  0  0  0  2  0  0  0  0  0  0
  -26.3340  -29.1190   20.6870 C   0  0  0  0  0  0  0  0  0  0  0  0
  -27.5590  -28.3630   20.7320 C   0  0  0  0  0  3  0  0  0  0  0  0
  -26.5200  -26.5780   19.4780 C   0  0  0  0  0  3  0  0  0  0  0  0
  -25.3210  -27.3260   19.4080 C   0  0  0  0  0  3  0  0  0  0  0  0
  -23.9400  -29.4060   20.0070 C   0  0  0  0  0  2  0  0  0  0  0  0
  -24.8110  -30.7040   21.9960 N   0  0  0  0  0  0  0  0  0  0  0  0
  -23.5130  -31.7030   23.5790 O   0  0  0  0  0  0  0  0  0  0  0  0
  -22.9450  -28.9960   22.2910 C   0  0  0  0  0  0  0  0  0  0  0  0
  -21.6400  -28.7490   22.0930 N   0  0  0  0  0  0  0  0  0  0  0  0
  -23.6140  -28.3970   23.1390 O   0  0  0  0  0  0  0  0  0  0  0  0
  -21.1600  -29.2860   21.3850 H   0  0  0  0  0  0  0  0  0  0  0  0
  -18.3140  -27.3530   22.4060 C   0  0  0  0  0  0  0  0  0  0  0  0
  -20.8380  -27.7500   22.8040 C   0  0  0  0  0  3  0  0  0  0  0  0
  -21.0480  -26.3400   22.2060 C   0  0  0  0  0  2  0  0  0  0  0  0
  -20.0140  -25.9790   21.1340 C   0  0  0  0  0  2  0  0  0  0  0  0
  -18.5980  -26.0310   21.7140 C   0  0  0  0  0  2  0  0  0  0  0  0
  -19.3660  -28.1680   22.9050 C   0  0  0  0  0  0  0  0  0  0  0  0
  -19.0470  -29.4020   23.5100 C   0  0  0  0  0  3  0  0  0  0  0  0
  -17.7080  -29.8240   23.6250 C   0  0  0  0  0  3  0  0  0  0  0  0
  -16.6710  -29.0070   23.1430 C   0  0  0  0  0  3  0  0  0  0  0  0
  -16.9750  -27.7730   22.5390 C   0  0  0  0  0  3  0  0  0  0  0  0
  -25.8450  -32.1910   23.8030 C   0  0  0  0  0  3  0  0  0  0  0  0
  -25.4410  -33.5690   24.1240 N   0  0  0  0  0  0  0  0  0  0  0  0
  -25.7380  -34.6440   23.3810 C   0  0  0  0  0  0  0  0  0  0  0  0
  -26.4470  -34.5830   22.3730 O   0  0  0  0  0  0  0  0  0  0  0  0
  -24.8090  -33.6830   24.9040 H   0  0  0  0  0  0  0  0  0  0  0  0
  -23.9110  -36.3280   22.9900 C   0  0  0  0  0  1  0  0  0  0  0  0
  -25.1570  -36.0010   23.8280 C   0  0  0  0  0  3  0  0  0  0  0  0
  -27.2140  -37.0150   24.7040 C   0  0  0  0  0  1  0  0  0  0  0  0
  -26.1260  -37.1140   23.7350 N   0  0  0  0  0  0  0  0  0  0  0  0
  -25.6610  -38.0080   23.8690 H   0  0  0  0  0  0  0  0  0  0  0  0
  -26.3220  -31.4400   25.1060 C   0  0  1  0  0  0  0  0  0  0  0  0
  -25.1820  -31.1430   26.1080 C   0  0  0  0  0  1  0  0  0  0  0  0
  -26.9960  -30.0950   24.7480 C   0  0  0  0  0  1  0  0  0  0  0  0
  -27.3900  -32.2880   25.8380 C   0  0  0  0  0  1  0  0  0  0  0  0
  -30.5250  -17.8090   19.7740 C   0  0  0  0  0  2  0  0  0  0  0  0
  -30.1420  -16.2430   20.2620 C   0  0  0  0  0  3  0  0  0  0  0  0
  -30.7220  -14.8260   19.5600 C   0  0  0  0  0  0  0  0  0  0  0  0
  -30.4570  -12.5570   18.4320 C   0  0  0  0  0  2  0  0  0  0  0  0
  -29.3440  -12.6110   17.3520 C   0  0  0  0  0  2  0  0  0  0  0  0
  -27.9430  -12.3980   17.9630 C   0  0  0  0  0  2  0  0  0  0  0  0
  -27.7450  -13.2230   19.2590 C   0  0  0  0  0  3  0  0  0  0  0  0
  -28.9550  -13.0270   20.2070 C   0  0  0  0  0  2  0  0  0  0  0  0
  -30.1310  -13.5550   19.4980 N   0  0  0  0  0  0  0  0  0  0  0  0
  -31.8170  -14.9120   18.9910 O   0  0  0  0  0  0  0  0  0  0  0  0
  -25.4900  -13.8360   20.3260 C   0  0  0  0  0  0  0  0  0  0  0  0
  -24.4630  -13.0710   20.8040 C   0  0  0  0  0  0  0  0  0  0  0  0
  -24.8740  -11.7130   20.6340 C   0  0  0  0  0  0  0  0  0  0  0  0
  -26.4710  -12.9450   19.9090 N   0  0  0  0  0  0  0  0  0  0  0  0
  -26.1080  -11.6600   20.1470 N   0  0  0  0  0  0  0  0  0  0  0  0
  -24.1370  -10.4620   20.8490 C   0  0  0  0  0  0  0  0  0  0  0  0
  -24.6010   -9.4770   21.7470 C   0  0  0  0  0  3  0  0  0  0  0  0
  -23.8620   -8.2910   21.9520 C   0  0  0  0  0  3  0  0  0  0  0  0
  -22.6450   -8.0830   21.2580 C   0  0  0  0  0  0  0  0  0  0  0  0
  -22.2000   -9.0590   20.3480 C   0  0  0  0  0  3  0  0  0  0  0  0
  -22.9400  -10.2360   20.1400 C   0  0  0  0  0  3  0  0  0  0  0  0
  -21.8770   -6.9520   21.3740 O   0  0  0  0  0  0  0  0  0  0  0  0
  -21.7840   -6.2640   22.5580 C   0  0  0  0  0  0  0  0  0  0  0  0
  -21.3210   -6.8790   23.7420 C   0  0  0  0  0  3  0  0  0  0  0  0
  -21.1740   -6.1170   24.9180 C   0  0  0  0  0  3  0  0  0  0  0  0
  -21.4780   -4.7420   24.9120 C   0  0  0  0  0  0  0  0  0  0  0  0
  -21.9350   -4.1280   23.7320 C   0  0  0  0  0  3  0  0  0  0  0  0
  -22.0830   -4.8870   22.5580 C   0  0  0  0  0  0  0  0  0  0  0  0
  -22.5020   -4.2860   21.4180 F   0  0  0  0  0  0  0  0  0  0  0  0
  -21.3310   -4.0080   26.0400 F   0  0  0  0  0  0  0  0  0  0  0  0
  -23.1340  -13.5690   21.2930 C   0  0  0  0  0  0  0  0  0  0  0  0
  -22.5150  -12.8540   22.2240 N   0  0  0  0  0  0  0  0  0  0  0  0
  -22.6580  -14.6280   20.8820 O   0  0  0  0  0  0  0  0  0  0  0  0
  -22.9130  -11.9970   22.5800 H   0  0  0  0  0  0  0  0  0  0  0  0
  -21.6290  -13.1690   22.5910 H   0  0  0  0  0  0  0  0  0  0  0  0
  -25.6530  -15.2090   20.1920 N   0  0  0  0  0  0  0  0  0  0  0  0
  -24.9340  -15.8700   20.4630 H   0  0  0  0  0  0  0  0  0  0  0  0
  -26.4740  -15.6530   19.8080 H   0  0  0  0  0  0  0  0  0  0  0  0
  -28.5680  -16.8830   22.2220 C   0  0  0  0  0  1  0  0  0  0  0  0
  -28.6940  -16.2580   20.8190 C   0  0  0  0  0  2  0  0  0  0  0  0
  1  4  1  0
  2  1  1  0
  2  5  1  0
  4  6  1  0
  4  3  1  0
  5 49  1  0
  5  3  1  0
  6  7  1  0
  8 10  1  0
  8  7  1  0
  9 20  2  0
 10 15  1  0
 11 19  1  0
 11 21  1  0
 12 14  1  0
 13 19  1  0
 14 15  2  0
 14 13  1  0
 16 10  2  0
 17 16  1  0
 17 12  2  0
 18 12  1  0
 18 11  1  0
 19  9  1  0
 21 23  2  0
 22 21  1  0
 24 22  1  0
 25 34  2  0
 25 30  1  0
 26 22  1  0
 26 30  1  0
 27 26  1  0
 28 29  1  0
 28 27  1  0
 29 25  1  0
 30 31  2  0
 31 32  1  0
 33 32  2  0
 34 33  1  0
 35  9  1  0
 35 36  1  0
 35 45  1  0
 36 39  1  0
 37 41  1  0
 37 36  1  0
 38 37  2  0
 41 40  1  0
 43 41  1  0
 43 44  1  0
 43 42  1  0
 45 48  1  1
 45 46  1  0
 47 45  1  0
 50 49  1  0
 50 88  1  0
 51 50  1  0
 52 57  1  0
 53 54  1  0
 53 52  1  0
 55 54  1  0
 55 62  1  0
 55 56  1  0
 57 51  1  0
 57 56  1  0
 58 51  2  0
 59 60  2  0
 60 79  1  0
 61 60  1  0
 61 64  1  0
 62 63  1  0
 62 59  1  0
 63 61  2  0
 64 65  1  0
 65 66  2  0
 67 70  1  0
 67 66  1  0
 68 67  2  0
 69 68  1  0
 69 64  2  0
 70 71  1  0
 71 72  1  0
 72 73  2  0
 74 73  1  0
 74 78  1  0
 75 74  2  0
 76 71  2  0
 76 75  1  0
 77 76  1  0
 79 80  1  0
 80 82  1  0
 80 83  1  0
 81 79  2  0
 84 59  1  0
 84 85  1  0
 86 84  1  0
 88 87  1  0
M  ISO  4   7 101   8 101  50 100  51 100
M  END
>  <TORSDO>  (68) 
F 21

>  <SCORE>  (68) 
-9.106

>  <name>  (68) 
69

>  <ligand_id>  (68) 
69

>  <original_smiles>  (68) 
[H]c1c([H])c([H])c2c(c1[H])C([H])([H])C([H])([H])C([H])([H])C2([H])N([H])C(=O)C1([H])N(C(=O)C([H])(N([H])C(=O)C([H])(N([H])C([H])([H])[H])C([H])([H])[H])C(C([H])([H])[H])(C([H])([H])[H])C([H])([H])[H])C([H])([H])c2c([H])c(OC([H])([H])C([H])([H])C3([H])C([H])([H])C([H])([H])C([H])(C([H])([H])C([H])(C(=O)N4C([H])([H])C([H])([H])C([H])([H])C([H])(n5nc(-c6c([H])c([H])c(Oc7c([H])c([H])c(F)c([H])c7F)c([H])c6[H])c(C(=O)N([H])[H])c5N([H])[H])C4([H])[H])C([H])([H])C([H])([H])[H])C3([H])[H])c([H])c([H])c2C1([H])[H]

>  <smiles>  (68) 
[H]c1c([H])c([H])c2c(c1[H])C([H])([H])C([H])([H])C([H])([H])C2([H])N([H])C(=O)C1([H])N(C(=O)C([H])(N([H])C(=O)C([H])(N([H])C([H])([H])[H])C([H])([H])[H])C(C([H])([H])[H])(C([H])([H])[H])C([H])([H])[H])C([H])([H])c2c([H])c(OC([H])([H])C([H])([H])C3([H])C([H])([H])C([H])([H])C([H])(C([H])([H])C([H])(C(=O)N4C([H])([H])C([H])([H])C([H])([H])C([H])(n5nc(-c6c([H])c([H])c(Oc7c([H])c([H])c(F)c([H])c7F)c([H])c6[H])c(C(=O)N([H])[H])c5N([H])[H])C4([H])[H])C([H])([H])C([H])([H])[H])C3([H])[H])c([H])c([H])c2C1([H])[H]

$$$$
70:0:0
     RDKit          3D

 91 99  0  0  1  0  0  0  0  0999 V2000
  -30.5110  -15.2810   20.3280 C   0  0  0  0  0  0  0  0  0  0  0  0
  -30.4080  -12.8370   19.4700 C   0  0  0  0  0  2  0  0  0  0  0  0
  -29.5140  -12.6440   18.2210 C   0  0  0  0  0  2  0  0  0  0  0  0
  -28.0580  -12.3920   18.6440 C   0  0  0  0  0  2  0  0  0  0  0  0
  -27.6030  -13.3740   19.7520 C   0  0  0  0  0  3  0  0  0  0  0  0
  -28.6310  -13.5390   20.8930 C   0  0  0  0  0  2  0  0  0  0  0  0
  -29.8830  -14.0030   20.2760 N   0  0  0  0  0  0  0  0  0  0  0  0
  -31.7170  -15.2170   20.0410 O   0  0  0  0  0  0  0  0  0  0  0  0
  -30.1240  -18.9600   21.6710 C   0  0  0  0  0  2  0  0  0  0  0  0
  -30.1850  -17.3600   21.8250 C   0  0  0  0  0  2  0  0  0  0  0  0
  -29.6270  -17.9290   19.6790 C   0  0  0  0  0  3  0  0  0  0  0  0
  -29.2150  -19.3890   20.5030 C   0  0  0  0  0  3  0  0  0  0  0  0
  -29.8960  -16.6150   20.5610 N   0  0  0  0  0  0  0  0  0  0  0  0
  -25.2280  -13.9630   20.4670 C   0  0  0  0  0  0  0  0  0  0  0  0
  -24.1530  -13.1990   20.8260 C   0  0  0  0  0  0  0  0  0  0  0  0
  -24.6090  -11.8450   20.8170 C   0  0  0  0  0  0  0  0  0  0  0  0
  -26.2650  -13.0760   20.2450 N   0  0  0  0  0  0  0  0  0  0  0  0
  -25.9050  -11.7960   20.5250 N   0  0  0  0  0  0  0  0  0  0  0  0
  -23.8680  -10.5910   21.0070 C   0  0  0  0  0  0  0  0  0  0  0  0
  -24.2780   -9.6240   21.9510 C   0  0  0  0  0  3  0  0  0  0  0  0
  -23.5340   -8.4380   22.1310 C   0  0  0  0  0  3  0  0  0  0  0  0
  -22.3640   -8.2110   21.3680 C   0  0  0  0  0  0  0  0  0  0  0  0
  -21.9730   -9.1660   20.4140 C   0  0  0  0  0  3  0  0  0  0  0  0
  -22.7180  -10.3430   20.2310 C   0  0  0  0  0  3  0  0  0  0  0  0
  -21.5930   -7.0780   21.4580 O   0  0  0  0  0  0  0  0  0  0  0  0
  -21.5280   -6.3400   22.6140 C   0  0  0  0  0  0  0  0  0  0  0  0
  -21.1080   -6.9070   23.8370 C   0  0  0  0  0  3  0  0  0  0  0  0
  -20.9880   -6.0980   24.9840 C   0  0  0  0  0  3  0  0  0  0  0  0
  -21.2790   -4.7220   24.9090 C   0  0  0  0  0  0  0  0  0  0  0  0
  -21.6930   -4.1550   23.6910 C   0  0  0  0  0  3  0  0  0  0  0  0
  -21.8130   -4.9620   22.5450 C   0  0  0  0  0  0  0  0  0  0  0  0
  -22.1910   -4.4060   21.3690 F   0  0  0  0  0  0  0  0  0  0  0  0
  -21.1570   -3.9420   26.0090 F   0  0  0  0  0  0  0  0  0  0  0  0
  -22.7570  -13.6930   21.0630 C   0  0  0  0  0  0  0  0  0  0  0  0
  -22.0010  -13.0100   21.9170 N   0  0  0  0  0  0  0  0  0  0  0  0
  -22.3430  -14.7210   20.5280 O   0  0  0  0  0  0  0  0  0  0  0  0
  -22.3490  -12.1820   22.3770 H   0  0  0  0  0  0  0  0  0  0  0  0
  -21.0620  -13.3240   22.1180 H   0  0  0  0  0  0  0  0  0  0  0  0
  -25.3990  -15.3300   20.2780 N   0  0  0  0  0  0  0  0  0  0  0  0
  -24.6260  -15.9800   20.3620 H   0  0  0  0  0  0  0  0  0  0  0  0
  -26.2330  -15.7630   19.8770 H   0  0  0  0  0  0  0  0  0  0  0  0
  -28.4880  -17.6010   18.7090 C   0  0  0  0  0  0  0  0  0  0  0  0
  -28.5250  -18.1500   17.5040 N   0  0  0  0  0  0  0  0  0  0  0  0
  -27.5660  -16.8590   19.0420 O   0  0  0  0  0  0  0  0  0  0  0  0
  -29.2790  -18.7730   17.2460 H   0  0  0  0  0  0  0  0  0  0  0  0
  -27.7950  -17.9580   16.8330 H   0  0  0  0  0  0  0  0  0  0  0  0
  -29.1370  -21.1020   19.9190 C   0  0  0  0  0  2  0  0  0  0  0  0
  -30.0730  -23.0550   21.4510 C   0  0  0  0  0  1  0  0  0  0  0  0
  -28.8240  -22.7350   20.6200 C   0  0  0  0  0  3  0  0  0  0  0  0
  -28.3020  -24.3080   19.9000 C   0  0  0  0  0  2  0  0  0  0  0  0
  -28.3380  -25.8980   20.3430 O   0  0  0  0  0  0  0  0  0  0  0  0
  -24.6860  -31.8400   23.1790 C   0  0  0  0  0  0  0  0  0  0  0  0
  -27.3210  -26.9810   20.2090 C   0  0  0  0  0  0  0  0  0  0  0  0
  -23.5260  -30.4320   21.5260 C   0  0  0  0  0  3  0  0  0  0  0  0
  -25.0070  -28.8380   20.1240 C   0  0  0  0  0  0  0  0  0  0  0  0
  -26.0910  -30.6640   21.4150 C   0  0  0  0  0  2  0  0  0  0  0  0
  -26.1800  -29.2550   20.7630 C   0  0  0  0  0  0  0  0  0  0  0  0
  -27.3280  -28.3440   20.7870 C   0  0  0  0  0  3  0  0  0  0  0  0
  -26.1230  -26.7200   19.5060 C   0  0  0  0  0  3  0  0  0  0  0  0
  -25.0040  -27.5920   19.4740 C   0  0  0  0  0  3  0  0  0  0  0  0
  -23.7800  -29.7490   20.1530 C   0  0  0  0  0  2  0  0  0  0  0  0
  -24.7890  -31.0060   22.0940 N   0  0  0  0  0  0  0  0  0  0  0  0
  -23.5880  -32.1230   23.6840 O   0  0  0  0  0  0  0  0  0  0  0  0
  -22.8260  -29.4330   22.4840 C   0  0  0  0  0  0  0  0  0  0  0  0
  -21.4950  -29.2800   22.3590 N   0  0  0  0  0  0  0  0  0  0  0  0
  -23.4870  -28.7980   23.3080 O   0  0  0  0  0  0  0  0  0  0  0  0
  -21.0130  -29.8440   21.6720 H   0  0  0  0  0  0  0  0  0  0  0  0
  -18.1010  -28.1030   22.8710 C   0  0  0  0  0  0  0  0  0  0  0  0
  -20.6650  -28.3420   23.1230 C   0  0  0  0  0  3  0  0  0  0  0  0
  -20.7500  -26.9150   22.5310 C   0  0  0  0  0  2  0  0  0  0  0  0
  -19.6390  -26.6150   21.5190 C   0  0  0  0  0  2  0  0  0  0  0  0
  -18.2620  -26.7630   22.1730 C   0  0  0  0  0  2  0  0  0  0  0  0
  -19.2290  -28.8520   23.3030 C   0  0  0  0  0  0  0  0  0  0  0  0
  -19.0230  -30.1040   23.9190 C   0  0  0  0  0  3  0  0  0  0  0  0
  -17.7220  -30.6110   24.1050 C   0  0  0  0  0  3  0  0  0  0  0  0
  -16.6100  -29.8610   23.6870 C   0  0  0  0  0  3  0  0  0  0  0  0
  -16.8000  -28.6080   23.0760 C   0  0  0  0  0  3  0  0  0  0  0  0
  -25.9440  -32.4940   23.8280 C   0  0  0  0  0  3  0  0  0  0  0  0
  -26.4410  -31.7290   25.1170 C   0  0  1  0  0  0  0  0  0  0  0  0
  -25.3310  -31.4880   26.1670 C   0  0  0  0  0  1  0  0  0  0  0  0
  -27.0410  -30.3530   24.7470 C   0  0  0  0  0  1  0  0  0  0  0  0
  -27.5750  -32.5330   25.7980 C   0  0  0  0  0  1  0  0  0  0  0  0
  -25.6070  -33.8890   24.1660 N   0  0  0  0  0  0  0  0  0  0  0  0
  -25.9320  -34.9570   23.4270 C   0  0  0  0  0  0  0  0  0  0  0  0
  -26.6090  -34.8740   22.3990 O   0  0  0  0  0  0  0  0  0  0  0  0
  -25.0030  -34.0250   24.9630 H   0  0  0  0  0  0  0  0  0  0  0  0
  -24.1800  -36.7380   23.1000 C   0  0  0  0  0  1  0  0  0  0  0  0
  -25.4290  -36.3370   23.9010 C   0  0  0  0  0  3  0  0  0  0  0  0
  -27.5550  -37.2450   24.7330 C   0  0  0  0  0  1  0  0  0  0  0  0
  -26.4480  -37.4060   23.7930 N   0  0  0  0  0  0  0  0  0  0  0  0
  -26.0300  -38.3180   23.9490 H   0  0  0  0  0  0  0  0  0  0  0  0
  1 13  1  0
  2  7  1  0
  3  4  1  0
  3  2  1  0
  5  4  1  0
  5 17  1  0
  5  6  1  0
  7  1  1  0
  7  6  1  0
  8  1  2  0
  9 10  1  0
 11 42  1  0
 11 12  1  0
 11 13  1  0
 12 47  1  0
 12  9  1  0
 13 10  1  0
 14 15  2  0
 15 34  1  0
 16 15  1  0
 16 19  1  0
 17 14  1  0
 17 18  1  0
 18 16  2  0
 19 20  1  0
 20 21  2  0
 22 25  1  0
 22 21  1  0
 23 22  2  0
 24 23  1  0
 24 19  2  0
 25 26  1  0
 26 27  1  0
 27 28  2  0
 29 28  1  0
 29 33  1  0
 30 29  2  0
 31 26  2  0
 31 30  1  0
 32 31  1  0
 34 35  1  0
 35 38  1  0
 35 37  1  0
 36 34  2  0
 39 40  1  0
 39 14  1  0
 41 39  1  0
 42 44  2  0
 43 42  1  0
 45 43  1  0
 46 43  1  0
 47 49  1  0
 49 48  1  0
 50 51  1  0
 50 49  1  0
 52 63  2  0
 53 51  1  0
 53 58  1  0
 54 62  1  0
 54 64  1  0
 55 61  1  0
 55 57  1  0
 56 62  1  0
 57 58  2  0
 57 56  1  0
 59 53  2  0
 60 59  1  0
 60 55  2  0
 61 54  1  0
 62 52  1  0
 64 66  2  0
 65 64  1  0
 67 65  1  0
 68 77  2  0
 68 73  1  0
 69 65  1  0
 69 73  1  0
 70 69  1  0
 71 72  1  0
 71 70  1  0
 72 68  1  0
 73 74  2  0
 74 75  1  0
 76 75  2  0
 77 76  1  0
 78 52  1  0
 78 83  1  0
 78 79  1  0
 79 82  1  1
 79 80  1  0
 81 79  1  0
 83 86  1  0
 84 88  1  0
 84 83  1  0
 85 84  2  0
 88 87  1  0
 90 88  1  0
 90 91  1  0
 90 89  1  0
M  ISO  4   1 100  13 100  50 101  51 101
M  END
>  <TORSDO>  (69) 
F 19

>  <SCORE>  (69) 
-16.356

>  <name>  (69) 
70

>  <ligand_id>  (69) 
70

>  <original_smiles>  (69) 
[H]c1c([H])c([H])c2c(c1[H])C([H])([H])C([H])([H])C([H])([H])C2([H])N([H])C(=O)C1([H])N(C(=O)C([H])(N([H])C(=O)C([H])(N([H])C([H])([H])[H])C([H])([H])[H])C(C([H])([H])[H])(C([H])([H])[H])C([H])([H])[H])C([H])([H])c2c([H])c(OC([H])([H])C([H])(C([H])([H])[H])C([H])([H])C3([H])C([H])(C(=O)N([H])[H])N(C(=O)N4C([H])([H])C([H])([H])C([H])([H])C([H])(n5nc(-c6c([H])c([H])c(Oc7c([H])c([H])c(F)c([H])c7F)c([H])c6[H])c(C(=O)N([H])[H])c5N([H])[H])C4([H])[H])C([H])([H])C3([H])[H])c([H])c([H])c2C1([H])[H]

>  <smiles>  (69) 
[H]c1c([H])c([H])c2c(c1[H])C([H])([H])C([H])([H])C([H])([H])C2([H])N([H])C(=O)C1([H])N(C(=O)C([H])(N([H])C(=O)C([H])(N([H])C([H])([H])[H])C([H])([H])[H])C(C([H])([H])[H])(C([H])([H])[H])C([H])([H])[H])C([H])([H])c2c([H])c(OC([H])([H])C([H])(C([H])([H])[H])C([H])([H])C3([H])C([H])(C(=O)N([H])[H])N(C(=O)N4C([H])([H])C([H])([H])C([H])([H])C([H])(n5nc(-c6c([H])c([H])c(Oc7c([H])c([H])c(F)c([H])c7F)c([H])c6[H])c(C(=O)N([H])[H])c5N([H])[H])C4([H])[H])C([H])([H])C3([H])[H])c([H])c([H])c2C1([H])[H]

$$$$
71:0:0
     RDKit          3D

 86 94  0  0  1  0  0  0  0  0999 V2000
  -28.3380  -22.7990   22.0820 C   0  0  0  0  0  1  0  0  0  0  0  0
  -28.8240  -22.9250   20.6310 C   0  0  0  0  0  3  0  0  0  0  0  0
  -30.3310  -20.7050   20.3200 C   0  0  0  0  0  2  0  0  0  0  0  0
  -29.3230  -19.6160   20.5520 C   0  0  0  0  0  3  0  0  0  0  0  0
  -28.9860  -21.2910   20.0010 C   0  0  0  0  0  3  0  0  0  0  0  0
  -29.9330  -18.0740   19.9680 C   0  0  0  0  0  2  0  0  0  0  0  0
  -30.4590  -15.2370   20.1830 C   0  0  0  0  0  0  0  0  0  0  0  0
  -30.3770  -12.8260   19.2740 C   0  0  0  0  0  2  0  0  0  0  0  0
  -29.4350  -12.6910   18.0520 C   0  0  0  0  0  2  0  0  0  0  0  0
  -27.9870  -12.4420   18.5070 C   0  0  0  0  0  2  0  0  0  0  0  0
  -27.5730  -13.3810   19.6680 C   0  0  0  0  0  3  0  0  0  0  0  0
  -28.6400  -13.4700   20.7820 C   0  0  0  0  0  2  0  0  0  0  0  0
  -29.8770  -13.9460   20.1490 N   0  0  0  0  0  0  0  0  0  0  0  0
  -31.6570  -15.2540   19.8710 O   0  0  0  0  0  0  0  0  0  0  0  0
  -29.7100  -16.4880   20.3580 N   0  0  0  0  0  0  0  0  0  0  0  0
  -28.7630  -16.3000   20.6550 H   0  0  0  0  0  0  0  0  0  0  0  0
  -25.2060  -13.9390   20.4380 C   0  0  0  0  0  0  0  0  0  0  0  0
  -24.1500  -13.1590   20.8200 C   0  0  0  0  0  0  0  0  0  0  0  0
  -24.6200  -11.8110   20.7870 C   0  0  0  0  0  0  0  0  0  0  0  0
  -26.2490  -13.0660   20.1880 N   0  0  0  0  0  0  0  0  0  0  0  0
  -25.9090  -11.7800   20.4660 N   0  0  0  0  0  0  0  0  0  0  0  0
  -23.8980  -10.5460   20.9860 C   0  0  0  0  0  0  0  0  0  0  0  0
  -24.3440   -9.5790   21.9150 C   0  0  0  0  0  3  0  0  0  0  0  0
  -23.6200   -8.3810   22.1040 C   0  0  0  0  0  3  0  0  0  0  0  0
  -22.4370   -8.1420   21.3640 C   0  0  0  0  0  0  0  0  0  0  0  0
  -22.0120   -9.0980   20.4230 C   0  0  0  0  0  3  0  0  0  0  0  0
  -22.7370  -10.2860   20.2330 C   0  0  0  0  0  3  0  0  0  0  0  0
  -21.6850   -6.9980   21.4620 O   0  0  0  0  0  0  0  0  0  0  0  0
  -21.6540   -6.2520   22.6140 C   0  0  0  0  0  0  0  0  0  0  0  0
  -21.2480   -6.8060   23.8470 C   0  0  0  0  0  3  0  0  0  0  0  0
  -21.1640   -5.9880   24.9930 C   0  0  0  0  0  3  0  0  0  0  0  0
  -21.4750   -4.6190   24.9040 C   0  0  0  0  0  0  0  0  0  0  0  0
  -21.8740   -4.0640   23.6750 C   0  0  0  0  0  3  0  0  0  0  0  0
  -21.9600   -4.8790   22.5330 C   0  0  0  0  0  0  0  0  0  0  0  0
  -22.3240   -4.3360   21.3470 F   0  0  0  0  0  0  0  0  0  0  0  0
  -21.3880   -3.8310   26.0010 F   0  0  0  0  0  0  0  0  0  0  0  0
  -22.7540  -13.6330   21.0990 C   0  0  0  0  0  0  0  0  0  0  0  0
  -22.0370  -12.9400   21.9750 N   0  0  0  0  0  0  0  0  0  0  0  0
  -22.3090  -14.6540   20.5750 O   0  0  0  0  0  0  0  0  0  0  0  0
  -22.4130  -12.1150   22.4200 H   0  0  0  0  0  0  0  0  0  0  0  0
  -21.1000  -13.2380   22.2060 H   0  0  0  0  0  0  0  0  0  0  0  0
  -25.3620  -15.3100   20.2540 N   0  0  0  0  0  0  0  0  0  0  0  0
  -24.5920  -15.9610   20.3660 H   0  0  0  0  0  0  0  0  0  0  0  0
  -26.1990  -15.7460   19.8880 H   0  0  0  0  0  0  0  0  0  0  0  0
  -28.0560  -24.3860   19.9720 C   0  0  0  0  0  2  0  0  0  0  0  0
  -28.2080  -25.9730   20.3090 O   0  0  0  0  0  0  0  0  0  0  0  0
  -24.6420  -31.8870   23.2250 C   0  0  0  0  0  0  0  0  0  0  0  0
  -27.1850  -27.0380   20.2120 C   0  0  0  0  0  0  0  0  0  0  0  0
  -23.4390  -30.4850   21.5980 C   0  0  0  0  0  3  0  0  0  0  0  0
  -24.8790  -28.8820   20.1710 C   0  0  0  0  0  0  0  0  0  0  0  0
  -26.0000  -30.7070   21.4360 C   0  0  0  0  0  2  0  0  0  0  0  0
  -26.0660  -29.3020   20.7830 C   0  0  0  0  0  0  0  0  0  0  0  0
  -27.2140  -28.3980   20.7820 C   0  0  0  0  0  3  0  0  0  0  0  0
  -25.9700  -26.7590   19.5470 C   0  0  0  0  0  3  0  0  0  0  0  0
  -24.8510  -27.6310   19.5340 C   0  0  0  0  0  3  0  0  0  0  0  0
  -23.6570  -29.7970   20.2220 C   0  0  0  0  0  2  0  0  0  0  0  0
  -24.7150  -31.0520   22.1400 N   0  0  0  0  0  0  0  0  0  0  0  0
  -23.5570  -32.1770   23.7530 O   0  0  0  0  0  0  0  0  0  0  0  0
  -22.7520  -29.4920   22.5710 C   0  0  0  0  0  0  0  0  0  0  0  0
  -21.4220  -29.3260   22.4520 N   0  0  0  0  0  0  0  0  0  0  0  0
  -23.4220  -28.8720   23.4010 O   0  0  0  0  0  0  0  0  0  0  0  0
  -20.9360  -29.8780   21.7600 H   0  0  0  0  0  0  0  0  0  0  0  0
  -18.0450  -28.1090   22.9700 C   0  0  0  0  0  0  0  0  0  0  0  0
  -20.6030  -28.3920   23.2320 C   0  0  0  0  0  3  0  0  0  0  0  0
  -20.7120  -26.9540   22.6730 C   0  0  0  0  0  2  0  0  0  0  0  0
  -19.6120  -26.6160   21.6610 C   0  0  0  0  0  2  0  0  0  0  0  0
  -18.2290  -26.7570   22.3030 C   0  0  0  0  0  2  0  0  0  0  0  0
  -19.1590  -28.8840   23.3920 C   0  0  0  0  0  0  0  0  0  0  0  0
  -18.9290  -30.1460   23.9790 C   0  0  0  0  0  3  0  0  0  0  0  0
  -17.6210  -30.6380   24.1460 C   0  0  0  0  0  3  0  0  0  0  0  0
  -16.5220  -29.8620   23.7390 C   0  0  0  0  0  3  0  0  0  0  0  0
  -16.7340  -28.5990   23.1560 C   0  0  0  0  0  3  0  0  0  0  0  0
  -25.9190  -32.5300   23.8480 C   0  0  0  0  0  3  0  0  0  0  0  0
  -26.4300  -31.7700   25.1350 C   0  0  1  0  0  0  0  0  0  0  0  0
  -25.3360  -31.5470   26.2060 C   0  0  0  0  0  1  0  0  0  0  0  0
  -27.0110  -30.3850   24.7660 C   0  0  0  0  0  1  0  0  0  0  0  0
  -27.5810  -32.5710   25.7890 C   0  0  0  0  0  1  0  0  0  0  0  0
  -25.6020  -33.9310   24.1780 N   0  0  0  0  0  0  0  0  0  0  0  0
  -25.9250  -34.9890   23.4240 C   0  0  0  0  0  0  0  0  0  0  0  0
  -26.5830  -34.8900   22.3850 O   0  0  0  0  0  0  0  0  0  0  0  0
  -25.0080  -34.0780   24.9810 H   0  0  0  0  0  0  0  0  0  0  0  0
  -24.1840  -36.7850   23.1190 C   0  0  0  0  0  1  0  0  0  0  0  0
  -25.4460  -36.3780   23.8970 C   0  0  0  0  0  3  0  0  0  0  0  0
  -27.5980  -37.2720   24.6740 C   0  0  0  0  0  1  0  0  0  0  0  0
  -26.4730  -37.4340   23.7580 N   0  0  0  0  0  0  0  0  0  0  0  0
  -26.0670  -38.3530   23.9150 H   0  0  0  0  0  0  0  0  0  0  0  0
  2  1  1  0
  3  4  1  0
  4  6  1  0
  5  3  1  0
  5  4  1  0
  5  2  1  0
  6 15  1  0
  7 15  1  0
  8 13  1  0
  9 10  1  0
  9  8  1  0
 11 10  1  0
 11 20  1  0
 11 12  1  0
 13  7  1  0
 13 12  1  0
 14  7  2  0
 15 16  1  0
 17 18  2  0
 18 37  1  0
 19 18  1  0
 19 22  1  0
 20 17  1  0
 20 21  1  0
 21 19  2  0
 22 23  1  0
 23 24  2  0
 25 28  1  0
 25 24  1  0
 26 25  2  0
 27 26  1  0
 27 22  2  0
 28 29  1  0
 29 30  1  0
 30 31  2  0
 32 31  1  0
 32 36  1  0
 33 32  2  0
 34 29  2  0
 34 33  1  0
 35 34  1  0
 37 38  1  0
 38 41  1  0
 38 40  1  0
 39 37  2  0
 42 43  1  0
 42 17  1  0
 44 42  1  0
 45 46  1  0
 45  2  1  0
 47 58  2  0
 48 46  1  0
 48 53  1  0
 49 57  1  0
 49 59  1  0
 50 56  1  0
 50 52  1  0
 51 57  1  0
 52 51  1  0
 53 52  2  0
 54 48  2  0
 55 54  1  0
 55 50  2  0
 56 49  1  0
 57 47  1  0
 59 61  2  0
 60 59  1  0
 62 60  1  0
 63 72  2  0
 63 68  1  0
 64 60  1  0
 64 68  1  0
 65 64  1  0
 66 67  1  0
 66 65  1  0
 67 63  1  0
 68 69  2  0
 69 70  1  0
 71 70  2  0
 72 71  1  0
 73 47  1  0
 73 78  1  0
 73 74  1  0
 74 77  1  1
 74 75  1  0
 76 74  1  0
 78 81  1  0
 79 83  1  0
 79 78  1  0
 80 79  2  0
 83 82  1  0
 85 83  1  0
 85 86  1  0
 85 84  1  0
M  ISO  4   7 100  15 100  45 101  46 101
M  END
>  <TORSDO>  (70) 
F 19

>  <SCORE>  (70) 
-15.673

>  <name>  (70) 
71

>  <ligand_id>  (70) 
71

>  <original_smiles>  (70) 
[H]c1c([H])c([H])c2c(c1[H])C([H])([H])C([H])([H])C([H])([H])C2([H])N([H])C(=O)C1([H])N(C(=O)C([H])(N([H])C(=O)C([H])(N([H])C([H])([H])[H])C([H])([H])[H])C(C([H])([H])[H])(C([H])([H])[H])C([H])([H])[H])C([H])([H])c2c([H])c(OC([H])([H])C([H])(C([H])([H])[H])C3([H])C([H])([H])C3([H])C([H])([H])N([H])C(=O)N3C([H])([H])C([H])([H])C([H])([H])C([H])(n4nc(-c5c([H])c([H])c(Oc6c([H])c([H])c(F)c([H])c6F)c([H])c5[H])c(C(=O)N([H])[H])c4N([H])[H])C3([H])[H])c([H])c([H])c2C1([H])[H]

>  <smiles>  (70) 
[H]c1c([H])c([H])c2c(c1[H])C([H])([H])C([H])([H])C([H])([H])C2([H])N([H])C(=O)C1([H])N(C(=O)C([H])(N([H])C(=O)C([H])(N([H])C([H])([H])[H])C([H])([H])[H])C(C([H])([H])[H])(C([H])([H])[H])C([H])([H])[H])C([H])([H])c2c([H])c(OC([H])([H])C([H])(C([H])([H])[H])C3([H])C([H])([H])C3([H])C([H])([H])N([H])C(=O)N3C([H])([H])C([H])([H])C([H])([H])C([H])(n4nc(-c5c([H])c([H])c(Oc6c([H])c([H])c(F)c([H])c6F)c([H])c5[H])c(C(=O)N([H])[H])c4N([H])[H])C3([H])[H])c([H])c([H])c2C1([H])[H]

$$$$
72:0:0
     RDKit          3D

 90 98  0  0  1  0  0  0  0  0999 V2000
  -30.4640  -15.2570   20.2950 C   0  0  0  0  0  0  0  0  0  0  0  0
  -30.4140  -12.8040   19.4820 C   0  0  0  0  0  2  0  0  0  0  0  0
  -29.5090  -12.5710   18.2490 C   0  0  0  0  0  2  0  0  0  0  0  0
  -28.0530  -12.3150   18.6830 C   0  0  0  0  0  2  0  0  0  0  0  0
  -27.5800  -13.3030   19.7780 C   0  0  0  0  0  3  0  0  0  0  0  0
  -28.6230  -13.5020   20.9000 C   0  0  0  0  0  2  0  0  0  0  0  0
  -29.8590  -13.9730   20.2490 N   0  0  0  0  0  0  0  0  0  0  0  0
  -31.7040  -15.2100   20.2630 O   0  0  0  0  0  0  0  0  0  0  0  0
  -27.6080  -17.5770   19.3480 C   0  0  0  0  0  2  0  0  0  0  0  0
  -28.8400  -16.6980   19.0180 C   0  0  0  0  0  2  0  0  0  0  0  0
  -30.1390  -18.1400   20.3600 C   0  0  0  0  0  2  0  0  0  0  0  0
  -29.0470  -19.5330   20.3010 C   0  0  0  0  0  3  0  0  0  0  0  0
  -27.9040  -19.1020   19.3360 C   0  0  0  0  0  3  0  0  0  0  0  0
  -29.7500  -16.5590   20.1630 N   0  0  0  0  0  0  0  0  0  0  0  0
  -25.2060  -13.9070   20.4770 C   0  0  0  0  0  0  0  0  0  0  0  0
  -24.1300  -13.1470   20.8330 C   0  0  0  0  0  0  0  0  0  0  0  0
  -24.5910  -11.7960   20.8400 C   0  0  0  0  0  0  0  0  0  0  0  0
  -26.2470  -13.0170   20.2770 N   0  0  0  0  0  0  0  0  0  0  0  0
  -25.8890  -11.7440   20.5650 N   0  0  0  0  0  0  0  0  0  0  0  0
  -23.8560  -10.5430   21.0280 C   0  0  0  0  0  0  0  0  0  0  0  0
  -24.2770   -9.5810   21.9710 C   0  0  0  0  0  3  0  0  0  0  0  0
  -23.5450   -8.3900   22.1520 C   0  0  0  0  0  3  0  0  0  0  0  0
  -22.3750   -8.1540   21.3910 C   0  0  0  0  0  0  0  0  0  0  0  0
  -21.9750   -9.1050   20.4340 C   0  0  0  0  0  3  0  0  0  0  0  0
  -22.7090  -10.2870   20.2500 C   0  0  0  0  0  3  0  0  0  0  0  0
  -21.6090   -7.0180   21.4830 O   0  0  0  0  0  0  0  0  0  0  0  0
  -21.5590   -6.2760   22.6350 C   0  0  0  0  0  0  0  0  0  0  0  0
  -21.1630   -6.8380   23.8680 C   0  0  0  0  0  3  0  0  0  0  0  0
  -21.0550   -6.0210   25.0120 C   0  0  0  0  0  3  0  0  0  0  0  0
  -21.3380   -4.6440   24.9240 C   0  0  0  0  0  0  0  0  0  0  0  0
  -21.7290   -4.0830   23.6960 C   0  0  0  0  0  3  0  0  0  0  0  0
  -21.8350   -4.8960   22.5550 C   0  0  0  0  0  0  0  0  0  0  0  0
  -22.1900   -4.3460   21.3690 F   0  0  0  0  0  0  0  0  0  0  0  0
  -21.2280   -3.8570   26.0210 F   0  0  0  0  0  0  0  0  0  0  0  0
  -22.7280  -13.6380   21.0500 C   0  0  0  0  0  0  0  0  0  0  0  0
  -21.9680  -12.9710   21.9100 N   0  0  0  0  0  0  0  0  0  0  0  0
  -22.3150  -14.6490   20.4850 O   0  0  0  0  0  0  0  0  0  0  0  0
  -22.3170  -12.1610   22.4030 H   0  0  0  0  0  0  0  0  0  0  0  0
  -21.0240  -13.2830   22.0890 H   0  0  0  0  0  0  0  0  0  0  0  0
  -25.3750  -15.2720   20.2740 N   0  0  0  0  0  0  0  0  0  0  0  0
  -24.6050  -15.9260   20.3690 H   0  0  0  0  0  0  0  0  0  0  0  0
  -26.2390  -15.6980   19.9730 H   0  0  0  0  0  0  0  0  0  0  0  0
  -26.6660  -19.8580   19.6140 N   0  0  0  0  0  4  0  0  0  0  0  0
  -26.3430  -19.6820   20.5470 H   0  0  0  0  0  0  0  0  0  0  0  0
  -25.9420  -19.5960   18.9660 H   0  0  0  0  0  0  0  0  0  0  0  0
  -26.8240  -20.8430   19.5130 H   0  0  0  0  0  0  0  0  0  0  0  0
  -29.3810  -21.2630   20.0070 C   0  0  0  0  0  2  0  0  0  0  0  0
  -28.6400  -22.8080   20.5210 C   0  0  0  0  0  2  0  0  0  0  0  0
  -28.4720  -24.4100   19.7560 C   0  0  0  0  0  2  0  0  0  0  0  0
  -28.3650  -25.9670   20.2510 O   0  0  0  0  0  0  0  0  0  0  0  0
  -24.6740  -31.8320   23.1030 C   0  0  0  0  0  0  0  0  0  0  0  0
  -27.3130  -27.0030   20.1170 C   0  0  0  0  0  0  0  0  0  0  0  0
  -23.5010  -30.4170   21.4600 C   0  0  0  0  0  3  0  0  0  0  0  0
  -24.9760  -28.8200   20.0520 C   0  0  0  0  0  0  0  0  0  0  0  0
  -26.0610  -30.6650   21.3220 C   0  0  0  0  0  2  0  0  0  0  0  0
  -26.1510  -29.2550   20.6780 C   0  0  0  0  0  0  0  0  0  0  0  0
  -27.3080  -28.3630   20.6890 C   0  0  0  0  0  3  0  0  0  0  0  0
  -26.1060  -26.7050   19.4440 C   0  0  0  0  0  3  0  0  0  0  0  0
  -24.9770  -27.5660   19.4180 C   0  0  0  0  0  3  0  0  0  0  0  0
  -23.7420  -29.7200   20.0890 C   0  0  0  0  0  2  0  0  0  0  0  0
  -24.7660  -30.9990   22.0160 N   0  0  0  0  0  0  0  0  0  0  0  0
  -23.5810  -32.1120   23.6190 O   0  0  0  0  0  0  0  0  0  0  0  0
  -22.8110  -29.4230   22.4300 C   0  0  0  0  0  0  0  0  0  0  0  0
  -21.4780  -29.2700   22.3200 N   0  0  0  0  0  0  0  0  0  0  0  0
  -23.4820  -28.7880   23.2460 O   0  0  0  0  0  0  0  0  0  0  0  0
  -20.9890  -29.8310   21.6360 H   0  0  0  0  0  0  0  0  0  0  0  0
  -18.0930  -28.0980   22.8770 C   0  0  0  0  0  0  0  0  0  0  0  0
  -20.6600  -28.3340   23.0970 C   0  0  0  0  0  3  0  0  0  0  0  0
  -20.7350  -26.9070   22.5070 C   0  0  0  0  0  2  0  0  0  0  0  0
  -19.6130  -26.6070   21.5080 C   0  0  0  0  0  2  0  0  0  0  0  0
  -18.2450  -26.7570   22.1780 C   0  0  0  0  0  2  0  0  0  0  0  0
  -19.2260  -28.8440   23.2950 C   0  0  0  0  0  0  0  0  0  0  0  0
  -19.0270  -30.0980   23.9140 C   0  0  0  0  0  3  0  0  0  0  0  0
  -17.7290  -30.6060   24.1130 C   0  0  0  0  0  3  0  0  0  0  0  0
  -16.6120  -29.8560   23.7090 C   0  0  0  0  0  3  0  0  0  0  0  0
  -16.7930  -28.6030   23.0970 C   0  0  0  0  0  3  0  0  0  0  0  0
  -25.9380  -32.4890   23.7380 C   0  0  0  0  0  3  0  0  0  0  0  0
  -26.4650  -31.7150   25.0090 C   0  0  1  0  0  0  0  0  0  0  0  0
  -25.3770  -31.4550   26.0770 C   0  0  0  0  0  1  0  0  0  0  0  0
  -27.0660  -30.3460   24.6140 C   0  0  0  0  0  1  0  0  0  0  0  0
  -27.6040  -32.5180   25.6810 C   0  0  0  0  0  1  0  0  0  0  0  0
  -25.5930  -33.8750   24.0970 N   0  0  0  0  0  0  0  0  0  0  0  0
  -25.9010  -34.9570   23.3700 C   0  0  0  0  0  0  0  0  0  0  0  0
  -26.5660  -34.8960   22.3330 O   0  0  0  0  0  0  0  0  0  0  0  0
  -24.9930  -33.9930   24.8990 H   0  0  0  0  0  0  0  0  0  0  0  0
  -24.1360  -36.7340   23.0850 C   0  0  0  0  0  1  0  0  0  0  0  0
  -25.3930  -36.3270   23.8690 C   0  0  0  0  0  3  0  0  0  0  0  0
  -27.5200  -37.2380   24.6920 C   0  0  0  0  0  1  0  0  0  0  0  0
  -26.4020  -37.4040   23.7690 N   0  0  0  0  0  0  0  0  0  0  0  0
  -25.9770  -38.3100   23.9440 H   0  0  0  0  0  0  0  0  0  0  0  0
  2  7  1  0
  3  4  1  0
  3  2  1  0
  5  4  1  0
  5 18  1  0
  5  6  1  0
  7  1  1  0
  7  6  1  0
  8  1  2  0
 10  9  1  0
 10 14  1  0
 12 47  1  0
 12 11  1  0
 13  9  1  0
 13 43  1  0
 13 12  1  0
 14  1  1  0
 14 11  1  0
 15 16  2  0
 16 17  1  0
 16 35  1  0
 17 20  1  0
 18 15  1  0
 18 19  1  0
 19 17  2  0
 20 21  1  0
 21 22  2  0
 23 26  1  0
 23 22  1  0
 24 23  2  0
 25 24  1  0
 25 20  2  0
 26 27  1  0
 27 28  1  0
 28 29  2  0
 30 29  1  0
 30 34  1  0
 31 30  2  0
 32 27  2  0
 32 31  1  0
 33 32  1  0
 35 36  1  0
 36 39  1  0
 36 38  1  0
 37 35  2  0
 40 41  1  0
 40 15  1  0
 42 40  1  0
 43 44  1  0
 45 43  1  0
 46 43  1  0
 47 48  1  0
 49 50  1  0
 49 48  1  0
 51 62  2  0
 52 50  1  0
 52 57  1  0
 53 61  1  0
 53 63  1  0
 54 60  1  0
 54 56  1  0
 55 61  1  0
 56 57  2  0
 56 55  1  0
 58 52  2  0
 59 58  1  0
 59 54  2  0
 60 53  1  0
 61 51  1  0
 63 65  2  0
 64 63  1  0
 66 64  1  0
 67 76  2  0
 67 72  1  0
 68 64  1  0
 68 72  1  0
 69 68  1  0
 70 71  1  0
 70 69  1  0
 71 67  1  0
 72 73  2  0
 73 74  1  0
 75 74  2  0
 76 75  1  0
 77 51  1  0
 77 82  1  0
 77 78  1  0
 78 81  1  1
 78 79  1  0
 80 78  1  0
 82 85  1  0
 83 87  1  0
 83 82  1  0
 84 83  2  0
 87 86  1  0
 89 87  1  0
 89 90  1  0
 89 88  1  0
M  ISO  4   1 100  14 100  49 101  50 101
M  END
>  <TORSDO>  (71) 
F 19

>  <SCORE>  (71) 
-15.691

>  <name>  (71) 
72

>  <ligand_id>  (71) 
72

>  <original_smiles>  (71) 
[H]c1c([H])c([H])c2c(c1[H])C([H])([H])C([H])([H])C([H])([H])C2([H])N([H])C(=O)C1([H])N(C(=O)C([H])(N([H])C(=O)C([H])(N([H])C([H])([H])[H])C([H])([H])[H])C(C([H])([H])[H])(C([H])([H])[H])C([H])([H])[H])C([H])([H])c2c([H])c(OC([H])([H])C([H])([H])C([H])([H])C3([H])C([H])([H])N(C(=O)N4C([H])([H])C([H])([H])C([H])([H])C([H])(n5nc(-c6c([H])c([H])c(Oc7c([H])c([H])c(F)c([H])c7F)c([H])c6[H])c(C(=O)N([H])[H])c5N([H])[H])C4([H])[H])C([H])([H])C([H])([H])C3([H])[N+]([H])([H])[H])c([H])c([H])c2C1([H])[H]

>  <smiles>  (71) 
[H]c1c([H])c([H])c2c(c1[H])C([H])([H])C([H])([H])C([H])([H])C2([H])N([H])C(=O)C1([H])N(C(=O)C([H])(N([H])C(=O)C([H])(N([H])C([H])([H])[H])C([H])([H])[H])C(C([H])([H])[H])(C([H])([H])[H])C([H])([H])[H])C([H])([H])c2c([H])c(OC([H])([H])C([H])([H])C([H])([H])C3([H])C([H])([H])N(C(=O)N4C([H])([H])C([H])([H])C([H])([H])C([H])(n5nc(-c6c([H])c([H])c(Oc7c([H])c([H])c(F)c([H])c7F)c([H])c6[H])c(C(=O)N([H])[H])c5N([H])[H])C4([H])[H])C([H])([H])C([H])([H])C3([H])[N+]([H])([H])[H])c([H])c([H])c2C1([H])[H]

$$$$
73:0:0
     RDKit          3D

 89 96  0  0  1  0  0  0  0  0999 V2000
  -28.9120  -22.8670   20.4960 C   0  0  0  0  0  3  0  0  0  0  0  0
  -28.9170  -21.1910   19.8730 C   0  0  0  0  0  2  0  0  0  0  0  0
  -29.2980  -19.5960   20.5880 C   0  0  0  0  0  2  0  0  0  0  0  0
  -29.8580  -18.0530   19.8940 C   0  0  0  0  0  2  0  0  0  0  0  0
  -30.4720  -15.2230   20.2040 C   0  0  0  0  0  0  0  0  0  0  0  0
  -30.4060  -12.7980   19.3290 C   0  0  0  0  0  2  0  0  0  0  0  0
  -29.4780  -12.6710   18.0950 C   0  0  0  0  0  2  0  0  0  0  0  0
  -28.0270  -12.4110   18.5370 C   0  0  0  0  0  2  0  0  0  0  0  0
  -27.5990  -13.3480   19.6960 C   0  0  0  0  0  3  0  0  0  0  0  0
  -28.6580  -13.4470   20.8160 C   0  0  0  0  0  2  0  0  0  0  0  0
  -29.8990  -13.9260   20.1890 N   0  0  0  0  0  0  0  0  0  0  0  0
  -31.6680  -15.2410   19.8840 O   0  0  0  0  0  0  0  0  0  0  0  0
  -29.7160  -16.4750   20.3700 N   0  0  0  0  0  0  0  0  0  0  0  0
  -28.7830  -16.2780   20.7040 H   0  0  0  0  0  0  0  0  0  0  0  0
  -25.2260  -13.9060   20.4440 C   0  0  0  0  0  0  0  0  0  0  0  0
  -24.1670  -13.1290   20.8230 C   0  0  0  0  0  0  0  0  0  0  0  0
  -24.6380  -11.7790   20.8030 C   0  0  0  0  0  0  0  0  0  0  0  0
  -26.2710  -13.0320   20.2060 N   0  0  0  0  0  0  0  0  0  0  0  0
  -25.9300  -11.7470   20.4880 N   0  0  0  0  0  0  0  0  0  0  0  0
  -23.9160  -10.5160   21.0040 C   0  0  0  0  0  0  0  0  0  0  0  0
  -24.3580   -9.5530   21.9390 C   0  0  0  0  0  3  0  0  0  0  0  0
  -23.6350   -8.3560   22.1300 C   0  0  0  0  0  3  0  0  0  0  0  0
  -22.4560   -8.1120   21.3870 C   0  0  0  0  0  0  0  0  0  0  0  0
  -22.0340   -9.0620   20.4410 C   0  0  0  0  0  3  0  0  0  0  0  0
  -22.7560  -10.2520   20.2480 C   0  0  0  0  0  3  0  0  0  0  0  0
  -21.7040   -6.9670   21.4880 O   0  0  0  0  0  0  0  0  0  0  0  0
  -21.6740   -6.2240   22.6410 C   0  0  0  0  0  0  0  0  0  0  0  0
  -21.2710   -6.7790   23.8740 C   0  0  0  0  0  3  0  0  0  0  0  0
  -21.1890   -5.9630   25.0210 C   0  0  0  0  0  3  0  0  0  0  0  0
  -21.4980   -4.5930   24.9330 C   0  0  0  0  0  0  0  0  0  0  0  0
  -21.8940   -4.0370   23.7040 C   0  0  0  0  0  3  0  0  0  0  0  0
  -21.9790   -4.8500   22.5610 C   0  0  0  0  0  0  0  0  0  0  0  0
  -22.3400   -4.3050   21.3730 F   0  0  0  0  0  0  0  0  0  0  0  0
  -21.4120   -3.8070   26.0330 F   0  0  0  0  0  0  0  0  0  0  0  0
  -22.7690  -13.6020   21.0910 C   0  0  0  0  0  0  0  0  0  0  0  0
  -22.0460  -12.9130   21.9660 N   0  0  0  0  0  0  0  0  0  0  0  0
  -22.3270  -14.6200   20.5600 O   0  0  0  0  0  0  0  0  0  0  0  0
  -22.4200  -12.0910   22.4170 H   0  0  0  0  0  0  0  0  0  0  0  0
  -21.1090  -13.2120   22.1910 H   0  0  0  0  0  0  0  0  0  0  0  0
  -25.3880  -15.2750   20.2510 N   0  0  0  0  0  0  0  0  0  0  0  0
  -24.6160  -15.9310   20.3020 H   0  0  0  0  0  0  0  0  0  0  0  0
  -26.2390  -15.6950   19.9000 H   0  0  0  0  0  0  0  0  0  0  0  0
  -30.4050  -23.2450   20.6080 C   0  0  0  0  0  2  0  0  0  0  0  0
  -30.6440  -24.3580   21.5430 N   0  0  0  0  0  4  0  0  0  0  0  0
  -30.0810  -25.1540   21.2900 H   0  0  0  0  0  0  0  0  0  0  0  0
  -31.6110  -24.6280   21.5110 H   0  0  0  0  0  0  0  0  0  0  0  0
  -30.4280  -24.0880   22.4870 H   0  0  0  0  0  0  0  0  0  0  0  0
  -28.0890  -24.3480   19.9290 C   0  0  0  0  0  2  0  0  0  0  0  0
  -28.2260  -25.9320   20.3160 O   0  0  0  0  0  0  0  0  0  0  0  0
  -24.6410  -31.8570   23.2350 C   0  0  0  0  0  0  0  0  0  0  0  0
  -27.2020  -27.0020   20.2230 C   0  0  0  0  0  0  0  0  0  0  0  0
  -23.4450  -30.4540   21.6010 C   0  0  0  0  0  3  0  0  0  0  0  0
  -24.8940  -28.8510   20.1820 C   0  0  0  0  0  0  0  0  0  0  0  0
  -26.0090  -30.6720   21.4550 C   0  0  0  0  0  2  0  0  0  0  0  0
  -26.0800  -29.2670   20.7980 C   0  0  0  0  0  0  0  0  0  0  0  0
  -27.2270  -28.3610   20.7990 C   0  0  0  0  0  3  0  0  0  0  0  0
  -25.9870  -26.7280   19.5570 C   0  0  0  0  0  3  0  0  0  0  0  0
  -24.8690  -27.6010   19.5440 C   0  0  0  0  0  3  0  0  0  0  0  0
  -23.6710  -29.7640   20.2290 C   0  0  0  0  0  2  0  0  0  0  0  0
  -24.7190  -31.0210   22.1500 N   0  0  0  0  0  0  0  0  0  0  0  0
  -23.5540  -32.1480   23.7570 O   0  0  0  0  0  0  0  0  0  0  0  0
  -22.7540  -29.4630   22.5720 C   0  0  0  0  0  0  0  0  0  0  0  0
  -21.4230  -29.2990   22.4500 N   0  0  0  0  0  0  0  0  0  0  0  0
  -23.4200  -28.8390   23.4020 O   0  0  0  0  0  0  0  0  0  0  0  0
  -20.9390  -29.8460   21.7510 H   0  0  0  0  0  0  0  0  0  0  0  0
  -18.0400  -28.0970   22.9620 C   0  0  0  0  0  0  0  0  0  0  0  0
  -20.5990  -28.3670   23.2260 C   0  0  0  0  0  3  0  0  0  0  0  0
  -20.7040  -26.9310   22.6610 C   0  0  0  0  0  2  0  0  0  0  0  0
  -19.6020  -26.6020   21.6490 C   0  0  0  0  0  2  0  0  0  0  0  0
  -18.2200  -26.7460   22.2910 C   0  0  0  0  0  2  0  0  0  0  0  0
  -19.1570  -28.8650   23.3870 C   0  0  0  0  0  0  0  0  0  0  0  0
  -18.9330  -30.1290   23.9780 C   0  0  0  0  0  3  0  0  0  0  0  0
  -17.6260  -30.6230   24.1470 C   0  0  0  0  0  3  0  0  0  0  0  0
  -16.5240  -29.8510   23.7390 C   0  0  0  0  0  3  0  0  0  0  0  0
  -16.7320  -28.5910   23.1520 C   0  0  0  0  0  3  0  0  0  0  0  0
  -25.9140  -32.5010   23.8620 C   0  0  0  0  0  3  0  0  0  0  0  0
  -26.4230  -31.7390   25.1490 C   0  0  1  0  0  0  0  0  0  0  0  0
  -25.3240  -31.5140   26.2140 C   0  0  0  0  0  1  0  0  0  0  0  0
  -27.0060  -30.3540   24.7840 C   0  0  0  0  0  1  0  0  0  0  0  0
  -27.5730  -32.5370   25.8070 C   0  0  0  0  0  1  0  0  0  0  0  0
  -25.5990  -33.9010   24.1930 N   0  0  0  0  0  0  0  0  0  0  0  0
  -25.9230  -34.9600   23.4380 C   0  0  0  0  0  0  0  0  0  0  0  0
  -26.5830  -34.8600   22.4010 O   0  0  0  0  0  0  0  0  0  0  0  0
  -25.0090  -34.0510   24.9990 H   0  0  0  0  0  0  0  0  0  0  0  0
  -24.1840  -36.7520   23.1240 C   0  0  0  0  0  1  0  0  0  0  0  0
  -25.4430  -36.3480   23.9080 C   0  0  0  0  0  3  0  0  0  0  0  0
  -27.5890  -37.2430   24.6990 C   0  0  0  0  0  1  0  0  0  0  0  0
  -26.4700  -37.4050   23.7750 N   0  0  0  0  0  0  0  0  0  0  0  0
  -26.0630  -38.3240   23.9290 H   0  0  0  0  0  0  0  0  0  0  0  0
  1  2  1  0
  1 43  1  0
  2  3  1  0
  4 13  1  0
  4  3  1  0
  5 13  1  0
  6 11  1  0
  7  8  1  0
  7  6  1  0
  9  8  1  0
  9 18  1  0
  9 10  1  0
 11  5  1  0
 11 10  1  0
 12  5  2  0
 13 14  1  0
 15 16  2  0
 16 35  1  0
 17 16  1  0
 17 20  1  0
 18 15  1  0
 18 19  1  0
 19 17  2  0
 20 21  1  0
 21 22  2  0
 23 26  1  0
 23 22  1  0
 24 23  2  0
 25 24  1  0
 25 20  2  0
 26 27  1  0
 27 28  1  0
 28 29  2  0
 30 29  1  0
 30 34  1  0
 31 30  2  0
 32 27  2  0
 32 31  1  0
 33 32  1  0
 35 36  1  0
 36 39  1  0
 36 38  1  0
 37 35  2  0
 40 41  1  0
 40 15  1  0
 42 40  1  0
 43 44  1  0
 44 47  1  0
 45 44  1  0
 46 44  1  0
 48 49  1  0
 48  1  1  0
 50 61  2  0
 51 49  1  0
 51 56  1  0
 52 60  1  0
 52 62  1  0
 53 59  1  0
 53 55  1  0
 54 60  1  0
 55 56  2  0
 55 54  1  0
 57 51  2  0
 58 57  1  0
 58 53  2  0
 59 52  1  0
 60 50  1  0
 62 64  2  0
 63 62  1  0
 65 63  1  0
 66 75  2  0
 66 71  1  0
 67 63  1  0
 67 71  1  0
 68 67  1  0
 69 70  1  0
 69 68  1  0
 70 66  1  0
 71 72  2  0
 72 73  1  0
 74 73  2  0
 75 74  1  0
 76 50  1  0
 76 81  1  0
 76 77  1  0
 77 80  1  1
 77 78  1  0
 79 77  1  0
 81 84  1  0
 82 86  1  0
 82 81  1  0
 83 82  2  0
 86 85  1  0
 88 86  1  0
 88 89  1  0
 88 87  1  0
M  ISO  4   5 100  13 100  48 101  49 101
M  END
>  <TORSDO>  (72) 
F 22

>  <SCORE>  (72) 
-15.330

>  <name>  (72) 
73

>  <ligand_id>  (72) 
73

>  <original_smiles>  (72) 
[H]c1c([H])c([H])c2c(c1[H])C([H])([H])C([H])([H])C([H])([H])C2([H])N([H])C(=O)C1([H])N(C(=O)C([H])(N([H])C(=O)C([H])(N([H])C([H])([H])[H])C([H])([H])[H])C(C([H])([H])[H])(C([H])([H])[H])C([H])([H])[H])C([H])([H])c2c([H])c(OC([H])([H])C([H])(C([H])([H])C([H])([H])C([H])([H])N([H])C(=O)N3C([H])([H])C([H])([H])C([H])([H])C([H])(n4nc(-c5c([H])c([H])c(Oc6c([H])c([H])c(F)c([H])c6F)c([H])c5[H])c(C(=O)N([H])[H])c4N([H])[H])C3([H])[H])C([H])([H])[N+]([H])([H])[H])c([H])c([H])c2C1([H])[H]

>  <smiles>  (72) 
[H]c1c([H])c([H])c2c(c1[H])C([H])([H])C([H])([H])C([H])([H])C2([H])N([H])C(=O)C1([H])N(C(=O)C([H])(N([H])C(=O)C([H])(N([H])C([H])([H])[H])C([H])([H])[H])C(C([H])([H])[H])(C([H])([H])[H])C([H])([H])[H])C([H])([H])c2c([H])c(OC([H])([H])C([H])(C([H])([H])C([H])([H])C([H])([H])N([H])C(=O)N3C([H])([H])C([H])([H])C([H])([H])C([H])(n4nc(-c5c([H])c([H])c(Oc6c([H])c([H])c(F)c([H])c6F)c([H])c5[H])c(C(=O)N([H])[H])c4N([H])[H])C3([H])[H])C([H])([H])[N+]([H])([H])[H])c([H])c([H])c2C1([H])[H]

$$$$
74:0:0
     RDKit          3D

 92100  0  0  1  0  0  0  0  0999 V2000
  -29.3610  -20.3430   19.6130 C   0  0  0  0  0  2  0  0  0  0  0  0
  -29.9190  -19.7090   21.8220 C   0  0  0  0  0  2  0  0  0  0  0  0
  -29.4880  -18.9740   20.5210 C   0  0  0  0  0  3  0  0  0  0  0  0
  -28.9170  -21.6860   20.4600 C   0  0  0  0  0  3  0  0  0  0  0  0
  -29.7770  -21.2900   21.7050 C   0  0  0  0  0  3  0  0  0  0  0  0
  -30.8050  -15.0730   20.0400 C   0  0  0  0  0  0  0  0  0  0  0  0
  -30.5900  -12.7610   19.0370 C   0  0  0  0  0  2  0  0  0  0  0  0
  -29.6010  -12.7870   17.8480 C   0  0  0  0  0  2  0  0  0  0  0  0
  -28.1660  -12.5500   18.3550 C   0  0  0  0  0  2  0  0  0  0  0  0
  -27.8150  -13.4510   19.5640 C   0  0  0  0  0  3  0  0  0  0  0  0
  -28.9250  -13.4200   20.6410 C   0  0  0  0  0  2  0  0  0  0  0  0
  -30.1740  -13.8310   19.9900 N   0  0  0  0  0  0  0  0  0  0  0  0
  -31.9940  -15.0850   19.7050 O   0  0  0  0  0  0  0  0  0  0  0  0
  -30.4290  -17.6520   20.1470 C   0  0  0  0  0  0  0  0  0  0  0  0
  -30.0710  -16.2750   20.2730 N   0  0  0  0  0  0  0  0  0  0  0  0
  -31.5460  -17.9510   19.7120 O   0  0  0  0  0  0  0  0  0  0  0  0
  -29.1170  -16.1190   20.5550 H   0  0  0  0  0  0  0  0  0  0  0  0
  -25.4600  -14.0170   20.4070 C   0  0  0  0  0  0  0  0  0  0  0  0
  -24.4160  -13.2350   20.8080 C   0  0  0  0  0  0  0  0  0  0  0  0
  -24.8820  -11.8850   20.7400 C   0  0  0  0  0  0  0  0  0  0  0  0
  -26.4990  -13.1470   20.1140 N   0  0  0  0  0  0  0  0  0  0  0  0
  -26.1600  -11.8580   20.3820 N   0  0  0  0  0  0  0  0  0  0  0  0
  -24.1670  -10.6170   20.9390 C   0  0  0  0  0  0  0  0  0  0  0  0
  -24.5960   -9.6660   21.8910 C   0  0  0  0  0  3  0  0  0  0  0  0
  -23.8780   -8.4650   22.0790 C   0  0  0  0  0  3  0  0  0  0  0  0
  -22.7150   -8.2060   21.3140 C   0  0  0  0  0  0  0  0  0  0  0  0
  -22.3050   -9.1470   20.3530 C   0  0  0  0  0  3  0  0  0  0  0  0
  -23.0240  -10.3390   20.1630 C   0  0  0  0  0  3  0  0  0  0  0  0
  -21.9690   -7.0570   21.4090 O   0  0  0  0  0  0  0  0  0  0  0  0
  -21.8570   -6.3670   22.5920 C   0  0  0  0  0  0  0  0  0  0  0  0
  -21.3290   -6.9660   23.7570 C   0  0  0  0  0  3  0  0  0  0  0  0
  -21.1680   -6.2000   24.9300 C   0  0  0  0  0  3  0  0  0  0  0  0
  -21.5260   -4.8400   24.9380 C   0  0  0  0  0  0  0  0  0  0  0  0
  -22.0460   -4.2400   23.7770 C   0  0  0  0  0  3  0  0  0  0  0  0
  -22.2120   -5.0030   22.6080 C   0  0  0  0  0  0  0  0  0  0  0  0
  -22.6940   -4.4160   21.4850 F   0  0  0  0  0  0  0  0  0  0  0  0
  -21.3650   -4.1040   26.0610 F   0  0  0  0  0  0  0  0  0  0  0  0
  -23.0270  -13.7020   21.1370 C   0  0  0  0  0  0  0  0  0  0  0  0
  -22.3360  -13.0080   22.0310 N   0  0  0  0  0  0  0  0  0  0  0  0
  -22.5630  -14.7230   20.6300 O   0  0  0  0  0  0  0  0  0  0  0  0
  -22.7200  -12.1840   22.4700 H   0  0  0  0  0  0  0  0  0  0  0  0
  -21.4070  -13.3120   22.2920 H   0  0  0  0  0  0  0  0  0  0  0  0
  -25.6090  -15.3920   20.2370 N   0  0  0  0  0  0  0  0  0  0  0  0
  -24.8300  -16.0260   20.3790 H   0  0  0  0  0  0  0  0  0  0  0  0
  -26.4150  -15.8470   19.8300 H   0  0  0  0  0  0  0  0  0  0  0  0
  -29.2940  -21.8810   22.9660 N   0  0  0  0  0  4  0  0  0  0  0  0
  -29.3630  -22.8830   22.9510 H   0  0  0  0  0  0  0  0  0  0  0  0
  -29.8590  -21.5470   23.7260 H   0  0  0  0  0  0  0  0  0  0  0  0
  -28.3390  -21.6280   23.1510 H   0  0  0  0  0  0  0  0  0  0  0  0
  -29.0230  -23.2970   19.8870 C   0  0  0  0  0  3  0  0  0  0  0  0
  -28.1170  -24.6700   20.3450 C   0  0  0  0  0  3  0  0  0  0  0  0
  -28.3480  -26.1930   20.0100 O   0  0  0  0  0  0  0  0  0  0  0  0
  -24.6130  -31.8030   23.0840 C   0  0  0  0  0  0  0  0  0  0  0  0
  -27.2790  -27.1720   19.9880 C   0  0  0  0  0  0  0  0  0  0  0  0
  -23.4440  -30.4130   21.4130 C   0  0  0  0  0  3  0  0  0  0  0  0
  -24.9280  -28.8930   19.9630 C   0  0  0  0  0  0  0  0  0  0  0  0
  -25.9880  -30.7320   21.2580 C   0  0  0  0  0  2  0  0  0  0  0  0
  -26.0950  -29.3470   20.5890 C   0  0  0  0  0  0  0  0  0  0  0  0
  -27.2720  -28.5020   20.5860 C   0  0  0  0  0  3  0  0  0  0  0  0
  -26.0950  -26.8420   19.2980 C   0  0  0  0  0  3  0  0  0  0  0  0
  -24.9430  -27.6600   19.2960 C   0  0  0  0  0  3  0  0  0  0  0  0
  -23.6800  -29.7640   20.0220 C   0  0  0  0  0  2  0  0  0  0  0  0
  -24.7010  -31.0070   21.9730 N   0  0  0  0  0  0  0  0  0  0  0  0
  -23.5200  -32.0530   23.6170 O   0  0  0  0  0  0  0  0  0  0  0  0
  -22.7820  -29.3740   22.3550 C   0  0  0  0  0  0  0  0  0  0  0  0
  -21.4510  -29.2200   22.2580 N   0  0  0  0  0  0  0  0  0  0  0  0
  -23.4710  -28.7140   23.1370 O   0  0  0  0  0  0  0  0  0  0  0  0
  -20.9530  -29.8120   21.6080 H   0  0  0  0  0  0  0  0  0  0  0  0
  -18.0730  -28.0410   22.8320 C   0  0  0  0  0  0  0  0  0  0  0  0
  -20.6450  -28.2580   23.0140 C   0  0  0  0  0  3  0  0  0  0  0  0
  -20.7000  -26.8520   22.3710 C   0  0  0  0  0  2  0  0  0  0  0  0
  -19.5560  -26.5920   21.3860 C   0  0  0  0  0  2  0  0  0  0  0  0
  -18.2030  -26.7240   22.0870 C   0  0  0  0  0  2  0  0  0  0  0  0
  -19.2190  -28.7700   23.2540 C   0  0  0  0  0  0  0  0  0  0  0  0
  -19.0390  -30.0050   23.9140 C   0  0  0  0  0  3  0  0  0  0  0  0
  -17.7470  -30.5100   24.1560 C   0  0  0  0  0  3  0  0  0  0  0  0
  -16.6190  -29.7810   23.7450 C   0  0  0  0  0  3  0  0  0  0  0  0
  -16.7830  -28.5480   23.0900 C   0  0  0  0  0  3  0  0  0  0  0  0
  -25.8770  -32.4500   23.7280 C   0  0  0  0  0  3  0  0  0  0  0  0
  -26.4090  -31.6580   24.9870 C   0  0  1  0  0  0  0  0  0  0  0  0
  -25.3230  -31.3790   26.0520 C   0  0  0  0  0  1  0  0  0  0  0  0
  -27.0160  -30.2990   24.5650 C   0  0  0  0  0  1  0  0  0  0  0  0
  -27.5450  -32.4590   25.6670 C   0  0  0  0  0  1  0  0  0  0  0  0
  -25.5370  -33.8330   24.0990 N   0  0  0  0  0  0  0  0  0  0  0  0
  -25.8460  -34.9160   23.3730 C   0  0  0  0  0  0  0  0  0  0  0  0
  -26.5160  -34.8590   22.3380 O   0  0  0  0  0  0  0  0  0  0  0  0
  -24.9480  -33.9510   24.9100 H   0  0  0  0  0  0  0  0  0  0  0  0
  -24.0860  -36.6920   23.0670 C   0  0  0  0  0  1  0  0  0  0  0  0
  -25.3310  -36.2810   23.8720 C   0  0  0  0  0  3  0  0  0  0  0  0
  -27.4410  -37.1830   24.7450 C   0  0  0  0  0  1  0  0  0  0  0  0
  -26.3440  -37.3580   23.7970 N   0  0  0  0  0  0  0  0  0  0  0  0
  -25.9190  -38.2650   23.9700 H   0  0  0  0  0  0  0  0  0  0  0  0
  1  4  1  0
  1  3  1  0
  3 14  1  0
  3  2  1  0
  4 50  1  0
  4  5  1  0
  5  2  1  0
  5 46  1  0
  6 15  1  0
  7 12  1  0
  8  9  1  0
  8  7  1  0
 10  9  1  0
 10 21  1  0
 10 11  1  0
 12  6  1  0
 12 11  1  0
 13  6  2  0
 14 15  1  0
 15 17  1  0
 16 14  2  0
 18 19  2  0
 19 38  1  0
 20 19  1  0
 20 23  1  0
 21 22  1  0
 21 18  1  0
 22 20  2  0
 23 24  1  0
 24 25  2  0
 26 29  1  0
 26 25  1  0
 27 26  2  0
 28 27  1  0
 28 23  2  0
 29 30  1  0
 30 35  2  0
 30 31  1  0
 31 32  2  0
 32 33  1  0
 33 37  1  0
 34 33  2  0
 35 34  1  0
 36 35  1  0
 38 39  1  0
 39 42  1  0
 39 41  1  0
 40 38  2  0
 43 44  1  0
 43 18  1  0
 45 43  1  0
 46 49  1  0
 46 48  1  0
 47 46  1  0
 50 51  2  0
 52 51  1  0
 53 64  2  0
 54 52  1  0
 54 59  1  0
 55 63  1  0
 55 65  1  0
 56 62  1  0
 56 58  1  0
 57 63  1  0
 58 57  1  0
 59 58  2  0
 60 54  2  0
 61 60  1  0
 61 56  2  0
 62 55  1  0
 63 53  1  0
 65 67  2  0
 66 65  1  0
 68 66  1  0
 69 78  2  0
 69 74  1  0
 70 66  1  0
 70 74  1  0
 71 70  1  0
 72 73  1  0
 72 71  1  0
 73 69  1  0
 74 75  2  0
 75 76  1  0
 77 76  2  0
 78 77  1  0
 79 53  1  0
 79 84  1  0
 79 80  1  0
 80 83  1  1
 80 81  1  0
 82 80  1  0
 84 87  1  0
 85 89  1  0
 85 84  1  0
 86 85  2  0
 89 88  1  0
 91 89  1  0
 91 92  1  0
 91 90  1  0
M  ISO  4   6 100  15 100  51 101  52 101
M  END
>  <TORSDO>  (73) 
F 19

>  <SCORE>  (73) 
-15.175

>  <name>  (73) 
74

>  <ligand_id>  (73) 
74

>  <original_smiles>  (73) 
[H]c1c([H])c([H])c2c(c1[H])C([H])([H])C([H])([H])C([H])([H])C2([H])N([H])C(=O)C1([H])N(C(=O)C([H])(N([H])C(=O)C([H])(N([H])C([H])([H])[H])C([H])([H])[H])C(C([H])([H])[H])(C([H])([H])[H])C([H])([H])[H])C([H])([H])c2c([H])c(OC([H])([H])C([H])([H])C3([H])C([H])([H])C([H])(C(=O)N([H])C(=O)N4C([H])([H])C([H])([H])C([H])([H])C([H])(n5nc(-c6c([H])c([H])c(Oc7c([H])c([H])c(F)c([H])c7F)c([H])c6[H])c(C(=O)N([H])[H])c5N([H])[H])C4([H])[H])C([H])([H])C3([H])[N+]([H])([H])[H])c([H])c([H])c2C1([H])[H]

>  <smiles>  (73) 
[H]c1c([H])c([H])c2c(c1[H])C([H])([H])C([H])([H])C([H])([H])C2([H])N([H])C(=O)C1([H])N(C(=O)C([H])(N([H])C(=O)C([H])(N([H])C([H])([H])[H])C([H])([H])[H])C(C([H])([H])[H])(C([H])([H])[H])C([H])([H])[H])C([H])([H])c2c([H])c(OC([H])([H])C([H])([H])C3([H])C([H])([H])C([H])(C(=O)N([H])C(=O)N4C([H])([H])C([H])([H])C([H])([H])C([H])(n5nc(-c6c([H])c([H])c(Oc7c([H])c([H])c(F)c([H])c7F)c([H])c6[H])c(C(=O)N([H])[H])c5N([H])[H])C4([H])[H])C([H])([H])C3([H])[N+]([H])([H])[H])c([H])c([H])c2C1([H])[H]

$$$$
75:0:0
     RDKit          3D

 90 98  0  0  1  0  0  0  0  0999 V2000
  -30.2810  -21.0110   20.5490 C   0  0  0  0  0  3  0  0  0  0  0  0
  -28.0040  -20.2170   20.6590 C   0  0  0  0  0  3  0  0  0  0  0  0
  -30.7170  -19.6880   20.2770 C   0  0  0  0  0  3  0  0  0  0  0  0
  -28.4410  -18.8890   20.3840 C   0  0  0  0  0  3  0  0  0  0  0  0
  -28.9130  -21.3050   20.7480 C   0  0  0  0  0  0  0  0  0  0  0  0
  -29.8140  -18.5970   20.1960 C   0  0  0  0  0  0  0  0  0  0  0  0
  -28.4440  -22.7200   21.1970 C   0  0  0  0  0  2  0  0  0  0  0  0
  -28.7160  -23.9830   20.2870 C   0  0  0  0  0  2  0  0  0  0  0  0
  -29.0490  -25.6710   22.1910 C   0  0  0  0  0  1  0  0  0  0  0  0
  -28.2540  -25.3680   20.9120 C   0  0  0  0  0  3  0  0  0  0  0  0
  -28.3790  -26.5800   20.0970 O   0  0  0  0  0  0  0  0  0  0  0  0
  -24.5960  -31.8790   23.1680 C   0  0  0  0  0  0  0  0  0  0  0  0
  -27.2620  -27.4080   20.0810 C   0  0  0  0  0  0  0  0  0  0  0  0
  -23.4130  -30.4870   21.5050 C   0  0  0  0  0  3  0  0  0  0  0  0
  -24.8830  -28.9630   20.0740 C   0  0  0  0  0  0  0  0  0  0  0  0
  -25.9450  -30.8380   21.3380 C   0  0  0  0  0  2  0  0  0  0  0  0
  -26.0420  -29.4700   20.6810 C   0  0  0  0  0  0  0  0  0  0  0  0
  -27.2400  -28.7040   20.6690 C   0  0  0  0  0  3  0  0  0  0  0  0
  -26.0880  -26.9370   19.4610 C   0  0  0  0  0  3  0  0  0  0  0  0
  -24.9060  -27.7030   19.4530 C   0  0  0  0  0  3  0  0  0  0  0  0
  -23.6350  -29.8190   20.1230 C   0  0  0  0  0  2  0  0  0  0  0  0
  -24.6690  -31.0850   22.0610 N   0  0  0  0  0  0  0  0  0  0  0  0
  -23.5080  -32.1460   23.6970 O   0  0  0  0  0  0  0  0  0  0  0  0
  -22.7510  -29.4590   22.4530 C   0  0  0  0  0  0  0  0  0  0  0  0
  -21.4250  -29.2880   22.3250 N   0  0  0  0  0  0  0  0  0  0  0  0
  -23.4310  -28.8200   23.2570 O   0  0  0  0  0  0  0  0  0  0  0  0
  -20.9400  -29.8600   21.6480 H   0  0  0  0  0  0  0  0  0  0  0  0
  -18.0410  -28.1130   22.8220 C   0  0  0  0  0  0  0  0  0  0  0  0
  -20.6030  -28.3410   23.0810 C   0  0  0  0  0  3  0  0  0  0  0  0
  -20.6860  -26.9230   22.4710 C   0  0  0  0  0  2  0  0  0  0  0  0
  -19.5730  -26.6330   21.4590 C   0  0  0  0  0  2  0  0  0  0  0  0
  -18.1980  -26.7780   22.1160 C   0  0  0  0  0  2  0  0  0  0  0  0
  -19.1710  -28.8550   23.2610 C   0  0  0  0  0  0  0  0  0  0  0  0
  -18.9690  -30.1060   23.8810 C   0  0  0  0  0  3  0  0  0  0  0  0
  -17.6710  -30.6180   24.0650 C   0  0  0  0  0  3  0  0  0  0  0  0
  -16.5550  -29.8740   23.6410 C   0  0  0  0  0  3  0  0  0  0  0  0
  -16.7420  -28.6240   23.0270 C   0  0  0  0  0  3  0  0  0  0  0  0
  -25.8740  -32.5080   23.8070 C   0  0  0  0  0  3  0  0  0  0  0  0
  -25.5590  -33.9020   24.1490 N   0  0  0  0  0  0  0  0  0  0  0  0
  -25.8940  -34.9620   23.4020 C   0  0  0  0  0  0  0  0  0  0  0  0
  -26.5720  -34.8720   22.3750 O   0  0  0  0  0  0  0  0  0  0  0  0
  -24.9550  -34.0470   24.9450 H   0  0  0  0  0  0  0  0  0  0  0  0
  -24.1620  -36.7540   23.0560 C   0  0  0  0  0  1  0  0  0  0  0  0
  -25.4000  -36.3440   23.8700 C   0  0  0  0  0  3  0  0  0  0  0  0
  -27.5280  -37.2290   24.7210 C   0  0  0  0  0  1  0  0  0  0  0  0
  -26.4310  -37.4010   23.7710 N   0  0  0  0  0  0  0  0  0  0  0  0
  -26.0220  -38.3190   23.9220 H   0  0  0  0  0  0  0  0  0  0  0  0
  -26.3850  -31.7260   25.0780 C   0  0  1  0  0  0  0  0  0  0  0  0
  -25.2850  -31.4730   26.1360 C   0  0  0  0  0  1  0  0  0  0  0  0
  -26.9760  -30.3540   24.6750 C   0  0  0  0  0  1  0  0  0  0  0  0
  -27.5290  -32.5170   25.7550 C   0  0  0  0  0  1  0  0  0  0  0  0
  -30.3470  -17.1920   19.7840 C   0  0  0  0  0  2  0  0  0  0  0  0
  -30.5840  -16.1010   22.1300 C   0  0  0  0  0  1  0  0  0  0  0  0
  -30.1120  -15.9110   20.6780 C   0  0  0  0  0  3  0  0  0  0  0  0
  -30.8020  -14.6300   20.0760 C   0  0  0  0  0  0  0  0  0  0  0  0
  -30.4810  -12.4530   18.9340 C   0  0  0  0  0  2  0  0  0  0  0  0
  -29.4830  -12.6640   17.7730 C   0  0  0  0  0  2  0  0  0  0  0  0
  -28.0300  -12.5230   18.2720 C   0  0  0  0  0  2  0  0  0  0  0  0
  -27.7570  -13.3380   19.5650 C   0  0  0  0  0  3  0  0  0  0  0  0
  -28.8680  -13.1100   20.6150 C   0  0  0  0  0  2  0  0  0  0  0  0
  -30.1490  -13.4350   19.9820 N   0  0  0  0  0  0  0  0  0  0  0  0
  -31.9240  -14.7700   19.5800 O   0  0  0  0  0  0  0  0  0  0  0  0
  -25.4020  -13.9340   20.4040 C   0  0  0  0  0  0  0  0  0  0  0  0
  -24.3520  -13.1590   20.8130 C   0  0  0  0  0  0  0  0  0  0  0  0
  -24.8080  -11.8070   20.7400 C   0  0  0  0  0  0  0  0  0  0  0  0
  -26.4310  -13.0560   20.1070 N   0  0  0  0  0  0  0  0  0  0  0  0
  -26.0820  -11.7700   20.3690 N   0  0  0  0  0  0  0  0  0  0  0  0
  -24.0870  -10.5430   20.9470 C   0  0  0  0  0  0  0  0  0  0  0  0
  -24.5300   -9.5840   21.8830 C   0  0  0  0  0  3  0  0  0  0  0  0
  -23.8090   -8.3850   22.0760 C   0  0  0  0  0  3  0  0  0  0  0  0
  -22.6310   -8.1370   21.3310 C   0  0  0  0  0  0  0  0  0  0  0  0
  -22.2080   -9.0860   20.3830 C   0  0  0  0  0  3  0  0  0  0  0  0
  -22.9300  -10.2770   20.1890 C   0  0  0  0  0  3  0  0  0  0  0  0
  -21.8820   -6.9910   21.4330 O   0  0  0  0  0  0  0  0  0  0  0  0
  -21.8010   -6.2860   22.6070 C   0  0  0  0  0  0  0  0  0  0  0  0
  -21.3330   -6.8780   23.8010 C   0  0  0  0  0  3  0  0  0  0  0  0
  -21.2020   -6.1000   24.9680 C   0  0  0  0  0  3  0  0  0  0  0  0
  -21.5250   -4.7290   24.9430 C   0  0  0  0  0  0  0  0  0  0  0  0
  -21.9850   -4.1370   23.7540 C   0  0  0  0  0  3  0  0  0  0  0  0
  -22.1200   -4.9130   22.5890 C   0  0  0  0  0  0  0  0  0  0  0  0
  -22.5430   -4.3330   21.4410 F   0  0  0  0  0  0  0  0  0  0  0  0
  -21.3900   -3.9810   26.0620 F   0  0  0  0  0  0  0  0  0  0  0  0
  -22.9710  -13.6360   21.1590 C   0  0  0  0  0  0  0  0  0  0  0  0
  -22.2830  -12.9320   22.0500 N   0  0  0  0  0  0  0  0  0  0  0  0
  -22.5130  -14.6690   20.6720 O   0  0  0  0  0  0  0  0  0  0  0  0
  -22.6670  -12.0960   22.4650 H   0  0  0  0  0  0  0  0  0  0  0  0
  -21.3580  -13.2370   22.3220 H   0  0  0  0  0  0  0  0  0  0  0  0
  -25.5620  -15.3080   20.2350 N   0  0  0  0  0  0  0  0  0  0  0  0
  -24.8010  -15.9610   20.3860 H   0  0  0  0  0  0  0  0  0  0  0  0
  -26.3880  -15.7460   19.8500 H   0  0  0  0  0  0  0  0  0  0  0  0
  1  5  1  0
  2  5  2  0
  3  1  2  0
  4  2  1  0
  5  7  1  0
  6  3  1  0
  6  4  2  0
  8 10  1  0
  8  7  1  0
 10  9  1  0
 11 10  1  0
 12 23  2  0
 13 11  1  0
 13 18  1  0
 14 22  1  0
 14 24  1  0
 15 21  1  0
 15 17  1  0
 16 22  1  0
 17 16  1  0
 18 17  2  0
 19 13  2  0
 20 19  1  0
 20 15  2  0
 21 14  1  0
 22 12  1  0
 24 26  2  0
 25 24  1  0
 27 25  1  0
 28 37  2  0
 28 33  1  0
 29 25  1  0
 29 33  1  0
 30 29  1  0
 31 32  1  0
 31 30  1  0
 32 28  1  0
 33 34  2  0
 34 35  1  0
 36 35  2  0
 37 36  1  0
 38 12  1  0
 38 39  1  0
 38 48  1  0
 39 42  1  0
 40 44  1  0
 40 39  1  0
 41 40  2  0
 44 43  1  0
 46 44  1  0
 46 47  1  0
 46 45  1  0
 48 51  1  1
 48 49  1  0
 50 48  1  0
 52  6  1  0
 52 54  1  0
 54 53  1  0
 55 54  1  0
 56 61  1  0
 57 58  1  0
 57 56  1  0
 59 58  1  0
 59 66  1  0
 59 60  1  0
 61 55  1  0
 61 60  1  0
 62 55  2  0
 63 64  2  0
 64 83  1  0
 65 64  1  0
 65 68  1  0
 66 67  1  0
 66 63  1  0
 67 65  2  0
 68 69  1  0
 69 70  2  0
 71 74  1  0
 71 70  1  0
 72 71  2  0
 73 72  1  0
 73 68  2  0
 74 75  1  0
 75 76  1  0
 76 77  2  0
 78 77  1  0
 78 82  1  0
 79 78  2  0
 80 75  2  0
 80 79  1  0
 81 80  1  0
 83 84  1  0
 84 87  1  0
 84 86  1  0
 85 83  2  0
 88 89  1  0
 88 63  1  0
 90 88  1  0
M  ISO  4  10 101  11 101  54 100  55 100
M  END
>  <TORSDO>  (74) 
F 21

>  <SCORE>  (74) 
-13.377

>  <name>  (74) 
75

>  <ligand_id>  (74) 
75

>  <original_smiles>  (74) 
[H]c1c([H])c([H])c2c(c1[H])C([H])([H])C([H])([H])C([H])([H])C2([H])N([H])C(=O)C1([H])N(C(=O)C([H])(N([H])C(=O)C([H])(N([H])C([H])([H])[H])C([H])([H])[H])C(C([H])([H])[H])(C([H])([H])[H])C([H])([H])[H])C([H])([H])c2c([H])c(OC([H])(C([H])([H])[H])C([H])([H])C([H])([H])c3c([H])c([H])c(C([H])([H])C([H])(C(=O)N4C([H])([H])C([H])([H])C([H])([H])C([H])(n5nc(-c6c([H])c([H])c(Oc7c([H])c([H])c(F)c([H])c7F)c([H])c6[H])c(C(=O)N([H])[H])c5N([H])[H])C4([H])[H])C([H])([H])[H])c([H])c3[H])c([H])c([H])c2C1([H])[H]

>  <smiles>  (74) 
[H]c1c([H])c([H])c2c(c1[H])C([H])([H])C([H])([H])C([H])([H])C2([H])N([H])C(=O)C1([H])N(C(=O)C([H])(N([H])C(=O)C([H])(N([H])C([H])([H])[H])C([H])([H])[H])C(C([H])([H])[H])(C([H])([H])[H])C([H])([H])[H])C([H])([H])c2c([H])c(OC([H])(C([H])([H])[H])C([H])([H])C([H])([H])c3c([H])c([H])c(C([H])([H])C([H])(C(=O)N4C([H])([H])C([H])([H])C([H])([H])C([H])(n5nc(-c6c([H])c([H])c(Oc7c([H])c([H])c(F)c([H])c7F)c([H])c6[H])c(C(=O)N([H])[H])c5N([H])[H])C4([H])[H])C([H])([H])[H])c([H])c3[H])c([H])c([H])c2C1([H])[H]

$$$$
76:0:0
     RDKit          3D

 90 98  0  0  1  0  0  0  0  0999 V2000
  -28.2750  -21.9450   20.6870 C   0  0  0  0  0  3  0  0  0  0  0  0
  -30.6330  -21.9090   20.2220 C   0  0  0  0  0  3  0  0  0  0  0  0
  -28.3010  -20.5300   20.8580 C   0  0  0  0  0  3  0  0  0  0  0  0
  -30.6620  -20.4940   20.3950 C   0  0  0  0  0  3  0  0  0  0  0  0
  -29.4490  -22.6790   20.3770 C   0  0  0  0  0  0  0  0  0  0  0  0
  -29.4940  -19.7640   20.7320 C   0  0  0  0  0  0  0  0  0  0  0  0
  -29.5130  -24.2470   20.2880 C   0  0  0  0  0  3  0  0  0  0  0  0
  -28.2150  -25.1110   20.0300 C   0  0  0  0  0  3  0  0  0  0  0  0
  -28.3700  -26.5720   20.1410 O   0  0  0  0  0  0  0  0  0  0  0  0
  -24.6020  -31.8830   23.2290 C   0  0  0  0  0  0  0  0  0  0  0  0
  -27.2190  -27.3710   20.1260 C   0  0  0  0  0  0  0  0  0  0  0  0
  -23.3900  -30.4850   21.5940 C   0  0  0  0  0  3  0  0  0  0  0  0
  -24.8320  -28.9430   20.1560 C   0  0  0  0  0  0  0  0  0  0  0  0
  -25.9230  -30.8210   21.3860 C   0  0  0  0  0  2  0  0  0  0  0  0
  -26.0030  -29.4460   20.7360 C   0  0  0  0  0  0  0  0  0  0  0  0
  -27.1990  -28.6740   20.7070 C   0  0  0  0  0  3  0  0  0  0  0  0
  -26.0190  -26.9080   19.5380 C   0  0  0  0  0  3  0  0  0  0  0  0
  -24.8410  -27.6770   19.5500 C   0  0  0  0  0  3  0  0  0  0  0  0
  -23.5910  -29.8090   20.2130 C   0  0  0  0  0  2  0  0  0  0  0  0
  -24.6580  -31.0790   22.1270 N   0  0  0  0  0  0  0  0  0  0  0  0
  -23.5230  -32.1550   23.7730 O   0  0  0  0  0  0  0  0  0  0  0  0
  -22.7380  -29.4660   22.5570 C   0  0  0  0  0  0  0  0  0  0  0  0
  -21.4130  -29.2810   22.4320 N   0  0  0  0  0  0  0  0  0  0  0  0
  -23.4230  -28.8440   23.3730 O   0  0  0  0  0  0  0  0  0  0  0  0
  -20.9200  -29.8290   21.7410 H   0  0  0  0  0  0  0  0  0  0  0  0
  -18.0440  -28.0710   22.9420 C   0  0  0  0  0  0  0  0  0  0  0  0
  -20.6010  -28.3430   23.2080 C   0  0  0  0  0  3  0  0  0  0  0  0
  -20.7080  -26.9100   22.6350 C   0  0  0  0  0  2  0  0  0  0  0  0
  -19.6060  -26.5800   21.6230 C   0  0  0  0  0  2  0  0  0  0  0  0
  -18.2250  -26.7210   22.2690 C   0  0  0  0  0  2  0  0  0  0  0  0
  -19.1600  -28.8390   23.3690 C   0  0  0  0  0  0  0  0  0  0  0  0
  -18.9370  -30.1020   23.9580 C   0  0  0  0  0  3  0  0  0  0  0  0
  -17.6300  -30.5980   24.1260 C   0  0  0  0  0  3  0  0  0  0  0  0
  -16.5280  -29.8280   23.7170 C   0  0  0  0  0  3  0  0  0  0  0  0
  -16.7370  -28.5660   23.1310 C   0  0  0  0  0  3  0  0  0  0  0  0
  -25.8890  -32.5160   23.8430 C   0  0  0  0  0  3  0  0  0  0  0  0
  -26.4150  -31.7430   25.1140 C   0  0  1  0  0  0  0  0  0  0  0  0
  -25.3290  -31.5020   26.1900 C   0  0  0  0  0  1  0  0  0  0  0  0
  -26.9960  -30.3670   24.7150 C   0  0  0  0  0  1  0  0  0  0  0  0
  -27.5690  -32.5380   25.7700 C   0  0  0  0  0  1  0  0  0  0  0  0
  -25.5780  -33.9120   24.1770 N   0  0  0  0  0  0  0  0  0  0  0  0
  -25.9080  -34.9680   23.4210 C   0  0  0  0  0  0  0  0  0  0  0  0
  -26.5740  -34.8690   22.3870 O   0  0  0  0  0  0  0  0  0  0  0  0
  -24.9810  -34.0610   24.9770 H   0  0  0  0  0  0  0  0  0  0  0  0
  -24.1750  -36.7600   23.0790 C   0  0  0  0  0  1  0  0  0  0  0  0
  -25.4200  -36.3540   23.8850 C   0  0  0  0  0  3  0  0  0  0  0  0
  -27.5580  -37.2360   24.7100 C   0  0  0  0  0  1  0  0  0  0  0  0
  -26.4510  -37.4100   23.7720 N   0  0  0  0  0  0  0  0  0  0  0  0
  -26.0450  -38.3290   23.9280 H   0  0  0  0  0  0  0  0  0  0  0  0
  -29.5140  -18.2370   21.1070 C   0  0  0  0  0  2  0  0  0  0  0  0
  -29.5710  -17.3050   18.7050 C   0  0  0  0  0  1  0  0  0  0  0  0
  -30.1260  -17.1460   20.1320 C   0  0  0  0  0  3  0  0  0  0  0  0
  -30.6800  -14.6330   20.2420 C   0  0  0  0  0  0  0  0  0  0  0  0
  -30.3970  -12.4360   19.1410 C   0  0  0  0  0  2  0  0  0  0  0  0
  -29.4350  -12.6230   17.9480 C   0  0  0  0  0  2  0  0  0  0  0  0
  -27.9670  -12.4790   18.3970 C   0  0  0  0  0  2  0  0  0  0  0  0
  -27.6480  -13.3090   19.6680 C   0  0  0  0  0  3  0  0  0  0  0  0
  -28.7240  -13.1100   20.7610 C   0  0  0  0  0  2  0  0  0  0  0  0
  -30.0310  -13.4320   20.1660 N   0  0  0  0  0  0  0  0  0  0  0  0
  -31.8310  -14.7740   19.8190 O   0  0  0  0  0  0  0  0  0  0  0  0
  -29.9150  -15.7190   20.5630 N   0  0  0  0  0  0  0  0  0  0  0  0
  -29.0020  -15.4960   20.9340 H   0  0  0  0  0  0  0  0  0  0  0  0
  -25.2650  -13.9130   20.4170 C   0  0  0  0  0  0  0  0  0  0  0  0
  -24.2040  -13.1400   20.8030 C   0  0  0  0  0  0  0  0  0  0  0  0
  -24.6650  -11.7880   20.7700 C   0  0  0  0  0  0  0  0  0  0  0  0
  -26.3050  -13.0320   20.1700 N   0  0  0  0  0  0  0  0  0  0  0  0
  -25.9500  -11.7500   20.4420 N   0  0  0  0  0  0  0  0  0  0  0  0
  -23.9420  -10.5270   20.9750 C   0  0  0  0  0  0  0  0  0  0  0  0
  -24.3850   -9.5640   21.9090 C   0  0  0  0  0  3  0  0  0  0  0  0
  -23.6600   -8.3680   22.1010 C   0  0  0  0  0  3  0  0  0  0  0  0
  -22.4790   -8.1250   21.3600 C   0  0  0  0  0  0  0  0  0  0  0  0
  -22.0560   -9.0770   20.4160 C   0  0  0  0  0  3  0  0  0  0  0  0
  -22.7800  -10.2630   20.2210 C   0  0  0  0  0  3  0  0  0  0  0  0
  -21.7270   -6.9800   21.4610 O   0  0  0  0  0  0  0  0  0  0  0  0
  -21.6860   -6.2450   22.6180 C   0  0  0  0  0  0  0  0  0  0  0  0
  -21.2730   -6.8120   23.8450 C   0  0  0  0  0  3  0  0  0  0  0  0
  -21.1790   -6.0050   24.9960 C   0  0  0  0  0  3  0  0  0  0  0  0
  -21.4860   -4.6330   24.9220 C   0  0  0  0  0  0  0  0  0  0  0  0
  -21.8930   -4.0660   23.7020 C   0  0  0  0  0  3  0  0  0  0  0  0
  -21.9900   -4.8710   22.5540 C   0  0  0  0  0  0  0  0  0  0  0  0
  -22.3620   -4.3160   21.3750 F   0  0  0  0  0  0  0  0  0  0  0  0
  -21.3870   -3.8570   26.0260 F   0  0  0  0  0  0  0  0  0  0  0  0
  -22.8110  -13.6200   21.0930 C   0  0  0  0  0  0  0  0  0  0  0  0
  -22.0970  -12.9260   21.9740 N   0  0  0  0  0  0  0  0  0  0  0  0
  -22.3640  -14.6420   20.5750 O   0  0  0  0  0  0  0  0  0  0  0  0
  -22.4710  -12.1020   22.4170 H   0  0  0  0  0  0  0  0  0  0  0  0
  -21.1630  -13.2310   22.2120 H   0  0  0  0  0  0  0  0  0  0  0  0
  -25.4270  -15.2840   20.2340 N   0  0  0  0  0  0  0  0  0  0  0  0
  -24.6580  -15.9360   20.3430 H   0  0  0  0  0  0  0  0  0  0  0  0
  -26.2690  -15.7260   19.8910 H   0  0  0  0  0  0  0  0  0  0  0  0
  1  3  1  0
  2  5  1  0
  2  4  2  0
  4  6  1  0
  5  1  2  0
  6  3  2  0
  6 50  1  0
  7  5  1  0
  8  9  1  0
  8  7  2  0
 10 21  2  0
 11  9  1  0
 11 16  1  0
 12 20  1  0
 12 22  1  0
 13 19  1  0
 13 15  1  0
 14 20  1  0
 15 14  1  0
 16 15  2  0
 17 18  1  0
 17 11  2  0
 18 13  2  0
 19 12  1  0
 20 10  1  0
 22 24  2  0
 23 22  1  0
 25 23  1  0
 26 35  2  0
 26 31  1  0
 27 23  1  0
 27 31  1  0
 28 27  1  0
 29 30  1  0
 29 28  1  0
 30 26  1  0
 31 32  2  0
 32 33  1  0
 34 33  2  0
 35 34  1  0
 36 10  1  0
 36 41  1  0
 36 37  1  0
 37 40  1  1
 37 38  1  0
 39 37  1  0
 41 44  1  0
 42 46  1  0
 42 41  1  0
 43 42  2  0
 46 45  1  0
 48 46  1  0
 48 49  1  0
 48 47  1  0
 52 51  1  0
 52 61  1  0
 52 50  1  0
 53 61  1  0
 54 59  1  0
 55 56  1  0
 55 54  1  0
 57 56  1  0
 57 66  1  0
 57 58  1  0
 59 53  1  0
 59 58  1  0
 60 53  2  0
 61 62  1  0
 63 64  2  0
 64 83  1  0
 65 64  1  0
 65 68  1  0
 66 63  1  0
 66 67  1  0
 67 65  2  0
 68 69  1  0
 69 70  2  0
 71 74  1  0
 71 70  1  0
 72 71  2  0
 73 72  1  0
 73 68  2  0
 74 75  1  0
 75 76  1  0
 76 77  2  0
 78 77  1  0
 78 82  1  0
 79 78  2  0
 80 75  2  0
 80 79  1  0
 81 80  1  0
 83 84  1  0
 84 87  1  0
 84 86  1  0
 85 83  2  0
 88 89  1  0
 88 63  1  0
 90 88  1  0
M  ISO  4   8 101   9 101  53 100  61 100
M  END
>  <TORSDO>  (75) 
F 20

>  <SCORE>  (75) 
-13.651

>  <name>  (75) 
76

>  <ligand_id>  (75) 
76

>  <original_smiles>  (75) 
[H]c1c([H])c([H])c2c(c1[H])C([H])([H])C([H])([H])C([H])([H])C2([H])N([H])C(=O)C1([H])N(C(=O)C([H])(N([H])C(=O)C([H])(N([H])C([H])([H])[H])C([H])([H])[H])C(C([H])([H])[H])(C([H])([H])[H])C([H])([H])[H])C([H])([H])c2c([H])c(OC([H])([H])C([H])([H])c3c([H])c([H])c(C([H])([H])C([H])(N([H])C(=O)N4C([H])([H])C([H])([H])C([H])([H])C([H])(n5nc(-c6c([H])c([H])c(Oc7c([H])c([H])c(F)c([H])c7F)c([H])c6[H])c(C(=O)N([H])[H])c5N([H])[H])C4([H])[H])C([H])([H])[H])c([H])c3[H])c([H])c([H])c2C1([H])[H]

>  <smiles>  (75) 
[H]c1c([H])c([H])c2c(c1[H])C([H])([H])C([H])([H])C([H])([H])C2([H])N([H])C(=O)C1([H])N(C(=O)C([H])(N([H])C(=O)C([H])(N([H])C([H])([H])[H])C([H])([H])[H])C(C([H])([H])[H])(C([H])([H])[H])C([H])([H])[H])C([H])([H])c2c([H])c(OC([H])([H])C([H])([H])c3c([H])c([H])c(C([H])([H])C([H])(N([H])C(=O)N4C([H])([H])C([H])([H])C([H])([H])C([H])(n5nc(-c6c([H])c([H])c(Oc7c([H])c([H])c(F)c([H])c7F)c([H])c6[H])c(C(=O)N([H])[H])c5N([H])[H])C4([H])[H])C([H])([H])[H])c([H])c3[H])c([H])c([H])c2C1([H])[H]

$$$$
77:0:0
     RDKit          3D

 87 95  0  0  1  0  0  0  0  0999 V2000
  -29.3250  -20.5320   21.6800 C   0  0  0  0  0  2  0  0  0  0  0  0
  -28.6750  -22.0100   21.6700 C   0  0  0  0  0  2  0  0  0  0  0  0
  -28.8730  -21.1840   19.5100 C   0  0  0  0  0  2  0  0  0  0  0  0
  -28.9960  -19.6910   20.3950 C   0  0  0  0  0  3  0  0  0  0  0  0
  -28.8500  -22.7370   20.2960 C   0  0  0  0  0  3  0  0  0  0  0  0
  -30.3900  -15.4640   20.1600 C   0  0  0  0  0  0  0  0  0  0  0  0
  -30.3610  -12.9970   19.3210 C   0  0  0  0  0  2  0  0  0  0  0  0
  -29.4230  -12.7630   18.1100 C   0  0  0  0  0  2  0  0  0  0  0  0
  -27.9870  -12.4790   18.5820 C   0  0  0  0  0  2  0  0  0  0  0  0
  -27.5480  -13.4500   19.7060 C   0  0  0  0  0  3  0  0  0  0  0  0
  -28.6160  -13.6320   20.8070 C   0  0  0  0  0  2  0  0  0  0  0  0
  -29.8260  -14.1490   20.1440 N   0  0  0  0  0  0  0  0  0  0  0  0
  -31.6020  -15.4330   19.8990 O   0  0  0  0  0  0  0  0  0  0  0  0
  -29.9330  -18.2050   20.1360 C   0  0  0  0  0  0  0  0  0  0  0  0
  -29.6330  -16.7500   20.2910 N   0  0  0  0  0  0  0  0  0  0  0  0
  -31.0760  -18.4680   19.7550 O   0  0  0  0  0  0  0  0  0  0  0  0
  -28.6700  -16.5940   20.5390 H   0  0  0  0  0  0  0  0  0  0  0  0
  -25.2050  -13.9970   20.5400 C   0  0  0  0  0  0  0  0  0  0  0  0
  -24.1510  -13.2150   20.9210 C   0  0  0  0  0  0  0  0  0  0  0  0
  -24.6110  -11.8640   20.8450 C   0  0  0  0  0  0  0  0  0  0  0  0
  -26.2360  -13.1240   20.2460 N   0  0  0  0  0  0  0  0  0  0  0  0
  -25.8940  -11.8330   20.4980 N   0  0  0  0  0  0  0  0  0  0  0  0
  -23.8820  -10.6000   21.0250 C   0  0  0  0  0  0  0  0  0  0  0  0
  -24.3120   -9.6230   21.9470 C   0  0  0  0  0  3  0  0  0  0  0  0
  -23.5810   -8.4280   22.1170 C   0  0  0  0  0  3  0  0  0  0  0  0
  -22.4050   -8.2010   21.3640 C   0  0  0  0  0  0  0  0  0  0  0  0
  -21.9930   -9.1680   20.4290 C   0  0  0  0  0  3  0  0  0  0  0  0
  -22.7260  -10.3540   20.2570 C   0  0  0  0  0  3  0  0  0  0  0  0
  -21.6450   -7.0590   21.4430 O   0  0  0  0  0  0  0  0  0  0  0  0
  -21.5730   -6.3210   22.5970 C   0  0  0  0  0  0  0  0  0  0  0  0
  -21.0810   -6.8680   23.8020 C   0  0  0  0  0  3  0  0  0  0  0  0
  -20.9580   -6.0550   24.9460 C   0  0  0  0  0  3  0  0  0  0  0  0
  -21.3180   -4.6960   24.8870 C   0  0  0  0  0  0  0  0  0  0  0  0
  -21.8040   -4.1480   23.6870 C   0  0  0  0  0  3  0  0  0  0  0  0
  -21.9270   -4.9580   22.5440 C   0  0  0  0  0  0  0  0  0  0  0  0
  -22.3750   -4.4190   21.3850 F   0  0  0  0  0  0  0  0  0  0  0  0
  -21.1940   -3.9130   25.9840 F   0  0  0  0  0  0  0  0  0  0  0  0
  -22.7630  -13.6920   21.2340 C   0  0  0  0  0  0  0  0  0  0  0  0
  -22.0540  -12.9840   22.1060 N   0  0  0  0  0  0  0  0  0  0  0  0
  -22.3180  -14.7290   20.7410 O   0  0  0  0  0  0  0  0  0  0  0  0
  -22.4290  -12.1470   22.5260 H   0  0  0  0  0  0  0  0  0  0  0  0
  -21.1240  -13.2870   22.3590 H   0  0  0  0  0  0  0  0  0  0  0  0
  -25.3660  -15.3700   20.3870 N   0  0  0  0  0  0  0  0  0  0  0  0
  -24.5970  -16.0180   20.5230 H   0  0  0  0  0  0  0  0  0  0  0  0
  -26.1870  -15.8100   19.9910 H   0  0  0  0  0  0  0  0  0  0  0  0
  -27.9770  -24.3140   19.9650 C   0  0  0  0  0  2  0  0  0  0  0  0
  -28.1790  -25.9390   20.2670 O   0  0  0  0  0  0  0  0  0  0  0  0
  -24.6500  -31.9240   23.2780 C   0  0  0  0  0  0  0  0  0  0  0  0
  -27.1760  -27.0520   20.1990 C   0  0  0  0  0  0  0  0  0  0  0  0
  -23.4420  -30.5440   21.6350 C   0  0  0  0  0  3  0  0  0  0  0  0
  -24.8800  -28.9490   20.1840 C   0  0  0  0  0  0  0  0  0  0  0  0
  -26.0090  -30.7490   21.4730 C   0  0  0  0  0  2  0  0  0  0  0  0
  -26.0720  -29.3430   20.8020 C   0  0  0  0  0  0  0  0  0  0  0  0
  -27.2130  -28.4160   20.7850 C   0  0  0  0  0  3  0  0  0  0  0  0
  -25.9540  -26.8180   19.5280 C   0  0  0  0  0  3  0  0  0  0  0  0
  -24.8470  -27.7090   19.5260 C   0  0  0  0  0  3  0  0  0  0  0  0
  -23.6620  -29.8720   20.2500 C   0  0  0  0  0  2  0  0  0  0  0  0
  -24.7230  -31.1000   22.1810 N   0  0  0  0  0  0  0  0  0  0  0  0
  -23.5640  -32.2110   23.8090 O   0  0  0  0  0  0  0  0  0  0  0  0
  -22.7530  -29.5420   22.5970 C   0  0  0  0  0  0  0  0  0  0  0  0
  -21.4250  -29.3610   22.4630 N   0  0  0  0  0  0  0  0  0  0  0  0
  -23.4200  -28.9280   23.4340 O   0  0  0  0  0  0  0  0  0  0  0  0
  -20.9400  -29.9080   21.7670 H   0  0  0  0  0  0  0  0  0  0  0  0
  -18.0580  -28.0960   22.9420 C   0  0  0  0  0  0  0  0  0  0  0  0
  -20.6100  -28.4130   23.2310 C   0  0  0  0  0  3  0  0  0  0  0  0
  -20.7440  -26.9790   22.6650 C   0  0  0  0  0  2  0  0  0  0  0  0
  -19.6590  -26.6320   21.6400 C   0  0  0  0  0  2  0  0  0  0  0  0
  -18.2680  -26.7490   22.2700 C   0  0  0  0  0  2  0  0  0  0  0  0
  -19.1580  -28.8830   23.3790 C   0  0  0  0  0  0  0  0  0  0  0  0
  -18.9050  -30.1400   23.9710 C   0  0  0  0  0  3  0  0  0  0  0  0
  -17.5870  -30.6110   24.1280 C   0  0  0  0  0  3  0  0  0  0  0  0
  -16.5030  -29.8220   23.7050 C   0  0  0  0  0  3  0  0  0  0  0  0
  -16.7400  -28.5660   23.1180 C   0  0  0  0  0  3  0  0  0  0  0  0
  -25.9250  -32.5620   23.9080 C   0  0  0  0  0  3  0  0  0  0  0  0
  -25.6180  -33.9670   24.2320 N   0  0  0  0  0  0  0  0  0  0  0  0
  -25.9290  -35.0190   23.4640 C   0  0  0  0  0  0  0  0  0  0  0  0
  -26.5660  -34.9100   22.4140 O   0  0  0  0  0  0  0  0  0  0  0  0
  -25.0470  -34.1240   25.0500 H   0  0  0  0  0  0  0  0  0  0  0  0
  -24.1840  -36.8140   23.1790 C   0  0  0  0  0  1  0  0  0  0  0  0
  -25.4630  -36.4140   23.9340 C   0  0  0  0  0  3  0  0  0  0  0  0
  -27.6250  -37.3190   24.6660 C   0  0  0  0  0  1  0  0  0  0  0  0
  -26.4880  -37.4680   23.7630 N   0  0  0  0  0  0  0  0  0  0  0  0
  -26.0840  -38.3890   23.9090 H   0  0  0  0  0  0  0  0  0  0  0  0
  -26.4200  -31.8040   25.2020 C   0  0  1  0  0  0  0  0  0  0  0  0
  -25.3140  -31.5870   26.2600 C   0  0  0  0  0  1  0  0  0  0  0  0
  -27.0000  -30.4160   24.8420 C   0  0  0  0  0  1  0  0  0  0  0  0
  -27.5680  -32.5990   25.8670 C   0  0  0  0  0  1  0  0  0  0  0  0
  2  1  1  0
  3  5  1  0
  3  4  1  0
  4 14  1  0
  4  1  1  0
  5 46  1  0
  5  2  1  0
  6 15  1  0
  7 12  1  0
  8  9  1  0
  8  7  1  0
 10  9  1  0
 10 21  1  0
 10 11  1  0
 12  6  1  0
 12 11  1  0
 13  6  2  0
 14 15  1  0
 15 17  1  0
 16 14  2  0
 18 19  2  0
 19 38  1  0
 20 19  1  0
 20 23  1  0
 21 22  1  0
 21 18  1  0
 22 20  2  0
 23 24  1  0
 24 25  2  0
 26 29  1  0
 26 25  1  0
 27 26  2  0
 28 27  1  0
 28 23  2  0
 29 30  1  0
 30 31  1  0
 31 32  2  0
 33 32  1  0
 33 37  1  0
 34 33  2  0
 35 30  2  0
 35 34  1  0
 36 35  1  0
 38 39  1  0
 39 42  1  0
 39 41  1  0
 40 38  2  0
 43 44  1  0
 43 18  1  0
 45 43  1  0
 46 47  1  0
 48 59  2  0
 49 47  1  0
 49 54  1  0
 50 58  1  0
 50 60  1  0
 51 57  1  0
 51 53  1  0
 52 58  1  0
 53 52  1  0
 54 53  2  0
 55 49  2  0
 56 55  1  0
 56 51  2  0
 57 50  1  0
 58 48  1  0
 60 62  2  0
 61 60  1  0
 63 61  1  0
 64 73  2  0
 64 69  1  0
 65 61  1  0
 65 69  1  0
 66 65  1  0
 67 68  1  0
 67 66  1  0
 68 64  1  0
 69 70  2  0
 70 71  1  0
 72 71  2  0
 73 72  1  0
 74 48  1  0
 74 75  1  0
 74 84  1  0
 75 78  1  0
 76 80  1  0
 76 75  1  0
 77 76  2  0
 80 79  1  0
 82 83  1  0
 82 80  1  0
 82 81  1  0
 84 87  1  1
 84 85  1  0
 86 84  1  0
M  ISO  4   6 100  15 100  46 101  47 101
M  END
>  <TORSDO>  (76) 
F 17

>  <SCORE>  (76) 
-16.439

>  <name>  (76) 
77

>  <ligand_id>  (76) 
77

>  <original_smiles>  (76) 
[H]c1c([H])c([H])c2c(c1[H])C([H])([H])C([H])([H])C([H])([H])C2([H])N([H])C(=O)C1([H])N(C(=O)C([H])(N([H])C(=O)C([H])(N([H])C([H])([H])[H])C([H])([H])[H])C(C([H])([H])[H])(C([H])([H])[H])C([H])([H])[H])C([H])([H])c2c([H])c(OC([H])([H])C3([H])C([H])([H])C([H])([H])C([H])(C(=O)N([H])C(=O)N4C([H])([H])C([H])([H])C([H])([H])C([H])(n5nc(-c6c([H])c([H])c(Oc7c([H])c([H])c(F)c([H])c7F)c([H])c6[H])c(C(=O)N([H])[H])c5N([H])[H])C4([H])[H])C3([H])[H])c([H])c([H])c2C1([H])[H]

>  <smiles>  (76) 
[H]c1c([H])c([H])c2c(c1[H])C([H])([H])C([H])([H])C([H])([H])C2([H])N([H])C(=O)C1([H])N(C(=O)C([H])(N([H])C(=O)C([H])(N([H])C([H])([H])[H])C([H])([H])[H])C(C([H])([H])[H])(C([H])([H])[H])C([H])([H])[H])C([H])([H])c2c([H])c(OC([H])([H])C3([H])C([H])([H])C([H])([H])C([H])(C(=O)N([H])C(=O)N4C([H])([H])C([H])([H])C([H])([H])C([H])(n5nc(-c6c([H])c([H])c(Oc7c([H])c([H])c(F)c([H])c7F)c([H])c6[H])c(C(=O)N([H])[H])c5N([H])[H])C4([H])[H])C3([H])[H])c([H])c([H])c2C1([H])[H]

$$$$
78:0:0
     RDKit          3D

 90 98  0  0  1  0  0  0  0  0999 V2000
  -30.3140  -15.7530   20.2170 C   0  0  0  0  0  0  0  0  0  0  0  0
  -30.3070  -13.2140   19.4160 C   0  0  0  0  0  2  0  0  0  0  0  0
  -29.4360  -12.7410   18.2250 C   0  0  0  0  0  2  0  0  0  0  0  0
  -28.0210  -12.3850   18.6910 C   0  0  0  0  0  2  0  0  0  0  0  0
  -27.4930  -13.4160   19.7150 C   0  0  0  0  0  3  0  0  0  0  0  0
  -28.5170  -13.8200   20.8080 C   0  0  0  0  0  2  0  0  0  0  0  0
  -29.6770  -14.4370   20.1090 N   0  0  0  0  0  0  0  0  0  0  0  0
  -31.5380  -15.5340   20.1490 O   0  0  0  0  0  0  0  0  0  0  0  0
  -28.8480  -18.5390   19.8530 C   0  0  0  0  0  2  0  0  0  0  0  0
  -30.8140  -18.2600   20.9620 C   0  0  0  0  0  3  0  0  0  0  0  0
  -29.0520  -20.2880   20.3860 C   0  0  0  0  0  3  0  0  0  0  0  0
  -30.5530  -19.8490   20.5850 C   0  0  0  0  0  3  0  0  0  0  0  0
  -31.3510  -20.8350   21.4690 C   0  0  0  0  0  1  0  0  0  0  0  0
  -29.8650  -17.2670   20.3180 N   0  0  0  0  0  0  0  0  0  0  0  0
  -25.1350  -13.9300   20.4880 C   0  0  0  0  0  0  0  0  0  0  0  0
  -24.0760  -13.1440   20.8430 C   0  0  0  0  0  0  0  0  0  0  0  0
  -24.5490  -11.7950   20.7980 C   0  0  0  0  0  0  0  0  0  0  0  0
  -26.1820  -13.0650   20.2420 N   0  0  0  0  0  0  0  0  0  0  0  0
  -25.8450  -11.7720   20.4940 N   0  0  0  0  0  0  0  0  0  0  0  0
  -23.8220  -10.5290   20.9760 C   0  0  0  0  0  0  0  0  0  0  0  0
  -24.2190   -9.5720   21.9370 C   0  0  0  0  0  3  0  0  0  0  0  0
  -23.4880   -8.3750   22.1040 C   0  0  0  0  0  3  0  0  0  0  0  0
  -22.3430   -8.1270   21.3090 C   0  0  0  0  0  0  0  0  0  0  0  0
  -21.9670   -9.0690   20.3370 C   0  0  0  0  0  3  0  0  0  0  0  0
  -22.6980  -10.2570   20.1690 C   0  0  0  0  0  3  0  0  0  0  0  0
  -21.5880   -6.9820   21.3830 O   0  0  0  0  0  0  0  0  0  0  0  0
  -21.4500   -6.2840   22.5560 C   0  0  0  0  0  0  0  0  0  0  0  0
  -20.9030   -6.8770   23.7150 C   0  0  0  0  0  3  0  0  0  0  0  0
  -20.7160   -6.1060   24.8790 C   0  0  0  0  0  3  0  0  0  0  0  0
  -21.0620   -4.7410   24.8830 C   0  0  0  0  0  0  0  0  0  0  0  0
  -21.5980   -4.1470   23.7270 C   0  0  0  0  0  3  0  0  0  0  0  0
  -21.7890   -4.9160   22.5670 C   0  0  0  0  0  0  0  0  0  0  0  0
  -22.2860   -4.3330   21.4480 F   0  0  0  0  0  0  0  0  0  0  0  0
  -20.8740   -3.9960   25.9970 F   0  0  0  0  0  0  0  0  0  0  0  0
  -22.6750  -13.6140   21.1020 C   0  0  0  0  0  0  0  0  0  0  0  0
  -21.9450  -12.9150   21.9640 N   0  0  0  0  0  0  0  0  0  0  0  0
  -22.2370  -14.6360   20.5750 O   0  0  0  0  0  0  0  0  0  0  0  0
  -22.3160  -12.0940   22.4140 H   0  0  0  0  0  0  0  0  0  0  0  0
  -21.0030  -13.2120   22.1810 H   0  0  0  0  0  0  0  0  0  0  0  0
  -25.2930  -15.3040   20.3200 N   0  0  0  0  0  0  0  0  0  0  0  0
  -24.5230  -15.9520   20.4310 H   0  0  0  0  0  0  0  0  0  0  0  0
  -26.1500  -15.7510   20.0140 H   0  0  0  0  0  0  0  0  0  0  0  0
  -30.8410  -17.9960   22.4850 C   0  0  0  0  0  0  0  0  0  0  0  0
  -31.9800  -18.2250   23.1360 N   0  0  0  0  0  0  0  0  0  0  0  0
  -29.8470  -17.5790   23.0760 O   0  0  0  0  0  0  0  0  0  0  0  0
  -32.7960  -18.5690   22.6460 H   0  0  0  0  0  0  0  0  0  0  0  0
  -32.0440  -18.0760   24.1350 H   0  0  0  0  0  0  0  0  0  0  0  0
  -28.7090  -22.1070   19.7430 C   0  0  0  0  0  2  0  0  0  0  0  0
  -27.9530  -23.8460   20.2100 C   0  0  0  0  0  2  0  0  0  0  0  0
  -28.0050  -25.5810   19.8690 O   0  0  0  0  0  0  0  0  0  0  0  0
  -24.5320  -31.8200   23.0030 C   0  0  0  0  0  0  0  0  0  0  0  0
  -26.9990  -26.7680   19.9270 C   0  0  0  0  0  0  0  0  0  0  0  0
  -23.2990  -30.4160   21.4080 C   0  0  0  0  0  3  0  0  0  0  0  0
  -24.7070  -28.7790   19.9490 C   0  0  0  0  0  0  0  0  0  0  0  0
  -25.8720  -30.5780   21.1950 C   0  0  0  0  0  2  0  0  0  0  0  0
  -25.9220  -29.1470   20.5390 C   0  0  0  0  0  0  0  0  0  0  0  0
  -27.0540  -28.1750   20.4850 C   0  0  0  0  0  3  0  0  0  0  0  0
  -25.7400  -26.6040   19.2960 C   0  0  0  0  0  3  0  0  0  0  0  0
  -24.6540  -27.5330   19.3000 C   0  0  0  0  0  3  0  0  0  0  0  0
  -23.4980  -29.7230   20.0280 C   0  0  0  0  0  2  0  0  0  0  0  0
  -24.5940  -30.9720   21.9200 N   0  0  0  0  0  0  0  0  0  0  0  0
  -23.4540  -32.1100   23.5530 O   0  0  0  0  0  0  0  0  0  0  0  0
  -22.6250  -29.4320   22.4030 C   0  0  0  0  0  0  0  0  0  0  0  0
  -21.2900  -29.2640   22.3240 N   0  0  0  0  0  0  0  0  0  0  0  0
  -23.3130  -28.8170   23.2210 O   0  0  0  0  0  0  0  0  0  0  0  0
  -20.7850  -29.8190   21.6480 H   0  0  0  0  0  0  0  0  0  0  0  0
  -17.9290  -28.0280   22.9580 C   0  0  0  0  0  0  0  0  0  0  0  0
  -20.4940  -28.3200   23.1200 C   0  0  0  0  0  3  0  0  0  0  0  0
  -20.5840  -26.8890   22.5380 C   0  0  0  0  0  2  0  0  0  0  0  0
  -19.4460  -26.5600   21.5660 C   0  0  0  0  0  2  0  0  0  0  0  0
  -18.0900  -26.6860   22.2650 C   0  0  0  0  0  2  0  0  0  0  0  0
  -19.0550  -28.8030   23.3450 C   0  0  0  0  0  0  0  0  0  0  0  0
  -18.8440  -30.0540   23.9640 C   0  0  0  0  0  3  0  0  0  0  0  0
  -17.5400  -30.5350   24.1920 C   0  0  0  0  0  3  0  0  0  0  0  0
  -16.4280  -29.7580   23.8170 C   0  0  0  0  0  3  0  0  0  0  0  0
  -16.6250  -28.5070   23.2060 C   0  0  0  0  0  3  0  0  0  0  0  0
  -25.8090  -32.4800   23.6060 C   0  0  0  0  0  3  0  0  0  0  0  0
  -25.4800  -33.8700   23.9770 N   0  0  0  0  0  0  0  0  0  0  0  0
  -25.7920  -34.9580   23.2590 C   0  0  0  0  0  0  0  0  0  0  0  0
  -26.4440  -34.8980   22.2150 O   0  0  0  0  0  0  0  0  0  0  0  0
  -24.8980  -33.9900   24.7910 H   0  0  0  0  0  0  0  0  0  0  0  0
  -24.0600  -36.7740   23.0020 C   0  0  0  0  0  1  0  0  0  0  0  0
  -25.3080  -36.3300   23.7820 C   0  0  0  0  0  3  0  0  0  0  0  0
  -27.4450  -37.1940   24.6310 C   0  0  0  0  0  1  0  0  0  0  0  0
  -26.3360  -37.3900   23.7020 N   0  0  0  0  0  0  0  0  0  0  0  0
  -25.9270  -38.3020   23.8820 H   0  0  0  0  0  0  0  0  0  0  0  0
  -26.3690  -31.7120   24.8680 C   0  0  1  0  0  0  0  0  0  0  0  0
  -25.3120  -31.4650   25.9710 C   0  0  0  0  0  1  0  0  0  0  0  0
  -26.9470  -30.3380   24.4670 C   0  0  0  0  0  1  0  0  0  0  0  0
  -27.5370  -32.5140   25.4900 C   0  0  0  0  0  1  0  0  0  0  0  0
  1 14  1  0
  2  7  1  0
  3  4  1  0
  3  2  1  0
  5  4  1  0
  5 18  1  0
  5  6  1  0
  7  1  1  0
  7  6  1  0
  8  1  2  0
  9 14  1  0
  9 11  1  0
 10 43  1  0
 11 48  1  0
 11 12  1  0
 12 10  1  0
 12 13  1  0
 14 10  1  0
 15 16  2  0
 16 35  1  0
 17 16  1  0
 17 20  1  0
 18 15  1  0
 18 19  1  0
 19 17  2  0
 20 21  1  0
 21 22  2  0
 23 26  1  0
 23 22  1  0
 24 23  2  0
 25 24  1  0
 25 20  2  0
 26 27  1  0
 27 32  2  0
 27 28  1  0
 28 29  2  0
 29 30  1  0
 30 34  1  0
 31 30  2  0
 32 31  1  0
 33 32  1  0
 35 36  1  0
 36 39  1  0
 36 38  1  0
 37 35  2  0
 40 41  1  0
 40 15  1  0
 42 40  1  0
 43 45  2  0
 43 44  1  0
 44 47  1  0
 46 44  1  0
 48 49  1  0
 50 52  1  0
 50 49  1  0
 51 62  2  0
 52 57  1  0
 53 61  1  0
 53 63  1  0
 54 60  1  0
 54 56  1  0
 55 61  1  0
 56 55  1  0
 57 56  2  0
 58 59  1  0
 58 52  2  0
 59 54  2  0
 60 53  1  0
 61 51  1  0
 63 65  2  0
 64 63  1  0
 66 64  1  0
 67 76  2  0
 67 72  1  0
 68 64  1  0
 68 72  1  0
 69 68  1  0
 70 71  1  0
 70 69  1  0
 71 67  1  0
 72 73  2  0
 73 74  1  0
 75 74  2  0
 76 75  1  0
 77 51  1  0
 77 78  1  0
 77 87  1  0
 78 81  1  0
 79 83  1  0
 79 78  1  0
 80 79  2  0
 83 82  1  0
 85 83  1  0
 85 86  1  0
 85 84  1  0
 87 90  1  1
 87 88  1  0
 89 87  1  0
M  ISO  4   1 100  14 100  49 101  50 101
M  END
>  <TORSDO>  (77) 
F 18

>  <SCORE>  (77) 
-13.922

>  <name>  (77) 
78

>  <ligand_id>  (77) 
78

>  <original_smiles>  (77) 
[H]c1c([H])c([H])c2c(c1[H])C([H])([H])C([H])([H])C([H])([H])C2([H])N([H])C(=O)C1([H])N(C(=O)C([H])(N([H])C(=O)C([H])(N([H])C([H])([H])[H])C([H])([H])[H])C(C([H])([H])[H])(C([H])([H])[H])C([H])([H])[H])C([H])([H])c2c([H])c(OC([H])([H])C([H])([H])C3([H])C([H])([H])N(C(=O)N4C([H])([H])C([H])([H])C([H])([H])C([H])(n5nc(-c6c([H])c([H])c(Oc7c([H])c([H])c(F)c([H])c7F)c([H])c6[H])c(C(=O)N([H])[H])c5N([H])[H])C4([H])[H])C([H])(C(=O)N([H])[H])C3([H])C([H])([H])[H])c([H])c([H])c2C1([H])[H]

>  <smiles>  (77) 
[H]c1c([H])c([H])c2c(c1[H])C([H])([H])C([H])([H])C([H])([H])C2([H])N([H])C(=O)C1([H])N(C(=O)C([H])(N([H])C(=O)C([H])(N([H])C([H])([H])[H])C([H])([H])[H])C(C([H])([H])[H])(C([H])([H])[H])C([H])([H])[H])C([H])([H])c2c([H])c(OC([H])([H])C([H])([H])C3([H])C([H])([H])N(C(=O)N4C([H])([H])C([H])([H])C([H])([H])C([H])(n5nc(-c6c([H])c([H])c(Oc7c([H])c([H])c(F)c([H])c7F)c([H])c6[H])c(C(=O)N([H])[H])c5N([H])[H])C4([H])[H])C([H])(C(=O)N([H])[H])C3([H])C([H])([H])[H])c([H])c([H])c2C1([H])[H]

$$$$
79:0:0
     RDKit          3D

 87 95  0  0  1  0  0  0  0  0999 V2000
  -26.6940  -22.8980   20.2880 C   0  0  0  0  0  1  0  0  0  0  0  0
  -28.1350  -23.3550   20.5590 C   0  0  0  0  0  3  0  0  0  0  0  0
  -29.1350  -21.9880   20.6270 C   0  0  0  0  0  2  0  0  0  0  0  0
  -28.9010  -20.4500   19.9920 C   0  0  0  0  0  2  0  0  0  0  0  0
  -30.7780  -18.5550   20.7840 C   0  0  0  0  0  2  0  0  0  0  0  0
  -29.3360  -19.0070   20.6960 C   0  0  0  0  0  3  0  0  0  0  0  0
  -29.8880  -17.5750   20.0490 C   0  0  0  0  0  3  0  0  0  0  0  0
  -30.5640  -14.9680   20.2750 C   0  0  0  0  0  0  0  0  0  0  0  0
  -30.4510  -12.6340   19.3110 C   0  0  0  0  0  2  0  0  0  0  0  0
  -29.5190  -12.6450   18.0760 C   0  0  0  0  0  2  0  0  0  0  0  0
  -28.0510  -12.4450   18.4990 C   0  0  0  0  0  2  0  0  0  0  0  0
  -27.6560  -13.3370   19.7060 C   0  0  0  0  0  3  0  0  0  0  0  0
  -28.7100  -13.2870   20.8330 C   0  0  0  0  0  2  0  0  0  0  0  0
  -29.9900  -13.6990   20.2460 N   0  0  0  0  0  0  0  0  0  0  0  0
  -31.7290  -15.0770   19.8790 O   0  0  0  0  0  0  0  0  0  0  0  0
  -29.7810  -16.1140   20.5520 N   0  0  0  0  0  0  0  0  0  0  0  0
  -28.8770  -15.8870   20.9420 H   0  0  0  0  0  0  0  0  0  0  0  0
  -25.2670  -13.9090   20.4290 C   0  0  0  0  0  0  0  0  0  0  0  0
  -24.2060  -13.1310   20.8030 C   0  0  0  0  0  0  0  0  0  0  0  0
  -24.6770  -11.7830   20.7820 C   0  0  0  0  0  0  0  0  0  0  0  0
  -26.3160  -13.0350   20.1960 N   0  0  0  0  0  0  0  0  0  0  0  0
  -25.9690  -11.7510   20.4710 N   0  0  0  0  0  0  0  0  0  0  0  0
  -23.9580  -10.5180   20.9820 C   0  0  0  0  0  0  0  0  0  0  0  0
  -24.3950   -9.5630   21.9250 C   0  0  0  0  0  3  0  0  0  0  0  0
  -23.6770   -8.3620   22.1140 C   0  0  0  0  0  3  0  0  0  0  0  0
  -22.5060   -8.1100   21.3600 C   0  0  0  0  0  0  0  0  0  0  0  0
  -22.0880   -9.0550   20.4080 C   0  0  0  0  0  3  0  0  0  0  0  0
  -22.8060  -10.2470   20.2170 C   0  0  0  0  0  3  0  0  0  0  0  0
  -21.7570   -6.9620   21.4580 O   0  0  0  0  0  0  0  0  0  0  0  0
  -21.7120   -6.2290   22.6170 C   0  0  0  0  0  0  0  0  0  0  0  0
  -21.2860   -6.7920   23.8390 C   0  0  0  0  0  3  0  0  0  0  0  0
  -21.1870   -5.9850   24.9900 C   0  0  0  0  0  3  0  0  0  0  0  0
  -21.5050   -4.6150   24.9180 C   0  0  0  0  0  0  0  0  0  0  0  0
  -21.9240   -4.0500   23.7010 C   0  0  0  0  0  3  0  0  0  0  0  0
  -22.0240   -4.8560   22.5520 C   0  0  0  0  0  0  0  0  0  0  0  0
  -22.4090   -4.3020   21.3770 F   0  0  0  0  0  0  0  0  0  0  0  0
  -21.4020   -3.8370   26.0220 F   0  0  0  0  0  0  0  0  0  0  0  0
  -22.8050  -13.6040   21.0640 C   0  0  0  0  0  0  0  0  0  0  0  0
  -22.0750  -12.9170   21.9340 N   0  0  0  0  0  0  0  0  0  0  0  0
  -22.3640  -14.6220   20.5320 O   0  0  0  0  0  0  0  0  0  0  0  0
  -22.4390  -12.0950   22.3940 H   0  0  0  0  0  0  0  0  0  0  0  0
  -21.1340  -13.2170   22.1440 H   0  0  0  0  0  0  0  0  0  0  0  0
  -25.4220  -15.2790   20.2410 N   0  0  0  0  0  0  0  0  0  0  0  0
  -24.6500  -15.9280   20.3510 H   0  0  0  0  0  0  0  0  0  0  0  0
  -26.2510  -15.7200   19.8670 H   0  0  0  0  0  0  0  0  0  0  0  0
  -28.4070  -24.8230   19.7830 C   0  0  0  0  0  2  0  0  0  0  0  0
  -28.2850  -26.2800   20.3060 O   0  0  0  0  0  0  0  0  0  0  0  0
  -24.6110  -31.8950   23.2270 C   0  0  0  0  0  0  0  0  0  0  0  0
  -27.1900  -27.2030   20.1900 C   0  0  0  0  0  0  0  0  0  0  0  0
  -23.4030  -30.4940   21.5920 C   0  0  0  0  0  3  0  0  0  0  0  0
  -24.8450  -28.9170   20.1590 C   0  0  0  0  0  0  0  0  0  0  0  0
  -25.9500  -30.7750   21.4070 C   0  0  0  0  0  2  0  0  0  0  0  0
  -26.0220  -29.3820   20.7580 C   0  0  0  0  0  0  0  0  0  0  0  0
  -27.1900  -28.5390   20.7580 C   0  0  0  0  0  3  0  0  0  0  0  0
  -25.9890  -26.8280   19.5530 C   0  0  0  0  0  3  0  0  0  0  0  0
  -24.8390  -27.6520   19.5450 C   0  0  0  0  0  3  0  0  0  0  0  0
  -23.6140  -29.8130   20.2130 C   0  0  0  0  0  2  0  0  0  0  0  0
  -24.6750  -31.0780   22.1310 N   0  0  0  0  0  0  0  0  0  0  0  0
  -23.5280  -32.1760   23.7630 O   0  0  0  0  0  0  0  0  0  0  0  0
  -22.7330  -29.4890   22.5620 C   0  0  0  0  0  0  0  0  0  0  0  0
  -21.4050  -29.3140   22.4420 N   0  0  0  0  0  0  0  0  0  0  0  0
  -23.4120  -28.8700   23.3850 O   0  0  0  0  0  0  0  0  0  0  0  0
  -20.9130  -29.8670   21.7540 H   0  0  0  0  0  0  0  0  0  0  0  0
  -18.0310  -28.1050   22.9570 C   0  0  0  0  0  0  0  0  0  0  0  0
  -20.5910  -28.3770   23.2200 C   0  0  0  0  0  3  0  0  0  0  0  0
  -20.6970  -26.9440   22.6510 C   0  0  0  0  0  2  0  0  0  0  0  0
  -19.5960  -26.6120   21.6400 C   0  0  0  0  0  2  0  0  0  0  0  0
  -18.2130  -26.7540   22.2850 C   0  0  0  0  0  2  0  0  0  0  0  0
  -19.1480  -28.8740   23.3810 C   0  0  0  0  0  0  0  0  0  0  0  0
  -18.9240  -30.1360   23.9710 C   0  0  0  0  0  3  0  0  0  0  0  0
  -17.6160  -30.6300   24.1400 C   0  0  0  0  0  3  0  0  0  0  0  0
  -16.5150  -29.8590   23.7320 C   0  0  0  0  0  3  0  0  0  0  0  0
  -16.7230  -28.5980   23.1460 C   0  0  0  0  0  3  0  0  0  0  0  0
  -25.8930  -32.5350   23.8460 C   0  0  0  0  0  3  0  0  0  0  0  0
  -26.4090  -31.7730   25.1280 C   0  0  1  0  0  0  0  0  0  0  0  0
  -25.3180  -31.5460   26.2020 C   0  0  0  0  0  1  0  0  0  0  0  0
  -26.9880  -30.3910   24.7500 C   0  0  0  0  0  1  0  0  0  0  0  0
  -27.5610  -32.5680   25.7860 C   0  0  0  0  0  1  0  0  0  0  0  0
  -25.5780  -33.9340   24.1770 N   0  0  0  0  0  0  0  0  0  0  0  0
  -25.9100  -34.9910   23.4240 C   0  0  0  0  0  0  0  0  0  0  0  0
  -26.5780  -34.8920   22.3930 O   0  0  0  0  0  0  0  0  0  0  0  0
  -24.9870  -34.0850   24.9810 H   0  0  0  0  0  0  0  0  0  0  0  0
  -24.1800  -36.7860   23.0800 C   0  0  0  0  0  1  0  0  0  0  0  0
  -25.4240  -36.3800   23.8870 C   0  0  0  0  0  3  0  0  0  0  0  0
  -27.5610  -37.2590   24.7170 C   0  0  0  0  0  1  0  0  0  0  0  0
  -26.4570  -37.4330   23.7760 N   0  0  0  0  0  0  0  0  0  0  0  0
  -26.0500  -38.3530   23.9310 H   0  0  0  0  0  0  0  0  0  0  0  0
  2  1  1  0
  2  3  1  0
  4  3  1  0
  6  4  1  0
  6  5  1  0
  7 16  1  0
  7  6  1  0
  7  5  1  0
  8 16  1  0
  9 14  1  0
 10 11  1  0
 10  9  1  0
 12 11  1  0
 12 21  1  0
 12 13  1  0
 14  8  1  0
 14 13  1  0
 15  8  2  0
 16 17  1  0
 18 19  2  0
 19 38  1  0
 20 19  1  0
 20 23  1  0
 21 18  1  0
 21 22  1  0
 22 20  2  0
 23 24  1  0
 24 25  2  0
 26 29  1  0
 26 25  1  0
 27 26  2  0
 28 27  1  0
 28 23  2  0
 29 30  1  0
 30 31  1  0
 31 32  2  0
 33 32  1  0
 33 37  1  0
 34 33  2  0
 35 30  2  0
 35 34  1  0
 36 35  1  0
 38 39  1  0
 39 42  1  0
 39 41  1  0
 40 38  2  0
 43 44  1  0
 43 18  1  0
 45 43  1  0
 46 47  1  0
 46  2  1  0
 48 59  2  0
 49 47  1  0
 49 54  1  0
 50 58  1  0
 50 60  1  0
 51 57  1  0
 51 53  1  0
 52 58  1  0
 53 52  1  0
 54 53  2  0
 55 49  2  0
 56 55  1  0
 56 51  2  0
 57 50  1  0
 58 48  1  0
 60 62  2  0
 61 60  1  0
 63 61  1  0
 64 73  2  0
 64 69  1  0
 65 61  1  0
 65 69  1  0
 66 65  1  0
 67 68  1  0
 67 66  1  0
 68 64  1  0
 69 70  2  0
 70 71  1  0
 72 71  2  0
 73 72  1  0
 74 48  1  0
 74 79  1  0
 74 75  1  0
 75 78  1  1
 75 76  1  0
 77 75  1  0
 79 82  1  0
 80 84  1  0
 80 79  1  0
 81 80  2  0
 84 83  1  0
 86 84  1  0
 86 87  1  0
 86 85  1  0
M  ISO  4   8 100  16 100  46 101  47 101
M  END
>  <TORSDO>  (78) 
F 20

>  <SCORE>  (78) 
-14.205

>  <name>  (78) 
79

>  <ligand_id>  (78) 
79

>  <original_smiles>  (78) 
[H]c1c([H])c([H])c2c(c1[H])C([H])([H])C([H])([H])C([H])([H])C2([H])N([H])C(=O)C1([H])N(C(=O)C([H])(N([H])C(=O)C([H])(N([H])C([H])([H])[H])C([H])([H])[H])C(C([H])([H])[H])(C([H])([H])[H])C([H])([H])[H])C([H])([H])c2c([H])c(OC([H])([H])C([H])(C([H])([H])[H])C([H])([H])C([H])([H])C3([H])C([H])([H])C3([H])N([H])C(=O)N3C([H])([H])C([H])([H])C([H])([H])C([H])(n4nc(-c5c([H])c([H])c(Oc6c([H])c([H])c(F)c([H])c6F)c([H])c5[H])c(C(=O)N([H])[H])c4N([H])[H])C3([H])[H])c([H])c([H])c2C1([H])[H]

>  <smiles>  (78) 
[H]c1c([H])c([H])c2c(c1[H])C([H])([H])C([H])([H])C([H])([H])C2([H])N([H])C(=O)C1([H])N(C(=O)C([H])(N([H])C(=O)C([H])(N([H])C([H])([H])[H])C([H])([H])[H])C(C([H])([H])[H])(C([H])([H])[H])C([H])([H])[H])C([H])([H])c2c([H])c(OC([H])([H])C([H])(C([H])([H])[H])C([H])([H])C([H])([H])C3([H])C([H])([H])C3([H])N([H])C(=O)N3C([H])([H])C([H])([H])C([H])([H])C([H])(n4nc(-c5c([H])c([H])c(Oc6c([H])c([H])c(F)c([H])c6F)c([H])c5[H])c(C(=O)N([H])[H])c4N([H])[H])C3([H])[H])c([H])c([H])c2C1([H])[H]

$$$$
80:0:0
     RDKit          3D

 89 97  0  0  1  0  0  0  0  0999 V2000
  -29.3860  -19.8730   21.3590 C   0  0  0  0  0  3  0  0  0  0  0  0
  -29.0970  -21.2860   21.4280 C   0  0  0  0  0  3  0  0  0  0  0  0
  -30.0900  -20.1660   19.1130 C   0  0  0  0  0  3  0  0  0  0  0  0
  -29.9300  -19.2450   20.2010 C   0  0  0  0  0  0  0  0  0  0  0  0
  -29.3320  -22.2220   20.3680 C   0  0  0  0  0  0  0  0  0  0  0  0
  -29.8300  -21.5880   19.1810 C   0  0  0  0  0  0  0  0  0  0  0  0
  -29.0820  -22.5320   16.9280 C   0  0  0  0  0  1  0  0  0  0  0  0
  -30.2040  -22.4360   17.9690 C   0  0  0  0  0  2  0  0  0  0  0  0
  -30.5630  -17.7490   20.1360 C   0  0  0  0  0  3  0  0  0  0  0  0
  -29.9150  -16.3220   20.6200 C   0  0  0  0  0  3  0  0  0  0  0  0
  -30.6960  -14.9250   20.3030 C   0  0  0  0  0  0  0  0  0  0  0  0
  -30.5090  -12.6380   19.2750 C   0  0  0  0  0  2  0  0  0  0  0  0
  -29.5720  -12.7320   18.0490 C   0  0  0  0  0  2  0  0  0  0  0  0
  -28.1010  -12.5480   18.4720 C   0  0  0  0  0  2  0  0  0  0  0  0
  -27.7290  -13.4180   19.7010 C   0  0  0  0  0  3  0  0  0  0  0  0
  -28.7880  -13.3240   20.8190 C   0  0  0  0  0  2  0  0  0  0  0  0
  -30.0870  -13.6850   20.2400 N   0  0  0  0  0  0  0  0  0  0  0  0
  -31.8820  -14.9990   19.9620 O   0  0  0  0  0  0  0  0  0  0  0  0
  -25.3390  -14.0010   20.4200 C   0  0  0  0  0  0  0  0  0  0  0  0
  -24.2740  -13.2250   20.7890 C   0  0  0  0  0  0  0  0  0  0  0  0
  -24.7430  -11.8760   20.7730 C   0  0  0  0  0  0  0  0  0  0  0  0
  -26.3870  -13.1240   20.1930 N   0  0  0  0  0  0  0  0  0  0  0  0
  -26.0360  -11.8420   20.4710 N   0  0  0  0  0  0  0  0  0  0  0  0
  -24.0200  -10.6130   20.9700 C   0  0  0  0  0  0  0  0  0  0  0  0
  -24.4390   -9.6630   21.9270 C   0  0  0  0  0  3  0  0  0  0  0  0
  -23.7160   -8.4630   22.1100 C   0  0  0  0  0  3  0  0  0  0  0  0
  -22.5600   -8.2080   21.3340 C   0  0  0  0  0  0  0  0  0  0  0  0
  -22.1620   -9.1450   20.3660 C   0  0  0  0  0  3  0  0  0  0  0  0
  -22.8850  -10.3360   20.1820 C   0  0  0  0  0  3  0  0  0  0  0  0
  -21.8100   -7.0600   21.4260 O   0  0  0  0  0  0  0  0  0  0  0  0
  -21.7270   -6.3450   22.5930 C   0  0  0  0  0  0  0  0  0  0  0  0
  -21.2320   -6.9180   23.7850 C   0  0  0  0  0  3  0  0  0  0  0  0
  -21.0990   -6.1280   24.9450 C   0  0  0  0  0  3  0  0  0  0  0  0
  -21.4520   -4.7650   24.9130 C   0  0  0  0  0  0  0  0  0  0  0  0
  -21.9400   -4.1910   23.7250 C   0  0  0  0  0  3  0  0  0  0  0  0
  -22.0740   -4.9780   22.5680 C   0  0  0  0  0  0  0  0  0  0  0  0
  -22.5260   -4.4160   21.4210 F   0  0  0  0  0  0  0  0  0  0  0  0
  -21.3170   -4.0030   26.0220 F   0  0  0  0  0  0  0  0  0  0  0  0
  -22.8730  -13.6990   21.0480 C   0  0  0  0  0  0  0  0  0  0  0  0
  -22.1420  -13.0040   21.9140 N   0  0  0  0  0  0  0  0  0  0  0  0
  -22.4360  -14.7190   20.5180 O   0  0  0  0  0  0  0  0  0  0  0  0
  -22.5110  -12.1800   22.3640 H   0  0  0  0  0  0  0  0  0  0  0  0
  -21.2010  -13.3020   22.1280 H   0  0  0  0  0  0  0  0  0  0  0  0
  -25.5010  -15.3710   20.2360 N   0  0  0  0  0  0  0  0  0  0  0  0
  -24.7380  -16.0310   20.3480 H   0  0  0  0  0  0  0  0  0  0  0  0
  -26.3580  -15.8080   19.9210 H   0  0  0  0  0  0  0  0  0  0  0  0
  -29.3040  -23.8270   20.6430 C   0  0  0  0  0  3  0  0  0  0  0  0
  -28.2850  -24.9410   20.0140 C   0  0  0  0  0  3  0  0  0  0  0  0
  -28.4170  -26.4210   20.3570 O   0  0  0  0  0  0  0  0  0  0  0  0
  -24.6160  -31.9330   23.2620 C   0  0  0  0  0  0  0  0  0  0  0  0
  -27.3120  -27.3180   20.2680 C   0  0  0  0  0  0  0  0  0  0  0  0
  -23.4570  -30.5230   21.6020 C   0  0  0  0  0  3  0  0  0  0  0  0
  -24.9470  -28.9710   20.2060 C   0  0  0  0  0  0  0  0  0  0  0  0
  -26.0030  -30.8370   21.4740 C   0  0  0  0  0  2  0  0  0  0  0  0
  -26.1040  -29.4510   20.8300 C   0  0  0  0  0  0  0  0  0  0  0  0
  -27.2870  -28.6360   20.8510 C   0  0  0  0  0  3  0  0  0  0  0  0
  -26.1310  -26.9160   19.6060 C   0  0  0  0  0  3  0  0  0  0  0  0
  -24.9670  -27.7130   19.5820 C   0  0  0  0  0  3  0  0  0  0  0  0
  -23.7050  -29.8420   20.2290 C   0  0  0  0  0  2  0  0  0  0  0  0
  -24.7110  -31.1170   22.1690 N   0  0  0  0  0  0  0  0  0  0  0  0
  -23.5190  -32.2050   23.7710 O   0  0  0  0  0  0  0  0  0  0  0  0
  -22.7770  -29.5080   22.5520 C   0  0  0  0  0  0  0  0  0  0  0  0
  -21.4520  -29.3330   22.4090 N   0  0  0  0  0  0  0  0  0  0  0  0
  -23.4430  -28.8790   23.3790 O   0  0  0  0  0  0  0  0  0  0  0  0
  -20.9700  -29.8960   21.7220 H   0  0  0  0  0  0  0  0  0  0  0  0
  -18.0640  -28.1530   22.8930 C   0  0  0  0  0  0  0  0  0  0  0  0
  -20.6240  -28.3900   23.1660 C   0  0  0  0  0  3  0  0  0  0  0  0
  -20.7140  -26.9650   22.5730 C   0  0  0  0  0  2  0  0  0  0  0  0
  -19.6110  -26.6640   21.5540 C   0  0  0  0  0  2  0  0  0  0  0  0
  -18.2300  -26.8110   22.1990 C   0  0  0  0  0  2  0  0  0  0  0  0
  -19.1880  -28.9010   23.3330 C   0  0  0  0  0  0  0  0  0  0  0  0
  -18.9780  -30.1570   23.9430 C   0  0  0  0  0  3  0  0  0  0  0  0
  -17.6770  -30.6650   24.1160 C   0  0  0  0  0  3  0  0  0  0  0  0
  -16.5670  -29.9140   23.6900 C   0  0  0  0  0  3  0  0  0  0  0  0
  -16.7610  -28.6600   23.0840 C   0  0  0  0  0  3  0  0  0  0  0  0
  -25.8790  -32.5780   23.9100 C   0  0  0  0  0  3  0  0  0  0  0  0
  -25.5550  -33.9810   24.2160 N   0  0  0  0  0  0  0  0  0  0  0  0
  -25.8960  -35.0270   23.4510 C   0  0  0  0  0  0  0  0  0  0  0  0
  -26.5800  -34.9130   22.4310 O   0  0  0  0  0  0  0  0  0  0  0  0
  -24.9440  -34.1420   25.0030 H   0  0  0  0  0  0  0  0  0  0  0  0
  -24.1650  -36.8090   23.0540 C   0  0  0  0  0  1  0  0  0  0  0  0
  -25.3980  -36.4200   23.8860 C   0  0  0  0  0  3  0  0  0  0  0  0
  -27.5150  -37.3290   24.7320 C   0  0  0  0  0  1  0  0  0  0  0  0
  -26.4260  -37.4770   23.7700 N   0  0  0  0  0  0  0  0  0  0  0  0
  -26.0130  -38.3970   23.8970 H   0  0  0  0  0  0  0  0  0  0  0  0
  -26.3620  -31.8240   25.2110 C   0  0  1  0  0  0  0  0  0  0  0  0
  -25.2390  -31.5950   26.2490 C   0  0  0  0  0  1  0  0  0  0  0  0
  -26.9600  -30.4440   24.8540 C   0  0  0  0  0  1  0  0  0  0  0  0
  -27.4900  -32.6320   25.8940 C   0  0  0  0  0  1  0  0  0  0  0  0
  1  2  1  0
  3  6  2  0
  3  4  1  0
  4  1  2  0
  5 47  1  0
  5  2  2  0
  6  5  1  0
  7  8  1  0
  8  6  1  0
  9  4  1  0
  9 10  2  0
 11 10  1  0
 12 17  1  0
 13 14  1  0
 13 12  1  0
 15 14  1  0
 15 22  1  0
 15 16  1  0
 17 11  1  0
 17 16  1  0
 18 11  2  0
 19 20  2  0
 20 39  1  0
 21 20  1  0
 21 24  1  0
 22 19  1  0
 22 23  1  0
 23 21  2  0
 24 25  1  0
 25 26  2  0
 27 30  1  0
 27 26  1  0
 28 27  2  0
 29 28  1  0
 29 24  2  0
 30 31  1  0
 31 32  1  0
 32 33  2  0
 34 33  1  0
 34 38  1  0
 35 34  2  0
 36 31  2  0
 36 35  1  0
 37 36  1  0
 39 40  1  0
 40 43  1  0
 40 42  1  0
 41 39  2  0
 44 45  1  0
 44 19  1  0
 46 44  1  0
 48 49  1  0
 48 47  2  0
 50 61  2  0
 51 49  1  0
 51 56  1  0
 52 60  1  0
 52 62  1  0
 53 59  1  0
 53 55  1  0
 54 60  1  0
 55 56  2  0
 55 54  1  0
 57 51  2  0
 58 57  1  0
 58 53  2  0
 59 52  1  0
 60 50  1  0
 62 64  2  0
 63 62  1  0
 65 63  1  0
 66 75  2  0
 66 71  1  0
 67 63  1  0
 67 71  1  0
 68 67  1  0
 69 70  1  0
 69 68  1  0
 70 66  1  0
 71 72  2  0
 72 73  1  0
 74 73  2  0
 75 74  1  0
 76 50  1  0
 76 77  1  0
 76 86  1  0
 77 80  1  0
 78 82  1  0
 78 77  1  0
 79 78  2  0
 82 81  1  0
 84 82  1  0
 84 85  1  0
 84 83  1  0
 86 89  1  1
 86 87  1  0
 88 86  1  0
M  ISO  4  10 100  11 100  48 101  49 101
M  END
>  <TORSDO>  (79) 
F 21

>  <SCORE>  (79) 
-13.183

>  <name>  (79) 
80

>  <ligand_id>  (79) 
80

>  <original_smiles>  (79) 
[H]c1c([H])c([H])c2c(c1[H])C([H])([H])C([H])([H])C([H])([H])C2([H])N([H])C(=O)C1([H])N(C(=O)C([H])(N([H])C(=O)C([H])(N([H])C([H])([H])[H])C([H])([H])[H])C(C([H])([H])[H])(C([H])([H])[H])C([H])([H])[H])C([H])([H])c2c([H])c(OC([H])([H])C([H])([H])c3c([H])c([H])c(C([H])([H])C([H])([H])C(=O)N4C([H])([H])C([H])([H])C([H])([H])C([H])(n5nc(-c6c([H])c([H])c(Oc7c([H])c([H])c(F)c([H])c7F)c([H])c6[H])c(C(=O)N([H])[H])c5N([H])[H])C4([H])[H])c([H])c3C([H])([H])C([H])([H])[H])c([H])c([H])c2C1([H])[H]

>  <smiles>  (79) 
[H]c1c([H])c([H])c2c(c1[H])C([H])([H])C([H])([H])C([H])([H])C2([H])N([H])C(=O)C1([H])N(C(=O)C([H])(N([H])C(=O)C([H])(N([H])C([H])([H])[H])C([H])([H])[H])C(C([H])([H])[H])(C([H])([H])[H])C([H])([H])[H])C([H])([H])c2c([H])c(OC([H])([H])C([H])([H])c3c([H])c([H])c(C([H])([H])C([H])([H])C(=O)N4C([H])([H])C([H])([H])C([H])([H])C([H])(n5nc(-c6c([H])c([H])c(Oc7c([H])c([H])c(F)c([H])c7F)c([H])c6[H])c(C(=O)N([H])[H])c5N([H])[H])C4([H])[H])c([H])c3C([H])([H])C([H])([H])[H])c([H])c([H])c2C1([H])[H]

$$$$
81:0:0
     RDKit          3D

 91 99  0  0  1  0  0  0  0  0999 V2000
  -30.5300  -16.0030   20.5440 C   0  0  0  0  0  0  0  0  0  0  0  0
  -30.5230  -13.5540   19.4740 C   0  0  0  0  0  2  0  0  0  0  0  0
  -29.6240  -13.2560   18.2430 C   0  0  0  0  0  2  0  0  0  0  0  0
  -28.1980  -12.8940   18.6810 C   0  0  0  0  0  2  0  0  0  0  0  0
  -27.7130  -13.8180   19.8210 C   0  0  0  0  0  3  0  0  0  0  0  0
  -28.7530  -14.0380   20.9440 C   0  0  0  0  0  2  0  0  0  0  0  0
  -29.9210  -14.6930   20.3100 N   0  0  0  0  0  0  0  0  0  0  0  0
  -31.7610  -15.8410   20.4150 O   0  0  0  0  0  0  0  0  0  0  0  0
  -29.4010  -18.8420   21.2710 C   0  0  0  0  0  2  0  0  0  0  0  0
  -29.6740  -20.5930   20.8010 C   0  0  0  0  0  3  0  0  0  0  0  0
  -29.9740  -19.9540   19.3840 C   0  0  0  0  0  3  0  0  0  0  0  0
  -30.4330  -18.3740   19.3430 C   0  0  0  0  0  3  0  0  0  0  0  0
  -30.9920  -20.8060   18.5970 C   0  0  0  0  0  1  0  0  0  0  0  0
  -29.9410  -17.4610   20.4380 N   0  0  0  0  0  0  0  0  0  0  0  0
  -25.3400  -14.3200   20.5600 C   0  0  0  0  0  0  0  0  0  0  0  0
  -24.2830  -13.5250   20.9020 C   0  0  0  0  0  0  0  0  0  0  0  0
  -24.7670  -12.1810   20.8620 C   0  0  0  0  0  0  0  0  0  0  0  0
  -26.3950  -13.4620   20.3210 N   0  0  0  0  0  0  0  0  0  0  0  0
  -26.0650  -12.1670   20.5710 N   0  0  0  0  0  0  0  0  0  0  0  0
  -24.0480  -10.9080   21.0210 C   0  0  0  0  0  0  0  0  0  0  0  0
  -24.4500   -9.9440   21.9710 C   0  0  0  0  0  3  0  0  0  0  0  0
  -23.7270   -8.7410   22.1210 C   0  0  0  0  0  3  0  0  0  0  0  0
  -22.5880   -8.4920   21.3190 C   0  0  0  0  0  0  0  0  0  0  0  0
  -22.2040   -9.4460   20.3590 C   0  0  0  0  0  3  0  0  0  0  0  0
  -22.9280  -10.6400   20.2070 C   0  0  0  0  0  3  0  0  0  0  0  0
  -21.8390   -7.3410   21.3780 O   0  0  0  0  0  0  0  0  0  0  0  0
  -21.7320   -6.6100   22.5340 C   0  0  0  0  0  0  0  0  0  0  0  0
  -21.2480   -7.1770   23.7330 C   0  0  0  0  0  3  0  0  0  0  0  0
  -21.0880   -6.3730   24.8790 C   0  0  0  0  0  3  0  0  0  0  0  0
  -21.4020   -5.0020   24.8270 C   0  0  0  0  0  0  0  0  0  0  0  0
  -21.8790   -4.4330   23.6320 C   0  0  0  0  0  3  0  0  0  0  0  0
  -22.0390   -5.2350   22.4880 C   0  0  0  0  0  0  0  0  0  0  0  0
  -22.4790   -4.6770   21.3340 F   0  0  0  0  0  0  0  0  0  0  0  0
  -21.2420   -4.2270   25.9250 F   0  0  0  0  0  0  0  0  0  0  0  0
  -22.8750  -13.9850   21.1460 C   0  0  0  0  0  0  0  0  0  0  0  0
  -22.1430  -13.2870   22.0060 N   0  0  0  0  0  0  0  0  0  0  0  0
  -22.4330  -14.9990   20.6080 O   0  0  0  0  0  0  0  0  0  0  0  0
  -22.5140  -12.4670   22.4630 H   0  0  0  0  0  0  0  0  0  0  0  0
  -21.1980  -13.5770   22.2130 H   0  0  0  0  0  0  0  0  0  0  0  0
  -25.4890  -15.6940   20.3970 N   0  0  0  0  0  0  0  0  0  0  0  0
  -24.7030  -16.3300   20.4660 H   0  0  0  0  0  0  0  0  0  0  0  0
  -26.3090  -16.1280   19.9850 H   0  0  0  0  0  0  0  0  0  0  0  0
  -30.1810  -17.7320   17.9410 C   0  0  0  0  0  2  0  0  0  0  0  0
  -28.7800  -17.9320   17.3340 C   0  0  0  0  0  0  0  0  0  0  0  0
  -28.7100  -18.1540   16.0270 N   0  0  0  0  0  0  0  0  0  0  0  0
  -27.7590  -17.8750   18.0150 O   0  0  0  0  0  0  0  0  0  0  0  0
  -29.5470  -18.1930   15.4630 H   0  0  0  0  0  0  0  0  0  0  0  0
  -27.8110  -18.2830   15.5820 H   0  0  0  0  0  0  0  0  0  0  0  0
  -28.8760  -22.3910   20.7410 C   0  0  0  0  0  2  0  0  0  0  0  0
  -28.7620  -24.1880   21.4840 C   0  0  0  0  0  2  0  0  0  0  0  0
  -28.7270  -25.9260   21.1450 O   0  0  0  0  0  0  0  0  0  0  0  0
  -24.8030  -32.2610   23.4720 C   0  0  0  0  0  0  0  0  0  0  0  0
  -27.6780  -27.0700   21.0510 C   0  0  0  0  0  0  0  0  0  0  0  0
  -23.7620  -30.6930   21.8910 C   0  0  0  0  0  3  0  0  0  0  0  0
  -25.3450  -28.9970   20.7040 C   0  0  0  0  0  0  0  0  0  0  0  0
  -26.3380  -30.9310   21.8960 C   0  0  0  0  0  2  0  0  0  0  0  0
  -26.4910  -29.4530   21.3670 C   0  0  0  0  0  0  0  0  0  0  0  0
  -27.6470  -28.5170   21.4950 C   0  0  0  0  0  3  0  0  0  0  0  0
  -26.4890  -26.8150   20.3220 C   0  0  0  0  0  3  0  0  0  0  0  0
  -25.3830  -27.7020   20.1590 C   0  0  0  0  0  3  0  0  0  0  0  0
  -24.1060  -29.9000   20.5980 C   0  0  0  0  0  2  0  0  0  0  0  0
  -24.9880  -31.3330   22.4710 N   0  0  0  0  0  0  0  0  0  0  0  0
  -23.6710  -32.5530   23.8970 O   0  0  0  0  0  0  0  0  0  0  0  0
  -23.0280  -29.7650   22.8960 C   0  0  0  0  0  0  0  0  0  0  0  0
  -21.7260  -29.4970   22.6760 N   0  0  0  0  0  0  0  0  0  0  0  0
  -23.6460  -29.2810   23.8480 O   0  0  0  0  0  0  0  0  0  0  0  0
  -21.2770  -29.9380   21.8860 H   0  0  0  0  0  0  0  0  0  0  0  0
  -18.4020  -28.0700   23.0170 C   0  0  0  0  0  0  0  0  0  0  0  0
  -20.8980  -28.5830   23.4720 C   0  0  0  0  0  3  0  0  0  0  0  0
  -21.1600  -27.1100   23.0770 C   0  0  0  0  0  2  0  0  0  0  0  0
  -20.1910  -26.5900   22.0100 C   0  0  0  0  0  2  0  0  0  0  0  0
  -18.7460  -26.6790   22.5100 C   0  0  0  0  0  2  0  0  0  0  0  0
  -19.4120  -28.9680   23.4530 C   0  0  0  0  0  0  0  0  0  0  0  0
  -19.0370  -30.2590   23.8890 C   0  0  0  0  0  3  0  0  0  0  0  0
  -17.6850  -30.6530   23.8900 C   0  0  0  0  0  3  0  0  0  0  0  0
  -16.6890  -29.7560   23.4670 C   0  0  0  0  0  3  0  0  0  0  0  0
  -17.0480  -28.4660   23.0370 C   0  0  0  0  0  3  0  0  0  0  0  0
  -26.0010  -33.0110   24.1270 C   0  0  0  0  0  3  0  0  0  0  0  0
  -26.4450  -32.3800   25.5060 C   0  0  1  0  0  0  0  0  0  0  0  0
  -25.2750  -32.1410   26.4890 C   0  0  0  0  0  1  0  0  0  0  0  0
  -27.1570  -31.0260   25.2940 C   0  0  0  0  0  1  0  0  0  0  0  0
  -27.4700  -33.3080   26.2000 C   0  0  0  0  0  1  0  0  0  0  0  0
  -25.6100  -34.4210   24.3250 N   0  0  0  0  0  0  0  0  0  0  0  0
  -25.9200  -35.4320   23.5020 C   0  0  0  0  0  0  0  0  0  0  0  0
  -26.6220  -35.2780   22.5000 O   0  0  0  0  0  0  0  0  0  0  0  0
  -24.9840  -34.6080   25.0950 H   0  0  0  0  0  0  0  0  0  0  0  0
  -24.1190  -37.1210   22.9920 C   0  0  0  0  0  1  0  0  0  0  0  0
  -25.3690  -36.8340   23.8420 C   0  0  0  0  0  3  0  0  0  0  0  0
  -27.4560  -37.8800   24.6070 C   0  0  0  0  0  1  0  0  0  0  0  0
  -26.3540  -37.9200   23.6490 N   0  0  0  0  0  0  0  0  0  0  0  0
  -25.9080  -38.8310   23.7200 H   0  0  0  0  0  0  0  0  0  0  0  0
  2  7  1  0
  3  4  1  0
  3  2  1  0
  5  4  1  0
  5 18  1  0
  5  6  1  0
  7  1  1  0
  7  6  1  0
  8  1  2  0
 10 49  1  0
 10  9  1  0
 11 13  1  0
 11 10  1  0
 12 43  1  0
 12 11  1  0
 12 14  1  0
 14  1  1  0
 14  9  1  0
 15 16  2  0
 16 35  1  0
 17 16  1  0
 17 20  1  0
 18 15  1  0
 18 19  1  0
 19 17  2  0
 20 21  1  0
 21 22  2  0
 23 26  1  0
 23 22  1  0
 24 23  2  0
 25 24  1  0
 25 20  2  0
 26 27  1  0
 27 28  1  0
 28 29  2  0
 30 29  1  0
 30 34  1  0
 31 30  2  0
 32 27  2  0
 32 31  1  0
 33 32  1  0
 35 36  1  0
 36 39  1  0
 36 38  1  0
 37 35  2  0
 40 41  1  0
 40 15  1  0
 42 40  1  0
 44 43  1  0
 44 46  2  0
 45 44  1  0
 47 45  1  0
 48 45  1  0
 49 50  1  0
 51 50  1  0
 52 63  2  0
 53 51  1  0
 53 58  1  0
 54 62  1  0
 54 64  1  0
 55 57  1  0
 56 62  1  0
 57 58  2  0
 57 56  1  0
 59 53  2  0
 60 59  1  0
 60 55  2  0
 61 55  1  0
 61 54  1  0
 62 52  1  0
 64 66  2  0
 65 64  1  0
 67 65  1  0
 68 77  2  0
 68 73  1  0
 69 65  1  0
 70 69  1  0
 71 72  1  0
 71 70  1  0
 72 68  1  0
 73 69  1  0
 73 74  2  0
 74 75  1  0
 76 75  2  0
 77 76  1  0
 78 52  1  0
 78 83  1  0
 78 79  1  0
 79 82  1  1
 79 80  1  0
 81 79  1  0
 83 86  1  0
 84 88  1  0
 84 83  1  0
 85 84  2  0
 88 87  1  0
 90 91  1  0
 90 88  1  0
 90 89  1  0
M  ISO  4   1 100  14 100  50 101  51 101
M  END
>  <TORSDO>  (80) 
F 19

>  <SCORE>  (80) 
-13.348

>  <name>  (80) 
81

>  <ligand_id>  (80) 
81

>  <original_smiles>  (80) 
[H]c1c([H])c([H])c2c(c1[H])C([H])([H])C([H])([H])C([H])([H])C2([H])N([H])C(=O)C1([H])N(C(=O)C([H])(N([H])C(=O)C([H])(N([H])C([H])([H])[H])C([H])([H])[H])C(C([H])([H])[H])(C([H])([H])[H])C([H])([H])[H])C([H])([H])c2c([H])c(OC([H])([H])C([H])([H])C3([H])C([H])([H])N(C(=O)N4C([H])([H])C([H])([H])C([H])([H])C([H])(n5nc(-c6c([H])c([H])c(Oc7c([H])c([H])c(F)c([H])c7F)c([H])c6[H])c(C(=O)N([H])[H])c5N([H])[H])C4([H])[H])C([H])(C([H])([H])C(=O)N([H])[H])C3([H])C([H])([H])[H])c([H])c([H])c2C1([H])[H]

>  <smiles>  (80) 
[H]c1c([H])c([H])c2c(c1[H])C([H])([H])C([H])([H])C([H])([H])C2([H])N([H])C(=O)C1([H])N(C(=O)C([H])(N([H])C(=O)C([H])(N([H])C([H])([H])[H])C([H])([H])[H])C(C([H])([H])[H])(C([H])([H])[H])C([H])([H])[H])C([H])([H])c2c([H])c(OC([H])([H])C([H])([H])C3([H])C([H])([H])N(C(=O)N4C([H])([H])C([H])([H])C([H])([H])C([H])(n5nc(-c6c([H])c([H])c(Oc7c([H])c([H])c(F)c([H])c7F)c([H])c6[H])c(C(=O)N([H])[H])c5N([H])[H])C4([H])[H])C([H])(C([H])([H])C(=O)N([H])[H])C3([H])C([H])([H])[H])c([H])c([H])c2C1([H])[H]

$$$$
82:0:0
     RDKit          3D

 88 96  0  0  1  0  0  0  0  0999 V2000
  -30.0170  -21.4390   19.7520 C   0  0  0  0  0  2  0  0  0  0  0  0
  -27.8320  -20.9790   20.7400 C   0  0  0  0  0  2  0  0  0  0  0  0
  -29.8900  -22.9740   20.1910 C   0  0  0  0  0  2  0  0  0  0  0  0
  -27.7160  -22.4920   21.1870 C   0  0  0  0  0  2  0  0  0  0  0  0
  -29.2740  -20.3640   20.6370 C   0  0  0  0  0  3  0  0  0  0  0  0
  -28.4390  -23.5760   20.3100 C   0  0  0  0  0  3  0  0  0  0  0  0
  -29.2730  -18.8280   20.1160 C   0  0  0  0  0  0  0  0  0  0  0  0
  -28.4590  -18.5260   19.2380 O   0  0  0  0  0  0  0  0  0  0  0  0
  -30.2400  -17.6580   20.6370 C   0  0  0  0  0  2  0  0  0  0  0  0
  -29.6900  -16.1210   20.7310 C   0  0  0  0  0  2  0  0  0  0  0  0
  -30.5580  -14.8100   20.3700 C   0  0  0  0  0  0  0  0  0  0  0  0
  -30.4070  -12.5310   19.3240 C   0  0  0  0  0  2  0  0  0  0  0  0
  -29.4590  -12.6170   18.1050 C   0  0  0  0  0  2  0  0  0  0  0  0
  -27.9890  -12.4300   18.5340 C   0  0  0  0  0  2  0  0  0  0  0  0
  -27.6160  -13.3010   19.7600 C   0  0  0  0  0  3  0  0  0  0  0  0
  -28.6780  -13.1920   20.8760 C   0  0  0  0  0  2  0  0  0  0  0  0
  -29.9780  -13.5590   20.3010 N   0  0  0  0  0  0  0  0  0  0  0  0
  -31.7310  -14.9460   20.0070 O   0  0  0  0  0  0  0  0  0  0  0  0
  -25.2280  -13.8940   20.4870 C   0  0  0  0  0  0  0  0  0  0  0  0
  -24.1630  -13.1190   20.8590 C   0  0  0  0  0  0  0  0  0  0  0  0
  -24.6290  -11.7690   20.8350 C   0  0  0  0  0  0  0  0  0  0  0  0
  -26.2730  -13.0140   20.2520 N   0  0  0  0  0  0  0  0  0  0  0  0
  -25.9200  -11.7330   20.5260 N   0  0  0  0  0  0  0  0  0  0  0  0
  -23.9060  -10.5060   21.0320 C   0  0  0  0  0  0  0  0  0  0  0  0
  -24.3470   -9.5390   21.9620 C   0  0  0  0  0  3  0  0  0  0  0  0
  -23.6240   -8.3410   22.1450 C   0  0  0  0  0  3  0  0  0  0  0  0
  -22.4460   -8.1010   21.3990 C   0  0  0  0  0  0  0  0  0  0  0  0
  -22.0250   -9.0570   20.4580 C   0  0  0  0  0  3  0  0  0  0  0  0
  -22.7480  -10.2470   20.2720 C   0  0  0  0  0  3  0  0  0  0  0  0
  -21.6940   -6.9550   21.4910 O   0  0  0  0  0  0  0  0  0  0  0  0
  -21.6620   -6.2060   22.6400 C   0  0  0  0  0  0  0  0  0  0  0  0
  -21.2580   -6.7560   23.8770 C   0  0  0  0  0  3  0  0  0  0  0  0
  -21.1740   -5.9340   25.0180 C   0  0  0  0  0  3  0  0  0  0  0  0
  -21.4820   -4.5630   24.9240 C   0  0  0  0  0  0  0  0  0  0  0  0
  -21.8790   -4.0130   23.6930 C   0  0  0  0  0  3  0  0  0  0  0  0
  -21.9660   -4.8330   22.5530 C   0  0  0  0  0  0  0  0  0  0  0  0
  -22.3280   -4.2940   21.3650 F   0  0  0  0  0  0  0  0  0  0  0  0
  -21.3930   -3.7720   26.0190 F   0  0  0  0  0  0  0  0  0  0  0  0
  -22.7650  -13.5940   21.1280 C   0  0  0  0  0  0  0  0  0  0  0  0
  -22.0370  -12.9000   21.9970 N   0  0  0  0  0  0  0  0  0  0  0  0
  -22.3240  -14.6160   20.6020 O   0  0  0  0  0  0  0  0  0  0  0  0
  -22.4070  -12.0740   22.4430 H   0  0  0  0  0  0  0  0  0  0  0  0
  -21.0990  -13.2010   22.2190 H   0  0  0  0  0  0  0  0  0  0  0  0
  -25.3890  -15.2650   20.3060 N   0  0  0  0  0  0  0  0  0  0  0  0
  -24.6210  -15.9180   20.4130 H   0  0  0  0  0  0  0  0  0  0  0  0
  -26.2400  -15.7070   19.9820 H   0  0  0  0  0  0  0  0  0  0  0  0
  -28.2310  -25.0860   20.9190 C   0  0  0  0  0  2  0  0  0  0  0  0
  -28.3810  -26.4130   20.2250 O   0  0  0  0  0  0  0  0  0  0  0  0
  -24.6140  -31.8830   23.2210 C   0  0  0  0  0  0  0  0  0  0  0  0
  -27.2770  -27.2950   20.2120 C   0  0  0  0  0  0  0  0  0  0  0  0
  -23.4320  -30.4660   21.5820 C   0  0  0  0  0  3  0  0  0  0  0  0
  -24.9050  -28.9140   20.1720 C   0  0  0  0  0  0  0  0  0  0  0  0
  -25.9720  -30.7970   21.4110 C   0  0  0  0  0  2  0  0  0  0  0  0
  -26.0690  -29.4120   20.7710 C   0  0  0  0  0  0  0  0  0  0  0  0
  -27.2620  -28.6170   20.7750 C   0  0  0  0  0  3  0  0  0  0  0  0
  -26.0900  -26.8580   19.5910 C   0  0  0  0  0  3  0  0  0  0  0  0
  -24.9200  -27.6450   19.5690 C   0  0  0  0  0  3  0  0  0  0  0  0
  -23.6610  -29.7830   20.2080 C   0  0  0  0  0  2  0  0  0  0  0  0
  -24.6910  -31.0680   22.1280 N   0  0  0  0  0  0  0  0  0  0  0  0
  -23.5240  -32.1540   23.7490 O   0  0  0  0  0  0  0  0  0  0  0  0
  -22.7700  -29.4520   22.5440 C   0  0  0  0  0  0  0  0  0  0  0  0
  -21.4460  -29.2590   22.4090 N   0  0  0  0  0  0  0  0  0  0  0  0
  -23.4470  -28.8400   23.3750 O   0  0  0  0  0  0  0  0  0  0  0  0
  -20.9580  -29.8050   21.7120 H   0  0  0  0  0  0  0  0  0  0  0  0
  -18.0820  -28.0070   22.8730 C   0  0  0  0  0  0  0  0  0  0  0  0
  -20.6320  -28.3170   23.1780 C   0  0  0  0  0  3  0  0  0  0  0  0
  -20.7680  -26.8790   22.6220 C   0  0  0  0  0  2  0  0  0  0  0  0
  -19.6870  -26.5250   21.5950 C   0  0  0  0  0  2  0  0  0  0  0  0
  -18.2930  -26.6530   22.2160 C   0  0  0  0  0  2  0  0  0  0  0  0
  -19.1810  -28.7950   23.3100 C   0  0  0  0  0  0  0  0  0  0  0  0
  -18.9300  -30.0600   23.8830 C   0  0  0  0  0  3  0  0  0  0  0  0
  -17.6140  -30.5390   24.0250 C   0  0  0  0  0  3  0  0  0  0  0  0
  -16.5300  -29.7480   23.6050 C   0  0  0  0  0  3  0  0  0  0  0  0
  -16.7650  -28.4840   23.0340 C   0  0  0  0  0  3  0  0  0  0  0  0
  -25.8870  -32.5310   23.8490 C   0  0  0  0  0  3  0  0  0  0  0  0
  -26.4010  -31.7710   25.1340 C   0  0  1  0  0  0  0  0  0  0  0  0
  -25.3040  -31.5340   26.1980 C   0  0  0  0  0  1  0  0  0  0  0  0
  -26.9950  -30.3940   24.7560 C   0  0  0  0  0  1  0  0  0  0  0  0
  -27.5430  -32.5780   25.7970 C   0  0  0  0  0  1  0  0  0  0  0  0
  -25.5630  -33.9280   24.1710 N   0  0  0  0  0  0  0  0  0  0  0  0
  -25.8940  -34.9820   23.4130 C   0  0  0  0  0  0  0  0  0  0  0  0
  -26.5720  -34.8810   22.3860 O   0  0  0  0  0  0  0  0  0  0  0  0
  -24.9630  -34.0800   24.9680 H   0  0  0  0  0  0  0  0  0  0  0  0
  -24.1560  -36.7630   23.0420 C   0  0  0  0  0  1  0  0  0  0  0  0
  -25.3930  -36.3680   23.8630 C   0  0  0  0  0  3  0  0  0  0  0  0
  -27.5170  -37.2680   24.7070 C   0  0  0  0  0  1  0  0  0  0  0  0
  -26.4200  -37.4290   23.7570 N   0  0  0  0  0  0  0  0  0  0  0  0
  -26.0070  -38.3450   23.9030 H   0  0  0  0  0  0  0  0  0  0  0  0
  1  3  1  0
  1  5  1  0
  2  4  1  0
  3  6  1  0
  5  7  1  0
  5  2  1  0
  6 47  1  0
  6  4  1  0
  7  9  1  0
  8  7  2  0
  9 10  1  0
 11 10  1  0
 12 17  1  0
 13 14  1  0
 13 12  1  0
 15 14  1  0
 15 22  1  0
 15 16  1  0
 17 11  1  0
 17 16  1  0
 18 11  2  0
 19 20  2  0
 20 39  1  0
 21 20  1  0
 21 24  1  0
 22 19  1  0
 22 23  1  0
 23 21  2  0
 24 25  1  0
 25 26  2  0
 27 30  1  0
 27 26  1  0
 28 27  2  0
 29 28  1  0
 29 24  2  0
 30 31  1  0
 31 32  1  0
 32 33  2  0
 34 33  1  0
 34 38  1  0
 35 34  2  0
 36 31  2  0
 36 35  1  0
 37 36  1  0
 39 40  1  0
 40 43  1  0
 40 42  1  0
 41 39  2  0
 44 45  1  0
 44 19  1  0
 46 44  1  0
 48 47  1  0
 49 60  2  0
 50 48  1  0
 50 55  1  0
 51 59  1  0
 51 61  1  0
 52 58  1  0
 52 54  1  0
 53 59  1  0
 54 55  2  0
 54 53  1  0
 56 50  2  0
 57 56  1  0
 57 52  2  0
 58 51  1  0
 59 49  1  0
 61 63  2  0
 62 61  1  0
 64 62  1  0
 65 74  2  0
 65 70  1  0
 66 62  1  0
 66 70  1  0
 67 66  1  0
 68 69  1  0
 68 67  1  0
 69 65  1  0
 70 71  2  0
 71 72  1  0
 73 72  2  0
 74 73  1  0
 75 49  1  0
 75 80  1  0
 75 76  1  0
 76 79  1  1
 76 77  1  0
 78 76  1  0
 80 83  1  0
 81 85  1  0
 81 80  1  0
 82 81  2  0
 85 84  1  0
 87 85  1  0
 87 88  1  0
 87 86  1  0
M  ISO  4  10 100  11 100  47 101  48 101
M  END
>  <TORSDO>  (81) 
F 20

>  <SCORE>  (81) 
-13.800

>  <name>  (81) 
82

>  <ligand_id>  (81) 
82

>  <original_smiles>  (81) 
[H]c1c([H])c([H])c2c(c1[H])C([H])([H])C([H])([H])C([H])([H])C2([H])N([H])C(=O)C1([H])N(C(=O)C([H])(N([H])C(=O)C([H])(N([H])C([H])([H])[H])C([H])([H])[H])C(C([H])([H])[H])(C([H])([H])[H])C([H])([H])[H])C([H])([H])c2c([H])c(OC([H])([H])C3([H])C([H])([H])C([H])([H])C([H])(C(=O)C([H])([H])C([H])([H])C(=O)N4C([H])([H])C([H])([H])C([H])([H])C([H])(n5nc(-c6c([H])c([H])c(Oc7c([H])c([H])c(F)c([H])c7F)c([H])c6[H])c(C(=O)N([H])[H])c5N([H])[H])C4([H])[H])C([H])([H])C3([H])[H])c([H])c([H])c2C1([H])[H]

>  <smiles>  (81) 
[H]c1c([H])c([H])c2c(c1[H])C([H])([H])C([H])([H])C([H])([H])C2([H])N([H])C(=O)C1([H])N(C(=O)C([H])(N([H])C(=O)C([H])(N([H])C([H])([H])[H])C([H])([H])[H])C(C([H])([H])[H])(C([H])([H])[H])C([H])([H])[H])C([H])([H])c2c([H])c(OC([H])([H])C3([H])C([H])([H])C([H])([H])C([H])(C(=O)C([H])([H])C([H])([H])C(=O)N4C([H])([H])C([H])([H])C([H])([H])C([H])(n5nc(-c6c([H])c([H])c(Oc7c([H])c([H])c(F)c([H])c7F)c([H])c6[H])c(C(=O)N([H])[H])c5N([H])[H])C4([H])[H])C([H])([H])C3([H])[H])c([H])c([H])c2C1([H])[H]

$$$$
83:0:0
     RDKit          3D

 87 94  0  0  1  0  0  0  0  0999 V2000
  -28.8870  -20.3180   20.1390 C   0  0  0  0  0  3  0  0  0  0  0  0
  -26.7730  -19.4700   19.0200 C   0  0  0  0  0  2  0  0  0  0  0  0
  -27.9690  -20.0780   18.9570 C   0  0  0  0  0  3  0  0  0  0  0  0
  -29.1050  -22.2290   20.2310 C   0  0  0  0  0  3  0  0  0  0  0  0
  -28.0960  -23.8680   20.1540 C   0  0  0  0  0  3  0  0  0  0  0  0
  -28.2760  -25.6000   20.2730 O   0  0  0  0  0  0  0  0  0  0  0  0
  -24.5980  -31.7560   23.1850 C   0  0  0  0  0  0  0  0  0  0  0  0
  -27.2820  -26.7800   20.2160 C   0  0  0  0  0  0  0  0  0  0  0  0
  -23.4840  -30.3760   21.4840 C   0  0  0  0  0  3  0  0  0  0  0  0
  -24.9970  -28.7690   20.1020 C   0  0  0  0  0  0  0  0  0  0  0  0
  -26.0630  -30.5530   21.4580 C   0  0  0  0  0  2  0  0  0  0  0  0
  -26.1640  -29.1350   20.7830 C   0  0  0  0  0  0  0  0  0  0  0  0
  -27.2950  -28.1700   20.8060 C   0  0  0  0  0  3  0  0  0  0  0  0
  -26.0800  -26.6130   19.4860 C   0  0  0  0  0  3  0  0  0  0  0  0
  -24.9920  -27.5330   19.4320 C   0  0  0  0  0  3  0  0  0  0  0  0
  -23.7800  -29.7040   20.1120 C   0  0  0  0  0  2  0  0  0  0  0  0
  -24.7360  -30.9260   22.0960 N   0  0  0  0  0  0  0  0  0  0  0  0
  -23.4840  -32.0380   23.6600 O   0  0  0  0  0  0  0  0  0  0  0  0
  -22.7430  -29.3740   22.4090 C   0  0  0  0  0  0  0  0  0  0  0  0
  -21.4110  -29.2420   22.2590 N   0  0  0  0  0  0  0  0  0  0  0  0
  -23.3780  -28.7160   23.2360 O   0  0  0  0  0  0  0  0  0  0  0  0
  -20.9500  -29.8220   21.5720 H   0  0  0  0  0  0  0  0  0  0  0  0
  -17.9850  -28.1470   22.7680 C   0  0  0  0  0  0  0  0  0  0  0  0
  -20.5590  -28.2940   22.9870 C   0  0  0  0  0  3  0  0  0  0  0  0
  -20.5870  -26.8970   22.3200 C   0  0  0  0  0  2  0  0  0  0  0  0
  -19.4520  -26.6870   21.3130 C   0  0  0  0  0  2  0  0  0  0  0  0
  -18.0910  -26.8410   21.9970 C   0  0  0  0  0  2  0  0  0  0  0  0
  -19.1420  -28.8360   23.2190 C   0  0  0  0  0  0  0  0  0  0  0  0
  -18.9850  -30.0590   23.9070 C   0  0  0  0  0  3  0  0  0  0  0  0
  -17.7040  -30.5920   24.1440 C   0  0  0  0  0  3  0  0  0  0  0  0
  -16.5610  -29.8990   23.7060 C   0  0  0  0  0  3  0  0  0  0  0  0
  -16.7030  -28.6780   23.0250 C   0  0  0  0  0  3  0  0  0  0  0  0
  -25.8300  -32.4050   23.8840 C   0  0  0  0  0  3  0  0  0  0  0  0
  -25.5020  -33.8130   24.1820 N   0  0  0  0  0  0  0  0  0  0  0  0
  -25.8600  -34.8640   23.4330 C   0  0  0  0  0  0  0  0  0  0  0  0
  -26.5600  -34.7510   22.4230 O   0  0  0  0  0  0  0  0  0  0  0  0
  -24.8820  -33.9730   24.9620 H   0  0  0  0  0  0  0  0  0  0  0  0
  -24.1480  -36.6690   23.0290 C   0  0  0  0  0  1  0  0  0  0  0  0
  -25.3700  -36.2620   23.8690 C   0  0  0  0  0  3  0  0  0  0  0  0
  -27.4750  -37.1680   24.7550 C   0  0  0  0  0  1  0  0  0  0  0  0
  -26.4100  -37.3110   23.7660 N   0  0  0  0  0  0  0  0  0  0  0  0
  -26.0010  -38.2360   23.8700 H   0  0  0  0  0  0  0  0  0  0  0  0
  -26.2500  -31.6610   25.2130 C   0  0  1  0  0  0  0  0  0  0  0  0
  -25.0840  -31.4570   26.2100 C   0  0  0  0  0  1  0  0  0  0  0  0
  -26.8460  -30.2690   24.9060 C   0  0  0  0  0  1  0  0  0  0  0  0
  -27.3610  -32.4610   25.9330 C   0  0  0  0  0  1  0  0  0  0  0  0
  -29.9880  -18.7490   20.2210 C   0  0  0  0  0  0  0  0  0  0  0  0
  -30.5160  -15.6330   20.2530 C   0  0  0  0  0  0  0  0  0  0  0  0
  -30.5750  -13.1240   19.3800 C   0  0  0  0  0  2  0  0  0  0  0  0
  -29.6580  -12.7670   18.1780 C   0  0  0  0  0  2  0  0  0  0  0  0
  -28.2410  -12.4160   18.6560 C   0  0  0  0  0  2  0  0  0  0  0  0
  -27.7570  -13.3930   19.7520 C   0  0  0  0  0  3  0  0  0  0  0  0
  -28.8100  -13.6710   20.8480 C   0  0  0  0  0  2  0  0  0  0  0  0
  -29.9730  -14.2850   20.1720 N   0  0  0  0  0  0  0  0  0  0  0  0
  -31.7480  -15.5600   20.0880 O   0  0  0  0  0  0  0  0  0  0  0  0
  -29.7720  -16.9930   20.3230 N   0  0  0  0  0  4  0  0  0  0  0  0
  -28.7890  -16.7930   20.4360 H   0  0  0  0  0  0  0  0  0  0  0  0
  -25.4130  -13.9000   20.5910 C   0  0  0  0  0  0  0  0  0  0  0  0
  -24.3630  -13.1060   20.9560 C   0  0  0  0  0  0  0  0  0  0  0  0
  -24.8350  -11.7590   20.8700 C   0  0  0  0  0  0  0  0  0  0  0  0
  -26.4520  -13.0400   20.2920 N   0  0  0  0  0  0  0  0  0  0  0  0
  -26.1210  -11.7420   20.5290 N   0  0  0  0  0  0  0  0  0  0  0  0
  -24.1150  -10.4880   21.0320 C   0  0  0  0  0  0  0  0  0  0  0  0
  -24.5090   -9.5310   21.9910 C   0  0  0  0  0  3  0  0  0  0  0  0
  -23.7840   -8.3290   22.1440 C   0  0  0  0  0  3  0  0  0  0  0  0
  -22.6490   -8.0770   21.3360 C   0  0  0  0  0  0  0  0  0  0  0  0
  -22.2740   -9.0240   20.3660 C   0  0  0  0  0  3  0  0  0  0  0  0
  -23.0000  -10.2170   20.2130 C   0  0  0  0  0  3  0  0  0  0  0  0
  -21.9010   -6.9260   21.3950 O   0  0  0  0  0  0  0  0  0  0  0  0
  -21.7160   -6.2470   22.5730 C   0  0  0  0  0  0  0  0  0  0  0  0
  -21.0540   -6.8320   23.6740 C   0  0  0  0  0  3  0  0  0  0  0  0
  -20.8240   -6.0760   24.8410 C   0  0  0  0  0  3  0  0  0  0  0  0
  -21.2460   -4.7350   24.9050 C   0  0  0  0  0  0  0  0  0  0  0  0
  -21.9000   -4.1480   23.8080 C   0  0  0  0  0  3  0  0  0  0  0  0
  -22.1310   -4.9020   22.6430 C   0  0  0  0  0  0  0  0  0  0  0  0
  -22.7430   -4.3260   21.5810 F   0  0  0  0  0  0  0  0  0  0  0  0
  -21.0180   -4.0050   26.0230 F   0  0  0  0  0  0  0  0  0  0  0  0
  -22.9710  -13.5690   21.2660 C   0  0  0  0  0  0  0  0  0  0  0  0
  -22.2670  -12.8580   22.1370 N   0  0  0  0  0  0  0  0  0  0  0  0
  -22.5180  -14.6010   20.7700 O   0  0  0  0  0  0  0  0  0  0  0  0
  -22.6480  -12.0230   22.5590 H   0  0  0  0  0  0  0  0  0  0  0  0
  -21.3330  -13.1520   22.3880 H   0  0  0  0  0  0  0  0  0  0  0  0
  -25.5650  -15.2770   20.4530 N   0  0  0  0  0  0  0  0  0  0  0  0
  -24.7930  -15.9200   20.5940 H   0  0  0  0  0  0  0  0  0  0  0  0
  -26.3930  -15.7260   20.0870 H   0  0  0  0  0  0  0  0  0  0  0  0
  -32.3180  -18.3390   19.0780 C   0  0  0  0  0  1  0  0  0  0  0  0
  -30.9430  -19.0160   19.0340 C   0  0  0  0  0  2  0  0  0  0  0  0
  1  3  1  0
  1 47  1  0
  1  4  1  0
  3  2  2  0
  5  4  2  0
  5  6  1  0
  7 18  2  0
  8  6  1  0
  8 13  1  0
  9 17  1  0
  9 19  1  0
 10 16  1  0
 10 12  1  0
 11 17  1  0
 12 13  2  0
 12 11  1  0
 14  8  2  0
 15 14  1  0
 15 10  2  0
 16  9  1  0
 17  7  1  0
 19 21  2  0
 20 19  1  0
 22 20  1  0
 23 32  2  0
 23 28  1  0
 24 20  1  0
 24 28  1  0
 25 24  1  0
 26 27  1  0
 26 25  1  0
 27 23  1  0
 28 29  2  0
 29 30  1  0
 31 30  2  0
 32 31  1  0
 33  7  1  0
 33 34  1  0
 33 43  1  0
 34 37  1  0
 35 39  1  0
 35 34  1  0
 36 35  2  0
 39 38  1  0
 41 39  1  0
 41 42  1  0
 41 40  1  0
 43 46  1  1
 43 44  1  0
 45 43  1  0
 47 56  2  0
 48 56  1  0
 49 54  1  0
 50 51  1  0
 50 49  1  0
 52 51  1  0
 52 61  1  0
 52 53  1  0
 54 48  1  0
 54 53  1  0
 55 48  2  0
 56 57  1  0
 58 59  2  0
 59 78  1  0
 60 59  1  0
 60 63  1  0
 61 62  1  0
 61 58  1  0
 62 60  2  0
 63 64  1  0
 64 65  2  0
 66 69  1  0
 66 65  1  0
 67 66  2  0
 68 67  1  0
 68 63  2  0
 69 70  1  0
 70 75  2  0
 70 71  1  0
 71 72  2  0
 72 73  1  0
 73 77  1  0
 74 73  2  0
 75 74  1  0
 76 75  1  0
 78 79  1  0
 79 82  1  0
 79 81  1  0
 80 78  2  0
 83 58  1  0
 83 84  1  0
 85 83  1  0
 87 86  1  0
 87 47  1  0
M  ISO  4   5 101   6 101  48 100  56 100
M  END
>  <TORSDO>  (82) 
F 21

>  <SCORE>  (82) 
-15.643

>  <name>  (82) 
83

>  <ligand_id>  (82) 
83

>  <original_smiles>  (82) 
[H]C([H])=C([H])C([H])(C([H])([H])C([H])([H])Oc1c([H])c([H])c2c(c1[H])C([H])([H])N(C(=O)C([H])(N([H])C(=O)C([H])(N([H])C([H])([H])[H])C([H])([H])[H])C(C([H])([H])[H])(C([H])([H])[H])C([H])([H])[H])C([H])(C(=O)N([H])C1([H])c3c([H])c([H])c([H])c([H])c3C([H])([H])C([H])([H])C1([H])[H])C2([H])[H])C([H])(N([H])C(=O)N1C([H])([H])C([H])([H])C([H])([H])C([H])(n2nc(-c3c([H])c([H])c(Oc4c([H])c([H])c(F)c([H])c4F)c([H])c3[H])c(C(=O)N([H])[H])c2N([H])[H])C1([H])[H])C([H])([H])C([H])([H])[H]

>  <smiles>  (82) 
[H]C([H])=C([H])C([H])(C([H])([H])C([H])([H])Oc1c([H])c([H])c2c(c1[H])C([H])([H])N(C(=O)C([H])(N([H])C(=O)C([H])(N([H])C([H])([H])[H])C([H])([H])[H])C(C([H])([H])[H])(C([H])([H])[H])C([H])([H])[H])C([H])(C(=O)N([H])C1([H])c3c([H])c([H])c([H])c([H])c3C([H])([H])C([H])([H])C1([H])[H])C2([H])[H])C([H])(N([H])C(=O)N1C([H])([H])C([H])([H])C([H])([H])C([H])(n2nc(-c3c([H])c([H])c(Oc4c([H])c([H])c(F)c([H])c4F)c([H])c3[H])c(C(=O)N([H])[H])c2N([H])[H])C1([H])[H])C([H])([H])C([H])([H])[H]

$$$$
84:0:0
     RDKit          3D

 89 97  0  0  1  0  0  0  0  0999 V2000
  -30.3260  -15.6510   20.3560 C   0  0  0  0  0  0  0  0  0  0  0  0
  -30.4250  -13.0950   19.5470 C   0  0  0  0  0  2  0  0  0  0  0  0
  -29.5510  -12.6730   18.3300 C   0  0  0  0  0  2  0  0  0  0  0  0
  -28.1260  -12.3080   18.7690 C   0  0  0  0  0  2  0  0  0  0  0  0
  -27.6000  -13.3110   19.8200 C   0  0  0  0  0  3  0  0  0  0  0  0
  -28.6200  -13.6230   20.9410 C   0  0  0  0  0  2  0  0  0  0  0  0
  -29.7910  -14.2790   20.3000 N   0  0  0  0  0  0  0  0  0  0  0  0
  -31.5430  -15.5660   20.0980 O   0  0  0  0  0  0  0  0  0  0  0  0
  -28.6660  -18.4820   22.3910 C   0  0  0  0  0  2  0  0  0  0  0  0
  -28.4900  -17.2640   21.3970 C   0  0  0  0  0  2  0  0  0  0  0  0
  -29.8260  -18.7430   20.0270 C   0  0  0  0  0  2  0  0  0  0  0  0
  -28.8490  -20.3260   20.4280 C   0  0  0  0  0  3  0  0  0  0  0  0
  -28.4900  -19.9900   21.9100 C   0  0  0  0  0  3  0  0  0  0  0  0
  -29.6150  -17.0590   20.4580 N   0  0  0  0  0  0  0  0  0  0  0  0
  -25.2330  -13.8290   20.5790 C   0  0  0  0  0  0  0  0  0  0  0  0
  -24.1710  -13.0440   20.9240 C   0  0  0  0  0  0  0  0  0  0  0  0
  -24.6410  -11.6940   20.8730 C   0  0  0  0  0  0  0  0  0  0  0  0
  -26.2790  -12.9620   20.3260 N   0  0  0  0  0  0  0  0  0  0  0  0
  -25.9360  -11.6680   20.5680 N   0  0  0  0  0  0  0  0  0  0  0  0
  -23.9110  -10.4300   21.0380 C   0  0  0  0  0  0  0  0  0  0  0  0
  -24.3640   -9.4210   21.9170 C   0  0  0  0  0  3  0  0  0  0  0  0
  -23.6290   -8.2260   22.0770 C   0  0  0  0  0  3  0  0  0  0  0  0
  -22.4270   -8.0300   21.3550 C   0  0  0  0  0  0  0  0  0  0  0  0
  -21.9910   -9.0270   20.4650 C   0  0  0  0  0  3  0  0  0  0  0  0
  -22.7270  -10.2140   20.3050 C   0  0  0  0  0  3  0  0  0  0  0  0
  -21.6640   -6.8890   21.4240 O   0  0  0  0  0  0  0  0  0  0  0  0
  -21.6850   -6.0740   22.5270 C   0  0  0  0  0  0  0  0  0  0  0  0
  -21.4020   -6.5640   23.8210 C   0  0  0  0  0  3  0  0  0  0  0  0
  -21.3660   -5.6790   24.9170 C   0  0  0  0  0  3  0  0  0  0  0  0
  -21.6040   -4.3060   24.7220 C   0  0  0  0  0  0  0  0  0  0  0  0
  -21.8810   -3.8150   23.4340 C   0  0  0  0  0  3  0  0  0  0  0  0
  -21.9190   -4.6960   22.3390 C   0  0  0  0  0  0  0  0  0  0  0  0
  -22.1650   -4.2150   21.0970 F   0  0  0  0  0  0  0  0  0  0  0  0
  -21.5630   -3.4530   25.7730 F   0  0  0  0  0  0  0  0  0  0  0  0
  -22.7720  -13.5170   21.1890 C   0  0  0  0  0  0  0  0  0  0  0  0
  -22.0380  -12.8170   22.0460 N   0  0  0  0  0  0  0  0  0  0  0  0
  -22.3400  -14.5470   20.6730 O   0  0  0  0  0  0  0  0  0  0  0  0
  -22.3980  -11.9840   22.4860 H   0  0  0  0  0  0  0  0  0  0  0  0
  -21.1000  -13.1220   22.2670 H   0  0  0  0  0  0  0  0  0  0  0  0
  -25.3920  -15.2030   20.4280 N   0  0  0  0  0  0  0  0  0  0  0  0
  -24.6190  -15.8490   20.5450 H   0  0  0  0  0  0  0  0  0  0  0  0
  -26.2410  -15.6530   20.1140 H   0  0  0  0  0  0  0  0  0  0  0  0
  -29.0460  -22.1920   20.2200 C   0  0  0  0  0  0  0  0  0  0  0  0
  -30.2200  -22.4830   19.9730 O   0  0  0  0  0  0  0  0  0  0  0  0
  -27.9620  -23.7230   20.2740 C   0  0  0  0  0  2  0  0  0  0  0  0
  -28.2100  -25.4740   20.2650 O   0  0  0  0  0  0  0  0  0  0  0  0
  -24.6850  -31.7990   23.1510 C   0  0  0  0  0  0  0  0  0  0  0  0
  -27.2360  -26.6900   20.2150 C   0  0  0  0  0  0  0  0  0  0  0  0
  -23.5120  -30.3990   21.5080 C   0  0  0  0  0  3  0  0  0  0  0  0
  -24.9680  -28.7340   20.1240 C   0  0  0  0  0  0  0  0  0  0  0  0
  -26.0930  -30.5260   21.4170 C   0  0  0  0  0  2  0  0  0  0  0  0
  -26.1610  -29.0890   20.7670 C   0  0  0  0  0  0  0  0  0  0  0  0
  -27.2790  -28.0980   20.7760 C   0  0  0  0  0  3  0  0  0  0  0  0
  -26.0060  -26.5460   19.5200 C   0  0  0  0  0  3  0  0  0  0  0  0
  -24.9330  -27.4880   19.4760 C   0  0  0  0  0  3  0  0  0  0  0  0
  -23.7640  -29.6900   20.1450 C   0  0  0  0  0  2  0  0  0  0  0  0
  -24.7880  -30.9410   22.0780 N   0  0  0  0  0  0  0  0  0  0  0  0
  -23.5870  -32.1080   23.6440 O   0  0  0  0  0  0  0  0  0  0  0  0
  -22.7760  -29.4320   22.4740 C   0  0  0  0  0  0  0  0  0  0  0  0
  -21.4420  -29.3030   22.3470 N   0  0  0  0  0  0  0  0  0  0  0  0
  -23.4190  -28.7940   23.3120 O   0  0  0  0  0  0  0  0  0  0  0  0
  -20.9760  -29.8630   21.6470 H   0  0  0  0  0  0  0  0  0  0  0  0
  -18.0340  -28.1420   22.8460 C   0  0  0  0  0  0  0  0  0  0  0  0
  -20.5970  -28.3790   23.1160 C   0  0  0  0  0  3  0  0  0  0  0  0
  -20.6800  -26.9450   22.5410 C   0  0  0  0  0  2  0  0  0  0  0  0
  -19.5780  -26.6380   21.5220 C   0  0  0  0  0  2  0  0  0  0  0  0
  -18.1970  -26.7950   22.1630 C   0  0  0  0  0  2  0  0  0  0  0  0
  -19.1610  -28.8930   23.2790 C   0  0  0  0  0  0  0  0  0  0  0  0
  -18.9510  -30.1510   23.8830 C   0  0  0  0  0  3  0  0  0  0  0  0
  -17.6500  -30.6610   24.0550 C   0  0  0  0  0  3  0  0  0  0  0  0
  -16.5390  -29.9080   23.6350 C   0  0  0  0  0  3  0  0  0  0  0  0
  -16.7320  -28.6500   23.0380 C   0  0  0  0  0  3  0  0  0  0  0  0
  -25.9420  -32.4470   23.8060 C   0  0  0  0  0  3  0  0  0  0  0  0
  -26.4600  -31.6500   25.0690 C   0  0  1  0  0  0  0  0  0  0  0  0
  -25.3650  -31.3810   26.1290 C   0  0  0  0  0  1  0  0  0  0  0  0
  -27.0520  -30.2840   24.6580 C   0  0  0  0  0  1  0  0  0  0  0  0
  -27.6050  -32.4350   25.7500 C   0  0  0  0  0  1  0  0  0  0  0  0
  -25.5990  -33.8300   24.1950 N   0  0  0  0  0  0  0  0  0  0  0  0
  -25.9120  -34.9290   23.4960 C   0  0  0  0  0  0  0  0  0  0  0  0
  -26.5780  -34.8870   22.4590 O   0  0  0  0  0  0  0  0  0  0  0  0
  -25.0010  -33.9340   25.0020 H   0  0  0  0  0  0  0  0  0  0  0  0
  -24.1490  -36.7160   23.2660 C   0  0  0  0  0  1  0  0  0  0  0  0
  -25.4150  -36.2910   24.0290 C   0  0  0  0  0  3  0  0  0  0  0  0
  -27.5580  -37.1730   24.8480 C   0  0  0  0  0  1  0  0  0  0  0  0
  -26.4280  -37.3670   23.9400 N   0  0  0  0  0  0  0  0  0  0  0  0
  -26.0130  -38.2720   24.1420 H   0  0  0  0  0  0  0  0  0  0  0  0
  -27.1200  -20.5760   22.3220 C   0  0  0  0  0  2  0  0  0  0  0  0
  -25.8460  -22.0170   23.9990 C   0  0  0  0  0  1  0  0  0  0  0  0
  -27.1340  -21.2350   23.7140 C   0  0  0  0  0  2  0  0  0  0  0  0
  1 14  1  0
  2  7  1  0
  3  4  1  0
  3  2  1  0
  5  4  1  0
  5 18  1  0
  5  6  1  0
  7  1  1  0
  7  6  1  0
  8  1  2  0
 10  9  1  0
 11 12  1  0
 11 14  1  0
 12 43  1  0
 12 13  1  0
 13 87  1  0
 13  9  1  0
 14 10  1  0
 15 16  2  0
 16 35  1  0
 17 16  1  0
 17 20  1  0
 18 19  1  0
 18 15  1  0
 19 17  2  0
 20 21  1  0
 21 22  2  0
 23 26  1  0
 23 22  1  0
 24 23  2  0
 25 24  1  0
 25 20  2  0
 26 27  1  0
 27 28  1  0
 28 29  2  0
 30 29  1  0
 30 34  1  0
 31 30  2  0
 32 27  2  0
 32 31  1  0
 33 32  1  0
 35 36  1  0
 36 39  1  0
 36 38  1  0
 37 35  2  0
 40 41  1  0
 40 15  1  0
 42 40  1  0
 43 45  1  0
 44 43  2  0
 46 45  1  0
 47 58  2  0
 48 46  1  0
 48 53  1  0
 49 57  1  0
 49 59  1  0
 50 56  1  0
 50 52  1  0
 51 57  1  0
 52 53  2  0
 52 51  1  0
 54 48  2  0
 55 54  1  0
 55 50  2  0
 56 49  1  0
 57 47  1  0
 59 61  2  0
 60 59  1  0
 62 60  1  0
 63 72  2  0
 63 68  1  0
 64 60  1  0
 64 68  1  0
 65 64  1  0
 66 67  1  0
 66 65  1  0
 67 63  1  0
 68 69  2  0
 69 70  1  0
 71 70  2  0
 72 71  1  0
 73 47  1  0
 73 78  1  0
 73 74  1  0
 74 77  1  1
 74 75  1  0
 76 74  1  0
 78 81  1  0
 79 83  1  0
 79 78  1  0
 80 79  2  0
 83 82  1  0
 85 83  1  0
 85 86  1  0
 85 84  1  0
 87 89  1  0
 89 88  1  0
M  ISO  4   1 100  14 100  45 101  46 101
M  END
>  <TORSDO>  (83) 
F 19

>  <SCORE>  (83) 
14.459

>  <name>  (83) 
84

>  <ligand_id>  (83) 
84

>  <original_smiles>  (83) 
[H]c1c([H])c([H])c2c(c1[H])C([H])([H])C([H])([H])C([H])([H])C2([H])N([H])C(=O)C1([H])N(C(=O)C([H])(N([H])C(=O)C([H])(N([H])C([H])([H])[H])C([H])([H])[H])C(C([H])([H])[H])(C([H])([H])[H])C([H])([H])[H])C([H])([H])c2c([H])c(OC([H])([H])C(=O)C3([H])C([H])([H])N(C(=O)N4C([H])([H])C([H])([H])C([H])([H])C([H])(n5nc(-c6c([H])c([H])c(Oc7c([H])c([H])c(F)c([H])c7F)c([H])c6[H])c(C(=O)N([H])[H])c5N([H])[H])C4([H])[H])C([H])([H])C([H])([H])C3([H])C([H])([H])C([H])([H])C([H])([H])[H])c([H])c([H])c2C1([H])[H]

>  <smiles>  (83) 
[H]c1c([H])c([H])c2c(c1[H])C([H])([H])C([H])([H])C([H])([H])C2([H])N([H])C(=O)C1([H])N(C(=O)C([H])(N([H])C(=O)C([H])(N([H])C([H])([H])[H])C([H])([H])[H])C(C([H])([H])[H])(C([H])([H])[H])C([H])([H])[H])C([H])([H])c2c([H])c(OC([H])([H])C(=O)C3([H])C([H])([H])N(C(=O)N4C([H])([H])C([H])([H])C([H])([H])C([H])(n5nc(-c6c([H])c([H])c(Oc7c([H])c([H])c(F)c([H])c7F)c([H])c6[H])c(C(=O)N([H])[H])c5N([H])[H])C4([H])[H])C([H])([H])C([H])([H])C3([H])C([H])([H])C([H])([H])C([H])([H])[H])c([H])c([H])c2C1([H])[H]

$$$$
85:0:0
     RDKit          3D

 92100  0  0  1  0  0  0  0  0999 V2000
  -31.2460  -15.1430   19.6710 C   0  0  0  0  0  0  0  0  0  0  0  0
  -30.9370  -12.7350   18.7540 C   0  0  0  0  0  2  0  0  0  0  0  0
  -29.9070  -12.6210   17.6040 C   0  0  0  0  0  2  0  0  0  0  0  0
  -28.4810  -12.4590   18.1580 C   0  0  0  0  0  2  0  0  0  0  0  0
  -28.2000  -13.4290   19.3330 C   0  0  0  0  0  3  0  0  0  0  0  0
  -29.3470  -13.4830   20.3640 C   0  0  0  0  0  2  0  0  0  0  0  0
  -30.5480  -13.9030   19.6250 N   0  0  0  0  0  0  0  0  0  0  0  0
  -32.4590  -15.0100   19.4440 O   0  0  0  0  0  0  0  0  0  0  0  0
  -29.9260  -18.6990   18.5620 C   0  0  0  0  0  2  0  0  0  0  0  0
  -29.7890  -17.1000   18.7220 C   0  0  0  0  0  2  0  0  0  0  0  0
  -30.2270  -19.3560   19.9280 C   0  0  0  0  0  3  0  0  0  0  0  0
  -31.1110  -17.9400   20.3580 C   0  0  0  0  0  3  0  0  0  0  0  0
  -30.6360  -16.5040   19.8010 N   0  0  0  0  0  0  0  0  0  0  0  0
  -25.9730  -14.1520   20.3370 C   0  0  0  0  0  0  0  0  0  0  0  0
  -24.8760  -13.4540   20.7550 C   0  0  0  0  0  0  0  0  0  0  0  0
  -25.2050  -12.0710   20.6080 C   0  0  0  0  0  0  0  0  0  0  0  0
  -26.9000  -13.2030   19.9480 N   0  0  0  0  0  0  0  0  0  0  0  0
  -26.4570  -11.9390   20.1790 N   0  0  0  0  0  0  0  0  0  0  0  0
  -24.3760  -10.8710   20.7920 C   0  0  0  0  0  0  0  0  0  0  0  0
  -24.7640   -9.8330   21.6650 C   0  0  0  0  0  3  0  0  0  0  0  0
  -23.9400   -8.7000   21.8430 C   0  0  0  0  0  3  0  0  0  0  0  0
  -22.7130   -8.5990   21.1440 C   0  0  0  0  0  0  0  0  0  0  0  0
  -22.3420   -9.6250   20.2580 C   0  0  0  0  0  3  0  0  0  0  0  0
  -23.1660  -10.7500   20.0800 C   0  0  0  0  0  3  0  0  0  0  0  0
  -21.8600   -7.5260   21.2320 O   0  0  0  0  0  0  0  0  0  0  0  0
  -21.7890   -6.7550   22.3650 C   0  0  0  0  0  0  0  0  0  0  0  0
  -21.4130   -7.2970   23.6130 C   0  0  0  0  0  3  0  0  0  0  0  0
  -21.2870   -6.4570   24.7370 C   0  0  0  0  0  3  0  0  0  0  0  0
  -21.5250   -5.0740   24.6130 C   0  0  0  0  0  0  0  0  0  0  0  0
  -21.8930   -4.5310   23.3700 C   0  0  0  0  0  3  0  0  0  0  0  0
  -22.0210   -5.3690   22.2490 C   0  0  0  0  0  0  0  0  0  0  0  0
  -22.3560   -4.8380   21.0480 F   0  0  0  0  0  0  0  0  0  0  0  0
  -21.3960   -4.2650   25.6910 F   0  0  0  0  0  0  0  0  0  0  0  0
  -23.5570  -14.0400   21.1690 C   0  0  0  0  0  0  0  0  0  0  0  0
  -22.8570  -13.3820   22.0850 N   0  0  0  0  0  0  0  0  0  0  0  0
  -23.1670  -15.1150   20.7150 O   0  0  0  0  0  0  0  0  0  0  0  0
  -23.1880  -12.5100   22.4700 H   0  0  0  0  0  0  0  0  0  0  0  0
  -21.9730  -13.7540   22.4050 H   0  0  0  0  0  0  0  0  0  0  0  0
  -26.2540  -15.5120   20.2230 N   0  0  0  0  0  0  0  0  0  0  0  0
  -25.5330  -16.2060   20.3840 H   0  0  0  0  0  0  0  0  0  0  0  0
  -27.0480  -15.8780   19.7180 H   0  0  0  0  0  0  0  0  0  0  0  0
  -32.0940  -21.2640   19.8420 C   0  0  0  0  0  1  0  0  0  0  0  0
  -30.6010  -21.1150   20.1590 C   0  0  0  0  0  3  0  0  0  0  0  0
  -29.8710  -22.6930   19.6850 C   0  0  0  0  0  2  0  0  0  0  0  0
  -29.4920  -24.2280   20.5520 C   0  0  0  0  0  2  0  0  0  0  0  0
  -29.4550  -25.8490   20.2660 O   0  0  0  0  0  0  0  0  0  0  0  0
  -25.0600  -31.2410   23.2510 C   0  0  0  0  0  0  0  0  0  0  0  0
  -28.3070  -26.7930   20.2660 C   0  0  0  0  0  0  0  0  0  0  0  0
  -24.1290  -29.8000   21.4850 C   0  0  0  0  0  3  0  0  0  0  0  0
  -25.8280  -28.4100   20.1210 C   0  0  0  0  0  0  0  0  0  0  0  0
  -26.6620  -30.2850   21.5220 C   0  0  0  0  0  2  0  0  0  0  0  0
  -26.9240  -28.9180   20.8300 C   0  0  0  0  0  0  0  0  0  0  0  0
  -28.1610  -28.1360   20.8710 C   0  0  0  0  0  3  0  0  0  0  0  0
  -27.1670  -26.4220   19.5240 C   0  0  0  0  0  3  0  0  0  0  0  0
  -25.9720  -27.1840   19.4500 C   0  0  0  0  0  3  0  0  0  0  0  0
  -24.5200  -29.1980   20.1070 C   0  0  0  0  0  2  0  0  0  0  0  0
  -25.2990  -30.4690   22.1420 N   0  0  0  0  0  0  0  0  0  0  0  0
  -23.9140  -31.3950   23.7040 O   0  0  0  0  0  0  0  0  0  0  0  0
  -23.4820  -28.7000   22.3640 C   0  0  0  0  0  0  0  0  0  0  0  0
  -22.2020  -28.3700   22.1070 N   0  0  0  0  0  0  0  0  0  0  0  0
  -24.1410  -28.1410   23.2450 O   0  0  0  0  0  0  0  0  0  0  0  0
  -21.7180  -28.8790   21.3810 H   0  0  0  0  0  0  0  0  0  0  0  0
  -18.9880  -26.6930   22.2300 C   0  0  0  0  0  0  0  0  0  0  0  0
  -21.4380  -27.3140   22.7800 C   0  0  0  0  0  3  0  0  0  0  0  0
  -21.8040  -25.9190   22.2230 C   0  0  0  0  0  2  0  0  0  0  0  0
  -20.8810  -25.4590   21.0900 C   0  0  0  0  0  2  0  0  0  0  0  0
  -19.4290  -25.3950   21.5750 C   0  0  0  0  0  2  0  0  0  0  0  0
  -19.9310  -27.6010   22.7810 C   0  0  0  0  0  0  0  0  0  0  0  0
  -19.4660  -28.8070   23.3500 C   0  0  0  0  0  3  0  0  0  0  0  0
  -18.0920  -29.1100   23.3730 C   0  0  0  0  0  3  0  0  0  0  0  0
  -17.1630  -28.2030   22.8370 C   0  0  0  0  0  3  0  0  0  0  0  0
  -17.6100  -26.9960   22.2710 C   0  0  0  0  0  3  0  0  0  0  0  0
  -26.2110  -31.9830   23.9940 C   0  0  0  0  0  3  0  0  0  0  0  0
  -25.7670  -33.3630   24.2560 N   0  0  0  0  0  0  0  0  0  0  0  0
  -26.0800  -34.4270   23.5040 C   0  0  0  0  0  0  0  0  0  0  0  0
  -26.8350  -34.3550   22.5310 O   0  0  0  0  0  0  0  0  0  0  0  0
  -25.1010  -33.4870   25.0040 H   0  0  0  0  0  0  0  0  0  0  0  0
  -24.2390  -36.0710   23.0010 C   0  0  0  0  0  1  0  0  0  0  0  0
  -25.4610  -35.7860   23.8910 C   0  0  0  0  0  3  0  0  0  0  0  0
  -27.4630  -36.8710   24.8130 C   0  0  0  0  0  1  0  0  0  0  0  0
  -26.4130  -36.9160   23.7990 N   0  0  0  0  0  0  0  0  0  0  0  0
  -25.9260  -37.8040   23.8860 H   0  0  0  0  0  0  0  0  0  0  0  0
  -26.6280  -31.2810   25.3460 C   0  0  1  0  0  0  0  0  0  0  0  0
  -25.4410  -31.0050   26.2980 C   0  0  0  0  0  1  0  0  0  0  0  0
  -27.3330  -29.9330   25.0760 C   0  0  0  0  0  1  0  0  0  0  0  0
  -27.6480  -32.1650   26.1030 C   0  0  0  0  0  1  0  0  0  0  0  0
  -31.4790  -17.8810   21.8580 C   0  0  0  0  0  2  0  0  0  0  0  0
  -30.3400  -17.5510   22.8470 C   0  0  0  0  0  2  0  0  0  0  0  0
  -29.7670  -16.2070   22.6620 N   0  0  0  0  0  4  0  0  0  0  0  0
  -29.3430  -16.1090   21.7570 H   0  0  0  0  0  0  0  0  0  0  0  0
  -29.0540  -16.0550   23.3540 H   0  0  0  0  0  0  0  0  0  0  0  0
  -30.4680  -15.4990   22.7870 H   0  0  0  0  0  0  0  0  0  0  0  0
  1 13  1  0
  2  7  1  0
  3  4  1  0
  3  2  1  0
  5  4  1  0
  5 17  1  0
  5  6  1  0
  7  1  1  0
  7  6  1  0
  8  1  2  0
  9 10  1  0
  9 11  1  0
 10 13  1  0
 11 43  1  0
 11 12  1  0
 12 87  1  0
 13 12  1  0
 14 15  2  0
 15 34  1  0
 16 15  1  0
 16 19  1  0
 17 18  1  0
 17 14  1  0
 18 16  2  0
 19 20  1  0
 20 21  2  0
 22 25  1  0
 22 21  1  0
 23 22  2  0
 24 23  1  0
 24 19  2  0
 25 26  1  0
 26 27  1  0
 27 28  2  0
 29 28  1  0
 29 33  1  0
 30 29  2  0
 31 26  2  0
 31 30  1  0
 32 31  1  0
 34 35  1  0
 35 38  1  0
 35 37  1  0
 36 34  2  0
 39 14  1  0
 39 40  1  0
 41 39  1  0
 43 42  1  0
 44 43  1  0
 44 45  1  0
 46 48  1  0
 46 45  1  0
 47 58  2  0
 48 53  1  0
 49 57  1  0
 49 59  1  0
 50 52  1  0
 51 57  1  0
 52 53  2  0
 52 51  1  0
 54 48  2  0
 55 54  1  0
 55 50  2  0
 56 50  1  0
 56 49  1  0
 57 47  1  0
 59 61  2  0
 60 59  1  0
 62 60  1  0
 63 72  2  0
 63 68  1  0
 64 60  1  0
 64 68  1  0
 65 64  1  0
 66 67  1  0
 66 65  1  0
 67 63  1  0
 68 69  2  0
 69 70  1  0
 71 70  2  0
 72 71  1  0
 73 47  1  0
 73 74  1  0
 73 83  1  0
 74 77  1  0
 75 79  1  0
 75 74  1  0
 76 75  2  0
 79 78  1  0
 81 82  1  0
 81 79  1  0
 81 80  1  0
 83 86  1  1
 83 84  1  0
 85 83  1  0
 87 88  1  0
 89 92  1  0
 89 88  1  0
 89 91  1  0
 90 89  1  0
M  ISO  4   1 100  13 100  45 101  46 101
M  END
>  <TORSDO>  (84) 
F 21

>  <SCORE>  (84) 
-10.908

>  <name>  (84) 
85

>  <ligand_id>  (84) 
85

>  <original_smiles>  (84) 
[H]c1c([H])c([H])c2c(c1[H])C([H])([H])C([H])([H])C([H])([H])C2([H])N([H])C(=O)C1([H])N(C(=O)C([H])(N([H])C(=O)C([H])(N([H])C([H])([H])[H])C([H])([H])[H])C(C([H])([H])[H])(C([H])([H])[H])C([H])([H])[H])C([H])([H])c2c([H])c(OC([H])([H])C([H])([H])C([H])(C([H])([H])[H])C3([H])C([H])([H])C([H])([H])N(C(=O)N4C([H])([H])C([H])([H])C([H])([H])C([H])(n5nc(-c6c([H])c([H])c(Oc7c([H])c([H])c(F)c([H])c7F)c([H])c6[H])c(C(=O)N([H])[H])c5N([H])[H])C4([H])[H])C3([H])C([H])([H])C([H])([H])[N+]([H])([H])[H])c([H])c([H])c2C1([H])[H]

>  <smiles>  (84) 
[H]c1c([H])c([H])c2c(c1[H])C([H])([H])C([H])([H])C([H])([H])C2([H])N([H])C(=O)C1([H])N(C(=O)C([H])(N([H])C(=O)C([H])(N([H])C([H])([H])[H])C([H])([H])[H])C(C([H])([H])[H])(C([H])([H])[H])C([H])([H])[H])C([H])([H])c2c([H])c(OC([H])([H])C([H])([H])C([H])(C([H])([H])[H])C3([H])C([H])([H])C([H])([H])N(C(=O)N4C([H])([H])C([H])([H])C([H])([H])C([H])(n5nc(-c6c([H])c([H])c(Oc7c([H])c([H])c(F)c([H])c7F)c([H])c6[H])c(C(=O)N([H])[H])c5N([H])[H])C4([H])[H])C3([H])C([H])([H])C([H])([H])[N+]([H])([H])[H])c([H])c([H])c2C1([H])[H]

$$$$
86:0:0
     RDKit          3D

 86 93  0  0  1  0  0  0  0  0999 V2000
  -28.7190  -22.8170   19.9350 C   0  0  0  0  0  2  0  0  0  0  0  0
  -28.0760  -24.3550   20.5700 C   0  0  0  0  0  2  0  0  0  0  0  0
  -28.2450  -25.9400   20.2210 O   0  0  0  0  0  0  0  0  0  0  0  0
  -24.6450  -31.8550   23.2040 C   0  0  0  0  0  0  0  0  0  0  0  0
  -27.2030  -26.9910   20.2290 C   0  0  0  0  0  0  0  0  0  0  0  0
  -23.4460  -30.4450   21.5800 C   0  0  0  0  0  3  0  0  0  0  0  0
  -24.8920  -28.8320   20.1740 C   0  0  0  0  0  0  0  0  0  0  0  0
  -26.0090  -30.6710   21.4190 C   0  0  0  0  0  2  0  0  0  0  0  0
  -26.0810  -29.2570   20.7800 C   0  0  0  0  0  0  0  0  0  0  0  0
  -27.2340  -28.3600   20.7770 C   0  0  0  0  0  3  0  0  0  0  0  0
  -25.9800  -26.6990   19.5850 C   0  0  0  0  0  3  0  0  0  0  0  0
  -24.8620  -27.5700   19.5580 C   0  0  0  0  0  3  0  0  0  0  0  0
  -23.6720  -29.7490   20.2110 C   0  0  0  0  0  2  0  0  0  0  0  0
  -24.7230  -31.0170   22.1220 N   0  0  0  0  0  0  0  0  0  0  0  0
  -23.5580  -32.1470   23.7270 O   0  0  0  0  0  0  0  0  0  0  0  0
  -22.7590  -29.4550   22.5550 C   0  0  0  0  0  0  0  0  0  0  0  0
  -21.4270  -29.2930   22.4370 N   0  0  0  0  0  0  0  0  0  0  0  0
  -23.4270  -28.8320   23.3830 O   0  0  0  0  0  0  0  0  0  0  0  0
  -20.9410  -29.8470   21.7470 H   0  0  0  0  0  0  0  0  0  0  0  0
  -18.0460  -28.0920   22.9660 C   0  0  0  0  0  0  0  0  0  0  0  0
  -20.6070  -28.3620   23.2200 C   0  0  0  0  0  3  0  0  0  0  0  0
  -20.7070  -26.9250   22.6590 C   0  0  0  0  0  2  0  0  0  0  0  0
  -19.6030  -26.5920   21.6510 C   0  0  0  0  0  2  0  0  0  0  0  0
  -18.2230  -26.7390   22.2980 C   0  0  0  0  0  2  0  0  0  0  0  0
  -19.1650  -28.8610   23.3850 C   0  0  0  0  0  0  0  0  0  0  0  0
  -18.9450  -30.1260   23.9720 C   0  0  0  0  0  3  0  0  0  0  0  0
  -17.6390  -30.6230   24.1440 C   0  0  0  0  0  3  0  0  0  0  0  0
  -16.5350  -29.8520   23.7400 C   0  0  0  0  0  3  0  0  0  0  0  0
  -16.7390  -28.5890   23.1580 C   0  0  0  0  0  3  0  0  0  0  0  0
  -25.9200  -32.5020   23.8280 C   0  0  0  0  0  3  0  0  0  0  0  0
  -25.5980  -33.8990   24.1660 N   0  0  0  0  0  0  0  0  0  0  0  0
  -25.9190  -34.9630   23.4170 C   0  0  0  0  0  0  0  0  0  0  0  0
  -26.5810  -34.8720   22.3800 O   0  0  0  0  0  0  0  0  0  0  0  0
  -25.0100  -34.0430   24.9730 H   0  0  0  0  0  0  0  0  0  0  0  0
  -24.1770  -36.7540   23.1040 C   0  0  0  0  0  1  0  0  0  0  0  0
  -25.4320  -36.3470   23.8930 C   0  0  0  0  0  3  0  0  0  0  0  0
  -27.5750  -37.2380   24.6990 C   0  0  0  0  0  1  0  0  0  0  0  0
  -26.4570  -37.4070   23.7730 N   0  0  0  0  0  0  0  0  0  0  0  0
  -26.0480  -38.3240   23.9370 H   0  0  0  0  0  0  0  0  0  0  0  0
  -26.4370  -31.7390   25.1090 C   0  0  1  0  0  0  0  0  0  0  0  0
  -25.3460  -31.5080   26.1810 C   0  0  0  0  0  1  0  0  0  0  0  0
  -27.0220  -30.3590   24.7320 C   0  0  0  0  0  1  0  0  0  0  0  0
  -27.5900  -32.5380   25.7640 C   0  0  0  0  0  1  0  0  0  0  0  0
  -29.0130  -21.2120   20.6670 C   0  0  0  0  0  3  0  0  0  0  0  0
  -31.5640  -21.4710   20.9470 C   0  0  0  0  0  1  0  0  0  0  0  0
  -30.1950  -21.3840   21.6390 C   0  0  0  0  0  2  0  0  0  0  0  0
  -29.1570  -19.5610   19.9950 C   0  0  0  0  0  2  0  0  0  0  0  0
  -29.8560  -18.0580   20.6500 C   0  0  0  0  0  2  0  0  0  0  0  0
  -30.3930  -15.2010   20.2710 C   0  0  0  0  0  0  0  0  0  0  0  0
  -30.3440  -12.7810   19.3610 C   0  0  0  0  0  2  0  0  0  0  0  0
  -29.4090  -12.6020   18.1400 C   0  0  0  0  0  2  0  0  0  0  0  0
  -27.9610  -12.3440   18.5910 C   0  0  0  0  0  2  0  0  0  0  0  0
  -27.5250  -13.3040   19.7270 C   0  0  0  0  0  3  0  0  0  0  0  0
  -28.5840  -13.4260   20.8420 C   0  0  0  0  0  2  0  0  0  0  0  0
  -29.8130  -13.9110   20.1970 N   0  0  0  0  0  0  0  0  0  0  0  0
  -31.6200  -15.2090   20.0980 O   0  0  0  0  0  0  0  0  0  0  0  0
  -29.6180  -16.4500   20.3360 N   0  0  0  0  0  0  0  0  0  0  0  0
  -28.6340  -16.2310   20.3100 H   0  0  0  0  0  0  0  0  0  0  0  0
  -25.1560  -13.8650   20.4900 C   0  0  0  0  0  0  0  0  0  0  0  0
  -24.0970  -13.0880   20.8670 C   0  0  0  0  0  0  0  0  0  0  0  0
  -24.5680  -11.7380   20.8410 C   0  0  0  0  0  0  0  0  0  0  0  0
  -26.2000  -12.9910   20.2460 N   0  0  0  0  0  0  0  0  0  0  0  0
  -25.8590  -11.7070   20.5270 N   0  0  0  0  0  0  0  0  0  0  0  0
  -23.8450  -10.4750   21.0370 C   0  0  0  0  0  0  0  0  0  0  0  0
  -24.2890   -9.5040   21.9620 C   0  0  0  0  0  3  0  0  0  0  0  0
  -23.5630   -8.3080   22.1480 C   0  0  0  0  0  3  0  0  0  0  0  0
  -22.3790   -8.0740   21.4090 C   0  0  0  0  0  0  0  0  0  0  0  0
  -21.9540   -9.0340   20.4730 C   0  0  0  0  0  3  0  0  0  0  0  0
  -22.6810  -10.2210   20.2860 C   0  0  0  0  0  3  0  0  0  0  0  0
  -21.6230   -6.9300   21.5040 O   0  0  0  0  0  0  0  0  0  0  0  0
  -21.6010   -6.1760   22.6500 C   0  0  0  0  0  0  0  0  0  0  0  0
  -21.2170   -6.7210   23.8940 C   0  0  0  0  0  3  0  0  0  0  0  0
  -21.1420   -5.8950   25.0330 C   0  0  0  0  0  3  0  0  0  0  0  0
  -21.4400   -4.5230   24.9280 C   0  0  0  0  0  0  0  0  0  0  0  0
  -21.8180   -3.9760   23.6890 C   0  0  0  0  0  3  0  0  0  0  0  0
  -21.8950   -4.8010   22.5530 C   0  0  0  0  0  0  0  0  0  0  0  0
  -22.2380   -4.2650   21.3560 F   0  0  0  0  0  0  0  0  0  0  0  0
  -21.3600   -3.7260   26.0200 F   0  0  0  0  0  0  0  0  0  0  0  0
  -22.6990  -13.5620   21.1340 C   0  0  0  0  0  0  0  0  0  0  0  0
  -21.9720  -12.8700   22.0030 N   0  0  0  0  0  0  0  0  0  0  0  0
  -22.2610  -14.5840   20.6060 O   0  0  0  0  0  0  0  0  0  0  0  0
  -22.3400  -12.0430   22.4500 H   0  0  0  0  0  0  0  0  0  0  0  0
  -21.0350  -13.1720   22.2260 H   0  0  0  0  0  0  0  0  0  0  0  0
  -25.3100  -15.2360   20.3050 N   0  0  0  0  0  0  0  0  0  0  0  0
  -24.5330  -15.8790   20.4080 H   0  0  0  0  0  0  0  0  0  0  0  0
  -26.1420  -15.6790   19.9380 H   0  0  0  0  0  0  0  0  0  0  0  0
  1  2  1  0
  3  5  1  0
  3  2  1  0
  4 15  2  0
  5 10  1  0
  6 14  1  0
  6 16  1  0
  7 13  1  0
  7  9  1  0
  8 14  1  0
  9  8  1  0
 10  9  2  0
 11  5  2  0
 12 11  1  0
 12  7  2  0
 13  6  1  0
 14  4  1  0
 16 18  2  0
 17 16  1  0
 19 17  1  0
 20 29  2  0
 20 25  1  0
 21 17  1  0
 21 25  1  0
 22 21  1  0
 23 24  1  0
 23 22  1  0
 24 20  1  0
 25 26  2  0
 26 27  1  0
 28 27  2  0
 29 28  1  0
 30  4  1  0
 30 31  1  0
 30 40  1  0
 31 34  1  0
 32 36  1  0
 32 31  1  0
 33 32  2  0
 36 35  1  0
 38 36  1  0
 38 39  1  0
 38 37  1  0
 40 43  1  1
 40 41  1  0
 42 40  1  0
 44  1  1  0
 44 46  1  0
 45 46  1  0
 47 48  1  0
 47 44  1  0
 49 57  1  0
 50 55  1  0
 51 52  1  0
 51 50  1  0
 53 52  1  0
 53 62  1  0
 53 54  1  0
 55 49  1  0
 55 54  1  0
 56 49  2  0
 57 48  1  0
 58 57  1  0
 59 60  2  0
 60 79  1  0
 61 60  1  0
 61 64  1  0
 62 59  1  0
 62 63  1  0
 63 61  2  0
 64 65  1  0
 65 66  2  0
 67 70  1  0
 67 66  1  0
 68 67  2  0
 69 68  1  0
 69 64  2  0
 70 71  1  0
 71 72  1  0
 72 73  2  0
 74 73  1  0
 74 78  1  0
 75 74  2  0
 76 71  2  0
 76 75  1  0
 77 76  1  0
 79 80  1  0
 80 83  1  0
 80 82  1  0
 81 79  2  0
 84 85  1  0
 84 59  1  0
 86 84  1  0
M  ISO  4   2 101   3 101  49 100  57 100
M  END
>  <TORSDO>  (85) 
F 21

>  <SCORE>  (85) 
-15.544

>  <name>  (85) 
86

>  <ligand_id>  (85) 
86

>  <original_smiles>  (85) 
[H]c1c([H])c([H])c2c(c1[H])C([H])([H])C([H])([H])C([H])([H])C2([H])N([H])C(=O)C1([H])N(C(=O)C([H])(N([H])C(=O)C([H])(N([H])C([H])([H])[H])C([H])([H])[H])C(C([H])([H])[H])(C([H])([H])[H])C([H])([H])[H])C([H])([H])c2c([H])c(OC([H])([H])C([H])([H])C([H])(C([H])([H])C([H])([H])[H])C([H])([H])C([H])([H])N([H])C(=O)N3C([H])([H])C([H])([H])C([H])([H])C([H])(n4nc(-c5c([H])c([H])c(Oc6c([H])c([H])c(F)c([H])c6F)c([H])c5[H])c(C(=O)N([H])[H])c4N([H])[H])C3([H])[H])c([H])c([H])c2C1([H])[H]

>  <smiles>  (85) 
[H]c1c([H])c([H])c2c(c1[H])C([H])([H])C([H])([H])C([H])([H])C2([H])N([H])C(=O)C1([H])N(C(=O)C([H])(N([H])C(=O)C([H])(N([H])C([H])([H])[H])C([H])([H])[H])C(C([H])([H])[H])(C([H])([H])[H])C([H])([H])[H])C([H])([H])c2c([H])c(OC([H])([H])C([H])([H])C([H])(C([H])([H])C([H])([H])[H])C([H])([H])C([H])([H])N([H])C(=O)N3C([H])([H])C([H])([H])C([H])([H])C([H])(n4nc(-c5c([H])c([H])c(Oc6c([H])c([H])c(F)c([H])c6F)c([H])c5[H])c(C(=O)N([H])[H])c4N([H])[H])C3([H])[H])c([H])c([H])c2C1([H])[H]

$$$$
87:0:0
     RDKit          3D

 88 96  0  0  1  0  0  0  0  0999 V2000
  -28.7310  -21.8010   22.0610 C   0  0  0  0  0  1  0  0  0  0  0  0
  -28.9210  -21.8960   20.5360 C   0  0  0  0  0  3  0  0  0  0  0  0
  -29.6540  -23.6130   18.6280 C   0  0  0  0  0  1  0  0  0  0  0  0
  -29.2420  -23.5150   20.1150 C   0  0  0  0  0  3  0  0  0  0  0  0
  -28.2020  -24.8030   20.4810 C   0  0  0  0  0  2  0  0  0  0  0  0
  -28.3710  -26.3240   20.2080 O   0  0  0  0  0  0  0  0  0  0  0  0
  -24.6200  -31.9210   23.2270 C   0  0  0  0  0  0  0  0  0  0  0  0
  -27.2620  -27.2490   20.1990 C   0  0  0  0  0  0  0  0  0  0  0  0
  -23.4270  -30.5120   21.5870 C   0  0  0  0  0  3  0  0  0  0  0  0
  -24.8910  -28.9420   20.1680 C   0  0  0  0  0  0  0  0  0  0  0  0
  -25.9710  -30.8080   21.4160 C   0  0  0  0  0  2  0  0  0  0  0  0
  -26.0620  -29.4110   20.7720 C   0  0  0  0  0  0  0  0  0  0  0  0
  -27.2450  -28.5850   20.7670 C   0  0  0  0  0  3  0  0  0  0  0  0
  -26.0600  -26.8710   19.5590 C   0  0  0  0  0  3  0  0  0  0  0  0
  -24.9000  -27.6790   19.5480 C   0  0  0  0  0  3  0  0  0  0  0  0
  -23.6590  -29.8330   20.2070 C   0  0  0  0  0  2  0  0  0  0  0  0
  -24.6920  -31.1030   22.1330 N   0  0  0  0  0  0  0  0  0  0  0  0
  -23.5340  -32.2000   23.7570 O   0  0  0  0  0  0  0  0  0  0  0  0
  -22.7560  -29.5060   22.5570 C   0  0  0  0  0  0  0  0  0  0  0  0
  -21.4270  -29.3290   22.4420 N   0  0  0  0  0  0  0  0  0  0  0  0
  -23.4350  -28.8860   23.3780 O   0  0  0  0  0  0  0  0  0  0  0  0
  -20.9270  -29.8940   21.7710 H   0  0  0  0  0  0  0  0  0  0  0  0
  -18.0610  -28.0970   22.9650 C   0  0  0  0  0  0  0  0  0  0  0  0
  -20.6190  -28.3870   23.2230 C   0  0  0  0  0  3  0  0  0  0  0  0
  -20.7310  -26.9530   22.6630 C   0  0  0  0  0  2  0  0  0  0  0  0
  -19.6300  -26.6110   21.6510 C   0  0  0  0  0  2  0  0  0  0  0  0
  -18.2510  -26.7450   22.2980 C   0  0  0  0  0  2  0  0  0  0  0  0
  -19.1720  -28.8730   23.3890 C   0  0  0  0  0  0  0  0  0  0  0  0
  -18.9420  -30.1320   23.9830 C   0  0  0  0  0  3  0  0  0  0  0  0
  -17.6320  -30.6220   24.1460 C   0  0  0  0  0  3  0  0  0  0  0  0
  -16.5340  -29.8450   23.7330 C   0  0  0  0  0  3  0  0  0  0  0  0
  -16.7500  -28.5830   23.1520 C   0  0  0  0  0  3  0  0  0  0  0  0
  -25.8960  -32.5690   23.8520 C   0  0  0  0  0  3  0  0  0  0  0  0
  -26.4180  -31.8000   25.1290 C   0  0  1  0  0  0  0  0  0  0  0  0
  -25.3300  -31.5660   26.2020 C   0  0  0  0  0  1  0  0  0  0  0  0
  -27.0050  -30.4220   24.7430 C   0  0  0  0  0  1  0  0  0  0  0  0
  -27.5710  -32.5940   25.7830 C   0  0  0  0  0  1  0  0  0  0  0  0
  -25.5760  -33.9660   24.1850 N   0  0  0  0  0  0  0  0  0  0  0  0
  -25.9040  -35.0230   23.4340 C   0  0  0  0  0  0  0  0  0  0  0  0
  -26.5700  -34.9240   22.3980 O   0  0  0  0  0  0  0  0  0  0  0  0
  -24.9710  -34.1150   24.9800 H   0  0  0  0  0  0  0  0  0  0  0  0
  -24.1650  -36.8150   23.0960 C   0  0  0  0  0  1  0  0  0  0  0  0
  -25.4140  -36.4090   23.8970 C   0  0  0  0  0  3  0  0  0  0  0  0
  -27.5560  -37.2970   24.7090 C   0  0  0  0  0  1  0  0  0  0  0  0
  -26.4390  -37.4670   23.7820 N   0  0  0  0  0  0  0  0  0  0  0  0
  -26.0310  -38.3830   23.9450 H   0  0  0  0  0  0  0  0  0  0  0  0
  -29.8630  -20.5900   20.0350 C   0  0  0  0  0  2  0  0  0  0  0  0
  -30.6050  -15.0830   20.0830 C   0  0  0  0  0  0  0  0  0  0  0  0
  -30.4270  -12.7410   19.1340 C   0  0  0  0  0  2  0  0  0  0  0  0
  -29.4550  -12.7130   17.9310 C   0  0  0  0  0  2  0  0  0  0  0  0
  -28.0000  -12.5090   18.3900 C   0  0  0  0  0  2  0  0  0  0  0  0
  -27.6330  -13.3900   19.6100 C   0  0  0  0  0  3  0  0  0  0  0  0
  -28.7310  -13.3860   20.6960 C   0  0  0  0  0  2  0  0  0  0  0  0
  -29.9860  -13.8240   20.0710 N   0  0  0  0  0  0  0  0  0  0  0  0
  -31.7890  -15.1140   19.7190 O   0  0  0  0  0  0  0  0  0  0  0  0
  -28.5000  -18.2340   20.7660 C   0  0  0  0  0  3  0  0  0  0  0  0
  -28.6940  -16.8540   20.7720 C   0  0  0  0  0  3  0  0  0  0  0  0
  -30.5380  -17.8450   20.0970 C   0  0  0  0  0  3  0  0  0  0  0  0
  -29.6620  -18.9500   20.3080 C   0  0  0  0  0  0  0  0  0  0  0  0
  -29.9710  -16.5200   20.3250 N   0  0  0  0  0  0  0  0  0  0  0  0
  -25.2680  -13.9320   20.4390 C   0  0  0  0  0  0  0  0  0  0  0  0
  -24.2250  -13.1410   20.8390 C   0  0  0  0  0  0  0  0  0  0  0  0
  -24.7000  -11.7950   20.7720 C   0  0  0  0  0  0  0  0  0  0  0  0
  -26.3120  -13.0680   20.1520 N   0  0  0  0  0  0  0  0  0  0  0  0
  -25.9810  -11.7760   20.4240 N   0  0  0  0  0  0  0  0  0  0  0  0
  -23.9850  -10.5260   20.9680 C   0  0  0  0  0  0  0  0  0  0  0  0
  -24.4370   -9.5650   21.8990 C   0  0  0  0  0  3  0  0  0  0  0  0
  -23.7250   -8.3600   22.0870 C   0  0  0  0  0  3  0  0  0  0  0  0
  -22.5470   -8.1070   21.3460 C   0  0  0  0  0  0  0  0  0  0  0  0
  -22.1170   -9.0550   20.3980 C   0  0  0  0  0  3  0  0  0  0  0  0
  -22.8300  -10.2490   20.2060 C   0  0  0  0  0  3  0  0  0  0  0  0
  -21.8060   -6.9530   21.4420 O   0  0  0  0  0  0  0  0  0  0  0  0
  -21.7420   -6.2330   22.6080 C   0  0  0  0  0  0  0  0  0  0  0  0
  -21.2960   -6.8080   23.8170 C   0  0  0  0  0  3  0  0  0  0  0  0
  -21.1790   -6.0120   24.9730 C   0  0  0  0  0  3  0  0  0  0  0  0
  -21.4990   -4.6420   24.9220 C   0  0  0  0  0  0  0  0  0  0  0  0
  -21.9380   -4.0660   23.7170 C   0  0  0  0  0  3  0  0  0  0  0  0
  -22.0580   -4.8600   22.5640 C   0  0  0  0  0  0  0  0  0  0  0  0
  -22.4600   -4.2940   21.3980 F   0  0  0  0  0  0  0  0  0  0  0  0
  -21.3830   -3.8780   26.0310 F   0  0  0  0  0  0  0  0  0  0  0  0
  -22.8320  -13.6000   21.1550 C   0  0  0  0  0  0  0  0  0  0  0  0
  -22.1320  -12.8940   22.0360 N   0  0  0  0  0  0  0  0  0  0  0  0
  -22.3720  -14.6250   20.6530 O   0  0  0  0  0  0  0  0  0  0  0  0
  -22.5220  -12.0720   22.4760 H   0  0  0  0  0  0  0  0  0  0  0  0
  -21.1940  -13.1780   22.2770 H   0  0  0  0  0  0  0  0  0  0  0  0
  -25.4030  -15.3080   20.2740 N   0  0  0  0  0  0  0  0  0  0  0  0
  -24.6200  -15.9290   20.4440 H   0  0  0  0  0  0  0  0  0  0  0  0
  -26.1880  -15.7790   19.8400 H   0  0  0  0  0  0  0  0  0  0  0  0
  2  1  1  0
  4  3  1  0
  4  5  1  0
  4  2  1  0
  6  5  1  0
  7 18  2  0
  8  6  1  0
  8 13  1  0
  9 17  1  0
  9 19  1  0
 10 16  1  0
 10 12  1  0
 11 17  1  0
 12 11  1  0
 13 12  2  0
 14  8  2  0
 15 14  1  0
 15 10  2  0
 16  9  1  0
 17  7  1  0
 19 21  2  0
 20 19  1  0
 22 20  1  0
 23 32  2  0
 23 28  1  0
 24 20  1  0
 24 28  1  0
 25 24  1  0
 26 27  1  0
 26 25  1  0
 27 23  1  0
 28 29  2  0
 29 30  1  0
 31 30  2  0
 32 31  1  0
 33  7  1  0
 33 38  1  0
 33 34  1  0
 34 37  1  1
 34 35  1  0
 36 34  1  0
 38 41  1  0
 39 43  1  0
 39 38  1  0
 40 39  2  0
 43 42  1  0
 45 43  1  0
 45 46  1  0
 45 44  1  0
 47 59  1  0
 47  2  1  0
 48 60  1  0
 49 54  1  0
 50 51  1  0
 50 49  1  0
 52 51  1  0
 52 64  1  0
 52 53  1  0
 54 48  1  0
 54 53  1  0
 55 48  2  0
 56 57  2  0
 58 59  2  0
 58 60  1  0
 59 56  1  0
 60 57  1  0
 61 62  2  0
 62 81  1  0
 63 62  1  0
 63 66  1  0
 64 65  1  0
 64 61  1  0
 65 63  2  0
 66 67  1  0
 67 68  2  0
 69 72  1  0
 69 68  1  0
 70 69  2  0
 71 70  1  0
 71 66  2  0
 72 73  1  0
 73 74  1  0
 74 75  2  0
 76 75  1  0
 76 80  1  0
 77 76  2  0
 78 73  2  0
 78 77  1  0
 79 78  1  0
 81 82  1  0
 82 85  1  0
 82 84  1  0
 83 81  2  0
 86 61  1  0
 86 87  1  0
 88 86  1  0
M  ISO  4   5 101   6 101  48 100  60 100
M  END
>  <TORSDO>  (86) 
F 19

>  <SCORE>  (86) 
-15.104

>  <name>  (86) 
87

>  <ligand_id>  (86) 
87

>  <original_smiles>  (86) 
[H]c1c([H])c([H])c2c(c1[H])C([H])([H])C([H])([H])C([H])([H])C2([H])N([H])C(=O)C1([H])N(C(=O)C([H])(N([H])C(=O)C([H])(N([H])C([H])([H])[H])C([H])([H])[H])C(C([H])([H])[H])(C([H])([H])[H])C([H])([H])[H])C([H])([H])c2c([H])c(OC([H])([H])C([H])(C([H])([H])[H])C([H])(C([H])([H])[H])C([H])([H])c3c([H])c([H])n(C(=O)N4C([H])([H])C([H])([H])C([H])([H])C([H])(n5nc(-c6c([H])c([H])c(Oc7c([H])c([H])c(F)c([H])c7F)c([H])c6[H])c(C(=O)N([H])[H])c5N([H])[H])C4([H])[H])c3[H])c([H])c([H])c2C1([H])[H]

>  <smiles>  (86) 
[H]c1c([H])c([H])c2c(c1[H])C([H])([H])C([H])([H])C([H])([H])C2([H])N([H])C(=O)C1([H])N(C(=O)C([H])(N([H])C(=O)C([H])(N([H])C([H])([H])[H])C([H])([H])[H])C(C([H])([H])[H])(C([H])([H])[H])C([H])([H])[H])C([H])([H])c2c([H])c(OC([H])([H])C([H])(C([H])([H])[H])C([H])(C([H])([H])[H])C([H])([H])c3c([H])c([H])n(C(=O)N4C([H])([H])C([H])([H])C([H])([H])C([H])(n5nc(-c6c([H])c([H])c(Oc7c([H])c([H])c(F)c([H])c7F)c([H])c6[H])c(C(=O)N([H])[H])c5N([H])[H])C4([H])[H])c3[H])c([H])c([H])c2C1([H])[H]

$$$$
88:0:0
     RDKit          3D

 90 98  0  0  1  0  0  0  0  0999 V2000
  -29.0150  -20.2990   19.3930 C   0  0  0  0  0  3  0  0  0  0  0  0
  -30.6430  -20.3210   21.1530 C   0  0  0  0  0  3  0  0  0  0  0  0
  -28.8360  -21.7160   19.5250 C   0  0  0  0  0  3  0  0  0  0  0  0
  -30.4580  -21.7320   21.2900 C   0  0  0  0  0  3  0  0  0  0  0  0
  -29.9310  -19.5560   20.1930 C   0  0  0  0  0  0  0  0  0  0  0  0
  -29.5640  -22.4810   20.4750 C   0  0  0  0  0  0  0  0  0  0  0  0
  -30.2200  -18.0140   19.9310 C   0  0  0  0  0  2  0  0  0  0  0  0
  -30.2130  -15.5740   21.1260 C   0  0  0  0  0  3  0  0  0  0  0  0
  -30.0240  -16.9430   21.0530 C   0  0  0  0  0  0  0  0  0  0  0  0
  -30.7610  -14.5860   20.1550 C   0  0  0  0  0  0  0  0  0  0  0  0
  -30.3990  -12.4370   18.9230 C   0  0  0  0  0  2  0  0  0  0  0  0
  -29.3910  -12.6520   17.7730 C   0  0  0  0  0  2  0  0  0  0  0  0
  -27.9450  -12.4880   18.2780 C   0  0  0  0  0  2  0  0  0  0  0  0
  -27.6800  -13.2850   19.5820 C   0  0  0  0  0  3  0  0  0  0  0  0
  -28.7920  -13.0360   20.6240 C   0  0  0  0  0  2  0  0  0  0  0  0
  -30.0820  -13.3950   20.0080 N   0  0  0  0  0  0  0  0  0  0  0  0
  -31.8080  -14.7830   19.5310 O   0  0  0  0  0  0  0  0  0  0  0  0
  -25.3310  -13.9020   20.4220 C   0  0  0  0  0  0  0  0  0  0  0  0
  -24.2710  -13.1360   20.8310 C   0  0  0  0  0  0  0  0  0  0  0  0
  -24.7140  -11.7790   20.7540 C   0  0  0  0  0  0  0  0  0  0  0  0
  -26.3520  -13.0130   20.1240 N   0  0  0  0  0  0  0  0  0  0  0  0
  -25.9860  -11.7300   20.3810 N   0  0  0  0  0  0  0  0  0  0  0  0
  -23.9810  -10.5230   20.9650 C   0  0  0  0  0  0  0  0  0  0  0  0
  -24.4360   -9.5460   21.8770 C   0  0  0  0  0  3  0  0  0  0  0  0
  -23.7040   -8.3550   22.0740 C   0  0  0  0  0  3  0  0  0  0  0  0
  -22.5040   -8.1330   21.3590 C   0  0  0  0  0  0  0  0  0  0  0  0
  -22.0670   -9.0990   20.4370 C   0  0  0  0  0  3  0  0  0  0  0  0
  -22.7990  -10.2810   20.2380 C   0  0  0  0  0  3  0  0  0  0  0  0
  -21.7440   -6.9920   21.4630 O   0  0  0  0  0  0  0  0  0  0  0  0
  -21.7080   -6.2560   22.6210 C   0  0  0  0  0  0  0  0  0  0  0  0
  -21.3160   -6.8240   23.8530 C   0  0  0  0  0  3  0  0  0  0  0  0
  -21.2230   -6.0160   25.0020 C   0  0  0  0  0  3  0  0  0  0  0  0
  -21.5150   -4.6410   24.9230 C   0  0  0  0  0  0  0  0  0  0  0  0
  -21.9020   -4.0730   23.6960 C   0  0  0  0  0  3  0  0  0  0  0  0
  -21.9950   -4.8790   22.5480 C   0  0  0  0  0  0  0  0  0  0  0  0
  -22.3480   -4.3230   21.3640 F   0  0  0  0  0  0  0  0  0  0  0  0
  -21.4210   -3.8620   26.0260 F   0  0  0  0  0  0  0  0  0  0  0  0
  -22.8970  -13.6260   21.1830 C   0  0  0  0  0  0  0  0  0  0  0  0
  -22.2080  -12.9310   22.0790 N   0  0  0  0  0  0  0  0  0  0  0  0
  -22.4430  -14.6620   20.6960 O   0  0  0  0  0  0  0  0  0  0  0  0
  -22.5900  -12.0970   22.4990 H   0  0  0  0  0  0  0  0  0  0  0  0
  -21.2870  -13.2410   22.3550 H   0  0  0  0  0  0  0  0  0  0  0  0
  -25.5030  -15.2740   20.2590 N   0  0  0  0  0  0  0  0  0  0  0  0
  -24.7510  -15.9360   20.4240 H   0  0  0  0  0  0  0  0  0  0  0  0
  -26.3510  -15.7110   19.9210 H   0  0  0  0  0  0  0  0  0  0  0  0
  -29.5560  -17.5770   22.1360 O   0  0  0  0  0  0  0  0  0  0  0  0
  -29.5180  -18.5030   21.9190 H   0  0  0  0  0  0  0  0  0  0  0  0
  -29.5240  -24.0630   20.5890 C   0  0  0  0  0  3  0  0  0  0  0  0
  -28.2720  -24.9460   20.1480 C   0  0  0  0  0  3  0  0  0  0  0  0
  -28.3970  -26.4190   20.3180 O   0  0  0  0  0  0  0  0  0  0  0  0
  -24.6310  -31.8450   23.2280 C   0  0  0  0  0  0  0  0  0  0  0  0
  -27.2570  -27.2420   20.2480 C   0  0  0  0  0  0  0  0  0  0  0  0
  -23.4310  -30.4340   21.5910 C   0  0  0  0  0  3  0  0  0  0  0  0
  -24.8860  -28.8530   20.1990 C   0  0  0  0  0  0  0  0  0  0  0  0
  -25.9720  -30.7390   21.4230 C   0  0  0  0  0  2  0  0  0  0  0  0
  -26.0510  -29.3510   20.7930 C   0  0  0  0  0  0  0  0  0  0  0  0
  -27.2380  -28.5590   20.8030 C   0  0  0  0  0  3  0  0  0  0  0  0
  -26.0660  -26.7890   19.6360 C   0  0  0  0  0  3  0  0  0  0  0  0
  -24.8960  -27.5760   19.6120 C   0  0  0  0  0  3  0  0  0  0  0  0
  -23.6530  -29.7370   20.2220 C   0  0  0  0  0  2  0  0  0  0  0  0
  -24.6970  -31.0240   22.1380 N   0  0  0  0  0  0  0  0  0  0  0  0
  -23.5460  -32.1330   23.7540 O   0  0  0  0  0  0  0  0  0  0  0  0
  -22.7520  -29.4370   22.5590 C   0  0  0  0  0  0  0  0  0  0  0  0
  -21.4280  -29.2580   22.4150 N   0  0  0  0  0  0  0  0  0  0  0  0
  -23.4160  -28.8250   23.4000 O   0  0  0  0  0  0  0  0  0  0  0  0
  -20.9500  -29.8010   21.7090 H   0  0  0  0  0  0  0  0  0  0  0  0
  -18.0480  -28.0500   22.8630 C   0  0  0  0  0  0  0  0  0  0  0  0
  -20.5970  -28.3330   23.1880 C   0  0  0  0  0  3  0  0  0  0  0  0
  -20.7230  -26.8890   22.6500 C   0  0  0  0  0  2  0  0  0  0  0  0
  -19.6480  -26.5360   21.6170 C   0  0  0  0  0  2  0  0  0  0  0  0
  -18.2500  -26.6860   22.2220 C   0  0  0  0  0  2  0  0  0  0  0  0
  -19.1520  -28.8290   23.3020 C   0  0  0  0  0  0  0  0  0  0  0  0
  -18.9100  -30.1030   23.8590 C   0  0  0  0  0  3  0  0  0  0  0  0
  -17.5980  -30.6000   23.9810 C   0  0  0  0  0  3  0  0  0  0  0  0
  -16.5090  -29.8180   23.5590 C   0  0  0  0  0  3  0  0  0  0  0  0
  -16.7340  -28.5450   23.0050 C   0  0  0  0  0  3  0  0  0  0  0  0
  -25.9130  -32.4750   23.8530 C   0  0  0  0  0  3  0  0  0  0  0  0
  -25.6050  -33.8730   24.1860 N   0  0  0  0  0  0  0  0  0  0  0  0
  -25.9380  -34.9270   23.4290 C   0  0  0  0  0  0  0  0  0  0  0  0
  -26.6060  -34.8240   22.3960 O   0  0  0  0  0  0  0  0  0  0  0  0
  -25.0140  -34.0270   24.9900 H   0  0  0  0  0  0  0  0  0  0  0  0
  -24.2110  -36.7230   23.0810 C   0  0  0  0  0  1  0  0  0  0  0  0
  -25.4540  -36.3160   23.8890 C   0  0  0  0  0  3  0  0  0  0  0  0
  -27.5910  -37.2000   24.7160 C   0  0  0  0  0  1  0  0  0  0  0  0
  -26.4880  -37.3680   23.7730 N   0  0  0  0  0  0  0  0  0  0  0  0
  -26.0820  -38.2890   23.9190 H   0  0  0  0  0  0  0  0  0  0  0  0
  -26.4240  -31.7030   25.1310 C   0  0  1  0  0  0  0  0  0  0  0  0
  -25.3290  -31.4680   26.1960 C   0  0  0  0  0  1  0  0  0  0  0  0
  -27.0060  -30.3240   24.7400 C   0  0  0  0  0  1  0  0  0  0  0  0
  -27.5740  -32.4940   25.7980 C   0  0  0  0  0  1  0  0  0  0  0  0
  1  3  2  0
  1  5  1  0
  2  4  1  0
  3  6  1  0
  5  2  2  0
  6 48  1  0
  6  4  2  0
  7  5  1  0
  7  9  1  0
  9  8  2  0
  9 46  1  0
 10  8  1  0
 11 16  1  0
 12 13  1  0
 12 11  1  0
 14 13  1  0
 14 21  1  0
 14 15  1  0
 16 10  1  0
 16 15  1  0
 17 10  2  0
 18 19  2  0
 19 38  1  0
 20 19  1  0
 20 23  1  0
 21 22  1  0
 21 18  1  0
 22 20  2  0
 23 24  1  0
 24 25  2  0
 26 29  1  0
 26 25  1  0
 27 26  2  0
 28 27  1  0
 28 23  2  0
 29 30  1  0
 30 31  1  0
 31 32  2  0
 33 32  1  0
 33 37  1  0
 34 33  2  0
 35 30  2  0
 35 34  1  0
 36 35  1  0
 38 39  1  0
 39 42  1  0
 39 41  1  0
 40 38  2  0
 43 18  1  0
 43 44  1  0
 45 43  1  0
 47 46  1  0
 49 50  1  0
 49 48  2  0
 51 62  2  0
 52 50  1  0
 52 57  1  0
 53 61  1  0
 53 63  1  0
 54 60  1  0
 54 56  1  0
 55 61  1  0
 56 57  2  0
 56 55  1  0
 58 52  2  0
 59 58  1  0
 59 54  2  0
 60 53  1  0
 61 51  1  0
 63 65  2  0
 64 63  1  0
 66 64  1  0
 67 76  2  0
 67 72  1  0
 68 64  1  0
 68 72  1  0
 69 68  1  0
 70 71  1  0
 70 69  1  0
 71 67  1  0
 72 73  2  0
 73 74  1  0
 75 74  2  0
 76 75  1  0
 77 51  1  0
 77 78  1  0
 77 87  1  0
 78 81  1  0
 79 83  1  0
 79 78  1  0
 80 79  2  0
 83 82  1  0
 85 83  1  0
 85 86  1  0
 85 84  1  0
 87 90  1  1
 87 88  1  0
 89 87  1  0
M  ISO  4   8 100  10 100  49 101  50 101
M  END
>  <TORSDO>  (87) 
F 21

>  <SCORE>  (87) 
-13.580

>  <name>  (87) 
88

>  <ligand_id>  (87) 
88

>  <original_smiles>  (87) 
[H]OC(=C([H])C(=O)N1C([H])([H])C([H])([H])C([H])([H])C([H])(n2nc(-c3c([H])c([H])c(Oc4c([H])c([H])c(F)c([H])c4F)c([H])c3[H])c(C(=O)N([H])[H])c2N([H])[H])C1([H])[H])C([H])([H])c1c([H])c([H])c(C([H])([H])C([H])([H])Oc2c([H])c([H])c3c(c2[H])C([H])([H])N(C(=O)C([H])(N([H])C(=O)C([H])(N([H])C([H])([H])[H])C([H])([H])[H])C(C([H])([H])[H])(C([H])([H])[H])C([H])([H])[H])C([H])(C(=O)N([H])C2([H])c4c([H])c([H])c([H])c([H])c4C([H])([H])C([H])([H])C2([H])[H])C3([H])[H])c([H])c1[H]

>  <smiles>  (87) 
[H]OC(=C([H])C(=O)N1C([H])([H])C([H])([H])C([H])([H])C([H])(n2nc(-c3c([H])c([H])c(Oc4c([H])c([H])c(F)c([H])c4F)c([H])c3[H])c(C(=O)N([H])[H])c2N([H])[H])C1([H])[H])C([H])([H])c1c([H])c([H])c(C([H])([H])C([H])([H])Oc2c([H])c([H])c3c(c2[H])C([H])([H])N(C(=O)C([H])(N([H])C(=O)C([H])(N([H])C([H])([H])[H])C([H])([H])[H])C(C([H])([H])[H])(C([H])([H])[H])C([H])([H])[H])C([H])(C(=O)N([H])C2([H])c4c([H])c([H])c([H])c([H])c4C([H])([H])C([H])([H])C2([H])[H])C3([H])[H])c([H])c1[H]

$$$$
89:0:0
     RDKit          3D

 88 96  0  0  1  0  0  0  0  0999 V2000
  -30.0580  -19.7880   21.8010 C   0  0  0  0  0  2  0  0  0  0  0  0
  -29.5210  -21.2530   21.9470 C   0  0  0  0  0  2  0  0  0  0  0  0
  -28.8730  -20.4200   19.8450 C   0  0  0  0  0  2  0  0  0  0  0  0
  -29.2640  -19.0400   20.7010 C   0  0  0  0  0  3  0  0  0  0  0  0
  -29.2460  -21.8770   20.5530 C   0  0  0  0  0  3  0  0  0  0  0  0
  -30.5450  -15.1000   20.2130 C   0  0  0  0  0  0  0  0  0  0  0  0
  -30.4190  -12.7320   19.3060 C   0  0  0  0  0  2  0  0  0  0  0  0
  -29.4890  -12.6860   18.0730 C   0  0  0  0  0  2  0  0  0  0  0  0
  -28.0270  -12.4760   18.5060 C   0  0  0  0  0  2  0  0  0  0  0  0
  -27.6250  -13.3940   19.6910 C   0  0  0  0  0  3  0  0  0  0  0  0
  -28.6840  -13.4180   20.8150 C   0  0  0  0  0  2  0  0  0  0  0  0
  -29.9510  -13.8340   20.2020 N   0  0  0  0  0  0  0  0  0  0  0  0
  -31.7360  -15.1240   19.8820 O   0  0  0  0  0  0  0  0  0  0  0  0
  -30.0770  -17.6800   20.1530 C   0  0  0  0  0  0  0  0  0  0  0  0
  -29.7940  -16.3030   20.4370 N   0  0  0  0  0  0  0  0  0  0  0  0
  -31.0470  -17.9470   19.4370 O   0  0  0  0  0  0  0  0  0  0  0  0
  -28.8940  -16.1500   20.8630 H   0  0  0  0  0  0  0  0  0  0  0  0
  -25.2440  -13.9550   20.4370 C   0  0  0  0  0  0  0  0  0  0  0  0
  -24.1880  -13.1730   20.8200 C   0  0  0  0  0  0  0  0  0  0  0  0
  -24.6640  -11.8260   20.7950 C   0  0  0  0  0  0  0  0  0  0  0  0
  -26.2930  -13.0840   20.1950 N   0  0  0  0  0  0  0  0  0  0  0  0
  -25.9540  -11.7990   20.4780 N   0  0  0  0  0  0  0  0  0  0  0  0
  -23.9480  -10.5590   20.9950 C   0  0  0  0  0  0  0  0  0  0  0  0
  -24.3880   -9.5990   21.9340 C   0  0  0  0  0  3  0  0  0  0  0  0
  -23.6690   -8.4000   22.1230 C   0  0  0  0  0  3  0  0  0  0  0  0
  -22.4930   -8.1510   21.3740 C   0  0  0  0  0  0  0  0  0  0  0  0
  -22.0720   -9.0980   20.4240 C   0  0  0  0  0  3  0  0  0  0  0  0
  -22.7940  -10.2890   20.2340 C   0  0  0  0  0  3  0  0  0  0  0  0
  -21.7450   -7.0020   21.4720 O   0  0  0  0  0  0  0  0  0  0  0  0
  -21.7050   -6.2660   22.6290 C   0  0  0  0  0  0  0  0  0  0  0  0
  -21.2740   -6.8240   23.8520 C   0  0  0  0  0  3  0  0  0  0  0  0
  -21.1800   -6.0160   25.0020 C   0  0  0  0  0  3  0  0  0  0  0  0
  -21.5080   -4.6480   24.9310 C   0  0  0  0  0  0  0  0  0  0  0  0
  -21.9310   -4.0890   23.7120 C   0  0  0  0  0  3  0  0  0  0  0  0
  -22.0270   -4.8940   22.5640 C   0  0  0  0  0  0  0  0  0  0  0  0
  -22.4160   -4.3450   21.3880 F   0  0  0  0  0  0  0  0  0  0  0  0
  -21.4100   -3.8690   26.0330 F   0  0  0  0  0  0  0  0  0  0  0  0
  -22.7890  -13.6420   21.0910 C   0  0  0  0  0  0  0  0  0  0  0  0
  -22.0680  -12.9450   21.9610 N   0  0  0  0  0  0  0  0  0  0  0  0
  -22.3450  -14.6630   20.5680 O   0  0  0  0  0  0  0  0  0  0  0  0
  -22.4400  -12.1190   22.4080 H   0  0  0  0  0  0  0  0  0  0  0  0
  -21.1280  -13.2410   22.1880 H   0  0  0  0  0  0  0  0  0  0  0  0
  -25.3940  -15.3260   20.2490 N   0  0  0  0  0  0  0  0  0  0  0  0
  -24.6170  -15.9690   20.3570 H   0  0  0  0  0  0  0  0  0  0  0  0
  -26.2180  -15.7670   19.8620 H   0  0  0  0  0  0  0  0  0  0  0  0
  -28.3650  -23.3430   20.6910 C   0  0  0  0  0  2  0  0  0  0  0  0
  -28.4540  -24.8080   19.8410 C   0  0  0  0  0  2  0  0  0  0  0  0
  -28.3500  -26.2880   20.3470 O   0  0  0  0  0  0  0  0  0  0  0  0
  -24.6360  -31.9380   23.2320 C   0  0  0  0  0  0  0  0  0  0  0  0
  -27.2640  -27.2330   20.2210 C   0  0  0  0  0  0  0  0  0  0  0  0
  -23.4540  -30.5290   21.5890 C   0  0  0  0  0  3  0  0  0  0  0  0
  -24.9210  -28.9610   20.1680 C   0  0  0  0  0  0  0  0  0  0  0  0
  -26.0040  -30.8140   21.4330 C   0  0  0  0  0  2  0  0  0  0  0  0
  -26.0900  -29.4210   20.7840 C   0  0  0  0  0  0  0  0  0  0  0  0
  -27.2580  -28.5710   20.7940 C   0  0  0  0  0  3  0  0  0  0  0  0
  -26.0690  -26.8720   19.5650 C   0  0  0  0  0  3  0  0  0  0  0  0
  -24.9240  -27.7030   19.5420 C   0  0  0  0  0  3  0  0  0  0  0  0
  -23.6850  -29.8490   20.2110 C   0  0  0  0  0  2  0  0  0  0  0  0
  -24.7180  -31.1170   22.1390 N   0  0  0  0  0  0  0  0  0  0  0  0
  -23.5460  -32.2150   23.7550 O   0  0  0  0  0  0  0  0  0  0  0  0
  -22.7810  -29.5200   22.5520 C   0  0  0  0  0  0  0  0  0  0  0  0
  -21.4540  -29.3400   22.4240 N   0  0  0  0  0  0  0  0  0  0  0  0
  -23.4550  -28.8990   23.3770 O   0  0  0  0  0  0  0  0  0  0  0  0
  -20.9660  -29.8930   21.7330 H   0  0  0  0  0  0  0  0  0  0  0  0
  -18.0790  -28.1290   22.9320 C   0  0  0  0  0  0  0  0  0  0  0  0
  -20.6370  -28.4000   23.1950 C   0  0  0  0  0  3  0  0  0  0  0  0
  -20.7440  -26.9690   22.6160 C   0  0  0  0  0  2  0  0  0  0  0  0
  -19.6410  -26.6460   21.6030 C   0  0  0  0  0  2  0  0  0  0  0  0
  -18.2600  -26.7830   22.2500 C   0  0  0  0  0  2  0  0  0  0  0  0
  -19.1960  -28.8950   23.3610 C   0  0  0  0  0  0  0  0  0  0  0  0
  -18.9710  -30.1540   23.9600 C   0  0  0  0  0  3  0  0  0  0  0  0
  -17.6630  -30.6460   24.1340 C   0  0  0  0  0  3  0  0  0  0  0  0
  -16.5620  -29.8780   23.7180 C   0  0  0  0  0  3  0  0  0  0  0  0
  -16.7710  -28.6210   23.1230 C   0  0  0  0  0  3  0  0  0  0  0  0
  -25.9060  -32.5860   23.8640 C   0  0  0  0  0  3  0  0  0  0  0  0
  -25.5860  -33.9870   24.1800 N   0  0  0  0  0  0  0  0  0  0  0  0
  -25.9200  -35.0400   23.4210 C   0  0  0  0  0  0  0  0  0  0  0  0
  -26.5940  -34.9330   22.3940 O   0  0  0  0  0  0  0  0  0  0  0  0
  -24.9860  -34.1440   24.9770 H   0  0  0  0  0  0  0  0  0  0  0  0
  -24.1860  -36.8280   23.0560 C   0  0  0  0  0  1  0  0  0  0  0  0
  -25.4260  -36.4290   23.8710 C   0  0  0  0  0  3  0  0  0  0  0  0
  -27.5540  -37.3310   24.7030 C   0  0  0  0  0  1  0  0  0  0  0  0
  -26.4550  -37.4850   23.7530 N   0  0  0  0  0  0  0  0  0  0  0  0
  -26.0450  -38.4050   23.8920 H   0  0  0  0  0  0  0  0  0  0  0  0
  -26.4100  -31.8330   25.1560 C   0  0  1  0  0  0  0  0  0  0  0  0
  -25.3050  -31.6060   26.2150 C   0  0  0  0  0  1  0  0  0  0  0  0
  -27.0030  -30.4520   24.7930 C   0  0  0  0  0  1  0  0  0  0  0  0
  -27.5510  -32.6400   25.8220 C   0  0  0  0  0  1  0  0  0  0  0  0
  1  2  1  0
  3  5  1  0
  3  4  1  0
  4 14  1  0
  4  1  1  0
  5 46  1  0
  5  2  1  0
  6 15  1  0
  7 12  1  0
  8  9  1  0
  8  7  1  0
 10  9  1  0
 10 21  1  0
 10 11  1  0
 12  6  1  0
 12 11  1  0
 13  6  2  0
 14 15  1  0
 15 17  1  0
 16 14  2  0
 18 19  2  0
 19 38  1  0
 20 19  1  0
 20 23  1  0
 21 18  1  0
 21 22  1  0
 22 20  2  0
 23 24  1  0
 24 25  2  0
 26 29  1  0
 26 25  1  0
 27 26  2  0
 28 27  1  0
 28 23  2  0
 29 30  1  0
 30 31  1  0
 31 32  2  0
 33 32  1  0
 33 37  1  0
 34 33  2  0
 35 30  2  0
 35 34  1  0
 36 35  1  0
 38 39  1  0
 39 42  1  0
 39 41  1  0
 40 38  2  0
 43 44  1  0
 43 18  1  0
 45 43  1  0
 47 48  1  0
 47 46  1  0
 49 60  2  0
 50 48  1  0
 50 55  1  0
 51 59  1  0
 51 61  1  0
 52 58  1  0
 52 54  1  0
 53 59  1  0
 54 55  2  0
 54 53  1  0
 56 50  2  0
 57 56  1  0
 57 52  2  0
 58 51  1  0
 59 49  1  0
 61 63  2  0
 62 61  1  0
 64 62  1  0
 65 74  2  0
 65 70  1  0
 66 62  1  0
 66 70  1  0
 67 66  1  0
 68 69  1  0
 68 67  1  0
 69 65  1  0
 70 71  2  0
 71 72  1  0
 73 72  2  0
 74 73  1  0
 75 49  1  0
 75 76  1  0
 75 85  1  0
 76 79  1  0
 77 81  1  0
 77 76  1  0
 78 77  2  0
 81 80  1  0
 83 81  1  0
 83 84  1  0
 83 82  1  0
 85 88  1  1
 85 86  1  0
 87 85  1  0
M  ISO  4   6 100  15 100  47 101  48 101
M  END
>  <TORSDO>  (88) 
F 18

>  <SCORE>  (88) 
-15.404

>  <name>  (88) 
89

>  <ligand_id>  (88) 
89

>  <original_smiles>  (88) 
[H]c1c([H])c([H])c2c(c1[H])C([H])([H])C([H])([H])C([H])([H])C2([H])N([H])C(=O)C1([H])N(C(=O)C([H])(N([H])C(=O)C([H])(N([H])C([H])([H])[H])C([H])([H])[H])C(C([H])([H])[H])(C([H])([H])[H])C([H])([H])[H])C([H])([H])c2c([H])c(OC([H])([H])C([H])([H])C3([H])C([H])([H])C([H])([H])C([H])(C(=O)N([H])C(=O)N4C([H])([H])C([H])([H])C([H])([H])C([H])(n5nc(-c6c([H])c([H])c(Oc7c([H])c([H])c(F)c([H])c7F)c([H])c6[H])c(C(=O)N([H])[H])c5N([H])[H])C4([H])[H])C3([H])[H])c([H])c([H])c2C1([H])[H]

>  <smiles>  (88) 
[H]c1c([H])c([H])c2c(c1[H])C([H])([H])C([H])([H])C([H])([H])C2([H])N([H])C(=O)C1([H])N(C(=O)C([H])(N([H])C(=O)C([H])(N([H])C([H])([H])[H])C([H])([H])[H])C(C([H])([H])[H])(C([H])([H])[H])C([H])([H])[H])C([H])([H])c2c([H])c(OC([H])([H])C([H])([H])C3([H])C([H])([H])C([H])([H])C([H])(C(=O)N([H])C(=O)N4C([H])([H])C([H])([H])C([H])([H])C([H])(n5nc(-c6c([H])c([H])c(Oc7c([H])c([H])c(F)c([H])c7F)c([H])c6[H])c(C(=O)N([H])[H])c5N([H])[H])C4([H])[H])C3([H])[H])c([H])c([H])c2C1([H])[H]

$$$$
90:0:0
     RDKit          3D

 86 90  0  0  1  0  0  0  0  0999 V2000
  -28.7860  -21.2230   19.8940 C   0  0  0  0  0  1  0  0  0  0  0  0
  -30.2670  -16.2740   20.1610 C   0  0  0  0  0  0  0  0  0  0  0  0
  -30.4900  -13.5980   19.4290 C   0  0  0  0  0  2  0  0  0  0  0  0
  -29.6880  -12.9390   18.2550 C   0  0  0  0  0  2  0  0  0  0  0  0
  -28.2770  -12.5180   18.6890 C   0  0  0  0  0  2  0  0  0  0  0  0
  -27.6840  -13.5630   19.6570 C   0  0  0  0  0  3  0  0  0  0  0  0
  -28.6600  -14.0950   20.7440 C   0  0  0  0  0  2  0  0  0  0  0  0
  -29.7710  -14.8390   20.0610 N   0  0  0  0  0  0  0  0  0  0  0  0
  -31.5110  -16.0980   20.1320 O   0  0  0  0  0  0  0  0  0  0  0  0
  -29.7100  -19.4250   20.2050 C   0  0  0  0  0  2  0  0  0  0  0  0
  -29.5350  -17.7740   20.0940 N   0  0  0  0  0  0  0  0  0  0  0  0
  -30.8450  -19.6780   20.6180 O   0  0  0  0  0  1  0  0  0  0  0  0
  -28.5610  -17.6090   19.8880 H   0  0  0  0  0  0  0  0  0  0  0  0
  -25.3440  -14.0840   20.4530 C   0  0  0  0  0  0  0  0  0  0  0  0
  -24.2680  -13.3140   20.7910 C   0  0  0  0  0  0  0  0  0  0  0  0
  -24.7130  -11.9570   20.7180 C   0  0  0  0  0  0  0  0  0  0  0  0
  -26.3730  -13.2050   20.1800 N   0  0  0  0  0  0  0  0  0  0  0  0
  -26.0090  -11.9130   20.4070 N   0  0  0  0  0  0  0  0  0  0  0  0
  -23.9540  -10.7060   20.8690 C   0  0  0  0  0  0  0  0  0  0  0  0
  -24.3560   -9.6970   21.7720 C   0  0  0  0  0  3  0  0  0  0  0  0
  -23.5930   -8.5180   21.9180 C   0  0  0  0  0  3  0  0  0  0  0  0
  -22.4100   -8.3380   21.1600 C   0  0  0  0  0  0  0  0  0  0  0  0
  -22.0240   -9.3360   20.2480 C   0  0  0  0  0  3  0  0  0  0  0  0
  -22.7870  -10.5070   20.1020 C   0  0  0  0  0  3  0  0  0  0  0  0
  -21.6220   -7.2140   21.2150 O   0  0  0  0  0  0  0  0  0  0  0  0
  -21.5700   -6.4260   22.3370 C   0  0  0  0  0  0  0  0  0  0  0  0
  -21.1320   -6.9290   23.5810 C   0  0  0  0  0  3  0  0  0  0  0  0
  -21.0250   -6.0680   24.6910 C   0  0  0  0  0  3  0  0  0  0  0  0
  -21.3420   -4.7040   24.5580 C   0  0  0  0  0  0  0  0  0  0  0  0
  -21.7710   -4.1990   23.3160 C   0  0  0  0  0  3  0  0  0  0  0  0
  -21.8770   -5.0570   22.2090 C   0  0  0  0  0  0  0  0  0  0  0  0
  -22.2700   -4.5600   21.0110 F   0  0  0  0  0  0  0  0  0  0  0  0
  -21.2350   -3.8750   25.6210 F   0  0  0  0  0  0  0  0  0  0  0  0
  -22.8790  -13.8150   21.0570 C   0  0  0  0  0  0  0  0  0  0  0  0
  -22.1340  -13.1320   21.9160 N   0  0  0  0  0  0  0  0  0  0  0  0
  -22.4650  -14.8510   20.5360 O   0  0  0  0  0  0  0  0  0  0  0  0
  -22.4830  -12.2960   22.3640 H   0  0  0  0  0  0  0  0  0  0  0  0
  -21.2010  -13.4530   22.1350 H   0  0  0  0  0  0  0  0  0  0  0  0
  -25.5240  -15.4570   20.3170 N   0  0  0  0  0  0  0  0  0  0  0  0
  -24.7660  -16.1150   20.4600 H   0  0  0  0  0  0  0  0  0  0  0  0
  -26.3770  -15.8960   19.9970 H   0  0  0  0  0  0  0  0  0  0  0  0
  -27.3400  -20.7860   19.5570 C   0  0  0  0  0  2  0  0  0  0  0  0
  -25.4590  -20.5160   17.8500 C   0  0  0  0  0  1  0  0  0  0  0  0
  -26.8650  -21.0820   18.1210 C   0  0  0  0  0  2  0  0  0  0  0  0
  -28.5320  -23.2780   20.4920 C   0  0  0  0  0 15  0  0  0  0  0  0
  -28.3000  -25.1930   20.2650 O   0  0  0  0  0  1  0  0  0  0  0  0
  -24.6520  -31.8420   23.1900 C   0  0  0  0  0  0  0  0  0  0  0  0
  -27.2990  -26.5050   20.3280 C   0  0  0  0  0  0  0  0  0  0  0  0
  -23.5240  -30.3990   21.5530 C   0  0  0  0  0  3  0  0  0  0  0  0
  -25.0210  -28.6990   20.2070 C   0  0  0  0  0  0  0  0  0  0  0  0
  -26.1130  -30.5030   21.4910 C   0  0  0  0  0  2  0  0  0  0  0  0
  -26.2130  -29.0260   20.8670 C   0  0  0  0  0  0  0  0  0  0  0  0
  -27.3250  -27.9700   20.8740 C   0  0  0  0  0  3  0  0  0  0  0  0
  -26.0610  -26.4710   19.6140 C   0  0  0  0  0  3  0  0  0  0  0  0
  -25.0040  -27.4510   19.5560 C   0  0  0  0  0  3  0  0  0  0  0  0
  -23.8120  -29.6670   20.2060 C   0  0  0  0  0  2  0  0  0  0  0  0
  -24.7910  -30.9590   22.1320 N   0  0  0  0  0  0  0  0  0  0  0  0
  -23.5410  -32.1390   23.6650 O   0  0  0  0  0  0  0  0  0  0  0  0
  -22.7810  -29.4470   22.5290 C   0  0  0  0  0  0  0  0  0  0  0  0
  -21.4480  -29.2920   22.3940 N   0  0  0  0  0  0  0  0  0  0  0  0
  -23.4230  -28.8380   23.3870 O   0  0  0  0  0  0  0  0  0  0  0  0
  -20.9720  -29.8380   21.6890 H   0  0  0  0  0  0  0  0  0  0  0  0
  -18.0610  -28.0590   22.8960 C   0  0  0  0  0  0  0  0  0  0  0  0
  -20.6200  -28.3490   23.1600 C   0  0  0  0  0  3  0  0  0  0  0  0
  -20.7280  -26.9160   22.5820 C   0  0  0  0  0  2  0  0  0  0  0  0
  -19.6320  -26.5930   21.5620 C   0  0  0  0  0  2  0  0  0  0  0  0
  -18.2490  -26.7200   22.2050 C   0  0  0  0  0  2  0  0  0  0  0  0
  -19.1710  -28.8320   23.3300 C   0  0  0  0  0  0  0  0  0  0  0  0
  -18.9350  -30.0830   23.9420 C   0  0  0  0  0  3  0  0  0  0  0  0
  -17.6230  -30.5600   24.1210 C   0  0  0  0  0  3  0  0  0  0  0  0
  -16.5280  -29.7870   23.6980 C   0  0  0  0  0  3  0  0  0  0  0  0
  -16.7480  -28.5380   23.0910 C   0  0  0  0  0  3  0  0  0  0  0  0
  -25.8800  -32.5300   23.8600 C   0  0  0  0  0  3  0  0  0  0  0  0
  -26.3300  -31.8140   25.1950 C   0  0  1  0  0  0  0  0  0  0  0  0
  -25.1820  -31.6120   26.2110 C   0  0  0  0  0  1  0  0  0  0  0  0
  -26.9400  -30.4240   24.9010 C   0  0  0  0  0  1  0  0  0  0  0  0
  -27.4440  -32.6380   25.8850 C   0  0  0  0  0  1  0  0  0  0  0  0
  -25.5350  -33.9390   24.1470 N   0  0  0  0  0  0  0  0  0  0  0  0
  -25.8960  -34.9980   23.4060 C   0  0  0  0  0  0  0  0  0  0  0  0
  -26.6080  -34.8880   22.4050 O   0  0  0  0  0  0  0  0  0  0  0  0
  -24.9080  -34.0960   24.9240 H   0  0  0  0  0  0  0  0  0  0  0  0
  -24.1880  -36.8050   22.9720 C   0  0  0  0  0  1  0  0  0  0  0  0
  -25.3940  -36.3950   23.8340 C   0  0  0  0  0  3  0  0  0  0  0  0
  -27.4920  -37.3030   24.7460 C   0  0  0  0  0  1  0  0  0  0  0  0
  -26.4320  -37.4490   23.7520 N   0  0  0  0  0  0  0  0  0  0  0  0
  -26.0180  -38.3710   23.8680 H   0  0  0  0  0  0  0  0  0  0  0  0
  3  8  1  0
  4  5  1  0
  4  3  1  0
  6  5  1  0
  6 17  1  0
  6  7  1  0
  8  2  1  0
  8  7  1  0
  9  2  2  0
 10 12  1  0
 11  2  1  0
 11 10  1  0
 13 11  1  0
 14 15  2  0
 15 34  1  0
 16 15  1  0
 16 19  1  0
 17 18  1  0
 17 14  1  0
 18 16  2  0
 19 20  1  0
 20 21  2  0
 22 25  1  0
 22 21  1  0
 23 22  2  0
 24 23  1  0
 24 19  2  0
 25 26  1  0
 26 27  1  0
 27 28  2  0
 29 28  1  0
 29 33  1  0
 30 29  2  0
 31 26  2  0
 31 30  1  0
 32 31  1  0
 34 35  1  0
 35 38  1  0
 35 37  1  0
 36 34  2  0
 39 14  1  0
 39 40  1  0
 41 39  1  0
 42  1  1  0
 43 44  1  0
 44 42  1  0
 46 48  1  0
 47 58  2  0
 48 53  1  0
 49 57  1  0
 49 59  1  0
 50 52  1  0
 51 57  1  0
 52 53  2  0
 52 51  1  0
 54 48  2  0
 55 54  1  0
 55 50  2  0
 56 50  1  0
 56 49  1  0
 57 47  1  0
 59 61  2  0
 60 59  1  0
 62 60  1  0
 63 72  2  0
 63 68  1  0
 64 60  1  0
 64 68  1  0
 65 64  1  0
 66 67  1  0
 66 65  1  0
 67 63  1  0
 68 69  2  0
 69 70  1  0
 71 70  2  0
 72 71  1  0
 73 47  1  0
 73 78  1  0
 73 74  1  0
 74 77  1  1
 74 75  1  0
 76 74  1  0
 78 81  1  0
 79 83  1  0
 79 78  1  0
 80 79  2  0
 83 82  1  0
 85 83  1  0
 85 86  1  0
 85 84  1  0
M  ISO  4   2 100  11 100  45 101  46 101
M  END
>  <TORSDO>  (89) 
F 19

>  <SCORE>  (89) 
-15.606

>  <name>  (89) 
90

>  <ligand_id>  (89) 
90

>  <original_smiles>  (89) 
[H]c1c([H])c([H])c2c(c1[H])C([H])([H])C([H])([H])C([H])([H])C2([H])N([H])C(=O)C1([H])N(C(=O)C([H])(N([H])C(=O)C([H])(N([H])C([H])([H])[H])C([H])([H])[H])C(C([H])([H])[H])(C([H])([H])[H])C([H])([H])[H])C([H])([H])c2c([H])c(OC([H])([H])C([H])(C(=O)N([H])C(=O)N3C([H])([H])C([H])([H])C([H])([H])C([H])(n4nc(-c5c([H])c([H])c(Oc6c([H])c([H])c(F)c([H])c6F)c([H])c5[H])c(C(=O)N([H])[H])c4N([H])[H])C3([H])[H])C([H])([H])C([H])([H])C([H])([H])[H])c([H])c([H])c2C1([H])[H]

>  <smiles>  (89) 
[H]c1c([H])c([H])c2c(c1[H])C([H])([H])C([H])([H])C([H])([H])C2([H])N([H])C(=O)C1([H])N(C(=O)C([H])(N([H])C(=O)C([H])(N([H])C([H])([H])[H])C([H])([H])[H])C(C([H])([H])[H])(C([H])([H])[H])C([H])([H])[H])C([H])([H])c2c([H])c(OC([H])([H])C([H])(C(=O)N([H])C(=O)N3C([H])([H])C([H])([H])C([H])([H])C([H])(n4nc(-c5c([H])c([H])c(Oc6c([H])c([H])c(F)c([H])c6F)c([H])c5[H])c(C(=O)N([H])[H])c4N([H])[H])C3([H])[H])C([H])([H])C([H])([H])C([H])([H])[H])c([H])c([H])c2C1([H])[H]

$$$$
91:0:0
     RDKit          3D

 87 95  0  0  1  0  0  0  0  0999 V2000
  -30.4880  -22.3790   20.9090 C   0  0  0  0  0  2  0  0  0  0  0  0
  -30.0660  -21.2010   21.8350 C   0  0  0  0  0  3  0  0  0  0  0  0
  -29.1270  -22.4320   20.2270 C   0  0  0  0  0  3  0  0  0  0  0  0
  -29.2230  -20.5780   20.6940 C   0  0  0  0  0  3  0  0  0  0  0  0
  -30.3050  -22.3560   24.1270 C   0  0  0  0  0  1  0  0  0  0  0  0
  -29.4310  -21.4810   23.2090 C   0  0  0  0  0  2  0  0  0  0  0  0
  -29.9500  -18.8970   20.0880 C   0  0  0  0  0  2  0  0  0  0  0  0
  -30.5220  -15.8030   20.1960 C   0  0  0  0  0  0  0  0  0  0  0  0
  -30.5640  -13.2880   19.3290 C   0  0  0  0  0  2  0  0  0  0  0  0
  -29.6560  -12.9740   18.1070 C   0  0  0  0  0  2  0  0  0  0  0  0
  -28.2210  -12.6540   18.5580 C   0  0  0  0  0  2  0  0  0  0  0  0
  -27.7510  -13.6260   19.6690 C   0  0  0  0  0  3  0  0  0  0  0  0
  -28.8000  -13.8360   20.7850 C   0  0  0  0  0  2  0  0  0  0  0  0
  -29.9820  -14.4490   20.1390 N   0  0  0  0  0  0  0  0  0  0  0  0
  -31.7360  -15.7510   19.9300 O   0  0  0  0  0  0  0  0  0  0  0  0
  -29.7840  -17.1540   20.3550 N   0  0  0  0  0  0  0  0  0  0  0  0
  -28.8320  -16.9440   20.6180 H   0  0  0  0  0  0  0  0  0  0  0  0
  -25.3950  -14.1740   20.4450 C   0  0  0  0  0  0  0  0  0  0  0  0
  -24.3320  -13.3980   20.8110 C   0  0  0  0  0  0  0  0  0  0  0  0
  -24.7950  -12.0470   20.7670 C   0  0  0  0  0  0  0  0  0  0  0  0
  -26.4310  -13.2970   20.1840 N   0  0  0  0  0  0  0  0  0  0  0  0
  -26.0850  -12.0090   20.4460 N   0  0  0  0  0  0  0  0  0  0  0  0
  -24.0610  -10.7870   20.9500 C   0  0  0  0  0  0  0  0  0  0  0  0
  -24.4580   -9.8260   21.9040 C   0  0  0  0  0  3  0  0  0  0  0  0
  -23.7180   -8.6370   22.0760 C   0  0  0  0  0  3  0  0  0  0  0  0
  -22.5650   -8.3980   21.2930 C   0  0  0  0  0  0  0  0  0  0  0  0
  -22.1840   -9.3460   20.3280 C   0  0  0  0  0  3  0  0  0  0  0  0
  -22.9260  -10.5280   20.1560 C   0  0  0  0  0  3  0  0  0  0  0  0
  -21.8020   -7.2590   21.3740 O   0  0  0  0  0  0  0  0  0  0  0  0
  -21.6920   -6.5470   22.5420 C   0  0  0  0  0  0  0  0  0  0  0  0
  -21.1710   -7.1250   23.7200 C   0  0  0  0  0  3  0  0  0  0  0  0
  -21.0130   -6.3370   24.8780 C   0  0  0  0  0  3  0  0  0  0  0  0
  -21.3600   -4.9730   24.8570 C   0  0  0  0  0  0  0  0  0  0  0  0
  -21.8690   -4.3950   23.6810 C   0  0  0  0  0  3  0  0  0  0  0  0
  -22.0310   -5.1790   22.5250 C   0  0  0  0  0  0  0  0  0  0  0  0
  -22.5040   -4.6100   21.3900 F   0  0  0  0  0  0  0  0  0  0  0  0
  -21.1970   -4.2140   25.9660 F   0  0  0  0  0  0  0  0  0  0  0  0
  -22.9380  -13.8830   21.0820 C   0  0  0  0  0  0  0  0  0  0  0  0
  -22.2100  -13.2000   21.9540 N   0  0  0  0  0  0  0  0  0  0  0  0
  -22.5070  -14.9070   20.5540 O   0  0  0  0  0  0  0  0  0  0  0  0
  -22.5690  -12.3710   22.4040 H   0  0  0  0  0  0  0  0  0  0  0  0
  -21.2750  -13.5120   22.1780 H   0  0  0  0  0  0  0  0  0  0  0  0
  -25.5600  -15.5490   20.2800 N   0  0  0  0  0  0  0  0  0  0  0  0
  -24.7980  -16.1980   20.4400 H   0  0  0  0  0  0  0  0  0  0  0  0
  -26.4000  -16.0000   19.9420 H   0  0  0  0  0  0  0  0  0  0  0  0
  -28.1850  -24.0780   20.5580 C   0  0  0  0  0  2  0  0  0  0  0  0
  -28.3650  -25.8030   20.4220 O   0  0  0  0  0  0  0  0  0  0  0  0
  -24.6450  -31.9500   23.2560 C   0  0  0  0  0  0  0  0  0  0  0  0
  -27.3500  -26.9600   20.3590 C   0  0  0  0  0  0  0  0  0  0  0  0
  -23.5180  -30.5110   21.6130 C   0  0  0  0  0  3  0  0  0  0  0  0
  -25.0280  -28.8970   20.2410 C   0  0  0  0  0  0  0  0  0  0  0  0
  -26.0910  -30.7360   21.5240 C   0  0  0  0  0  2  0  0  0  0  0  0
  -26.2030  -29.3040   20.8840 C   0  0  0  0  0  0  0  0  0  0  0  0
  -27.3520  -28.3610   20.9100 C   0  0  0  0  0  3  0  0  0  0  0  0
  -26.1390  -26.7490   19.6570 C   0  0  0  0  0  3  0  0  0  0  0  0
  -25.0290  -27.6440   19.6050 C   0  0  0  0  0  3  0  0  0  0  0  0
  -23.7930  -29.8120   20.2520 C   0  0  0  0  0  2  0  0  0  0  0  0
  -24.7730  -31.0980   22.1840 N   0  0  0  0  0  0  0  0  0  0  0  0
  -23.5380  -32.2250   23.7490 O   0  0  0  0  0  0  0  0  0  0  0  0
  -22.8210  -29.5170   22.5840 C   0  0  0  0  0  0  0  0  0  0  0  0
  -21.5080  -29.2830   22.4080 N   0  0  0  0  0  0  0  0  0  0  0  0
  -23.4740  -28.9550   23.4640 O   0  0  0  0  0  0  0  0  0  0  0  0
  -21.0300  -29.7860   21.6770 H   0  0  0  0  0  0  0  0  0  0  0  0
  -18.1860  -27.8630   22.7800 C   0  0  0  0  0  0  0  0  0  0  0  0
  -20.7020  -28.3260   23.1750 C   0  0  0  0  0  3  0  0  0  0  0  0
  -20.9360  -26.8810   22.6800 C   0  0  0  0  0  2  0  0  0  0  0  0
  -19.9240  -26.4340   21.6200 C   0  0  0  0  0  2  0  0  0  0  0  0
  -18.4980  -26.5040   22.1750 C   0  0  0  0  0  2  0  0  0  0  0  0
  -19.2200  -28.7240   23.2350 C   0  0  0  0  0  0  0  0  0  0  0  0
  -18.8750  -29.9860   23.7650 C   0  0  0  0  0  3  0  0  0  0  0  0
  -17.5290  -30.3920   23.8410 C   0  0  0  0  0  3  0  0  0  0  0  0
  -16.5090  -29.5310   23.3990 C   0  0  0  0  0  3  0  0  0  0  0  0
  -16.8380  -28.2680   22.8740 C   0  0  0  0  0  3  0  0  0  0  0  0
  -25.8850  -32.6390   23.9040 C   0  0  0  0  0  3  0  0  0  0  0  0
  -26.3730  -31.9130   25.2190 C   0  0  1  0  0  0  0  0  0  0  0  0
  -25.2490  -31.6670   26.2520 C   0  0  0  0  0  1  0  0  0  0  0  0
  -27.0120  -30.5430   24.8960 C   0  0  0  0  0  1  0  0  0  0  0  0
  -27.4750  -32.7550   25.9030 C   0  0  0  0  0  1  0  0  0  0  0  0
  -25.5240  -34.0370   24.2100 N   0  0  0  0  0  0  0  0  0  0  0  0
  -25.8290  -35.0970   23.4470 C   0  0  0  0  0  0  0  0  0  0  0  0
  -26.5040  -35.0020   22.4200 O   0  0  0  0  0  0  0  0  0  0  0  0
  -24.9190  -34.1800   25.0040 H   0  0  0  0  0  0  0  0  0  0  0  0
  -24.0450  -36.8410   23.0990 C   0  0  0  0  0  1  0  0  0  0  0  0
  -25.3100  -36.4800   23.8940 C   0  0  0  0  0  3  0  0  0  0  0  0
  -27.4230  -37.4530   24.6860 C   0  0  0  0  0  1  0  0  0  0  0  0
  -26.3080  -37.5620   23.7490 N   0  0  0  0  0  0  0  0  0  0  0  0
  -25.8750  -38.4730   23.8750 H   0  0  0  0  0  0  0  0  0  0  0  0
  1  2  1  0
  2  6  1  0
  3 46  1  0
  3  4  1  0
  3  1  1  0
  4  7  1  0
  4  2  1  0
  6  5  1  0
  7 16  1  0
  8 16  1  0
  9 14  1  0
 10 11  1  0
 10  9  1  0
 12 11  1  0
 12 21  1  0
 12 13  1  0
 14  8  1  0
 14 13  1  0
 15  8  2  0
 16 17  1  0
 18 19  2  0
 19 38  1  0
 20 19  1  0
 20 23  1  0
 21 18  1  0
 21 22  1  0
 22 20  2  0
 23 24  1  0
 24 25  2  0
 26 29  1  0
 26 25  1  0
 27 26  2  0
 28 27  1  0
 28 23  2  0
 29 30  1  0
 30 31  1  0
 31 32  2  0
 33 32  1  0
 33 37  1  0
 34 33  2  0
 35 30  2  0
 35 34  1  0
 36 35  1  0
 38 39  1  0
 39 42  1  0
 39 41  1  0
 40 38  2  0
 43 44  1  0
 43 18  1  0
 45 43  1  0
 47 46  1  0
 48 59  2  0
 49 47  1  0
 49 54  1  0
 50 58  1  0
 50 60  1  0
 51 57  1  0
 51 53  1  0
 52 58  1  0
 53 54  2  0
 53 52  1  0
 55 49  2  0
 56 55  1  0
 56 51  2  0
 57 50  1  0
 58 48  1  0
 60 62  2  0
 61 60  1  0
 63 61  1  0
 64 73  2  0
 64 69  1  0
 65 61  1  0
 65 69  1  0
 66 65  1  0
 67 68  1  0
 67 66  1  0
 68 64  1  0
 69 70  2  0
 70 71  1  0
 72 71  2  0
 73 72  1  0
 74 48  1  0
 74 79  1  0
 74 75  1  0
 75 78  1  1
 75 76  1  0
 77 75  1  0
 79 82  1  0
 80 84  1  0
 80 79  1  0
 81 80  2  0
 84 83  1  0
 86 87  1  0
 86 84  1  0
 86 85  1  0
M  ISO  4   8 100  16 100  46 101  47 101
M  END
>  <TORSDO>  (90) 
F 19

>  <SCORE>  (90) 
-15.881

>  <name>  (90) 
91

>  <ligand_id>  (90) 
91

>  <original_smiles>  (90) 
[H]c1c([H])c([H])c2c(c1[H])C([H])([H])C([H])([H])C([H])([H])C2([H])N([H])C(=O)C1([H])N(C(=O)C([H])(N([H])C(=O)C([H])(N([H])C([H])([H])[H])C([H])([H])[H])C(C([H])([H])[H])(C([H])([H])[H])C([H])([H])[H])C([H])([H])c2c([H])c(OC([H])([H])C3([H])C([H])([H])C([H])(C([H])([H])C([H])([H])[H])C3([H])C([H])([H])N([H])C(=O)N3C([H])([H])C([H])([H])C([H])([H])C([H])(n4nc(-c5c([H])c([H])c(Oc6c([H])c([H])c(F)c([H])c6F)c([H])c5[H])c(C(=O)N([H])[H])c4N([H])[H])C3([H])[H])c([H])c([H])c2C1([H])[H]

>  <smiles>  (90) 
[H]c1c([H])c([H])c2c(c1[H])C([H])([H])C([H])([H])C([H])([H])C2([H])N([H])C(=O)C1([H])N(C(=O)C([H])(N([H])C(=O)C([H])(N([H])C([H])([H])[H])C([H])([H])[H])C(C([H])([H])[H])(C([H])([H])[H])C([H])([H])[H])C([H])([H])c2c([H])c(OC([H])([H])C3([H])C([H])([H])C([H])(C([H])([H])C([H])([H])[H])C3([H])C([H])([H])N([H])C(=O)N3C([H])([H])C([H])([H])C([H])([H])C([H])(n4nc(-c5c([H])c([H])c(Oc6c([H])c([H])c(F)c([H])c6F)c([H])c5[H])c(C(=O)N([H])[H])c4N([H])[H])C3([H])[H])c([H])c([H])c2C1([H])[H]

$$$$
92:0:0
     RDKit          3D

 90 98  0  0  1  0  0  0  0  0999 V2000
  -28.0940  -19.5510   20.7920 C   0  0  0  0  0  2  0  0  0  0  0  0
  -29.3570  -21.5570   21.1740 C   0  0  0  0  0  2  0  0  0  0  0  0
  -28.9340  -19.6600   19.5150 C   0  0  0  0  0  3  0  0  0  0  0  0
  -29.2580  -21.4140   19.6330 C   0  0  0  0  0  3  0  0  0  0  0  0
  -28.8350  -20.3250   21.7990 N   0  0  0  0  0  4  0  0  0  0  0  0
  -29.6200  -19.7800   22.1100 H   0  0  0  0  0  0  0  0  0  0  0  0
  -28.2650  -20.5370   22.6040 H   0  0  0  0  0  0  0  0  0  0  0  0
  -29.7550  -16.8030   19.6200 C   0  0  0  0  0  3  0  0  0  0  0  0
  -29.9560  -18.2540   19.4500 C   0  0  0  0  0  0  0  0  0  0  0  0
  -30.6460  -15.4590   19.4540 C   0  0  0  0  0  0  0  0  0  0  0  0
  -30.5670  -12.9980   18.6490 C   0  0  0  0  0  2  0  0  0  0  0  0
  -29.5130  -12.7890   17.5340 C   0  0  0  0  0  2  0  0  0  0  0  0
  -28.1260  -12.5120   18.1410 C   0  0  0  0  0  2  0  0  0  0  0  0
  -27.7940  -13.4940   19.2930 C   0  0  0  0  0  3  0  0  0  0  0  0
  -28.9640  -13.6500   20.2850 C   0  0  0  0  0  2  0  0  0  0  0  0
  -30.1190  -14.1410   19.5220 N   0  0  0  0  0  0  0  0  0  0  0  0
  -31.8280  -15.4670   19.0750 O   0  0  0  0  0  0  0  0  0  0  0  0
  -25.5830  -14.0550   20.4350 C   0  0  0  0  0  0  0  0  0  0  0  0
  -24.5570  -13.2800   20.8960 C   0  0  0  0  0  0  0  0  0  0  0  0
  -24.9600  -11.9260   20.6910 C   0  0  0  0  0  0  0  0  0  0  0  0
  -26.5410  -13.1740   19.9630 N   0  0  0  0  0  0  0  0  0  0  0  0
  -26.1910  -11.8830   20.1890 N   0  0  0  0  0  0  0  0  0  0  0  0
  -24.2210  -10.6700   20.8860 C   0  0  0  0  0  0  0  0  0  0  0  0
  -24.6630   -9.6800   21.7890 C   0  0  0  0  0  3  0  0  0  0  0  0
  -23.9210   -8.4950   21.9780 C   0  0  0  0  0  3  0  0  0  0  0  0
  -22.7190   -8.2890   21.2590 C   0  0  0  0  0  0  0  0  0  0  0  0
  -22.2900   -9.2690   20.3470 C   0  0  0  0  0  3  0  0  0  0  0  0
  -23.0340  -10.4460   20.1570 C   0  0  0  0  0  3  0  0  0  0  0  0
  -21.9460   -7.1560   21.3550 O   0  0  0  0  0  0  0  0  0  0  0  0
  -21.8230   -6.4670   22.5350 C   0  0  0  0  0  0  0  0  0  0  0  0
  -21.2830   -7.0650   23.6950 C   0  0  0  0  0  3  0  0  0  0  0  0
  -21.1130   -6.3010   24.8660 C   0  0  0  0  0  3  0  0  0  0  0  0
  -21.4690   -4.9390   24.8760 C   0  0  0  0  0  0  0  0  0  0  0  0
  -22.0010   -4.3410   23.7210 C   0  0  0  0  0  3  0  0  0  0  0  0
  -22.1750   -5.1030   22.5530 C   0  0  0  0  0  0  0  0  0  0  0  0
  -22.6670   -4.5160   21.4360 F   0  0  0  0  0  0  0  0  0  0  0  0
  -21.2990   -4.2020   26.0000 F   0  0  0  0  0  0  0  0  0  0  0  0
  -23.2290  -13.7720   21.3960 C   0  0  0  0  0  0  0  0  0  0  0  0
  -22.6040  -13.0360   22.3040 N   0  0  0  0  0  0  0  0  0  0  0  0
  -22.7650  -14.8450   21.0160 O   0  0  0  0  0  0  0  0  0  0  0  0
  -22.9960  -12.1660   22.6340 H   0  0  0  0  0  0  0  0  0  0  0  0
  -21.7190  -13.3490   22.6780 H   0  0  0  0  0  0  0  0  0  0  0  0
  -25.7730  -15.4300   20.3470 N   0  0  0  0  0  0  0  0  0  0  0  0
  -25.0480  -16.0830   20.6290 H   0  0  0  0  0  0  0  0  0  0  0  0
  -26.5570  -15.8760   19.8900 H   0  0  0  0  0  0  0  0  0  0  0  0
  -31.1820  -18.7030   19.1530 O   0  0  0  0  0  0  0  0  0  0  0  0
  -31.1180  -19.6370   18.9940 H   0  0  0  0  0  0  0  0  0  0  0  0
  -28.3810  -22.8630   19.0240 C   0  0  0  0  0  2  0  0  0  0  0  0
  -28.1330  -24.5340   19.6320 C   0  0  0  0  0  2  0  0  0  0  0  0
  -28.0160  -26.0570   19.0410 O   0  0  0  0  0  0  0  0  0  0  0  0
  -24.5260  -31.5460   22.8600 C   0  0  0  0  0  0  0  0  0  0  0  0
  -26.9600  -27.0760   19.2430 C   0  0  0  0  0  0  0  0  0  0  0  0
  -23.2460  -30.2830   21.1780 C   0  0  0  0  0  3  0  0  0  0  0  0
  -24.6230  -28.8590   19.5200 C   0  0  0  0  0  0  0  0  0  0  0  0
  -25.7880  -30.5910   20.8710 C   0  0  0  0  0  2  0  0  0  0  0  0
  -25.8430  -29.2520   20.0860 C   0  0  0  0  0  0  0  0  0  0  0  0
  -27.0110  -28.3880   19.9160 C   0  0  0  0  0  3  0  0  0  0  0  0
  -25.7090  -26.8240   18.6470 C   0  0  0  0  0  3  0  0  0  0  0  0
  -24.5750  -27.6660   18.7820 C   0  0  0  0  0  3  0  0  0  0  0  0
  -23.3940  -29.7390   19.7310 C   0  0  0  0  0  2  0  0  0  0  0  0
  -24.5450  -30.8290   21.6910 N   0  0  0  0  0  0  0  0  0  0  0  0
  -23.4710  -31.7530   23.4810 O   0  0  0  0  0  0  0  0  0  0  0  0
  -22.6460  -29.1780   22.0860 C   0  0  0  0  0  0  0  0  0  0  0  0
  -21.3170  -28.9720   22.0180 N   0  0  0  0  0  0  0  0  0  0  0  0
  -23.3810  -28.5080   22.8140 O   0  0  0  0  0  0  0  0  0  0  0  0
  -20.7730  -29.5680   21.4100 H   0  0  0  0  0  0  0  0  0  0  0  0
  -18.0190  -27.5750   22.5860 C   0  0  0  0  0  0  0  0  0  0  0  0
  -20.5760  -27.9380   22.7470 C   0  0  0  0  0  3  0  0  0  0  0  0
  -20.7070  -26.5620   22.0520 C   0  0  0  0  0  2  0  0  0  0  0  0
  -19.5700  -26.2740   21.0660 C   0  0  0  0  0  2  0  0  0  0  0  0
  -18.2180  -26.2980   21.7860 C   0  0  0  0  0  2  0  0  0  0  0  0
  -19.1250  -28.3530   23.0230 C   0  0  0  0  0  0  0  0  0  0  0  0
  -18.8820  -29.5470   23.7350 C   0  0  0  0  0  3  0  0  0  0  0  0
  -17.5660  -29.9670   24.0100 C   0  0  0  0  0  3  0  0  0  0  0  0
  -16.4770  -29.1870   23.5850 C   0  0  0  0  0  3  0  0  0  0  0  0
  -16.7040  -27.9920   22.8790 C   0  0  0  0  0  3  0  0  0  0  0  0
  -25.8270  -32.1590   23.4640 C   0  0  0  0  0  3  0  0  0  0  0  0
  -26.4300  -31.2970   24.6410 C   0  0  1  0  0  0  0  0  0  0  0  0
  -25.4100  -30.9670   25.7550 C   0  0  0  0  0  1  0  0  0  0  0  0
  -26.9920  -29.9580   24.1130 C   0  0  0  0  0  1  0  0  0  0  0  0
  -27.6140  -32.0520   25.2880 C   0  0  0  0  0  1  0  0  0  0  0  0
  -25.5070  -33.5170   23.9380 N   0  0  0  0  0  0  0  0  0  0  0  0
  -25.8120  -34.6480   23.2880 C   0  0  0  0  0  0  0  0  0  0  0  0
  -26.4540  -34.6590   22.2340 O   0  0  0  0  0  0  0  0  0  0  0  0
  -24.9320  -33.5820   24.7650 H   0  0  0  0  0  0  0  0  0  0  0  0
  -24.0600  -36.4560   23.1820 C   0  0  0  0  0  1  0  0  0  0  0  0
  -25.3320  -35.9800   23.9030 C   0  0  0  0  0  3  0  0  0  0  0  0
  -27.4800  -36.8130   24.7560 C   0  0  0  0  0  1  0  0  0  0  0  0
  -26.3510  -37.0510   23.8600 N   0  0  0  0  0  0  0  0  0  0  0  0
  -25.9410  -37.9490   24.1010 H   0  0  0  0  0  0  0  0  0  0  0  0
  1  5  1  0
  2  5  1  0
  3  9  1  0
  3  4  1  0
  3  1  1  0
  4 48  1  0
  4  2  1  0
  5  6  1  0
  5  7  1  0
  9  8  2  0
 10 16  1  0
 10  8  1  0
 11 16  1  0
 12 13  1  0
 12 11  1  0
 14 13  1  0
 14 21  1  0
 14 15  1  0
 16 15  1  0
 17 10  2  0
 18 19  2  0
 19 38  1  0
 20 23  1  0
 20 19  1  0
 21 22  1  0
 21 18  1  0
 22 20  2  0
 23 24  1  0
 24 25  2  0
 26 29  1  0
 26 25  1  0
 27 26  2  0
 28 27  1  0
 28 23  2  0
 29 30  1  0
 30 35  2  0
 30 31  1  0
 31 32  2  0
 32 33  1  0
 33 37  1  0
 34 33  2  0
 35 34  1  0
 36 35  1  0
 38 39  1  0
 39 41  1  0
 39 42  1  0
 40 38  2  0
 43 18  1  0
 43 44  1  0
 45 43  1  0
 46  9  1  0
 47 46  1  0
 48 49  1  0
 50 52  1  0
 50 49  1  0
 51 62  2  0
 52 57  1  0
 53 61  1  0
 53 63  1  0
 54 60  1  0
 54 56  1  0
 55 61  1  0
 56 55  1  0
 57 56  2  0
 58 59  1  0
 58 52  2  0
 59 54  2  0
 60 53  1  0
 61 51  1  0
 63 65  2  0
 64 63  1  0
 66 64  1  0
 67 76  2  0
 67 72  1  0
 68 64  1  0
 68 72  1  0
 69 68  1  0
 70 71  1  0
 70 69  1  0
 71 67  1  0
 72 73  2  0
 73 74  1  0
 75 74  2  0
 76 75  1  0
 77 51  1  0
 77 82  1  0
 77 78  1  0
 78 81  1  1
 78 79  1  0
 80 78  1  0
 82 85  1  0
 83 87  1  0
 83 82  1  0
 84 83  2  0
 87 86  1  0
 89 87  1  0
 89 90  1  0
 89 88  1  0
M  ISO  4   8 100  10 100  49 101  50 101
M  END
>  <TORSDO>  (91) 
F 20

>  <SCORE>  (91) 
-12.863

>  <name>  (91) 
92

>  <ligand_id>  (91) 
92

>  <original_smiles>  (91) 
[H]OC(=C([H])C(=O)N1C([H])([H])C([H])([H])C([H])([H])C([H])(n2nc(-c3c([H])c([H])c(Oc4c([H])c([H])c(F)c([H])c4F)c([H])c3[H])c(C(=O)N([H])[H])c2N([H])[H])C1([H])[H])C1([H])C([H])(C([H])([H])C([H])([H])Oc2c([H])c([H])c3c(c2[H])C([H])([H])N(C(=O)C([H])(N([H])C(=O)C([H])(N([H])C([H])([H])[H])C([H])([H])[H])C(C([H])([H])[H])(C([H])([H])[H])C([H])([H])[H])C([H])(C(=O)N([H])C2([H])c4c([H])c([H])c([H])c([H])c4C([H])([H])C([H])([H])C2([H])[H])C3([H])[H])C([H])([H])[N+]([H])([H])C1([H])[H]

>  <smiles>  (91) 
[H]OC(=C([H])C(=O)N1C([H])([H])C([H])([H])C([H])([H])C([H])(n2nc(-c3c([H])c([H])c(Oc4c([H])c([H])c(F)c([H])c4F)c([H])c3[H])c(C(=O)N([H])[H])c2N([H])[H])C1([H])[H])C1([H])C([H])(C([H])([H])C([H])([H])Oc2c([H])c([H])c3c(c2[H])C([H])([H])N(C(=O)C([H])(N([H])C(=O)C([H])(N([H])C([H])([H])[H])C([H])([H])[H])C(C([H])([H])[H])(C([H])([H])[H])C([H])([H])[H])C([H])(C(=O)N([H])C2([H])c4c([H])c([H])c([H])c([H])c4C([H])([H])C([H])([H])C2([H])[H])C3([H])[H])C([H])([H])[N+]([H])([H])C1([H])[H]

$$$$
93:0:0
     RDKit          3D

 89 97  0  0  1  0  0  0  0  0999 V2000
  -28.1620  -20.9820   21.0110 C   0  0  0  0  0  3  0  0  0  0  0  0
  -29.8190  -21.3340   19.3580 C   0  0  0  0  0  3  0  0  0  0  0  0
  -27.8870  -22.3980   21.0280 C   0  0  0  0  0  3  0  0  0  0  0  0
  -29.5310  -22.7590   19.3630 C   0  0  0  0  0  3  0  0  0  0  0  0
  -29.1170  -20.3650   20.1480 C   0  0  0  0  0  0  0  0  0  0  0  0
  -28.5220  -23.3650   20.1860 C   0  0  0  0  0  0  0  0  0  0  0  0
  -29.1540  -18.7540   19.8950 C   0  0  0  0  0  2  0  0  0  0  0  0
  -31.5360  -18.0440   20.5960 C   0  0  0  0  0  1  0  0  0  0  0  0
  -30.0600  -17.6330   20.6900 C   0  0  0  0  0  3  0  0  0  0  0  0
  -30.6000  -14.9320   20.3370 C   0  0  0  0  0  0  0  0  0  0  0  0
  -30.4410  -12.6230   19.3290 C   0  0  0  0  0  2  0  0  0  0  0  0
  -29.4780  -12.5930   18.1200 C   0  0  0  0  0  2  0  0  0  0  0  0
  -28.0090  -12.4510   18.5580 C   0  0  0  0  0  2  0  0  0  0  0  0
  -27.6470  -13.3340   19.7810 C   0  0  0  0  0  3  0  0  0  0  0  0
  -28.7240  -13.2770   20.8800 C   0  0  0  0  0  2  0  0  0  0  0  0
  -29.9840  -13.6910   20.2580 N   0  0  0  0  0  0  0  0  0  0  0  0
  -31.8060  -15.0040   20.0880 O   0  0  0  0  0  0  0  0  0  0  0  0
  -29.8070  -16.0910   20.4850 N   0  0  0  0  0  0  0  0  0  0  0  0
  -28.8290  -15.8590   20.5360 H   0  0  0  0  0  0  0  0  0  0  0  0
  -25.2640  -13.9060   20.5150 C   0  0  0  0  0  0  0  0  0  0  0  0
  -24.2050  -13.1250   20.8830 C   0  0  0  0  0  0  0  0  0  0  0  0
  -24.6750  -11.7780   20.8560 C   0  0  0  0  0  0  0  0  0  0  0  0
  -26.3140  -13.0340   20.2860 N   0  0  0  0  0  0  0  0  0  0  0  0
  -25.9680  -11.7470   20.5560 N   0  0  0  0  0  0  0  0  0  0  0  0
  -23.9540  -10.5120   21.0380 C   0  0  0  0  0  0  0  0  0  0  0  0
  -24.3900   -9.5470   21.9730 C   0  0  0  0  0  3  0  0  0  0  0  0
  -23.6710   -8.3470   22.1540 C   0  0  0  0  0  3  0  0  0  0  0  0
  -22.5030   -8.1000   21.3940 C   0  0  0  0  0  0  0  0  0  0  0  0
  -22.0850   -9.0530   20.4480 C   0  0  0  0  0  3  0  0  0  0  0  0
  -22.8040  -10.2450   20.2680 C   0  0  0  0  0  3  0  0  0  0  0  0
  -21.7560   -6.9480   21.4830 O   0  0  0  0  0  0  0  0  0  0  0  0
  -21.7040   -6.2100   22.6360 C   0  0  0  0  0  0  0  0  0  0  0  0
  -21.2530   -6.7630   23.8560 C   0  0  0  0  0  3  0  0  0  0  0  0
  -21.1500   -5.9500   25.0010 C   0  0  0  0  0  3  0  0  0  0  0  0
  -21.4820   -4.5850   24.9270 C   0  0  0  0  0  0  0  0  0  0  0  0
  -21.9250   -4.0300   23.7140 C   0  0  0  0  0  3  0  0  0  0  0  0
  -22.0310   -4.8410   22.5690 C   0  0  0  0  0  0  0  0  0  0  0  0
  -22.4380   -4.2990   21.3960 F   0  0  0  0  0  0  0  0  0  0  0  0
  -21.3760   -3.8010   26.0250 F   0  0  0  0  0  0  0  0  0  0  0  0
  -22.8030  -13.5970   21.1400 C   0  0  0  0  0  0  0  0  0  0  0  0
  -22.0640  -12.9060   21.9990 N   0  0  0  0  0  0  0  0  0  0  0  0
  -22.3670  -14.6180   20.6110 O   0  0  0  0  0  0  0  0  0  0  0  0
  -22.4240  -12.0890   22.4700 H   0  0  0  0  0  0  0  0  0  0  0  0
  -21.1240  -13.2140   22.2000 H   0  0  0  0  0  0  0  0  0  0  0  0
  -25.4140  -15.2770   20.3190 N   0  0  0  0  0  0  0  0  0  0  0  0
  -24.6230  -15.9090   20.3840 H   0  0  0  0  0  0  0  0  0  0  0  0
  -26.2190  -15.7060   19.8840 H   0  0  0  0  0  0  0  0  0  0  0  0
  -27.8120  -24.8070   19.9320 C   0  0  0  0  0  2  0  0  0  0  0  0
  -28.2380  -26.2470   20.2520 O   0  0  0  0  0  0  0  0  0  0  0  0
  -24.6210  -31.9220   23.2540 C   0  0  0  0  0  0  0  0  0  0  0  0
  -27.2040  -27.2490   20.1870 C   0  0  0  0  0  0  0  0  0  0  0  0
  -23.4290  -30.5280   21.6100 C   0  0  0  0  0  3  0  0  0  0  0  0
  -24.8770  -28.9750   20.1850 C   0  0  0  0  0  0  0  0  0  0  0  0
  -25.9830  -30.8010   21.4540 C   0  0  0  0  0  2  0  0  0  0  0  0
  -26.0590  -29.4150   20.7970 C   0  0  0  0  0  0  0  0  0  0  0  0
  -27.2280  -28.5680   20.7840 C   0  0  0  0  0  3  0  0  0  0  0  0
  -25.9960  -26.9250   19.5200 C   0  0  0  0  0  3  0  0  0  0  0  0
  -24.8560  -27.7410   19.5330 C   0  0  0  0  0  3  0  0  0  0  0  0
  -23.6610  -29.8750   20.2250 C   0  0  0  0  0  2  0  0  0  0  0  0
  -24.6970  -31.1060   22.1620 N   0  0  0  0  0  0  0  0  0  0  0  0
  -23.5320  -32.2050   23.7770 O   0  0  0  0  0  0  0  0  0  0  0  0
  -22.7500  -29.5070   22.5570 C   0  0  0  0  0  0  0  0  0  0  0  0
  -21.4270  -29.3270   22.4120 N   0  0  0  0  0  0  0  0  0  0  0  0
  -23.4140  -28.8850   23.3890 O   0  0  0  0  0  0  0  0  0  0  0  0
  -20.9580  -29.8670   21.6980 H   0  0  0  0  0  0  0  0  0  0  0  0
  -18.0350  -28.1470   22.9180 C   0  0  0  0  0  0  0  0  0  0  0  0
  -20.5970  -28.3950   23.1840 C   0  0  0  0  0  3  0  0  0  0  0  0
  -20.6940  -26.9580   22.6120 C   0  0  0  0  0  2  0  0  0  0  0  0
  -19.5770  -26.6100   21.6260 C   0  0  0  0  0  2  0  0  0  0  0  0
  -18.2020  -26.7870   22.2660 C   0  0  0  0  0  2  0  0  0  0  0  0
  -19.1580  -28.9030   23.3440 C   0  0  0  0  0  0  0  0  0  0  0  0
  -18.9400  -30.1600   23.9480 C   0  0  0  0  0  3  0  0  0  0  0  0
  -17.6360  -30.6600   24.1190 C   0  0  0  0  0  3  0  0  0  0  0  0
  -16.5270  -29.9040   23.6980 C   0  0  0  0  0  3  0  0  0  0  0  0
  -16.7310  -28.6480   23.1040 C   0  0  0  0  0  3  0  0  0  0  0  0
  -25.8960  -32.5610   23.8820 C   0  0  0  0  0  3  0  0  0  0  0  0
  -26.3960  -31.8010   25.1720 C   0  0  1  0  0  0  0  0  0  0  0  0
  -25.2930  -31.5780   26.2320 C   0  0  0  0  0  1  0  0  0  0  0  0
  -26.9800  -30.4210   24.8000 C   0  0  0  0  0  1  0  0  0  0  0  0
  -27.5390  -32.5970   25.8450 C   0  0  0  0  0  1  0  0  0  0  0  0
  -25.5890  -33.9640   24.2030 N   0  0  0  0  0  0  0  0  0  0  0  0
  -25.9120  -35.0130   23.4330 C   0  0  0  0  0  0  0  0  0  0  0  0
  -26.5710  -34.9010   22.3970 O   0  0  0  0  0  0  0  0  0  0  0  0
  -25.0220  -34.1240   25.0220 H   0  0  0  0  0  0  0  0  0  0  0  0
  -24.1860  -36.8120   23.0820 C   0  0  0  0  0  1  0  0  0  0  0  0
  -25.4320  -36.4060   23.8860 C   0  0  0  0  0  3  0  0  0  0  0  0
  -27.5710  -37.2980   24.7010 C   0  0  0  0  0  1  0  0  0  0  0  0
  -26.4650  -37.4570   23.7590 N   0  0  0  0  0  0  0  0  0  0  0  0
  -26.0600  -38.3780   23.9020 H   0  0  0  0  0  0  0  0  0  0  0  0
  1  3  1  0
  2  4  2  0
  2  5  1  0
  4  6  1  0
  5  1  2  0
  6  3  2  0
  7  5  1  0
  7  9  1  0
  9  8  1  0
 10 18  1  0
 11 16  1  0
 12 13  1  0
 12 11  1  0
 14 13  1  0
 14 23  1  0
 14 15  1  0
 16 10  1  0
 16 15  1  0
 17 10  2  0
 18 19  1  0
 18  9  1  0
 20 21  2  0
 21 40  1  0
 22 21  1  0
 22 25  1  0
 23 20  1  0
 23 24  1  0
 24 22  2  0
 25 26  1  0
 26 27  2  0
 28 31  1  0
 28 27  1  0
 29 28  2  0
 30 29  1  0
 30 25  2  0
 31 32  1  0
 32 33  1  0
 33 34  2  0
 35 34  1  0
 35 39  1  0
 36 35  2  0
 37 32  2  0
 37 36  1  0
 38 37  1  0
 40 41  1  0
 41 44  1  0
 41 43  1  0
 42 40  2  0
 45 46  1  0
 45 20  1  0
 47 45  1  0
 48  6  1  0
 48 49  1  0
 50 61  2  0
 51 49  1  0
 51 56  1  0
 52 60  1  0
 52 62  1  0
 53 59  1  0
 53 55  1  0
 54 60  1  0
 55 54  1  0
 56 55  2  0
 57 58  1  0
 57 51  2  0
 58 53  2  0
 59 52  1  0
 60 50  1  0
 62 64  2  0
 63 62  1  0
 65 63  1  0
 66 75  2  0
 66 71  1  0
 67 63  1  0
 67 71  1  0
 68 67  1  0
 69 70  1  0
 69 68  1  0
 70 66  1  0
 71 72  2  0
 72 73  1  0
 74 73  2  0
 75 74  1  0
 76 50  1  0
 76 81  1  0
 76 77  1  0
 77 80  1  1
 77 78  1  0
 79 77  1  0
 81 84  1  0
 82 86  1  0
 82 81  1  0
 83 82  2  0
 86 85  1  0
 88 86  1  0
 88 89  1  0
 88 87  1  0
M  ISO  4  10 100  18 100  48 101  49 101
M  END
>  <TORSDO>  (92) 
F 19

>  <SCORE>  (92) 
-14.290

>  <name>  (92) 
93

>  <ligand_id>  (92) 
93

>  <original_smiles>  (92) 
[H]c1c([H])c([H])c2c(c1[H])C([H])([H])C([H])([H])C([H])([H])C2([H])N([H])C(=O)C1([H])N(C(=O)C([H])(N([H])C(=O)C([H])(N([H])C([H])([H])[H])C([H])([H])[H])C(C([H])([H])[H])(C([H])([H])[H])C([H])([H])[H])C([H])([H])c2c([H])c(OC([H])([H])c3c([H])c([H])c(C([H])([H])C([H])(N([H])C(=O)N4C([H])([H])C([H])([H])C([H])([H])C([H])(n5nc(-c6c([H])c([H])c(Oc7c([H])c([H])c(F)c([H])c7F)c([H])c6[H])c(C(=O)N([H])[H])c5N([H])[H])C4([H])[H])C([H])([H])[H])c([H])c3[H])c([H])c([H])c2C1([H])[H]

>  <smiles>  (92) 
[H]c1c([H])c([H])c2c(c1[H])C([H])([H])C([H])([H])C([H])([H])C2([H])N([H])C(=O)C1([H])N(C(=O)C([H])(N([H])C(=O)C([H])(N([H])C([H])([H])[H])C([H])([H])[H])C(C([H])([H])[H])(C([H])([H])[H])C([H])([H])[H])C([H])([H])c2c([H])c(OC([H])([H])c3c([H])c([H])c(C([H])([H])C([H])(N([H])C(=O)N4C([H])([H])C([H])([H])C([H])([H])C([H])(n5nc(-c6c([H])c([H])c(Oc7c([H])c([H])c(F)c([H])c7F)c([H])c6[H])c(C(=O)N([H])[H])c5N([H])[H])C4([H])[H])C([H])([H])[H])c([H])c3[H])c([H])c([H])c2C1([H])[H]

$$$$
94:0:0
     RDKit          3D

 87 95  0  0  1  0  0  0  0  0999 V2000
  -29.5860  -20.4840   21.2710 C   0  0  0  0  0  0  0  0  0  0  0  0
  -28.7540  -20.2780   19.4110 C   0  0  0  0  0  2  0  0  0  0  0  0
  -29.0400  -19.1360   20.5270 C   0  0  0  0  0  3  0  0  0  0  0  0
  -28.6040  -21.5120   20.4610 C   0  0  0  0  0  3  0  0  0  0  0  0
  -30.4960  -20.6860   22.0780 O   0  0  0  0  0  0  0  0  0  0  0  0
  -29.9550  -17.6990   20.2890 C   0  0  0  0  0  0  0  0  0  0  0  0
  -31.3300  -18.0510   19.7420 C   0  0  0  0  0  1  0  0  0  0  0  0
  -29.6240  -16.3750   20.5120 N   0  0  0  0  0  0  0  0  0  0  0  0
  -30.4490  -15.1320   20.2800 C   0  0  0  0  0  0  0  0  0  0  0  0
  -30.3530  -12.7440   19.3680 C   0  0  0  0  0  2  0  0  0  0  0  0
  -29.4120  -12.6620   18.1410 C   0  0  0  0  0  2  0  0  0  0  0  0
  -27.9570  -12.4300   18.5830 C   0  0  0  0  0  2  0  0  0  0  0  0
  -27.5460  -13.3620   19.7520 C   0  0  0  0  0  3  0  0  0  0  0  0
  -28.6080  -13.4170   20.8670 C   0  0  0  0  0  2  0  0  0  0  0  0
  -29.8710  -13.8510   20.2570 N   0  0  0  0  0  0  0  0  0  0  0  0
  -31.6440  -15.1370   19.9710 O   0  0  0  0  0  0  0  0  0  0  0  0
  -25.1790  -13.9160   20.5370 C   0  0  0  0  0  0  0  0  0  0  0  0
  -24.1210  -13.1320   20.9090 C   0  0  0  0  0  0  0  0  0  0  0  0
  -24.5900  -11.7830   20.8570 C   0  0  0  0  0  0  0  0  0  0  0  0
  -26.2190  -13.0440   20.2690 N   0  0  0  0  0  0  0  0  0  0  0  0
  -25.8780  -11.7560   20.5300 N   0  0  0  0  0  0  0  0  0  0  0  0
  -23.8670  -10.5160   21.0390 C   0  0  0  0  0  0  0  0  0  0  0  0
  -24.2960   -9.5450   21.9700 C   0  0  0  0  0  3  0  0  0  0  0  0
  -23.5700   -8.3460   22.1420 C   0  0  0  0  0  3  0  0  0  0  0  0
  -22.4010   -8.1100   21.3810 C   0  0  0  0  0  0  0  0  0  0  0  0
  -21.9910   -9.0690   20.4380 C   0  0  0  0  0  3  0  0  0  0  0  0
  -22.7180  -10.2590   20.2660 C   0  0  0  0  0  3  0  0  0  0  0  0
  -21.6470   -6.9630   21.4610 O   0  0  0  0  0  0  0  0  0  0  0  0
  -21.5740   -6.2290   22.6180 C   0  0  0  0  0  0  0  0  0  0  0  0
  -21.0980   -6.7870   23.8250 C   0  0  0  0  0  3  0  0  0  0  0  0
  -20.9720   -5.9790   24.9730 C   0  0  0  0  0  3  0  0  0  0  0  0
  -21.3140   -4.6150   24.9150 C   0  0  0  0  0  0  0  0  0  0  0  0
  -21.7830   -4.0560   23.7130 C   0  0  0  0  0  3  0  0  0  0  0  0
  -21.9100   -4.8610   22.5680 C   0  0  0  0  0  0  0  0  0  0  0  0
  -22.3420   -4.3130   21.4060 F   0  0  0  0  0  0  0  0  0  0  0  0
  -21.1870   -3.8360   26.0150 F   0  0  0  0  0  0  0  0  0  0  0  0
  -22.7270  -13.6030   21.1990 C   0  0  0  0  0  0  0  0  0  0  0  0
  -22.0100  -12.8960   22.0660 N   0  0  0  0  0  0  0  0  0  0  0  0
  -22.2820  -14.6340   20.6960 O   0  0  0  0  0  0  0  0  0  0  0  0
  -22.3840  -12.0610   22.4910 H   0  0  0  0  0  0  0  0  0  0  0  0
  -21.0750  -13.1940   22.3080 H   0  0  0  0  0  0  0  0  0  0  0  0
  -25.3410  -15.2890   20.3800 N   0  0  0  0  0  0  0  0  0  0  0  0
  -24.5880  -15.9520   20.5280 H   0  0  0  0  0  0  0  0  0  0  0  0
  -26.2100  -15.7280   20.0990 H   0  0  0  0  0  0  0  0  0  0  0  0
  -28.9720  -23.1960   20.2990 C   0  0  0  0  0  3  0  0  0  0  0  0
  -27.8980  -24.5450   20.2230 C   0  0  0  0  0  3  0  0  0  0  0  0
  -28.1900  -26.1110   20.2560 O   0  0  0  0  0  0  0  0  0  0  0  0
  -24.6160  -31.9170   23.2320 C   0  0  0  0  0  0  0  0  0  0  0  0
  -27.1530  -27.1350   20.2020 C   0  0  0  0  0  0  0  0  0  0  0  0
  -23.4100  -30.5270   21.5970 C   0  0  0  0  0  3  0  0  0  0  0  0
  -24.8460  -28.9390   20.1690 C   0  0  0  0  0  0  0  0  0  0  0  0
  -25.9700  -30.7630   21.4340 C   0  0  0  0  0  2  0  0  0  0  0  0
  -26.0330  -29.3650   20.7780 C   0  0  0  0  0  0  0  0  0  0  0  0
  -27.1880  -28.4830   20.7710 C   0  0  0  0  0  3  0  0  0  0  0  0
  -25.9360  -26.8270   19.5550 C   0  0  0  0  0  3  0  0  0  0  0  0
  -24.8150  -27.6860   19.5390 C   0  0  0  0  0  3  0  0  0  0  0  0
  -23.6260  -29.8480   20.2190 C   0  0  0  0  0  2  0  0  0  0  0  0
  -24.6860  -31.0920   22.1410 N   0  0  0  0  0  0  0  0  0  0  0  0
  -23.5300  -32.2100   23.7580 O   0  0  0  0  0  0  0  0  0  0  0  0
  -22.7240  -29.5270   22.5610 C   0  0  0  0  0  0  0  0  0  0  0  0
  -21.3950  -29.3590   22.4340 N   0  0  0  0  0  0  0  0  0  0  0  0
  -23.3930  -28.9010   23.3880 O   0  0  0  0  0  0  0  0  0  0  0  0
  -20.9120  -29.9130   21.7400 H   0  0  0  0  0  0  0  0  0  0  0  0
  -18.0080  -28.1750   22.9450 C   0  0  0  0  0  0  0  0  0  0  0  0
  -20.5690  -28.4250   23.2050 C   0  0  0  0  0  3  0  0  0  0  0  0
  -20.6620  -26.9930   22.6270 C   0  0  0  0  0  2  0  0  0  0  0  0
  -19.5540  -26.6780   21.6160 C   0  0  0  0  0  2  0  0  0  0  0  0
  -18.1750  -26.8270   22.2640 C   0  0  0  0  0  2  0  0  0  0  0  0
  -19.1310  -28.9320   23.3720 C   0  0  0  0  0  0  0  0  0  0  0  0
  -18.9170  -30.1930   23.9700 C   0  0  0  0  0  3  0  0  0  0  0  0
  -17.6150  -30.6970   24.1440 C   0  0  0  0  0  3  0  0  0  0  0  0
  -16.5060  -29.9360   23.7330 C   0  0  0  0  0  3  0  0  0  0  0  0
  -16.7040  -28.6770   23.1380 C   0  0  0  0  0  3  0  0  0  0  0  0
  -25.8950  -32.5490   23.8590 C   0  0  0  0  0  3  0  0  0  0  0  0
  -26.4050  -31.7760   25.1370 C   0  0  1  0  0  0  0  0  0  0  0  0
  -25.3070  -31.5420   26.2020 C   0  0  0  0  0  1  0  0  0  0  0  0
  -26.9860  -30.3960   24.7490 C   0  0  0  0  0  1  0  0  0  0  0  0
  -27.5560  -32.5670   25.8030 C   0  0  0  0  0  1  0  0  0  0  0  0
  -25.5850  -33.9480   24.1990 N   0  0  0  0  0  0  0  0  0  0  0  0
  -25.8980  -35.0080   23.4420 C   0  0  0  0  0  0  0  0  0  0  0  0
  -26.5450  -34.9120   22.3950 O   0  0  0  0  0  0  0  0  0  0  0  0
  -25.0060  -34.0960   25.0120 H   0  0  0  0  0  0  0  0  0  0  0  0
  -24.1530  -36.7990   23.1570 C   0  0  0  0  0  1  0  0  0  0  0  0
  -25.4230  -36.3940   23.9220 C   0  0  0  0  0  3  0  0  0  0  0  0
  -27.5790  -37.2900   24.6830 C   0  0  0  0  0  1  0  0  0  0  0  0
  -26.4470  -37.4520   23.7760 N   0  0  0  0  0  0  0  0  0  0  0  0
  -26.0410  -38.3690   23.9350 H   0  0  0  0  0  0  0  0  0  0  0  0
  1  5  2  0
  2  4  1  0
  2  3  1  0
  3  6  1  0
  3  1  1  0
  4 45  1  0
  4  1  1  0
  6  8  2  0
  7  6  1  0
  9  8  1  0
 10 15  1  0
 11 12  1  0
 11 10  1  0
 13 12  1  0
 13 20  1  0
 13 14  1  0
 15  9  1  0
 15 14  1  0
 16  9  2  0
 17 18  2  0
 18 37  1  0
 19 18  1  0
 19 22  1  0
 20 21  1  0
 20 17  1  0
 21 19  2  0
 22 23  1  0
 23 24  2  0
 25 28  1  0
 25 24  1  0
 26 25  2  0
 27 26  1  0
 27 22  2  0
 28 29  1  0
 29 30  1  0
 30 31  2  0
 32 31  1  0
 32 36  1  0
 33 32  2  0
 34 29  2  0
 34 33  1  0
 35 34  1  0
 37 38  1  0
 38 41  1  0
 38 40  1  0
 39 37  2  0
 42 43  1  0
 42 17  1  0
 44 42  1  0
 46 47  1  0
 46 45  2  0
 48 59  2  0
 49 47  1  0
 49 54  1  0
 50 58  1  0
 50 60  1  0
 51 57  1  0
 51 53  1  0
 52 58  1  0
 53 52  1  0
 54 53  2  0
 55 49  2  0
 56 55  1  0
 56 51  2  0
 57 50  1  0
 58 48  1  0
 60 62  2  0
 61 60  1  0
 63 61  1  0
 64 73  2  0
 64 69  1  0
 65 61  1  0
 65 69  1  0
 66 65  1  0
 67 68  1  0
 67 66  1  0
 68 64  1  0
 69 70  2  0
 70 71  1  0
 72 71  2  0
 73 72  1  0
 74 48  1  0
 74 79  1  0
 74 75  1  0
 75 78  1  1
 75 76  1  0
 77 75  1  0
 79 82  1  0
 80 84  1  0
 80 79  1  0
 81 80  2  0
 84 83  1  0
 86 84  1  0
 86 87  1  0
 86 85  1  0
M  ISO  4   8 100   9 100  46 101  47 101
M  END
>  <TORSDO>  (93) 
F 19

>  <SCORE>  (93) 
-15.715

>  <name>  (93) 
94

>  <ligand_id>  (93) 
94

>  <original_smiles>  (93) 
[H]c1c([H])c([H])c2c(c1[H])C([H])([H])C([H])([H])C([H])([H])C2([H])N([H])C(=O)C1([H])N(C(=O)C([H])(N([H])C(=O)C([H])(N([H])C([H])([H])[H])C([H])([H])[H])C(C([H])([H])[H])(C([H])([H])[H])C([H])([H])[H])C([H])([H])c2c([H])c(OC([H])([H])C([H])([H])C3([H])C(=O)C([H])(C(=NC(=O)N4C([H])([H])C([H])([H])C([H])([H])C([H])(n5nc(-c6c([H])c([H])c(Oc7c([H])c([H])c(F)c([H])c7F)c([H])c6[H])c(C(=O)N([H])[H])c5N([H])[H])C4([H])[H])C([H])([H])[H])C3([H])[H])c([H])c([H])c2C1([H])[H]

>  <smiles>  (93) 
[H]c1c([H])c([H])c2c(c1[H])C([H])([H])C([H])([H])C([H])([H])C2([H])N([H])C(=O)C1([H])N(C(=O)C([H])(N([H])C(=O)C([H])(N([H])C([H])([H])[H])C([H])([H])[H])C(C([H])([H])[H])(C([H])([H])[H])C([H])([H])[H])C([H])([H])c2c([H])c(OC([H])([H])C([H])([H])C3([H])C(=O)C([H])(C(=NC(=O)N4C([H])([H])C([H])([H])C([H])([H])C([H])(n5nc(-c6c([H])c([H])c(Oc7c([H])c([H])c(F)c([H])c7F)c([H])c6[H])c(C(=O)N([H])[H])c5N([H])[H])C4([H])[H])C([H])([H])[H])C3([H])[H])c([H])c([H])c2C1([H])[H]

$$$$
95:0:0
     RDKit          3D

 85 92  0  0  1  0  0  0  0  0999 V2000
  -28.9460  -22.4920   20.3960 C   0  0  0  0  0  3  0  0  0  0  0  0
  -28.7060  -20.6350   20.2120 C   0  0  0  0  0  2  0  0  0  0  0  0
  -30.9340  -19.3170   19.5080 C   0  0  0  0  0  1  0  0  0  0  0  0
  -29.7050  -19.0440   20.3840 C   0  0  0  0  0  3  0  0  0  0  0  0
  -29.3870  -17.1900   20.2300 C   0  0  0  0  0  3  0  0  0  0  0  0
  -30.3130  -15.6050   20.2570 C   0  0  0  0  0  0  0  0  0  0  0  0
  -30.4480  -13.0970   19.4490 C   0  0  0  0  0  2  0  0  0  0  0  0
  -29.5460  -12.7840   18.2230 C   0  0  0  0  0  2  0  0  0  0  0  0
  -28.1060  -12.4460   18.6530 C   0  0  0  0  0  2  0  0  0  0  0  0
  -27.6040  -13.4020   19.7620 C   0  0  0  0  0  3  0  0  0  0  0  0
  -28.6390  -13.6480   20.8780 C   0  0  0  0  0  2  0  0  0  0  0  0
  -29.8430  -14.2350   20.2530 N   0  0  0  0  0  0  0  0  0  0  0  0
  -31.5450  -15.6050   20.0800 O   0  0  0  0  0  0  0  0  0  0  0  0
  -25.2330  -13.9000   20.5400 C   0  0  0  0  0  0  0  0  0  0  0  0
  -24.1820  -13.1070   20.9000 C   0  0  0  0  0  0  0  0  0  0  0  0
  -24.6730  -11.7670   20.8460 C   0  0  0  0  0  0  0  0  0  0  0  0
  -26.2890  -13.0470   20.2770 N   0  0  0  0  0  0  0  0  0  0  0  0
  -25.9640  -11.7540   20.5310 N   0  0  0  0  0  0  0  0  0  0  0  0
  -23.9620  -10.4950   21.0210 C   0  0  0  0  0  0  0  0  0  0  0  0
  -24.3920   -9.5340   21.9610 C   0  0  0  0  0  3  0  0  0  0  0  0
  -23.6780   -8.3270   22.1290 C   0  0  0  0  0  3  0  0  0  0  0  0
  -22.5220   -8.0760   21.3560 C   0  0  0  0  0  0  0  0  0  0  0  0
  -22.1100   -9.0270   20.4040 C   0  0  0  0  0  3  0  0  0  0  0  0
  -22.8230  -10.2250   20.2360 C   0  0  0  0  0  3  0  0  0  0  0  0
  -21.7800   -6.9210   21.4300 O   0  0  0  0  0  0  0  0  0  0  0  0
  -21.6990   -6.1920   22.5870 C   0  0  0  0  0  0  0  0  0  0  0  0
  -21.1760   -6.7410   23.7780 C   0  0  0  0  0  3  0  0  0  0  0  0
  -21.0490   -5.9360   24.9280 C   0  0  0  0  0  3  0  0  0  0  0  0
  -21.4320   -4.5820   24.8860 C   0  0  0  0  0  0  0  0  0  0  0  0
  -21.9450   -4.0320   23.6990 C   0  0  0  0  0  3  0  0  0  0  0  0
  -22.0760   -4.8340   22.5520 C   0  0  0  0  0  0  0  0  0  0  0  0
  -22.5530   -4.2940   21.4050 F   0  0  0  0  0  0  0  0  0  0  0  0
  -21.3010   -3.8060   25.9870 F   0  0  0  0  0  0  0  0  0  0  0  0
  -22.7800  -13.5650   21.1720 C   0  0  0  0  0  0  0  0  0  0  0  0
  -22.0630  -12.8580   22.0390 N   0  0  0  0  0  0  0  0  0  0  0  0
  -22.3290  -14.5880   20.6560 O   0  0  0  0  0  0  0  0  0  0  0  0
  -22.4440  -12.0360   22.4850 H   0  0  0  0  0  0  0  0  0  0  0  0
  -21.1220  -13.1470   22.2630 H   0  0  0  0  0  0  0  0  0  0  0  0
  -25.3700  -15.2700   20.3840 N   0  0  0  0  0  0  0  0  0  0  0  0
  -24.5980  -15.9160   20.5020 H   0  0  0  0  0  0  0  0  0  0  0  0
  -26.2110  -15.7150   20.0430 H   0  0  0  0  0  0  0  0  0  0  0  0
  -27.1200  -17.6540   19.0550 C   0  0  0  0  0  1  0  0  0  0  0  0
  -28.5490  -17.1020   18.9280 C   0  0  0  0  0  2  0  0  0  0  0  0
  -27.9610  -24.0840   20.1840 C   0  0  0  0  0  3  0  0  0  0  0  0
  -28.1610  -25.7740   20.3510 O   0  0  0  0  0  0  0  0  0  0  0  0
  -24.6190  -31.9030   23.2830 C   0  0  0  0  0  0  0  0  0  0  0  0
  -27.1660  -26.9260   20.2840 C   0  0  0  0  0  0  0  0  0  0  0  0
  -23.4320  -30.5080   21.6440 C   0  0  0  0  0  3  0  0  0  0  0  0
  -24.8820  -28.8830   20.2290 C   0  0  0  0  0  0  0  0  0  0  0  0
  -26.0060  -30.6850   21.5150 C   0  0  0  0  0  2  0  0  0  0  0  0
  -26.0740  -29.2640   20.8570 C   0  0  0  0  0  0  0  0  0  0  0  0
  -27.2050  -28.3110   20.8540 C   0  0  0  0  0  3  0  0  0  0  0  0
  -25.9420  -26.7250   19.6040 C   0  0  0  0  0  3  0  0  0  0  0  0
  -24.8490  -27.6380   19.5780 C   0  0  0  0  0  3  0  0  0  0  0  0
  -23.6700  -29.8190   20.2700 C   0  0  0  0  0  2  0  0  0  0  0  0
  -24.7090  -31.0630   22.1990 N   0  0  0  0  0  0  0  0  0  0  0  0
  -23.5280  -32.1980   23.7980 O   0  0  0  0  0  0  0  0  0  0  0  0
  -22.7250  -29.5200   22.6110 C   0  0  0  0  0  0  0  0  0  0  0  0
  -21.3960  -29.3530   22.4740 N   0  0  0  0  0  0  0  0  0  0  0  0
  -23.3830  -28.9060   23.4530 O   0  0  0  0  0  0  0  0  0  0  0  0
  -20.9180  -29.8930   21.7680 H   0  0  0  0  0  0  0  0  0  0  0  0
  -18.0140  -28.1220   22.9590 C   0  0  0  0  0  0  0  0  0  0  0  0
  -20.5690  -28.4160   23.2460 C   0  0  0  0  0  3  0  0  0  0  0  0
  -20.6900  -26.9800   22.6820 C   0  0  0  0  0  2  0  0  0  0  0  0
  -19.6000  -26.6410   21.6610 C   0  0  0  0  0  2  0  0  0  0  0  0
  -18.2100  -26.7740   22.2880 C   0  0  0  0  0  2  0  0  0  0  0  0
  -19.1200  -28.9010   23.3930 C   0  0  0  0  0  0  0  0  0  0  0  0
  -18.8760  -30.1610   23.9800 C   0  0  0  0  0  3  0  0  0  0  0  0
  -17.5620  -30.6410   24.1410 C   0  0  0  0  0  3  0  0  0  0  0  0
  -16.4720  -29.8600   23.7180 C   0  0  0  0  0  3  0  0  0  0  0  0
  -16.7000  -28.6040   23.1320 C   0  0  0  0  0  3  0  0  0  0  0  0
  -25.8860  -32.5480   23.9230 C   0  0  0  0  0  3  0  0  0  0  0  0
  -25.5740  -33.9570   24.2340 N   0  0  0  0  0  0  0  0  0  0  0  0
  -25.9050  -35.0050   23.4690 C   0  0  0  0  0  0  0  0  0  0  0  0
  -26.5650  -34.8900   22.4320 O   0  0  0  0  0  0  0  0  0  0  0  0
  -24.9890  -34.1200   25.0400 H   0  0  0  0  0  0  0  0  0  0  0  0
  -24.1790  -36.8100   23.1320 C   0  0  0  0  0  1  0  0  0  0  0  0
  -25.4330  -36.4030   23.9220 C   0  0  0  0  0  3  0  0  0  0  0  0
  -27.5800  -37.3000   24.7120 C   0  0  0  0  0  1  0  0  0  0  0  0
  -26.4660  -37.4530   23.7790 N   0  0  0  0  0  0  0  0  0  0  0  0
  -26.0640  -38.3740   23.9160 H   0  0  0  0  0  0  0  0  0  0  0  0
  -26.3670  -31.8020   25.2290 C   0  0  1  0  0  0  0  0  0  0  0  0
  -25.2520  -31.5990   26.2810 C   0  0  0  0  0  1  0  0  0  0  0  0
  -26.9430  -30.4090   24.8910 C   0  0  0  0  0  1  0  0  0  0  0  0
  -27.5100  -32.6040   25.8980 C   0  0  0  0  0  1  0  0  0  0  0  0
  2  4  1  0
  2  1  1  0
  4  3  1  0
  5 43  1  0
  5  6  1  0
  5  4  1  0
  7 12  1  0
  8  9  1  0
  8  7  1  0
 10  9  1  0
 10 17  1  0
 10 11  1  0
 12  6  1  0
 12 11  1  0
 13  6  2  0
 14 15  2  0
 15 34  1  0
 16 15  1  0
 16 19  1  0
 17 18  1  0
 17 14  1  0
 18 16  2  0
 19 20  1  0
 20 21  2  0
 22 25  1  0
 22 21  1  0
 23 22  2  0
 24 23  1  0
 24 19  2  0
 25 26  1  0
 26 27  1  0
 27 28  2  0
 29 28  1  0
 29 33  1  0
 30 29  2  0
 31 26  2  0
 31 30  1  0
 32 31  1  0
 34 35  1  0
 35 38  1  0
 35 37  1  0
 36 34  2  0
 39 40  1  0
 39 14  1  0
 41 39  1  0
 43 42  1  0
 44 45  1  0
 44  1  2  0
 46 57  2  0
 47 45  1  0
 47 52  1  0
 48 56  1  0
 48 58  1  0
 49 55  1  0
 49 51  1  0
 50 56  1  0
 51 50  1  0
 52 51  2  0
 53 47  2  0
 54 53  1  0
 54 49  2  0
 55 48  1  0
 56 46  1  0
 58 60  2  0
 59 58  1  0
 61 59  1  0
 62 71  2  0
 62 67  1  0
 63 59  1  0
 63 67  1  0
 64 63  1  0
 65 66  1  0
 65 64  1  0
 66 62  1  0
 67 68  2  0
 68 69  1  0
 70 69  2  0
 71 70  1  0
 72 46  1  0
 72 73  1  0
 72 82  1  0
 73 76  1  0
 74 78  1  0
 74 73  1  0
 75 74  2  0
 78 77  1  0
 80 81  1  0
 80 78  1  0
 80 79  1  0
 82 85  1  1
 82 83  1  0
 84 82  1  0
M  ISO  4   5 100   6 100  44 101  45 101
M  END
>  <TORSDO>  (94) 
F 21

>  <SCORE>  (94) 
-16.285

>  <name>  (94) 
95

>  <ligand_id>  (94) 
95

>  <original_smiles>  (94) 
[H]c1c([H])c([H])c2c(c1[H])C([H])([H])C([H])([H])C([H])([H])C2([H])N([H])C(=O)C1([H])N(C(=O)C([H])(N([H])C(=O)C([H])(N([H])C([H])([H])[H])C([H])([H])[H])C(C([H])([H])[H])(C([H])([H])[H])C([H])([H])[H])C([H])([H])c2c([H])c(OC([H])([H])C([H])([H])C([H])([H])C([H])(C([H])([H])[H])C([H])(C(=O)N3C([H])([H])C([H])([H])C([H])([H])C([H])(n4nc(-c5c([H])c([H])c(Oc6c([H])c([H])c(F)c([H])c6F)c([H])c5[H])c(C(=O)N([H])[H])c4N([H])[H])C3([H])[H])C([H])([H])C([H])([H])[H])c([H])c([H])c2C1([H])[H]

>  <smiles>  (94) 
[H]c1c([H])c([H])c2c(c1[H])C([H])([H])C([H])([H])C([H])([H])C2([H])N([H])C(=O)C1([H])N(C(=O)C([H])(N([H])C(=O)C([H])(N([H])C([H])([H])[H])C([H])([H])[H])C(C([H])([H])[H])(C([H])([H])[H])C([H])([H])[H])C([H])([H])c2c([H])c(OC([H])([H])C([H])([H])C([H])([H])C([H])(C([H])([H])[H])C([H])(C(=O)N3C([H])([H])C([H])([H])C([H])([H])C([H])(n4nc(-c5c([H])c([H])c(Oc6c([H])c([H])c(F)c([H])c6F)c([H])c5[H])c(C(=O)N([H])[H])c4N([H])[H])C3([H])[H])C([H])([H])C([H])([H])[H])c([H])c([H])c2C1([H])[H]

$$$$
96:0:0
     RDKit          3D

 91 99  0  0  1  0  0  0  0  0999 V2000
  -29.8520  -19.2750   21.7040 C   0  0  0  0  0  2  0  0  0  0  0  0
  -28.9100  -19.8020   19.6420 C   0  0  0  0  0  3  0  0  0  0  0  0
  -29.7970  -18.5240   20.3040 C   0  0  0  0  0  3  0  0  0  0  0  0
  -29.2460  -21.3180   20.3000 C   0  0  0  0  0  3  0  0  0  0  0  0
  -29.4460  -20.7650   21.6760 N   0  0  0  0  0  4  0  0  0  0  0  0
  -30.1320  -21.3140   22.1680 H   0  0  0  0  0  0  0  0  0  0  0  0
  -28.5830  -20.8550   22.1850 H   0  0  0  0  0  0  0  0  0  0  0  0
  -28.9300  -19.8260   18.1170 C   0  0  0  0  0  0  0  0  0  0  0  0
  -27.5760  -19.9830   17.4530 C   0  0  0  0  0  1  0  0  0  0  0  0
  -29.9960  -19.7310   17.4410 N   0  0  0  0  0  0  0  0  0  0  0  0
  -30.8200  -19.6340   18.0240 H   0  0  0  0  0  0  0  0  0  0  0  0
  -29.4700  -16.7660   20.2720 C   0  0  0  0  0  2  0  0  0  0  0  0
  -30.3980  -15.2990   20.1530 C   0  0  0  0  0  0  0  0  0  0  0  0
  -30.3920  -12.8810   19.2360 C   0  0  0  0  0  2  0  0  0  0  0  0
  -29.4340  -12.7500   18.0220 C   0  0  0  0  0  2  0  0  0  0  0  0
  -27.9840  -12.4930   18.4770 C   0  0  0  0  0  2  0  0  0  0  0  0
  -27.5760  -13.4180   19.6510 C   0  0  0  0  0  3  0  0  0  0  0  0
  -28.6500  -13.4870   20.7530 C   0  0  0  0  0  2  0  0  0  0  0  0
  -29.8870  -13.9770   20.1310 N   0  0  0  0  0  0  0  0  0  0  0  0
  -31.6080  -15.3550   19.8910 O   0  0  0  0  0  0  0  0  0  0  0  0
  -25.2170  -13.9690   20.4540 C   0  0  0  0  0  0  0  0  0  0  0  0
  -24.1630  -13.1850   20.8380 C   0  0  0  0  0  0  0  0  0  0  0  0
  -24.6330  -11.8390   20.7880 C   0  0  0  0  0  0  0  0  0  0  0  0
  -26.2570  -13.0980   20.1830 N   0  0  0  0  0  0  0  0  0  0  0  0
  -25.9200  -11.8090   20.4520 N   0  0  0  0  0  0  0  0  0  0  0  0
  -23.9150  -10.5720   20.9840 C   0  0  0  0  0  0  0  0  0  0  0  0
  -24.3560   -9.6040   21.9120 C   0  0  0  0  0  3  0  0  0  0  0  0
  -23.6340   -8.4050   22.0970 C   0  0  0  0  0  3  0  0  0  0  0  0
  -22.4550   -8.1650   21.3510 C   0  0  0  0  0  0  0  0  0  0  0  0
  -22.0330   -9.1220   20.4100 C   0  0  0  0  0  3  0  0  0  0  0  0
  -22.7560  -10.3120   20.2270 C   0  0  0  0  0  3  0  0  0  0  0  0
  -21.7040   -7.0180   21.4430 O   0  0  0  0  0  0  0  0  0  0  0  0
  -21.6560   -6.2810   22.5990 C   0  0  0  0  0  0  0  0  0  0  0  0
  -21.2100   -6.8360   23.8190 C   0  0  0  0  0  3  0  0  0  0  0  0
  -21.1100   -6.0260   24.9670 C   0  0  0  0  0  3  0  0  0  0  0  0
  -21.4450   -4.6600   24.8950 C   0  0  0  0  0  0  0  0  0  0  0  0
  -21.8830   -4.1040   23.6810 C   0  0  0  0  0  3  0  0  0  0  0  0
  -21.9850   -4.9130   22.5350 C   0  0  0  0  0  0  0  0  0  0  0  0
  -22.3870   -4.3670   21.3620 F   0  0  0  0  0  0  0  0  0  0  0  0
  -21.3420   -3.8780   25.9960 F   0  0  0  0  0  0  0  0  0  0  0  0
  -22.7690  -13.6570   21.1330 C   0  0  0  0  0  0  0  0  0  0  0  0
  -22.0580  -12.9530   22.0070 N   0  0  0  0  0  0  0  0  0  0  0  0
  -22.3230  -14.6850   20.6290 O   0  0  0  0  0  0  0  0  0  0  0  0
  -22.4340  -12.1210   22.4360 H   0  0  0  0  0  0  0  0  0  0  0  0
  -21.1240  -13.2520   22.2500 H   0  0  0  0  0  0  0  0  0  0  0  0
  -25.3690  -15.3420   20.2880 N   0  0  0  0  0  0  0  0  0  0  0  0
  -24.5970  -15.9850   20.4230 H   0  0  0  0  0  0  0  0  0  0  0  0
  -26.2120  -15.7980   19.9590 H   0  0  0  0  0  0  0  0  0  0  0  0
  -28.4120  -22.8880   20.0270 C   0  0  0  0  0  2  0  0  0  0  0  0
  -28.4190  -24.5210   20.7390 C   0  0  0  0  0  2  0  0  0  0  0  0
  -28.3690  -26.0760   20.2470 O   0  0  0  0  0  0  0  0  0  0  0  0
  -24.6720  -31.9330   23.2410 C   0  0  0  0  0  0  0  0  0  0  0  0
  -27.2940  -27.0870   20.2970 C   0  0  0  0  0  0  0  0  0  0  0  0
  -23.4990  -30.5120   21.6060 C   0  0  0  0  0  3  0  0  0  0  0  0
  -24.9680  -28.9050   20.2170 C   0  0  0  0  0  0  0  0  0  0  0  0
  -26.0610  -30.7550   21.4700 C   0  0  0  0  0  2  0  0  0  0  0  0
  -26.1480  -29.3420   20.8340 C   0  0  0  0  0  0  0  0  0  0  0  0
  -27.3100  -28.4580   20.8410 C   0  0  0  0  0  3  0  0  0  0  0  0
  -26.0810  -26.7800   19.6420 C   0  0  0  0  0  3  0  0  0  0  0  0
  -24.9560  -27.6420   19.6000 C   0  0  0  0  0  3  0  0  0  0  0  0
  -23.7440  -29.8170   20.2370 C   0  0  0  0  0  2  0  0  0  0  0  0
  -24.7640  -31.0930   22.1610 N   0  0  0  0  0  0  0  0  0  0  0  0
  -23.5760  -32.2160   23.7530 O   0  0  0  0  0  0  0  0  0  0  0  0
  -22.8080  -29.5170   22.5740 C   0  0  0  0  0  0  0  0  0  0  0  0
  -21.4810  -29.3440   22.4430 N   0  0  0  0  0  0  0  0  0  0  0  0
  -23.4740  -28.9010   23.4110 O   0  0  0  0  0  0  0  0  0  0  0  0
  -20.9990  -29.8950   21.7470 H   0  0  0  0  0  0  0  0  0  0  0  0
  -18.1010  -28.1280   22.9480 C   0  0  0  0  0  0  0  0  0  0  0  0
  -20.6590  -28.4050   23.2140 C   0  0  0  0  0  3  0  0  0  0  0  0
  -20.7650  -26.9710   22.6450 C   0  0  0  0  0  2  0  0  0  0  0  0
  -19.6650  -26.6400   21.6310 C   0  0  0  0  0  2  0  0  0  0  0  0
  -18.2820  -26.7780   22.2740 C   0  0  0  0  0  2  0  0  0  0  0  0
  -19.2150  -28.8980   23.3750 C   0  0  0  0  0  0  0  0  0  0  0  0
  -18.9900  -30.1580   23.9700 C   0  0  0  0  0  3  0  0  0  0  0  0
  -17.6830  -30.6510   24.1400 C   0  0  0  0  0  3  0  0  0  0  0  0
  -16.5820  -29.8800   23.7280 C   0  0  0  0  0  3  0  0  0  0  0  0
  -16.7920  -28.6200   23.1390 C   0  0  0  0  0  3  0  0  0  0  0  0
  -25.9340  -32.5870   23.8760 C   0  0  0  0  0  3  0  0  0  0  0  0
  -26.4310  -31.8450   25.1790 C   0  0  1  0  0  0  0  0  0  0  0  0
  -25.3180  -31.6170   26.2300 C   0  0  0  0  0  1  0  0  0  0  0  0
  -27.0350  -30.4660   24.8300 C   0  0  0  0  0  1  0  0  0  0  0  0
  -27.5600  -32.6630   25.8500 C   0  0  0  0  0  1  0  0  0  0  0  0
  -25.6070  -33.9890   24.1910 N   0  0  0  0  0  0  0  0  0  0  0  0
  -25.9360  -35.0440   23.4330 C   0  0  0  0  0  0  0  0  0  0  0  0
  -26.6110  -34.9390   22.4060 O   0  0  0  0  0  0  0  0  0  0  0  0
  -25.0040  -34.1440   24.9850 H   0  0  0  0  0  0  0  0  0  0  0  0
  -24.1980  -36.8300   23.0660 C   0  0  0  0  0  1  0  0  0  0  0  0
  -25.4390  -36.4330   23.8830 C   0  0  0  0  0  3  0  0  0  0  0  0
  -27.5630  -37.3380   24.7170 C   0  0  0  0  0  1  0  0  0  0  0  0
  -26.4650  -37.4920   23.7670 N   0  0  0  0  0  0  0  0  0  0  0  0
  -26.0540  -38.4110   23.9070 H   0  0  0  0  0  0  0  0  0  0  0  0
  2  8  1  0
  2  4  1  0
  2  3  1  0
  3 12  1  0
  3  1  1  0
  4 49  1  0
  4  5  1  0
  5  1  1  0
  5  6  1  0
  5  7  1  0
  9  8  1  0
 10 11  1  0
 10  8  2  0
 13 12  1  0
 14 19  1  0
 15 16  1  0
 15 14  1  0
 17 16  1  0
 17 24  1  0
 17 18  1  0
 19 13  1  0
 19 18  1  0
 20 13  2  0
 21 22  2  0
 22 41  1  0
 23 22  1  0
 23 26  1  0
 24 25  1  0
 24 21  1  0
 25 23  2  0
 26 27  1  0
 27 28  2  0
 29 32  1  0
 29 28  1  0
 30 29  2  0
 31 30  1  0
 31 26  2  0
 32 33  1  0
 33 34  1  0
 34 35  2  0
 36 35  1  0
 36 40  1  0
 37 36  2  0
 38 33  2  0
 38 37  1  0
 39 38  1  0
 41 42  1  0
 42 45  1  0
 42 44  1  0
 43 41  2  0
 46 47  1  0
 46 21  1  0
 48 46  1  0
 49 50  1  0
 51 53  1  0
 51 50  1  0
 52 63  2  0
 53 58  1  0
 54 62  1  0
 54 64  1  0
 55 61  1  0
 55 57  1  0
 56 62  1  0
 57 58  2  0
 57 56  1  0
 59 53  2  0
 60 59  1  0
 60 55  2  0
 61 54  1  0
 62 52  1  0
 64 66  2  0
 65 64  1  0
 67 65  1  0
 68 77  2  0
 68 73  1  0
 69 65  1  0
 69 73  1  0
 70 69  1  0
 71 72  1  0
 71 70  1  0
 72 68  1  0
 73 74  2  0
 74 75  1  0
 76 75  2  0
 77 76  1  0
 78 52  1  0
 78 83  1  0
 78 79  1  0
 79 82  1  1
 79 80  1  0
 81 79  1  0
 83 86  1  0
 84 88  1  0
 84 83  1  0
 85 84  2  0
 88 87  1  0
 90 88  1  0
 90 91  1  0
 90 89  1  0
M  ISO  4  12 100  13 100  50 101  51 101
M  END
>  <TORSDO>  (95) 
F 20

>  <SCORE>  (95) 
-15.594

>  <name>  (95) 
96

>  <ligand_id>  (95) 
96

>  <original_smiles>  (95) 
[H]N=C(C([H])([H])[H])C1([H])C([H])(C([H])([H])C(=O)N2C([H])([H])C([H])([H])C([H])([H])C([H])(n3nc(-c4c([H])c([H])c(Oc5c([H])c([H])c(F)c([H])c5F)c([H])c4[H])c(C(=O)N([H])[H])c3N([H])[H])C2([H])[H])C([H])([H])[N+]([H])([H])C1([H])C([H])([H])C([H])([H])Oc1c([H])c([H])c2c(c1[H])C([H])([H])N(C(=O)C([H])(N([H])C(=O)C([H])(N([H])C([H])([H])[H])C([H])([H])[H])C(C([H])([H])[H])(C([H])([H])[H])C([H])([H])[H])C([H])(C(=O)N([H])C1([H])c3c([H])c([H])c([H])c([H])c3C([H])([H])C([H])([H])C1([H])[H])C2([H])[H]

>  <smiles>  (95) 
[H]N=C(C([H])([H])[H])C1([H])C([H])(C([H])([H])C(=O)N2C([H])([H])C([H])([H])C([H])([H])C([H])(n3nc(-c4c([H])c([H])c(Oc5c([H])c([H])c(F)c([H])c5F)c([H])c4[H])c(C(=O)N([H])[H])c3N([H])[H])C2([H])[H])C([H])([H])[N+]([H])([H])C1([H])C([H])([H])C([H])([H])Oc1c([H])c([H])c2c(c1[H])C([H])([H])N(C(=O)C([H])(N([H])C(=O)C([H])(N([H])C([H])([H])[H])C([H])([H])[H])C(C([H])([H])[H])(C([H])([H])[H])C([H])([H])[H])C([H])(C(=O)N([H])C1([H])c3c([H])c([H])c([H])c([H])c3C([H])([H])C([H])([H])C1([H])[H])C2([H])[H]

$$$$
97:0:0
     RDKit          3D

 89 97  0  0  1  0  0  0  0  0999 V2000
  -30.0580  -19.8500   21.4600 C   0  0  0  0  0  2  0  0  0  0  0  0
  -29.0930  -19.7010   19.2330 C   0  0  0  0  0  2  0  0  0  0  0  0
  -29.3490  -21.2650   21.6580 C   0  0  0  0  0  2  0  0  0  0  0  0
  -28.3920  -21.1350   19.4400 C   0  0  0  0  0  2  0  0  0  0  0  0
  -29.3880  -18.7900   20.4990 C   0  0  0  0  0  3  0  0  0  0  0  0
  -29.1170  -22.1680   20.3870 C   0  0  0  0  0  3  0  0  0  0  0  0
  -30.6720  -14.9330   20.2950 C   0  0  0  0  0  0  0  0  0  0  0  0
  -30.4840  -12.6110   19.3590 C   0  0  0  0  0  2  0  0  0  0  0  0
  -29.5530  -12.6220   18.1270 C   0  0  0  0  0  2  0  0  0  0  0  0
  -28.0880  -12.4340   18.5610 C   0  0  0  0  0  2  0  0  0  0  0  0
  -27.6970  -13.3490   19.7520 C   0  0  0  0  0  3  0  0  0  0  0  0
  -28.7550  -13.3350   20.8760 C   0  0  0  0  0  2  0  0  0  0  0  0
  -30.0390  -13.7010   20.2680 N   0  0  0  0  0  0  0  0  0  0  0  0
  -31.8700  -14.9500   19.9930 O   0  0  0  0  0  0  0  0  0  0  0  0
  -30.3050  -17.4580   20.2440 C   0  0  0  0  0  0  0  0  0  0  0  0
  -29.9250  -16.1180   20.4600 N   0  0  0  0  0  0  0  0  0  0  0  0
  -31.4350  -17.7150   19.8190 O   0  0  0  0  0  0  0  0  0  0  0  0
  -28.9680  -15.9870   20.7400 H   0  0  0  0  0  0  0  0  0  0  0  0
  -25.3180  -13.9250   20.5070 C   0  0  0  0  0  0  0  0  0  0  0  0
  -24.2560  -13.1460   20.8770 C   0  0  0  0  0  0  0  0  0  0  0  0
  -24.7200  -11.7950   20.8280 C   0  0  0  0  0  0  0  0  0  0  0  0
  -26.3590  -13.0500   20.2530 N   0  0  0  0  0  0  0  0  0  0  0  0
  -26.0090  -11.7620   20.5110 N   0  0  0  0  0  0  0  0  0  0  0  0
  -23.9950  -10.5300   21.0090 C   0  0  0  0  0  0  0  0  0  0  0  0
  -24.4190   -9.5610   21.9450 C   0  0  0  0  0  3  0  0  0  0  0  0
  -23.6930   -8.3630   22.1130 C   0  0  0  0  0  3  0  0  0  0  0  0
  -22.5290   -8.1230   21.3440 C   0  0  0  0  0  0  0  0  0  0  0  0
  -22.1260   -9.0800   20.3980 C   0  0  0  0  0  3  0  0  0  0  0  0
  -22.8510  -10.2710   20.2270 C   0  0  0  0  0  3  0  0  0  0  0  0
  -21.7760   -6.9770   21.4230 O   0  0  0  0  0  0  0  0  0  0  0  0
  -21.7010   -6.2420   22.5780 C   0  0  0  0  0  0  0  0  0  0  0  0
  -21.2140   -6.7950   23.7830 C   0  0  0  0  0  3  0  0  0  0  0  0
  -21.0880   -5.9850   24.9300 C   0  0  0  0  0  3  0  0  0  0  0  0
  -21.4390   -4.6230   24.8720 C   0  0  0  0  0  0  0  0  0  0  0  0
  -21.9180   -4.0700   23.6720 C   0  0  0  0  0  3  0  0  0  0  0  0
  -22.0460   -4.8760   22.5270 C   0  0  0  0  0  0  0  0  0  0  0  0
  -22.4870   -4.3330   21.3680 F   0  0  0  0  0  0  0  0  0  0  0  0
  -21.3110   -3.8430   25.9700 F   0  0  0  0  0  0  0  0  0  0  0  0
  -22.8590  -13.6190   21.1570 C   0  0  0  0  0  0  0  0  0  0  0  0
  -22.1300  -12.9070   22.0090 N   0  0  0  0  0  0  0  0  0  0  0  0
  -22.4250  -14.6560   20.6600 O   0  0  0  0  0  0  0  0  0  0  0  0
  -22.4950  -12.0680   22.4370 H   0  0  0  0  0  0  0  0  0  0  0  0
  -21.1930  -13.2040   22.2390 H   0  0  0  0  0  0  0  0  0  0  0  0
  -25.4800  -15.2970   20.3420 N   0  0  0  0  0  0  0  0  0  0  0  0
  -24.7080  -15.9450   20.4540 H   0  0  0  0  0  0  0  0  0  0  0  0
  -26.3100  -15.7360   19.9650 H   0  0  0  0  0  0  0  0  0  0  0  0
  -28.4480  -23.6540   20.7260 C   0  0  0  0  0  2  0  0  0  0  0  0
  -28.4800  -24.9930   19.7750 C   0  0  0  0  0  2  0  0  0  0  0  0
  -28.3900  -26.4300   20.2870 O   0  0  0  0  0  0  0  0  0  0  0  0
  -24.6130  -31.9150   23.2310 C   0  0  0  0  0  0  0  0  0  0  0  0
  -27.2680  -27.3010   20.1950 C   0  0  0  0  0  0  0  0  0  0  0  0
  -23.4310  -30.5040   21.5860 C   0  0  0  0  0  3  0  0  0  0  0  0
  -24.9020  -28.9560   20.1640 C   0  0  0  0  0  0  0  0  0  0  0  0
  -25.9750  -30.8230   21.4210 C   0  0  0  0  0  2  0  0  0  0  0  0
  -26.0660  -29.4390   20.7710 C   0  0  0  0  0  0  0  0  0  0  0  0
  -27.2470  -28.6220   20.7740 C   0  0  0  0  0  3  0  0  0  0  0  0
  -26.0750  -26.8930   19.5610 C   0  0  0  0  0  3  0  0  0  0  0  0
  -24.9130  -27.6930   19.5470 C   0  0  0  0  0  3  0  0  0  0  0  0
  -23.6600  -29.8290   20.2080 C   0  0  0  0  0  2  0  0  0  0  0  0
  -24.6920  -31.1010   22.1360 N   0  0  0  0  0  0  0  0  0  0  0  0
  -23.5230  -32.1840   23.7590 O   0  0  0  0  0  0  0  0  0  0  0  0
  -22.7700  -29.4860   22.5460 C   0  0  0  0  0  0  0  0  0  0  0  0
  -21.4450  -29.2980   22.4150 N   0  0  0  0  0  0  0  0  0  0  0  0
  -23.4490  -28.8680   23.3710 O   0  0  0  0  0  0  0  0  0  0  0  0
  -20.9540  -29.8480   21.7260 H   0  0  0  0  0  0  0  0  0  0  0  0
  -18.0720  -28.0890   22.9310 C   0  0  0  0  0  0  0  0  0  0  0  0
  -20.6320  -28.3520   23.1840 C   0  0  0  0  0  3  0  0  0  0  0  0
  -20.7330  -26.9260   22.5960 C   0  0  0  0  0  2  0  0  0  0  0  0
  -19.6250  -26.6100   21.5860 C   0  0  0  0  0  2  0  0  0  0  0  0
  -18.2460  -26.7460   22.2410 C   0  0  0  0  0  2  0  0  0  0  0  0
  -19.1920  -28.8490   23.3600 C   0  0  0  0  0  0  0  0  0  0  0  0
  -18.9740  -30.1050   23.9660 C   0  0  0  0  0  3  0  0  0  0  0  0
  -17.6700  -30.6010   24.1480 C   0  0  0  0  0  3  0  0  0  0  0  0
  -16.5640  -29.8380   23.7360 C   0  0  0  0  0  3  0  0  0  0  0  0
  -16.7660  -28.5840   23.1320 C   0  0  0  0  0  3  0  0  0  0  0  0
  -25.8840  -32.5630   23.8600 C   0  0  0  0  0  3  0  0  0  0  0  0
  -25.5630  -33.9640   24.1730 N   0  0  0  0  0  0  0  0  0  0  0  0
  -25.9000  -35.0130   23.4110 C   0  0  0  0  0  0  0  0  0  0  0  0
  -26.5810  -34.9050   22.3890 O   0  0  0  0  0  0  0  0  0  0  0  0
  -24.9590  -34.1220   24.9670 H   0  0  0  0  0  0  0  0  0  0  0  0
  -24.1780  -36.8060   23.0160 C   0  0  0  0  0  1  0  0  0  0  0  0
  -25.4020  -36.4040   23.8540 C   0  0  0  0  0  3  0  0  0  0  0  0
  -27.5160  -37.2980   24.7270 C   0  0  0  0  0  1  0  0  0  0  0  0
  -26.4360  -37.4580   23.7580 N   0  0  0  0  0  0  0  0  0  0  0  0
  -26.0240  -38.3790   23.8920 H   0  0  0  0  0  0  0  0  0  0  0  0
  -26.3890  -31.8120   25.1530 C   0  0  1  0  0  0  0  0  0  0  0  0
  -25.2830  -31.5770   26.2090 C   0  0  0  0  0  1  0  0  0  0  0  0
  -26.9900  -30.4350   24.7890 C   0  0  0  0  0  1  0  0  0  0  0  0
  -27.5220  -32.6250   25.8230 C   0  0  0  0  0  1  0  0  0  0  0  0
  1  3  1  0
  2  4  1  0
  2  5  1  0
  4  6  1  0
  5 15  1  0
  5  1  1  0
  6 47  1  0
  6  3  1  0
  7 16  1  0
  8 13  1  0
  9 10  1  0
  9  8  1  0
 11 10  1  0
 11 22  1  0
 11 12  1  0
 13  7  1  0
 13 12  1  0
 14  7  2  0
 15 16  1  0
 16 18  1  0
 17 15  2  0
 19 20  2  0
 20 39  1  0
 21 20  1  0
 21 24  1  0
 22 19  1  0
 22 23  1  0
 23 21  2  0
 24 25  1  0
 25 26  2  0
 27 30  1  0
 27 26  1  0
 28 27  2  0
 29 28  1  0
 29 24  2  0
 30 31  1  0
 31 32  1  0
 32 33  2  0
 34 33  1  0
 34 38  1  0
 35 34  2  0
 36 31  2  0
 36 35  1  0
 37 36  1  0
 39 40  1  0
 40 43  1  0
 40 42  1  0
 41 39  2  0
 44 45  1  0
 44 19  1  0
 46 44  1  0
 48 49  1  0
 48 47  1  0
 50 61  2  0
 51 49  1  0
 51 56  1  0
 52 60  1  0
 52 62  1  0
 53 59  1  0
 53 55  1  0
 54 60  1  0
 55 56  2  0
 55 54  1  0
 57 51  2  0
 58 57  1  0
 58 53  2  0
 59 52  1  0
 60 50  1  0
 62 64  2  0
 63 62  1  0
 65 63  1  0
 66 75  2  0
 66 71  1  0
 67 63  1  0
 67 71  1  0
 68 67  1  0
 69 70  1  0
 69 68  1  0
 70 66  1  0
 71 72  2  0
 72 73  1  0
 74 73  2  0
 75 74  1  0
 76 50  1  0
 76 77  1  0
 76 86  1  0
 77 80  1  0
 78 82  1  0
 78 77  1  0
 79 78  2  0
 82 81  1  0
 84 82  1  0
 84 85  1  0
 84 83  1  0
 86 89  1  1
 86 87  1  0
 88 86  1  0
M  ISO  4   7 100  16 100  48 101  49 101
M  END
>  <TORSDO>  (96) 
F 18

>  <SCORE>  (96) 
-14.563

>  <name>  (96) 
97

>  <ligand_id>  (96) 
97

>  <original_smiles>  (96) 
[H]c1c([H])c([H])c2c(c1[H])C([H])([H])C([H])([H])C([H])([H])C2([H])N([H])C(=O)C1([H])N(C(=O)C([H])(N([H])C(=O)C([H])(N([H])C([H])([H])[H])C([H])([H])[H])C(C([H])([H])[H])(C([H])([H])[H])C([H])([H])[H])C([H])([H])c2c([H])c(OC([H])([H])C([H])([H])C3([H])C([H])([H])C([H])([H])C([H])(C(=O)N([H])C(=O)N4C([H])([H])C([H])([H])C([H])([H])C([H])(n5nc(-c6c([H])c([H])c(Oc7c([H])c([H])c(F)c([H])c7F)c([H])c6[H])c(C(=O)N([H])[H])c5N([H])[H])C4([H])[H])C([H])([H])C3([H])[H])c([H])c([H])c2C1([H])[H]

>  <smiles>  (96) 
[H]c1c([H])c([H])c2c(c1[H])C([H])([H])C([H])([H])C([H])([H])C2([H])N([H])C(=O)C1([H])N(C(=O)C([H])(N([H])C(=O)C([H])(N([H])C([H])([H])[H])C([H])([H])[H])C(C([H])([H])[H])(C([H])([H])[H])C([H])([H])[H])C([H])([H])c2c([H])c(OC([H])([H])C([H])([H])C3([H])C([H])([H])C([H])([H])C([H])(C(=O)N([H])C(=O)N4C([H])([H])C([H])([H])C([H])([H])C([H])(n5nc(-c6c([H])c([H])c(Oc7c([H])c([H])c(F)c([H])c7F)c([H])c6[H])c(C(=O)N([H])[H])c5N([H])[H])C4([H])[H])C([H])([H])C3([H])[H])c([H])c([H])c2C1([H])[H]

$$$$
98:0:0
     RDKit          3D

 94102  0  0  1  0  0  0  0  0999 V2000
  -30.3950  -19.7150   18.7920 C   0  0  0  0  0  2  0  0  0  0  0  0
  -30.2420  -21.1580   19.3790 C   0  0  0  0  0  2  0  0  0  0  0  0
  -28.6720  -20.2800   21.0760 C   0  0  0  0  0  2  0  0  0  0  0  0
  -29.8370  -18.4990   19.6080 C   0  0  0  0  0  3  0  0  0  0  0  0
  -29.6130  -19.0070   21.0580 C   0  0  0  0  0  3  0  0  0  0  0  0
  -28.9620  -21.3890   20.0920 N   0  0  1  0  0  4  0  0  0  0  0  0
  -28.2430  -21.3090   19.3880 H   0  0  0  0  0  0  0  0  0  0  0  0
  -31.3890  -18.0030   22.6810 C   0  0  0  0  0  1  0  0  0  0  0  0
  -30.9240  -19.2220   21.8680 C   0  0  0  0  0  2  0  0  0  0  0  0
  -28.8060  -22.7750   20.6980 C   0  0  0  0  0  2  0  0  0  0  0  0
  -28.6060  -24.0400   19.7620 C   0  0  0  0  0  2  0  0  0  0  0  0
  -28.3500  -25.3770   20.5740 C   0  0  0  0  0  2  0  0  0  0  0  0
  -28.3780  -26.6790   19.9070 O   0  0  0  0  0  0  0  0  0  0  0  0
  -24.5630  -31.8520   23.1680 C   0  0  0  0  0  0  0  0  0  0  0  0
  -27.2260  -27.4550   19.9710 C   0  0  0  0  0  0  0  0  0  0  0  0
  -23.3650  -30.4780   21.5000 C   0  0  0  0  0  3  0  0  0  0  0  0
  -24.8270  -28.9810   20.0340 C   0  0  0  0  0  0  0  0  0  0  0  0
  -25.8930  -30.8530   21.3000 C   0  0  0  0  0  2  0  0  0  0  0  0
  -25.9900  -29.4940   20.6230 C   0  0  0  0  0  0  0  0  0  0  0  0
  -27.1970  -28.7450   20.5730 C   0  0  0  0  0  3  0  0  0  0  0  0
  -26.0390  -26.9680   19.3880 C   0  0  0  0  0  3  0  0  0  0  0  0
  -24.8500  -27.7230   19.4090 C   0  0  0  0  0  3  0  0  0  0  0  0
  -23.5750  -29.8300   20.1050 C   0  0  0  0  0  2  0  0  0  0  0  0
  -24.6250  -31.0770   22.0470 N   0  0  0  0  0  0  0  0  0  0  0  0
  -23.4800  -32.0980   23.7180 O   0  0  0  0  0  0  0  0  0  0  0  0
  -22.7260  -29.4300   22.4390 C   0  0  0  0  0  0  0  0  0  0  0  0
  -21.4060  -29.2190   22.2950 N   0  0  0  0  0  0  0  0  0  0  0  0
  -23.4150  -28.8080   23.2520 O   0  0  0  0  0  0  0  0  0  0  0  0
  -20.9100  -29.7720   21.6110 H   0  0  0  0  0  0  0  0  0  0  0  0
  -18.0630  -27.9100   22.7170 C   0  0  0  0  0  0  0  0  0  0  0  0
  -20.6050  -28.2500   23.0410 C   0  0  0  0  0  3  0  0  0  0  0  0
  -20.7640  -26.8270   22.4560 C   0  0  0  0  0  2  0  0  0  0  0  0
  -19.6940  -26.4780   21.4170 C   0  0  0  0  0  2  0  0  0  0  0  0
  -18.2970  -26.5730   22.0340 C   0  0  0  0  0  2  0  0  0  0  0  0
  -19.1460  -28.7040   23.1750 C   0  0  0  0  0  0  0  0  0  0  0  0
  -18.8750  -29.9550   23.7720 C   0  0  0  0  0  3  0  0  0  0  0  0
  -17.5520  -30.4130   23.9130 C   0  0  0  0  0  3  0  0  0  0  0  0
  -16.4810  -29.6160   23.4720 C   0  0  0  0  0  3  0  0  0  0  0  0
  -16.7390  -28.3650   22.8800 C   0  0  0  0  0  3  0  0  0  0  0  0
  -25.8440  -32.4840   23.7990 C   0  0  0  0  0  3  0  0  0  0  0  0
  -25.5280  -33.8790   24.1370 N   0  0  0  0  0  0  0  0  0  0  0  0
  -25.8720  -34.9390   23.3930 C   0  0  0  0  0  0  0  0  0  0  0  0
  -26.5570  -34.8440   22.3700 O   0  0  0  0  0  0  0  0  0  0  0  0
  -24.9230  -34.0260   24.9310 H   0  0  0  0  0  0  0  0  0  0  0  0
  -24.1630  -36.7430   23.0130 C   0  0  0  0  0  1  0  0  0  0  0  0
  -25.3770  -36.3220   23.8560 C   0  0  0  0  0  3  0  0  0  0  0  0
  -27.4830  -37.1890   24.7740 C   0  0  0  0  0  1  0  0  0  0  0  0
  -26.4160  -37.3710   23.7910 N   0  0  0  0  0  0  0  0  0  0  0  0
  -26.0100  -38.2920   23.9330 H   0  0  0  0  0  0  0  0  0  0  0  0
  -26.3570  -31.7080   25.0730 C   0  0  1  0  0  0  0  0  0  0  0  0
  -25.2590  -31.4600   26.1330 C   0  0  0  0  0  1  0  0  0  0  0  0
  -26.9450  -30.3350   24.6750 C   0  0  0  0  0  1  0  0  0  0  0  0
  -27.5020  -32.5020   25.7470 C   0  0  0  0  0  1  0  0  0  0  0  0
  -30.6520  -17.1360   19.3670 C   0  0  0  0  0  3  0  0  0  0  0  0
  -30.9020  -14.7360   20.1480 C   0  0  0  0  0  0  0  0  0  0  0  0
  -30.5710  -12.5230   19.1280 C   0  0  0  0  0  2  0  0  0  0  0  0
  -29.6180  -12.6990   17.9280 C   0  0  0  0  0  2  0  0  0  0  0  0
  -28.1530  -12.5650   18.3820 C   0  0  0  0  0  2  0  0  0  0  0  0
  -27.8260  -13.4200   19.6350 C   0  0  0  0  0  3  0  0  0  0  0  0
  -28.9080  -13.2790   20.7300 C   0  0  0  0  0  2  0  0  0  0  0  0
  -30.2090  -13.5600   20.1130 N   0  0  0  0  0  0  0  0  0  0  0  0
  -32.1080  -14.7730   19.9010 O   0  0  0  0  0  0  0  0  0  0  0  0
  -30.1720  -15.8900   20.0700 N   0  0  0  0  0  0  0  0  0  0  0  0
  -29.1840  -15.8110   20.2470 H   0  0  0  0  0  0  0  0  0  0  0  0
  -25.4460  -14.0160   20.3950 C   0  0  0  0  0  0  0  0  0  0  0  0
  -24.3850  -13.2420   20.7800 C   0  0  0  0  0  0  0  0  0  0  0  0
  -24.8490  -11.8900   20.7470 C   0  0  0  0  0  0  0  0  0  0  0  0
  -26.4880  -13.1370   20.1460 N   0  0  0  0  0  0  0  0  0  0  0  0
  -26.1360  -11.8540   20.4220 N   0  0  0  0  0  0  0  0  0  0  0  0
  -24.1260  -10.6270   20.9470 C   0  0  0  0  0  0  0  0  0  0  0  0
  -24.5500   -9.6750   21.9000 C   0  0  0  0  0  3  0  0  0  0  0  0
  -23.8250   -8.4780   22.0870 C   0  0  0  0  0  3  0  0  0  0  0  0
  -22.6630   -8.2230   21.3210 C   0  0  0  0  0  0  0  0  0  0  0  0
  -22.2600   -9.1640   20.3570 C   0  0  0  0  0  3  0  0  0  0  0  0
  -22.9840  -10.3520   20.1680 C   0  0  0  0  0  3  0  0  0  0  0  0
  -21.9140   -7.0760   21.4150 O   0  0  0  0  0  0  0  0  0  0  0  0
  -21.8320   -6.3640   22.5850 C   0  0  0  0  0  0  0  0  0  0  0  0
  -21.3340   -6.9400   23.7740 C   0  0  0  0  0  3  0  0  0  0  0  0
  -21.2000   -6.1530   24.9350 C   0  0  0  0  0  3  0  0  0  0  0  0
  -21.5550   -4.7920   24.9090 C   0  0  0  0  0  0  0  0  0  0  0  0
  -22.0470   -4.2150   23.7240 C   0  0  0  0  0  3  0  0  0  0  0  0
  -22.1820   -4.9990   22.5650 C   0  0  0  0  0  0  0  0  0  0  0  0
  -22.6360   -4.4330   21.4200 F   0  0  0  0  0  0  0  0  0  0  0  0
  -21.4210   -4.0340   26.0230 F   0  0  0  0  0  0  0  0  0  0  0  0
  -22.9900  -13.7180   21.0660 C   0  0  0  0  0  0  0  0  0  0  0  0
  -22.2720  -13.0260   21.9440 N   0  0  0  0  0  0  0  0  0  0  0  0
  -22.5440  -14.7410   20.5470 O   0  0  0  0  0  0  0  0  0  0  0  0
  -22.6440  -12.1980   22.3870 H   0  0  0  0  0  0  0  0  0  0  0  0
  -21.3400  -13.3330   22.1820 H   0  0  0  0  0  0  0  0  0  0  0  0
  -25.6030  -15.3870   20.2140 N   0  0  0  0  0  0  0  0  0  0  0  0
  -24.8330  -16.0350   20.3300 H   0  0  0  0  0  0  0  0  0  0  0  0
  -26.4410  -15.8290   19.8600 H   0  0  0  0  0  0  0  0  0  0  0  0
  -31.9070  -17.4350   17.0530 C   0  0  0  0  0  1  0  0  0  0  0  0
  -30.7480  -16.7920   17.8400 C   0  0  0  0  0  2  0  0  0  0  0  0
  1  2  1  0
  1  4  1  0
  2  6  1  0
  4 54  1  0
  4  5  1  0
  5  3  1  0
  5  9  1  0
  6 10  1  0
  6  3  1  0
  6  7  1  6
  9  8  1  0
 11 12  1  0
 11 10  1  0
 13 15  1  0
 13 12  1  0
 14 25  2  0
 15 20  1  0
 16 24  1  0
 16 26  1  0
 17 23  1  0
 17 19  1  0
 18 24  1  0
 19 18  1  0
 20 19  2  0
 21 22  1  0
 21 15  2  0
 22 17  2  0
 23 16  1  0
 24 14  1  0
 26 28  2  0
 27 26  1  0
 29 27  1  0
 30 39  2  0
 30 35  1  0
 31 27  1  0
 31 35  1  0
 32 31  1  0
 33 34  1  0
 33 32  1  0
 34 30  1  0
 35 36  2  0
 36 37  1  0
 38 37  2  0
 39 38  1  0
 40 14  1  0
 40 41  1  0
 40 50  1  0
 41 44  1  0
 42 46  1  0
 42 41  1  0
 43 42  2  0
 46 45  1  0
 48 46  1  0
 48 49  1  0
 48 47  1  0
 50 53  1  1
 50 51  1  0
 52 50  1  0
 54 94  1  0
 54 63  1  0
 56 61  1  0
 57 58  1  0
 57 56  1  0
 59 58  1  0
 59 68  1  0
 59 60  1  0
 61 55  1  0
 61 60  1  0
 62 55  2  0
 63 55  1  0
 63 64  1  0
 65 66  2  0
 66 85  1  0
 67 66  1  0
 67 70  1  0
 68 65  1  0
 68 69  1  0
 69 67  2  0
 70 71  1  0
 71 72  2  0
 73 76  1  0
 73 72  1  0
 74 73  2  0
 75 74  1  0
 75 70  2  0
 76 77  1  0
 77 78  1  0
 78 79  2  0
 80 79  1  0
 80 84  1  0
 81 80  2  0
 82 77  2  0
 82 81  1  0
 83 82  1  0
 85 86  1  0
 86 89  1  0
 86 88  1  0
 87 85  2  0
 90 91  1  0
 90 65  1  0
 92 90  1  0
 93 94  1  0
M  ISO  4  12 101  13 101  55 100  63 100
M  END
>  <TORSDO>  (97) 
F 22

>  <SCORE>  (97) 
-12.286

>  <name>  (97) 
98

>  <ligand_id>  (97) 
98

>  <original_smiles>  (97) 
[H]c1c([H])c([H])c2c(c1[H])C([H])([H])C([H])([H])C([H])([H])C2([H])N([H])C(=O)C1([H])N(C(=O)C([H])(N([H])C(=O)C([H])(N([H])C([H])([H])[H])C([H])([H])[H])C(C([H])([H])[H])(C([H])([H])[H])C([H])([H])[H])C([H])([H])c2c([H])c(OC([H])([H])C([H])([H])C([H])([H])[N+]3([H])C([H])([H])C([H])([H])C([H])(C([H])(N([H])C(=O)N4C([H])([H])C([H])([H])C([H])([H])C([H])(n5nc(-c6c([H])c([H])c(Oc7c([H])c([H])c(F)c([H])c7F)c([H])c6[H])c(C(=O)N([H])[H])c5N([H])[H])C4([H])[H])C([H])([H])C([H])([H])[H])C([H])(C([H])([H])C([H])([H])[H])C3([H])[H])c([H])c([H])c2C1([H])[H]

>  <smiles>  (97) 
[H]c1c([H])c([H])c2c(c1[H])C([H])([H])C([H])([H])C([H])([H])C2([H])N([H])C(=O)C1([H])N(C(=O)C([H])(N([H])C(=O)C([H])(N([H])C([H])([H])[H])C([H])([H])[H])C(C([H])([H])[H])(C([H])([H])[H])C([H])([H])[H])C([H])([H])c2c([H])c(OC([H])([H])C([H])([H])C([H])([H])[N+]3([H])C([H])([H])C([H])([H])C([H])(C([H])(N([H])C(=O)N4C([H])([H])C([H])([H])C([H])([H])C([H])(n5nc(-c6c([H])c([H])c(Oc7c([H])c([H])c(F)c([H])c7F)c([H])c6[H])c(C(=O)N([H])[H])c5N([H])[H])C4([H])[H])C([H])([H])C([H])([H])[H])C([H])(C([H])([H])C([H])([H])[H])C3([H])[H])c([H])c([H])c2C1([H])[H]

$$$$
99:0:0
     RDKit          3D

 88 95  0  0  1  0  0  0  0  0999 V2000
  -29.5770  -20.4980   20.3570 C   0  0  0  0  0  3  0  0  0  0  0  0
  -29.0700  -18.8980   20.4150 C   0  0  0  0  0  3  0  0  0  0  0  0
  -30.5310  -14.9440   20.3320 C   0  0  0  0  0  0  0  0  0  0  0  0
  -30.3810  -12.6160   19.3690 C   0  0  0  0  0  2  0  0  0  0  0  0
  -29.4410  -12.5990   18.1410 C   0  0  0  0  0  2  0  0  0  0  0  0
  -27.9790  -12.3930   18.5800 C   0  0  0  0  0  2  0  0  0  0  0  0
  -27.5800  -13.3050   19.7690 C   0  0  0  0  0  3  0  0  0  0  0  0
  -28.6430  -13.2990   20.8900 C   0  0  0  0  0  2  0  0  0  0  0  0
  -29.9170  -13.6970   20.2800 N   0  0  0  0  0  0  0  0  0  0  0  0
  -31.7340  -15.0230   20.0380 O   0  0  0  0  0  0  0  0  0  0  0  0
  -30.0850  -17.6260   20.3370 C   0  0  0  0  0  0  0  0  0  0  0  0
  -29.7180  -16.2480   20.4750 N   0  0  0  0  0  0  0  0  0  0  0  0
  -31.3710  -17.9510   20.0970 N   0  0  0  0  0  4  0  0  0  0  0  0
  -28.7340  -16.1610   20.6700 H   0  0  0  0  0  0  0  0  0  0  0  0
  -32.0820  -17.2330   20.0030 H   0  0  0  0  0  0  0  0  0  0  0  0
  -31.6590  -18.9130   19.9810 H   0  0  0  0  0  0  0  0  0  0  0  0
  -25.2000  -13.8730   20.5230 C   0  0  0  0  0  0  0  0  0  0  0  0
  -24.1430  -13.0920   20.8970 C   0  0  0  0  0  0  0  0  0  0  0  0
  -24.6120  -11.7440   20.8560 C   0  0  0  0  0  0  0  0  0  0  0  0
  -26.2460  -13.0010   20.2720 N   0  0  0  0  0  0  0  0  0  0  0  0
  -25.9010  -11.7140   20.5390 N   0  0  0  0  0  0  0  0  0  0  0  0
  -23.8910  -10.4770   21.0400 C   0  0  0  0  0  0  0  0  0  0  0  0
  -24.3270   -9.5060   21.9670 C   0  0  0  0  0  3  0  0  0  0  0  0
  -23.6050   -8.3060   22.1410 C   0  0  0  0  0  3  0  0  0  0  0  0
  -22.4320   -8.0690   21.3850 C   0  0  0  0  0  0  0  0  0  0  0  0
  -22.0150   -9.0280   20.4460 C   0  0  0  0  0  3  0  0  0  0  0  0
  -22.7390  -10.2200   20.2710 C   0  0  0  0  0  3  0  0  0  0  0  0
  -21.6810   -6.9200   21.4680 O   0  0  0  0  0  0  0  0  0  0  0  0
  -21.6300   -6.1750   22.6190 C   0  0  0  0  0  0  0  0  0  0  0  0
  -21.1780   -6.7210   23.8400 C   0  0  0  0  0  3  0  0  0  0  0  0
  -21.0750   -5.9020   24.9820 C   0  0  0  0  0  3  0  0  0  0  0  0
  -21.4150   -4.5370   24.9040 C   0  0  0  0  0  0  0  0  0  0  0  0
  -21.8610   -3.9920   23.6870 C   0  0  0  0  0  3  0  0  0  0  0  0
  -21.9650   -4.8080   22.5470 C   0  0  0  0  0  0  0  0  0  0  0  0
  -22.3750   -4.2720   21.3720 F   0  0  0  0  0  0  0  0  0  0  0  0
  -21.3100   -3.7490   25.9980 F   0  0  0  0  0  0  0  0  0  0  0  0
  -22.7430  -13.5630   21.1740 C   0  0  0  0  0  0  0  0  0  0  0  0
  -22.0210  -12.8620   22.0420 N   0  0  0  0  0  0  0  0  0  0  0  0
  -22.3010  -14.5870   20.6570 O   0  0  0  0  0  0  0  0  0  0  0  0
  -22.3920  -12.0340   22.4820 H   0  0  0  0  0  0  0  0  0  0  0  0
  -21.0830  -13.1610   22.2710 H   0  0  0  0  0  0  0  0  0  0  0  0
  -25.3540  -15.2460   20.3450 N   0  0  0  0  0  0  0  0  0  0  0  0
  -24.5650  -15.8760   20.4360 H   0  0  0  0  0  0  0  0  0  0  0  0
  -26.1450  -15.6740   19.8840 H   0  0  0  0  0  0  0  0  0  0  0  0
  -28.5580  -21.8300   20.2850 C   0  0  0  0  0  2  0  0  0  0  0  0
  -29.0070  -23.4460   20.3470 C   0  0  0  0  0  3  0  0  0  0  0  0
  -27.9560  -24.7320   20.1370 C   0  0  0  0  0  3  0  0  0  0  0  0
  -28.2480  -26.2470   20.2730 O   0  0  0  0  0  0  0  0  0  0  0  0
  -24.6370  -31.9200   23.2570 C   0  0  0  0  0  0  0  0  0  0  0  0
  -27.1870  -27.2170   20.2140 C   0  0  0  0  0  0  0  0  0  0  0  0
  -23.4250  -30.5340   21.6180 C   0  0  0  0  0  3  0  0  0  0  0  0
  -24.8630  -28.9570   20.1900 C   0  0  0  0  0  0  0  0  0  0  0  0
  -25.9780  -30.7920   21.4470 C   0  0  0  0  0  2  0  0  0  0  0  0
  -26.0460  -29.4020   20.7940 C   0  0  0  0  0  0  0  0  0  0  0  0
  -27.2100  -28.5490   20.7890 C   0  0  0  0  0  3  0  0  0  0  0  0
  -25.9760  -26.8680   19.5750 C   0  0  0  0  0  3  0  0  0  0  0  0
  -24.8400  -27.7020   19.5650 C   0  0  0  0  0  3  0  0  0  0  0  0
  -23.6400  -29.8590   20.2380 C   0  0  0  0  0  2  0  0  0  0  0  0
  -24.7000  -31.1020   22.1630 N   0  0  0  0  0  0  0  0  0  0  0  0
  -23.5530  -32.2100   23.7860 O   0  0  0  0  0  0  0  0  0  0  0  0
  -22.7430  -29.5270   22.5790 C   0  0  0  0  0  0  0  0  0  0  0  0
  -21.4140  -29.3650   22.4530 N   0  0  0  0  0  0  0  0  0  0  0  0
  -23.4120  -28.8960   23.4000 O   0  0  0  0  0  0  0  0  0  0  0  0
  -20.9320  -29.9260   21.7650 H   0  0  0  0  0  0  0  0  0  0  0  0
  -18.0240  -28.1930   22.9570 C   0  0  0  0  0  0  0  0  0  0  0  0
  -20.5860  -28.4340   23.2230 C   0  0  0  0  0  3  0  0  0  0  0  0
  -20.6750  -27.0010   22.6480 C   0  0  0  0  0  2  0  0  0  0  0  0
  -19.5690  -26.6880   21.6340 C   0  0  0  0  0  2  0  0  0  0  0  0
  -18.1890  -26.8430   22.2790 C   0  0  0  0  0  2  0  0  0  0  0  0
  -19.1490  -28.9470   23.3850 C   0  0  0  0  0  0  0  0  0  0  0  0
  -18.9400  -30.2100   23.9820 C   0  0  0  0  0  3  0  0  0  0  0  0
  -17.6390  -30.7190   24.1510 C   0  0  0  0  0  3  0  0  0  0  0  0
  -16.5280  -29.9620   23.7380 C   0  0  0  0  0  3  0  0  0  0  0  0
  -16.7220  -28.7010   23.1470 C   0  0  0  0  0  3  0  0  0  0  0  0
  -25.9200  -32.5470   23.8830 C   0  0  0  0  0  3  0  0  0  0  0  0
  -26.4330  -31.7660   25.1560 C   0  0  1  0  0  0  0  0  0  0  0  0
  -25.3390  -31.5270   26.2240 C   0  0  0  0  0  1  0  0  0  0  0  0
  -27.0110  -30.3900   24.7590 C   0  0  0  0  0  1  0  0  0  0  0  0
  -27.5860  -32.5540   25.8240 C   0  0  0  0  0  1  0  0  0  0  0  0
  -25.6130  -33.9440   24.2270 N   0  0  0  0  0  0  0  0  0  0  0  0
  -25.9220  -35.0030   23.4670 C   0  0  0  0  0  0  0  0  0  0  0  0
  -26.5620  -34.9070   22.4170 O   0  0  0  0  0  0  0  0  0  0  0  0
  -25.0400  -34.0920   25.0450 H   0  0  0  0  0  0  0  0  0  0  0  0
  -24.1710  -36.7910   23.1880 C   0  0  0  0  0  1  0  0  0  0  0  0
  -25.4470  -36.3890   23.9480 C   0  0  0  0  0  3  0  0  0  0  0  0
  -27.6050  -37.2880   24.6980 C   0  0  0  0  0  1  0  0  0  0  0  0
  -26.4680  -37.4480   23.7960 N   0  0  0  0  0  0  0  0  0  0  0  0
  -26.0620  -38.3660   23.9590 H   0  0  0  0  0  0  0  0  0  0  0  0
  1  2  2  0
  3 12  1  0
  4  9  1  0
  5  6  1  0
  5  4  1  0
  7  6  1  0
  7 20  1  0
  7  8  1  0
  9  3  1  0
  9  8  1  0
 10  3  2  0
 11  2  1  0
 11 12  1  0
 12 14  1  0
 13 11  2  0
 15 13  1  0
 16 13  1  0
 17 18  2  0
 18 37  1  0
 19 18  1  0
 19 22  1  0
 20 17  1  0
 20 21  1  0
 21 19  2  0
 22 23  1  0
 23 24  2  0
 25 28  1  0
 25 24  1  0
 26 25  2  0
 27 26  1  0
 27 22  2  0
 28 29  1  0
 29 30  1  0
 30 31  2  0
 32 31  1  0
 32 36  1  0
 33 32  2  0
 34 29  2  0
 34 33  1  0
 35 34  1  0
 37 38  1  0
 38 41  1  0
 38 40  1  0
 39 37  2  0
 42 43  1  0
 42 17  1  0
 44 42  1  0
 45 46  1  0
 45  1  1  0
 47 48  1  0
 47 46  2  0
 49 60  2  0
 50 48  1  0
 50 55  1  0
 51 59  1  0
 51 61  1  0
 52 58  1  0
 52 54  1  0
 53 59  1  0
 54 53  1  0
 55 54  2  0
 56 50  2  0
 57 56  1  0
 57 52  2  0
 58 51  1  0
 59 49  1  0
 61 63  2  0
 62 61  1  0
 64 62  1  0
 65 74  2  0
 65 70  1  0
 66 62  1  0
 66 70  1  0
 67 66  1  0
 68 69  1  0
 68 67  1  0
 69 65  1  0
 70 71  2  0
 71 72  1  0
 73 72  2  0
 74 73  1  0
 75 49  1  0
 75 80  1  0
 75 76  1  0
 76 79  1  1
 76 77  1  0
 78 76  1  0
 80 83  1  0
 81 85  1  0
 81 80  1  0
 82 81  2  0
 85 84  1  0
 87 85  1  0
 87 88  1  0
 87 86  1  0
M  ISO  4   3 100  12 100  47 101  48 101
M  END
>  <TORSDO>  (98) 
F 20

>  <SCORE>  (98) 
-13.610

>  <name>  (98) 
99

>  <ligand_id>  (98) 
99

>  <original_smiles>  (98) 
[H]c1c([H])c([H])c2c(c1[H])C([H])([H])C([H])([H])C([H])([H])C2([H])N([H])C(=O)C1([H])N(C(=O)C([H])(N([H])C(=O)C([H])(N([H])C([H])([H])[H])C([H])([H])[H])C(C([H])([H])[H])(C([H])([H])[H])C([H])([H])[H])C([H])([H])c2c([H])c(OC([H])([H])C([H])([H])C([H])([H])C([H])([H])C([H])([H])C(N([H])C(=O)N3C([H])([H])C([H])([H])C([H])([H])C([H])(n4nc(-c5c([H])c([H])c(Oc6c([H])c([H])c(F)c([H])c6F)c([H])c5[H])c(C(=O)N([H])[H])c4N([H])[H])C3([H])[H])=[N+]([H])[H])c([H])c([H])c2C1([H])[H]

>  <smiles>  (98) 
[H]c1c([H])c([H])c2c(c1[H])C([H])([H])C([H])([H])C([H])([H])C2([H])N([H])C(=O)C1([H])N(C(=O)C([H])(N([H])C(=O)C([H])(N([H])C([H])([H])[H])C([H])([H])[H])C(C([H])([H])[H])(C([H])([H])[H])C([H])([H])[H])C([H])([H])c2c([H])c(OC([H])([H])C([H])([H])C([H])([H])C([H])([H])C([H])([H])C(N([H])C(=O)N3C([H])([H])C([H])([H])C([H])([H])C([H])(n4nc(-c5c([H])c([H])c(Oc6c([H])c([H])c(F)c([H])c6F)c([H])c5[H])c(C(=O)N([H])[H])c4N([H])[H])C3([H])[H])=[N+]([H])[H])c([H])c([H])c2C1([H])[H]

$$$$
