0:0:0
     RDKit          3D

 89 97  0  0  1  0  0  0  0  0999 V2000
  -29.3960  -22.8060   19.1660 C   0  0  0  0  0  3  0  0  0  0  0  0
  -28.1130  -22.5240   21.1340 C   0  0  0  0  0  3  0  0  0  0  0  0
  -29.1130  -24.2170   19.1630 C   0  0  0  0  0  3  0  0  0  0  0  0
  -27.8200  -23.9540   21.1240 C   0  0  0  0  0  3  0  0  0  0  0  0
  -28.9480  -21.8770   20.1610 C   0  0  0  0  0  0  0  0  0  0  0  0
  -28.3280  -24.8830   20.1460 C   0  0  0  0  0  0  0  0  0  0  0  0
  -28.3030  -26.3360   20.2000 O   0  0  0  0  0  0  0  0  0  0  0  0
  -24.6390  -31.8850   23.2320 C   0  0  0  0  0  0  0  0  0  0  0  0
  -27.1850  -27.2150   20.1870 C   0  0  0  0  0  0  0  0  0  0  0  0
  -23.4180  -30.4880   21.6020 C   0  0  0  0  0  3  0  0  0  0  0  0
  -24.8470  -28.9070   20.1650 C   0  0  0  0  0  0  0  0  0  0  0  0
  -25.9610  -30.7630   21.4080 C   0  0  0  0  0  2  0  0  0  0  0  0
  -26.0220  -29.3710   20.7670 C   0  0  0  0  0  0  0  0  0  0  0  0
  -27.1920  -28.5350   20.7660 C   0  0  0  0  0  3  0  0  0  0  0  0
  -25.9910  -26.8260   19.5490 C   0  0  0  0  0  3  0  0  0  0  0  0
  -24.8380  -27.6460   19.5430 C   0  0  0  0  0  3  0  0  0  0  0  0
  -23.6220  -29.8030   20.2220 C   0  0  0  0  0  2  0  0  0  0  0  0
  -24.6920  -31.0660   22.1370 N   0  0  0  0  0  0  0  0  0  0  0  0
  -23.5600  -32.1730   23.7700 O   0  0  0  0  0  0  0  0  0  0  0  0
  -22.7490  -29.4840   22.5710 C   0  0  0  0  0  0  0  0  0  0  0  0
  -21.4200  -29.3140   22.4510 N   0  0  0  0  0  0  0  0  0  0  0  0
  -23.4250  -28.8600   23.3940 O   0  0  0  0  0  0  0  0  0  0  0  0
  -20.9300  -29.8710   21.7650 H   0  0  0  0  0  0  0  0  0  0  0  0
  -18.0450  -28.1100   22.9650 C   0  0  0  0  0  0  0  0  0  0  0  0
  -20.6030  -28.3790   23.2280 C   0  0  0  0  0  3  0  0  0  0  0  0
  -20.7070  -26.9450   22.6600 C   0  0  0  0  0  2  0  0  0  0  0  0
  -19.6060  -26.6150   21.6480 C   0  0  0  0  0  2  0  0  0  0  0  0
  -18.2250  -26.7580   22.2930 C   0  0  0  0  0  2  0  0  0  0  0  0
  -19.1620  -28.8780   23.3870 C   0  0  0  0  0  0  0  0  0  0  0  0
  -18.9430  -30.1420   23.9770 C   0  0  0  0  0  3  0  0  0  0  0  0
  -17.6370  -30.6410   24.1460 C   0  0  0  0  0  3  0  0  0  0  0  0
  -16.5340  -29.8710   23.7390 C   0  0  0  0  0  3  0  0  0  0  0  0
  -16.7370  -28.6070   23.1550 C   0  0  0  0  0  3  0  0  0  0  0  0
  -25.9260  -32.5140   23.8460 C   0  0  0  0  0  3  0  0  0  0  0  0
  -26.4550  -31.7350   25.1140 C   0  0  1  0  0  0  0  0  0  0  0  0
  -25.3740  -31.4900   26.1940 C   0  0  0  0  0  1  0  0  0  0  0  0
  -27.0340  -30.3590   24.7110 C   0  0  0  0  0  1  0  0  0  0  0  0
  -27.6120  -32.5260   25.7730 C   0  0  0  0  0  1  0  0  0  0  0  0
  -25.6200  -33.9100   24.1950 N   0  0  0  0  0  0  0  0  0  0  0  0
  -25.9210  -34.9710   23.4360 C   0  0  0  0  0  0  0  0  0  0  0  0
  -26.5570  -34.8810   22.3830 O   0  0  0  0  0  0  0  0  0  0  0  0
  -25.0510  -34.0560   25.0170 H   0  0  0  0  0  0  0  0  0  0  0  0
  -24.1650  -36.7570   23.1680 C   0  0  0  0  0  1  0  0  0  0  0  0
  -25.4410  -36.3540   23.9210 C   0  0  0  0  0  3  0  0  0  0  0  0
  -27.6040  -37.2550   24.6610 C   0  0  0  0  0  1  0  0  0  0  0  0
  -26.4570  -37.4190   23.7730 N   0  0  0  0  0  0  0  0  0  0  0  0
  -26.0460  -38.3310   23.9540 H   0  0  0  0  0  0  0  0  0  0  0  0
  -29.6260  -20.3880   20.1800 C   0  0  0  0  0  3  0  0  0  0  0  0
  -29.0730  -18.8580   20.5240 C   0  0  0  0  0  3  0  0  0  0  0  0
  -30.5750  -17.6260   18.8580 C   0  0  0  0  0  1  0  0  0  0  0  0
  -31.2710  -17.7720   21.3110 C   0  0  0  0  0  1  0  0  0  0  0  0
  -30.1020  -17.5430   20.3290 C   0  0  1  0  0  0  0  0  0  0  0  0
  -29.6910  -16.0750   20.5540 O   0  0  0  0  0  0  0  0  0  0  0  0
  -30.5580  -14.8480   20.3170 C   0  0  0  0  0  0  0  0  0  0  0  0
  -30.3400  -12.5260   19.3510 C   0  0  0  0  0  2  0  0  0  0  0  0
  -29.4120  -12.6240   18.1220 C   0  0  0  0  0  2  0  0  0  0  0  0
  -27.9390  -12.4520   18.5460 C   0  0  0  0  0  2  0  0  0  0  0  0
  -27.5680  -13.3210   19.7800 C   0  0  0  0  0  3  0  0  0  0  0  0
  -28.6180  -13.2480   20.9010 C   0  0  0  0  0  2  0  0  0  0  0  0
  -29.9100  -13.5750   20.3060 N   0  0  0  0  0  0  0  0  0  0  0  0
  -31.7420  -14.9220   19.9830 O   0  0  0  0  0  0  0  0  0  0  0  0
  -25.1980  -13.8850   20.5510 C   0  0  0  0  0  0  0  0  0  0  0  0
  -24.1430  -13.1040   20.9280 C   0  0  0  0  0  0  0  0  0  0  0  0
  -24.6090  -11.7530   20.8790 C   0  0  0  0  0  0  0  0  0  0  0  0
  -26.2370  -13.0120   20.2830 N   0  0  0  0  0  0  0  0  0  0  0  0
  -25.8940  -11.7240   20.5480 N   0  0  0  0  0  0  0  0  0  0  0  0
  -23.8880  -10.4890   21.0680 C   0  0  0  0  0  0  0  0  0  0  0  0
  -24.3350   -9.5110   21.9850 C   0  0  0  0  0  3  0  0  0  0  0  0
  -23.6140   -8.3120   22.1630 C   0  0  0  0  0  3  0  0  0  0  0  0
  -22.4290   -8.0820   21.4250 C   0  0  0  0  0  0  0  0  0  0  0  0
  -22.0010   -9.0470   20.4970 C   0  0  0  0  0  3  0  0  0  0  0  0
  -22.7220  -10.2380   20.3170 C   0  0  0  0  0  3  0  0  0  0  0  0
  -21.6740   -6.9380   21.5120 O   0  0  0  0  0  0  0  0  0  0  0  0
  -21.6440   -6.1810   22.6570 C   0  0  0  0  0  0  0  0  0  0  0  0
  -21.2350   -6.7220   23.8960 C   0  0  0  0  0  3  0  0  0  0  0  0
  -21.1520   -5.8910   25.0330 C   0  0  0  0  0  3  0  0  0  0  0  0
  -21.4660   -4.5230   24.9300 C   0  0  0  0  0  0  0  0  0  0  0  0
  -21.8680   -3.9830   23.6960 C   0  0  0  0  0  3  0  0  0  0  0  0
  -21.9530   -4.8100   22.5610 C   0  0  0  0  0  0  0  0  0  0  0  0
  -22.3200   -4.2790   21.3700 F   0  0  0  0  0  0  0  0  0  0  0  0
  -21.3800   -3.7250   26.0210 F   0  0  0  0  0  0  0  0  0  0  0  0
  -22.7490  -13.5760   21.2260 C   0  0  0  0  0  0  0  0  0  0  0  0
  -22.0360  -12.8700   22.0970 N   0  0  0  0  0  0  0  0  0  0  0  0
  -22.3020  -14.6060   20.7220 O   0  0  0  0  0  0  0  0  0  0  0  0
  -22.4110  -12.0340   22.5210 H   0  0  0  0  0  0  0  0  0  0  0  0
  -21.1040  -13.1690   22.3450 H   0  0  0  0  0  0  0  0  0  0  0  0
  -25.3650  -15.2580   20.3890 N   0  0  0  0  0  0  0  0  0  0  0  0
  -24.6130  -15.9250   20.5260 H   0  0  0  0  0  0  0  0  0  0  0  0
  -26.2330  -15.6870   20.0970 H   0  0  0  0  0  0  0  0  0  0  0  0
  1  5  1  0
  3  1  2  0
  3  6  1  0
  4  2  1  0
  5 48  1  0
  5  2  2  0
  6  7  1  0
  6  4  2  0
  8 19  2  0
  9  7  1  0
  9 14  1  0
 10 18  1  0
 10 20  1  0
 11 17  1  0
 11 13  1  0
 12 18  1  0
 13 12  1  0
 14 13  2  0
 15  9  2  0
 16 15  1  0
 16 11  2  0
 17 10  1  0
 18  8  1  0
 20 22  2  0
 21 20  1  0
 23 21  1  0
 24 33  2  0
 24 29  1  0
 25 21  1  0
 25 29  1  0
 26 25  1  0
 27 28  1  0
 27 26  1  0
 28 24  1  0
 29 30  2  0
 30 31  1  0
 32 31  2  0
 33 32  1  0
 34  8  1  0
 34 39  1  0
 34 35  1  0
 35 38  1  1
 35 36  1  0
 37 35  1  0
 39 42  1  0
 40 44  1  0
 40 39  1  0
 41 40  2  0
 44 43  1  0
 46 44  1  0
 46 47  1  0
 46 45  1  0
 48 49  2  0
 52 50  1  6
 52 49  1  0
 52 53  1  0
 52 51  1  0
 54 53  1  0
 55 60  1  0
 56 57  1  0
 56 55  1  0
 58 57  1  0
 58 65  1  0
 58 59  1  0
 60 54  1  0
 60 59  1  0
 61 54  2  0
 62 63  2  0
 63 82  1  0
 64 63  1  0
 64 67  1  0
 65 66  1  0
 65 62  1  0
 66 64  2  0
 67 68  1  0
 68 69  2  0
 70 73  1  0
 70 69  1  0
 71 70  2  0
 72 71  1  0
 72 67  2  0
 73 74  1  0
 74 75  1  0
 75 76  2  0
 77 76  1  0
 77 81  1  0
 78 77  2  0
 79 74  2  0
 79 78  1  0
 80 79  1  0
 82 83  1  0
 83 86  1  0
 83 85  1  0
 84 82  2  0
 87 88  1  0
 87 62  1  0
 89 87  1  0
M  ISO  4   6 101   7 101  53 100  54 100
M  END
>  <TORSDO>  (1) 
F 20

>  <SCORE>  (1) 
-13.949

>  <name>  (1) 
0

>  <ligand_id>  (1) 
0

>  <original_smiles>  (1) 
[H]c1c([H])c([H])c2c(c1[H])C([H])([H])C([H])([H])C([H])([H])C2([H])N([H])C(=O)C1([H])N(C(=O)C([H])(N([H])C(=O)C([H])(N([H])C([H])([H])[H])C([H])([H])[H])C(C([H])([H])[H])(C([H])([H])[H])C([H])([H])[H])C([H])([H])c2c([H])c(Oc3c([H])c([H])c(C([H])([H])C([H])([H])C(OC(=O)N4C([H])([H])C([H])([H])C([H])([H])C([H])(n5nc(-c6c([H])c([H])c(Oc7c([H])c([H])c(F)c([H])c7F)c([H])c6[H])c(C(=O)N([H])[H])c5N([H])[H])C4([H])[H])(C([H])([H])[H])C([H])([H])[H])c([H])c3[H])c([H])c([H])c2C1([H])[H]

>  <smiles>  (1) 
[H]c1c([H])c([H])c2c(c1[H])C([H])([H])C([H])([H])C([H])([H])C2([H])N([H])C(=O)C1([H])N(C(=O)C([H])(N([H])C(=O)C([H])(N([H])C([H])([H])[H])C([H])([H])[H])C(C([H])([H])[H])(C([H])([H])[H])C([H])([H])[H])C([H])([H])c2c([H])c(Oc3c([H])c([H])c(C([H])([H])C([H])([H])C(OC(=O)N4C([H])([H])C([H])([H])C([H])([H])C([H])(n5nc(-c6c([H])c([H])c(Oc7c([H])c([H])c(F)c([H])c7F)c([H])c6[H])c(C(=O)N([H])[H])c5N([H])[H])C4([H])[H])(C([H])([H])[H])C([H])([H])[H])c([H])c3[H])c([H])c([H])c2C1([H])[H]

$$$$
1:0:0
     RDKit          3D

 87 95  0  0  1  0  0  0  0  0999 V2000
  -27.4210  -20.9260   19.1650 C   0  0  0  0  0  1  0  0  0  0  0  0
  -28.9270  -21.1490   19.3700 C   0  0  0  0  0  3  0  0  0  0  0  0
  -30.7090  -15.2700   19.4700 C   0  0  0  0  0  0  0  0  0  0  0  0
  -30.6050  -12.8530   18.5420 C   0  0  0  0  0  2  0  0  0  0  0  0
  -29.5430  -12.6850   17.4240 C   0  0  0  0  0  2  0  0  0  0  0  0
  -28.1580  -12.3920   18.0250 C   0  0  0  0  0  2  0  0  0  0  0  0
  -27.8450  -13.3090   19.2330 C   0  0  0  0  0  3  0  0  0  0  0  0
  -29.0210  -13.3970   20.2260 C   0  0  0  0  0  2  0  0  0  0  0  0
  -30.1640  -13.9520   19.4790 N   0  0  0  0  0  0  0  0  0  0  0  0
  -31.8310  -15.3120   18.9410 O   0  0  0  0  0  0  0  0  0  0  0  0
  -29.6580  -17.9520   21.9060 C   0  0  0  0  0  2  0  0  0  0  0  0
  -29.0010  -19.2090   21.2900 C   0  0  0  0  0  2  0  0  0  0  0  0
  -29.3830  -16.6170   21.1530 C   0  0  0  0  0  2  0  0  0  0  0  0
  -29.8390  -18.0250   19.1430 C   0  0  0  0  0  2  0  0  0  0  0  0
  -29.6140  -19.5920   19.9380 C   0  0  0  0  0  3  0  0  0  0  0  0
  -29.9850  -16.5250   19.8090 N   0  0  0  0  0  0  0  0  0  0  0  0
  -25.6200  -13.8230   20.3690 C   0  0  0  0  0  0  0  0  0  0  0  0
  -24.6010  -13.0260   20.8130 C   0  0  0  0  0  0  0  0  0  0  0  0
  -25.0240  -11.6800   20.5820 C   0  0  0  0  0  0  0  0  0  0  0  0
  -26.5930  -12.9640   19.8900 N   0  0  0  0  0  0  0  0  0  0  0  0
  -26.2570  -11.6610   20.0850 N   0  0  0  0  0  0  0  0  0  0  0  0
  -24.3010  -10.4130   20.7530 C   0  0  0  0  0  0  0  0  0  0  0  0
  -24.7570   -9.4110   21.6380 C   0  0  0  0  0  3  0  0  0  0  0  0
  -24.0290   -8.2130   21.8010 C   0  0  0  0  0  3  0  0  0  0  0  0
  -22.8310   -8.0060   21.0760 C   0  0  0  0  0  0  0  0  0  0  0  0
  -22.3940   -8.9950   20.1770 C   0  0  0  0  0  3  0  0  0  0  0  0
  -23.1220  -10.1850   20.0120 C   0  0  0  0  0  3  0  0  0  0  0  0
  -22.0740   -6.8620   21.1500 O   0  0  0  0  0  0  0  0  0  0  0  0
  -21.9440   -6.1580   22.3210 C   0  0  0  0  0  0  0  0  0  0  0  0
  -21.4300   -6.7520   23.4940 C   0  0  0  0  0  3  0  0  0  0  0  0
  -21.2470   -5.9750   24.6550 C   0  0  0  0  0  3  0  0  0  0  0  0
  -21.5680   -4.6040   24.6440 C   0  0  0  0  0  0  0  0  0  0  0  0
  -22.0720   -4.0100   23.4740 C   0  0  0  0  0  3  0  0  0  0  0  0
  -22.2570   -4.7840   22.3150 C   0  0  0  0  0  0  0  0  0  0  0  0
  -22.7250   -4.2000   21.1850 F   0  0  0  0  0  0  0  0  0  0  0  0
  -21.3850   -3.8560   25.7560 F   0  0  0  0  0  0  0  0  0  0  0  0
  -23.2700  -13.4900   21.3260 C   0  0  0  0  0  0  0  0  0  0  0  0
  -22.6730  -12.7410   22.2440 N   0  0  0  0  0  0  0  0  0  0  0  0
  -22.7730  -14.5500   20.9470 O   0  0  0  0  0  0  0  0  0  0  0  0
  -23.0910  -11.8840   22.5720 H   0  0  0  0  0  0  0  0  0  0  0  0
  -21.7830  -13.0320   22.6270 H   0  0  0  0  0  0  0  0  0  0  0  0
  -25.7900  -15.2040   20.3040 N   0  0  0  0  0  0  0  0  0  0  0  0
  -25.0670  -15.8540   20.5940 H   0  0  0  0  0  0  0  0  0  0  0  0
  -26.5930  -15.6620   19.8940 H   0  0  0  0  0  0  0  0  0  0  0  0
  -29.0830  -22.8300   19.9550 C   0  0  0  0  0  3  0  0  0  0  0  0
  -28.2200  -24.3480   19.5670 C   0  0  0  0  0  3  0  0  0  0  0  0
  -28.3610  -25.9090   20.0250 O   0  0  0  0  0  0  0  0  0  0  0  0
  -24.7160  -31.6930   23.1350 C   0  0  0  0  0  0  0  0  0  0  0  0
  -27.3360  -26.9780   19.9650 C   0  0  0  0  0  0  0  0  0  0  0  0
  -23.5450  -30.3500   21.4350 C   0  0  0  0  0  3  0  0  0  0  0  0
  -25.0190  -28.8150   19.9660 C   0  0  0  0  0  0  0  0  0  0  0  0
  -26.1080  -30.5920   21.3210 C   0  0  0  0  0  2  0  0  0  0  0  0
  -26.1940  -29.2110   20.6150 C   0  0  0  0  0  0  0  0  0  0  0  0
  -27.3470  -28.3110   20.5980 C   0  0  0  0  0  3  0  0  0  0  0  0
  -26.1350  -26.7270   19.2660 C   0  0  0  0  0  3  0  0  0  0  0  0
  -25.0120  -27.5930   19.2730 C   0  0  0  0  0  3  0  0  0  0  0  0
  -23.7900  -29.7220   20.0360 C   0  0  0  0  0  2  0  0  0  0  0  0
  -24.8110  -30.9030   22.0180 N   0  0  0  0  0  0  0  0  0  0  0  0
  -23.6210  -31.9570   23.6570 O   0  0  0  0  0  0  0  0  0  0  0  0
  -22.8520  -29.3140   22.3570 C   0  0  0  0  0  0  0  0  0  0  0  0
  -21.5230  -29.1530   22.2220 N   0  0  0  0  0  0  0  0  0  0  0  0
  -23.5170  -28.6560   23.1610 O   0  0  0  0  0  0  0  0  0  0  0  0
  -21.0410  -29.7340   21.5520 H   0  0  0  0  0  0  0  0  0  0  0  0
  -18.1350  -27.9410   22.6830 C   0  0  0  0  0  0  0  0  0  0  0  0
  -20.6980  -28.1850   22.9530 C   0  0  0  0  0  3  0  0  0  0  0  0
  -20.7930  -26.7800   22.3140 C   0  0  0  0  0  2  0  0  0  0  0  0
  -19.6870  -26.5080   21.2900 C   0  0  0  0  0  2  0  0  0  0  0  0
  -18.3070  -26.6250   21.9440 C   0  0  0  0  0  2  0  0  0  0  0  0
  -19.2580  -28.6810   23.1440 C   0  0  0  0  0  0  0  0  0  0  0  0
  -19.0410  -29.9130   23.7990 C   0  0  0  0  0  3  0  0  0  0  0  0
  -17.7360  -30.4040   23.9980 C   0  0  0  0  0  3  0  0  0  0  0  0
  -16.6290  -29.6600   23.5520 C   0  0  0  0  0  3  0  0  0  0  0  0
  -16.8310  -28.4320   22.8990 C   0  0  0  0  0  3  0  0  0  0  0  0
  -25.9780  -32.3180   23.8030 C   0  0  0  0  0  3  0  0  0  0  0  0
  -25.6570  -33.7120   24.1600 N   0  0  0  0  0  0  0  0  0  0  0  0
  -25.9790  -34.7860   23.4260 C   0  0  0  0  0  0  0  0  0  0  0  0
  -26.6430  -34.7080   22.3900 O   0  0  0  0  0  0  0  0  0  0  0  0
  -25.0650  -33.8430   24.9660 H   0  0  0  0  0  0  0  0  0  0  0  0
  -24.2440  -36.5870   23.1300 C   0  0  0  0  0  1  0  0  0  0  0  0
  -25.4930  -36.1650   23.9210 C   0  0  0  0  0  3  0  0  0  0  0  0
  -27.6320  -37.0450   24.7510 C   0  0  0  0  0  1  0  0  0  0  0  0
  -26.5210  -37.2240   23.8190 N   0  0  0  0  0  0  0  0  0  0  0  0
  -26.1140  -38.1410   23.9860 H   0  0  0  0  0  0  0  0  0  0  0  0
  -26.4550  -31.5280   25.0840 C   0  0  1  0  0  0  0  0  0  0  0  0
  -25.3350  -31.2890   26.1250 C   0  0  0  0  0  1  0  0  0  0  0  0
  -27.0370  -30.1480   24.6960 C   0  0  0  0  0  1  0  0  0  0  0  0
  -27.5980  -32.3020   25.7800 C   0  0  0  0  0  1  0  0  0  0  0  0
  2  1  1  0
  2 45  1  0
  3  9  1  0
  3 16  1  0
  4  9  1  0
  5  6  1  0
  5  4  1  0
  7  6  1  0
  7 20  1  0
  7  8  1  0
  9  8  1  0
 10  3  2  0
 12 11  1  0
 13 11  1  0
 14 16  1  0
 14 15  1  0
 15  2  1  0
 15 12  1  0
 16 13  1  0
 17 18  2  0
 18 37  1  0
 19 22  1  0
 19 18  1  0
 20 21  1  0
 20 17  1  0
 21 19  2  0
 22 23  1  0
 23 24  2  0
 25 28  1  0
 25 24  1  0
 26 25  2  0
 27 26  1  0
 27 22  2  0
 28 29  1  0
 29 30  1  0
 30 31  2  0
 32 31  1  0
 32 36  1  0
 33 32  2  0
 34 29  2  0
 34 33  1  0
 35 34  1  0
 37 38  1  0
 38 40  1  0
 38 41  1  0
 39 37  2  0
 42 17  1  0
 42 43  1  0
 44 42  1  0
 46 45  2  0
 46 47  1  0
 48 59  2  0
 49 47  1  0
 49 54  1  0
 50 58  1  0
 50 60  1  0
 51 57  1  0
 51 53  1  0
 52 58  1  0
 53 52  1  0
 54 53  2  0
 55 56  1  0
 55 49  2  0
 56 51  2  0
 57 50  1  0
 58 48  1  0
 60 62  2  0
 61 60  1  0
 63 61  1  0
 64 73  2  0
 64 69  1  0
 65 61  1  0
 65 69  1  0
 66 65  1  0
 67 68  1  0
 67 66  1  0
 68 64  1  0
 69 70  2  0
 70 71  1  0
 72 71  2  0
 73 72  1  0
 74 48  1  0
 74 75  1  0
 74 84  1  0
 75 78  1  0
 76 80  1  0
 76 75  1  0
 77 76  2  0
 80 79  1  0
 82 80  1  0
 82 83  1  0
 82 81  1  0
 84 87  1  1
 84 85  1  0
 86 84  1  0
M  ISO  4   3 100  16 100  46 101  47 101
M  END
>  <TORSDO>  (2) 
F 18

>  <SCORE>  (2) 
-13.312

>  <name>  (2) 
1

>  <ligand_id>  (2) 
1

>  <original_smiles>  (2) 
[H]c1c([H])c([H])c2c(c1[H])C([H])([H])C([H])([H])C([H])([H])C2([H])N([H])C(=O)C1([H])N(C(=O)C([H])(N([H])C(=O)C([H])(N([H])C([H])([H])[H])C([H])([H])[H])C(C([H])([H])[H])(C([H])([H])[H])C([H])([H])[H])C([H])([H])c2c([H])c(OC([H])([H])C([H])([H])C([H])(C([H])([H])[H])C3([H])C([H])([H])N(C(=O)N4C([H])([H])C([H])([H])C([H])([H])C([H])(n5nc(-c6c([H])c([H])c(Oc7c([H])c([H])c(F)c([H])c7F)c([H])c6[H])c(C(=O)N([H])[H])c5N([H])[H])C4([H])[H])C([H])([H])C([H])([H])C3([H])[H])c([H])c([H])c2C1([H])[H]

>  <smiles>  (2) 
[H]c1c([H])c([H])c2c(c1[H])C([H])([H])C([H])([H])C([H])([H])C2([H])N([H])C(=O)C1([H])N(C(=O)C([H])(N([H])C(=O)C([H])(N([H])C([H])([H])[H])C([H])([H])[H])C(C([H])([H])[H])(C([H])([H])[H])C([H])([H])[H])C([H])([H])c2c([H])c(OC([H])([H])C([H])([H])C([H])(C([H])([H])[H])C3([H])C([H])([H])N(C(=O)N4C([H])([H])C([H])([H])C([H])([H])C([H])(n5nc(-c6c([H])c([H])c(Oc7c([H])c([H])c(F)c([H])c7F)c([H])c6[H])c(C(=O)N([H])[H])c5N([H])[H])C4([H])[H])C([H])([H])C([H])([H])C3([H])[H])c([H])c([H])c2C1([H])[H]

$$$$
2:0:0
     RDKit          3D

 90 98  0  0  1  0  0  0  0  0999 V2000
  -28.4710  -22.6540   21.3650 C   0  0  0  0  0  3  0  0  0  0  0  0
  -29.0620  -22.7440   19.0770 C   0  0  0  0  0  3  0  0  0  0  0  0
  -28.1580  -24.0730   21.3350 C   0  0  0  0  0  3  0  0  0  0  0  0
  -28.7600  -24.1590   19.0530 C   0  0  0  0  0  3  0  0  0  0  0  0
  -28.9800  -21.9170   20.2430 C   0  0  0  0  0  0  0  0  0  0  0  0
  -28.3200  -24.9140   20.1860 C   0  0  0  0  0  0  0  0  0  0  0  0
  -28.3090  -26.3680   20.2020 O   0  0  0  0  0  0  0  0  0  0  0  0
  -24.6390  -31.9310   23.2370 C   0  0  0  0  0  0  0  0  0  0  0  0
  -27.1910  -27.2500   20.2050 C   0  0  0  0  0  0  0  0  0  0  0  0
  -23.4210  -30.5310   21.6110 C   0  0  0  0  0  3  0  0  0  0  0  0
  -24.8490  -28.9420   20.1870 C   0  0  0  0  0  0  0  0  0  0  0  0
  -25.9660  -30.8050   21.4160 C   0  0  0  0  0  2  0  0  0  0  0  0
  -26.0290  -29.4100   20.7810 C   0  0  0  0  0  0  0  0  0  0  0  0
  -27.1990  -28.5770   20.7740 C   0  0  0  0  0  3  0  0  0  0  0  0
  -25.9900  -26.8570   19.5820 C   0  0  0  0  0  3  0  0  0  0  0  0
  -24.8390  -27.6760   19.5770 C   0  0  0  0  0  3  0  0  0  0  0  0
  -23.6270  -29.8420   20.2350 C   0  0  0  0  0  2  0  0  0  0  0  0
  -24.6970  -31.1100   22.1460 N   0  0  0  0  0  0  0  0  0  0  0  0
  -23.5580  -32.2230   23.7700 O   0  0  0  0  0  0  0  0  0  0  0  0
  -22.7480  -29.5320   22.5820 C   0  0  0  0  0  0  0  0  0  0  0  0
  -21.4190  -29.3620   22.4600 N   0  0  0  0  0  0  0  0  0  0  0  0
  -23.4230  -28.9080   23.4060 O   0  0  0  0  0  0  0  0  0  0  0  0
  -20.9330  -29.9180   21.7700 H   0  0  0  0  0  0  0  0  0  0  0  0
  -18.0380  -28.1720   22.9660 C   0  0  0  0  0  0  0  0  0  0  0  0
  -20.5970  -28.4310   23.2360 C   0  0  0  0  0  3  0  0  0  0  0  0
  -20.6960  -26.9960   22.6710 C   0  0  0  0  0  2  0  0  0  0  0  0
  -19.5950  -26.6670   21.6590 C   0  0  0  0  0  2  0  0  0  0  0  0
  -18.2120  -26.8190   22.2990 C   0  0  0  0  0  2  0  0  0  0  0  0
  -19.1580  -28.9360   23.3910 C   0  0  0  0  0  0  0  0  0  0  0  0
  -18.9390  -30.2030   23.9760 C   0  0  0  0  0  3  0  0  0  0  0  0
  -17.6350  -30.7060   24.1400 C   0  0  0  0  0  3  0  0  0  0  0  0
  -16.5300  -29.9410   23.7280 C   0  0  0  0  0  3  0  0  0  0  0  0
  -16.7320  -28.6760   23.1480 C   0  0  0  0  0  3  0  0  0  0  0  0
  -25.9260  -32.5600   23.8550 C   0  0  0  0  0  3  0  0  0  0  0  0
  -26.4480  -31.7820   25.1230 C   0  0  1  0  0  0  0  0  0  0  0  0
  -25.3610  -31.5460   26.1980 C   0  0  0  0  0  1  0  0  0  0  0  0
  -27.0270  -30.4060   24.7230 C   0  0  0  0  0  1  0  0  0  0  0  0
  -27.6060  -32.5710   25.7810 C   0  0  0  0  0  1  0  0  0  0  0  0
  -25.6200  -33.9570   24.2000 N   0  0  0  0  0  0  0  0  0  0  0  0
  -25.9310  -35.0150   23.4370 C   0  0  0  0  0  0  0  0  0  0  0  0
  -26.5730  -34.9200   22.3890 O   0  0  0  0  0  0  0  0  0  0  0  0
  -25.0480  -34.1060   25.0170 H   0  0  0  0  0  0  0  0  0  0  0  0
  -24.1800  -36.8000   23.1550 C   0  0  0  0  0  1  0  0  0  0  0  0
  -25.4550  -36.4010   23.9150 C   0  0  0  0  0  3  0  0  0  0  0  0
  -27.6170  -37.2970   24.6630 C   0  0  0  0  0  1  0  0  0  0  0  0
  -26.4780  -37.4600   23.7650 N   0  0  0  0  0  0  0  0  0  0  0  0
  -26.0720  -38.3780   23.9300 H   0  0  0  0  0  0  0  0  0  0  0  0
  -29.7040  -20.4470   20.3280 C   0  0  0  0  0  2  0  0  0  0  0  0
  -27.8260  -18.8210   19.5300 C   0  0  0  0  0  1  0  0  0  0  0  0
  -29.0470  -18.9270   20.4530 C   0  0  0  0  0  3  0  0  0  0  0  0
  -29.6380  -16.2040   20.4710 C   0  0  0  0  0  3  0  0  0  0  0  0
  -29.9640  -17.5730   20.3210 C   0  0  0  0  0  0  0  0  0  0  0  0
  -30.5170  -14.9400   20.3010 C   0  0  0  0  0  0  0  0  0  0  0  0
  -30.3910  -12.6000   19.3730 C   0  0  0  0  0  2  0  0  0  0  0  0
  -29.4500  -12.5850   18.1460 C   0  0  0  0  0  2  0  0  0  0  0  0
  -27.9890  -12.3730   18.5860 C   0  0  0  0  0  2  0  0  0  0  0  0
  -27.5880  -13.2980   19.7630 C   0  0  0  0  0  3  0  0  0  0  0  0
  -28.6470  -13.2920   20.8850 C   0  0  0  0  0  2  0  0  0  0  0  0
  -29.9280  -13.6810   20.2870 N   0  0  0  0  0  0  0  0  0  0  0  0
  -31.7170  -14.9890   20.0100 O   0  0  0  0  0  0  0  0  0  0  0  0
  -25.2130  -13.8720   20.5350 C   0  0  0  0  0  0  0  0  0  0  0  0
  -24.1530  -13.0930   20.9110 C   0  0  0  0  0  0  0  0  0  0  0  0
  -24.6200  -11.7430   20.8690 C   0  0  0  0  0  0  0  0  0  0  0  0
  -26.2550  -12.9970   20.2740 N   0  0  0  0  0  0  0  0  0  0  0  0
  -25.9080  -11.7110   20.5420 N   0  0  0  0  0  0  0  0  0  0  0  0
  -23.9010  -10.4770   21.0570 C   0  0  0  0  0  0  0  0  0  0  0  0
  -24.3400   -9.5060   21.9830 C   0  0  0  0  0  3  0  0  0  0  0  0
  -23.6170   -8.3070   22.1600 C   0  0  0  0  0  3  0  0  0  0  0  0
  -22.4410   -8.0690   21.4100 C   0  0  0  0  0  0  0  0  0  0  0  0
  -22.0210   -9.0280   20.4720 C   0  0  0  0  0  3  0  0  0  0  0  0
  -22.7450  -10.2190   20.2940 C   0  0  0  0  0  3  0  0  0  0  0  0
  -21.6890   -6.9220   21.4960 O   0  0  0  0  0  0  0  0  0  0  0  0
  -21.6440   -6.1770   22.6470 C   0  0  0  0  0  0  0  0  0  0  0  0
  -21.2120   -6.7240   23.8750 C   0  0  0  0  0  3  0  0  0  0  0  0
  -21.1180   -5.9040   25.0170 C   0  0  0  0  0  3  0  0  0  0  0  0
  -21.4420   -4.5360   24.9310 C   0  0  0  0  0  0  0  0  0  0  0  0
  -21.8640   -3.9870   23.7080 C   0  0  0  0  0  3  0  0  0  0  0  0
  -21.9630   -4.8060   22.5690 C   0  0  0  0  0  0  0  0  0  0  0  0
  -22.3520   -4.2680   21.3880 F   0  0  0  0  0  0  0  0  0  0  0  0
  -21.3420   -3.7460   26.0260 F   0  0  0  0  0  0  0  0  0  0  0  0
  -22.7580  -13.5670   21.1950 C   0  0  0  0  0  0  0  0  0  0  0  0
  -22.0350  -12.8680   22.0630 N   0  0  0  0  0  0  0  0  0  0  0  0
  -22.3140  -14.5920   20.6790 O   0  0  0  0  0  0  0  0  0  0  0  0
  -22.4060  -12.0420   22.5090 H   0  0  0  0  0  0  0  0  0  0  0  0
  -21.0980  -13.1680   22.2920 H   0  0  0  0  0  0  0  0  0  0  0  0
  -25.3730  -15.2430   20.3640 N   0  0  0  0  0  0  0  0  0  0  0  0
  -24.5980  -15.8880   20.4680 H   0  0  0  0  0  0  0  0  0  0  0  0
  -26.2020  -15.6780   19.9800 H   0  0  0  0  0  0  0  0  0  0  0  0
  -31.2130  -17.9460   20.0090 O   0  0  0  0  0  0  0  0  0  0  0  0
  -31.2400  -18.8940   19.9860 H   0  0  0  0  0  0  0  0  0  0  0  0
  2  5  1  0
  3  1  1  0
  4  2  2  0
  4  6  1  0
  5 48  1  0
  5  1  2  0
  6  7  1  0
  6  3  2  0
  7  9  1  0
  8 19  2  0
  9 14  1  0
 10 18  1  0
 10 20  1  0
 11 17  1  0
 11 13  1  0
 12 18  1  0
 13 12  1  0
 14 13  2  0
 15  9  2  0
 16 15  1  0
 16 11  2  0
 17 10  1  0
 18  8  1  0
 20 22  2  0
 21 20  1  0
 23 21  1  0
 24 33  2  0
 24 29  1  0
 25 21  1  0
 25 29  1  0
 26 25  1  0
 27 28  1  0
 27 26  1  0
 28 24  1  0
 29 30  2  0
 30 31  1  0
 32 31  2  0
 33 32  1  0
 34  8  1  0
 34 39  1  0
 34 35  1  0
 35 38  1  1
 35 36  1  0
 37 35  1  0
 39 42  1  0
 40 44  1  0
 40 39  1  0
 41 40  2  0
 44 43  1  0
 46 44  1  0
 46 47  1  0
 46 45  1  0
 48 50  1  0
 50 49  1  0
 52 50  1  0
 52 51  2  0
 53 51  1  0
 54 59  1  0
 55 56  1  0
 55 54  1  0
 57 56  1  0
 57 64  1  0
 57 58  1  0
 59 53  1  0
 59 58  1  0
 60 53  2  0
 61 62  2  0
 62 81  1  0
 63 62  1  0
 63 66  1  0
 64 61  1  0
 64 65  1  0
 65 63  2  0
 66 67  1  0
 67 68  2  0
 69 72  1  0
 69 68  1  0
 70 69  2  0
 71 70  1  0
 71 66  2  0
 72 73  1  0
 73 74  1  0
 74 75  2  0
 76 75  1  0
 76 80  1  0
 77 76  2  0
 78 73  2  0
 78 77  1  0
 79 78  1  0
 81 82  1  0
 82 85  1  0
 82 84  1  0
 83 81  2  0
 86 87  1  0
 86 61  1  0
 88 86  1  0
 89 52  1  0
 90 89  1  0
M  ISO  4   6 101   7 101  51 100  53 100
M  END
>  <TORSDO>  (3) 
F 20

>  <SCORE>  (3) 
-14.139

>  <name>  (3) 
2

>  <ligand_id>  (3) 
2

>  <original_smiles>  (3) 
[H]OC(=C([H])C(=O)N1C([H])([H])C([H])([H])C([H])([H])C([H])(n2nc(-c3c([H])c([H])c(Oc4c([H])c([H])c(F)c([H])c4F)c([H])c3[H])c(C(=O)N([H])[H])c2N([H])[H])C1([H])[H])C([H])(C([H])([H])[H])C([H])([H])c1c([H])c([H])c(Oc2c([H])c([H])c3c(c2[H])C([H])([H])N(C(=O)C([H])(N([H])C(=O)C([H])(N([H])C([H])([H])[H])C([H])([H])[H])C(C([H])([H])[H])(C([H])([H])[H])C([H])([H])[H])C([H])(C(=O)N([H])C2([H])c4c([H])c([H])c([H])c([H])c4C([H])([H])C([H])([H])C2([H])[H])C3([H])[H])c([H])c1[H]

>  <smiles>  (3) 
[H]OC(=C([H])C(=O)N1C([H])([H])C([H])([H])C([H])([H])C([H])(n2nc(-c3c([H])c([H])c(Oc4c([H])c([H])c(F)c([H])c4F)c([H])c3[H])c(C(=O)N([H])[H])c2N([H])[H])C1([H])[H])C([H])(C([H])([H])[H])C([H])([H])c1c([H])c([H])c(Oc2c([H])c([H])c3c(c2[H])C([H])([H])N(C(=O)C([H])(N([H])C(=O)C([H])(N([H])C([H])([H])[H])C([H])([H])[H])C(C([H])([H])[H])(C([H])([H])[H])C([H])([H])[H])C([H])(C(=O)N([H])C2([H])c4c([H])c([H])c([H])c([H])c4C([H])([H])C([H])([H])C2([H])[H])C3([H])[H])c([H])c1[H]

$$$$
3:0:0
     RDKit          3D

 87 95  0  0  1  0  0  0  0  0999 V2000
  -29.2090  -21.2560   19.9550 C   0  0  0  0  0  2  0  0  0  0  0  0
  -27.5650  -19.1730   19.7290 C   0  0  0  0  0  1  0  0  0  0  0  0
  -28.9380  -19.5260   20.3110 C   0  0  0  0  0  3  0  0  0  0  0  0
  -30.4520  -15.2320   19.8750 C   0  0  0  0  0  0  0  0  0  0  0  0
  -30.2870  -12.8440   18.8970 C   0  0  0  0  0  2  0  0  0  0  0  0
  -29.2720  -12.7280   17.7340 C   0  0  0  0  0  2  0  0  0  0  0  0
  -27.8570  -12.4640   18.2780 C   0  0  0  0  0  2  0  0  0  0  0  0
  -27.5180  -13.3790   19.4830 C   0  0  0  0  0  3  0  0  0  0  0  0
  -28.6530  -13.4540   20.5250 C   0  0  0  0  0  2  0  0  0  0  0  0
  -29.8460  -13.9490   19.8230 N   0  0  0  0  0  0  0  0  0  0  0  0
  -31.6050  -15.2370   19.4200 O   0  0  0  0  0  0  0  0  0  0  0  0
  -31.0470  -17.9910   21.1120 C   0  0  0  0  0  2  0  0  0  0  0  0
  -30.1020  -16.9330   21.7080 C   0  0  0  0  0  3  0  0  0  0  0  0
  -30.0090  -18.1330   20.0200 C   0  0  0  0  0  3  0  0  0  0  0  0
  -30.6560  -15.8720   22.6710 C   0  0  0  0  0  1  0  0  0  0  0  0
  -29.8050  -16.4990   20.3120 N   0  0  0  0  0  0  0  0  0  0  0  0
  -25.2180  -13.9180   20.4380 C   0  0  0  0  0  0  0  0  0  0  0  0
  -24.1860  -13.1320   20.8670 C   0  0  0  0  0  0  0  0  0  0  0  0
  -24.6440  -11.7820   20.7610 C   0  0  0  0  0  0  0  0  0  0  0  0
  -26.2340  -13.0500   20.0850 N   0  0  0  0  0  0  0  0  0  0  0  0
  -25.9070  -11.7570   20.3460 N   0  0  0  0  0  0  0  0  0  0  0  0
  -23.9310  -10.5150   20.9710 C   0  0  0  0  0  0  0  0  0  0  0  0
  -24.4080   -9.5360   21.8690 C   0  0  0  0  0  3  0  0  0  0  0  0
  -23.6910   -8.3370   22.0690 C   0  0  0  0  0  3  0  0  0  0  0  0
  -22.4810   -8.1080   21.3710 C   0  0  0  0  0  0  0  0  0  0  0  0
  -22.0220   -9.0760   20.4610 C   0  0  0  0  0  3  0  0  0  0  0  0
  -22.7390  -10.2660   20.2590 C   0  0  0  0  0  3  0  0  0  0  0  0
  -21.7310   -6.9620   21.4830 O   0  0  0  0  0  0  0  0  0  0  0  0
  -21.7090   -6.2260   22.6420 C   0  0  0  0  0  0  0  0  0  0  0  0
  -21.3250   -6.7930   23.8760 C   0  0  0  0  0  3  0  0  0  0  0  0
  -21.2480   -5.9840   25.0280 C   0  0  0  0  0  3  0  0  0  0  0  0
  -21.5450   -4.6100   24.9460 C   0  0  0  0  0  0  0  0  0  0  0  0
  -21.9210   -4.0430   23.7160 C   0  0  0  0  0  3  0  0  0  0  0  0
  -21.9990   -4.8480   22.5660 C   0  0  0  0  0  0  0  0  0  0  0  0
  -22.3410   -4.2930   21.3790 F   0  0  0  0  0  0  0  0  0  0  0  0
  -21.4640   -3.8330   26.0500 F   0  0  0  0  0  0  0  0  0  0  0  0
  -22.8150  -13.6020   21.2590 C   0  0  0  0  0  0  0  0  0  0  0  0
  -22.1610  -12.8970   22.1740 N   0  0  0  0  0  0  0  0  0  0  0  0
  -22.3350  -14.6320   20.7860 O   0  0  0  0  0  0  0  0  0  0  0  0
  -22.5640  -12.0650   22.5800 H   0  0  0  0  0  0  0  0  0  0  0  0
  -21.2440  -13.1940   22.4770 H   0  0  0  0  0  0  0  0  0  0  0  0
  -25.3710  -15.2940   20.2910 N   0  0  0  0  0  0  0  0  0  0  0  0
  -24.6200  -15.9460   20.4980 H   0  0  0  0  0  0  0  0  0  0  0  0
  -26.2060  -15.7480   19.9460 H   0  0  0  0  0  0  0  0  0  0  0  0
  -28.4750  -22.7820   20.5280 C   0  0  0  0  0  2  0  0  0  0  0  0
  -28.2890  -24.4060   19.8130 C   0  0  0  0  0  2  0  0  0  0  0  0
  -28.2050  -25.9480   20.3480 O   0  0  0  0  0  0  0  0  0  0  0  0
  -24.6060  -31.8590   23.1970 C   0  0  0  0  0  0  0  0  0  0  0  0
  -27.1740  -27.0020   20.2100 C   0  0  0  0  0  0  0  0  0  0  0  0
  -23.4110  -30.4470   21.5700 C   0  0  0  0  0  3  0  0  0  0  0  0
  -24.8610  -28.8440   20.1500 C   0  0  0  0  0  0  0  0  0  0  0  0
  -25.9720  -30.6770   21.4140 C   0  0  0  0  0  2  0  0  0  0  0  0
  -26.0440  -29.2660   20.7690 C   0  0  0  0  0  0  0  0  0  0  0  0
  -27.1900  -28.3630   20.7790 C   0  0  0  0  0  3  0  0  0  0  0  0
  -25.9650  -26.7200   19.5360 C   0  0  0  0  0  3  0  0  0  0  0  0
  -24.8440  -27.5900   19.5140 C   0  0  0  0  0  3  0  0  0  0  0  0
  -23.6360  -29.7550   20.1970 C   0  0  0  0  0  2  0  0  0  0  0  0
  -24.6840  -31.0210   22.1140 N   0  0  0  0  0  0  0  0  0  0  0  0
  -23.5170  -32.1480   23.7210 O   0  0  0  0  0  0  0  0  0  0  0  0
  -22.7260  -29.4550   22.5450 C   0  0  0  0  0  0  0  0  0  0  0  0
  -21.3960  -29.2850   22.4250 N   0  0  0  0  0  0  0  0  0  0  0  0
  -23.3970  -28.8360   23.3750 O   0  0  0  0  0  0  0  0  0  0  0  0
  -20.9080  -29.8340   21.7310 H   0  0  0  0  0  0  0  0  0  0  0  0
  -18.0200  -28.0670   22.9450 C   0  0  0  0  0  0  0  0  0  0  0  0
  -20.5780  -28.3520   23.2080 C   0  0  0  0  0  3  0  0  0  0  0  0
  -20.6890  -26.9150   22.6500 C   0  0  0  0  0  2  0  0  0  0  0  0
  -19.5900  -26.5730   21.6380 C   0  0  0  0  0  2  0  0  0  0  0  0
  -18.2070  -26.7140   22.2800 C   0  0  0  0  0  2  0  0  0  0  0  0
  -19.1330  -28.8430   23.3660 C   0  0  0  0  0  0  0  0  0  0  0  0
  -18.9020  -30.1080   23.9500 C   0  0  0  0  0  3  0  0  0  0  0  0
  -17.5930  -30.5970   24.1160 C   0  0  0  0  0  3  0  0  0  0  0  0
  -16.4950  -29.8190   23.7100 C   0  0  0  0  0  3  0  0  0  0  0  0
  -16.7100  -28.5560   23.1300 C   0  0  0  0  0  3  0  0  0  0  0  0
  -25.8780  -32.5090   23.8200 C   0  0  0  0  0  3  0  0  0  0  0  0
  -26.3970  -31.7480   25.1030 C   0  0  1  0  0  0  0  0  0  0  0  0
  -25.3050  -31.5120   26.1740 C   0  0  0  0  0  1  0  0  0  0  0  0
  -26.9870  -30.3700   24.7280 C   0  0  0  0  0  1  0  0  0  0  0  0
  -27.5440  -32.5520   25.7600 C   0  0  0  0  0  1  0  0  0  0  0  0
  -25.5530  -33.9070   24.1580 N   0  0  0  0  0  0  0  0  0  0  0  0
  -25.8750  -34.9710   23.4110 C   0  0  0  0  0  0  0  0  0  0  0  0
  -26.5400  -34.8810   22.3750 O   0  0  0  0  0  0  0  0  0  0  0  0
  -24.9590  -34.0480   24.9610 H   0  0  0  0  0  0  0  0  0  0  0  0
  -24.1330  -36.7630   23.0920 C   0  0  0  0  0  1  0  0  0  0  0  0
  -25.3850  -36.3540   23.8860 C   0  0  0  0  0  3  0  0  0  0  0  0
  -27.5240  -37.2470   24.7010 C   0  0  0  0  0  1  0  0  0  0  0  0
  -26.4090  -37.4160   23.7710 N   0  0  0  0  0  0  0  0  0  0  0  0
  -25.9990  -38.3310   23.9330 H   0  0  0  0  0  0  0  0  0  0  0  0
  1  3  1  0
  1 45  1  0
  3  2  1  0
  4 16  1  0
  5 10  1  0
  6  7  1  0
  6  5  1  0
  8  7  1  0
  8 20  1  0
  8  9  1  0
 10  4  1  0
 10  9  1  0
 11  4  2  0
 12 13  1  0
 13 15  1  0
 14  3  1  0
 14 16  1  0
 14 12  1  0
 16 13  1  0
 17 18  2  0
 18 37  1  0
 19 18  1  0
 19 22  1  0
 20 21  1  0
 20 17  1  0
 21 19  2  0
 22 23  1  0
 23 24  2  0
 25 28  1  0
 25 24  1  0
 26 25  2  0
 27 26  1  0
 27 22  2  0
 28 29  1  0
 29 30  1  0
 30 31  2  0
 32 31  1  0
 32 36  1  0
 33 32  2  0
 34 29  2  0
 34 33  1  0
 35 34  1  0
 37 38  1  0
 38 41  1  0
 38 40  1  0
 39 37  2  0
 42 17  1  0
 42 43  1  0
 44 42  1  0
 46 47  1  0
 46 45  1  0
 48 59  2  0
 49 47  1  0
 49 54  1  0
 50 58  1  0
 50 60  1  0
 51 57  1  0
 51 53  1  0
 52 58  1  0
 53 54  2  0
 53 52  1  0
 55 49  2  0
 56 55  1  0
 56 51  2  0
 57 50  1  0
 58 48  1  0
 60 62  2  0
 61 60  1  0
 63 61  1  0
 64 73  2  0
 64 69  1  0
 65 61  1  0
 65 69  1  0
 66 65  1  0
 67 68  1  0
 67 66  1  0
 68 64  1  0
 69 70  2  0
 70 71  1  0
 72 71  2  0
 73 72  1  0
 74 48  1  0
 74 79  1  0
 74 75  1  0
 75 78  1  1
 75 76  1  0
 77 75  1  0
 79 82  1  0
 80 84  1  0
 80 79  1  0
 81 80  2  0
 84 83  1  0
 86 84  1  0
 86 87  1  0
 86 85  1  0
M  ISO  4   4 100  16 100  46 101  47 101
M  END
>  <TORSDO>  (4) 
F 19

>  <SCORE>  (4) 
-15.278

>  <name>  (4) 
3

>  <ligand_id>  (4) 
3

>  <original_smiles>  (4) 
[H]c1c([H])c([H])c2c(c1[H])C([H])([H])C([H])([H])C([H])([H])C2([H])N([H])C(=O)C1([H])N(C(=O)C([H])(N([H])C(=O)C([H])(N([H])C([H])([H])[H])C([H])([H])[H])C(C([H])([H])[H])(C([H])([H])[H])C([H])([H])[H])C([H])([H])c2c([H])c(OC([H])([H])C([H])([H])C([H])([H])C([H])(C([H])([H])[H])C3([H])N(C(=O)N4C([H])([H])C([H])([H])C([H])([H])C([H])(n5nc(-c6c([H])c([H])c(Oc7c([H])c([H])c(F)c([H])c7F)c([H])c6[H])c(C(=O)N([H])[H])c5N([H])[H])C4([H])[H])C([H])(C([H])([H])[H])C3([H])[H])c([H])c([H])c2C1([H])[H]

>  <smiles>  (4) 
[H]c1c([H])c([H])c2c(c1[H])C([H])([H])C([H])([H])C([H])([H])C2([H])N([H])C(=O)C1([H])N(C(=O)C([H])(N([H])C(=O)C([H])(N([H])C([H])([H])[H])C([H])([H])[H])C(C([H])([H])[H])(C([H])([H])[H])C([H])([H])[H])C([H])([H])c2c([H])c(OC([H])([H])C([H])([H])C([H])([H])C([H])(C([H])([H])[H])C3([H])N(C(=O)N4C([H])([H])C([H])([H])C([H])([H])C([H])(n5nc(-c6c([H])c([H])c(Oc7c([H])c([H])c(F)c([H])c7F)c([H])c6[H])c(C(=O)N([H])[H])c5N([H])[H])C4([H])[H])C([H])(C([H])([H])[H])C3([H])[H])c([H])c([H])c2C1([H])[H]

$$$$
4:0:0
     RDKit          3D

 91 99  0  0  1  0  0  0  0  0999 V2000
  -28.2830  -21.7920   21.1170 C   0  0  0  0  0  2  0  0  0  0  0  0
  -29.3610  -20.7870   20.4580 C   0  0  0  0  0  3  0  0  0  0  0  0
  -28.8150  -23.1490   20.4160 C   0  0  0  0  0  3  0  0  0  0  0  0
  -29.2370  -21.9850   19.3700 C   0  0  0  0  0  3  0  0  0  0  0  0
  -30.4900  -22.2850   18.6390 N   0  0  0  0  0  4  0  0  0  0  0  0
  -31.2680  -22.4240   19.2600 H   0  0  0  0  0  0  0  0  0  0  0  0
  -30.3850  -23.1250   18.0970 H   0  0  0  0  0  0  0  0  0  0  0  0
  -30.7250  -21.5460   18.0020 H   0  0  0  0  0  0  0  0  0  0  0  0
  -29.0570  -19.1400   20.1740 C   0  0  0  0  0  0  0  0  0  0  0  0
  -27.9700  -18.7840   19.7110 O   0  0  0  0  0  0  0  0  0  0  0  0
  -30.1060  -17.8610   20.4650 C   0  0  0  0  0  2  0  0  0  0  0  0
  -30.4910  -15.0860   20.3060 C   0  0  0  0  0  0  0  0  0  0  0  0
  -30.3910  -12.7120   19.3790 C   0  0  0  0  0  2  0  0  0  0  0  0
  -29.4600  -12.6360   18.1480 C   0  0  0  0  0  2  0  0  0  0  0  0
  -28.0030  -12.3960   18.5880 C   0  0  0  0  0  2  0  0  0  0  0  0
  -27.5860  -13.3220   19.7600 C   0  0  0  0  0  3  0  0  0  0  0  0
  -28.6440  -13.3790   20.8820 C   0  0  0  0  0  2  0  0  0  0  0  0
  -29.8970  -13.8180   20.2540 N   0  0  0  0  0  0  0  0  0  0  0  0
  -31.7020  -15.1290   20.0660 O   0  0  0  0  0  0  0  0  0  0  0  0
  -29.7260  -16.2980   20.4170 N   0  0  0  0  0  0  0  0  0  0  0  0
  -28.7350  -16.1370   20.5130 H   0  0  0  0  0  0  0  0  0  0  0  0
  -25.2090  -13.8770   20.5120 C   0  0  0  0  0  0  0  0  0  0  0  0
  -24.1530  -13.0950   20.8860 C   0  0  0  0  0  0  0  0  0  0  0  0
  -24.6290  -11.7470   20.8540 C   0  0  0  0  0  0  0  0  0  0  0  0
  -26.2570  -13.0070   20.2670 N   0  0  0  0  0  0  0  0  0  0  0  0
  -25.9190  -11.7210   20.5390 N   0  0  0  0  0  0  0  0  0  0  0  0
  -23.9130  -10.4800   21.0460 C   0  0  0  0  0  0  0  0  0  0  0  0
  -24.3560   -9.5120   21.9750 C   0  0  0  0  0  3  0  0  0  0  0  0
  -23.6380   -8.3110   22.1560 C   0  0  0  0  0  3  0  0  0  0  0  0
  -22.4610   -8.0680   21.4080 C   0  0  0  0  0  0  0  0  0  0  0  0
  -22.0360   -9.0240   20.4690 C   0  0  0  0  0  3  0  0  0  0  0  0
  -22.7550  -10.2170   20.2870 C   0  0  0  0  0  3  0  0  0  0  0  0
  -21.7140   -6.9190   21.5000 O   0  0  0  0  0  0  0  0  0  0  0  0
  -21.6810   -6.1700   22.6490 C   0  0  0  0  0  0  0  0  0  0  0  0
  -21.2580   -6.7150   23.8810 C   0  0  0  0  0  3  0  0  0  0  0  0
  -21.1720   -5.8910   25.0220 C   0  0  0  0  0  3  0  0  0  0  0  0
  -21.5010   -4.5260   24.9320 C   0  0  0  0  0  0  0  0  0  0  0  0
  -21.9180   -3.9820   23.7050 C   0  0  0  0  0  3  0  0  0  0  0  0
  -22.0050   -4.8010   22.5660 C   0  0  0  0  0  0  0  0  0  0  0  0
  -22.3860   -4.2670   21.3810 F   0  0  0  0  0  0  0  0  0  0  0  0
  -21.4130   -3.7320   26.0250 F   0  0  0  0  0  0  0  0  0  0  0  0
  -22.7540  -13.5610   21.1580 C   0  0  0  0  0  0  0  0  0  0  0  0
  -22.0340  -12.8660   22.0290 N   0  0  0  0  0  0  0  0  0  0  0  0
  -22.3090  -14.5820   20.6330 O   0  0  0  0  0  0  0  0  0  0  0  0
  -22.4050  -12.0390   22.4730 H   0  0  0  0  0  0  0  0  0  0  0  0
  -21.0970  -13.1660   22.2590 H   0  0  0  0  0  0  0  0  0  0  0  0
  -25.3570  -15.2490   20.3320 N   0  0  0  0  0  0  0  0  0  0  0  0
  -24.5760  -15.8860   20.4400 H   0  0  0  0  0  0  0  0  0  0  0  0
  -26.1830  -15.7010   19.9630 H   0  0  0  0  0  0  0  0  0  0  0  0
  -27.8940  -24.5710   20.1120 C   0  0  0  0  0  2  0  0  0  0  0  0
  -28.2000  -26.1110   20.3190 O   0  0  0  0  0  0  0  0  0  0  0  0
  -24.6330  -31.9140   23.2710 C   0  0  0  0  0  0  0  0  0  0  0  0
  -27.1730  -27.1400   20.2430 C   0  0  0  0  0  0  0  0  0  0  0  0
  -23.4290  -30.5260   21.6320 C   0  0  0  0  0  3  0  0  0  0  0  0
  -24.8670  -28.9370   20.2070 C   0  0  0  0  0  0  0  0  0  0  0  0
  -25.9870  -30.7580   21.4760 C   0  0  0  0  0  2  0  0  0  0  0  0
  -26.0510  -29.3620   20.8220 C   0  0  0  0  0  0  0  0  0  0  0  0
  -27.2040  -28.4790   20.8220 C   0  0  0  0  0  3  0  0  0  0  0  0
  -25.9620  -26.8330   19.5820 C   0  0  0  0  0  3  0  0  0  0  0  0
  -24.8390  -27.6890   19.5680 C   0  0  0  0  0  3  0  0  0  0  0  0
  -23.6490  -29.8500   20.2520 C   0  0  0  0  0  2  0  0  0  0  0  0
  -24.7030  -31.0880   22.1810 N   0  0  0  0  0  0  0  0  0  0  0  0
  -23.5480  -32.2060   23.7970 O   0  0  0  0  0  0  0  0  0  0  0  0
  -22.7400  -29.5240   22.5920 C   0  0  0  0  0  0  0  0  0  0  0  0
  -21.4110  -29.3560   22.4620 N   0  0  0  0  0  0  0  0  0  0  0  0
  -23.4050  -28.8960   23.4200 O   0  0  0  0  0  0  0  0  0  0  0  0
  -20.9300  -29.9200   21.7750 H   0  0  0  0  0  0  0  0  0  0  0  0
  -18.0250  -28.1600   22.9540 C   0  0  0  0  0  0  0  0  0  0  0  0
  -20.5840  -28.4240   23.2340 C   0  0  0  0  0  3  0  0  0  0  0  0
  -20.6870  -26.9880   22.6700 C   0  0  0  0  0  2  0  0  0  0  0  0
  -19.5930  -26.6590   21.6500 C   0  0  0  0  0  2  0  0  0  0  0  0
  -18.2050  -26.8070   22.2840 C   0  0  0  0  0  2  0  0  0  0  0  0
  -19.1420  -28.9250   23.3830 C   0  0  0  0  0  0  0  0  0  0  0  0
  -18.9180  -30.1890   23.9710 C   0  0  0  0  0  3  0  0  0  0  0  0
  -17.6120  -30.6900   24.1280 C   0  0  0  0  0  3  0  0  0  0  0  0
  -16.5110  -29.9230   23.7110 C   0  0  0  0  0  3  0  0  0  0  0  0
  -16.7180  -28.6600   23.1290 C   0  0  0  0  0  3  0  0  0  0  0  0
  -25.9140  -32.5430   23.9000 C   0  0  0  0  0  3  0  0  0  0  0  0
  -26.4120  -31.7780   25.1870 C   0  0  1  0  0  0  0  0  0  0  0  0
  -25.3090  -31.5590   26.2500 C   0  0  0  0  0  1  0  0  0  0  0  0
  -26.9860  -30.3920   24.8160 C   0  0  0  0  0  1  0  0  0  0  0  0
  -27.5630  -32.5720   25.8500 C   0  0  0  0  0  1  0  0  0  0  0  0
  -25.6070  -33.9430   24.2260 N   0  0  0  0  0  0  0  0  0  0  0  0
  -25.9250  -34.9960   23.4610 C   0  0  0  0  0  0  0  0  0  0  0  0
  -26.5730  -34.8900   22.4160 O   0  0  0  0  0  0  0  0  0  0  0  0
  -25.0270  -34.0990   25.0380 H   0  0  0  0  0  0  0  0  0  0  0  0
  -24.1800  -36.7890   23.1660 C   0  0  0  0  0  1  0  0  0  0  0  0
  -25.4530  -36.3880   23.9280 C   0  0  0  0  0  3  0  0  0  0  0  0
  -27.6150  -37.2890   24.6700 C   0  0  0  0  0  1  0  0  0  0  0  0
  -26.4770  -37.4440   23.7660 N   0  0  0  0  0  0  0  0  0  0  0  0
  -26.0730  -38.3630   23.9240 H   0  0  0  0  0  0  0  0  0  0  0  0
  2  9  1  0
  2  1  1  0
  3 50  1  0
  3  1  1  0
  4  5  1  0
  4  3  1  0
  4  2  1  0
  5  6  1  0
  7  5  1  0
  8  5  1  0
  9 11  1  0
 10  9  2  0
 12 20  1  0
 13 18  1  0
 14 15  1  0
 14 13  1  0
 16 15  1  0
 16 25  1  0
 16 17  1  0
 18 12  1  0
 18 17  1  0
 19 12  2  0
 20 11  1  0
 20 21  1  0
 22 23  2  0
 23 42  1  0
 24 23  1  0
 24 27  1  0
 25 22  1  0
 25 26  1  0
 26 24  2  0
 27 28  1  0
 28 29  2  0
 30 33  1  0
 30 29  1  0
 31 30  2  0
 32 31  1  0
 32 27  2  0
 33 34  1  0
 34 35  1  0
 35 36  2  0
 37 36  1  0
 37 41  1  0
 38 37  2  0
 39 34  2  0
 39 38  1  0
 40 39  1  0
 42 43  1  0
 43 46  1  0
 43 45  1  0
 44 42  2  0
 47 48  1  0
 47 22  1  0
 49 47  1  0
 50 51  1  0
 52 63  2  0
 53 51  1  0
 53 58  1  0
 54 62  1  0
 54 64  1  0
 55 61  1  0
 55 57  1  0
 56 62  1  0
 57 56  1  0
 58 57  2  0
 59 53  2  0
 60 59  1  0
 60 55  2  0
 61 54  1  0
 62 52  1  0
 64 66  2  0
 65 64  1  0
 67 65  1  0
 68 77  2  0
 68 73  1  0
 69 65  1  0
 69 73  1  0
 70 69  1  0
 71 72  1  0
 71 70  1  0
 72 68  1  0
 73 74  2  0
 74 75  1  0
 76 75  2  0
 77 76  1  0
 78 52  1  0
 78 83  1  0
 78 79  1  0
 79 82  1  1
 79 80  1  0
 81 79  1  0
 83 86  1  0
 84 88  1  0
 84 83  1  0
 85 84  2  0
 88 87  1  0
 90 91  1  0
 90 88  1  0
 90 89  1  0
M  ISO  4  12 100  20 100  50 101  51 101
M  END
>  <TORSDO>  (5) 
F 20

>  <SCORE>  (5) 
-15.068

>  <name>  (5) 
4

>  <ligand_id>  (5) 
4

>  <original_smiles>  (5) 
[H]c1c([H])c([H])c2c(c1[H])C([H])([H])C([H])([H])C([H])([H])C2([H])N([H])C(=O)C1([H])N(C(=O)C([H])(N([H])C(=O)C([H])(N([H])C([H])([H])[H])C([H])([H])[H])C(C([H])([H])[H])(C([H])([H])[H])C([H])([H])[H])C([H])([H])c2c([H])c(OC([H])([H])C3([H])C([H])([H])C([H])(C(=O)C([H])([H])N([H])C(=O)N4C([H])([H])C([H])([H])C([H])([H])C([H])(n5nc(-c6c([H])c([H])c(Oc7c([H])c([H])c(F)c([H])c7F)c([H])c6[H])c(C(=O)N([H])[H])c5N([H])[H])C4([H])[H])C3([H])[N+]([H])([H])[H])c([H])c([H])c2C1([H])[H]

>  <smiles>  (5) 
[H]c1c([H])c([H])c2c(c1[H])C([H])([H])C([H])([H])C([H])([H])C2([H])N([H])C(=O)C1([H])N(C(=O)C([H])(N([H])C(=O)C([H])(N([H])C([H])([H])[H])C([H])([H])[H])C(C([H])([H])[H])(C([H])([H])[H])C([H])([H])[H])C([H])([H])c2c([H])c(OC([H])([H])C3([H])C([H])([H])C([H])(C(=O)C([H])([H])N([H])C(=O)N4C([H])([H])C([H])([H])C([H])([H])C([H])(n5nc(-c6c([H])c([H])c(Oc7c([H])c([H])c(F)c([H])c7F)c([H])c6[H])c(C(=O)N([H])[H])c5N([H])[H])C4([H])[H])C3([H])[N+]([H])([H])[H])c([H])c([H])c2C1([H])[H]

$$$$
5:0:0
     RDKit          3D

 88 96  0  0  1  0  0  0  0  0999 V2000
  -29.6340  -22.7830   21.3880 C   0  0  0  0  0  2  0  0  0  0  0  0
  -29.5770  -24.3500   21.3280 C   0  0  0  0  0  2  0  0  0  0  0  0
  -28.4580  -23.4970   19.4350 C   0  0  0  0  0  2  0  0  0  0  0  0
  -29.3520  -22.2100   19.9790 C   0  0  0  0  0  3  0  0  0  0  0  0
  -28.3840  -24.7950   20.4470 C   0  0  0  0  0  3  0  0  0  0  0  0
  -27.9420  -20.1760   20.9920 C   0  0  0  0  0  1  0  0  0  0  0  0
  -28.9400  -20.5600   19.8920 C   0  0  0  0  0  3  0  0  0  0  0  0
  -29.9070  -19.2110   19.5130 C   0  0  0  0  0  2  0  0  0  0  0  0
  -30.2660  -17.8350   20.4290 C   0  0  0  0  0  2  0  0  0  0  0  0
  -30.8290  -15.1310   20.0050 C   0  0  0  0  0  0  0  0  0  0  0  0
  -30.6680  -12.7770   19.0690 C   0  0  0  0  0  2  0  0  0  0  0  0
  -29.7050  -12.7330   17.8600 C   0  0  0  0  0  2  0  0  0  0  0  0
  -28.2450  -12.5600   18.3240 C   0  0  0  0  0  2  0  0  0  0  0  0
  -27.8770  -13.5010   19.5010 C   0  0  0  0  0  3  0  0  0  0  0  0
  -28.9560  -13.4960   20.6020 C   0  0  0  0  0  2  0  0  0  0  0  0
  -30.2150  -13.8820   19.9550 N   0  0  0  0  0  0  0  0  0  0  0  0
  -32.0490  -15.1760   19.8130 O   0  0  0  0  0  0  0  0  0  0  0  0
  -30.0370  -16.3130   20.0530 N   0  0  0  0  0  0  0  0  0  0  0  0
  -29.0560  -16.0820   20.0030 H   0  0  0  0  0  0  0  0  0  0  0  0
  -25.5200  -14.1340   20.2710 C   0  0  0  0  0  0  0  0  0  0  0  0
  -24.4470  -13.3820   20.6620 C   0  0  0  0  0  0  0  0  0  0  0  0
  -24.8870  -12.0230   20.6390 C   0  0  0  0  0  0  0  0  0  0  0  0
  -26.5440  -13.2340   20.0260 N   0  0  0  0  0  0  0  0  0  0  0  0
  -26.1730  -11.9600   20.3160 N   0  0  0  0  0  0  0  0  0  0  0  0
  -24.1410  -10.7760   20.8470 C   0  0  0  0  0  0  0  0  0  0  0  0
  -24.5370   -9.8300   21.8180 C   0  0  0  0  0  3  0  0  0  0  0  0
  -23.7900   -8.6480   22.0140 C   0  0  0  0  0  3  0  0  0  0  0  0
  -22.6320   -8.4040   21.2380 C   0  0  0  0  0  0  0  0  0  0  0  0
  -22.2540   -9.3380   20.2570 C   0  0  0  0  0  3  0  0  0  0  0  0
  -23.0020  -10.5110   20.0600 C   0  0  0  0  0  3  0  0  0  0  0  0
  -21.8600   -7.2720   21.3400 O   0  0  0  0  0  0  0  0  0  0  0  0
  -21.7400   -6.5880   22.5220 C   0  0  0  0  0  0  0  0  0  0  0  0
  -21.2490   -7.2050   23.6940 C   0  0  0  0  0  3  0  0  0  0  0  0
  -21.0770   -6.4470   24.8690 C   0  0  0  0  0  3  0  0  0  0  0  0
  -21.3840   -5.0740   24.8730 C   0  0  0  0  0  0  0  0  0  0  0  0
  -21.8680   -4.4560   23.7070 C   0  0  0  0  0  3  0  0  0  0  0  0
  -22.0410   -5.2110   22.5340 C   0  0  0  0  0  0  0  0  0  0  0  0
  -22.4870   -4.6070   21.4070 F   0  0  0  0  0  0  0  0  0  0  0  0
  -21.2130   -4.3440   25.9990 F   0  0  0  0  0  0  0  0  0  0  0  0
  -23.0610  -13.8860   20.9410 C   0  0  0  0  0  0  0  0  0  0  0  0
  -22.3350  -13.2180   21.8310 N   0  0  0  0  0  0  0  0  0  0  0  0
  -22.6330  -14.9070   20.4040 O   0  0  0  0  0  0  0  0  0  0  0  0
  -22.6960  -12.3920   22.2840 H   0  0  0  0  0  0  0  0  0  0  0  0
  -21.4050  -13.5380   22.0630 H   0  0  0  0  0  0  0  0  0  0  0  0
  -25.7020  -15.5000   20.0750 N   0  0  0  0  0  0  0  0  0  0  0  0
  -24.9400  -16.1610   20.1830 H   0  0  0  0  0  0  0  0  0  0  0  0
  -26.5350  -15.9240   19.6900 H   0  0  0  0  0  0  0  0  0  0  0  0
  -28.4540  -26.3310   20.1710 O   0  0  0  0  0  0  0  0  0  0  0  0
  -24.6620  -31.8940   23.2400 C   0  0  0  0  0  0  0  0  0  0  0  0
  -27.3410  -27.2440   20.2010 C   0  0  0  0  0  0  0  0  0  0  0  0
  -23.4940  -30.4850   21.5890 C   0  0  0  0  0  3  0  0  0  0  0  0
  -24.9740  -28.9320   20.1730 C   0  0  0  0  0  0  0  0  0  0  0  0
  -26.0420  -30.8000   21.4310 C   0  0  0  0  0  2  0  0  0  0  0  0
  -26.1440  -29.4090   20.7780 C   0  0  0  0  0  0  0  0  0  0  0  0
  -27.3290  -28.5830   20.7670 C   0  0  0  0  0  3  0  0  0  0  0  0
  -26.1400  -26.8520   19.5790 C   0  0  0  0  0  3  0  0  0  0  0  0
  -24.9830  -27.6670   19.5620 C   0  0  0  0  0  3  0  0  0  0  0  0
  -23.7320  -29.8120   20.2110 C   0  0  0  0  0  2  0  0  0  0  0  0
  -24.7520  -31.0830   22.1420 N   0  0  0  0  0  0  0  0  0  0  0  0
  -23.5680  -32.1580   23.7630 O   0  0  0  0  0  0  0  0  0  0  0  0
  -22.8270  -29.4650   22.5440 C   0  0  0  0  0  0  0  0  0  0  0  0
  -21.5000  -29.2830   22.4180 N   0  0  0  0  0  0  0  0  0  0  0  0
  -23.5050  -28.8380   23.3620 O   0  0  0  0  0  0  0  0  0  0  0  0
  -21.0090  -29.8390   21.7330 H   0  0  0  0  0  0  0  0  0  0  0  0
  -18.1270  -28.0630   22.9250 C   0  0  0  0  0  0  0  0  0  0  0  0
  -20.6870  -28.3330   23.1800 C   0  0  0  0  0  3  0  0  0  0  0  0
  -20.7900  -26.9090   22.5830 C   0  0  0  0  0  2  0  0  0  0  0  0
  -19.6830  -26.5970   21.5720 C   0  0  0  0  0  2  0  0  0  0  0  0
  -18.3040  -26.7250   22.2270 C   0  0  0  0  0  2  0  0  0  0  0  0
  -19.2450  -28.8250   23.3570 C   0  0  0  0  0  0  0  0  0  0  0  0
  -19.0230  -30.0770   23.9710 C   0  0  0  0  0  3  0  0  0  0  0  0
  -17.7170  -30.5670   24.1570 C   0  0  0  0  0  3  0  0  0  0  0  0
  -16.6130  -29.8020   23.7390 C   0  0  0  0  0  3  0  0  0  0  0  0
  -16.8190  -28.5520   23.1280 C   0  0  0  0  0  3  0  0  0  0  0  0
  -25.9260  -32.5490   23.8790 C   0  0  0  0  0  3  0  0  0  0  0  0
  -26.4200  -31.8010   25.1780 C   0  0  1  0  0  0  0  0  0  0  0  0
  -25.3070  -31.5710   26.2290 C   0  0  0  0  0  1  0  0  0  0  0  0
  -27.0220  -30.4220   24.8230 C   0  0  0  0  0  1  0  0  0  0  0  0
  -27.5540  -32.6140   25.8490 C   0  0  0  0  0  1  0  0  0  0  0  0
  -25.5980  -33.9500   24.1890 N   0  0  0  0  0  0  0  0  0  0  0  0
  -25.9310  -35.0000   23.4260 C   0  0  0  0  0  0  0  0  0  0  0  0
  -26.6120  -34.8910   22.4020 O   0  0  0  0  0  0  0  0  0  0  0  0
  -24.9960  -34.1080   24.9830 H   0  0  0  0  0  0  0  0  0  0  0  0
  -24.1890  -36.7770   23.0430 C   0  0  0  0  0  1  0  0  0  0  0  0
  -25.4290  -36.3900   23.8650 C   0  0  0  0  0  3  0  0  0  0  0  0
  -27.5510  -37.3030   24.6980 C   0  0  0  0  0  1  0  0  0  0  0  0
  -26.4530  -37.4520   23.7470 N   0  0  0  0  0  0  0  0  0  0  0  0
  -26.0370  -38.3690   23.8840 H   0  0  0  0  0  0  0  0  0  0  0  0
  2  1  1  0
  3  4  1  0
  3  5  1  0
  4  7  1  0
  4  1  1  0
  5 48  1  0
  5  2  1  0
  7  6  1  0
  8  7  1  0
  8  9  1  0
 10 18  1  0
 11 16  1  0
 12 13  1  0
 12 11  1  0
 14 13  1  0
 14 23  1  0
 14 15  1  0
 16 10  1  0
 16 15  1  0
 17 10  2  0
 18  9  1  0
 19 18  1  0
 20 21  2  0
 21 40  1  0
 22 21  1  0
 22 25  1  0
 23 20  1  0
 23 24  1  0
 24 22  2  0
 25 26  1  0
 26 27  2  0
 28 31  1  0
 28 27  1  0
 29 28  2  0
 30 29  1  0
 30 25  2  0
 31 32  1  0
 32 37  2  0
 32 33  1  0
 33 34  2  0
 34 35  1  0
 35 39  1  0
 36 35  2  0
 37 36  1  0
 38 37  1  0
 40 41  1  0
 41 44  1  0
 41 43  1  0
 42 40  2  0
 45 46  1  0
 45 20  1  0
 47 45  1  0
 48 50  1  0
 49 60  2  0
 50 55  1  0
 51 59  1  0
 51 61  1  0
 52 58  1  0
 52 54  1  0
 53 59  1  0
 54 53  1  0
 55 54  2  0
 56 50  2  0
 57 56  1  0
 57 52  2  0
 58 51  1  0
 59 49  1  0
 61 63  2  0
 62 61  1  0
 64 62  1  0
 65 74  2  0
 65 70  1  0
 66 62  1  0
 66 70  1  0
 67 66  1  0
 68 69  1  0
 68 67  1  0
 69 65  1  0
 70 71  2  0
 71 72  1  0
 73 72  2  0
 74 73  1  0
 75 49  1  0
 75 80  1  0
 75 76  1  0
 76 79  1  1
 76 77  1  0
 78 76  1  0
 80 83  1  0
 81 85  1  0
 81 80  1  0
 82 81  2  0
 85 84  1  0
 87 85  1  0
 87 88  1  0
 87 86  1  0
M  ISO  4   5 101  10 100  18 100  48 101
M  END
>  <TORSDO>  (6) 
F 19

>  <SCORE>  (6) 
-14.275

>  <name>  (6) 
5

>  <ligand_id>  (6) 
5

>  <original_smiles>  (6) 
[H]c1c([H])c([H])c2c(c1[H])C([H])([H])C([H])([H])C([H])([H])C2([H])N([H])C(=O)C1([H])N(C(=O)C([H])(N([H])C(=O)C([H])(N([H])C([H])([H])[H])C([H])([H])[H])C(C([H])([H])[H])(C([H])([H])[H])C([H])([H])[H])C([H])([H])c2c([H])c(OC3([H])C([H])([H])C([H])([H])C([H])(C([H])(C([H])([H])[H])C([H])([H])C([H])([H])N([H])C(=O)N4C([H])([H])C([H])([H])C([H])([H])C([H])(n5nc(-c6c([H])c([H])c(Oc7c([H])c([H])c(F)c([H])c7F)c([H])c6[H])c(C(=O)N([H])[H])c5N([H])[H])C4([H])[H])C3([H])[H])c([H])c([H])c2C1([H])[H]

>  <smiles>  (6) 
[H]c1c([H])c([H])c2c(c1[H])C([H])([H])C([H])([H])C([H])([H])C2([H])N([H])C(=O)C1([H])N(C(=O)C([H])(N([H])C(=O)C([H])(N([H])C([H])([H])[H])C([H])([H])[H])C(C([H])([H])[H])(C([H])([H])[H])C([H])([H])[H])C([H])([H])c2c([H])c(OC3([H])C([H])([H])C([H])([H])C([H])(C([H])(C([H])([H])[H])C([H])([H])C([H])([H])N([H])C(=O)N4C([H])([H])C([H])([H])C([H])([H])C([H])(n5nc(-c6c([H])c([H])c(Oc7c([H])c([H])c(F)c([H])c7F)c([H])c6[H])c(C(=O)N([H])[H])c5N([H])[H])C4([H])[H])C3([H])[H])c([H])c([H])c2C1([H])[H]

$$$$
6:0:0
     RDKit          3D

 86 94  0  0  1  0  0  0  0  0999 V2000
  -30.0430  -22.9840   18.7920 C   0  0  0  0  0  1  0  0  0  0  0  0
  -28.8910  -22.5850   19.7310 C   0  0  0  0  0  3  0  0  0  0  0  0
  -30.1560  -19.6740   19.4630 C   0  0  0  0  0  2  0  0  0  0  0  0
  -28.6410  -19.4640   20.7220 C   0  0  0  0  0  2  0  0  0  0  0  0
  -29.3930  -20.8970   20.3200 C   0  0  0  0  0  3  0  0  0  0  0  0
  -29.8740  -18.3800   20.4570 C   0  0  0  0  0  3  0  0  0  0  0  0
  -30.3990  -15.4070   20.0220 C   0  0  0  0  0  0  0  0  0  0  0  0
  -30.3400  -12.9690   19.0650 C   0  0  0  0  0  2  0  0  0  0  0  0
  -29.3600  -12.6950   17.8960 C   0  0  0  0  0  2  0  0  0  0  0  0
  -27.9490  -12.3870   18.4200 C   0  0  0  0  0  2  0  0  0  0  0  0
  -27.5300  -13.3440   19.5590 C   0  0  0  0  0  3  0  0  0  0  0  0
  -28.6360  -13.5420   20.6190 C   0  0  0  0  0  2  0  0  0  0  0  0
  -29.8050  -14.1060   19.9100 N   0  0  0  0  0  0  0  0  0  0  0  0
  -31.6290  -15.3580   19.8630 O   0  0  0  0  0  0  0  0  0  0  0  0
  -29.6690  -16.7220   20.0960 N   0  0  0  0  0  0  0  0  0  0  0  0
  -28.6880  -16.5270   19.9630 H   0  0  0  0  0  0  0  0  0  0  0  0
  -25.1940  -13.8620   20.4410 C   0  0  0  0  0  0  0  0  0  0  0  0
  -24.1560  -13.0720   20.8410 C   0  0  0  0  0  0  0  0  0  0  0  0
  -24.6320  -11.7270   20.7670 C   0  0  0  0  0  0  0  0  0  0  0  0
  -26.2350  -13.0040   20.1360 N   0  0  0  0  0  0  0  0  0  0  0  0
  -25.9100  -11.7100   20.3970 N   0  0  0  0  0  0  0  0  0  0  0  0
  -23.9190  -10.4550   20.9640 C   0  0  0  0  0  0  0  0  0  0  0  0
  -24.3790   -9.4880   21.8850 C   0  0  0  0  0  3  0  0  0  0  0  0
  -23.6660   -8.2850   22.0750 C   0  0  0  0  0  3  0  0  0  0  0  0
  -22.4790   -8.0380   21.3440 C   0  0  0  0  0  0  0  0  0  0  0  0
  -22.0360   -8.9950   20.4130 C   0  0  0  0  0  3  0  0  0  0  0  0
  -22.7500  -10.1920   20.2220 C   0  0  0  0  0  3  0  0  0  0  0  0
  -21.7370   -6.8860   21.4430 O   0  0  0  0  0  0  0  0  0  0  0  0
  -21.7070   -6.1470   22.5990 C   0  0  0  0  0  0  0  0  0  0  0  0
  -21.2640   -6.6950   23.8220 C   0  0  0  0  0  3  0  0  0  0  0  0
  -21.1810   -5.8810   24.9690 C   0  0  0  0  0  3  0  0  0  0  0  0
  -21.5300   -4.5190   24.8940 C   0  0  0  0  0  0  0  0  0  0  0  0
  -21.9690   -3.9720   23.6760 C   0  0  0  0  0  3  0  0  0  0  0  0
  -22.0550   -4.7830   22.5310 C   0  0  0  0  0  0  0  0  0  0  0  0
  -22.4540   -4.2440   21.3550 F   0  0  0  0  0  0  0  0  0  0  0  0
  -21.4460   -3.7360   25.9950 F   0  0  0  0  0  0  0  0  0  0  0  0
  -22.7680  -13.5340   21.1760 C   0  0  0  0  0  0  0  0  0  0  0  0
  -22.0800  -12.8190   22.0560 N   0  0  0  0  0  0  0  0  0  0  0  0
  -22.3060  -14.5680   20.6910 O   0  0  0  0  0  0  0  0  0  0  0  0
  -22.4710  -11.9840   22.4680 H   0  0  0  0  0  0  0  0  0  0  0  0
  -21.1530  -13.1130   22.3270 H   0  0  0  0  0  0  0  0  0  0  0  0
  -25.3340  -15.2390   20.2810 N   0  0  0  0  0  0  0  0  0  0  0  0
  -24.5500  -15.8690   20.3950 H   0  0  0  0  0  0  0  0  0  0  0  0
  -26.1510  -15.6910   19.8950 H   0  0  0  0  0  0  0  0  0  0  0  0
  -28.3310  -24.1770   20.4940 C   0  0  0  0  0  2  0  0  0  0  0  0
  -28.3440  -25.8330   20.1600 O   0  0  0  0  0  0  0  0  0  0  0  0
  -24.6390  -31.8260   23.1670 C   0  0  0  0  0  0  0  0  0  0  0  0
  -27.2850  -26.9130   20.1990 C   0  0  0  0  0  0  0  0  0  0  0  0
  -23.4820  -30.4290   21.5020 C   0  0  0  0  0  3  0  0  0  0  0  0
  -24.9650  -28.8050   20.1290 C   0  0  0  0  0  0  0  0  0  0  0  0
  -26.0560  -30.6390   21.4050 C   0  0  0  0  0  2  0  0  0  0  0  0
  -26.1480  -29.2180   20.7550 C   0  0  0  0  0  0  0  0  0  0  0  0
  -27.3040  -28.2990   20.7470 C   0  0  0  0  0  3  0  0  0  0  0  0
  -26.0580  -26.6570   19.5450 C   0  0  0  0  0  3  0  0  0  0  0  0
  -24.9470  -27.5450   19.5080 C   0  0  0  0  0  3  0  0  0  0  0  0
  -23.7450  -29.7280   20.1380 C   0  0  0  0  0  2  0  0  0  0  0  0
  -24.7470  -30.9940   22.0790 N   0  0  0  0  0  0  0  0  0  0  0  0
  -23.5400  -32.1150   23.6650 O   0  0  0  0  0  0  0  0  0  0  0  0
  -22.7630  -29.4420   22.4580 C   0  0  0  0  0  0  0  0  0  0  0  0
  -21.4290  -29.3050   22.3280 N   0  0  0  0  0  0  0  0  0  0  0  0
  -23.4130  -28.7960   23.2850 O   0  0  0  0  0  0  0  0  0  0  0  0
  -20.9600  -29.8670   21.6340 H   0  0  0  0  0  0  0  0  0  0  0  0
  -18.0220  -28.1690   22.8550 C   0  0  0  0  0  0  0  0  0  0  0  0
  -20.5910  -28.3730   23.0910 C   0  0  0  0  0  3  0  0  0  0  0  0
  -20.6480  -26.9500   22.4860 C   0  0  0  0  0  2  0  0  0  0  0  0
  -19.5290  -26.6800   21.4750 C   0  0  0  0  0  2  0  0  0  0  0  0
  -18.1610  -26.8340   22.1430 C   0  0  0  0  0  2  0  0  0  0  0  0
  -19.1630  -28.8980   23.2880 C   0  0  0  0  0  0  0  0  0  0  0  0
  -18.9750  -30.1440   23.9230 C   0  0  0  0  0  3  0  0  0  0  0  0
  -17.6820  -30.6640   24.1240 C   0  0  0  0  0  3  0  0  0  0  0  0
  -16.5570  -29.9340   23.7010 C   0  0  0  0  0  3  0  0  0  0  0  0
  -16.7280  -28.6870   23.0750 C   0  0  0  0  0  3  0  0  0  0  0  0
  -25.8930  -32.4740   23.8290 C   0  0  0  0  0  3  0  0  0  0  0  0
  -25.5640  -33.8740   24.1550 N   0  0  0  0  0  0  0  0  0  0  0  0
  -25.9180  -34.9370   23.4180 C   0  0  0  0  0  0  0  0  0  0  0  0
  -26.6140  -34.8390   22.4030 O   0  0  0  0  0  0  0  0  0  0  0  0
  -24.9410  -34.0200   24.9350 H   0  0  0  0  0  0  0  0  0  0  0  0
  -24.2120  -36.7480   23.0420 C   0  0  0  0  0  1  0  0  0  0  0  0
  -25.4340  -36.3280   23.8770 C   0  0  0  0  0  3  0  0  0  0  0  0
  -27.5390  -37.2140   24.7790 C   0  0  0  0  0  1  0  0  0  0  0  0
  -26.4810  -37.3700   23.7830 N   0  0  0  0  0  0  0  0  0  0  0  0
  -26.0820  -38.3000   23.8800 H   0  0  0  0  0  0  0  0  0  0  0  0
  -26.3690  -31.7130   25.1270 C   0  0  1  0  0  0  0  0  0  0  0  0
  -25.2460  -31.4870   26.1680 C   0  0  0  0  0  1  0  0  0  0  0  0
  -26.9570  -30.3290   24.7760 C   0  0  0  0  0  1  0  0  0  0  0  0
  -27.5070  -32.5080   25.8120 C   0  0  0  0  0  1  0  0  0  0  0  0
  2  1  1  0
  2 45  1  0
  3  5  1  0
  3  6  1  0
  5  2  1  0
  5  4  1  0
  6 15  1  0
  6  4  1  0
  7 15  1  0
  8 13  1  0
  9 10  1  0
  9  8  1  0
 11 10  1  0
 11 20  1  0
 11 12  1  0
 13  7  1  0
 13 12  1  0
 14  7  2  0
 16 15  1  0
 17 18  2  0
 18 37  1  0
 19 18  1  0
 19 22  1  0
 20 21  1  0
 20 17  1  0
 21 19  2  0
 22 23  1  0
 23 24  2  0
 25 28  1  0
 25 24  1  0
 26 25  2  0
 27 26  1  0
 27 22  2  0
 28 29  1  0
 29 30  1  0
 30 31  2  0
 32 31  1  0
 32 36  1  0
 33 32  2  0
 34 29  2  0
 34 33  1  0
 35 34  1  0
 37 38  1  0
 38 41  1  0
 38 40  1  0
 39 37  2  0
 42 43  1  0
 42 17  1  0
 44 42  1  0
 46 48  1  0
 46 45  1  0
 47 58  2  0
 48 53  1  0
 49 57  1  0
 49 59  1  0
 50 56  1  0
 50 52  1  0
 51 57  1  0
 52 51  1  0
 53 52  2  0
 54 48  2  0
 55 54  1  0
 55 50  2  0
 56 49  1  0
 57 47  1  0
 59 61  2  0
 60 59  1  0
 62 60  1  0
 63 72  2  0
 63 68  1  0
 64 60  1  0
 64 68  1  0
 65 64  1  0
 66 67  1  0
 66 65  1  0
 67 63  1  0
 68 69  2  0
 69 70  1  0
 71 70  2  0
 72 71  1  0
 73 47  1  0
 73 74  1  0
 73 83  1  0
 74 77  1  0
 75 79  1  0
 75 74  1  0
 76 75  2  0
 79 78  1  0
 81 79  1  0
 81 82  1  0
 81 80  1  0
 83 86  1  1
 83 84  1  0
 85 83  1  0
M  ISO  4   7 100  15 100  45 101  46 101
M  END
>  <TORSDO>  (7) 
F 18

>  <SCORE>  (7) 
-16.374

>  <name>  (7) 
6

>  <ligand_id>  (7) 
6

>  <original_smiles>  (7) 
[H]c1c([H])c([H])c2c(c1[H])C([H])([H])C([H])([H])C([H])([H])C2([H])N([H])C(=O)C1([H])N(C(=O)C([H])(N([H])C(=O)C([H])(N([H])C([H])([H])[H])C([H])([H])[H])C(C([H])([H])[H])(C([H])([H])[H])C([H])([H])[H])C([H])([H])c2c([H])c(OC([H])([H])C([H])(C([H])([H])[H])C3([H])C([H])([H])C([H])(N([H])C(=O)N4C([H])([H])C([H])([H])C([H])([H])C([H])(n5nc(-c6c([H])c([H])c(Oc7c([H])c([H])c(F)c([H])c7F)c([H])c6[H])c(C(=O)N([H])[H])c5N([H])[H])C4([H])[H])C3([H])[H])c([H])c([H])c2C1([H])[H]

>  <smiles>  (7) 
[H]c1c([H])c([H])c2c(c1[H])C([H])([H])C([H])([H])C([H])([H])C2([H])N([H])C(=O)C1([H])N(C(=O)C([H])(N([H])C(=O)C([H])(N([H])C([H])([H])[H])C([H])([H])[H])C(C([H])([H])[H])(C([H])([H])[H])C([H])([H])[H])C([H])([H])c2c([H])c(OC([H])([H])C([H])(C([H])([H])[H])C3([H])C([H])([H])C([H])(N([H])C(=O)N4C([H])([H])C([H])([H])C([H])([H])C([H])(n5nc(-c6c([H])c([H])c(Oc7c([H])c([H])c(F)c([H])c7F)c([H])c6[H])c(C(=O)N([H])[H])c5N([H])[H])C4([H])[H])C3([H])[H])c([H])c([H])c2C1([H])[H]

$$$$
7:0:0
     RDKit          3D

 89 97  0  0  1  0  0  0  0  0999 V2000
  -28.8650  -19.8810   20.0090 C   0  0  0  0  0  2  0  0  0  0  0  0
  -30.3850  -19.3740   21.6640 C   0  0  0  0  0  2  0  0  0  0  0  0
  -29.9420  -18.6210   20.3750 C   0  0  0  0  0  3  0  0  0  0  0  0
  -29.4290  -21.4170   20.3930 C   0  0  0  0  0  3  0  0  0  0  0  0
  -30.3360  -20.8990   21.4830 N   0  0  0  0  0  4  0  0  0  0  0  0
  -31.2690  -21.2190   21.2760 H   0  0  0  0  0  0  0  0  0  0  0  0
  -30.0820  -21.3080   22.3660 H   0  0  0  0  0  0  0  0  0  0  0  0
  -28.6980  -23.0080   20.7860 C   0  0  0  0  0  2  0  0  0  0  0  0
  -28.1970  -24.4880   19.9490 C   0  0  0  0  0  2  0  0  0  0  0  0
  -28.2150  -26.0690   20.3520 O   0  0  0  0  0  0  0  0  0  0  0  0
  -24.5490  -31.9430   23.2090 C   0  0  0  0  0  0  0  0  0  0  0  0
  -27.1680  -27.1100   20.2300 C   0  0  0  0  0  0  0  0  0  0  0  0
  -23.3680  -30.5190   21.5820 C   0  0  0  0  0  3  0  0  0  0  0  0
  -24.8340  -28.9240   20.1700 C   0  0  0  0  0  0  0  0  0  0  0  0
  -25.9270  -30.7710   21.4280 C   0  0  0  0  0  2  0  0  0  0  0  0
  -26.0130  -29.3600   20.7870 C   0  0  0  0  0  0  0  0  0  0  0  0
  -27.1710  -28.4700   20.7990 C   0  0  0  0  0  3  0  0  0  0  0  0
  -25.9600  -26.8150   19.5560 C   0  0  0  0  0  3  0  0  0  0  0  0
  -24.8290  -27.6710   19.5350 C   0  0  0  0  0  3  0  0  0  0  0  0
  -23.6020  -29.8260   20.2120 C   0  0  0  0  0  2  0  0  0  0  0  0
  -24.6350  -31.1040   22.1270 N   0  0  0  0  0  0  0  0  0  0  0  0
  -23.4590  -32.2250   23.7310 O   0  0  0  0  0  0  0  0  0  0  0  0
  -22.6870  -29.5240   22.5560 C   0  0  0  0  0  0  0  0  0  0  0  0
  -21.3570  -29.3520   22.4380 N   0  0  0  0  0  0  0  0  0  0  0  0
  -23.3600  -28.9070   23.3850 O   0  0  0  0  0  0  0  0  0  0  0  0
  -20.8690  -29.9020   21.7470 H   0  0  0  0  0  0  0  0  0  0  0  0
  -17.9820  -28.1400   22.9720 C   0  0  0  0  0  0  0  0  0  0  0  0
  -20.5410  -28.4150   23.2190 C   0  0  0  0  0  3  0  0  0  0  0  0
  -20.6450  -26.9800   22.6490 C   0  0  0  0  0  2  0  0  0  0  0  0
  -19.5370  -26.6510   21.6430 C   0  0  0  0  0  2  0  0  0  0  0  0
  -18.1590  -26.7900   22.2960 C   0  0  0  0  0  2  0  0  0  0  0  0
  -19.1000  -28.9090   23.3900 C   0  0  0  0  0  0  0  0  0  0  0  0
  -18.8780  -30.1690   23.9870 C   0  0  0  0  0  3  0  0  0  0  0  0
  -17.5720  -30.6610   24.1660 C   0  0  0  0  0  3  0  0  0  0  0  0
  -16.4680  -29.8900   23.7630 C   0  0  0  0  0  3  0  0  0  0  0  0
  -16.6740  -28.6310   23.1710 C   0  0  0  0  0  3  0  0  0  0  0  0
  -25.8150  -32.6000   23.8360 C   0  0  0  0  0  3  0  0  0  0  0  0
  -26.3280  -31.8510   25.1280 C   0  0  1  0  0  0  0  0  0  0  0  0
  -25.2280  -31.6160   26.1900 C   0  0  0  0  0  1  0  0  0  0  0  0
  -26.9290  -30.4760   24.7630 C   0  0  0  0  0  1  0  0  0  0  0  0
  -27.4650  -32.6660   25.7890 C   0  0  0  0  0  1  0  0  0  0  0  0
  -25.4840  -34.0010   24.1580 N   0  0  0  0  0  0  0  0  0  0  0  0
  -25.8240  -35.0600   23.4110 C   0  0  0  0  0  0  0  0  0  0  0  0
  -26.5080  -34.9630   22.3910 O   0  0  0  0  0  0  0  0  0  0  0  0
  -24.8760  -34.1470   24.9500 H   0  0  0  0  0  0  0  0  0  0  0  0
  -24.1020  -36.8590   23.0310 C   0  0  0  0  0  1  0  0  0  0  0  0
  -25.3240  -36.4460   23.8670 C   0  0  0  0  0  3  0  0  0  0  0  0
  -27.4370  -37.3340   24.7530 C   0  0  0  0  0  1  0  0  0  0  0  0
  -26.3580  -37.5030   23.7840 N   0  0  0  0  0  0  0  0  0  0  0  0
  -25.9470  -38.4220   23.9230 H   0  0  0  0  0  0  0  0  0  0  0  0
  -29.6640  -16.8560   20.2640 C   0  0  0  0  0  3  0  0  0  0  0  0
  -30.5700  -15.3940   20.5780 C   0  0  0  0  0  0  0  0  0  0  0  0
  -30.6560  -12.9110   19.8860 C   0  0  0  0  0  2  0  0  0  0  0  0
  -29.8160  -12.6640   18.6070 C   0  0  0  0  0  2  0  0  0  0  0  0
  -28.3410  -12.3900   18.9590 C   0  0  0  0  0  2  0  0  0  0  0  0
  -27.7990  -13.3800   20.0180 C   0  0  0  0  0  3  0  0  0  0  0  0
  -28.7770  -13.6050   21.1910 C   0  0  0  0  0  2  0  0  0  0  0  0
  -30.0590  -14.0700   20.6310 N   0  0  0  0  0  0  0  0  0  0  0  0
  -31.8070  -15.4290   20.5120 O   0  0  0  0  0  0  0  0  0  0  0  0
  -25.3850  -13.9440   20.6100 C   0  0  0  0  0  0  0  0  0  0  0  0
  -24.3070  -13.1640   20.9240 C   0  0  0  0  0  0  0  0  0  0  0  0
  -24.7870  -11.8190   20.9490 C   0  0  0  0  0  0  0  0  0  0  0  0
  -26.4480  -13.0700   20.4530 N   0  0  0  0  0  0  0  0  0  0  0  0
  -26.0950  -11.7880   20.7240 N   0  0  0  0  0  0  0  0  0  0  0  0
  -24.0620  -10.5540   21.1150 C   0  0  0  0  0  0  0  0  0  0  0  0
  -24.4490   -9.6030   22.0840 C   0  0  0  0  0  3  0  0  0  0  0  0
  -23.7230   -8.4040   22.2400 C   0  0  0  0  0  3  0  0  0  0  0  0
  -22.5960   -8.1460   21.4240 C   0  0  0  0  0  0  0  0  0  0  0  0
  -22.2280   -9.0850   20.4440 C   0  0  0  0  0  3  0  0  0  0  0  0
  -22.9550  -10.2770   20.2870 C   0  0  0  0  0  3  0  0  0  0  0  0
  -21.8460   -6.9970   21.4870 O   0  0  0  0  0  0  0  0  0  0  0  0
  -21.7420   -6.2680   22.6450 C   0  0  0  0  0  0  0  0  0  0  0  0
  -21.2350   -6.8300   23.8360 C   0  0  0  0  0  3  0  0  0  0  0  0
  -21.0810   -6.0250   24.9830 C   0  0  0  0  0  3  0  0  0  0  0  0
  -21.4250   -4.6600   24.9390 C   0  0  0  0  0  0  0  0  0  0  0  0
  -21.9260   -4.0990   23.7510 C   0  0  0  0  0  3  0  0  0  0  0  0
  -22.0820   -4.9000   22.6070 C   0  0  0  0  0  0  0  0  0  0  0  0
  -22.5450   -4.3490   21.4590 F   0  0  0  0  0  0  0  0  0  0  0  0
  -21.2710   -3.8860   26.0370 F   0  0  0  0  0  0  0  0  0  0  0  0
  -22.8910  -13.6330   21.0890 C   0  0  0  0  0  0  0  0  0  0  0  0
  -22.1150  -12.9520   21.9250 N   0  0  0  0  0  0  0  0  0  0  0  0
  -22.4790  -14.6400   20.5150 O   0  0  0  0  0  0  0  0  0  0  0  0
  -22.4600  -12.1360   22.4100 H   0  0  0  0  0  0  0  0  0  0  0  0
  -21.1630  -13.2500   22.0830 H   0  0  0  0  0  0  0  0  0  0  0  0
  -25.5440  -15.3150   20.4170 N   0  0  0  0  0  0  0  0  0  0  0  0
  -24.7630  -15.9590   20.4710 H   0  0  0  0  0  0  0  0  0  0  0  0
  -26.4100  -15.7600   20.1440 H   0  0  0  0  0  0  0  0  0  0  0  0
  -30.4540  -16.9770   17.7530 C   0  0  0  0  0  1  0  0  0  0  0  0
  -29.3010  -16.7370   18.7520 C   0  0  0  0  0  2  0  0  0  0  0  0
  1  3  1  0
  1  4  1  0
  3 51  1  0
  3  2  1  0
  4  8  1  0
  4  5  1  0
  5  2  1  0
  5  7  1  0
  6  5  1  0
  9 10  1  0
  9  8  1  0
 11 22  2  0
 12 10  1  0
 12 17  1  0
 13 21  1  0
 13 23  1  0
 14 20  1  0
 14 16  1  0
 15 21  1  0
 16 17  2  0
 16 15  1  0
 18 12  2  0
 19 18  1  0
 19 14  2  0
 20 13  1  0
 21 11  1  0
 23 25  2  0
 24 23  1  0
 26 24  1  0
 27 36  2  0
 27 32  1  0
 28 24  1  0
 28 32  1  0
 29 28  1  0
 30 31  1  0
 30 29  1  0
 31 27  1  0
 32 33  2  0
 33 34  1  0
 35 34  2  0
 36 35  1  0
 37 11  1  0
 37 42  1  0
 37 38  1  0
 38 41  1  1
 38 39  1  0
 40 38  1  0
 42 45  1  0
 43 47  1  0
 43 42  1  0
 44 43  2  0
 47 46  1  0
 49 47  1  0
 49 50  1  0
 49 48  1  0
 51 89  1  0
 51 52  1  0
 52 58  1  0
 53 58  1  0
 54 55  1  0
 54 53  1  0
 56 55  1  0
 56 63  1  0
 56 57  1  0
 58 57  1  0
 59 52  2  0
 60 61  2  0
 61 62  1  0
 61 80  1  0
 62 65  1  0
 63 60  1  0
 63 64  1  0
 64 62  2  0
 65 66  1  0
 66 67  2  0
 68 71  1  0
 68 67  1  0
 69 68  2  0
 70 69  1  0
 70 65  2  0
 71 72  1  0
 72 73  1  0
 73 74  2  0
 75 74  1  0
 75 79  1  0
 76 75  2  0
 77 72  2  0
 77 76  1  0
 78 77  1  0
 80 81  1  0
 81 84  1  0
 81 83  1  0
 82 80  2  0
 85 86  1  0
 85 60  1  0
 87 85  1  0
 88 89  1  0
M  ISO  4   9 101  10 101  51 100  52 100
M  END
>  <TORSDO>  (8) 
F 20

>  <SCORE>  (8) 
-15.028

>  <name>  (8) 
7

>  <ligand_id>  (8) 
7

>  <original_smiles>  (8) 
[H]c1c([H])c([H])c2c(c1[H])C([H])([H])C([H])([H])C([H])([H])C2([H])N([H])C(=O)C1([H])N(C(=O)C([H])(N([H])C(=O)C([H])(N([H])C([H])([H])[H])C([H])([H])[H])C(C([H])([H])[H])(C([H])([H])[H])C([H])([H])[H])C([H])([H])c2c([H])c(OC([H])([H])C([H])([H])C3([H])C([H])([H])C([H])(C([H])(C(=O)N4C([H])([H])C([H])([H])C([H])([H])C([H])(n5nc(-c6c([H])c([H])c(Oc7c([H])c([H])c(F)c([H])c7F)c([H])c6[H])c(C(=O)N([H])[H])c5N([H])[H])C4([H])[H])C([H])([H])C([H])([H])[H])C([H])([H])[N+]3([H])[H])c([H])c([H])c2C1([H])[H]

>  <smiles>  (8) 
[H]c1c([H])c([H])c2c(c1[H])C([H])([H])C([H])([H])C([H])([H])C2([H])N([H])C(=O)C1([H])N(C(=O)C([H])(N([H])C(=O)C([H])(N([H])C([H])([H])[H])C([H])([H])[H])C(C([H])([H])[H])(C([H])([H])[H])C([H])([H])[H])C([H])([H])c2c([H])c(OC([H])([H])C([H])([H])C3([H])C([H])([H])C([H])(C([H])(C(=O)N4C([H])([H])C([H])([H])C([H])([H])C([H])(n5nc(-c6c([H])c([H])c(Oc7c([H])c([H])c(F)c([H])c7F)c([H])c6[H])c(C(=O)N([H])[H])c5N([H])[H])C4([H])[H])C([H])([H])C([H])([H])[H])C([H])([H])[N+]3([H])[H])c([H])c([H])c2C1([H])[H]

$$$$
8:0:0
     RDKit          3D

 87 94  0  0  1  0  0  0  0  0999 V2000
  -29.6090  -17.4000   20.1280 C   0  0  0  0  0  0  0  0  0  0  0  0
  -28.9330  -17.9250   19.0540 C   0  0  0  0  0  0  0  0  0  0  0  0
  -29.7090  -18.9930   20.8520 C   0  0  0  0  0  2  0  0  0  0  0  0
  -28.5170  -19.5020   18.9480 C   0  0  0  0  0  2  0  0  0  0  0  0
  -29.2020  -20.3660   20.0120 N   0  0  1  0  0  4  0  0  0  0  0  0
  -30.0670  -20.6150   19.5510 H   0  0  0  0  0  0  0  0  0  0  0  0
  -30.3080  -15.8050   20.2470 C   0  0  0  0  0  0  0  0  0  0  0  0
  -30.4080  -13.2420   19.4510 C   0  0  0  0  0  2  0  0  0  0  0  0
  -29.5430  -12.8040   18.2350 C   0  0  0  0  0  2  0  0  0  0  0  0
  -28.1230  -12.4260   18.6950 C   0  0  0  0  0  2  0  0  0  0  0  0
  -27.5770  -13.4390   19.7250 C   0  0  0  0  0  3  0  0  0  0  0  0
  -28.5930  -13.7980   20.8360 C   0  0  0  0  0  2  0  0  0  0  0  0
  -29.7610  -14.4390   20.1740 N   0  0  0  0  0  0  0  0  0  0  0  0
  -31.5470  -15.6430   20.2090 O   0  0  0  0  0  0  0  0  0  0  0  0
  -25.2060  -13.9430   20.4620 C   0  0  0  0  0  0  0  0  0  0  0  0
  -24.1460  -13.1500   20.8090 C   0  0  0  0  0  0  0  0  0  0  0  0
  -24.6370  -11.8060   20.7980 C   0  0  0  0  0  0  0  0  0  0  0  0
  -26.2610  -13.0820   20.2320 N   0  0  0  0  0  0  0  0  0  0  0  0
  -25.9330  -11.7920   20.5030 N   0  0  0  0  0  0  0  0  0  0  0  0
  -23.9240  -10.5380   20.9950 C   0  0  0  0  0  0  0  0  0  0  0  0
  -24.3400   -9.5880   21.9560 C   0  0  0  0  0  3  0  0  0  0  0  0
  -23.6230   -8.3850   22.1330 C   0  0  0  0  0  3  0  0  0  0  0  0
  -22.4750   -8.1190   21.3520 C   0  0  0  0  0  0  0  0  0  0  0  0
  -22.0780   -9.0540   20.3790 C   0  0  0  0  0  3  0  0  0  0  0  0
  -22.7960  -10.2480   20.2020 C   0  0  0  0  0  3  0  0  0  0  0  0
  -21.7310   -6.9680   21.4360 O   0  0  0  0  0  0  0  0  0  0  0  0
  -21.6420   -6.2490   22.6000 C   0  0  0  0  0  0  0  0  0  0  0  0
  -21.1530   -6.8210   23.7920 C   0  0  0  0  0  3  0  0  0  0  0  0
  -21.0260   -6.0290   24.9510 C   0  0  0  0  0  3  0  0  0  0  0  0
  -21.3670   -4.6650   24.9150 C   0  0  0  0  0  0  0  0  0  0  0  0
  -21.8470   -4.0910   23.7250 C   0  0  0  0  0  3  0  0  0  0  0  0
  -21.9830   -4.8820   22.5680 C   0  0  0  0  0  0  0  0  0  0  0  0
  -22.4270   -4.3210   21.4190 F   0  0  0  0  0  0  0  0  0  0  0  0
  -21.2340   -3.8990   26.0240 F   0  0  0  0  0  0  0  0  0  0  0  0
  -22.7400  -13.6070   21.0420 C   0  0  0  0  0  0  0  0  0  0  0  0
  -22.0040  -12.9070   21.9000 N   0  0  0  0  0  0  0  0  0  0  0  0
  -22.3000  -14.6230   20.5070 O   0  0  0  0  0  0  0  0  0  0  0  0
  -22.3740  -12.0830   22.3520 H   0  0  0  0  0  0  0  0  0  0  0  0
  -21.0630  -13.1960   22.1120 H   0  0  0  0  0  0  0  0  0  0  0  0
  -25.3620  -15.3150   20.2940 N   0  0  0  0  0  0  0  0  0  0  0  0
  -24.6090  -15.9770   20.4430 H   0  0  0  0  0  0  0  0  0  0  0  0
  -26.2340  -15.7550   20.0350 H   0  0  0  0  0  0  0  0  0  0  0  0
  -28.6440  -17.2360   17.9410 O   0  0  0  0  0  0  0  0  0  0  0  0
  -28.2850  -17.8460   17.3120 H   0  0  0  0  0  0  0  0  0  0  0  0
  -28.6500  -21.9980   20.5390 C   0  0  0  0  0  1  0  0  0  0  0  0
  -28.2550  -23.8060   19.8520 C   0  0  0  0  0  1  0  0  0  0  0  0
  -28.1590  -25.5340   20.3300 O   0  0  0  0  0  0  0  0  0  0  0  0
  -24.5820  -31.8740   23.2030 C   0  0  0  0  0  0  0  0  0  0  0  0
  -27.1830  -26.7600   20.2360 C   0  0  0  0  0  0  0  0  0  0  0  0
  -23.4220  -30.4480   21.5680 C   0  0  0  0  0  3  0  0  0  0  0  0
  -24.8980  -28.7970   20.1780 C   0  0  0  0  0  0  0  0  0  0  0  0
  -25.9980  -30.5910   21.4810 C   0  0  0  0  0  2  0  0  0  0  0  0
  -26.0830  -29.1550   20.8240 C   0  0  0  0  0  0  0  0  0  0  0  0
  -27.2050  -28.1580   20.8340 C   0  0  0  0  0  3  0  0  0  0  0  0
  -25.9620  -26.6260   19.5230 C   0  0  0  0  0  3  0  0  0  0  0  0
  -24.8750  -27.5600   19.5060 C   0  0  0  0  0  3  0  0  0  0  0  0
  -23.6820  -29.7440   20.2070 C   0  0  0  0  0  2  0  0  0  0  0  0
  -24.6920  -31.0080   22.1330 N   0  0  0  0  0  0  0  0  0  0  0  0
  -23.4820  -32.1730   23.6950 O   0  0  0  0  0  0  0  0  0  0  0  0
  -22.6910  -29.4830   22.5420 C   0  0  0  0  0  0  0  0  0  0  0  0
  -21.3610  -29.3340   22.4120 N   0  0  0  0  0  0  0  0  0  0  0  0
  -23.3420  -28.8690   23.3950 O   0  0  0  0  0  0  0  0  0  0  0  0
  -20.8950  -29.8680   21.6930 H   0  0  0  0  0  0  0  0  0  0  0  0
  -17.9680  -28.1540   22.9270 C   0  0  0  0  0  0  0  0  0  0  0  0
  -20.5270  -28.4150   23.1970 C   0  0  0  0  0  3  0  0  0  0  0  0
  -20.6190  -26.9720   22.6560 C   0  0  0  0  0  2  0  0  0  0  0  0
  -19.5360  -26.6590   21.6190 C   0  0  0  0  0  2  0  0  0  0  0  0
  -18.1430  -26.8170   22.2260 C   0  0  0  0  0  2  0  0  0  0  0  0
  -19.0870  -28.9190   23.3590 C   0  0  0  0  0  0  0  0  0  0  0  0
  -18.8680  -30.1720   23.9650 C   0  0  0  0  0  3  0  0  0  0  0  0
  -17.5620  -30.6670   24.1460 C   0  0  0  0  0  3  0  0  0  0  0  0
  -16.4600  -29.9010   23.7270 C   0  0  0  0  0  3  0  0  0  0  0  0
  -16.6620  -28.6480   23.1240 C   0  0  0  0  0  3  0  0  0  0  0  0
  -25.8280  -32.5380   23.8600 C   0  0  0  0  0  3  0  0  0  0  0  0
  -26.3010  -31.8130   25.1830 C   0  0  1  0  0  0  0  0  0  0  0  0
  -25.1730  -31.6110   26.2220 C   0  0  0  0  0  1  0  0  0  0  0  0
  -26.8920  -30.4210   24.8650 C   0  0  0  0  0  1  0  0  0  0  0  0
  -27.4300  -32.6290   25.8510 C   0  0  0  0  0  1  0  0  0  0  0  0
  -25.4940  -33.9470   24.1560 N   0  0  0  0  0  0  0  0  0  0  0  0
  -25.8560  -35.0050   23.4130 C   0  0  0  0  0  0  0  0  0  0  0  0
  -26.5550  -34.8970   22.4050 O   0  0  0  0  0  0  0  0  0  0  0  0
  -24.8650  -34.1020   24.9300 H   0  0  0  0  0  0  0  0  0  0  0  0
  -24.1450  -36.8180   23.0130 C   0  0  0  0  0  1  0  0  0  0  0  0
  -25.3640  -36.4020   23.8550 C   0  0  0  0  0  3  0  0  0  0  0  0
  -27.4740  -37.2910   24.7450 C   0  0  0  0  0  1  0  0  0  0  0  0
  -26.4060  -37.4500   23.7610 N   0  0  0  0  0  0  0  0  0  0  0  0
  -25.9990  -38.3740   23.8810 H   0  0  0  0  0  0  0  0  0  0  0  0
  1  7  1  0
  1  3  1  0
  2  1  2  0
  4  2  1  0
  4  5  1  0
  5 45  1  0
  5  3  1  0
  5  6  1  6
  8 13  1  0
  9 10  1  0
  9  8  1  0
 11 10  1  0
 11 18  1  0
 11 12  1  0
 13  7  1  0
 13 12  1  0
 14  7  2  0
 15 16  2  0
 16 35  1  0
 17 16  1  0
 17 20  1  0
 18 15  1  0
 18 19  1  0
 19 17  2  0
 20 21  1  0
 21 22  2  0
 23 26  1  0
 23 22  1  0
 24 23  2  0
 25 24  1  0
 25 20  2  0
 26 27  1  0
 27 28  1  0
 28 29  2  0
 30 29  1  0
 30 34  1  0
 31 30  2  0
 32 27  2  0
 32 31  1  0
 33 32  1  0
 35 36  1  0
 36 39  1  0
 36 38  1  0
 37 35  2  0
 40 41  1  0
 40 15  1  0
 42 40  1  0
 43  2  1  0
 44 43  1  0
 46 47  1  0
 48 59  2  0
 49 47  1  0
 49 54  1  0
 50 58  1  0
 50 60  1  0
 51 57  1  0
 51 53  1  0
 52 58  1  0
 53 54  2  0
 53 52  1  0
 55 49  2  0
 56 55  1  0
 56 51  2  0
 57 50  1  0
 58 48  1  0
 60 62  2  0
 61 60  1  0
 63 61  1  0
 64 73  2  0
 64 69  1  0
 65 61  1  0
 65 69  1  0
 66 65  1  0
 67 68  1  0
 67 66  1  0
 68 64  1  0
 69 70  2  0
 70 71  1  0
 72 71  2  0
 73 72  1  0
 74 48  1  0
 74 79  1  0
 74 75  1  0
 75 78  1  1
 75 76  1  0
 77 75  1  0
 79 82  1  0
 80 84  1  0
 80 79  1  0
 81 80  2  0
 84 83  1  0
 86 84  1  0
 86 87  1  0
 86 85  1  0
M  ISO  4   1 100   7 100  46 101  47 101
M  END
>  <TORSDO>  (9) 
F 19

>  <SCORE>  (9) 
-16.216

>  <name>  (9) 
8

>  <ligand_id>  (9) 
8

>  <original_smiles>  (9) 
[H]OC1=C(C(=O)N2C([H])([H])C([H])([H])C([H])([H])C([H])(n3nc(-c4c([H])c([H])c(Oc5c([H])c([H])c(F)c([H])c5F)c([H])c4[H])c(C(=O)N([H])[H])c3N([H])[H])C2([H])[H])C([H])([H])[N+]([H])(C([H])([H])C([H])([H])Oc2c([H])c([H])c3c(c2[H])C([H])([H])N(C(=O)C([H])(N([H])C(=O)C([H])(N([H])C([H])([H])[H])C([H])([H])[H])C(C([H])([H])[H])(C([H])([H])[H])C([H])([H])[H])C([H])(C(=O)N([H])C2([H])c4c([H])c([H])c([H])c([H])c4C([H])([H])C([H])([H])C2([H])[H])C3([H])[H])C1([H])[H]

>  <smiles>  (9) 
[H]OC1=C(C(=O)N2C([H])([H])C([H])([H])C([H])([H])C([H])(n3nc(-c4c([H])c([H])c(Oc5c([H])c([H])c(F)c([H])c5F)c([H])c4[H])c(C(=O)N([H])[H])c3N([H])[H])C2([H])[H])C([H])([H])[N+]([H])(C([H])([H])C([H])([H])Oc2c([H])c([H])c3c(c2[H])C([H])([H])N(C(=O)C([H])(N([H])C(=O)C([H])(N([H])C([H])([H])[H])C([H])([H])[H])C(C([H])([H])[H])(C([H])([H])[H])C([H])([H])[H])C([H])(C(=O)N([H])C2([H])c4c([H])c([H])c([H])c([H])c4C([H])([H])C([H])([H])C2([H])[H])C3([H])[H])C1([H])[H]

$$$$
9:0:0
     RDKit          3D

 91 99  0  0  1  0  0  0  0  0999 V2000
  -29.7620  -22.2060   21.0900 C   0  0  0  0  0  2  0  0  0  0  0  0
  -29.9500  -20.6080   21.2700 C   0  0  0  0  0  2  0  0  0  0  0  0
  -28.4340  -22.6090   20.3760 C   0  0  0  0  0  3  0  0  0  0  0  0
  -29.0120  -19.7080   20.3810 C   0  0  0  0  0  3  0  0  0  0  0  0
  -28.4480  -21.1040   19.5440 C   0  0  0  0  0  3  0  0  0  0  0  0
  -27.1350  -20.8350   18.9300 N   0  0  0  0  0  4  0  0  0  0  0  0
  -26.4180  -20.7320   19.6280 H   0  0  0  0  0  0  0  0  0  0  0  0
  -27.1680  -19.9940   18.3830 H   0  0  0  0  0  0  0  0  0  0  0  0
  -26.8740  -21.5830   18.3120 H   0  0  0  0  0  0  0  0  0  0  0  0
  -31.0020  -18.3890   19.1190 C   0  0  0  0  0  1  0  0  0  0  0  0
  -29.6410  -18.1220   19.7760 C   0  0  0  0  0  0  0  0  0  0  0  0
  -30.3940  -15.2810   20.2040 C   0  0  0  0  0  0  0  0  0  0  0  0
  -30.3770  -12.8350   19.3580 C   0  0  0  0  0  2  0  0  0  0  0  0
  -29.4460  -12.6380   18.1340 C   0  0  0  0  0  2  0  0  0  0  0  0
  -27.9960  -12.3880   18.5830 C   0  0  0  0  0  2  0  0  0  0  0  0
  -27.5640  -13.3450   19.7220 C   0  0  0  0  0  3  0  0  0  0  0  0
  -28.6210  -13.4670   20.8390 C   0  0  0  0  0  2  0  0  0  0  0  0
  -29.8460  -13.9690   20.2000 N   0  0  0  0  0  0  0  0  0  0  0  0
  -31.5990  -15.2920   19.9130 O   0  0  0  0  0  0  0  0  0  0  0  0
  -29.6130  -16.5390   20.3310 N   0  0  0  0  0  4  0  0  0  0  0  0
  -28.6930  -16.3100   20.6830 H   0  0  0  0  0  0  0  0  0  0  0  0
  -25.1980  -13.9060   20.4920 C   0  0  0  0  0  0  0  0  0  0  0  0
  -24.1410  -13.1280   20.8730 C   0  0  0  0  0  0  0  0  0  0  0  0
  -24.6090  -11.7780   20.8420 C   0  0  0  0  0  0  0  0  0  0  0  0
  -26.2390  -13.0310   20.2410 N   0  0  0  0  0  0  0  0  0  0  0  0
  -25.8980  -11.7460   20.5210 N   0  0  0  0  0  0  0  0  0  0  0  0
  -23.8860  -10.5160   21.0380 C   0  0  0  0  0  0  0  0  0  0  0  0
  -24.3290   -9.5400   21.9590 C   0  0  0  0  0  3  0  0  0  0  0  0
  -23.6000   -8.3470   22.1440 C   0  0  0  0  0  3  0  0  0  0  0  0
  -22.4130   -8.1180   21.4080 C   0  0  0  0  0  0  0  0  0  0  0  0
  -21.9890   -9.0800   20.4760 C   0  0  0  0  0  3  0  0  0  0  0  0
  -22.7200  -10.2660   20.2880 C   0  0  0  0  0  3  0  0  0  0  0  0
  -21.6540   -6.9750   21.5050 O   0  0  0  0  0  0  0  0  0  0  0  0
  -21.6320   -6.2200   22.6490 C   0  0  0  0  0  0  0  0  0  0  0  0
  -21.2430   -6.7660   23.8930 C   0  0  0  0  0  3  0  0  0  0  0  0
  -21.1650   -5.9400   25.0310 C   0  0  0  0  0  3  0  0  0  0  0  0
  -21.4670   -4.5690   24.9290 C   0  0  0  0  0  0  0  0  0  0  0  0
  -21.8480   -4.0230   23.6910 C   0  0  0  0  0  3  0  0  0  0  0  0
  -21.9270   -4.8460   22.5550 C   0  0  0  0  0  0  0  0  0  0  0  0
  -22.2750   -4.3100   21.3590 F   0  0  0  0  0  0  0  0  0  0  0  0
  -21.3840   -3.7720   26.0210 F   0  0  0  0  0  0  0  0  0  0  0  0
  -22.7440  -13.6050   21.1460 C   0  0  0  0  0  0  0  0  0  0  0  0
  -22.0210  -12.9150   22.0200 N   0  0  0  0  0  0  0  0  0  0  0  0
  -22.3070  -14.6290   20.6240 O   0  0  0  0  0  0  0  0  0  0  0  0
  -22.3870  -12.0860   22.4650 H   0  0  0  0  0  0  0  0  0  0  0  0
  -21.0860  -13.2200   22.2460 H   0  0  0  0  0  0  0  0  0  0  0  0
  -25.3530  -15.2750   20.3030 N   0  0  0  0  0  0  0  0  0  0  0  0
  -24.5730  -15.9180   20.4020 H   0  0  0  0  0  0  0  0  0  0  0  0
  -26.1670  -15.7080   19.8850 H   0  0  0  0  0  0  0  0  0  0  0  0
  -28.1200  -24.2940   19.7770 C   0  0  0  0  0  2  0  0  0  0  0  0
  -28.1610  -25.8580   20.3130 O   0  0  0  0  0  0  0  0  0  0  0  0
  -24.6330  -31.8580   23.2180 C   0  0  0  0  0  0  0  0  0  0  0  0
  -27.1650  -26.9620   20.1990 C   0  0  0  0  0  0  0  0  0  0  0  0
  -23.4340  -30.4610   21.5850 C   0  0  0  0  0  3  0  0  0  0  0  0
  -24.8740  -28.8520   20.1600 C   0  0  0  0  0  0  0  0  0  0  0  0
  -25.9990  -30.6610   21.4370 C   0  0  0  0  0  2  0  0  0  0  0  0
  -26.0630  -29.2500   20.7820 C   0  0  0  0  0  0  0  0  0  0  0  0
  -27.2000  -28.3240   20.7830 C   0  0  0  0  0  3  0  0  0  0  0  0
  -25.9480  -26.7230   19.5180 C   0  0  0  0  0  3  0  0  0  0  0  0
  -24.8410  -27.6100   19.5100 C   0  0  0  0  0  3  0  0  0  0  0  0
  -23.6590  -29.7770   20.2090 C   0  0  0  0  0  2  0  0  0  0  0  0
  -24.7110  -31.0200   22.1330 N   0  0  0  0  0  0  0  0  0  0  0  0
  -23.5450  -32.1510   23.7400 O   0  0  0  0  0  0  0  0  0  0  0  0
  -22.7420  -29.4660   22.5530 C   0  0  0  0  0  0  0  0  0  0  0  0
  -21.4110  -29.3050   22.4340 N   0  0  0  0  0  0  0  0  0  0  0  0
  -23.4080  -28.8390   23.3820 O   0  0  0  0  0  0  0  0  0  0  0  0
  -20.9250  -29.8650   21.7460 H   0  0  0  0  0  0  0  0  0  0  0  0
  -18.0260  -28.1000   22.9520 C   0  0  0  0  0  0  0  0  0  0  0  0
  -20.5880  -28.3700   23.2100 C   0  0  0  0  0  3  0  0  0  0  0  0
  -20.6880  -26.9330   22.6460 C   0  0  0  0  0  2  0  0  0  0  0  0
  -19.5870  -26.6040   21.6340 C   0  0  0  0  0  2  0  0  0  0  0  0
  -18.2060  -26.7480   22.2800 C   0  0  0  0  0  2  0  0  0  0  0  0
  -19.1450  -28.8670   23.3740 C   0  0  0  0  0  0  0  0  0  0  0  0
  -18.9240  -30.1290   23.9650 C   0  0  0  0  0  3  0  0  0  0  0  0
  -17.6180  -30.6250   24.1400 C   0  0  0  0  0  3  0  0  0  0  0  0
  -16.5140  -29.8550   23.7330 C   0  0  0  0  0  3  0  0  0  0  0  0
  -16.7200  -28.5940   23.1430 C   0  0  0  0  0  3  0  0  0  0  0  0
  -25.9050  -32.5030   23.8450 C   0  0  0  0  0  3  0  0  0  0  0  0
  -26.4130  -31.7460   25.1350 C   0  0  1  0  0  0  0  0  0  0  0  0
  -25.3140  -31.5210   26.2010 C   0  0  0  0  0  1  0  0  0  0  0  0
  -27.0000  -30.3620   24.7700 C   0  0  0  0  0  1  0  0  0  0  0  0
  -27.5580  -32.5500   25.7940 C   0  0  0  0  0  1  0  0  0  0  0  0
  -25.5850  -33.9030   24.1740 N   0  0  0  0  0  0  0  0  0  0  0  0
  -25.9060  -34.9630   23.4230 C   0  0  0  0  0  0  0  0  0  0  0  0
  -26.5680  -34.8680   22.3870 O   0  0  0  0  0  0  0  0  0  0  0  0
  -24.9960  -34.0490   24.9810 H   0  0  0  0  0  0  0  0  0  0  0  0
  -24.1670  -36.7590   23.1080 C   0  0  0  0  0  1  0  0  0  0  0  0
  -25.4220  -36.3500   23.8940 C   0  0  0  0  0  3  0  0  0  0  0  0
  -27.5660  -37.2450   24.6960 C   0  0  0  0  0  1  0  0  0  0  0  0
  -26.4470  -37.4100   23.7710 N   0  0  0  0  0  0  0  0  0  0  0  0
  -26.0360  -38.3260   23.9350 H   0  0  0  0  0  0  0  0  0  0  0  0
  1  2  1  0
  3 50  1  0
  3  1  1  0
  4 11  1  0
  4  2  1  0
  5  6  1  0
  5  3  1  0
  5  4  1  0
  6  7  1  0
  8  6  1  0
  9  6  1  0
 10 11  1  0
 11 20  2  0
 12 20  1  0
 13 18  1  0
 14 15  1  0
 14 13  1  0
 16 15  1  0
 16 25  1  0
 16 17  1  0
 18 12  1  0
 18 17  1  0
 19 12  2  0
 20 21  1  0
 22 23  2  0
 23 42  1  0
 24 23  1  0
 24 27  1  0
 25 22  1  0
 25 26  1  0
 26 24  2  0
 27 28  1  0
 28 29  2  0
 30 33  1  0
 30 29  1  0
 31 30  2  0
 32 31  1  0
 32 27  2  0
 33 34  1  0
 34 35  1  0
 35 36  2  0
 37 36  1  0
 37 41  1  0
 38 37  2  0
 39 34  2  0
 39 38  1  0
 40 39  1  0
 42 43  1  0
 43 46  1  0
 43 45  1  0
 44 42  2  0
 47 48  1  0
 47 22  1  0
 49 47  1  0
 50 51  1  0
 52 63  2  0
 53 51  1  0
 53 58  1  0
 54 62  1  0
 54 64  1  0
 55 61  1  0
 55 57  1  0
 56 62  1  0
 57 58  2  0
 57 56  1  0
 59 53  2  0
 60 59  1  0
 60 55  2  0
 61 54  1  0
 62 52  1  0
 64 66  2  0
 65 64  1  0
 67 65  1  0
 68 77  2  0
 68 73  1  0
 69 65  1  0
 69 73  1  0
 70 69  1  0
 71 72  1  0
 71 70  1  0
 72 68  1  0
 73 74  2  0
 74 75  1  0
 76 75  2  0
 77 76  1  0
 78 52  1  0
 78 83  1  0
 78 79  1  0
 79 82  1  1
 79 80  1  0
 81 79  1  0
 83 86  1  0
 84 88  1  0
 84 83  1  0
 85 84  2  0
 88 87  1  0
 90 88  1  0
 90 91  1  0
 90 89  1  0
M  ISO  4  12 100  20 100  50 101  51 101
M  END
>  <TORSDO>  (10) 
F 19

>  <SCORE>  (10) 
-16.868

>  <name>  (10) 
9

>  <ligand_id>  (10) 
9

>  <original_smiles>  (10) 
[H]c1c([H])c([H])c2c(c1[H])C([H])([H])C([H])([H])C([H])([H])C2([H])N([H])C(=O)C1([H])N(C(=O)C([H])(N([H])C(=O)C([H])(N([H])C([H])([H])[H])C([H])([H])[H])C(C([H])([H])[H])(C([H])([H])[H])C([H])([H])[H])C([H])([H])c2c([H])c(OC([H])([H])C3([H])C([H])([H])C([H])([H])C([H])(C([H])(N([H])C(=O)N4C([H])([H])C([H])([H])C([H])([H])C([H])(n5nc(-c6c([H])c([H])c(Oc7c([H])c([H])c(F)c([H])c7F)c([H])c6[H])c(C(=O)N([H])[H])c5N([H])[H])C4([H])[H])C([H])([H])[H])C3([H])[N+]([H])([H])[H])c([H])c([H])c2C1([H])[H]

>  <smiles>  (10) 
[H]c1c([H])c([H])c2c(c1[H])C([H])([H])C([H])([H])C([H])([H])C2([H])N([H])C(=O)C1([H])N(C(=O)C([H])(N([H])C(=O)C([H])(N([H])C([H])([H])[H])C([H])([H])[H])C(C([H])([H])[H])(C([H])([H])[H])C([H])([H])[H])C([H])([H])c2c([H])c(OC([H])([H])C3([H])C([H])([H])C([H])([H])C([H])(C([H])(N([H])C(=O)N4C([H])([H])C([H])([H])C([H])([H])C([H])(n5nc(-c6c([H])c([H])c(Oc7c([H])c([H])c(F)c([H])c7F)c([H])c6[H])c(C(=O)N([H])[H])c5N([H])[H])C4([H])[H])C([H])([H])[H])C3([H])[N+]([H])([H])[H])c([H])c([H])c2C1([H])[H]

$$$$
10:0:0
     RDKit          3D

 90 98  0  0  1  0  0  0  0  0999 V2000
  -28.7110  -21.3470   20.3950 C   0  0  0  0  0  2  0  0  0  0  0  0
  -30.9750  -20.6510   20.3680 C   0  0  0  0  0  2  0  0  0  0  0  0
  -29.5860  -20.0810   20.0350 C   0  0  0  0  0  3  0  0  0  0  0  0
  -29.5440  -22.5920   19.9230 C   0  0  0  0  0  3  0  0  0  0  0  0
  -30.9370  -22.1210   20.1240 N   0  0  0  0  0  4  0  0  0  0  0  0
  -31.4900  -22.3450   19.3120 H   0  0  0  0  0  0  0  0  0  0  0  0
  -31.3530  -22.5810   20.9170 H   0  0  0  0  0  0  0  0  0  0  0  0
  -27.7650  -18.3270   20.3890 C   0  0  0  0  0  1  0  0  0  0  0  0
  -29.2470  -18.6430   20.6680 C   0  0  0  0  0  3  0  0  0  0  0  0
  -30.1540  -17.3880   20.2350 C   0  0  0  0  0  3  0  0  0  0  0  0
  -29.8690  -15.9480   20.8850 C   0  0  0  0  0  3  0  0  0  0  0  0
  -30.6200  -14.6630   20.3250 C   0  0  0  0  0  0  0  0  0  0  0  0
  -30.3870  -12.4440   19.2130 C   0  0  0  0  0  2  0  0  0  0  0  0
  -29.4300  -12.6000   18.0080 C   0  0  0  0  0  2  0  0  0  0  0  0
  -27.9610  -12.4390   18.4470 C   0  0  0  0  0  2  0  0  0  0  0  0
  -27.6220  -13.2860   19.7010 C   0  0  0  0  0  3  0  0  0  0  0  0
  -28.6900  -13.1050   20.8050 C   0  0  0  0  0  2  0  0  0  0  0  0
  -29.9950  -13.4450   20.2260 N   0  0  0  0  0  0  0  0  0  0  0  0
  -31.7640  -14.8090   19.8840 O   0  0  0  0  0  0  0  0  0  0  0  0
  -25.2310  -13.8930   20.4190 C   0  0  0  0  0  0  0  0  0  0  0  0
  -24.1640  -13.1240   20.7960 C   0  0  0  0  0  0  0  0  0  0  0  0
  -24.6250  -11.7720   20.7750 C   0  0  0  0  0  0  0  0  0  0  0  0
  -26.2750  -13.0090   20.1920 N   0  0  0  0  0  0  0  0  0  0  0  0
  -25.9150  -11.7300   20.4650 N   0  0  0  0  0  0  0  0  0  0  0  0
  -23.8980  -10.5110   20.9770 C   0  0  0  0  0  0  0  0  0  0  0  0
  -24.3290   -9.5530   21.9200 C   0  0  0  0  0  3  0  0  0  0  0  0
  -23.6030   -8.3580   22.1080 C   0  0  0  0  0  3  0  0  0  0  0  0
  -22.4310   -8.1120   21.3530 C   0  0  0  0  0  0  0  0  0  0  0  0
  -22.0200   -9.0590   20.4000 C   0  0  0  0  0  3  0  0  0  0  0  0
  -22.7470  -10.2470   20.2100 C   0  0  0  0  0  3  0  0  0  0  0  0
  -21.6770   -6.9680   21.4500 O   0  0  0  0  0  0  0  0  0  0  0  0
  -21.6210   -6.2380   22.6110 C   0  0  0  0  0  0  0  0  0  0  0  0
  -21.1890   -6.8080   23.8280 C   0  0  0  0  0  3  0  0  0  0  0  0
  -21.0810   -6.0060   24.9820 C   0  0  0  0  0  3  0  0  0  0  0  0
  -21.3940   -4.6350   24.9190 C   0  0  0  0  0  0  0  0  0  0  0  0
  -21.8190   -4.0650   23.7060 C   0  0  0  0  0  3  0  0  0  0  0  0
  -21.9290   -4.8640   22.5540 C   0  0  0  0  0  0  0  0  0  0  0  0
  -22.3190   -4.3060   21.3830 F   0  0  0  0  0  0  0  0  0  0  0  0
  -21.2830   -3.8620   26.0240 F   0  0  0  0  0  0  0  0  0  0  0  0
  -22.7670  -13.6040   21.0670 C   0  0  0  0  0  0  0  0  0  0  0  0
  -22.0420  -12.9150   21.9420 N   0  0  0  0  0  0  0  0  0  0  0  0
  -22.3270  -14.6240   20.5400 O   0  0  0  0  0  0  0  0  0  0  0  0
  -22.4110  -12.0890   22.3910 H   0  0  0  0  0  0  0  0  0  0  0  0
  -21.1060  -13.2180   22.1680 H   0  0  0  0  0  0  0  0  0  0  0  0
  -25.3950  -15.2620   20.2290 N   0  0  0  0  0  0  0  0  0  0  0  0
  -24.6300  -15.9180   20.3380 H   0  0  0  0  0  0  0  0  0  0  0  0
  -26.2470  -15.6990   19.9020 H   0  0  0  0  0  0  0  0  0  0  0  0
  -29.3270  -24.0670   20.5260 C   0  0  0  0  0  3  0  0  0  0  0  0
  -28.1980  -25.0400   19.9800 C   0  0  0  0  0  3  0  0  0  0  0  0
  -28.3410  -26.4880   20.2710 O   0  0  0  0  0  0  0  0  0  0  0  0
  -24.5750  -31.8740   23.2380 C   0  0  0  0  0  0  0  0  0  0  0  0
  -27.2130  -27.3210   20.1990 C   0  0  0  0  0  0  0  0  0  0  0  0
  -23.3820  -30.4750   21.5890 C   0  0  0  0  0  3  0  0  0  0  0  0
  -24.8420  -28.9260   20.1710 C   0  0  0  0  0  0  0  0  0  0  0  0
  -25.9200  -30.7950   21.4240 C   0  0  0  0  0  2  0  0  0  0  0  0
  -26.0060  -29.4170   20.7760 C   0  0  0  0  0  0  0  0  0  0  0  0
  -27.1930  -28.6260   20.7820 C   0  0  0  0  0  3  0  0  0  0  0  0
  -26.0250  -26.8820   19.5670 C   0  0  0  0  0  3  0  0  0  0  0  0
  -24.8550  -27.6640   19.5590 C   0  0  0  0  0  3  0  0  0  0  0  0
  -23.6050  -29.7990   20.2090 C   0  0  0  0  0  2  0  0  0  0  0  0
  -24.6440  -31.0650   22.1410 N   0  0  0  0  0  0  0  0  0  0  0  0
  -23.4900  -32.1550   23.7650 O   0  0  0  0  0  0  0  0  0  0  0  0
  -22.7120  -29.4590   22.5430 C   0  0  0  0  0  0  0  0  0  0  0  0
  -21.3880  -29.2830   22.4050 N   0  0  0  0  0  0  0  0  0  0  0  0
  -23.3840  -28.8310   23.3670 O   0  0  0  0  0  0  0  0  0  0  0  0
  -20.9060  -29.8410   21.7130 H   0  0  0  0  0  0  0  0  0  0  0  0
  -18.0030  -28.0990   22.8820 C   0  0  0  0  0  0  0  0  0  0  0  0
  -20.5610  -28.3470   23.1690 C   0  0  0  0  0  3  0  0  0  0  0  0
  -20.6610  -26.9170   22.5910 C   0  0  0  0  0  2  0  0  0  0  0  0
  -19.5640  -26.6010   21.5690 C   0  0  0  0  0  2  0  0  0  0  0  0
  -18.1790  -26.7510   22.2040 C   0  0  0  0  0  2  0  0  0  0  0  0
  -19.1220  -28.8570   23.3210 C   0  0  0  0  0  0  0  0  0  0  0  0
  -18.9070  -30.1200   23.9120 C   0  0  0  0  0  3  0  0  0  0  0  0
  -17.6030  -30.6270   24.0710 C   0  0  0  0  0  3  0  0  0  0  0  0
  -16.4970  -29.8670   23.6490 C   0  0  0  0  0  3  0  0  0  0  0  0
  -16.6980  -28.6050   23.0620 C   0  0  0  0  0  3  0  0  0  0  0  0
  -25.8550  -32.5040   23.8690 C   0  0  0  0  0  3  0  0  0  0  0  0
  -25.5450  -33.9020   24.2000 N   0  0  0  0  0  0  0  0  0  0  0  0
  -25.8690  -34.9540   23.4370 C   0  0  0  0  0  0  0  0  0  0  0  0
  -26.5330  -34.8520   22.4030 O   0  0  0  0  0  0  0  0  0  0  0  0
  -24.9550  -34.0550   25.0050 H   0  0  0  0  0  0  0  0  0  0  0  0
  -24.1280  -36.7390   23.1030 C   0  0  0  0  0  1  0  0  0  0  0  0
  -25.3810  -36.3420   23.8980 C   0  0  0  0  0  3  0  0  0  0  0  0
  -27.5220  -37.2410   24.6980 C   0  0  0  0  0  1  0  0  0  0  0  0
  -26.4070  -37.3990   23.7680 N   0  0  0  0  0  0  0  0  0  0  0  0
  -25.9990  -38.3170   23.9200 H   0  0  0  0  0  0  0  0  0  0  0  0
  -26.3630  -31.7300   25.1480 C   0  0  1  0  0  0  0  0  0  0  0  0
  -25.2610  -31.4920   26.2060 C   0  0  0  0  0  1  0  0  0  0  0  0
  -26.9490  -30.3540   24.7580 C   0  0  0  0  0  1  0  0  0  0  0  0
  -27.5080  -32.5240   25.8200 C   0  0  0  0  0  1  0  0  0  0  0  0
  3  2  1  0
  3  1  1  0
  3  9  1  0
  4  5  1  0
  4  1  1  0
  4 48  1  0
  5  2  1  0
  5  7  1  0
  6  5  1  0
  9  8  1  0
 10  9  1  0
 10 11  2  0
 12 11  1  0
 13 18  1  0
 14 15  1  0
 14 13  1  0
 16 15  1  0
 16 23  1  0
 16 17  1  0
 18 12  1  0
 18 17  1  0
 19 12  2  0
 20 21  2  0
 21 40  1  0
 22 21  1  0
 22 25  1  0
 23 20  1  0
 23 24  1  0
 24 22  2  0
 25 26  1  0
 26 27  2  0
 28 31  1  0
 28 27  1  0
 29 28  2  0
 30 29  1  0
 30 25  2  0
 31 32  1  0
 32 33  1  0
 33 34  2  0
 35 34  1  0
 35 39  1  0
 36 35  2  0
 37 32  2  0
 37 36  1  0
 38 37  1  0
 40 41  1  0
 41 44  1  0
 41 43  1  0
 42 40  2  0
 45 46  1  0
 45 20  1  0
 47 45  1  0
 49 50  1  0
 49 48  2  0
 51 62  2  0
 52 50  1  0
 52 57  1  0
 53 61  1  0
 53 63  1  0
 54 60  1  0
 54 56  1  0
 55 61  1  0
 56 57  2  0
 56 55  1  0
 58 52  2  0
 59 58  1  0
 59 54  2  0
 60 53  1  0
 61 51  1  0
 63 65  2  0
 64 63  1  0
 66 64  1  0
 67 76  2  0
 67 72  1  0
 68 64  1  0
 68 72  1  0
 69 68  1  0
 70 71  1  0
 70 69  1  0
 71 67  1  0
 72 73  2  0
 73 74  1  0
 75 74  2  0
 76 75  1  0
 77 51  1  0
 77 78  1  0
 77 87  1  0
 78 81  1  0
 79 83  1  0
 79 78  1  0
 80 79  2  0
 83 82  1  0
 85 83  1  0
 85 86  1  0
 85 84  1  0
 87 90  1  1
 87 88  1  0
 89 87  1  0
M  ISO  4  11 100  12 100  49 101  50 101
M  END
>  <TORSDO>  (11) 
F 21

>  <SCORE>  (11) 
-13.477

>  <name>  (11) 
10

>  <ligand_id>  (11) 
10

>  <original_smiles>  (11) 
[H]c1c([H])c([H])c2c(c1[H])C([H])([H])C([H])([H])C([H])([H])C2([H])N([H])C(=O)C1([H])N(C(=O)C([H])(N([H])C(=O)C([H])(N([H])C([H])([H])[H])C([H])([H])[H])C(C([H])([H])[H])(C([H])([H])[H])C([H])([H])[H])C([H])([H])c2c([H])c(OC([H])([H])C([H])([H])C3([H])C([H])([H])C([H])(C([H])(C([H])([H])[H])C([H])([H])C([H])([H])C(=O)N4C([H])([H])C([H])([H])C([H])([H])C([H])(n5nc(-c6c([H])c([H])c(Oc7c([H])c([H])c(F)c([H])c7F)c([H])c6[H])c(C(=O)N([H])[H])c5N([H])[H])C4([H])[H])C([H])([H])[N+]3([H])[H])c([H])c([H])c2C1([H])[H]

>  <smiles>  (11) 
[H]c1c([H])c([H])c2c(c1[H])C([H])([H])C([H])([H])C([H])([H])C2([H])N([H])C(=O)C1([H])N(C(=O)C([H])(N([H])C(=O)C([H])(N([H])C([H])([H])[H])C([H])([H])[H])C(C([H])([H])[H])(C([H])([H])[H])C([H])([H])[H])C([H])([H])c2c([H])c(OC([H])([H])C([H])([H])C3([H])C([H])([H])C([H])(C([H])(C([H])([H])[H])C([H])([H])C([H])([H])C(=O)N4C([H])([H])C([H])([H])C([H])([H])C([H])(n5nc(-c6c([H])c([H])c(Oc7c([H])c([H])c(F)c([H])c7F)c([H])c6[H])c(C(=O)N([H])[H])c5N([H])[H])C4([H])[H])C([H])([H])[N+]3([H])[H])c([H])c([H])c2C1([H])[H]

$$$$
11:0:0
     RDKit          3D

 89 97  0  0  1  0  0  0  0  0999 V2000
  -29.4980  -23.2160   19.8400 C   0  0  0  0  0  2  0  0  0  0  0  0
  -27.6760  -22.9330   20.5410 C   0  0  0  0  0  2  0  0  0  0  0  0
  -28.6750  -21.7850   19.8730 C   0  0  0  0  0  3  0  0  0  0  0  0
  -28.2350  -24.2860   19.8010 C   0  0  0  0  0  3  0  0  0  0  0  0
  -28.2490  -25.8870   20.2340 O   0  0  0  0  0  0  0  0  0  0  0  0
  -24.6380  -31.8330   23.1420 C   0  0  0  0  0  0  0  0  0  0  0  0
  -27.2190  -26.9640   20.1340 C   0  0  0  0  0  0  0  0  0  0  0  0
  -23.4500  -30.4290   21.5030 C   0  0  0  0  0  3  0  0  0  0  0  0
  -24.9070  -28.8280   20.0800 C   0  0  0  0  0  0  0  0  0  0  0  0
  -26.0140  -30.6540   21.3550 C   0  0  0  0  0  2  0  0  0  0  0  0
  -26.0910  -29.2440   20.7000 C   0  0  0  0  0  0  0  0  0  0  0  0
  -27.2390  -28.3320   20.7000 C   0  0  0  0  0  3  0  0  0  0  0  0
  -26.0040  -26.6960   19.4650 C   0  0  0  0  0  3  0  0  0  0  0  0
  -24.8890  -27.5750   19.4420 C   0  0  0  0  0  3  0  0  0  0  0  0
  -23.6820  -29.7420   20.1280 C   0  0  0  0  0  2  0  0  0  0  0  0
  -24.7220  -31.0000   22.0540 N   0  0  0  0  0  0  0  0  0  0  0  0
  -23.5470  -32.1180   23.6630 O   0  0  0  0  0  0  0  0  0  0  0  0
  -22.7590  -29.4330   22.4710 C   0  0  0  0  0  0  0  0  0  0  0  0
  -21.4260  -29.2820   22.3610 N   0  0  0  0  0  0  0  0  0  0  0  0
  -23.4290  -28.7960   23.2870 O   0  0  0  0  0  0  0  0  0  0  0  0
  -20.9400  -29.8440   21.6770 H   0  0  0  0  0  0  0  0  0  0  0  0
  -18.0380  -28.1090   22.9200 C   0  0  0  0  0  0  0  0  0  0  0  0
  -20.6060  -28.3440   23.1360 C   0  0  0  0  0  3  0  0  0  0  0  0
  -20.6800  -26.9190   22.5400 C   0  0  0  0  0  2  0  0  0  0  0  0
  -19.5560  -26.6230   21.5420 C   0  0  0  0  0  2  0  0  0  0  0  0
  -18.1870  -26.7710   22.2150 C   0  0  0  0  0  2  0  0  0  0  0  0
  -19.1730  -28.8550   23.3360 C   0  0  0  0  0  0  0  0  0  0  0  0
  -18.9790  -30.1060   23.9600 C   0  0  0  0  0  3  0  0  0  0  0  0
  -17.6820  -30.6140   24.1670 C   0  0  0  0  0  3  0  0  0  0  0  0
  -16.5620  -29.8660   23.7630 C   0  0  0  0  0  3  0  0  0  0  0  0
  -16.7400  -28.6160   23.1470 C   0  0  0  0  0  3  0  0  0  0  0  0
  -25.9060  -32.4810   23.7760 C   0  0  0  0  0  3  0  0  0  0  0  0
  -26.4170  -31.7170   25.0600 C   0  0  1  0  0  0  0  0  0  0  0  0
  -25.3180  -31.4740   26.1210 C   0  0  0  0  0  1  0  0  0  0  0  0
  -27.0130  -30.3410   24.6830 C   0  0  0  0  0  1  0  0  0  0  0  0
  -27.5590  -32.5210   25.7270 C   0  0  0  0  0  1  0  0  0  0  0  0
  -25.5790  -33.8780   24.1180 N   0  0  0  0  0  0  0  0  0  0  0  0
  -25.9030  -34.9450   23.3770 C   0  0  0  0  0  0  0  0  0  0  0  0
  -26.5710  -34.8600   22.3440 O   0  0  0  0  0  0  0  0  0  0  0  0
  -24.9830  -34.0170   24.9200 H   0  0  0  0  0  0  0  0  0  0  0  0
  -24.1620  -36.7380   23.0610 C   0  0  0  0  0  1  0  0  0  0  0  0
  -25.4110  -36.3270   23.8560 C   0  0  0  0  0  3  0  0  0  0  0  0
  -27.5430  -37.2190   24.6880 C   0  0  0  0  0  1  0  0  0  0  0  0
  -26.4360  -37.3890   23.7510 N   0  0  0  0  0  0  0  0  0  0  0  0
  -26.0230  -38.3050   23.9110 H   0  0  0  0  0  0  0  0  0  0  0  0
  -29.0210  -20.1050   20.4910 C   0  0  0  0  0  3  0  0  0  0  0  0
  -27.7380  -19.6550   21.0500 N   0  0  0  0  0  4  0  0  0  0  0  0
  -27.0780  -19.4610   20.3210 H   0  0  0  0  0  0  0  0  0  0  0  0
  -27.3520  -20.3630   21.6480 H   0  0  0  0  0  0  0  0  0  0  0  0
  -27.8680  -18.8250   21.5990 H   0  0  0  0  0  0  0  0  0  0  0  0
  -29.4340  -18.6320   18.2860 C   0  0  0  0  0  1  0  0  0  0  0  0
  -29.7370  -18.5940   19.7880 C   0  0  0  0  0  3  0  0  0  0  0  0
  -29.6610  -16.8530   20.3120 C   0  0  0  0  0  2  0  0  0  0  0  0
  -30.4420  -15.3310   19.8630 C   0  0  0  0  0  0  0  0  0  0  0  0
  -30.4060  -12.8830   18.9590 C   0  0  0  0  0  2  0  0  0  0  0  0
  -29.4080  -12.7090   17.7830 C   0  0  0  0  0  2  0  0  0  0  0  0
  -27.9890  -12.4250   18.3040 C   0  0  0  0  0  2  0  0  0  0  0  0
  -27.6100  -13.3650   19.4750 C   0  0  0  0  0  3  0  0  0  0  0  0
  -28.7250  -13.4820   20.5350 C   0  0  0  0  0  2  0  0  0  0  0  0
  -29.9230  -14.0010   19.8560 N   0  0  0  0  0  0  0  0  0  0  0  0
  -31.6150  -15.3580   19.4590 O   0  0  0  0  0  0  0  0  0  0  0  0
  -25.3000  -13.9050   20.4100 C   0  0  0  0  0  0  0  0  0  0  0  0
  -24.2620  -13.1190   20.8250 C   0  0  0  0  0  0  0  0  0  0  0  0
  -24.7170  -11.7690   20.7160 C   0  0  0  0  0  0  0  0  0  0  0  0
  -26.3170  -13.0350   20.0620 N   0  0  0  0  0  0  0  0  0  0  0  0
  -25.9850  -11.7400   20.3130 N   0  0  0  0  0  0  0  0  0  0  0  0
  -23.9970  -10.5030   20.9120 C   0  0  0  0  0  0  0  0  0  0  0  0
  -24.4560   -9.5230   21.8190 C   0  0  0  0  0  3  0  0  0  0  0  0
  -23.7310   -8.3260   22.0080 C   0  0  0  0  0  3  0  0  0  0  0  0
  -22.5330   -8.1000   21.2900 C   0  0  0  0  0  0  0  0  0  0  0  0
  -22.0920   -9.0690   20.3700 C   0  0  0  0  0  3  0  0  0  0  0  0
  -22.8180  -10.2560   20.1800 C   0  0  0  0  0  3  0  0  0  0  0  0
  -21.7790   -6.9560   21.3880 O   0  0  0  0  0  0  0  0  0  0  0  0
  -21.7350   -6.2200   22.5440 C   0  0  0  0  0  0  0  0  0  0  0  0
  -21.3020   -6.7790   23.7670 C   0  0  0  0  0  3  0  0  0  0  0  0
  -21.2060   -5.9690   24.9170 C   0  0  0  0  0  3  0  0  0  0  0  0
  -21.5310   -4.6020   24.8450 C   0  0  0  0  0  0  0  0  0  0  0  0
  -21.9560   -4.0420   23.6270 C   0  0  0  0  0  3  0  0  0  0  0  0
  -22.0540   -4.8480   22.4800 C   0  0  0  0  0  0  0  0  0  0  0  0
  -22.4430   -4.2980   21.3030 F   0  0  0  0  0  0  0  0  0  0  0  0
  -21.4310   -3.8230   25.9470 F   0  0  0  0  0  0  0  0  0  0  0  0
  -22.8890  -13.5920   21.2030 C   0  0  0  0  0  0  0  0  0  0  0  0
  -22.2180  -12.8740   22.0950 N   0  0  0  0  0  0  0  0  0  0  0  0
  -22.4230  -14.6340   20.7430 O   0  0  0  0  0  0  0  0  0  0  0  0
  -22.6110  -12.0310   22.4880 H   0  0  0  0  0  0  0  0  0  0  0  0
  -21.2980  -13.1710   22.3920 H   0  0  0  0  0  0  0  0  0  0  0  0
  -25.4560  -15.2800   20.2700 N   0  0  0  0  0  0  0  0  0  0  0  0
  -24.6940  -15.9250   20.4500 H   0  0  0  0  0  0  0  0  0  0  0  0
  -26.2670  -15.7260   19.8620 H   0  0  0  0  0  0  0  0  0  0  0  0
  1  3  1  0
  3 46  1  0
  3  2  1  0
  4  1  1  0
  4  5  1  0
  4  2  1  0
  6 17  2  0
  7  5  1  0
  7 12  1  0
  8 16  1  0
  8 18  1  0
  9 15  1  0
  9 11  1  0
 10 16  1  0
 11 10  1  0
 12 11  2  0
 13  7  2  0
 14 13  1  0
 14  9  2  0
 15  8  1  0
 16  6  1  0
 18 20  2  0
 19 18  1  0
 21 19  1  0
 22 31  2  0
 22 27  1  0
 23 19  1  0
 23 27  1  0
 24 23  1  0
 25 26  1  0
 25 24  1  0
 26 22  1  0
 27 28  2  0
 28 29  1  0
 30 29  2  0
 31 30  1  0
 32  6  1  0
 32 37  1  0
 32 33  1  0
 33 36  1  1
 33 34  1  0
 35 33  1  0
 37 40  1  0
 38 42  1  0
 38 37  1  0
 39 38  2  0
 42 41  1  0
 44 42  1  0
 44 45  1  0
 44 43  1  0
 46 47  1  0
 47 50  1  0
 47 49  1  0
 48 47  1  0
 52 51  1  0
 52 53  1  0
 52 46  1  0
 54 53  1  0
 55 60  1  0
 56 57  1  0
 56 55  1  0
 58 57  1  0
 58 65  1  0
 58 59  1  0
 60 54  1  0
 60 59  1  0
 61 54  2  0
 62 63  2  0
 63 82  1  0
 64 63  1  0
 64 67  1  0
 65 66  1  0
 65 62  1  0
 66 64  2  0
 67 68  1  0
 68 69  2  0
 70 73  1  0
 70 69  1  0
 71 70  2  0
 72 71  1  0
 72 67  2  0
 73 74  1  0
 74 75  1  0
 75 76  2  0
 77 76  1  0
 77 81  1  0
 78 77  2  0
 79 74  2  0
 79 78  1  0
 80 79  1  0
 82 83  1  0
 83 86  1  0
 83 85  1  0
 84 82  2  0
 87 62  1  0
 87 88  1  0
 89 87  1  0
M  ISO  4   4 101   5 101  53 100  54 100
M  END
>  <TORSDO>  (12) 
F 20

>  <SCORE>  (12) 
-16.312

>  <name>  (12) 
11

>  <ligand_id>  (12) 
11

>  <original_smiles>  (12) 
[H]c1c([H])c([H])c2c(c1[H])C([H])([H])C([H])([H])C([H])([H])C2([H])N([H])C(=O)C1([H])N(C(=O)C([H])(N([H])C(=O)C([H])(N([H])C([H])([H])[H])C([H])([H])[H])C(C([H])([H])[H])(C([H])([H])[H])C([H])([H])[H])C([H])([H])c2c([H])c(OC3([H])C([H])([H])C([H])(C([H])(C([H])(C([H])([H])[H])C([H])([H])C(=O)N4C([H])([H])C([H])([H])C([H])([H])C([H])(n5nc(-c6c([H])c([H])c(Oc7c([H])c([H])c(F)c([H])c7F)c([H])c6[H])c(C(=O)N([H])[H])c5N([H])[H])C4([H])[H])[N+]([H])([H])[H])C3([H])[H])c([H])c([H])c2C1([H])[H]

>  <smiles>  (12) 
[H]c1c([H])c([H])c2c(c1[H])C([H])([H])C([H])([H])C([H])([H])C2([H])N([H])C(=O)C1([H])N(C(=O)C([H])(N([H])C(=O)C([H])(N([H])C([H])([H])[H])C([H])([H])[H])C(C([H])([H])[H])(C([H])([H])[H])C([H])([H])[H])C([H])([H])c2c([H])c(OC3([H])C([H])([H])C([H])(C([H])(C([H])(C([H])([H])[H])C([H])([H])C(=O)N4C([H])([H])C([H])([H])C([H])([H])C([H])(n5nc(-c6c([H])c([H])c(Oc7c([H])c([H])c(F)c([H])c7F)c([H])c6[H])c(C(=O)N([H])[H])c5N([H])[H])C4([H])[H])[N+]([H])([H])[H])C3([H])[H])c([H])c([H])c2C1([H])[H]

$$$$
12:0:0
     RDKit          3D

 86 94  0  0  1  0  0  0  0  0999 V2000
  -28.7400  -22.7160   20.4230 C   0  0  0  0  0  3  0  0  0  0  0  0
  -27.7160  -20.9160   18.7340 C   0  0  0  0  0  1  0  0  0  0  0  0
  -28.9290  -21.0970   19.6590 C   0  0  0  0  0  3  0  0  0  0  0  0
  -30.4890  -15.2890   19.8670 C   0  0  0  0  0  0  0  0  0  0  0  0
  -30.3640  -12.8670   18.9420 C   0  0  0  0  0  2  0  0  0  0  0  0
  -29.3620  -12.6960   17.7710 C   0  0  0  0  0  2  0  0  0  0  0  0
  -27.9450  -12.4320   18.3060 C   0  0  0  0  0  2  0  0  0  0  0  0
  -27.5890  -13.3710   19.4860 C   0  0  0  0  0  3  0  0  0  0  0  0
  -28.7110  -13.4740   20.5400 C   0  0  0  0  0  2  0  0  0  0  0  0
  -29.8910  -13.9940   19.8320 N   0  0  0  0  0  0  0  0  0  0  0  0
  -31.6690  -15.2620   19.4840 O   0  0  0  0  0  0  0  0  0  0  0  0
  -28.3550  -18.5410   20.9630 C   0  0  0  0  0  2  0  0  0  0  0  0
  -28.8290  -17.0080   21.0670 C   0  0  0  0  0  2  0  0  0  0  0  0
  -30.0270  -18.0830   19.4330 C   0  0  0  0  0  2  0  0  0  0  0  0
  -29.4000  -19.4530   20.2520 C   0  0  0  0  0  3  0  0  0  0  0  0
  -29.7860  -16.6010   20.0040 N   0  0  0  0  0  0  0  0  0  0  0  0
  -25.2790  -13.9310   20.4020 C   0  0  0  0  0  0  0  0  0  0  0  0
  -24.2380  -13.1520   20.8220 C   0  0  0  0  0  0  0  0  0  0  0  0
  -24.6910  -11.8000   20.7320 C   0  0  0  0  0  0  0  0  0  0  0  0
  -26.2950  -13.0540   20.0720 N   0  0  0  0  0  0  0  0  0  0  0  0
  -25.9600  -11.7650   20.3370 N   0  0  0  0  0  0  0  0  0  0  0  0
  -23.9680  -10.5390   20.9400 C   0  0  0  0  0  0  0  0  0  0  0  0
  -24.4360   -9.5580   21.8450 C   0  0  0  0  0  3  0  0  0  0  0  0
  -23.7100   -8.3650   22.0440 C   0  0  0  0  0  3  0  0  0  0  0  0
  -22.5020   -8.1430   21.3420 C   0  0  0  0  0  0  0  0  0  0  0  0
  -22.0530   -9.1120   20.4260 C   0  0  0  0  0  3  0  0  0  0  0  0
  -22.7800  -10.2980   20.2240 C   0  0  0  0  0  3  0  0  0  0  0  0
  -21.7430   -7.0030   21.4530 O   0  0  0  0  0  0  0  0  0  0  0  0
  -21.7170   -6.2650   22.6100 C   0  0  0  0  0  0  0  0  0  0  0  0
  -21.3370   -6.8300   23.8470 C   0  0  0  0  0  3  0  0  0  0  0  0
  -21.2600   -6.0190   24.9970 C   0  0  0  0  0  3  0  0  0  0  0  0
  -21.5510   -4.6450   24.9120 C   0  0  0  0  0  0  0  0  0  0  0  0
  -21.9250   -4.0800   23.6790 C   0  0  0  0  0  3  0  0  0  0  0  0
  -22.0050   -4.8880   22.5320 C   0  0  0  0  0  0  0  0  0  0  0  0
  -22.3440   -4.3320   21.3430 F   0  0  0  0  0  0  0  0  0  0  0  0
  -21.4710   -3.8650   26.0150 F   0  0  0  0  0  0  0  0  0  0  0  0
  -22.8650  -13.6320   21.1900 C   0  0  0  0  0  0  0  0  0  0  0  0
  -22.1920  -12.9250   22.0910 N   0  0  0  0  0  0  0  0  0  0  0  0
  -22.4010  -14.6690   20.7150 O   0  0  0  0  0  0  0  0  0  0  0  0
  -22.5820  -12.0830   22.4860 H   0  0  0  0  0  0  0  0  0  0  0  0
  -21.2750  -13.2290   22.3870 H   0  0  0  0  0  0  0  0  0  0  0  0
  -25.4430  -15.3040   20.2460 N   0  0  0  0  0  0  0  0  0  0  0  0
  -24.6940  -15.9660   20.4190 H   0  0  0  0  0  0  0  0  0  0  0  0
  -26.2810  -15.7410   19.8820 H   0  0  0  0  0  0  0  0  0  0  0  0
  -28.0760  -24.2920   19.8550 C   0  0  0  0  0  3  0  0  0  0  0  0
  -28.1820  -25.8690   20.3170 O   0  0  0  0  0  0  0  0  0  0  0  0
  -24.6090  -31.8460   23.1800 C   0  0  0  0  0  0  0  0  0  0  0  0
  -27.1780  -26.9620   20.2000 C   0  0  0  0  0  0  0  0  0  0  0  0
  -23.4280  -30.4450   21.5360 C   0  0  0  0  0  3  0  0  0  0  0  0
  -24.8840  -28.8370   20.1280 C   0  0  0  0  0  0  0  0  0  0  0  0
  -25.9940  -30.6560   21.4090 C   0  0  0  0  0  2  0  0  0  0  0  0
  -26.0650  -29.2440   20.7590 C   0  0  0  0  0  0  0  0  0  0  0  0
  -27.2050  -28.3250   20.7760 C   0  0  0  0  0  3  0  0  0  0  0  0
  -25.9720  -26.7090   19.5090 C   0  0  0  0  0  3  0  0  0  0  0  0
  -24.8610  -27.5890   19.4850 C   0  0  0  0  0  3  0  0  0  0  0  0
  -23.6660  -29.7580   20.1640 C   0  0  0  0  0  2  0  0  0  0  0  0
  -24.6990  -31.0100   22.0950 N   0  0  0  0  0  0  0  0  0  0  0  0
  -23.5170  -32.1390   23.6910 O   0  0  0  0  0  0  0  0  0  0  0  0
  -22.7250  -29.4540   22.5000 C   0  0  0  0  0  0  0  0  0  0  0  0
  -21.3950  -29.2890   22.3660 N   0  0  0  0  0  0  0  0  0  0  0  0
  -23.3840  -28.8340   23.3380 O   0  0  0  0  0  0  0  0  0  0  0  0
  -20.9170  -29.8410   21.6680 H   0  0  0  0  0  0  0  0  0  0  0  0
  -18.0120  -28.0700   22.8400 C   0  0  0  0  0  0  0  0  0  0  0  0
  -20.5670  -28.3540   23.1340 C   0  0  0  0  0  3  0  0  0  0  0  0
  -20.6840  -26.9160   22.5730 C   0  0  0  0  0  2  0  0  0  0  0  0
  -19.5960  -26.5790   21.5470 C   0  0  0  0  0  2  0  0  0  0  0  0
  -18.2040  -26.7180   22.1720 C   0  0  0  0  0  2  0  0  0  0  0  0
  -19.1200  -28.8440   23.2790 C   0  0  0  0  0  0  0  0  0  0  0  0
  -18.8830  -30.1070   23.8640 C   0  0  0  0  0  3  0  0  0  0  0  0
  -17.5720  -30.5950   24.0180 C   0  0  0  0  0  3  0  0  0  0  0  0
  -16.4790  -29.8190   23.5940 C   0  0  0  0  0  3  0  0  0  0  0  0
  -16.7000  -28.5590   23.0110 C   0  0  0  0  0  3  0  0  0  0  0  0
  -25.8750  -32.4900   23.8230 C   0  0  0  0  0  3  0  0  0  0  0  0
  -25.5550  -33.8920   24.1480 N   0  0  0  0  0  0  0  0  0  0  0  0
  -25.8870  -34.9490   23.3950 C   0  0  0  0  0  0  0  0  0  0  0  0
  -26.5560  -34.8470   22.3640 O   0  0  0  0  0  0  0  0  0  0  0  0
  -24.9530  -34.0440   24.9430 H   0  0  0  0  0  0  0  0  0  0  0  0
  -24.1520  -36.7460   23.0610 C   0  0  0  0  0  1  0  0  0  0  0  0
  -25.4030  -36.3390   23.8570 C   0  0  0  0  0  3  0  0  0  0  0  0
  -27.5430  -37.2330   24.6630 C   0  0  0  0  0  1  0  0  0  0  0  0
  -26.4310  -37.3940   23.7310 N   0  0  0  0  0  0  0  0  0  0  0  0
  -26.0250  -38.3150   23.8790 H   0  0  0  0  0  0  0  0  0  0  0  0
  -26.3650  -31.7320   25.1180 C   0  0  1  0  0  0  0  0  0  0  0  0
  -25.2530  -31.5140   26.1720 C   0  0  0  0  0  1  0  0  0  0  0  0
  -26.9500  -30.3460   24.7590 C   0  0  0  0  0  1  0  0  0  0  0  0
  -27.5070  -32.5290   25.7910 C   0  0  0  0  0  1  0  0  0  0  0  0
  3  2  1  0
  3  1  1  0
  4 16  1  0
  5 10  1  0
  6  7  1  0
  6  5  1  0
  8  7  1  0
  8 20  1  0
  8  9  1  0
 10  4  1  0
 10  9  1  0
 11  4  2  0
 12 13  1  0
 14 16  1  0
 14 15  1  0
 15  3  1  0
 15 12  1  0
 16 13  1  0
 17 18  2  0
 18 37  1  0
 19 18  1  0
 19 22  1  0
 20 21  1  0
 20 17  1  0
 21 19  2  0
 22 23  1  0
 23 24  2  0
 25 28  1  0
 25 24  1  0
 26 25  2  0
 27 26  1  0
 27 22  2  0
 28 29  1  0
 29 30  1  0
 30 31  2  0
 32 31  1  0
 32 36  1  0
 33 32  2  0
 34 29  2  0
 34 33  1  0
 35 34  1  0
 37 38  1  0
 38 41  1  0
 38 40  1  0
 39 37  2  0
 42 17  1  0
 42 43  1  0
 44 42  1  0
 45 46  1  0
 45  1  2  0
 47 58  2  0
 48 46  1  0
 48 53  1  0
 49 57  1  0
 49 59  1  0
 50 56  1  0
 50 52  1  0
 51 57  1  0
 52 53  2  0
 52 51  1  0
 54 48  2  0
 55 54  1  0
 55 50  2  0
 56 49  1  0
 57 47  1  0
 59 61  2  0
 60 59  1  0
 62 60  1  0
 63 72  2  0
 63 68  1  0
 64 60  1  0
 64 68  1  0
 65 64  1  0
 66 67  1  0
 66 65  1  0
 67 63  1  0
 68 69  2  0
 69 70  1  0
 71 70  2  0
 72 71  1  0
 73 47  1  0
 73 74  1  0
 73 83  1  0
 74 77  1  0
 75 79  1  0
 75 74  1  0
 76 75  2  0
 79 78  1  0
 81 79  1  0
 81 82  1  0
 81 80  1  0
 83 86  1  1
 83 84  1  0
 85 83  1  0
M  ISO  4   4 100  16 100  45 101  46 101
M  END
>  <TORSDO>  (13) 
F 18

>  <SCORE>  (13) 
-15.387

>  <name>  (13) 
12

>  <ligand_id>  (13) 
12

>  <original_smiles>  (13) 
[H]c1c([H])c([H])c2c(c1[H])C([H])([H])C([H])([H])C([H])([H])C2([H])N([H])C(=O)C1([H])N(C(=O)C([H])(N([H])C(=O)C([H])(N([H])C([H])([H])[H])C([H])([H])[H])C(C([H])([H])[H])(C([H])([H])[H])C([H])([H])[H])C([H])([H])c2c([H])c(OC([H])([H])C([H])([H])C([H])(C([H])([H])[H])C3([H])C([H])([H])N(C(=O)N4C([H])([H])C([H])([H])C([H])([H])C([H])(n5nc(-c6c([H])c([H])c(Oc7c([H])c([H])c(F)c([H])c7F)c([H])c6[H])c(C(=O)N([H])[H])c5N([H])[H])C4([H])[H])C([H])([H])C3([H])[H])c([H])c([H])c2C1([H])[H]

>  <smiles>  (13) 
[H]c1c([H])c([H])c2c(c1[H])C([H])([H])C([H])([H])C([H])([H])C2([H])N([H])C(=O)C1([H])N(C(=O)C([H])(N([H])C(=O)C([H])(N([H])C([H])([H])[H])C([H])([H])[H])C(C([H])([H])[H])(C([H])([H])[H])C([H])([H])[H])C([H])([H])c2c([H])c(OC([H])([H])C([H])([H])C([H])(C([H])([H])[H])C3([H])C([H])([H])N(C(=O)N4C([H])([H])C([H])([H])C([H])([H])C([H])(n5nc(-c6c([H])c([H])c(Oc7c([H])c([H])c(F)c([H])c7F)c([H])c6[H])c(C(=O)N([H])[H])c5N([H])[H])C4([H])[H])C([H])([H])C3([H])[H])c([H])c([H])c2C1([H])[H]

$$$$
13:0:0
     RDKit          3D

 86 94  0  0  1  0  0  0  0  0999 V2000
  -30.8150  -15.5940   19.8010 C   0  0  0  0  0  0  0  0  0  0  0  0
  -30.9000  -12.9250   19.5780 C   0  0  0  0  0  2  0  0  0  0  0  0
  -30.0920  -12.2550   18.4280 C   0  0  0  0  0  2  0  0  0  0  0  0
  -28.6370  -12.0030   18.8560 C   0  0  0  0  0  2  0  0  0  0  0  0
  -28.0700  -13.2120   19.6310 C   0  0  0  0  0  3  0  0  0  0  0  0
  -29.0290  -13.7810   20.6970 C   0  0  0  0  0  2  0  0  0  0  0  0
  -30.2520  -14.2550   20.0020 N   0  0  0  0  0  0  0  0  0  0  0  0
  -32.0450  -15.4540   19.6390 O   0  0  0  0  0  0  0  0  0  0  0  0
  -30.5230  -18.5050   18.8930 C   0  0  0  0  0  2  0  0  0  0  0  0
  -29.3750  -19.8980   18.6770 C   0  0  0  0  0  3  0  0  0  0  0  0
  -28.6680  -19.2160   19.9300 C   0  0  0  0  0  3  0  0  0  0  0  0
  -28.9300  -17.6010   20.1900 C   0  0  0  0  0  3  0  0  0  0  0  0
  -27.1670  -19.5260   20.0030 C   0  0  0  0  0  1  0  0  0  0  0  0
  -28.9820  -17.3750   21.7190 C   0  0  0  0  0  1  0  0  0  0  0  0
  -30.1490  -16.9980   19.5440 N   0  0  0  0  0  0  0  0  0  0  0  0
  -25.7630  -13.9440   20.4030 C   0  0  0  0  0  0  0  0  0  0  0  0
  -24.6410  -13.2580   20.7660 C   0  0  0  0  0  0  0  0  0  0  0  0
  -24.9910  -11.8710   20.7240 C   0  0  0  0  0  0  0  0  0  0  0  0
  -26.7270  -12.9870   20.1470 N   0  0  0  0  0  0  0  0  0  0  0  0
  -26.2770  -11.7310   20.4100 N   0  0  0  0  0  0  0  0  0  0  0  0
  -24.1550  -10.6780   20.9010 C   0  0  0  0  0  0  0  0  0  0  0  0
  -24.5310   -9.6330   21.7730 C   0  0  0  0  0  3  0  0  0  0  0  0
  -23.6960   -8.5080   21.9470 C   0  0  0  0  0  3  0  0  0  0  0  0
  -22.4670   -8.4210   21.2480 C   0  0  0  0  0  0  0  0  0  0  0  0
  -22.1100   -9.4520   20.3620 C   0  0  0  0  0  3  0  0  0  0  0  0
  -22.9450  -10.5680   20.1860 C   0  0  0  0  0  3  0  0  0  0  0  0
  -21.6080   -7.3530   21.3310 O   0  0  0  0  0  0  0  0  0  0  0  0
  -21.5840   -6.5310   22.4300 C   0  0  0  0  0  0  0  0  0  0  0  0
  -21.3190   -7.0270   23.7230 C   0  0  0  0  0  3  0  0  0  0  0  0
  -21.2300   -6.1390   24.8140 C   0  0  0  0  0  3  0  0  0  0  0  0
  -21.4020   -4.7560   24.6120 C   0  0  0  0  0  0  0  0  0  0  0  0
  -21.6590   -4.2590   23.3230 C   0  0  0  0  0  3  0  0  0  0  0  0
  -21.7480   -5.1450   22.2340 C   0  0  0  0  0  0  0  0  0  0  0  0
  -21.9760   -4.6580   20.9900 F   0  0  0  0  0  0  0  0  0  0  0  0
  -21.3140   -3.9020   25.6580 F   0  0  0  0  0  0  0  0  0  0  0  0
  -23.2890  -13.8550   21.0300 C   0  0  0  0  0  0  0  0  0  0  0  0
  -22.5040  -13.2340   21.9020 N   0  0  0  0  0  0  0  0  0  0  0  0
  -22.9410  -14.9090   20.4960 O   0  0  0  0  0  0  0  0  0  0  0  0
  -22.7990  -12.3860   22.3650 H   0  0  0  0  0  0  0  0  0  0  0  0
  -21.5930  -13.6150   22.1110 H   0  0  0  0  0  0  0  0  0  0  0  0
  -26.0350  -15.3000   20.2380 N   0  0  0  0  0  0  0  0  0  0  0  0
  -25.3180  -16.0050   20.3670 H   0  0  0  0  0  0  0  0  0  0  0  0
  -26.9130  -15.6850   19.9210 H   0  0  0  0  0  0  0  0  0  0  0  0
  -29.4680  -21.8480   18.4280 C   0  0  0  0  0  3  0  0  0  0  0  0
  -28.4200  -23.4750   18.1070 C   0  0  0  0  0  3  0  0  0  0  0  0
  -28.4840  -25.2490   18.1860 O   0  0  0  0  0  0  0  0  0  0  0  0
  -24.8200  -30.7080   22.3160 C   0  0  0  0  0  0  0  0  0  0  0  0
  -27.4460  -26.4020   18.3610 C   0  0  0  0  0  0  0  0  0  0  0  0
  -23.6190  -29.5580   20.5030 C   0  0  0  0  0  3  0  0  0  0  0  0
  -25.0750  -28.2810   18.7510 C   0  0  0  0  0  0  0  0  0  0  0  0
  -26.1760  -29.8770   20.2980 C   0  0  0  0  0  2  0  0  0  0  0  0
  -26.2790  -28.5910   19.3920 C   0  0  0  0  0  0  0  0  0  0  0  0
  -27.4460  -27.6870   19.1680 C   0  0  0  0  0  3  0  0  0  0  0  0
  -26.1970  -26.3140   17.6960 C   0  0  0  0  0  3  0  0  0  0  0  0
  -25.0710  -27.1780   17.8800 C   0  0  0  0  0  3  0  0  0  0  0  0
  -23.8240  -29.1360   19.0190 C   0  0  0  0  0  2  0  0  0  0  0  0
  -24.8970  -30.0730   21.0960 N   0  0  0  0  0  0  0  0  0  0  0  0
  -23.7430  -30.8440   22.9210 O   0  0  0  0  0  0  0  0  0  0  0  0
  -23.0080  -28.3810   21.3110 C   0  0  0  0  0  0  0  0  0  0  0  0
  -21.6760  -28.1880   21.2430 N   0  0  0  0  0  0  0  0  0  0  0  0
  -23.7420  -27.6450   21.9750 O   0  0  0  0  0  0  0  0  0  0  0  0
  -21.1290  -28.8400   20.6970 H   0  0  0  0  0  0  0  0  0  0  0  0
  -18.3800  -26.7380   21.7320 C   0  0  0  0  0  0  0  0  0  0  0  0
  -20.9410  -27.0810   21.8710 C   0  0  0  0  0  3  0  0  0  0  0  0
  -21.0520  -25.7910   21.0230 C   0  0  0  0  0  2  0  0  0  0  0  0
  -19.8900  -25.6150   20.0390 C   0  0  0  0  0  2  0  0  0  0  0  0
  -18.5560  -25.5590   20.7880 C   0  0  0  0  0  2  0  0  0  0  0  0
  -19.4980  -27.4630   22.2260 C   0  0  0  0  0  0  0  0  0  0  0  0
  -19.2740  -28.5660   23.0770 C   0  0  0  0  0  3  0  0  0  0  0  0
  -17.9660  -28.9470   23.4350 C   0  0  0  0  0  3  0  0  0  0  0  0
  -16.8650  -28.2200   22.9510 C   0  0  0  0  0  3  0  0  0  0  0  0
  -17.0740  -27.1160   22.1060 C   0  0  0  0  0  3  0  0  0  0  0  0
  -26.0810  -31.3110   23.0110 C   0  0  0  0  0  3  0  0  0  0  0  0
  -25.6690  -32.5330   23.7280 N   0  0  0  0  0  0  0  0  0  0  0  0
  -25.8830  -33.7880   23.3070 C   0  0  0  0  0  0  0  0  0  0  0  0
  -26.5010  -34.0420   22.2700 O   0  0  0  0  0  0  0  0  0  0  0  0
  -25.1030  -32.3980   24.5530 H   0  0  0  0  0  0  0  0  0  0  0  0
  -24.0170  -35.4680   23.5550 C   0  0  0  0  0  1  0  0  0  0  0  0
  -25.3270  -34.9440   24.1670 C   0  0  0  0  0  3  0  0  0  0  0  0
  -27.4330  -35.7370   25.1520 C   0  0  0  0  0  1  0  0  0  0  0  0
  -26.2730  -36.0700   24.3300 N   0  0  0  0  0  0  0  0  0  0  0  0
  -25.8090  -36.8720   24.7470 H   0  0  0  0  0  0  0  0  0  0  0  0
  -26.7710  -30.3080   24.0170 C   0  0  1  0  0  0  0  0  0  0  0  0
  -25.8060  -29.7140   25.0700 C   0  0  0  0  0  1  0  0  0  0  0  0
  -27.4250  -29.1280   23.2650 C   0  0  0  0  0  1  0  0  0  0  0  0
  -27.9100  -31.0270   24.7780 C   0  0  0  0  0  1  0  0  0  0  0  0
  1  7  1  0
  2  7  1  0
  3  4  1  0
  3  2  1  0
  5  4  1  0
  5 19  1  0
  5  6  1  0
  7  6  1  0
  8  1  2  0
  9 15  1  0
 10 44  1  0
 10  9  1  0
 10 11  1  0
 11 13  1  0
 11 12  1  0
 12 14  1  0
 15  1  1  0
 15 12  1  0
 16 17  2  0
 17 36  1  0
 18 17  1  0
 18 21  1  0
 19 16  1  0
 19 20  1  0
 20 18  2  0
 21 22  1  0
 22 23  2  0
 24 27  1  0
 24 23  1  0
 25 24  2  0
 26 25  1  0
 26 21  2  0
 27 28  1  0
 28 29  1  0
 29 30  2  0
 31 30  1  0
 31 35  1  0
 32 31  2  0
 33 28  2  0
 33 32  1  0
 34 33  1  0
 36 37  1  0
 37 40  1  0
 37 39  1  0
 38 36  2  0
 41 42  1  0
 41 16  1  0
 43 41  1  0
 45 46  1  0
 45 44  2  0
 46 48  1  0
 47 58  2  0
 48 53  1  0
 49 57  1  0
 49 59  1  0
 50 56  1  0
 50 52  1  0
 51 57  1  0
 52 51  1  0
 53 52  2  0
 54 55  1  0
 54 48  2  0
 55 50  2  0
 56 49  1  0
 57 47  1  0
 59 61  2  0
 60 59  1  0
 62 60  1  0
 63 72  2  0
 63 68  1  0
 64 60  1  0
 64 68  1  0
 65 64  1  0
 66 67  1  0
 66 65  1  0
 67 63  1  0
 68 69  2  0
 69 70  1  0
 71 70  2  0
 72 71  1  0
 73 47  1  0
 73 74  1  0
 73 83  1  0
 74 77  1  0
 75 74  1  0
 75 79  1  0
 76 75  2  0
 79 78  1  0
 79 81  1  0
 81 82  1  0
 81 80  1  0
 83 86  1  1
 83 84  1  0
 85 83  1  0
M  ISO  4   1 100  15 100  45 101  46 101
M  END
>  <TORSDO>  (14) 
F 17

>  <SCORE>  (14) 
-11.122

>  <name>  (14) 
13

>  <ligand_id>  (14) 
13

>  <original_smiles>  (14) 
[H]c1c([H])c([H])c2c(c1[H])C([H])([H])C([H])([H])C([H])([H])C2([H])N([H])C(=O)C1([H])N(C(=O)C([H])(N([H])C(=O)C([H])(N([H])C([H])([H])[H])C([H])([H])[H])C(C([H])([H])[H])(C([H])([H])[H])C([H])([H])[H])C([H])([H])c2c([H])c(OC([H])([H])C([H])([H])C3([H])C([H])([H])N(C(=O)N4C([H])([H])C([H])([H])C([H])([H])C([H])(n5nc(-c6c([H])c([H])c(Oc7c([H])c([H])c(F)c([H])c7F)c([H])c6[H])c(C(=O)N([H])[H])c5N([H])[H])C4([H])[H])C([H])(C([H])([H])[H])C3([H])C([H])([H])[H])c([H])c([H])c2C1([H])[H]

>  <smiles>  (14) 
[H]c1c([H])c([H])c2c(c1[H])C([H])([H])C([H])([H])C([H])([H])C2([H])N([H])C(=O)C1([H])N(C(=O)C([H])(N([H])C(=O)C([H])(N([H])C([H])([H])[H])C([H])([H])[H])C(C([H])([H])[H])(C([H])([H])[H])C([H])([H])[H])C([H])([H])c2c([H])c(OC([H])([H])C([H])([H])C3([H])C([H])([H])N(C(=O)N4C([H])([H])C([H])([H])C([H])([H])C([H])(n5nc(-c6c([H])c([H])c(Oc7c([H])c([H])c(F)c([H])c7F)c([H])c6[H])c(C(=O)N([H])[H])c5N([H])[H])C4([H])[H])C([H])(C([H])([H])[H])C3([H])C([H])([H])[H])c([H])c([H])c2C1([H])[H]

$$$$
14:0:0
     RDKit          3D

 90 98  0  0  1  0  0  0  0  0999 V2000
  -29.6540  -21.3950   19.2150 C   0  0  0  0  0  2  0  0  0  0  0  0
  -30.1780  -21.4300   21.6140 C   0  0  0  0  0  2  0  0  0  0  0  0
  -29.5650  -19.8010   19.3030 C   0  0  0  0  0  2  0  0  0  0  0  0
  -29.3620  -22.2350   20.5180 C   0  0  0  0  0  3  0  0  0  0  0  0
  -30.0650  -19.8370   21.6770 C   0  0  0  0  0  3  0  0  0  0  0  0
  -30.9090  -19.3010   22.8500 C   0  0  0  0  0  1  0  0  0  0  0  0
  -30.4320  -19.1950   20.3700 N   0  0  1  0  0  4  0  0  0  0  0  0
  -31.2980  -19.6730   20.1660 H   0  0  0  0  0  0  0  0  0  0  0  0
  -30.2980  -24.4000   21.7130 C   0  0  0  0  0  1  0  0  0  0  0  0
  -29.6300  -23.8780   20.4270 C   0  0  0  0  0  3  0  0  0  0  0  0
  -28.4550  -24.9560   20.0660 C   0  0  0  0  0  2  0  0  0  0  0  0
  -28.6610  -26.4570   20.1900 O   0  0  0  0  0  0  0  0  0  0  0  0
  -24.7640  -31.7570   23.3080 C   0  0  0  0  0  0  0  0  0  0  0  0
  -27.5490  -27.3390   20.1310 C   0  0  0  0  0  0  0  0  0  0  0  0
  -23.6370  -30.4060   21.5800 C   0  0  0  0  0  3  0  0  0  0  0  0
  -25.1590  -28.9500   20.1200 C   0  0  0  0  0  0  0  0  0  0  0  0
  -26.1770  -30.7730   21.4800 C   0  0  0  0  0  2  0  0  0  0  0  0
  -26.3060  -29.4220   20.7700 C   0  0  0  0  0  0  0  0  0  0  0  0
  -27.5040  -28.6330   20.7610 C   0  0  0  0  0  3  0  0  0  0  0  0
  -26.3780  -26.9420   19.4490 C   0  0  0  0  0  3  0  0  0  0  0  0
  -25.2020  -27.7190   19.4480 C   0  0  0  0  0  3  0  0  0  0  0  0
  -23.9030  -29.7980   20.1760 C   0  0  0  0  0  2  0  0  0  0  0  0
  -24.8770  -30.9950   22.1790 N   0  0  0  0  0  0  0  0  0  0  0  0
  -23.6610  -31.9870   23.8240 O   0  0  0  0  0  0  0  0  0  0  0  0
  -22.9720  -29.3340   22.4770 C   0  0  0  0  0  0  0  0  0  0  0  0
  -21.6550  -29.1250   22.3030 N   0  0  0  0  0  0  0  0  0  0  0  0
  -23.6410  -28.6950   23.2910 O   0  0  0  0  0  0  0  0  0  0  0  0
  -21.1720  -29.6950   21.6230 H   0  0  0  0  0  0  0  0  0  0  0  0
  -18.3030  -27.8050   22.6430 C   0  0  0  0  0  0  0  0  0  0  0  0
  -20.8410  -28.1350   23.0110 C   0  0  0  0  0  3  0  0  0  0  0  0
  -21.0100  -26.7300   22.3880 C   0  0  0  0  0  2  0  0  0  0  0  0
  -19.9530  -26.4110   21.3240 C   0  0  0  0  0  2  0  0  0  0  0  0
  -18.5470  -26.4880   21.9240 C   0  0  0  0  0  2  0  0  0  0  0  0
  -19.3810  -28.5860   23.1380 C   0  0  0  0  0  0  0  0  0  0  0  0
  -19.1010  -29.8170   23.7680 C   0  0  0  0  0  3  0  0  0  0  0  0
  -17.7750  -30.2700   23.9090 C   0  0  0  0  0  3  0  0  0  0  0  0
  -16.7110  -29.4850   23.4300 C   0  0  0  0  0  3  0  0  0  0  0  0
  -16.9750  -28.2550   22.8030 C   0  0  0  0  0  3  0  0  0  0  0  0
  -26.0120  -32.3940   23.9910 C   0  0  0  0  0  3  0  0  0  0  0  0
  -26.4990  -31.5950   25.2620 C   0  0  1  0  0  0  0  0  0  0  0  0
  -25.3760  -31.3120   26.2870 C   0  0  0  0  0  1  0  0  0  0  0  0
  -27.1180  -30.2370   24.8540 C   0  0  0  0  0  1  0  0  0  0  0  0
  -27.6140  -32.3890   25.9840 C   0  0  0  0  0  1  0  0  0  0  0  0
  -25.6660  -33.7760   24.3520 N   0  0  0  0  0  0  0  0  0  0  0  0
  -25.9670  -34.8550   23.6170 C   0  0  0  0  0  0  0  0  0  0  0  0
  -26.6320  -34.7920   22.5800 O   0  0  0  0  0  0  0  0  0  0  0  0
  -25.0710  -33.8960   25.1590 H   0  0  0  0  0  0  0  0  0  0  0  0
  -24.1730  -36.5970   23.3380 C   0  0  0  0  0  1  0  0  0  0  0  0
  -25.4480  -36.2210   24.1100 C   0  0  0  0  0  3  0  0  0  0  0  0
  -27.5720  -37.1660   24.9030 C   0  0  0  0  0  1  0  0  0  0  0  0
  -26.4430  -37.3080   23.9860 N   0  0  0  0  0  0  0  0  0  0  0  0
  -26.0120  -38.2130   24.1520 H   0  0  0  0  0  0  0  0  0  0  0  0
  -30.9800  -17.7320   20.2220 C   0  0  0  0  0  3  0  0  0  0  0  0
  -30.2420  -16.3310   20.6120 C   0  0  0  0  0  3  0  0  0  0  0  0
  -31.0090  -14.9360   20.2880 C   0  0  0  0  0  0  0  0  0  0  0  0
  -30.7760  -12.6680   19.2410 C   0  0  0  0  0  2  0  0  0  0  0  0
  -29.8290  -12.7800   18.0220 C   0  0  0  0  0  2  0  0  0  0  0  0
  -28.3600  -12.6200   18.4570 C   0  0  0  0  0  2  0  0  0  0  0  0
  -28.0090  -13.4930   19.6890 C   0  0  0  0  0  3  0  0  0  0  0  0
  -29.0730  -13.3760   20.8010 C   0  0  0  0  0  2  0  0  0  0  0  0
  -30.3760  -13.7100   20.2170 N   0  0  0  0  0  0  0  0  0  0  0  0
  -32.1910  -15.0010   19.9360 O   0  0  0  0  0  0  0  0  0  0  0  0
  -25.6360  -14.1110   20.4410 C   0  0  0  0  0  0  0  0  0  0  0  0
  -24.5610  -13.3500   20.8100 C   0  0  0  0  0  0  0  0  0  0  0  0
  -25.0050  -11.9930   20.7680 C   0  0  0  0  0  0  0  0  0  0  0  0
  -26.6650  -13.2190   20.1890 N   0  0  0  0  0  0  0  0  0  0  0  0
  -26.2940  -11.9390   20.4510 N   0  0  0  0  0  0  0  0  0  0  0  0
  -24.2610  -10.7400   20.9530 C   0  0  0  0  0  0  0  0  0  0  0  0
  -24.6450   -9.7880   21.9240 C   0  0  0  0  0  3  0  0  0  0  0  0
  -23.9020   -8.6010   22.0970 C   0  0  0  0  0  3  0  0  0  0  0  0
  -22.7600   -8.3560   21.2970 C   0  0  0  0  0  0  0  0  0  0  0  0
  -22.3960   -9.2950   20.3180 C   0  0  0  0  0  3  0  0  0  0  0  0
  -23.1390  -10.4740   20.1430 C   0  0  0  0  0  3  0  0  0  0  0  0
  -21.9930   -7.2180   21.3770 O   0  0  0  0  0  0  0  0  0  0  0  0
  -21.8220   -6.5470   22.5610 C   0  0  0  0  0  0  0  0  0  0  0  0
  -21.2640   -7.1730   23.6980 C   0  0  0  0  0  3  0  0  0  0  0  0
  -21.0410   -6.4280   24.8720 C   0  0  0  0  0  3  0  0  0  0  0  0
  -21.3640   -5.0580   24.9110 C   0  0  0  0  0  0  0  0  0  0  0  0
  -21.9120   -4.4320   23.7780 C   0  0  0  0  0  3  0  0  0  0  0  0
  -22.1370   -5.1740   22.6050 C   0  0  0  0  0  0  0  0  0  0  0  0
  -22.6460   -4.5620   21.5090 F   0  0  0  0  0  0  0  0  0  0  0  0
  -21.1410   -4.3400   26.0360 F   0  0  0  0  0  0  0  0  0  0  0  0
  -23.1730  -13.8450   21.0920 C   0  0  0  0  0  0  0  0  0  0  0  0
  -22.4450  -13.1630   21.9700 N   0  0  0  0  0  0  0  0  0  0  0  0
  -22.7430  -14.8730   20.5700 O   0  0  0  0  0  0  0  0  0  0  0  0
  -22.8060  -12.3310   22.4120 H   0  0  0  0  0  0  0  0  0  0  0  0
  -21.5140  -13.4790   22.2030 H   0  0  0  0  0  0  0  0  0  0  0  0
  -25.8200  -15.4800   20.2730 N   0  0  0  0  0  0  0  0  0  0  0  0
  -25.0640  -16.1450   20.3930 H   0  0  0  0  0  0  0  0  0  0  0  0
  -26.6750  -15.9090   19.9430 H   0  0  0  0  0  0  0  0  0  0  0  0
  1  3  1  0
  1  4  1  0
  2  5  1  0
  3  7  1  0
  4 10  1  0
  4  2  1  0
  5  6  1  0
  7  5  1  0
  7  8  1  6
 10  9  1  0
 11 12  1  0
 11 10  1  0
 13 24  2  0
 14 12  1  0
 14 19  1  0
 15 23  1  0
 15 25  1  0
 16 22  1  0
 16 18  1  0
 17 23  1  0
 18 17  1  0
 19 18  2  0
 20 14  2  0
 21 20  1  0
 21 16  2  0
 22 15  1  0
 23 13  1  0
 25 27  2  0
 26 25  1  0
 28 26  1  0
 29 38  2  0
 29 34  1  0
 30 26  1  0
 30 34  1  0
 31 30  1  0
 32 33  1  0
 32 31  1  0
 33 29  1  0
 34 35  2  0
 35 36  1  0
 37 36  2  0
 38 37  1  0
 39 13  1  0
 39 44  1  0
 39 40  1  0
 40 43  1  1
 40 41  1  0
 42 40  1  0
 44 47  1  0
 45 49  1  0
 45 44  1  0
 46 45  2  0
 49 48  1  0
 51 49  1  0
 51 52  1  0
 51 50  1  0
 53  7  1  0
 53 54  2  0
 55 54  1  0
 56 61  1  0
 57 58  1  0
 57 56  1  0
 59 58  1  0
 59 66  1  0
 59 60  1  0
 61 55  1  0
 61 60  1  0
 62 55  2  0
 63 64  2  0
 64 83  1  0
 65 64  1  0
 65 68  1  0
 66 63  1  0
 66 67  1  0
 67 65  2  0
 68 69  1  0
 69 70  2  0
 71 74  1  0
 71 70  1  0
 72 71  2  0
 73 72  1  0
 73 68  2  0
 74 75  1  0
 75 80  2  0
 75 76  1  0
 76 77  2  0
 77 78  1  0
 78 82  1  0
 79 78  2  0
 80 79  1  0
 81 80  1  0
 83 84  1  0
 84 87  1  0
 84 86  1  0
 85 83  2  0
 88 89  1  0
 88 63  1  0
 90 88  1  0
M  ISO  4  11 101  12 101  54 100  55 100
M  END
>  <TORSDO>  (15) 
F 20

>  <SCORE>  (15) 
-13.011

>  <name>  (15) 
14

>  <ligand_id>  (15) 
14

>  <original_smiles>  (15) 
[H]c1c([H])c([H])c2c(c1[H])C([H])([H])C([H])([H])C([H])([H])C2([H])N([H])C(=O)C1([H])N(C(=O)C([H])(N([H])C(=O)C([H])(N([H])C([H])([H])[H])C([H])([H])[H])C(C([H])([H])[H])(C([H])([H])[H])C([H])([H])[H])C([H])([H])c2c([H])c(OC([H])([H])C([H])(C([H])([H])[H])C3([H])C([H])([H])C([H])([H])[N+]([H])(C([H])([H])C([H])([H])C(=O)N4C([H])([H])C([H])([H])C([H])([H])C([H])(n5nc(-c6c([H])c([H])c(Oc7c([H])c([H])c(F)c([H])c7F)c([H])c6[H])c(C(=O)N([H])[H])c5N([H])[H])C4([H])[H])C([H])(C([H])([H])[H])C3([H])[H])c([H])c([H])c2C1([H])[H]

>  <smiles>  (15) 
[H]c1c([H])c([H])c2c(c1[H])C([H])([H])C([H])([H])C([H])([H])C2([H])N([H])C(=O)C1([H])N(C(=O)C([H])(N([H])C(=O)C([H])(N([H])C([H])([H])[H])C([H])([H])[H])C(C([H])([H])[H])(C([H])([H])[H])C([H])([H])[H])C([H])([H])c2c([H])c(OC([H])([H])C([H])(C([H])([H])[H])C3([H])C([H])([H])C([H])([H])[N+]([H])(C([H])([H])C([H])([H])C(=O)N4C([H])([H])C([H])([H])C([H])([H])C([H])(n5nc(-c6c([H])c([H])c(Oc7c([H])c([H])c(F)c([H])c7F)c([H])c6[H])c(C(=O)N([H])[H])c5N([H])[H])C4([H])[H])C([H])(C([H])([H])[H])C3([H])[H])c([H])c([H])c2C1([H])[H]

$$$$
15:0:0
     RDKit          3D

 90 98  0  0  1  0  0  0  0  0999 V2000
  -27.8170  -22.6210   20.6880 C   0  0  0  0  0  3  0  0  0  0  0  0
  -29.6370  -22.9030   19.1950 C   0  0  0  0  0  3  0  0  0  0  0  0
  -27.6380  -24.0590   20.7520 C   0  0  0  0  0  3  0  0  0  0  0  0
  -29.4520  -24.3320   19.2530 C   0  0  0  0  0  3  0  0  0  0  0  0
  -28.8230  -21.9670   19.9030 C   0  0  0  0  0  0  0  0  0  0  0  0
  -28.4390  -24.9910   20.0160 C   0  0  0  0  0  0  0  0  0  0  0  0
  -28.3840  -26.4380   20.0640 O   0  0  0  0  0  0  0  0  0  0  0  0
  -24.6290  -31.8950   23.1370 C   0  0  0  0  0  0  0  0  0  0  0  0
  -27.2410  -27.2830   20.0730 C   0  0  0  0  0  0  0  0  0  0  0  0
  -23.4280  -30.4970   21.4970 C   0  0  0  0  0  3  0  0  0  0  0  0
  -24.8790  -28.9390   20.0620 C   0  0  0  0  0  0  0  0  0  0  0  0
  -25.9680  -30.8030   21.3110 C   0  0  0  0  0  2  0  0  0  0  0  0
  -26.0470  -29.4160   20.6660 C   0  0  0  0  0  0  0  0  0  0  0  0
  -27.2270  -28.5990   20.6590 C   0  0  0  0  0  3  0  0  0  0  0  0
  -26.0490  -26.8740   19.4410 C   0  0  0  0  0  3  0  0  0  0  0  0
  -24.8850  -27.6770   19.4400 C   0  0  0  0  0  3  0  0  0  0  0  0
  -23.6420  -29.8210   20.1150 C   0  0  0  0  0  2  0  0  0  0  0  0
  -24.6950  -31.0870   22.0380 N   0  0  0  0  0  0  0  0  0  0  0  0
  -23.5450  -32.1680   23.6750 O   0  0  0  0  0  0  0  0  0  0  0  0
  -22.7680  -29.4790   22.4580 C   0  0  0  0  0  0  0  0  0  0  0  0
  -21.4410  -29.2980   22.3330 N   0  0  0  0  0  0  0  0  0  0  0  0
  -23.4500  -28.8550   23.2740 O   0  0  0  0  0  0  0  0  0  0  0  0
  -20.9470  -29.8550   21.6500 H   0  0  0  0  0  0  0  0  0  0  0  0
  -18.0770  -28.0560   22.8150 C   0  0  0  0  0  0  0  0  0  0  0  0
  -20.6290  -28.3520   23.1020 C   0  0  0  0  0  3  0  0  0  0  0  0
  -20.7560  -26.9210   22.5350 C   0  0  0  0  0  2  0  0  0  0  0  0
  -19.6660  -26.5790   21.5120 C   0  0  0  0  0  2  0  0  0  0  0  0
  -18.2780  -26.7060   22.1460 C   0  0  0  0  0  2  0  0  0  0  0  0
  -19.1810  -28.8360   23.2510 C   0  0  0  0  0  0  0  0  0  0  0  0
  -18.9410  -30.0970   23.8350 C   0  0  0  0  0  3  0  0  0  0  0  0
  -17.6280  -30.5810   23.9900 C   0  0  0  0  0  3  0  0  0  0  0  0
  -16.5370  -29.7990   23.5710 C   0  0  0  0  0  3  0  0  0  0  0  0
  -16.7630  -28.5390   22.9890 C   0  0  0  0  0  3  0  0  0  0  0  0
  -25.9100  -32.5310   23.7610 C   0  0  0  0  0  3  0  0  0  0  0  0
  -25.5880  -33.9220   24.1190 N   0  0  0  0  0  0  0  0  0  0  0  0
  -25.9080  -34.9940   23.3830 C   0  0  0  0  0  0  0  0  0  0  0  0
  -26.5760  -34.9190   22.3490 O   0  0  0  0  0  0  0  0  0  0  0  0
  -24.9920  -34.0540   24.9230 H   0  0  0  0  0  0  0  0  0  0  0  0
  -24.1690  -36.7850   23.0650 C   0  0  0  0  0  1  0  0  0  0  0  0
  -25.4100  -36.3690   23.8710 C   0  0  0  0  0  3  0  0  0  0  0  0
  -27.5350  -37.2500   24.7340 C   0  0  0  0  0  1  0  0  0  0  0  0
  -26.4350  -37.4320   23.7890 N   0  0  0  0  0  0  0  0  0  0  0  0
  -26.0200  -38.3460   23.9540 H   0  0  0  0  0  0  0  0  0  0  0  0
  -26.4420  -31.7470   25.0220 C   0  0  1  0  0  0  0  0  0  0  0  0
  -25.3610  -31.4790   26.0940 C   0  0  0  0  0  1  0  0  0  0  0  0
  -27.0400  -30.3830   24.6060 C   0  0  0  0  0  1  0  0  0  0  0  0
  -27.5850  -32.5460   25.6940 C   0  0  0  0  0  1  0  0  0  0  0  0
  -28.8670  -20.3670   19.6160 C   0  0  0  0  0  2  0  0  0  0  0  0
  -30.0570  -19.2980   20.0100 C   0  0  0  0  0  3  0  0  0  0  0  0
  -31.9160  -19.3330   21.7950 C   0  0  0  0  0  1  0  0  0  0  0  0
  -30.4050  -19.4040   21.5080 C   0  0  0  0  0  2  0  0  0  0  0  0
  -29.0870  -17.5170   18.3060 C   0  0  0  0  0  1  0  0  0  0  0  0
  -30.0800  -17.7130   19.4650 C   0  0  0  0  0  3  0  0  0  0  0  0
  -30.0560  -16.3530   20.4140 C   0  0  0  0  0  2  0  0  0  0  0  0
  -30.8310  -14.9740   20.0130 C   0  0  0  0  0  0  0  0  0  0  0  0
  -30.6750  -12.6360   19.0940 C   0  0  0  0  0  2  0  0  0  0  0  0
  -29.7190  -12.6460   17.8790 C   0  0  0  0  0  2  0  0  0  0  0  0
  -28.2560  -12.4690   18.3330 C   0  0  0  0  0  2  0  0  0  0  0  0
  -27.8900  -13.3950   19.5240 C   0  0  0  0  0  3  0  0  0  0  0  0
  -28.9650  -13.3600   20.6310 C   0  0  0  0  0  2  0  0  0  0  0  0
  -30.2460  -13.7190   20.0140 N   0  0  0  0  0  0  0  0  0  0  0  0
  -31.9940  -15.0640   19.6040 O   0  0  0  0  0  0  0  0  0  0  0  0
  -25.5270  -13.9970   20.3180 C   0  0  0  0  0  0  0  0  0  0  0  0
  -24.4640  -13.2300   20.7120 C   0  0  0  0  0  0  0  0  0  0  0  0
  -24.9160  -11.8750   20.6610 C   0  0  0  0  0  0  0  0  0  0  0  0
  -26.5570  -13.1110   20.0480 N   0  0  0  0  0  0  0  0  0  0  0  0
  -26.1980  -11.8290   20.3180 N   0  0  0  0  0  0  0  0  0  0  0  0
  -24.1820  -10.6180   20.8640 C   0  0  0  0  0  0  0  0  0  0  0  0
  -24.5820   -9.6790   21.8410 C   0  0  0  0  0  3  0  0  0  0  0  0
  -23.8490   -8.4860   22.0290 C   0  0  0  0  0  3  0  0  0  0  0  0
  -22.7040   -8.2250   21.2410 C   0  0  0  0  0  0  0  0  0  0  0  0
  -22.3250   -9.1520   20.2530 C   0  0  0  0  0  3  0  0  0  0  0  0
  -23.0580  -10.3350   20.0620 C   0  0  0  0  0  3  0  0  0  0  0  0
  -21.9460   -7.0830   21.3350 O   0  0  0  0  0  0  0  0  0  0  0  0
  -21.7880   -6.4210   22.5260 C   0  0  0  0  0  0  0  0  0  0  0  0
  -21.2260   -7.0490   23.6600 C   0  0  0  0  0  3  0  0  0  0  0  0
  -21.0190   -6.3110   24.8430 C   0  0  0  0  0  3  0  0  0  0  0  0
  -21.3630   -4.9470   24.8920 C   0  0  0  0  0  0  0  0  0  0  0  0
  -21.9160   -4.3190   23.7620 C   0  0  0  0  0  3  0  0  0  0  0  0
  -22.1270   -5.0540   22.5830 C   0  0  0  0  0  0  0  0  0  0  0  0
  -22.6400   -4.4370   21.4910 F   0  0  0  0  0  0  0  0  0  0  0  0
  -21.1560   -4.2370   26.0260 F   0  0  0  0  0  0  0  0  0  0  0  0
  -23.0780  -13.7170   21.0190 C   0  0  0  0  0  0  0  0  0  0  0  0
  -22.3700  -13.0290   21.9070 N   0  0  0  0  0  0  0  0  0  0  0  0
  -22.6330  -14.7440   20.5070 O   0  0  0  0  0  0  0  0  0  0  0  0
  -22.7430  -12.1980   22.3430 H   0  0  0  0  0  0  0  0  0  0  0  0
  -21.4410  -13.3360   22.1550 H   0  0  0  0  0  0  0  0  0  0  0  0
  -25.7000  -15.3670   20.1450 N   0  0  0  0  0  0  0  0  0  0  0  0
  -24.9440  -16.0300   20.2820 H   0  0  0  0  0  0  0  0  0  0  0  0
  -26.5480  -15.7990   19.8030 H   0  0  0  0  0  0  0  0  0  0  0  0
  1  3  1  0
  2  4  2  0
  2  5  1  0
  4  6  1  0
  5  1  2  0
  6  7  1  0
  6  3  2  0
  7  9  1  0
  8 19  2  0
  9 14  1  0
 10 18  1  0
 10 20  1  0
 11 17  1  0
 11 13  1  0
 12 18  1  0
 13 12  1  0
 14 13  2  0
 15  9  2  0
 16 15  1  0
 16 11  2  0
 17 10  1  0
 18  8  1  0
 20 22  2  0
 21 20  1  0
 23 21  1  0
 24 33  2  0
 24 29  1  0
 25 21  1  0
 25 29  1  0
 26 25  1  0
 27 28  1  0
 27 26  1  0
 28 24  1  0
 29 30  2  0
 30 31  1  0
 32 31  2  0
 33 32  1  0
 34  8  1  0
 34 35  1  0
 34 44  1  0
 35 38  1  0
 36 40  1  0
 36 35  1  0
 37 36  2  0
 40 39  1  0
 42 40  1  0
 42 43  1  0
 42 41  1  0
 44 47  1  1
 44 45  1  0
 46 44  1  0
 48  5  1  0
 49 48  1  0
 49 51  1  0
 51 50  1  0
 53 52  1  0
 53 49  1  0
 53 54  1  0
 55 61  1  0
 55 54  1  0
 56 61  1  0
 57 58  1  0
 57 56  1  0
 59 58  1  0
 59 66  1  0
 59 60  1  0
 61 60  1  0
 62 55  2  0
 63 64  2  0
 64 83  1  0
 65 64  1  0
 65 68  1  0
 66 67  1  0
 66 63  1  0
 67 65  2  0
 68 69  1  0
 69 70  2  0
 71 74  1  0
 71 70  1  0
 72 71  2  0
 73 72  1  0
 73 68  2  0
 74 75  1  0
 75 80  2  0
 75 76  1  0
 76 77  2  0
 77 78  1  0
 78 82  1  0
 79 78  2  0
 80 79  1  0
 81 80  1  0
 83 84  1  0
 84 87  1  0
 84 86  1  0
 85 83  2  0
 88 89  1  0
 88 63  1  0
 90 88  1  0
M  ISO  4   6 101   7 101  54 100  55 100
M  END
>  <TORSDO>  (16) 
F 21

>  <SCORE>  (16) 
-13.212

>  <name>  (16) 
15

>  <ligand_id>  (16) 
15

>  <original_smiles>  (16) 
[H]c1c([H])c([H])c2c(c1[H])C([H])([H])C([H])([H])C([H])([H])C2([H])N([H])C(=O)C1([H])N(C(=O)C([H])(N([H])C(=O)C([H])(N([H])C([H])([H])[H])C([H])([H])[H])C(C([H])([H])[H])(C([H])([H])[H])C([H])([H])[H])C([H])([H])c2c([H])c(Oc3c([H])c([H])c(C([H])([H])C([H])(C([H])([H])C([H])([H])[H])C([H])(C([H])([H])[H])C([H])([H])C(=O)N4C([H])([H])C([H])([H])C([H])([H])C([H])(n5nc(-c6c([H])c([H])c(Oc7c([H])c([H])c(F)c([H])c7F)c([H])c6[H])c(C(=O)N([H])[H])c5N([H])[H])C4([H])[H])c([H])c3[H])c([H])c([H])c2C1([H])[H]

>  <smiles>  (16) 
[H]c1c([H])c([H])c2c(c1[H])C([H])([H])C([H])([H])C([H])([H])C2([H])N([H])C(=O)C1([H])N(C(=O)C([H])(N([H])C(=O)C([H])(N([H])C([H])([H])[H])C([H])([H])[H])C(C([H])([H])[H])(C([H])([H])[H])C([H])([H])[H])C([H])([H])c2c([H])c(Oc3c([H])c([H])c(C([H])([H])C([H])(C([H])([H])C([H])([H])[H])C([H])(C([H])([H])[H])C([H])([H])C(=O)N4C([H])([H])C([H])([H])C([H])([H])C([H])(n5nc(-c6c([H])c([H])c(Oc7c([H])c([H])c(F)c([H])c7F)c([H])c6[H])c(C(=O)N([H])[H])c5N([H])[H])C4([H])[H])c([H])c3[H])c([H])c([H])c2C1([H])[H]

$$$$
16:0:0
     RDKit          3D

 85 93  0  0  1  0  0  0  0  0999 V2000
  -27.7920  -22.9510   20.7290 C   0  0  0  0  0  2  0  0  0  0  0  0
  -29.4420  -23.2830   19.7030 C   0  0  0  0  0  2  0  0  0  0  0  0
  -28.6750  -21.8270   19.8790 C   0  0  0  0  0  3  0  0  0  0  0  0
  -28.1540  -24.3150   19.8750 C   0  0  0  0  0  3  0  0  0  0  0  0
  -29.2940  -20.2660   20.5060 C   0  0  0  0  0  0  0  0  0  0  0  0
  -29.5370  -20.2340   21.7150 O   0  0  0  0  0  0  0  0  0  0  0  0
  -29.6110  -18.6920   19.7700 C   0  0  0  0  0  2  0  0  0  0  0  0
  -29.6820  -16.9940   20.4320 C   0  0  0  0  0  2  0  0  0  0  0  0
  -30.4670  -15.4570   20.0190 C   0  0  0  0  0  0  0  0  0  0  0  0
  -30.4640  -12.9940   19.1460 C   0  0  0  0  0  2  0  0  0  0  0  0
  -29.4990  -12.7910   17.9470 C   0  0  0  0  0  2  0  0  0  0  0  0
  -28.0680  -12.5040   18.4350 C   0  0  0  0  0  2  0  0  0  0  0  0
  -27.6550  -13.4560   19.5860 C   0  0  0  0  0  3  0  0  0  0  0  0
  -28.7430  -13.6010   20.6710 C   0  0  0  0  0  2  0  0  0  0  0  0
  -29.9520  -14.1220   20.0130 N   0  0  0  0  0  0  0  0  0  0  0  0
  -31.6500  -15.4750   19.6470 O   0  0  0  0  0  0  0  0  0  0  0  0
  -25.3210  -13.9950   20.4560 C   0  0  0  0  0  0  0  0  0  0  0  0
  -24.2750  -13.2110   20.8540 C   0  0  0  0  0  0  0  0  0  0  0  0
  -24.7390  -11.8610   20.7750 C   0  0  0  0  0  0  0  0  0  0  0  0
  -26.3500  -13.1260   20.1450 N   0  0  0  0  0  0  0  0  0  0  0  0
  -26.0160  -11.8340   20.4050 N   0  0  0  0  0  0  0  0  0  0  0  0
  -24.0180  -10.5960   20.9700 C   0  0  0  0  0  0  0  0  0  0  0  0
  -24.4680   -9.6220   21.8890 C   0  0  0  0  0  3  0  0  0  0  0  0
  -23.7440   -8.4240   22.0740 C   0  0  0  0  0  3  0  0  0  0  0  0
  -22.5570   -8.1910   21.3410 C   0  0  0  0  0  0  0  0  0  0  0  0
  -22.1260   -9.1530   20.4110 C   0  0  0  0  0  3  0  0  0  0  0  0
  -22.8500  -10.3430   20.2230 C   0  0  0  0  0  3  0  0  0  0  0  0
  -21.8030   -7.0460   21.4350 O   0  0  0  0  0  0  0  0  0  0  0  0
  -21.7550   -6.3090   22.5920 C   0  0  0  0  0  0  0  0  0  0  0  0
  -21.3020   -6.8620   23.8090 C   0  0  0  0  0  3  0  0  0  0  0  0
  -21.2030   -6.0510   24.9580 C   0  0  0  0  0  3  0  0  0  0  0  0
  -21.5470   -4.6880   24.8890 C   0  0  0  0  0  0  0  0  0  0  0  0
  -21.9940   -4.1340   23.6760 C   0  0  0  0  0  3  0  0  0  0  0  0
  -22.0940   -4.9420   22.5310 C   0  0  0  0  0  0  0  0  0  0  0  0
  -22.5050   -4.3980   21.3600 F   0  0  0  0  0  0  0  0  0  0  0  0
  -21.4460   -3.9070   25.9900 F   0  0  0  0  0  0  0  0  0  0  0  0
  -22.8920  -13.6830   21.1930 C   0  0  0  0  0  0  0  0  0  0  0  0
  -22.1960  -12.9660   22.0690 N   0  0  0  0  0  0  0  0  0  0  0  0
  -22.4390  -14.7230   20.7170 O   0  0  0  0  0  0  0  0  0  0  0  0
  -22.5770  -12.1250   22.4750 H   0  0  0  0  0  0  0  0  0  0  0  0
  -21.2690  -13.2650   22.3370 H   0  0  0  0  0  0  0  0  0  0  0  0
  -25.4770  -15.3700   20.3020 N   0  0  0  0  0  0  0  0  0  0  0  0
  -24.7180  -16.0220   20.4680 H   0  0  0  0  0  0  0  0  0  0  0  0
  -26.3130  -15.8180   19.9470 H   0  0  0  0  0  0  0  0  0  0  0  0
  -28.1870  -25.9380   20.2560 O   0  0  0  0  0  0  0  0  0  0  0  0
  -24.6000  -31.9230   23.1700 C   0  0  0  0  0  0  0  0  0  0  0  0
  -27.1630  -27.0270   20.1600 C   0  0  0  0  0  0  0  0  0  0  0  0
  -23.4080  -30.5210   21.5340 C   0  0  0  0  0  3  0  0  0  0  0  0
  -24.8580  -28.9120   20.1100 C   0  0  0  0  0  0  0  0  0  0  0  0
  -25.9730  -30.7330   21.3860 C   0  0  0  0  0  2  0  0  0  0  0  0
  -26.0440  -29.3190   20.7320 C   0  0  0  0  0  0  0  0  0  0  0  0
  -27.1880  -28.3980   20.7310 C   0  0  0  0  0  3  0  0  0  0  0  0
  -25.9460  -26.7750   19.4860 C   0  0  0  0  0  3  0  0  0  0  0  0
  -24.8350  -27.6620   19.4660 C   0  0  0  0  0  3  0  0  0  0  0  0
  -23.6370  -29.8330   20.1590 C   0  0  0  0  0  2  0  0  0  0  0  0
  -24.6820  -31.0870   22.0840 N   0  0  0  0  0  0  0  0  0  0  0  0
  -23.5110  -32.2120   23.6920 O   0  0  0  0  0  0  0  0  0  0  0  0
  -22.7140  -29.5290   22.5040 C   0  0  0  0  0  0  0  0  0  0  0  0
  -21.3820  -29.3750   22.3930 N   0  0  0  0  0  0  0  0  0  0  0  0
  -23.3830  -28.8970   23.3260 O   0  0  0  0  0  0  0  0  0  0  0  0
  -20.8950  -29.9360   21.7080 H   0  0  0  0  0  0  0  0  0  0  0  0
  -17.9960  -28.1890   22.9370 C   0  0  0  0  0  0  0  0  0  0  0  0
  -20.5610  -28.4380   23.1700 C   0  0  0  0  0  3  0  0  0  0  0  0
  -20.6460  -27.0090   22.5860 C   0  0  0  0  0  2  0  0  0  0  0  0
  -19.5290  -26.6990   21.5830 C   0  0  0  0  0  2  0  0  0  0  0  0
  -18.1560  -26.8450   22.2460 C   0  0  0  0  0  2  0  0  0  0  0  0
  -19.1240  -28.9440   23.3560 C   0  0  0  0  0  0  0  0  0  0  0  0
  -18.9160  -30.2000   23.9670 C   0  0  0  0  0  3  0  0  0  0  0  0
  -17.6150  -30.7020   24.1590 C   0  0  0  0  0  3  0  0  0  0  0  0
  -16.5030  -29.9450   23.7530 C   0  0  0  0  0  3  0  0  0  0  0  0
  -16.6930  -28.6900   23.1490 C   0  0  0  0  0  3  0  0  0  0  0  0
  -25.8700  -32.5700   23.8020 C   0  0  0  0  0  3  0  0  0  0  0  0
  -26.3790  -31.8080   25.0880 C   0  0  1  0  0  0  0  0  0  0  0  0
  -25.2790  -31.5740   26.1500 C   0  0  0  0  0  1  0  0  0  0  0  0
  -26.9690  -30.4300   24.7160 C   0  0  0  0  0  1  0  0  0  0  0  0
  -27.5220  -32.6100   25.7540 C   0  0  0  0  0  1  0  0  0  0  0  0
  -25.5480  -33.9690   24.1380 N   0  0  0  0  0  0  0  0  0  0  0  0
  -25.8950  -35.0350   23.4050 C   0  0  0  0  0  0  0  0  0  0  0  0
  -26.5800  -34.9450   22.3830 O   0  0  0  0  0  0  0  0  0  0  0  0
  -24.9400  -34.1120   24.9300 H   0  0  0  0  0  0  0  0  0  0  0  0
  -24.1930  -36.8560   23.0410 C   0  0  0  0  0  1  0  0  0  0  0  0
  -25.4080  -36.4210   23.8770 C   0  0  0  0  0  3  0  0  0  0  0  0
  -27.5210  -37.2790   24.7900 C   0  0  0  0  0  1  0  0  0  0  0  0
  -26.4510  -37.4680   23.8140 N   0  0  0  0  0  0  0  0  0  0  0  0
  -26.0470  -38.3890   23.9590 H   0  0  0  0  0  0  0  0  0  0  0  0
  2  4  1  0
  2  3  1  0
  3  5  1  0
  3  1  1  0
  4 45  1  0
  4  1  1  0
  5  6  2  0
  7  8  1  0
  7  5  1  0
  9  8  1  0
 10 15  1  0
 11 12  1  0
 11 10  1  0
 13 12  1  0
 13 20  1  0
 13 14  1  0
 15  9  1  0
 15 14  1  0
 16  9  2  0
 17 18  2  0
 18 37  1  0
 19 18  1  0
 19 22  1  0
 20 21  1  0
 20 17  1  0
 21 19  2  0
 22 23  1  0
 23 24  2  0
 25 28  1  0
 25 24  1  0
 26 25  2  0
 27 26  1  0
 27 22  2  0
 28 29  1  0
 29 30  1  0
 30 31  2  0
 32 31  1  0
 32 36  1  0
 33 32  2  0
 34 29  2  0
 34 33  1  0
 35 34  1  0
 37 38  1  0
 38 41  1  0
 38 40  1  0
 39 37  2  0
 42 17  1  0
 42 43  1  0
 44 42  1  0
 46 57  2  0
 47 45  1  0
 47 52  1  0
 48 56  1  0
 48 58  1  0
 49 55  1  0
 49 51  1  0
 50 56  1  0
 51 50  1  0
 52 51  2  0
 53 47  2  0
 54 53  1  0
 54 49  2  0
 55 48  1  0
 56 46  1  0
 58 60  2  0
 59 58  1  0
 61 59  1  0
 62 71  2  0
 62 67  1  0
 63 59  1  0
 63 67  1  0
 64 63  1  0
 65 66  1  0
 65 64  1  0
 66 62  1  0
 67 68  2  0
 68 69  1  0
 70 69  2  0
 71 70  1  0
 72 46  1  0
 72 77  1  0
 72 73  1  0
 73 76  1  1
 73 74  1  0
 75 73  1  0
 77 80  1  0
 78 82  1  0
 78 77  1  0
 79 78  2  0
 82 81  1  0
 84 82  1  0
 84 85  1  0
 84 83  1  0
M  ISO  4   4 101   8 100   9 100  45 101
M  END
>  <TORSDO>  (17) 
F 19

>  <SCORE>  (17) 
-16.354

>  <name>  (17) 
16

>  <ligand_id>  (17) 
16

>  <original_smiles>  (17) 
[H]c1c([H])c([H])c2c(c1[H])C([H])([H])C([H])([H])C([H])([H])C2([H])N([H])C(=O)C1([H])N(C(=O)C([H])(N([H])C(=O)C([H])(N([H])C([H])([H])[H])C([H])([H])[H])C(C([H])([H])[H])(C([H])([H])[H])C([H])([H])[H])C([H])([H])c2c([H])c(OC3([H])C([H])([H])C([H])(C(=O)C([H])([H])C([H])([H])C(=O)N4C([H])([H])C([H])([H])C([H])([H])C([H])(n5nc(-c6c([H])c([H])c(Oc7c([H])c([H])c(F)c([H])c7F)c([H])c6[H])c(C(=O)N([H])[H])c5N([H])[H])C4([H])[H])C3([H])[H])c([H])c([H])c2C1([H])[H]

>  <smiles>  (17) 
[H]c1c([H])c([H])c2c(c1[H])C([H])([H])C([H])([H])C([H])([H])C2([H])N([H])C(=O)C1([H])N(C(=O)C([H])(N([H])C(=O)C([H])(N([H])C([H])([H])[H])C([H])([H])[H])C(C([H])([H])[H])(C([H])([H])[H])C([H])([H])[H])C([H])([H])c2c([H])c(OC3([H])C([H])([H])C([H])(C(=O)C([H])([H])C([H])([H])C(=O)N4C([H])([H])C([H])([H])C([H])([H])C([H])(n5nc(-c6c([H])c([H])c(Oc7c([H])c([H])c(F)c([H])c7F)c([H])c6[H])c(C(=O)N([H])[H])c5N([H])[H])C4([H])[H])C3([H])[H])c([H])c([H])c2C1([H])[H]

$$$$
17:0:0
     RDKit          3D

 87 95  0  0  1  0  0  0  0  0999 V2000
  -29.3250  -20.5320   21.6800 C   0  0  0  0  0  2  0  0  0  0  0  0
  -28.6750  -22.0100   21.6700 C   0  0  0  0  0  2  0  0  0  0  0  0
  -28.8730  -21.1840   19.5100 C   0  0  0  0  0  2  0  0  0  0  0  0
  -28.9960  -19.6910   20.3950 C   0  0  0  0  0  3  0  0  0  0  0  0
  -28.8500  -22.7370   20.2960 C   0  0  0  0  0  3  0  0  0  0  0  0
  -30.3900  -15.4640   20.1600 C   0  0  0  0  0  0  0  0  0  0  0  0
  -30.3610  -12.9970   19.3210 C   0  0  0  0  0  2  0  0  0  0  0  0
  -29.4230  -12.7630   18.1100 C   0  0  0  0  0  2  0  0  0  0  0  0
  -27.9870  -12.4790   18.5820 C   0  0  0  0  0  2  0  0  0  0  0  0
  -27.5480  -13.4500   19.7060 C   0  0  0  0  0  3  0  0  0  0  0  0
  -28.6160  -13.6320   20.8070 C   0  0  0  0  0  2  0  0  0  0  0  0
  -29.8260  -14.1490   20.1440 N   0  0  0  0  0  0  0  0  0  0  0  0
  -31.6020  -15.4330   19.8990 O   0  0  0  0  0  0  0  0  0  0  0  0
  -29.9330  -18.2050   20.1360 C   0  0  0  0  0  0  0  0  0  0  0  0
  -29.6330  -16.7500   20.2910 N   0  0  0  0  0  0  0  0  0  0  0  0
  -31.0760  -18.4680   19.7550 O   0  0  0  0  0  0  0  0  0  0  0  0
  -28.6700  -16.5940   20.5390 H   0  0  0  0  0  0  0  0  0  0  0  0
  -25.2050  -13.9970   20.5400 C   0  0  0  0  0  0  0  0  0  0  0  0
  -24.1510  -13.2150   20.9210 C   0  0  0  0  0  0  0  0  0  0  0  0
  -24.6110  -11.8640   20.8450 C   0  0  0  0  0  0  0  0  0  0  0  0
  -26.2360  -13.1240   20.2460 N   0  0  0  0  0  0  0  0  0  0  0  0
  -25.8940  -11.8330   20.4980 N   0  0  0  0  0  0  0  0  0  0  0  0
  -23.8820  -10.6000   21.0250 C   0  0  0  0  0  0  0  0  0  0  0  0
  -24.3120   -9.6230   21.9470 C   0  0  0  0  0  3  0  0  0  0  0  0
  -23.5810   -8.4280   22.1170 C   0  0  0  0  0  3  0  0  0  0  0  0
  -22.4050   -8.2010   21.3640 C   0  0  0  0  0  0  0  0  0  0  0  0
  -21.9930   -9.1680   20.4290 C   0  0  0  0  0  3  0  0  0  0  0  0
  -22.7260  -10.3540   20.2570 C   0  0  0  0  0  3  0  0  0  0  0  0
  -21.6450   -7.0590   21.4430 O   0  0  0  0  0  0  0  0  0  0  0  0
  -21.5730   -6.3210   22.5970 C   0  0  0  0  0  0  0  0  0  0  0  0
  -21.0810   -6.8680   23.8020 C   0  0  0  0  0  3  0  0  0  0  0  0
  -20.9580   -6.0550   24.9460 C   0  0  0  0  0  3  0  0  0  0  0  0
  -21.3180   -4.6960   24.8870 C   0  0  0  0  0  0  0  0  0  0  0  0
  -21.8040   -4.1480   23.6870 C   0  0  0  0  0  3  0  0  0  0  0  0
  -21.9270   -4.9580   22.5440 C   0  0  0  0  0  0  0  0  0  0  0  0
  -22.3750   -4.4190   21.3850 F   0  0  0  0  0  0  0  0  0  0  0  0
  -21.1940   -3.9130   25.9840 F   0  0  0  0  0  0  0  0  0  0  0  0
  -22.7630  -13.6920   21.2340 C   0  0  0  0  0  0  0  0  0  0  0  0
  -22.0540  -12.9840   22.1060 N   0  0  0  0  0  0  0  0  0  0  0  0
  -22.3180  -14.7290   20.7410 O   0  0  0  0  0  0  0  0  0  0  0  0
  -22.4290  -12.1470   22.5260 H   0  0  0  0  0  0  0  0  0  0  0  0
  -21.1240  -13.2870   22.3590 H   0  0  0  0  0  0  0  0  0  0  0  0
  -25.3660  -15.3700   20.3870 N   0  0  0  0  0  0  0  0  0  0  0  0
  -24.5970  -16.0180   20.5230 H   0  0  0  0  0  0  0  0  0  0  0  0
  -26.1870  -15.8100   19.9910 H   0  0  0  0  0  0  0  0  0  0  0  0
  -27.9770  -24.3140   19.9650 C   0  0  0  0  0  2  0  0  0  0  0  0
  -28.1790  -25.9390   20.2670 O   0  0  0  0  0  0  0  0  0  0  0  0
  -24.6500  -31.9240   23.2780 C   0  0  0  0  0  0  0  0  0  0  0  0
  -27.1760  -27.0520   20.1990 C   0  0  0  0  0  0  0  0  0  0  0  0
  -23.4420  -30.5440   21.6350 C   0  0  0  0  0  3  0  0  0  0  0  0
  -24.8800  -28.9490   20.1840 C   0  0  0  0  0  0  0  0  0  0  0  0
  -26.0090  -30.7490   21.4730 C   0  0  0  0  0  2  0  0  0  0  0  0
  -26.0720  -29.3430   20.8020 C   0  0  0  0  0  0  0  0  0  0  0  0
  -27.2130  -28.4160   20.7850 C   0  0  0  0  0  3  0  0  0  0  0  0
  -25.9540  -26.8180   19.5280 C   0  0  0  0  0  3  0  0  0  0  0  0
  -24.8470  -27.7090   19.5260 C   0  0  0  0  0  3  0  0  0  0  0  0
  -23.6620  -29.8720   20.2500 C   0  0  0  0  0  2  0  0  0  0  0  0
  -24.7230  -31.1000   22.1810 N   0  0  0  0  0  0  0  0  0  0  0  0
  -23.5640  -32.2110   23.8090 O   0  0  0  0  0  0  0  0  0  0  0  0
  -22.7530  -29.5420   22.5970 C   0  0  0  0  0  0  0  0  0  0  0  0
  -21.4250  -29.3610   22.4630 N   0  0  0  0  0  0  0  0  0  0  0  0
  -23.4200  -28.9280   23.4340 O   0  0  0  0  0  0  0  0  0  0  0  0
  -20.9400  -29.9080   21.7670 H   0  0  0  0  0  0  0  0  0  0  0  0
  -18.0580  -28.0960   22.9420 C   0  0  0  0  0  0  0  0  0  0  0  0
  -20.6100  -28.4130   23.2310 C   0  0  0  0  0  3  0  0  0  0  0  0
  -20.7440  -26.9790   22.6650 C   0  0  0  0  0  2  0  0  0  0  0  0
  -19.6590  -26.6320   21.6400 C   0  0  0  0  0  2  0  0  0  0  0  0
  -18.2680  -26.7490   22.2700 C   0  0  0  0  0  2  0  0  0  0  0  0
  -19.1580  -28.8830   23.3790 C   0  0  0  0  0  0  0  0  0  0  0  0
  -18.9050  -30.1400   23.9710 C   0  0  0  0  0  3  0  0  0  0  0  0
  -17.5870  -30.6110   24.1280 C   0  0  0  0  0  3  0  0  0  0  0  0
  -16.5030  -29.8220   23.7050 C   0  0  0  0  0  3  0  0  0  0  0  0
  -16.7400  -28.5660   23.1180 C   0  0  0  0  0  3  0  0  0  0  0  0
  -25.9250  -32.5620   23.9080 C   0  0  0  0  0  3  0  0  0  0  0  0
  -25.6180  -33.9670   24.2320 N   0  0  0  0  0  0  0  0  0  0  0  0
  -25.9290  -35.0190   23.4640 C   0  0  0  0  0  0  0  0  0  0  0  0
  -26.5660  -34.9100   22.4140 O   0  0  0  0  0  0  0  0  0  0  0  0
  -25.0470  -34.1240   25.0500 H   0  0  0  0  0  0  0  0  0  0  0  0
  -24.1840  -36.8140   23.1790 C   0  0  0  0  0  1  0  0  0  0  0  0
  -25.4630  -36.4140   23.9340 C   0  0  0  0  0  3  0  0  0  0  0  0
  -27.6250  -37.3190   24.6660 C   0  0  0  0  0  1  0  0  0  0  0  0
  -26.4880  -37.4680   23.7630 N   0  0  0  0  0  0  0  0  0  0  0  0
  -26.0840  -38.3890   23.9090 H   0  0  0  0  0  0  0  0  0  0  0  0
  -26.4200  -31.8040   25.2020 C   0  0  1  0  0  0  0  0  0  0  0  0
  -25.3140  -31.5870   26.2600 C   0  0  0  0  0  1  0  0  0  0  0  0
  -27.0000  -30.4160   24.8420 C   0  0  0  0  0  1  0  0  0  0  0  0
  -27.5680  -32.5990   25.8670 C   0  0  0  0  0  1  0  0  0  0  0  0
  2  1  1  0
  3  5  1  0
  3  4  1  0
  4 14  1  0
  4  1  1  0
  5 46  1  0
  5  2  1  0
  6 15  1  0
  7 12  1  0
  8  9  1  0
  8  7  1  0
 10  9  1  0
 10 21  1  0
 10 11  1  0
 12  6  1  0
 12 11  1  0
 13  6  2  0
 14 15  1  0
 15 17  1  0
 16 14  2  0
 18 19  2  0
 19 38  1  0
 20 19  1  0
 20 23  1  0
 21 22  1  0
 21 18  1  0
 22 20  2  0
 23 24  1  0
 24 25  2  0
 26 29  1  0
 26 25  1  0
 27 26  2  0
 28 27  1  0
 28 23  2  0
 29 30  1  0
 30 31  1  0
 31 32  2  0
 33 32  1  0
 33 37  1  0
 34 33  2  0
 35 30  2  0
 35 34  1  0
 36 35  1  0
 38 39  1  0
 39 42  1  0
 39 41  1  0
 40 38  2  0
 43 44  1  0
 43 18  1  0
 45 43  1  0
 46 47  1  0
 48 59  2  0
 49 47  1  0
 49 54  1  0
 50 58  1  0
 50 60  1  0
 51 57  1  0
 51 53  1  0
 52 58  1  0
 53 52  1  0
 54 53  2  0
 55 49  2  0
 56 55  1  0
 56 51  2  0
 57 50  1  0
 58 48  1  0
 60 62  2  0
 61 60  1  0
 63 61  1  0
 64 73  2  0
 64 69  1  0
 65 61  1  0
 65 69  1  0
 66 65  1  0
 67 68  1  0
 67 66  1  0
 68 64  1  0
 69 70  2  0
 70 71  1  0
 72 71  2  0
 73 72  1  0
 74 48  1  0
 74 75  1  0
 74 84  1  0
 75 78  1  0
 76 80  1  0
 76 75  1  0
 77 76  2  0
 80 79  1  0
 82 83  1  0
 82 80  1  0
 82 81  1  0
 84 87  1  1
 84 85  1  0
 86 84  1  0
M  ISO  4   6 100  15 100  46 101  47 101
M  END
>  <TORSDO>  (18) 
F 17

>  <SCORE>  (18) 
-16.439

>  <name>  (18) 
17

>  <ligand_id>  (18) 
17

>  <original_smiles>  (18) 
[H]c1c([H])c([H])c2c(c1[H])C([H])([H])C([H])([H])C([H])([H])C2([H])N([H])C(=O)C1([H])N(C(=O)C([H])(N([H])C(=O)C([H])(N([H])C([H])([H])[H])C([H])([H])[H])C(C([H])([H])[H])(C([H])([H])[H])C([H])([H])[H])C([H])([H])c2c([H])c(OC([H])([H])C3([H])C([H])([H])C([H])([H])C([H])(C(=O)N([H])C(=O)N4C([H])([H])C([H])([H])C([H])([H])C([H])(n5nc(-c6c([H])c([H])c(Oc7c([H])c([H])c(F)c([H])c7F)c([H])c6[H])c(C(=O)N([H])[H])c5N([H])[H])C4([H])[H])C3([H])[H])c([H])c([H])c2C1([H])[H]

>  <smiles>  (18) 
[H]c1c([H])c([H])c2c(c1[H])C([H])([H])C([H])([H])C([H])([H])C2([H])N([H])C(=O)C1([H])N(C(=O)C([H])(N([H])C(=O)C([H])(N([H])C([H])([H])[H])C([H])([H])[H])C(C([H])([H])[H])(C([H])([H])[H])C([H])([H])[H])C([H])([H])c2c([H])c(OC([H])([H])C3([H])C([H])([H])C([H])([H])C([H])(C(=O)N([H])C(=O)N4C([H])([H])C([H])([H])C([H])([H])C([H])(n5nc(-c6c([H])c([H])c(Oc7c([H])c([H])c(F)c([H])c7F)c([H])c6[H])c(C(=O)N([H])[H])c5N([H])[H])C4([H])[H])C3([H])[H])c([H])c([H])c2C1([H])[H]

$$$$
18:0:0
     RDKit          3D

 87 95  0  0  1  0  0  0  0  0999 V2000
  -27.9160  -20.9920   18.6500 C   0  0  0  0  0  1  0  0  0  0  0  0
  -29.0030  -21.0590   19.7300 C   0  0  0  0  0  3  0  0  0  0  0  0
  -30.4370  -15.2330   19.9370 C   0  0  0  0  0  0  0  0  0  0  0  0
  -30.2880  -12.8070   19.0280 C   0  0  0  0  0  2  0  0  0  0  0  0
  -29.3020  -12.6470   17.8450 C   0  0  0  0  0  2  0  0  0  0  0  0
  -27.8810  -12.3830   18.3680 C   0  0  0  0  0  2  0  0  0  0  0  0
  -27.5090  -13.3360   19.5300 C   0  0  0  0  0  3  0  0  0  0  0  0
  -28.6200  -13.4630   20.5960 C   0  0  0  0  0  2  0  0  0  0  0  0
  -29.8250  -13.9480   19.9060 N   0  0  0  0  0  0  0  0  0  0  0  0
  -31.6060  -15.2040   19.5250 O   0  0  0  0  0  0  0  0  0  0  0  0
  -30.0690  -18.8700   21.4290 C   0  0  0  0  0  2  0  0  0  0  0  0
  -29.4900  -17.8950   19.4520 C   0  0  0  0  0  2  0  0  0  0  0  0
  -29.1360  -19.3460   20.3000 C   0  0  0  0  0  3  0  0  0  0  0  0
  -29.9790  -17.2670   21.5710 C   0  0  0  0  0  3  0  0  0  0  0  0
  -31.1320  -16.7280   22.4410 C   0  0  0  0  0  1  0  0  0  0  0  0
  -29.7870  -16.5390   20.2630 N   0  0  0  0  0  0  0  0  0  0  0  0
  -25.1950  -13.8970   20.4430 C   0  0  0  0  0  0  0  0  0  0  0  0
  -24.1480  -13.1200   20.8530 C   0  0  0  0  0  0  0  0  0  0  0  0
  -24.5980  -11.7670   20.7600 C   0  0  0  0  0  0  0  0  0  0  0  0
  -26.2110  -13.0190   20.1110 N   0  0  0  0  0  0  0  0  0  0  0  0
  -25.8680  -11.7290   20.3690 N   0  0  0  0  0  0  0  0  0  0  0  0
  -23.8710  -10.5060   20.9610 C   0  0  0  0  0  0  0  0  0  0  0  0
  -24.3220   -9.5290   21.8760 C   0  0  0  0  0  3  0  0  0  0  0  0
  -23.5900   -8.3360   22.0700 C   0  0  0  0  0  3  0  0  0  0  0  0
  -22.3920   -8.1140   21.3480 C   0  0  0  0  0  0  0  0  0  0  0  0
  -21.9600   -9.0800   20.4230 C   0  0  0  0  0  3  0  0  0  0  0  0
  -22.6910  -10.2630   20.2290 C   0  0  0  0  0  3  0  0  0  0  0  0
  -21.6320   -6.9730   21.4500 O   0  0  0  0  0  0  0  0  0  0  0  0
  -21.5850   -6.2410   22.6090 C   0  0  0  0  0  0  0  0  0  0  0  0
  -21.1590   -6.8080   23.8300 C   0  0  0  0  0  3  0  0  0  0  0  0
  -21.0590   -6.0040   24.9830 C   0  0  0  0  0  3  0  0  0  0  0  0
  -21.3710   -4.6330   24.9140 C   0  0  0  0  0  0  0  0  0  0  0  0
  -21.7900   -4.0640   23.6970 C   0  0  0  0  0  3  0  0  0  0  0  0
  -21.8930   -4.8670   22.5470 C   0  0  0  0  0  0  0  0  0  0  0  0
  -22.2760   -4.3120   21.3730 F   0  0  0  0  0  0  0  0  0  0  0  0
  -21.2680   -3.8560   26.0170 F   0  0  0  0  0  0  0  0  0  0  0  0
  -22.7750  -13.6030   21.2170 C   0  0  0  0  0  0  0  0  0  0  0  0
  -22.0930  -12.8960   22.1110 N   0  0  0  0  0  0  0  0  0  0  0  0
  -22.3190  -14.6450   20.7480 O   0  0  0  0  0  0  0  0  0  0  0  0
  -22.4790  -12.0550   22.5160 H   0  0  0  0  0  0  0  0  0  0  0  0
  -21.1760  -13.2040   22.4000 H   0  0  0  0  0  0  0  0  0  0  0  0
  -25.3620  -15.2710   20.2960 N   0  0  0  0  0  0  0  0  0  0  0  0
  -24.6150  -15.9280   20.4860 H   0  0  0  0  0  0  0  0  0  0  0  0
  -26.2020  -15.7180   19.9500 H   0  0  0  0  0  0  0  0  0  0  0  0
  -28.7680  -22.6800   20.4840 C   0  0  0  0  0  3  0  0  0  0  0  0
  -28.1280  -24.2600   19.8830 C   0  0  0  0  0  3  0  0  0  0  0  0
  -28.2130  -25.8450   20.3300 O   0  0  0  0  0  0  0  0  0  0  0  0
  -24.6440  -31.8180   23.2040 C   0  0  0  0  0  0  0  0  0  0  0  0
  -27.2060  -26.9390   20.2080 C   0  0  0  0  0  0  0  0  0  0  0  0
  -23.4560  -30.4250   21.5570 C   0  0  0  0  0  3  0  0  0  0  0  0
  -24.9090  -28.8190   20.1410 C   0  0  0  0  0  0  0  0  0  0  0  0
  -26.0230  -30.6310   21.4290 C   0  0  0  0  0  2  0  0  0  0  0  0
  -26.0910  -29.2220   20.7720 C   0  0  0  0  0  0  0  0  0  0  0  0
  -27.2330  -28.3030   20.7830 C   0  0  0  0  0  3  0  0  0  0  0  0
  -25.9990  -26.6890   19.5180 C   0  0  0  0  0  3  0  0  0  0  0  0
  -24.8880  -27.5720   19.4940 C   0  0  0  0  0  3  0  0  0  0  0  0
  -23.6890  -29.7380   20.1830 C   0  0  0  0  0  2  0  0  0  0  0  0
  -24.7270  -30.9860   22.1160 N   0  0  0  0  0  0  0  0  0  0  0  0
  -23.5520  -32.1110   23.7190 O   0  0  0  0  0  0  0  0  0  0  0  0
  -22.7530  -29.4330   22.5210 C   0  0  0  0  0  0  0  0  0  0  0  0
  -21.4220  -29.2800   22.3950 N   0  0  0  0  0  0  0  0  0  0  0  0
  -23.4120  -28.7990   23.3480 O   0  0  0  0  0  0  0  0  0  0  0  0
  -20.9430  -29.8390   21.7020 H   0  0  0  0  0  0  0  0  0  0  0  0
  -18.0260  -28.1090   22.9080 C   0  0  0  0  0  0  0  0  0  0  0  0
  -20.5910  -28.3480   23.1630 C   0  0  0  0  0  3  0  0  0  0  0  0
  -20.6740  -26.9180   22.5790 C   0  0  0  0  0  2  0  0  0  0  0  0
  -19.5660  -26.6150   21.5660 C   0  0  0  0  0  2  0  0  0  0  0  0
  -18.1880  -26.7660   22.2170 C   0  0  0  0  0  2  0  0  0  0  0  0
  -19.1550  -28.8590   23.3370 C   0  0  0  0  0  0  0  0  0  0  0  0
  -18.9480  -30.1160   23.9470 C   0  0  0  0  0  3  0  0  0  0  0  0
  -17.6470  -30.6230   24.1290 C   0  0  0  0  0  3  0  0  0  0  0  0
  -16.5350  -29.8700   23.7130 C   0  0  0  0  0  3  0  0  0  0  0  0
  -16.7250  -28.6150   23.1090 C   0  0  0  0  0  3  0  0  0  0  0  0
  -25.9140  -32.4550   23.8450 C   0  0  0  0  0  3  0  0  0  0  0  0
  -25.6020  -33.8590   24.1690 N   0  0  0  0  0  0  0  0  0  0  0  0
  -25.9330  -34.9150   23.4120 C   0  0  0  0  0  0  0  0  0  0  0  0
  -26.5970  -34.8090   22.3780 O   0  0  0  0  0  0  0  0  0  0  0  0
  -25.0080  -34.0140   24.9700 H   0  0  0  0  0  0  0  0  0  0  0  0
  -24.1980  -36.7120   23.0920 C   0  0  0  0  0  1  0  0  0  0  0  0
  -25.4570  -36.3070   23.8750 C   0  0  0  0  0  3  0  0  0  0  0  0
  -27.6070  -37.2040   24.6550 C   0  0  0  0  0  1  0  0  0  0  0  0
  -26.4850  -37.3610   23.7330 N   0  0  0  0  0  0  0  0  0  0  0  0
  -26.0800  -38.2810   23.8790 H   0  0  0  0  0  0  0  0  0  0  0  0
  -26.4010  -31.6980   25.1420 C   0  0  1  0  0  0  0  0  0  0  0  0
  -25.2890  -31.4840   26.1960 C   0  0  0  0  0  1  0  0  0  0  0  0
  -26.9800  -30.3090   24.7890 C   0  0  0  0  0  1  0  0  0  0  0  0
  -27.5470  -32.4920   25.8120 C   0  0  0  0  0  1  0  0  0  0  0  0
  2  1  1  0
  2 45  1  0
  3 16  1  0
  4  9  1  0
  5  6  1  0
  5  4  1  0
  7  6  1  0
  7 20  1  0
  7  8  1  0
  9  3  1  0
  9  8  1  0
 10  3  2  0
 11 14  1  0
 12 16  1  0
 12 13  1  0
 13  2  1  0
 13 11  1  0
 14 15  1  0
 16 14  1  0
 17 18  2  0
 18 37  1  0
 19 18  1  0
 19 22  1  0
 20 21  1  0
 20 17  1  0
 21 19  2  0
 22 23  1  0
 23 24  2  0
 25 28  1  0
 25 24  1  0
 26 25  2  0
 27 26  1  0
 27 22  2  0
 28 29  1  0
 29 30  1  0
 30 31  2  0
 32 31  1  0
 32 36  1  0
 33 32  2  0
 34 29  2  0
 34 33  1  0
 35 34  1  0
 37 38  1  0
 38 41  1  0
 38 40  1  0
 39 37  2  0
 42 17  1  0
 42 43  1  0
 44 42  1  0
 46 47  1  0
 46 45  2  0
 48 59  2  0
 49 47  1  0
 49 54  1  0
 50 58  1  0
 50 60  1  0
 51 57  1  0
 51 53  1  0
 52 58  1  0
 53 54  2  0
 53 52  1  0
 55 49  2  0
 56 55  1  0
 56 51  2  0
 57 50  1  0
 58 48  1  0
 60 62  2  0
 61 60  1  0
 63 61  1  0
 64 73  2  0
 64 69  1  0
 65 61  1  0
 65 69  1  0
 66 65  1  0
 67 68  1  0
 67 66  1  0
 68 64  1  0
 69 70  2  0
 70 71  1  0
 72 71  2  0
 73 72  1  0
 74 48  1  0
 74 75  1  0
 74 84  1  0
 75 78  1  0
 76 80  1  0
 76 75  1  0
 77 76  2  0
 80 79  1  0
 82 80  1  0
 82 83  1  0
 82 81  1  0
 84 87  1  1
 84 85  1  0
 86 84  1  0
M  ISO  4   3 100  16 100  46 101  47 101
M  END
>  <TORSDO>  (19) 
F 18

>  <SCORE>  (19) 
-15.710

>  <name>  (19) 
18

>  <ligand_id>  (19) 
18

>  <original_smiles>  (19) 
[H]c1c([H])c([H])c2c(c1[H])C([H])([H])C([H])([H])C([H])([H])C2([H])N([H])C(=O)C1([H])N(C(=O)C([H])(N([H])C(=O)C([H])(N([H])C([H])([H])[H])C([H])([H])[H])C(C([H])([H])[H])(C([H])([H])[H])C([H])([H])[H])C([H])([H])c2c([H])c(OC([H])([H])C([H])([H])C([H])(C([H])([H])[H])C3([H])C([H])([H])N(C(=O)N4C([H])([H])C([H])([H])C([H])([H])C([H])(n5nc(-c6c([H])c([H])c(Oc7c([H])c([H])c(F)c([H])c7F)c([H])c6[H])c(C(=O)N([H])[H])c5N([H])[H])C4([H])[H])C([H])(C([H])([H])[H])C3([H])[H])c([H])c([H])c2C1([H])[H]

>  <smiles>  (19) 
[H]c1c([H])c([H])c2c(c1[H])C([H])([H])C([H])([H])C([H])([H])C2([H])N([H])C(=O)C1([H])N(C(=O)C([H])(N([H])C(=O)C([H])(N([H])C([H])([H])[H])C([H])([H])[H])C(C([H])([H])[H])(C([H])([H])[H])C([H])([H])[H])C([H])([H])c2c([H])c(OC([H])([H])C([H])([H])C([H])(C([H])([H])[H])C3([H])C([H])([H])N(C(=O)N4C([H])([H])C([H])([H])C([H])([H])C([H])(n5nc(-c6c([H])c([H])c(Oc7c([H])c([H])c(F)c([H])c7F)c([H])c6[H])c(C(=O)N([H])[H])c5N([H])[H])C4([H])[H])C([H])(C([H])([H])[H])C3([H])[H])c([H])c([H])c2C1([H])[H]

$$$$
19:0:0
     RDKit          3D

 90 98  0  0  1  0  0  0  0  0999 V2000
  -30.0710  -19.8300   21.3920 C   0  0  0  0  0  3  0  0  0  0  0  0
  -30.3400  -18.4050   21.3530 C   0  0  0  0  0  3  0  0  0  0  0  0
  -28.8060  -18.1860   19.5660 C   0  0  0  0  0  3  0  0  0  0  0  0
  -29.1340  -20.5100   20.5390 C   0  0  0  0  0  0  0  0  0  0  0  0
  -28.5440  -19.6120   19.5890 C   0  0  0  0  0  0  0  0  0  0  0  0
  -29.6940  -17.4970   20.4540 C   0  0  0  0  0  0  0  0  0  0  0  0
  -27.5270  -20.1540   18.6010 C   0  0  0  0  0  1  0  0  0  0  0  0
  -30.5350  -14.9030   20.3410 C   0  0  0  0  0  0  0  0  0  0  0  0
  -30.4240  -12.5930   19.3340 C   0  0  0  0  0  2  0  0  0  0  0  0
  -29.4740  -12.6210   18.1120 C   0  0  0  0  0  2  0  0  0  0  0  0
  -28.0080  -12.4190   18.5440 C   0  0  0  0  0  2  0  0  0  0  0  0
  -27.6220  -13.3040   19.7590 C   0  0  0  0  0  3  0  0  0  0  0  0
  -28.6850  -13.2340   20.8760 C   0  0  0  0  0  2  0  0  0  0  0  0
  -29.9670  -13.6400   20.2830 N   0  0  0  0  0  0  0  0  0  0  0  0
  -31.7200  -15.0410   20.0220 O   0  0  0  0  0  0  0  0  0  0  0  0
  -29.6710  -15.9870   20.5730 N   0  0  0  0  0  0  0  0  0  0  0  0
  -28.7400  -15.6350   20.7320 H   0  0  0  0  0  0  0  0  0  0  0  0
  -25.2350  -13.8810   20.4940 C   0  0  0  0  0  0  0  0  0  0  0  0
  -24.1740  -13.1020   20.8680 C   0  0  0  0  0  0  0  0  0  0  0  0
  -24.6440  -11.7530   20.8380 C   0  0  0  0  0  0  0  0  0  0  0  0
  -26.2820  -13.0060   20.2540 N   0  0  0  0  0  0  0  0  0  0  0  0
  -25.9350  -11.7220   20.5240 N   0  0  0  0  0  0  0  0  0  0  0  0
  -23.9240  -10.4890   21.0300 C   0  0  0  0  0  0  0  0  0  0  0  0
  -24.3580   -9.5250   21.9680 C   0  0  0  0  0  3  0  0  0  0  0  0
  -23.6370   -8.3260   22.1480 C   0  0  0  0  0  3  0  0  0  0  0  0
  -22.4670   -8.0800   21.3900 C   0  0  0  0  0  0  0  0  0  0  0  0
  -22.0520   -9.0310   20.4420 C   0  0  0  0  0  3  0  0  0  0  0  0
  -22.7740  -10.2220   20.2600 C   0  0  0  0  0  3  0  0  0  0  0  0
  -21.7180   -6.9310   21.4800 O   0  0  0  0  0  0  0  0  0  0  0  0
  -21.6680   -6.1930   22.6350 C   0  0  0  0  0  0  0  0  0  0  0  0
  -21.2290   -6.7490   23.8560 C   0  0  0  0  0  3  0  0  0  0  0  0
  -21.1250   -5.9360   25.0020 C   0  0  0  0  0  3  0  0  0  0  0  0
  -21.4510   -4.5680   24.9290 C   0  0  0  0  0  0  0  0  0  0  0  0
  -21.8840   -4.0120   23.7120 C   0  0  0  0  0  3  0  0  0  0  0  0
  -21.9880   -4.8210   22.5680 C   0  0  0  0  0  0  0  0  0  0  0  0
  -22.3850   -4.2750   21.3940 F   0  0  0  0  0  0  0  0  0  0  0  0
  -21.3440   -3.7860   26.0290 F   0  0  0  0  0  0  0  0  0  0  0  0
  -22.7750  -13.5740   21.1400 C   0  0  0  0  0  0  0  0  0  0  0  0
  -22.0480  -12.8730   22.0030 N   0  0  0  0  0  0  0  0  0  0  0  0
  -22.3340  -14.5990   20.6220 O   0  0  0  0  0  0  0  0  0  0  0  0
  -22.4160  -12.0440   22.4460 H   0  0  0  0  0  0  0  0  0  0  0  0
  -21.1090  -13.1730   22.2260 H   0  0  0  0  0  0  0  0  0  0  0  0
  -25.3890  -15.2530   20.3160 N   0  0  0  0  0  0  0  0  0  0  0  0
  -24.6140  -15.8970   20.4280 H   0  0  0  0  0  0  0  0  0  0  0  0
  -26.2190  -15.7000   19.9490 H   0  0  0  0  0  0  0  0  0  0  0  0
  -28.5540  -22.0130   20.8490 C   0  0  0  0  0  2  0  0  0  0  0  0
  -30.4590  -23.7580   20.5570 C   0  0  0  0  0  1  0  0  0  0  0  0
  -28.9830  -23.4910   20.2370 C   0  0  0  0  0  3  0  0  0  0  0  0
  -28.0680  -24.8250   20.6410 C   0  0  0  0  0  2  0  0  0  0  0  0
  -28.3180  -26.2990   20.2800 O   0  0  0  0  0  0  0  0  0  0  0  0
  -24.6170  -31.9070   23.2400 C   0  0  0  0  0  0  0  0  0  0  0  0
  -27.2360  -27.2350   20.2470 C   0  0  0  0  0  0  0  0  0  0  0  0
  -23.4280  -30.4980   21.6030 C   0  0  0  0  0  3  0  0  0  0  0  0
  -24.8880  -28.9270   20.1970 C   0  0  0  0  0  0  0  0  0  0  0  0
  -25.9770  -30.7880   21.4420 C   0  0  0  0  0  2  0  0  0  0  0  0
  -26.0610  -29.3960   20.8030 C   0  0  0  0  0  0  0  0  0  0  0  0
  -27.2380  -28.5660   20.8090 C   0  0  0  0  0  3  0  0  0  0  0  0
  -26.0390  -26.8540   19.6000 C   0  0  0  0  0  3  0  0  0  0  0  0
  -24.8860  -27.6660   19.5810 C   0  0  0  0  0  3  0  0  0  0  0  0
  -23.6550  -29.8140   20.2310 C   0  0  0  0  0  2  0  0  0  0  0  0
  -24.6930  -31.0850   22.1500 N   0  0  0  0  0  0  0  0  0  0  0  0
  -23.5290  -32.1890   23.7640 O   0  0  0  0  0  0  0  0  0  0  0  0
  -22.7520  -29.4910   22.5670 C   0  0  0  0  0  0  0  0  0  0  0  0
  -21.4240  -29.3190   22.4390 N   0  0  0  0  0  0  0  0  0  0  0  0
  -23.4240  -28.8680   23.3930 O   0  0  0  0  0  0  0  0  0  0  0  0
  -20.9400  -29.8720   21.7460 H   0  0  0  0  0  0  0  0  0  0  0  0
  -18.0410  -28.1330   22.9480 C   0  0  0  0  0  0  0  0  0  0  0  0
  -20.6020  -28.3850   23.2120 C   0  0  0  0  0  3  0  0  0  0  0  0
  -20.6980  -26.9520   22.6380 C   0  0  0  0  0  2  0  0  0  0  0  0
  -19.5920  -26.6320   21.6270 C   0  0  0  0  0  2  0  0  0  0  0  0
  -18.2120  -26.7830   22.2720 C   0  0  0  0  0  2  0  0  0  0  0  0
  -19.1640  -28.8910   23.3740 C   0  0  0  0  0  0  0  0  0  0  0  0
  -18.9480  -30.1550   23.9680 C   0  0  0  0  0  3  0  0  0  0  0  0
  -17.6450  -30.6580   24.1380 C   0  0  0  0  0  3  0  0  0  0  0  0
  -16.5380  -29.8970   23.7250 C   0  0  0  0  0  3  0  0  0  0  0  0
  -16.7370  -28.6360   23.1360 C   0  0  0  0  0  3  0  0  0  0  0  0
  -25.8920  -32.5490   23.8690 C   0  0  0  0  0  3  0  0  0  0  0  0
  -26.3980  -31.7900   25.1570 C   0  0  1  0  0  0  0  0  0  0  0  0
  -25.2960  -31.5630   26.2170 C   0  0  0  0  0  1  0  0  0  0  0  0
  -26.9860  -30.4080   24.7860 C   0  0  0  0  0  1  0  0  0  0  0  0
  -27.5420  -32.5920   25.8220 C   0  0  0  0  0  1  0  0  0  0  0  0
  -25.5770  -33.9490   24.1890 N   0  0  0  0  0  0  0  0  0  0  0  0
  -25.9130  -35.0010   23.4290 C   0  0  0  0  0  0  0  0  0  0  0  0
  -26.5890  -34.8940   22.4030 O   0  0  0  0  0  0  0  0  0  0  0  0
  -24.9790  -34.1060   24.9860 H   0  0  0  0  0  0  0  0  0  0  0  0
  -24.1900  -36.7960   23.0570 C   0  0  0  0  0  1  0  0  0  0  0  0
  -25.4230  -36.3910   23.8790 C   0  0  0  0  0  3  0  0  0  0  0  0
  -27.5510  -37.2770   24.7270 C   0  0  0  0  0  1  0  0  0  0  0  0
  -26.4570  -37.4430   23.7730 N   0  0  0  0  0  0  0  0  0  0  0  0
  -26.0500  -38.3630   23.9170 H   0  0  0  0  0  0  0  0  0  0  0  0
  2  1  1  0
  3  5  2  0
  3  6  1  0
  4 46  1  0
  4  1  2  0
  5  4  1  0
  6 16  1  0
  6  2  2  0
  7  5  1  0
  8 16  1  0
  9 14  1  0
 10 11  1  0
 10  9  1  0
 12 11  1  0
 12 21  1  0
 12 13  1  0
 14  8  1  0
 14 13  1  0
 15  8  2  0
 16 17  1  0
 18 19  2  0
 19 38  1  0
 20 19  1  0
 20 23  1  0
 21 18  1  0
 21 22  1  0
 22 20  2  0
 23 24  1  0
 24 25  2  0
 26 29  1  0
 26 25  1  0
 27 26  2  0
 28 27  1  0
 28 23  2  0
 29 30  1  0
 30 31  1  0
 31 32  2  0
 33 32  1  0
 33 37  1  0
 34 33  2  0
 35 30  2  0
 35 34  1  0
 36 35  1  0
 38 39  1  0
 39 42  1  0
 39 41  1  0
 40 38  2  0
 43 44  1  0
 43 18  1  0
 45 43  1  0
 48 47  1  0
 48 49  1  0
 48 46  1  0
 50 49  1  0
 51 62  2  0
 52 50  1  0
 52 57  1  0
 53 61  1  0
 53 63  1  0
 54 60  1  0
 54 56  1  0
 55 61  1  0
 56 57  2  0
 56 55  1  0
 58 52  2  0
 59 58  1  0
 59 54  2  0
 60 53  1  0
 61 51  1  0
 63 65  2  0
 64 63  1  0
 66 64  1  0
 67 76  2  0
 67 72  1  0
 68 64  1  0
 68 72  1  0
 69 68  1  0
 70 71  1  0
 70 69  1  0
 71 67  1  0
 72 73  2  0
 73 74  1  0
 75 74  2  0
 76 75  1  0
 77 51  1  0
 77 82  1  0
 77 78  1  0
 78 81  1  1
 78 79  1  0
 80 78  1  0
 82 85  1  0
 83 87  1  0
 83 82  1  0
 84 83  2  0
 87 86  1  0
 89 87  1  0
 89 90  1  0
 89 88  1  0
M  ISO  4   8 100  16 100  49 101  50 101
M  END
>  <TORSDO>  (20) 
F 19

>  <SCORE>  (20) 
-14.362

>  <name>  (20) 
19

>  <ligand_id>  (20) 
19

>  <original_smiles>  (20) 
[H]c1c([H])c([H])c2c(c1[H])C([H])([H])C([H])([H])C([H])([H])C2([H])N([H])C(=O)C1([H])N(C(=O)C([H])(N([H])C(=O)C([H])(N([H])C([H])([H])[H])C([H])([H])[H])C(C([H])([H])[H])(C([H])([H])[H])C([H])([H])[H])C([H])([H])c2c([H])c(OC([H])([H])C([H])(C([H])([H])[H])C([H])([H])c3c([H])c([H])c(N([H])C(=O)N4C([H])([H])C([H])([H])C([H])([H])C([H])(n5nc(-c6c([H])c([H])c(Oc7c([H])c([H])c(F)c([H])c7F)c([H])c6[H])c(C(=O)N([H])[H])c5N([H])[H])C4([H])[H])c([H])c3C([H])([H])[H])c([H])c([H])c2C1([H])[H]

>  <smiles>  (20) 
[H]c1c([H])c([H])c2c(c1[H])C([H])([H])C([H])([H])C([H])([H])C2([H])N([H])C(=O)C1([H])N(C(=O)C([H])(N([H])C(=O)C([H])(N([H])C([H])([H])[H])C([H])([H])[H])C(C([H])([H])[H])(C([H])([H])[H])C([H])([H])[H])C([H])([H])c2c([H])c(OC([H])([H])C([H])(C([H])([H])[H])C([H])([H])c3c([H])c([H])c(N([H])C(=O)N4C([H])([H])C([H])([H])C([H])([H])C([H])(n5nc(-c6c([H])c([H])c(Oc7c([H])c([H])c(F)c([H])c7F)c([H])c6[H])c(C(=O)N([H])[H])c5N([H])[H])C4([H])[H])c([H])c3C([H])([H])[H])c([H])c([H])c2C1([H])[H]

$$$$
20:0:0
     RDKit          3D

 90 98  0  0  1  0  0  0  0  0999 V2000
  -29.9100  -20.1970   21.1700 C   0  0  0  0  0  2  0  0  0  0  0  0
  -29.5430  -20.8620   19.0220 C   0  0  0  0  0  2  0  0  0  0  0  0
  -29.1240  -21.6420   21.0660 C   0  0  0  0  0  3  0  0  0  0  0  0
  -30.1470  -19.3660   19.8060 C   0  0  0  0  0  3  0  0  0  0  0  0
  -29.4990  -22.4980   19.7870 C   0  0  0  0  0  3  0  0  0  0  0  0
  -29.1200  -22.4440   22.3650 C   0  0  0  0  0  0  0  0  0  0  0  0
  -28.0060  -23.4700   22.5040 C   0  0  0  0  0  1  0  0  0  0  0  0
  -29.9690  -22.2590   23.2810 N   0  0  0  0  0  0  0  0  0  0  0  0
  -30.6150  -21.5230   23.0170 H   0  0  0  0  0  0  0  0  0  0  0  0
  -28.7000  -24.2120   19.4290 C   0  0  0  0  0  2  0  0  0  0  0  0
  -28.7400  -25.8740   19.9170 O   0  0  0  0  0  0  0  0  0  0  0  0
  -24.8180  -31.6200   23.1840 C   0  0  0  0  0  0  0  0  0  0  0  0
  -27.7080  -27.0130   19.8740 C   0  0  0  0  0  0  0  0  0  0  0  0
  -23.7730  -30.3400   21.3610 C   0  0  0  0  0  3  0  0  0  0  0  0
  -25.3520  -28.9060   19.8780 C   0  0  0  0  0  0  0  0  0  0  0  0
  -26.3390  -30.6190   21.3780 C   0  0  0  0  0  2  0  0  0  0  0  0
  -26.4950  -29.2650   20.6000 C   0  0  0  0  0  0  0  0  0  0  0  0
  -27.6590  -28.3440   20.5720 C   0  0  0  0  0  3  0  0  0  0  0  0
  -26.5250  -26.8530   19.1060 C   0  0  0  0  0  3  0  0  0  0  0  0
  -25.3990  -27.7280   19.1140 C   0  0  0  0  0  3  0  0  0  0  0  0
  -24.1020  -29.7910   19.9430 C   0  0  0  0  0  2  0  0  0  0  0  0
  -24.9960  -30.8900   22.0300 N   0  0  0  0  0  0  0  0  0  0  0  0
  -23.6890  -31.8220   23.6640 O   0  0  0  0  0  0  0  0  0  0  0  0
  -23.0650  -29.2420   22.2000 C   0  0  0  0  0  0  0  0  0  0  0  0
  -21.7330  -29.1040   22.0560 N   0  0  0  0  0  0  0  0  0  0  0  0
  -23.7210  -28.5160   22.9490 O   0  0  0  0  0  0  0  0  0  0  0  0
  -21.2600  -29.7380   21.4300 H   0  0  0  0  0  0  0  0  0  0  0  0
  -18.3300  -27.9120   22.4890 C   0  0  0  0  0  0  0  0  0  0  0  0
  -20.9040  -28.0770   22.6970 C   0  0  0  0  0  3  0  0  0  0  0  0
  -20.9450  -26.7540   21.8980 C   0  0  0  0  0  2  0  0  0  0  0  0
  -19.8000  -26.6250   20.8860 C   0  0  0  0  0  2  0  0  0  0  0  0
  -18.4460  -26.6920   21.5940 C   0  0  0  0  0  2  0  0  0  0  0  0
  -19.4820  -28.5750   22.9930 C   0  0  0  0  0  0  0  0  0  0  0  0
  -19.3100  -29.7260   23.7940 C   0  0  0  0  0  3  0  0  0  0  0  0
  -18.0220  -30.2090   24.0950 C   0  0  0  0  0  3  0  0  0  0  0  0
  -16.8870  -29.5420   23.6030 C   0  0  0  0  0  3  0  0  0  0  0  0
  -17.0430  -28.3950   22.8050 C   0  0  0  0  0  3  0  0  0  0  0  0
  -26.0200  -32.2550   23.9470 C   0  0  0  0  0  3  0  0  0  0  0  0
  -26.3860  -31.4810   25.2760 C   0  0  1  0  0  0  0  0  0  0  0  0
  -25.1840  -31.2720   26.2270 C   0  0  0  0  0  1  0  0  0  0  0  0
  -26.9750  -30.0900   24.9530 C   0  0  0  0  0  1  0  0  0  0  0  0
  -27.4800  -32.2550   26.0510 C   0  0  0  0  0  1  0  0  0  0  0  0
  -25.6760  -33.6540   24.2610 N   0  0  0  0  0  0  0  0  0  0  0  0
  -26.0420  -34.7220   23.5370 C   0  0  0  0  0  0  0  0  0  0  0  0
  -26.7670  -34.6340   22.5440 O   0  0  0  0  0  0  0  0  0  0  0  0
  -25.0370  -33.7960   25.0290 H   0  0  0  0  0  0  0  0  0  0  0  0
  -24.3200  -36.5200   23.1310 C   0  0  0  0  0  1  0  0  0  0  0  0
  -25.5280  -36.1060   23.9860 C   0  0  0  0  0  3  0  0  0  0  0  0
  -27.6160  -37.0100   24.9250 C   0  0  0  0  0  1  0  0  0  0  0  0
  -26.5570  -37.1700   23.9320 N   0  0  0  0  0  0  0  0  0  0  0  0
  -26.1330  -38.0850   24.0670 H   0  0  0  0  0  0  0  0  0  0  0  0
  -29.8860  -17.4450   19.7050 C   0  0  0  0  0  3  0  0  0  0  0  0
  -30.8120  -15.8260   19.6620 C   0  0  0  0  0  0  0  0  0  0  0  0
  -31.0060  -13.1800   19.2530 C   0  0  0  0  0  2  0  0  0  0  0  0
  -30.1310  -12.6350   18.0860 C   0  0  0  0  0  2  0  0  0  0  0  0
  -28.6910  -12.3560   18.5510 C   0  0  0  0  0  2  0  0  0  0  0  0
  -28.1690  -13.4740   19.4740 C   0  0  0  0  0  3  0  0  0  0  0  0
  -29.1800  -13.9140   20.5450 C   0  0  0  0  0  2  0  0  0  0  0  0
  -30.3780  -14.4430   19.8520 N   0  0  0  0  0  0  0  0  0  0  0  0
  -32.0190  -15.8010   19.3550 O   0  0  0  0  0  0  0  0  0  0  0  0
  -25.8810  -14.1010   20.3990 C   0  0  0  0  0  0  0  0  0  0  0  0
  -24.8030  -13.3640   20.8190 C   0  0  0  0  0  0  0  0  0  0  0  0
  -25.1810  -11.9940   20.6560 C   0  0  0  0  0  0  0  0  0  0  0  0
  -26.8520  -13.1850   20.0380 N   0  0  0  0  0  0  0  0  0  0  0  0
  -26.4450  -11.9050   20.2510 N   0  0  0  0  0  0  0  0  0  0  0  0
  -24.3790  -10.7700   20.7980 C   0  0  0  0  0  0  0  0  0  0  0  0
  -24.7690   -9.7220   21.6590 C   0  0  0  0  0  3  0  0  0  0  0  0
  -23.9670   -8.5670   21.7910 C   0  0  0  0  0  3  0  0  0  0  0  0
  -22.7590   -8.4550   21.0620 C   0  0  0  0  0  0  0  0  0  0  0  0
  -22.3880   -9.4910   20.1850 C   0  0  0  0  0  3  0  0  0  0  0  0
  -23.1900  -10.6360   20.0520 C   0  0  0  0  0  3  0  0  0  0  0  0
  -21.9300   -7.3580   21.1140 O   0  0  0  0  0  0  0  0  0  0  0  0
  -21.7720   -6.6240   22.2630 C   0  0  0  0  0  0  0  0  0  0  0  0
  -21.2990   -7.2040   23.4620 C   0  0  0  0  0  3  0  0  0  0  0  0
  -21.0890   -6.4010   24.6000 C   0  0  0  0  0  3  0  0  0  0  0  0
  -21.3370   -5.0160   24.5410 C   0  0  0  0  0  0  0  0  0  0  0  0
  -21.7980   -4.4350   23.3490 C   0  0  0  0  0  3  0  0  0  0  0  0
  -22.0110   -5.2360   22.2120 C   0  0  0  0  0  0  0  0  0  0  0  0
  -22.4340   -4.6640   21.0580 F   0  0  0  0  0  0  0  0  0  0  0  0
  -21.1260   -4.2430   25.6320 F   0  0  0  0  0  0  0  0  0  0  0  0
  -23.4630  -13.9070   21.2250 C   0  0  0  0  0  0  0  0  0  0  0  0
  -22.7560  -13.2090   22.1140 N   0  0  0  0  0  0  0  0  0  0  0  0
  -23.0480  -14.9800   20.7930 O   0  0  0  0  0  0  0  0  0  0  0  0
  -23.1090  -12.3460   22.4970 H   0  0  0  0  0  0  0  0  0  0  0  0
  -21.8530  -13.5400   22.4230 H   0  0  0  0  0  0  0  0  0  0  0  0
  -26.0970  -15.4660   20.2440 N   0  0  0  0  0  0  0  0  0  0  0  0
  -25.3150  -16.1100   20.3070 H   0  0  0  0  0  0  0  0  0  0  0  0
  -26.8380  -15.8270   19.6540 H   0  0  0  0  0  0  0  0  0  0  0  0
  -27.3440  -17.5240   20.3060 C   0  0  0  0  0  1  0  0  0  0  0  0
  -28.7780  -17.1890   20.7730 C   0  0  0  0  0  2  0  0  0  0  0  0
  2  5  1  0
  2  4  1  0
  3  1  1  0
  3  6  1  0
  4 52  1  0
  4  1  1  0
  5 10  1  0
  5  3  1  0
  6  7  1  0
  6  8  2  0
  9  8  1  0
 10 11  1  0
 12 23  2  0
 13 11  1  0
 13 18  1  0
 14 22  1  0
 14 24  1  0
 15 21  1  0
 15 17  1  0
 16 22  1  0
 17 16  1  0
 18 17  2  0
 19 20  1  0
 19 13  2  0
 20 15  2  0
 21 14  1  0
 22 12  1  0
 24 26  2  0
 25 24  1  0
 27 25  1  0
 28 37  2  0
 28 33  1  0
 29 25  1  0
 29 33  1  0
 30 29  1  0
 31 32  1  0
 31 30  1  0
 32 28  1  0
 33 34  2  0
 34 35  1  0
 36 35  2  0
 37 36  1  0
 38 12  1  0
 38 43  1  0
 38 39  1  0
 39 42  1  1
 39 40  1  0
 41 39  1  0
 43 46  1  0
 44 48  1  0
 44 43  1  0
 45 44  2  0
 48 47  1  0
 50 48  1  0
 50 51  1  0
 50 49  1  0
 52 90  1  0
 53 52  1  0
 53 59  1  0
 54 59  1  0
 55 56  1  0
 55 54  1  0
 57 56  1  0
 57 64  1  0
 57 58  1  0
 59 58  1  0
 60 53  2  0
 61 62  2  0
 62 81  1  0
 63 66  1  0
 63 62  1  0
 64 65  1  0
 64 61  1  0
 65 63  2  0
 66 67  1  0
 67 68  2  0
 69 72  1  0
 69 68  1  0
 70 69  2  0
 71 70  1  0
 71 66  2  0
 72 73  1  0
 73 74  1  0
 74 75  2  0
 76 75  1  0
 76 80  1  0
 77 76  2  0
 78 73  2  0
 78 77  1  0
 79 78  1  0
 81 82  1  0
 82 85  1  0
 82 84  1  0
 83 81  2  0
 86 87  1  0
 86 61  1  0
 88 86  1  0
 89 90  1  0
M  ISO  4  10 101  11 101  52 100  53 100
M  END
>  <TORSDO>  (21) 
F 20

>  <SCORE>  (21) 
-14.646

>  <name>  (21) 
20

>  <ligand_id>  (21) 
20

>  <original_smiles>  (21) 
[H]N=C(C([H])([H])[H])C1([H])C([H])([H])C([H])(C([H])(C(=O)N2C([H])([H])C([H])([H])C([H])([H])C([H])(n3nc(-c4c([H])c([H])c(Oc5c([H])c([H])c(F)c([H])c5F)c([H])c4[H])c(C(=O)N([H])[H])c3N([H])[H])C2([H])[H])C([H])([H])C([H])([H])[H])C([H])([H])C1([H])C([H])([H])Oc1c([H])c([H])c2c(c1[H])C([H])([H])N(C(=O)C([H])(N([H])C(=O)C([H])(N([H])C([H])([H])[H])C([H])([H])[H])C(C([H])([H])[H])(C([H])([H])[H])C([H])([H])[H])C([H])(C(=O)N([H])C1([H])c3c([H])c([H])c([H])c([H])c3C([H])([H])C([H])([H])C1([H])[H])C2([H])[H]

>  <smiles>  (21) 
[H]N=C(C([H])([H])[H])C1([H])C([H])([H])C([H])(C([H])(C(=O)N2C([H])([H])C([H])([H])C([H])([H])C([H])(n3nc(-c4c([H])c([H])c(Oc5c([H])c([H])c(F)c([H])c5F)c([H])c4[H])c(C(=O)N([H])[H])c3N([H])[H])C2([H])[H])C([H])([H])C([H])([H])[H])C([H])([H])C1([H])C([H])([H])Oc1c([H])c([H])c2c(c1[H])C([H])([H])N(C(=O)C([H])(N([H])C(=O)C([H])(N([H])C([H])([H])[H])C([H])([H])[H])C(C([H])([H])[H])(C([H])([H])[H])C([H])([H])[H])C([H])(C(=O)N([H])C1([H])c3c([H])c([H])c([H])c([H])c3C([H])([H])C([H])([H])C1([H])[H])C2([H])[H]

$$$$
21:0:0
     RDKit          3D

 89 97  0  0  1  0  0  0  0  0999 V2000
  -28.0680  -22.1140   21.5230 C   0  0  0  0  0  2  0  0  0  0  0  0
  -28.0560  -23.7060   21.6780 C   0  0  0  0  0  2  0  0  0  0  0  0
  -28.9090  -23.1210   19.5810 C   0  0  0  0  0  2  0  0  0  0  0  0
  -29.0830  -21.6480   20.4280 C   0  0  0  0  0  3  0  0  0  0  0  0
  -28.0390  -24.4040   20.2870 C   0  0  0  0  0  3  0  0  0  0  0  0
  -28.2330  -26.0220   20.2640 O   0  0  0  0  0  0  0  0  0  0  0  0
  -24.6290  -31.9120   23.2340 C   0  0  0  0  0  0  0  0  0  0  0  0
  -27.1860  -27.0670   20.2350 C   0  0  0  0  0  0  0  0  0  0  0  0
  -23.4280  -30.5070   21.6060 C   0  0  0  0  0  3  0  0  0  0  0  0
  -24.8740  -28.9030   20.1910 C   0  0  0  0  0  0  0  0  0  0  0  0
  -25.9910  -30.7350   21.4460 C   0  0  0  0  0  2  0  0  0  0  0  0
  -26.0610  -29.3250   20.8020 C   0  0  0  0  0  0  0  0  0  0  0  0
  -27.2150  -28.4290   20.7970 C   0  0  0  0  0  3  0  0  0  0  0  0
  -25.9680  -26.7830   19.5780 C   0  0  0  0  0  3  0  0  0  0  0  0
  -24.8490  -27.6510   19.5580 C   0  0  0  0  0  3  0  0  0  0  0  0
  -23.6540  -29.8180   20.2330 C   0  0  0  0  0  2  0  0  0  0  0  0
  -24.7050  -31.0770   22.1480 N   0  0  0  0  0  0  0  0  0  0  0  0
  -23.5410  -32.2030   23.7590 O   0  0  0  0  0  0  0  0  0  0  0  0
  -22.7430  -29.5130   22.5790 C   0  0  0  0  0  0  0  0  0  0  0  0
  -21.4120  -29.3440   22.4560 N   0  0  0  0  0  0  0  0  0  0  0  0
  -23.4130  -28.8940   23.4090 O   0  0  0  0  0  0  0  0  0  0  0  0
  -20.9250  -29.8960   21.7650 H   0  0  0  0  0  0  0  0  0  0  0  0
  -18.0350  -28.1240   22.9700 C   0  0  0  0  0  0  0  0  0  0  0  0
  -20.5930  -28.4100   23.2370 C   0  0  0  0  0  3  0  0  0  0  0  0
  -20.7050  -26.9710   22.6800 C   0  0  0  0  0  2  0  0  0  0  0  0
  -19.6090  -26.6290   21.6660 C   0  0  0  0  0  2  0  0  0  0  0  0
  -18.2240  -26.7700   22.3050 C   0  0  0  0  0  2  0  0  0  0  0  0
  -19.1470  -28.9000   23.3930 C   0  0  0  0  0  0  0  0  0  0  0  0
  -18.9160  -30.1640   23.9770 C   0  0  0  0  0  3  0  0  0  0  0  0
  -17.6060  -30.6530   24.1410 C   0  0  0  0  0  3  0  0  0  0  0  0
  -16.5080  -29.8750   23.7310 C   0  0  0  0  0  3  0  0  0  0  0  0
  -16.7240  -28.6120   23.1510 C   0  0  0  0  0  3  0  0  0  0  0  0
  -25.9030  -32.5580   23.8600 C   0  0  0  0  0  3  0  0  0  0  0  0
  -26.4120  -31.8040   25.1510 C   0  0  1  0  0  0  0  0  0  0  0  0
  -25.3130  -31.5850   26.2190 C   0  0  0  0  0  1  0  0  0  0  0  0
  -26.9920  -30.4170   24.7880 C   0  0  0  0  0  1  0  0  0  0  0  0
  -27.5590  -32.6050   25.8090 C   0  0  0  0  0  1  0  0  0  0  0  0
  -25.5890  -33.9600   24.1830 N   0  0  0  0  0  0  0  0  0  0  0  0
  -25.9140  -35.0150   23.4240 C   0  0  0  0  0  0  0  0  0  0  0  0
  -26.5740  -34.9100   22.3880 O   0  0  0  0  0  0  0  0  0  0  0  0
  -25.0050  -34.1150   24.9920 H   0  0  0  0  0  0  0  0  0  0  0  0
  -24.1810  -36.8130   23.0880 C   0  0  0  0  0  1  0  0  0  0  0  0
  -25.4320  -36.4060   23.8850 C   0  0  0  0  0  3  0  0  0  0  0  0
  -27.5740  -37.2960   24.6910 C   0  0  0  0  0  1  0  0  0  0  0  0
  -26.4620  -37.4610   23.7590 N   0  0  0  0  0  0  0  0  0  0  0  0
  -26.0560  -38.3800   23.9110 H   0  0  0  0  0  0  0  0  0  0  0  0
  -29.0330  -19.9510   19.8760 C   0  0  0  0  0  3  0  0  0  0  0  0
  -29.2240  -20.0200   18.4190 N   0  0  0  0  0  4  0  0  0  0  0  0
  -28.6020  -20.6950   18.0130 H   0  0  0  0  0  0  0  0  0  0  0  0
  -29.0350  -19.1310   17.9910 H   0  0  0  0  0  0  0  0  0  0  0  0
  -30.1660  -20.2890   18.1980 H   0  0  0  0  0  0  0  0  0  0  0  0
  -29.8730  -18.4690   20.4020 C   0  0  0  0  0  2  0  0  0  0  0  0
  -29.5060  -16.7450   20.1700 C   0  0  0  0  0  2  0  0  0  0  0  0
  -30.4230  -15.2680   20.1680 C   0  0  0  0  0  0  0  0  0  0  0  0
  -30.4240  -12.8310   19.3180 C   0  0  0  0  0  2  0  0  0  0  0  0
  -29.4890  -12.6990   18.0870 C   0  0  0  0  0  2  0  0  0  0  0  0
  -28.0350  -12.4370   18.5310 C   0  0  0  0  0  2  0  0  0  0  0  0
  -27.6050  -13.3750   19.6860 C   0  0  0  0  0  3  0  0  0  0  0  0
  -28.6640  -13.4700   20.8030 C   0  0  0  0  0  2  0  0  0  0  0  0
  -29.9110  -13.9470   20.1830 N   0  0  0  0  0  0  0  0  0  0  0  0
  -31.6400  -15.3130   19.9360 O   0  0  0  0  0  0  0  0  0  0  0  0
  -25.2390  -13.9260   20.4690 C   0  0  0  0  0  0  0  0  0  0  0  0
  -24.1830  -13.1450   20.8490 C   0  0  0  0  0  0  0  0  0  0  0  0
  -24.6550  -11.7960   20.8080 C   0  0  0  0  0  0  0  0  0  0  0  0
  -26.2810  -13.0550   20.2080 N   0  0  0  0  0  0  0  0  0  0  0  0
  -25.9430  -11.7670   20.4800 N   0  0  0  0  0  0  0  0  0  0  0  0
  -23.9340  -10.5310   21.0050 C   0  0  0  0  0  0  0  0  0  0  0  0
  -24.3800   -9.5650   21.9350 C   0  0  0  0  0  3  0  0  0  0  0  0
  -23.6630   -8.3640   22.1230 C   0  0  0  0  0  3  0  0  0  0  0  0
  -22.4810   -8.1220   21.3830 C   0  0  0  0  0  0  0  0  0  0  0  0
  -22.0500   -9.0750   20.4450 C   0  0  0  0  0  3  0  0  0  0  0  0
  -22.7700  -10.2680   20.2550 C   0  0  0  0  0  3  0  0  0  0  0  0
  -21.7300   -6.9740   21.4810 O   0  0  0  0  0  0  0  0  0  0  0  0
  -21.6990   -6.2300   22.6320 C   0  0  0  0  0  0  0  0  0  0  0  0
  -21.2850   -6.7820   23.8650 C   0  0  0  0  0  3  0  0  0  0  0  0
  -21.2010   -5.9640   25.0080 C   0  0  0  0  0  3  0  0  0  0  0  0
  -21.5180   -4.5950   24.9230 C   0  0  0  0  0  0  0  0  0  0  0  0
  -21.9240   -4.0420   23.6950 C   0  0  0  0  0  3  0  0  0  0  0  0
  -22.0110   -4.8580   22.5530 C   0  0  0  0  0  0  0  0  0  0  0  0
  -22.3820   -4.3160   21.3670 F   0  0  0  0  0  0  0  0  0  0  0  0
  -21.4300   -3.8080   26.0200 F   0  0  0  0  0  0  0  0  0  0  0  0
  -22.7870  -13.6140   21.1330 C   0  0  0  0  0  0  0  0  0  0  0  0
  -22.0710  -12.9140   22.0060 N   0  0  0  0  0  0  0  0  0  0  0  0
  -22.3410  -14.6390   20.6180 O   0  0  0  0  0  0  0  0  0  0  0  0
  -22.4450  -12.0870   22.4470 H   0  0  0  0  0  0  0  0  0  0  0  0
  -21.1340  -13.2110   22.2390 H   0  0  0  0  0  0  0  0  0  0  0  0
  -25.3950  -15.2980   20.2940 N   0  0  0  0  0  0  0  0  0  0  0  0
  -24.6340  -15.9520   20.4440 H   0  0  0  0  0  0  0  0  0  0  0  0
  -26.2430  -15.7430   19.9670 H   0  0  0  0  0  0  0  0  0  0  0  0
  1  2  1  0
  3  5  1  0
  3  4  1  0
  4 47  1  0
  4  1  1  0
  5  6  1  0
  5  2  1  0
  7 18  2  0
  8  6  1  0
  8 13  1  0
  9 17  1  0
  9 19  1  0
 10 16  1  0
 10 12  1  0
 11 17  1  0
 12 11  1  0
 13 12  2  0
 14  8  2  0
 15 14  1  0
 15 10  2  0
 16  9  1  0
 17  7  1  0
 19 21  2  0
 20 19  1  0
 22 20  1  0
 23 32  2  0
 23 28  1  0
 24 20  1  0
 24 28  1  0
 25 24  1  0
 26 27  1  0
 26 25  1  0
 27 23  1  0
 28 29  2  0
 29 30  1  0
 31 30  2  0
 32 31  1  0
 33  7  1  0
 33 38  1  0
 33 34  1  0
 34 37  1  1
 34 35  1  0
 36 34  1  0
 38 41  1  0
 39 43  1  0
 39 38  1  0
 40 39  2  0
 43 42  1  0
 45 43  1  0
 45 46  1  0
 45 44  1  0
 47 52  1  0
 48 47  1  0
 49 48  1  0
 50 48  1  0
 51 48  1  0
 53 52  1  0
 54 53  1  0
 54 60  1  0
 55 60  1  0
 56 57  1  0
 56 55  1  0
 58 57  1  0
 58 65  1  0
 58 59  1  0
 60 59  1  0
 61 54  2  0
 62 63  2  0
 63 82  1  0
 64 63  1  0
 64 67  1  0
 65 62  1  0
 65 66  1  0
 66 64  2  0
 67 68  1  0
 68 69  2  0
 70 73  1  0
 70 69  1  0
 71 70  2  0
 72 71  1  0
 72 67  2  0
 73 74  1  0
 74 75  1  0
 75 76  2  0
 77 76  1  0
 77 81  1  0
 78 77  2  0
 79 74  2  0
 79 78  1  0
 80 79  1  0
 82 83  1  0
 83 86  1  0
 83 85  1  0
 84 82  2  0
 87 88  1  0
 87 62  1  0
 89 87  1  0
M  ISO  4   5 101   6 101  53 100  54 100
M  END
>  <TORSDO>  (22) 
F 20

>  <SCORE>  (22) 
-15.889

>  <name>  (22) 
21

>  <ligand_id>  (22) 
21

>  <original_smiles>  (22) 
[H]c1c([H])c([H])c2c(c1[H])C([H])([H])C([H])([H])C([H])([H])C2([H])N([H])C(=O)C1([H])N(C(=O)C([H])(N([H])C(=O)C([H])(N([H])C([H])([H])[H])C([H])([H])[H])C(C([H])([H])[H])(C([H])([H])[H])C([H])([H])[H])C([H])([H])c2c([H])c(OC3([H])C([H])([H])C([H])([H])C([H])(C([H])(C([H])([H])C([H])([H])C(=O)N4C([H])([H])C([H])([H])C([H])([H])C([H])(n5nc(-c6c([H])c([H])c(Oc7c([H])c([H])c(F)c([H])c7F)c([H])c6[H])c(C(=O)N([H])[H])c5N([H])[H])C4([H])[H])[N+]([H])([H])[H])C3([H])[H])c([H])c([H])c2C1([H])[H]

>  <smiles>  (22) 
[H]c1c([H])c([H])c2c(c1[H])C([H])([H])C([H])([H])C([H])([H])C2([H])N([H])C(=O)C1([H])N(C(=O)C([H])(N([H])C(=O)C([H])(N([H])C([H])([H])[H])C([H])([H])[H])C(C([H])([H])[H])(C([H])([H])[H])C([H])([H])[H])C([H])([H])c2c([H])c(OC3([H])C([H])([H])C([H])([H])C([H])(C([H])(C([H])([H])C([H])([H])C(=O)N4C([H])([H])C([H])([H])C([H])([H])C([H])(n5nc(-c6c([H])c([H])c(Oc7c([H])c([H])c(F)c([H])c7F)c([H])c6[H])c(C(=O)N([H])[H])c5N([H])[H])C4([H])[H])[N+]([H])([H])[H])C3([H])[H])c([H])c([H])c2C1([H])[H]

$$$$
22:0:0
     RDKit          3D

 87 95  0  0  1  0  0  0  0  0999 V2000
  -29.7510  -21.7540   20.9010 C   0  0  0  0  0  3  0  0  0  0  0  0
  -28.1430  -21.4780   19.3760 C   0  0  0  0  0  3  0  0  0  0  0  0
  -29.4170  -23.2340   20.9690 C   0  0  0  0  0  3  0  0  0  0  0  0
  -27.8070  -22.9670   19.4460 C   0  0  0  0  0  3  0  0  0  0  0  0
  -29.1670  -20.6620   20.0910 C   0  0  0  0  0  0  0  0  0  0  0  0
  -28.4080  -24.0570   20.2560 C   0  0  0  0  0  0  0  0  0  0  0  0
  -29.7590  -18.8470   18.2280 C   0  0  0  0  0  1  0  0  0  0  0  0
  -29.8180  -18.9700   19.7560 C   0  0  0  0  0  3  0  0  0  0  0  0
  -29.8070  -17.2710   21.8710 C   0  0  0  0  0  1  0  0  0  0  0  0
  -29.7130  -17.1730   20.3420 C   0  0  0  0  0  3  0  0  0  0  0  0
  -30.4760  -15.5460   19.9130 C   0  0  0  0  0  0  0  0  0  0  0  0
  -30.4650  -13.0630   18.9640 C   0  0  0  0  0  2  0  0  0  0  0  0
  -29.4710  -12.8200   17.7930 C   0  0  0  0  0  2  0  0  0  0  0  0
  -28.0640  -12.4960   18.3210 C   0  0  0  0  0  2  0  0  0  0  0  0
  -27.6730  -13.4310   19.4890 C   0  0  0  0  0  3  0  0  0  0  0  0
  -28.7890  -13.6010   20.5420 C   0  0  0  0  0  2  0  0  0  0  0  0
  -29.9570  -14.1910   19.8570 N   0  0  0  0  0  0  0  0  0  0  0  0
  -31.6670  -15.5120   19.5500 O   0  0  0  0  0  0  0  0  0  0  0  0
  -25.3730  -13.9580   20.4370 C   0  0  0  0  0  0  0  0  0  0  0  0
  -24.3340  -13.1720   20.8500 C   0  0  0  0  0  0  0  0  0  0  0  0
  -24.7880  -11.8210   20.7360 C   0  0  0  0  0  0  0  0  0  0  0  0
  -26.3870  -13.0890   20.0840 N   0  0  0  0  0  0  0  0  0  0  0  0
  -26.0550  -11.7940   20.3310 N   0  0  0  0  0  0  0  0  0  0  0  0
  -24.0640  -10.5580   20.9300 C   0  0  0  0  0  0  0  0  0  0  0  0
  -24.4940   -9.5940   21.8700 C   0  0  0  0  0  3  0  0  0  0  0  0
  -23.7650   -8.3990   22.0530 C   0  0  0  0  0  3  0  0  0  0  0  0
  -22.5940   -8.1570   21.2970 C   0  0  0  0  0  0  0  0  0  0  0  0
  -22.1830   -9.1100   20.3470 C   0  0  0  0  0  3  0  0  0  0  0  0
  -22.9110  -10.2960   20.1620 C   0  0  0  0  0  3  0  0  0  0  0  0
  -21.8370   -7.0130   21.3900 O   0  0  0  0  0  0  0  0  0  0  0  0
  -21.7100   -6.3280   22.5720 C   0  0  0  0  0  0  0  0  0  0  0  0
  -21.1660   -6.9300   23.7280 C   0  0  0  0  0  3  0  0  0  0  0  0
  -20.9890   -6.1690   24.9010 C   0  0  0  0  0  3  0  0  0  0  0  0
  -21.3440   -4.8080   24.9180 C   0  0  0  0  0  0  0  0  0  0  0  0
  -21.8810   -4.2050   23.7660 C   0  0  0  0  0  3  0  0  0  0  0  0
  -22.0600   -4.9630   22.5950 C   0  0  0  0  0  0  0  0  0  0  0  0
  -22.5570   -4.3710   21.4830 F   0  0  0  0  0  0  0  0  0  0  0  0
  -21.1680   -4.0740   26.0420 F   0  0  0  0  0  0  0  0  0  0  0  0
  -22.9630  -13.6480   21.2290 C   0  0  0  0  0  0  0  0  0  0  0  0
  -22.2930  -12.9330   22.1260 N   0  0  0  0  0  0  0  0  0  0  0  0
  -22.4980  -14.6890   20.7680 O   0  0  0  0  0  0  0  0  0  0  0  0
  -22.6850  -12.0900   22.5190 H   0  0  0  0  0  0  0  0  0  0  0  0
  -21.3750  -13.2310   22.4230 H   0  0  0  0  0  0  0  0  0  0  0  0
  -25.5330  -15.3340   20.3020 N   0  0  0  0  0  0  0  0  0  0  0  0
  -24.7830  -15.9870   20.5010 H   0  0  0  0  0  0  0  0  0  0  0  0
  -26.3620  -15.7830   19.9380 H   0  0  0  0  0  0  0  0  0  0  0  0
  -28.2940  -25.6530   20.2850 O   0  0  0  0  0  0  0  0  0  0  0  0
  -24.6580  -31.8180   23.1320 C   0  0  0  0  0  0  0  0  0  0  0  0
  -27.2450  -26.7690   20.2440 C   0  0  0  0  0  0  0  0  0  0  0  0
  -23.4820  -30.3790   21.5190 C   0  0  0  0  0  3  0  0  0  0  0  0
  -24.9450  -28.7260   20.1410 C   0  0  0  0  0  0  0  0  0  0  0  0
  -26.0540  -30.5630   21.3910 C   0  0  0  0  0  2  0  0  0  0  0  0
  -26.1310  -29.1240   20.7690 C   0  0  0  0  0  0  0  0  0  0  0  0
  -27.2640  -28.1690   20.7910 C   0  0  0  0  0  3  0  0  0  0  0  0
  -26.0250  -26.5590   19.5550 C   0  0  0  0  0  3  0  0  0  0  0  0
  -24.9260  -27.4670   19.5130 C   0  0  0  0  0  3  0  0  0  0  0  0
  -23.7270  -29.6580   20.1620 C   0  0  0  0  0  2  0  0  0  0  0  0
  -24.7540  -30.9530   22.0660 N   0  0  0  0  0  0  0  0  0  0  0  0
  -23.5620  -32.1160   23.6380 O   0  0  0  0  0  0  0  0  0  0  0  0
  -22.7800  -29.4100   22.5070 C   0  0  0  0  0  0  0  0  0  0  0  0
  -21.4480  -29.2540   22.3970 N   0  0  0  0  0  0  0  0  0  0  0  0
  -23.4470  -28.7960   23.3440 O   0  0  0  0  0  0  0  0  0  0  0  0
  -20.9610  -29.8010   21.7000 H   0  0  0  0  0  0  0  0  0  0  0  0
  -18.0640  -28.0610   22.9590 C   0  0  0  0  0  0  0  0  0  0  0  0
  -20.6280  -28.3270   23.1880 C   0  0  0  0  0  3  0  0  0  0  0  0
  -20.7190  -26.8880   22.6290 C   0  0  0  0  0  2  0  0  0  0  0  0
  -19.6050  -26.5560   21.6300 C   0  0  0  0  0  2  0  0  0  0  0  0
  -18.2320  -26.7070   22.2890 C   0  0  0  0  0  2  0  0  0  0  0  0
  -19.1880  -28.8290   23.3660 C   0  0  0  0  0  0  0  0  0  0  0  0
  -18.9730  -30.0920   23.9580 C   0  0  0  0  0  3  0  0  0  0  0  0
  -17.6690  -30.5900   24.1410 C   0  0  0  0  0  3  0  0  0  0  0  0
  -16.5610  -29.8210   23.7470 C   0  0  0  0  0  3  0  0  0  0  0  0
  -16.7590  -28.5580   23.1620 C   0  0  0  0  0  3  0  0  0  0  0  0
  -25.9170  -32.4890   23.7590 C   0  0  0  0  0  3  0  0  0  0  0  0
  -25.5720  -33.8840   24.1000 N   0  0  0  0  0  0  0  0  0  0  0  0
  -25.9000  -34.9600   23.3720 C   0  0  0  0  0  0  0  0  0  0  0  0
  -26.5820  -34.8850   22.3480 O   0  0  0  0  0  0  0  0  0  0  0  0
  -24.9650  -34.0130   24.8960 H   0  0  0  0  0  0  0  0  0  0  0  0
  -24.1690  -36.7590   23.0230 C   0  0  0  0  0  1  0  0  0  0  0  0
  -25.3930  -36.3370   23.8530 C   0  0  0  0  0  3  0  0  0  0  0  0
  -27.4940  -37.2230   24.7660 C   0  0  0  0  0  1  0  0  0  0  0  0
  -26.4210  -37.3990   23.7910 N   0  0  0  0  0  0  0  0  0  0  0  0
  -26.0040  -38.3130   23.9410 H   0  0  0  0  0  0  0  0  0  0  0  0
  -26.4420  -31.7380   25.0460 C   0  0  1  0  0  0  0  0  0  0  0  0
  -25.3500  -31.4860   26.1110 C   0  0  0  0  0  1  0  0  0  0  0  0
  -27.0560  -30.3690   24.6750 C   0  0  0  0  0  1  0  0  0  0  0  0
  -27.5730  -32.5600   25.7080 C   0  0  0  0  0  1  0  0  0  0  0  0
  1  3  1  0
  2  4  2  0
  2  5  1  0
  4  6  1  0
  5  1  2  0
  6 47  1  0
  6  3  2  0
  8  7  1  0
  8  5  1  0
  8 10  1  0
 10  9  1  0
 11 10  1  0
 12 17  1  0
 13 14  1  0
 13 12  1  0
 15 14  1  0
 15 22  1  0
 15 16  1  0
 17 11  1  0
 17 16  1  0
 18 11  2  0
 19 20  2  0
 20 39  1  0
 21 20  1  0
 21 24  1  0
 22 23  1  0
 22 19  1  0
 23 21  2  0
 24 25  1  0
 25 26  2  0
 27 30  1  0
 27 26  1  0
 28 27  2  0
 29 28  1  0
 29 24  2  0
 30 31  1  0
 31 36  2  0
 31 32  1  0
 32 33  2  0
 33 34  1  0
 34 38  1  0
 35 34  2  0
 36 35  1  0
 37 36  1  0
 39 40  1  0
 40 43  1  0
 40 42  1  0
 41 39  2  0
 44 19  1  0
 44 45  1  0
 46 44  1  0
 48 59  2  0
 49 47  1  0
 49 54  1  0
 50 58  1  0
 50 60  1  0
 51 57  1  0
 51 53  1  0
 52 58  1  0
 53 54  2  0
 53 52  1  0
 55 49  2  0
 56 55  1  0
 56 51  2  0
 57 50  1  0
 58 48  1  0
 60 62  2  0
 61 60  1  0
 63 61  1  0
 64 73  2  0
 64 69  1  0
 65 61  1  0
 65 69  1  0
 66 65  1  0
 67 68  1  0
 67 66  1  0
 68 64  1  0
 69 70  2  0
 70 71  1  0
 72 71  2  0
 73 72  1  0
 74 48  1  0
 74 75  1  0
 74 84  1  0
 75 78  1  0
 76 80  1  0
 76 75  1  0
 77 76  2  0
 80 79  1  0
 82 80  1  0
 82 83  1  0
 82 81  1  0
 84 87  1  1
 84 85  1  0
 86 84  1  0
M  ISO  4   6 101  10 100  11 100  47 101
M  END
>  <TORSDO>  (23) 
F 18

>  <SCORE>  (23) 
-15.447

>  <name>  (23) 
22

>  <ligand_id>  (23) 
22

>  <original_smiles>  (23) 
[H]c1c([H])c([H])c2c(c1[H])C([H])([H])C([H])([H])C([H])([H])C2([H])N([H])C(=O)C1([H])N(C(=O)C([H])(N([H])C(=O)C([H])(N([H])C([H])([H])[H])C([H])([H])[H])C(C([H])([H])[H])(C([H])([H])[H])C([H])([H])[H])C([H])([H])c2c([H])c(Oc3c([H])c([H])c(C([H])(C([H])([H])[H])C([H])(C(=O)N4C([H])([H])C([H])([H])C([H])([H])C([H])(n5nc(-c6c([H])c([H])c(Oc7c([H])c([H])c(F)c([H])c7F)c([H])c6[H])c(C(=O)N([H])[H])c5N([H])[H])C4([H])[H])C([H])([H])[H])c([H])c3[H])c([H])c([H])c2C1([H])[H]

>  <smiles>  (23) 
[H]c1c([H])c([H])c2c(c1[H])C([H])([H])C([H])([H])C([H])([H])C2([H])N([H])C(=O)C1([H])N(C(=O)C([H])(N([H])C(=O)C([H])(N([H])C([H])([H])[H])C([H])([H])[H])C(C([H])([H])[H])(C([H])([H])[H])C([H])([H])[H])C([H])([H])c2c([H])c(Oc3c([H])c([H])c(C([H])(C([H])([H])[H])C([H])(C(=O)N4C([H])([H])C([H])([H])C([H])([H])C([H])(n5nc(-c6c([H])c([H])c(Oc7c([H])c([H])c(F)c([H])c7F)c([H])c6[H])c(C(=O)N([H])[H])c5N([H])[H])C4([H])[H])C([H])([H])[H])c([H])c3[H])c([H])c([H])c2C1([H])[H]

$$$$
23:0:0
     RDKit          3D

 93101  0  0  1  0  0  0  0  0999 V2000
  -29.1770  -21.4930   21.0050 C   0  0  0  0  0  2  0  0  0  0  0  0
  -28.7450  -20.5910   18.8920 C   0  0  0  0  0  2  0  0  0  0  0  0
  -28.9740  -19.9530   20.2980 C   0  0  0  0  0  3  0  0  0  0  0  0
  -28.8020  -22.9060   20.1250 C   0  0  0  0  0  3  0  0  0  0  0  0
  -28.1190  -22.0660   18.9890 C   0  0  0  0  0  3  0  0  0  0  0  0
  -28.1640  -22.7550   17.6850 N   0  0  0  0  0  4  0  0  0  0  0  0
  -29.1100  -22.9040   17.3840 H   0  0  0  0  0  0  0  0  0  0  0  0
  -27.7050  -23.6470   17.7340 H   0  0  0  0  0  0  0  0  0  0  0  0
  -27.6930  -22.2110   16.9840 H   0  0  0  0  0  0  0  0  0  0  0  0
  -28.0300  -24.4310   20.6300 C   0  0  0  0  0  2  0  0  0  0  0  0
  -28.2460  -26.0150   20.3300 O   0  0  0  0  0  0  0  0  0  0  0  0
  -24.6120  -31.9150   23.2570 C   0  0  0  0  0  0  0  0  0  0  0  0
  -27.2050  -27.0630   20.3110 C   0  0  0  0  0  0  0  0  0  0  0  0
  -23.4320  -30.5030   21.6220 C   0  0  0  0  0  3  0  0  0  0  0  0
  -24.8930  -28.8960   20.2290 C   0  0  0  0  0  0  0  0  0  0  0  0
  -25.9950  -30.7370   21.4850 C   0  0  0  0  0  2  0  0  0  0  0  0
  -26.0750  -29.3250   20.8480 C   0  0  0  0  0  0  0  0  0  0  0  0
  -27.2300  -28.4310   20.8590 C   0  0  0  0  0  3  0  0  0  0  0  0
  -25.9920  -26.7670   19.6530 C   0  0  0  0  0  3  0  0  0  0  0  0
  -24.8740  -27.6350   19.6110 C   0  0  0  0  0  3  0  0  0  0  0  0
  -23.6710  -29.8080   20.2540 C   0  0  0  0  0  2  0  0  0  0  0  0
  -24.7010  -31.0790   22.1740 N   0  0  0  0  0  0  0  0  0  0  0  0
  -23.5200  -32.2040   23.7710 O   0  0  0  0  0  0  0  0  0  0  0  0
  -22.7380  -29.5100   22.5920 C   0  0  0  0  0  0  0  0  0  0  0  0
  -21.4100  -29.3410   22.4600 N   0  0  0  0  0  0  0  0  0  0  0  0
  -23.4010  -28.8920   23.4280 O   0  0  0  0  0  0  0  0  0  0  0  0
  -20.9280  -29.8920   21.7630 H   0  0  0  0  0  0  0  0  0  0  0  0
  -18.0230  -28.1460   22.9660 C   0  0  0  0  0  0  0  0  0  0  0  0
  -20.5830  -28.4100   23.2340 C   0  0  0  0  0  3  0  0  0  0  0  0
  -20.6840  -26.9740   22.6690 C   0  0  0  0  0  2  0  0  0  0  0  0
  -19.5840  -26.6460   21.6540 C   0  0  0  0  0  2  0  0  0  0  0  0
  -18.2010  -26.7940   22.2930 C   0  0  0  0  0  2  0  0  0  0  0  0
  -19.1410  -28.9100   23.3930 C   0  0  0  0  0  0  0  0  0  0  0  0
  -18.9190  -30.1720   23.9850 C   0  0  0  0  0  3  0  0  0  0  0  0
  -17.6130  -30.6720   24.1510 C   0  0  0  0  0  3  0  0  0  0  0  0
  -16.5100  -29.9040   23.7380 C   0  0  0  0  0  3  0  0  0  0  0  0
  -16.7160  -28.6430   23.1520 C   0  0  0  0  0  3  0  0  0  0  0  0
  -25.8790  -32.5650   23.8930 C   0  0  0  0  0  3  0  0  0  0  0  0
  -25.5600  -33.9710   24.2030 N   0  0  0  0  0  0  0  0  0  0  0  0
  -25.9000  -35.0200   23.4420 C   0  0  0  0  0  0  0  0  0  0  0  0
  -26.5790  -34.9070   22.4180 O   0  0  0  0  0  0  0  0  0  0  0  0
  -24.9610  -34.1320   24.9990 H   0  0  0  0  0  0  0  0  0  0  0  0
  -24.1800  -36.8180   23.0640 C   0  0  0  0  0  1  0  0  0  0  0  0
  -25.4140  -36.4140   23.8880 C   0  0  0  0  0  3  0  0  0  0  0  0
  -27.5410  -37.3050   24.7320 C   0  0  0  0  0  1  0  0  0  0  0  0
  -26.4490  -37.4640   23.7750 N   0  0  0  0  0  0  0  0  0  0  0  0
  -26.0430  -38.3860   23.9070 H   0  0  0  0  0  0  0  0  0  0  0  0
  -26.3710  -31.8190   25.1950 C   0  0  1  0  0  0  0  0  0  0  0  0
  -25.2580  -31.6060   26.2490 C   0  0  0  0  0  1  0  0  0  0  0  0
  -26.9590  -30.4320   24.8480 C   0  0  0  0  0  1  0  0  0  0  0  0
  -27.5110  -32.6260   25.8610 C   0  0  0  0  0  1  0  0  0  0  0  0
  -29.9430  -18.4540   20.4030 C   0  0  0  0  0  3  0  0  0  0  0  0
  -30.8770  -18.6430   21.5260 N   0  0  0  0  0  4  0  0  0  0  0  0
  -30.3970  -18.6220   22.4080 H   0  0  0  0  0  0  0  0  0  0  0  0
  -31.3490  -19.5260   21.4430 H   0  0  0  0  0  0  0  0  0  0  0  0
  -31.5790  -17.9250   21.5250 H   0  0  0  0  0  0  0  0  0  0  0  0
  -29.4850  -16.7370   20.3780 C   0  0  0  0  0  2  0  0  0  0  0  0
  -30.3720  -15.2530   20.2010 C   0  0  0  0  0  0  0  0  0  0  0  0
  -30.3470  -12.8390   19.2840 C   0  0  0  0  0  2  0  0  0  0  0  0
  -29.3830  -12.7100   18.0750 C   0  0  0  0  0  2  0  0  0  0  0  0
  -27.9400  -12.4440   18.5460 C   0  0  0  0  0  2  0  0  0  0  0  0
  -27.5330  -13.3720   19.7180 C   0  0  0  0  0  3  0  0  0  0  0  0
  -28.6150  -13.4490   20.8130 C   0  0  0  0  0  2  0  0  0  0  0  0
  -29.8490  -13.9370   20.1800 N   0  0  0  0  0  0  0  0  0  0  0  0
  -31.5770  -15.3000   19.9160 O   0  0  0  0  0  0  0  0  0  0  0  0
  -25.1830  -13.9120   20.5550 C   0  0  0  0  0  0  0  0  0  0  0  0
  -24.1340  -13.1250   20.9430 C   0  0  0  0  0  0  0  0  0  0  0  0
  -24.6040  -11.7780   20.8730 C   0  0  0  0  0  0  0  0  0  0  0  0
  -26.2190  -13.0460   20.2610 N   0  0  0  0  0  0  0  0  0  0  0  0
  -25.8860  -11.7550   20.5210 N   0  0  0  0  0  0  0  0  0  0  0  0
  -23.8880  -10.5090   21.0620 C   0  0  0  0  0  0  0  0  0  0  0  0
  -24.3430   -9.5320   21.9750 C   0  0  0  0  0  3  0  0  0  0  0  0
  -23.6240   -8.3300   22.1530 C   0  0  0  0  0  3  0  0  0  0  0  0
  -22.4360   -8.0970   21.4200 C   0  0  0  0  0  0  0  0  0  0  0  0
  -22.0010   -9.0630   20.4960 C   0  0  0  0  0  3  0  0  0  0  0  0
  -22.7210  -10.2570   20.3150 C   0  0  0  0  0  3  0  0  0  0  0  0
  -21.6870   -6.9490   21.5100 O   0  0  0  0  0  0  0  0  0  0  0  0
  -21.6570   -6.1970   22.6560 C   0  0  0  0  0  0  0  0  0  0  0  0
  -21.2270   -6.7350   23.8900 C   0  0  0  0  0  3  0  0  0  0  0  0
  -21.1460   -5.9080   25.0280 C   0  0  0  0  0  3  0  0  0  0  0  0
  -21.4810   -4.5440   24.9340 C   0  0  0  0  0  0  0  0  0  0  0  0
  -21.9030   -4.0050   23.7060 C   0  0  0  0  0  3  0  0  0  0  0  0
  -21.9870   -4.8290   22.5690 C   0  0  0  0  0  0  0  0  0  0  0  0
  -22.3730   -4.3000   21.3830 F   0  0  0  0  0  0  0  0  0  0  0  0
  -21.3960   -3.7480   26.0260 F   0  0  0  0  0  0  0  0  0  0  0  0
  -22.7440  -13.5920   21.2600 C   0  0  0  0  0  0  0  0  0  0  0  0
  -22.0420  -12.8760   22.1320 N   0  0  0  0  0  0  0  0  0  0  0  0
  -22.2900  -14.6250   20.7710 O   0  0  0  0  0  0  0  0  0  0  0  0
  -22.4230  -12.0400   22.5480 H   0  0  0  0  0  0  0  0  0  0  0  0
  -21.1090  -13.1690   22.3860 H   0  0  0  0  0  0  0  0  0  0  0  0
  -25.3360  -15.2880   20.3980 N   0  0  0  0  0  0  0  0  0  0  0  0
  -24.5700  -15.9360   20.5500 H   0  0  0  0  0  0  0  0  0  0  0  0
  -26.1730  -15.7360   20.0490 H   0  0  0  0  0  0  0  0  0  0  0  0
  2  5  1  0
  2  3  1  0
  3 52  1  0
  3  1  1  0
  4 10  1  0
  4  1  1  0
  5  6  1  0
  5  4  1  0
  6  8  1  0
  7  6  1  0
  9  6  1  0
 11 10  1  0
 12 23  2  0
 13 11  1  0
 13 18  1  0
 14 22  1  0
 14 24  1  0
 15 21  1  0
 15 17  1  0
 16 22  1  0
 17 18  2  0
 17 16  1  0
 19 13  2  0
 20 19  1  0
 20 15  2  0
 21 14  1  0
 22 12  1  0
 24 26  2  0
 25 24  1  0
 27 25  1  0
 28 37  2  0
 28 33  1  0
 29 25  1  0
 29 33  1  0
 30 29  1  0
 31 32  1  0
 31 30  1  0
 32 28  1  0
 33 34  2  0
 34 35  1  0
 36 35  2  0
 37 36  1  0
 38 12  1  0
 38 39  1  0
 38 48  1  0
 39 42  1  0
 40 44  1  0
 40 39  1  0
 41 40  2  0
 44 43  1  0
 46 44  1  0
 46 47  1  0
 46 45  1  0
 48 51  1  1
 48 49  1  0
 50 48  1  0
 52 57  1  0
 52 53  1  0
 53 54  1  0
 55 53  1  0
 56 53  1  0
 58 57  1  0
 59 64  1  0
 60 61  1  0
 60 59  1  0
 62 61  1  0
 62 69  1  0
 62 63  1  0
 64 58  1  0
 64 63  1  0
 65 58  2  0
 66 67  2  0
 67 86  1  0
 68 67  1  0
 68 71  1  0
 69 70  1  0
 69 66  1  0
 70 68  2  0
 71 72  1  0
 72 73  2  0
 74 77  1  0
 74 73  1  0
 75 74  2  0
 76 75  1  0
 76 71  2  0
 77 78  1  0
 78 79  1  0
 79 80  2  0
 81 80  1  0
 81 85  1  0
 82 81  2  0
 83 78  2  0
 83 82  1  0
 84 83  1  0
 86 87  1  0
 87 90  1  0
 87 89  1  0
 88 86  2  0
 91 92  1  0
 91 66  1  0
 93 91  1  0
M  ISO  4  10 101  11 101  57 100  58 100
M  END
>  <TORSDO>  (24) 
F 21

>  <SCORE>  (24) 
-16.035

>  <name>  (24) 
23

>  <ligand_id>  (24) 
23

>  <original_smiles>  (24) 
[H]c1c([H])c([H])c2c(c1[H])C([H])([H])C([H])([H])C([H])([H])C2([H])N([H])C(=O)C1([H])N(C(=O)C([H])(N([H])C(=O)C([H])(N([H])C([H])([H])[H])C([H])([H])[H])C(C([H])([H])[H])(C([H])([H])[H])C([H])([H])[H])C([H])([H])c2c([H])c(OC([H])([H])C3([H])C([H])([H])C([H])(C([H])(C([H])([H])C(=O)N4C([H])([H])C([H])([H])C([H])([H])C([H])(n5nc(-c6c([H])c([H])c(Oc7c([H])c([H])c(F)c([H])c7F)c([H])c6[H])c(C(=O)N([H])[H])c5N([H])[H])C4([H])[H])[N+]([H])([H])[H])C([H])([H])C3([H])[N+]([H])([H])[H])c([H])c([H])c2C1([H])[H]

>  <smiles>  (24) 
[H]c1c([H])c([H])c2c(c1[H])C([H])([H])C([H])([H])C([H])([H])C2([H])N([H])C(=O)C1([H])N(C(=O)C([H])(N([H])C(=O)C([H])(N([H])C([H])([H])[H])C([H])([H])[H])C(C([H])([H])[H])(C([H])([H])[H])C([H])([H])[H])C([H])([H])c2c([H])c(OC([H])([H])C3([H])C([H])([H])C([H])(C([H])(C([H])([H])C(=O)N4C([H])([H])C([H])([H])C([H])([H])C([H])(n5nc(-c6c([H])c([H])c(Oc7c([H])c([H])c(F)c([H])c7F)c([H])c6[H])c(C(=O)N([H])[H])c5N([H])[H])C4([H])[H])[N+]([H])([H])[H])C([H])([H])C3([H])[N+]([H])([H])[H])c([H])c([H])c2C1([H])[H]

$$$$
24:0:0
     RDKit          3D

 89 97  0  0  1  0  0  0  0  0999 V2000
  -27.4010  -21.7260   19.8730 C   0  0  0  0  0  1  0  0  0  0  0  0
  -28.8840  -22.1320   19.8510 C   0  0  0  0  0  3  0  0  0  0  0  0
  -29.0400  -23.6990   20.2960 C   0  0  0  0  0  0  0  0  0  0  0  0
  -30.0010  -24.0080   21.0050 O   0  0  0  0  0  0  0  0  0  0  0  0
  -28.0110  -24.8690   19.8520 C   0  0  0  0  0  2  0  0  0  0  0  0
  -28.2810  -26.3330   20.1870 O   0  0  0  0  0  0  0  0  0  0  0  0
  -24.6310  -31.8770   23.2400 C   0  0  0  0  0  0  0  0  0  0  0  0
  -27.2040  -27.2660   20.1290 C   0  0  0  0  0  0  0  0  0  0  0  0
  -23.4140  -30.4950   21.5970 C   0  0  0  0  0  3  0  0  0  0  0  0
  -24.8530  -28.9470   20.1440 C   0  0  0  0  0  0  0  0  0  0  0  0
  -25.9600  -30.7860   21.4040 C   0  0  0  0  0  2  0  0  0  0  0  0
  -26.0330  -29.4080   20.7420 C   0  0  0  0  0  0  0  0  0  0  0  0
  -27.2090  -28.5800   20.7230 C   0  0  0  0  0  3  0  0  0  0  0  0
  -25.9960  -26.8900   19.4950 C   0  0  0  0  0  3  0  0  0  0  0  0
  -24.8400  -27.6970   19.5110 C   0  0  0  0  0  3  0  0  0  0  0  0
  -23.6220  -29.8320   20.2090 C   0  0  0  0  0  2  0  0  0  0  0  0
  -24.6890  -31.0710   22.1360 N   0  0  0  0  0  0  0  0  0  0  0  0
  -23.5500  -32.1560   23.7820 O   0  0  0  0  0  0  0  0  0  0  0  0
  -22.7510  -29.4750   22.5530 C   0  0  0  0  0  0  0  0  0  0  0  0
  -21.4230  -29.3010   22.4290 N   0  0  0  0  0  0  0  0  0  0  0  0
  -23.4290  -28.8440   23.3690 O   0  0  0  0  0  0  0  0  0  0  0  0
  -20.9320  -29.8600   21.7450 H   0  0  0  0  0  0  0  0  0  0  0  0
  -18.0480  -28.0850   22.9310 C   0  0  0  0  0  0  0  0  0  0  0  0
  -20.6070  -28.3560   23.1960 C   0  0  0  0  0  3  0  0  0  0  0  0
  -20.7130  -26.9270   22.6150 C   0  0  0  0  0  2  0  0  0  0  0  0
  -19.6110  -26.6040   21.6000 C   0  0  0  0  0  2  0  0  0  0  0  0
  -18.2290  -26.7370   22.2470 C   0  0  0  0  0  2  0  0  0  0  0  0
  -19.1670  -28.8500   23.3610 C   0  0  0  0  0  0  0  0  0  0  0  0
  -18.9480  -30.1070   23.9660 C   0  0  0  0  0  3  0  0  0  0  0  0
  -17.6430  -30.6070   24.1370 C   0  0  0  0  0  3  0  0  0  0  0  0
  -16.5380  -29.8420   23.7220 C   0  0  0  0  0  3  0  0  0  0  0  0
  -16.7420  -28.5800   23.1320 C   0  0  0  0  0  3  0  0  0  0  0  0
  -25.9180  -32.5070   23.8550 C   0  0  0  0  0  3  0  0  0  0  0  0
  -26.4360  -31.7300   25.1270 C   0  0  1  0  0  0  0  0  0  0  0  0
  -25.3460  -31.4930   26.1990 C   0  0  0  0  0  1  0  0  0  0  0  0
  -27.0150  -30.3510   24.7330 C   0  0  0  0  0  1  0  0  0  0  0  0
  -27.5870  -32.5220   25.7900 C   0  0  0  0  0  1  0  0  0  0  0  0
  -25.6090  -33.9040   24.1970 N   0  0  0  0  0  0  0  0  0  0  0  0
  -25.9140  -34.9610   23.4320 C   0  0  0  0  0  0  0  0  0  0  0  0
  -26.5550  -34.8650   22.3830 O   0  0  0  0  0  0  0  0  0  0  0  0
  -25.0310  -34.0490   25.0110 H   0  0  0  0  0  0  0  0  0  0  0  0
  -24.1630  -36.7460   23.1430 C   0  0  0  0  0  1  0  0  0  0  0  0
  -25.4350  -36.3460   23.9080 C   0  0  0  0  0  3  0  0  0  0  0  0
  -27.5930  -37.2460   24.6610 C   0  0  0  0  0  1  0  0  0  0  0  0
  -26.4560  -37.4080   23.7580 N   0  0  0  0  0  0  0  0  0  0  0  0
  -26.0470  -38.3230   23.9280 H   0  0  0  0  0  0  0  0  0  0  0  0
  -29.7540  -20.9850   20.6410 C   0  0  0  0  0  2  0  0  0  0  0  0
  -30.6990  -14.8620   19.9470 C   0  0  0  0  0  0  0  0  0  0  0  0
  -30.3660  -12.5750   18.9680 C   0  0  0  0  0  2  0  0  0  0  0  0
  -29.3620  -12.6170   17.7970 C   0  0  0  0  0  2  0  0  0  0  0  0
  -27.9280  -12.4380   18.3240 C   0  0  0  0  0  2  0  0  0  0  0  0
  -27.6230  -13.3510   19.5400 C   0  0  0  0  0  3  0  0  0  0  0  0
  -28.7480  -13.3290   20.5970 C   0  0  0  0  0  2  0  0  0  0  0  0
  -29.9990  -13.6680   19.9050 N   0  0  0  0  0  0  0  0  0  0  0  0
  -31.8750  -14.8570   19.5720 O   0  0  0  0  0  0  0  0  0  0  0  0
  -29.4580  -18.5550   19.1130 C   0  0  0  0  0  2  0  0  0  0  0  0
  -29.7830  -18.3710   21.5060 C   0  0  0  0  0  2  0  0  0  0  0  0
  -30.0830  -17.0820   18.9610 C   0  0  0  0  0  2  0  0  0  0  0  0
  -30.3870  -16.9050   21.3520 C   0  0  0  0  0  2  0  0  0  0  0  0
  -30.0300  -19.3750   20.3190 C   0  0  0  0  0  3  0  0  0  0  0  0
  -30.0540  -16.1060   20.1230 N   0  0  0  0  0  0  0  0  0  0  0  0
  -25.3020  -13.9370   20.4460 C   0  0  0  0  0  0  0  0  0  0  0  0
  -24.2520  -13.1630   20.8600 C   0  0  0  0  0  0  0  0  0  0  0  0
  -24.6970  -11.8100   20.7640 C   0  0  0  0  0  0  0  0  0  0  0  0
  -26.3160  -13.0550   20.1200 N   0  0  0  0  0  0  0  0  0  0  0  0
  -25.9670  -11.7680   20.3770 N   0  0  0  0  0  0  0  0  0  0  0  0
  -23.9680  -10.5500   20.9660 C   0  0  0  0  0  0  0  0  0  0  0  0
  -24.4280   -9.5670   21.8710 C   0  0  0  0  0  3  0  0  0  0  0  0
  -23.6980   -8.3730   22.0630 C   0  0  0  0  0  3  0  0  0  0  0  0
  -22.4960   -8.1540   21.3480 C   0  0  0  0  0  0  0  0  0  0  0  0
  -22.0550   -9.1250   20.4330 C   0  0  0  0  0  3  0  0  0  0  0  0
  -22.7850  -10.3100   20.2400 C   0  0  0  0  0  3  0  0  0  0  0  0
  -21.7340   -7.0150   21.4520 O   0  0  0  0  0  0  0  0  0  0  0  0
  -21.6940   -6.2760   22.6080 C   0  0  0  0  0  0  0  0  0  0  0  0
  -21.2750   -6.8370   23.8350 C   0  0  0  0  0  3  0  0  0  0  0  0
  -21.1830   -6.0250   24.9830 C   0  0  0  0  0  3  0  0  0  0  0  0
  -21.5000   -4.6560   24.9060 C   0  0  0  0  0  0  0  0  0  0  0  0
  -21.9140   -4.0960   23.6850 C   0  0  0  0  0  3  0  0  0  0  0  0
  -22.0070   -4.9040   22.5380 C   0  0  0  0  0  0  0  0  0  0  0  0
  -22.3850   -4.3560   21.3570 F   0  0  0  0  0  0  0  0  0  0  0  0
  -21.4050   -3.8730   26.0060 F   0  0  0  0  0  0  0  0  0  0  0  0
  -22.8810  -13.6470   21.2310 C   0  0  0  0  0  0  0  0  0  0  0  0
  -22.2040  -12.9370   22.1250 N   0  0  0  0  0  0  0  0  0  0  0  0
  -22.4230  -14.6880   20.7640 O   0  0  0  0  0  0  0  0  0  0  0  0
  -22.5890  -12.0920   22.5190 H   0  0  0  0  0  0  0  0  0  0  0  0
  -21.2870  -13.2410   22.4210 H   0  0  0  0  0  0  0  0  0  0  0  0
  -25.4750  -15.3110   20.2950 N   0  0  0  0  0  0  0  0  0  0  0  0
  -24.7350  -15.9800   20.4760 H   0  0  0  0  0  0  0  0  0  0  0  0
  -26.3280  -15.7420   19.9590 H   0  0  0  0  0  0  0  0  0  0  0  0
  2  1  1  0
  2  3  1  0
  2 47  1  0
  3  4  2  0
  5  6  1  0
  5  3  1  0
  7 18  2  0
  8  6  1  0
  8 13  1  0
  9 17  1  0
  9 19  1  0
 10 16  1  0
 10 12  1  0
 11 17  1  0
 12 11  1  0
 13 12  2  0
 14 15  1  0
 14  8  2  0
 15 10  2  0
 16  9  1  0
 17  7  1  0
 19 21  2  0
 20 19  1  0
 22 20  1  0
 23 32  2  0
 23 28  1  0
 24 20  1  0
 24 28  1  0
 25 24  1  0
 26 27  1  0
 26 25  1  0
 27 23  1  0
 28 29  2  0
 29 30  1  0
 31 30  2  0
 32 31  1  0
 33  7  1  0
 33 38  1  0
 33 34  1  0
 34 37  1  1
 34 35  1  0
 36 34  1  0
 38 41  1  0
 39 43  1  0
 39 38  1  0
 40 39  2  0
 43 42  1  0
 45 43  1  0
 45 46  1  0
 45 44  1  0
 48 61  1  0
 49 54  1  0
 50 51  1  0
 50 49  1  0
 52 51  1  0
 52 65  1  0
 52 53  1  0
 54 48  1  0
 54 53  1  0
 55 48  2  0
 56 60  1  0
 58 56  1  0
 58 61  1  0
 59 57  1  0
 60 47  1  0
 60 57  1  0
 61 59  1  0
 62 63  2  0
 63 82  1  0
 64 63  1  0
 64 67  1  0
 65 66  1  0
 65 62  1  0
 66 64  2  0
 67 68  1  0
 68 69  2  0
 70 73  1  0
 70 69  1  0
 71 70  2  0
 72 71  1  0
 72 67  2  0
 73 74  1  0
 74 75  1  0
 75 76  2  0
 77 76  1  0
 77 81  1  0
 78 77  2  0
 79 74  2  0
 79 78  1  0
 80 79  1  0
 82 83  1  0
 83 86  1  0
 83 85  1  0
 84 82  2  0
 87 62  1  0
 87 88  1  0
 89 87  1  0
M  ISO  4   5 101   6 101  48 100  61 100
M  END
>  <TORSDO>  (25) 
F 19

>  <SCORE>  (25) 
-13.810

>  <name>  (25) 
24

>  <ligand_id>  (25) 
24

>  <original_smiles>  (25) 
[H]c1c([H])c([H])c2c(c1[H])C([H])([H])C([H])([H])C([H])([H])C2([H])N([H])C(=O)C1([H])N(C(=O)C([H])(N([H])C(=O)C([H])(N([H])C([H])([H])[H])C([H])([H])[H])C(C([H])([H])[H])(C([H])([H])[H])C([H])([H])[H])C([H])([H])c2c([H])c(OC([H])([H])C(=O)C([H])(C([H])([H])[H])C([H])([H])C3([H])C([H])([H])C([H])([H])N(C(=O)N4C([H])([H])C([H])([H])C([H])([H])C([H])(n5nc(-c6c([H])c([H])c(Oc7c([H])c([H])c(F)c([H])c7F)c([H])c6[H])c(C(=O)N([H])[H])c5N([H])[H])C4([H])[H])C([H])([H])C3([H])[H])c([H])c([H])c2C1([H])[H]

>  <smiles>  (25) 
[H]c1c([H])c([H])c2c(c1[H])C([H])([H])C([H])([H])C([H])([H])C2([H])N([H])C(=O)C1([H])N(C(=O)C([H])(N([H])C(=O)C([H])(N([H])C([H])([H])[H])C([H])([H])[H])C(C([H])([H])[H])(C([H])([H])[H])C([H])([H])[H])C([H])([H])c2c([H])c(OC([H])([H])C(=O)C([H])(C([H])([H])[H])C([H])([H])C3([H])C([H])([H])C([H])([H])N(C(=O)N4C([H])([H])C([H])([H])C([H])([H])C([H])(n5nc(-c6c([H])c([H])c(Oc7c([H])c([H])c(F)c([H])c7F)c([H])c6[H])c(C(=O)N([H])[H])c5N([H])[H])C4([H])[H])C([H])([H])C3([H])[H])c([H])c([H])c2C1([H])[H]

$$$$
25:0:0
     RDKit          3D

 91 99  0  0  1  0  0  0  0  0999 V2000
  -31.0220  -20.8670   19.7400 C   0  0  0  0  0  2  0  0  0  0  0  0
  -30.8550  -21.1490   18.2350 C   0  0  0  0  0  2  0  0  0  0  0  0
  -28.3690  -21.7580   18.5760 C   0  0  0  0  0  2  0  0  0  0  0  0
  -29.6770  -20.7220   20.4820 C   0  0  0  0  0  3  0  0  0  0  0  0
  -29.4080  -20.9730   17.7270 C   0  0  0  0  0  3  0  0  0  0  0  0
  -29.3100  -21.3660   16.2490 C   0  0  0  0  0  1  0  0  0  0  0  0
  -28.7140  -21.8950   20.0240 N   0  0  1  0  0  4  0  0  0  0  0  0
  -27.8550  -21.6980   20.5210 H   0  0  0  0  0  0  0  0  0  0  0  0
  -29.1630  -19.1190   20.3870 C   0  0  0  0  0  0  0  0  0  0  0  0
  -27.9580  -18.8860   20.2530 O   0  0  0  0  0  0  0  0  0  0  0  0
  -30.1480  -17.8030   20.4440 C   0  0  0  0  0  3  0  0  0  0  0  0
  -29.6380  -16.2400   20.7200 C   0  0  0  0  0  3  0  0  0  0  0  0
  -30.4790  -14.8850   20.3370 C   0  0  0  0  0  0  0  0  0  0  0  0
  -30.3420  -12.5780   19.3100 C   0  0  0  0  0  2  0  0  0  0  0  0
  -29.3850  -12.6260   18.0940 C   0  0  0  0  0  2  0  0  0  0  0  0
  -27.9240  -12.4230   18.5430 C   0  0  0  0  0  2  0  0  0  0  0  0
  -27.5510  -13.3150   19.7550 C   0  0  0  0  0  3  0  0  0  0  0  0
  -28.6200  -13.2340   20.8650 C   0  0  0  0  0  2  0  0  0  0  0  0
  -29.9060  -13.6230   20.2740 N   0  0  0  0  0  0  0  0  0  0  0  0
  -31.6540  -14.9990   19.9710 O   0  0  0  0  0  0  0  0  0  0  0  0
  -25.1730  -13.9100   20.5040 C   0  0  0  0  0  0  0  0  0  0  0  0
  -24.1060  -13.1350   20.8770 C   0  0  0  0  0  0  0  0  0  0  0  0
  -24.5680  -11.7850   20.8420 C   0  0  0  0  0  0  0  0  0  0  0  0
  -26.2120  -13.0270   20.2570 N   0  0  0  0  0  0  0  0  0  0  0  0
  -25.8570  -11.7440   20.5270 N   0  0  0  0  0  0  0  0  0  0  0  0
  -23.8410  -10.5220   21.0340 C   0  0  0  0  0  0  0  0  0  0  0  0
  -24.2800   -9.5520   21.9630 C   0  0  0  0  0  3  0  0  0  0  0  0
  -23.5550   -8.3540   22.1440 C   0  0  0  0  0  3  0  0  0  0  0  0
  -22.3760   -8.1190   21.3970 C   0  0  0  0  0  0  0  0  0  0  0  0
  -21.9550   -9.0780   20.4580 C   0  0  0  0  0  3  0  0  0  0  0  0
  -22.6810  -10.2670   20.2760 C   0  0  0  0  0  3  0  0  0  0  0  0
  -21.6210   -6.9740   21.4880 O   0  0  0  0  0  0  0  0  0  0  0  0
  -21.5800   -6.2290   22.6390 C   0  0  0  0  0  0  0  0  0  0  0  0
  -21.1580   -6.7800   23.8690 C   0  0  0  0  0  3  0  0  0  0  0  0
  -21.0660   -5.9600   25.0110 C   0  0  0  0  0  3  0  0  0  0  0  0
  -21.3830   -4.5910   24.9250 C   0  0  0  0  0  0  0  0  0  0  0  0
  -21.7980   -4.0400   23.7000 C   0  0  0  0  0  3  0  0  0  0  0  0
  -21.8930   -4.8580   22.5590 C   0  0  0  0  0  0  0  0  0  0  0  0
  -22.2720   -4.3170   21.3760 F   0  0  0  0  0  0  0  0  0  0  0  0
  -21.2860   -3.8020   26.0210 F   0  0  0  0  0  0  0  0  0  0  0  0
  -22.7110  -13.6140   21.1550 C   0  0  0  0  0  0  0  0  0  0  0  0
  -21.9850  -12.9150   22.0220 N   0  0  0  0  0  0  0  0  0  0  0  0
  -22.2740  -14.6410   20.6410 O   0  0  0  0  0  0  0  0  0  0  0  0
  -22.3530  -12.0830   22.4580 H   0  0  0  0  0  0  0  0  0  0  0  0
  -21.0500  -13.2180   22.2520 H   0  0  0  0  0  0  0  0  0  0  0  0
  -25.3410  -15.2790   20.3300 N   0  0  0  0  0  0  0  0  0  0  0  0
  -24.5830  -15.9410   20.4590 H   0  0  0  0  0  0  0  0  0  0  0  0
  -26.1970  -15.7170   20.0130 H   0  0  0  0  0  0  0  0  0  0  0  0
  -29.0530  -23.4150   20.3680 C   0  0  0  0  0  3  0  0  0  0  0  0
  -28.0130  -24.7070   20.0560 C   0  0  0  0  0  3  0  0  0  0  0  0
  -28.2680  -26.2240   20.2580 O   0  0  0  0  0  0  0  0  0  0  0  0
  -24.6210  -31.8670   23.2200 C   0  0  0  0  0  0  0  0  0  0  0  0
  -27.1990  -27.1870   20.1780 C   0  0  0  0  0  0  0  0  0  0  0  0
  -23.4160  -30.4770   21.5790 C   0  0  0  0  0  3  0  0  0  0  0  0
  -24.8610  -28.9120   20.1440 C   0  0  0  0  0  0  0  0  0  0  0  0
  -25.9650  -30.7520   21.4030 C   0  0  0  0  0  2  0  0  0  0  0  0
  -26.0390  -29.3630   20.7500 C   0  0  0  0  0  0  0  0  0  0  0  0
  -27.2070  -28.5180   20.7530 C   0  0  0  0  0  3  0  0  0  0  0  0
  -25.9940  -26.8300   19.5290 C   0  0  0  0  0  3  0  0  0  0  0  0
  -24.8500  -27.6570   19.5180 C   0  0  0  0  0  3  0  0  0  0  0  0
  -23.6300  -29.8030   20.1980 C   0  0  0  0  0  2  0  0  0  0  0  0
  -24.6880  -31.0530   22.1220 N   0  0  0  0  0  0  0  0  0  0  0  0
  -23.5370  -32.1510   23.7510 O   0  0  0  0  0  0  0  0  0  0  0  0
  -22.7400  -29.4660   22.5380 C   0  0  0  0  0  0  0  0  0  0  0  0
  -21.4140  -29.2900   22.4050 N   0  0  0  0  0  0  0  0  0  0  0  0
  -23.4120  -28.8400   23.3630 O   0  0  0  0  0  0  0  0  0  0  0  0
  -20.9320  -29.8460   21.7120 H   0  0  0  0  0  0  0  0  0  0  0  0
  -18.0350  -28.0760   22.8840 C   0  0  0  0  0  0  0  0  0  0  0  0
  -20.5910  -28.3510   23.1710 C   0  0  0  0  0  3  0  0  0  0  0  0
  -20.7040  -26.9180   22.5990 C   0  0  0  0  0  2  0  0  0  0  0  0
  -19.6110  -26.5890   21.5760 C   0  0  0  0  0  2  0  0  0  0  0  0
  -18.2240  -26.7270   22.2100 C   0  0  0  0  0  2  0  0  0  0  0  0
  -19.1470  -28.8450   23.3190 C   0  0  0  0  0  0  0  0  0  0  0  0
  -18.9180  -30.1070   23.9090 C   0  0  0  0  0  3  0  0  0  0  0  0
  -17.6100  -30.6000   24.0700 C   0  0  0  0  0  3  0  0  0  0  0  0
  -16.5120  -29.8280   23.6500 C   0  0  0  0  0  3  0  0  0  0  0  0
  -16.7250  -28.5680   23.0630 C   0  0  0  0  0  3  0  0  0  0  0  0
  -25.9000  -32.4980   23.8480 C   0  0  0  0  0  3  0  0  0  0  0  0
  -25.5900  -33.8980   24.1830 N   0  0  0  0  0  0  0  0  0  0  0  0
  -25.9090  -34.9550   23.4240 C   0  0  0  0  0  0  0  0  0  0  0  0
  -26.5630  -34.8560   22.3820 O   0  0  0  0  0  0  0  0  0  0  0  0
  -25.0070  -34.0470   24.9930 H   0  0  0  0  0  0  0  0  0  0  0  0
  -24.1630  -36.7430   23.1150 C   0  0  0  0  0  1  0  0  0  0  0  0
  -25.4260  -36.3430   23.8940 C   0  0  0  0  0  3  0  0  0  0  0  0
  -27.5810  -37.2350   24.6660 C   0  0  0  0  0  1  0  0  0  0  0  0
  -26.4500  -37.4020   23.7570 N   0  0  0  0  0  0  0  0  0  0  0  0
  -26.0440  -38.3190   23.9270 H   0  0  0  0  0  0  0  0  0  0  0  0
  -26.4080  -31.7260   25.1270 C   0  0  1  0  0  0  0  0  0  0  0  0
  -25.3110  -31.4940   26.1920 C   0  0  0  0  0  1  0  0  0  0  0  0
  -26.9870  -30.3450   24.7400 C   0  0  0  0  0  1  0  0  0  0  0  0
  -27.5600  -32.5160   25.7920 C   0  0  0  0  0  1  0  0  0  0  0  0
  1  4  1  0
  2  1  1  0
  3  7  1  0
  4  9  1  0
  5  6  1  0
  5  2  1  0
  5  3  1  0
  7 49  1  0
  7  4  1  0
  7  8  1  1
  9 11  1  0
 10  9  2  0
 11 12  2  0
 13 12  1  0
 14 19  1  0
 15 16  1  0
 15 14  1  0
 17 16  1  0
 17 24  1  0
 17 18  1  0
 19 13  1  0
 19 18  1  0
 20 13  2  0
 21 22  2  0
 22 41  1  0
 23 22  1  0
 23 26  1  0
 24 21  1  0
 24 25  1  0
 25 23  2  0
 26 27  1  0
 27 28  2  0
 29 32  1  0
 29 28  1  0
 30 29  2  0
 31 30  1  0
 31 26  2  0
 32 33  1  0
 33 34  1  0
 34 35  2  0
 36 35  1  0
 36 40  1  0
 37 36  2  0
 38 33  2  0
 38 37  1  0
 39 38  1  0
 41 42  1  0
 42 45  1  0
 42 44  1  0
 43 41  2  0
 46 47  1  0
 46 21  1  0
 48 46  1  0
 50 51  1  0
 50 49  2  0
 52 63  2  0
 53 51  1  0
 53 58  1  0
 54 62  1  0
 54 64  1  0
 55 61  1  0
 55 57  1  0
 56 62  1  0
 57 58  2  0
 57 56  1  0
 59 53  2  0
 60 59  1  0
 60 55  2  0
 61 54  1  0
 62 52  1  0
 64 66  2  0
 65 64  1  0
 67 65  1  0
 68 77  2  0
 68 73  1  0
 69 65  1  0
 69 73  1  0
 70 69  1  0
 71 72  1  0
 71 70  1  0
 72 68  1  0
 73 74  2  0
 74 75  1  0
 76 75  2  0
 77 76  1  0
 78 52  1  0
 78 79  1  0
 78 88  1  0
 79 82  1  0
 80 84  1  0
 80 79  1  0
 81 80  2  0
 84 83  1  0
 86 84  1  0
 86 87  1  0
 86 85  1  0
 88 91  1  1
 88 89  1  0
 90 88  1  0
M  ISO  4  12 100  13 100  50 101  51 101
M  END
>  <TORSDO>  (26) 
F 21

>  <SCORE>  (26) 
-13.506

>  <name>  (26) 
25

>  <ligand_id>  (26) 
25

>  <original_smiles>  (26) 
[H]c1c([H])c([H])c2c(c1[H])C([H])([H])C([H])([H])C([H])([H])C2([H])N([H])C(=O)C1([H])N(C(=O)C([H])(N([H])C(=O)C([H])(N([H])C([H])([H])[H])C([H])([H])[H])C(C([H])([H])[H])(C([H])([H])[H])C([H])([H])[H])C([H])([H])c2c([H])c(OC([H])([H])C([H])([H])[N+]3([H])C([H])([H])C([H])(C([H])([H])[H])C([H])([H])C([H])([H])C3([H])C(=O)C([H])([H])C([H])([H])C(=O)N3C([H])([H])C([H])([H])C([H])([H])C([H])(n4nc(-c5c([H])c([H])c(Oc6c([H])c([H])c(F)c([H])c6F)c([H])c5[H])c(C(=O)N([H])[H])c4N([H])[H])C3([H])[H])c([H])c([H])c2C1([H])[H]

>  <smiles>  (26) 
[H]c1c([H])c([H])c2c(c1[H])C([H])([H])C([H])([H])C([H])([H])C2([H])N([H])C(=O)C1([H])N(C(=O)C([H])(N([H])C(=O)C([H])(N([H])C([H])([H])[H])C([H])([H])[H])C(C([H])([H])[H])(C([H])([H])[H])C([H])([H])[H])C([H])([H])c2c([H])c(OC([H])([H])C([H])([H])[N+]3([H])C([H])([H])C([H])(C([H])([H])[H])C([H])([H])C([H])([H])C3([H])C(=O)C([H])([H])C([H])([H])C(=O)N3C([H])([H])C([H])([H])C([H])([H])C([H])(n4nc(-c5c([H])c([H])c(Oc6c([H])c([H])c(F)c([H])c6F)c([H])c5[H])c(C(=O)N([H])[H])c4N([H])[H])C3([H])[H])c([H])c([H])c2C1([H])[H]

$$$$
26:0:0
     RDKit          3D

 88 96  0  0  1  0  0  0  0  0999 V2000
  -28.5150  -21.2850   19.6670 C   0  0  0  0  0  2  0  0  0  0  0  0
  -30.4810  -15.0920   19.8800 C   0  0  0  0  0  0  0  0  0  0  0  0
  -30.2800  -12.7150   18.9270 C   0  0  0  0  0  2  0  0  0  0  0  0
  -29.2640  -12.6450   17.7670 C   0  0  0  0  0  2  0  0  0  0  0  0
  -27.8410  -12.4180   18.3030 C   0  0  0  0  0  2  0  0  0  0  0  0
  -27.5060  -13.3460   19.5000 C   0  0  0  0  0  3  0  0  0  0  0  0
  -28.6390  -13.3990   20.5470 C   0  0  0  0  0  2  0  0  0  0  0  0
  -29.8490  -13.8340   19.8410 N   0  0  0  0  0  0  0  0  0  0  0  0
  -31.6680  -15.0750   19.5260 O   0  0  0  0  0  0  0  0  0  0  0  0
  -29.1750  -17.1570   18.9480 C   0  0  0  0  0  2  0  0  0  0  0  0
  -29.3720  -18.7800   18.7500 C   0  0  0  0  0  2  0  0  0  0  0  0
  -29.5320  -19.0450   21.1240 C   0  0  0  0  0  2  0  0  0  0  0  0
  -30.1210  -17.4710   21.1140 C   0  0  0  0  0  3  0  0  0  0  0  0
  -31.6410  -17.5800   21.3270 C   0  0  0  0  0  1  0  0  0  0  0  0
  -29.7990  -16.3690   20.0710 N   0  0  0  0  0  0  0  0  0  0  0  0
  -28.9620  -19.7100   19.8830 N   0  0  1  0  0  4  0  0  0  0  0  0
  -28.0080  -19.3740   19.9590 H   0  0  0  0  0  0  0  0  0  0  0  0
  -25.1970  -13.8970   20.4390 C   0  0  0  0  0  0  0  0  0  0  0  0
  -24.1580  -13.1140   20.8610 C   0  0  0  0  0  0  0  0  0  0  0  0
  -24.6180  -11.7620   20.7630 C   0  0  0  0  0  0  0  0  0  0  0  0
  -26.2170  -13.0290   20.0930 N   0  0  0  0  0  0  0  0  0  0  0  0
  -25.8850  -11.7340   20.3610 N   0  0  0  0  0  0  0  0  0  0  0  0
  -23.9010  -10.4980   20.9700 C   0  0  0  0  0  0  0  0  0  0  0  0
  -24.3740   -9.5200   21.8730 C   0  0  0  0  0  3  0  0  0  0  0  0
  -23.6560   -8.3200   22.0700 C   0  0  0  0  0  3  0  0  0  0  0  0
  -22.4500   -8.0920   21.3620 C   0  0  0  0  0  0  0  0  0  0  0  0
  -21.9960   -9.0570   20.4490 C   0  0  0  0  0  3  0  0  0  0  0  0
  -22.7160  -10.2490   20.2500 C   0  0  0  0  0  3  0  0  0  0  0  0
  -21.7000   -6.9430   21.4720 O   0  0  0  0  0  0  0  0  0  0  0  0
  -21.6790   -6.2040   22.6260 C   0  0  0  0  0  0  0  0  0  0  0  0
  -21.2590   -6.7540   23.8570 C   0  0  0  0  0  3  0  0  0  0  0  0
  -21.1860   -5.9390   25.0040 C   0  0  0  0  0  3  0  0  0  0  0  0
  -21.5230   -4.5740   24.9200 C   0  0  0  0  0  0  0  0  0  0  0  0
  -21.9360   -4.0240   23.6960 C   0  0  0  0  0  3  0  0  0  0  0  0
  -22.0100   -4.8360   22.5500 C   0  0  0  0  0  0  0  0  0  0  0  0
  -22.3890   -4.2950   21.3670 F   0  0  0  0  0  0  0  0  0  0  0  0
  -21.4460   -3.7880   26.0220 F   0  0  0  0  0  0  0  0  0  0  0  0
  -22.7870  -13.5860   21.2360 C   0  0  0  0  0  0  0  0  0  0  0  0
  -22.1130  -12.8710   22.1390 N   0  0  0  0  0  0  0  0  0  0  0  0
  -22.3160  -14.6220   20.7730 O   0  0  0  0  0  0  0  0  0  0  0  0
  -22.5050  -12.0320   22.5390 H   0  0  0  0  0  0  0  0  0  0  0  0
  -21.1920  -13.1700   22.4270 H   0  0  0  0  0  0  0  0  0  0  0  0
  -25.3480  -15.2720   20.2880 N   0  0  0  0  0  0  0  0  0  0  0  0
  -24.5960  -15.9190   20.4850 H   0  0  0  0  0  0  0  0  0  0  0  0
  -26.1820  -15.7290   19.9410 H   0  0  0  0  0  0  0  0  0  0  0  0
  -28.9380  -22.8550   20.3590 C   0  0  0  0  0  2  0  0  0  0  0  0
  -27.9740  -24.3420   20.5110 C   0  0  0  0  0  2  0  0  0  0  0  0
  -28.2590  -25.9510   20.3960 O   0  0  0  0  0  0  0  0  0  0  0  0
  -24.6350  -31.8570   23.2660 C   0  0  0  0  0  0  0  0  0  0  0  0
  -27.2350  -27.0070   20.3120 C   0  0  0  0  0  0  0  0  0  0  0  0
  -23.4540  -30.4590   21.5920 C   0  0  0  0  0  3  0  0  0  0  0  0
  -24.9310  -28.8360   20.2250 C   0  0  0  0  0  0  0  0  0  0  0  0
  -26.0180  -30.6820   21.4920 C   0  0  0  0  0  2  0  0  0  0  0  0
  -26.1100  -29.2820   20.8490 C   0  0  0  0  0  0  0  0  0  0  0  0
  -27.2520  -28.3770   20.8730 C   0  0  0  0  0  3  0  0  0  0  0  0
  -26.0220  -26.7170   19.6350 C   0  0  0  0  0  3  0  0  0  0  0  0
  -24.9020  -27.5790   19.6040 C   0  0  0  0  0  3  0  0  0  0  0  0
  -23.7040  -29.7420   20.2380 C   0  0  0  0  0  2  0  0  0  0  0  0
  -24.7210  -31.0240   22.1710 N   0  0  0  0  0  0  0  0  0  0  0  0
  -23.5440  -32.1440   23.7740 O   0  0  0  0  0  0  0  0  0  0  0  0
  -22.7470  -29.4770   22.5660 C   0  0  0  0  0  0  0  0  0  0  0  0
  -21.4140  -29.3080   22.4370 N   0  0  0  0  0  0  0  0  0  0  0  0
  -23.4030  -28.8540   23.4150 O   0  0  0  0  0  0  0  0  0  0  0  0
  -20.9330  -29.8510   21.7320 H   0  0  0  0  0  0  0  0  0  0  0  0
  -18.0490  -28.0680   22.9330 C   0  0  0  0  0  0  0  0  0  0  0  0
  -20.6000  -28.3690   23.2160 C   0  0  0  0  0  3  0  0  0  0  0  0
  -20.7240  -26.9270   22.6700 C   0  0  0  0  0  2  0  0  0  0  0  0
  -19.6390  -26.5780   21.6480 C   0  0  0  0  0  2  0  0  0  0  0  0
  -18.2470  -26.7130   22.2720 C   0  0  0  0  0  2  0  0  0  0  0  0
  -19.1540  -28.8530   23.3640 C   0  0  0  0  0  0  0  0  0  0  0  0
  -18.9090  -30.1150   23.9470 C   0  0  0  0  0  3  0  0  0  0  0  0
  -17.5960  -30.6010   24.0960 C   0  0  0  0  0  3  0  0  0  0  0  0
  -16.5080  -29.8200   23.6700 C   0  0  0  0  0  3  0  0  0  0  0  0
  -16.7330  -28.5550   23.0960 C   0  0  0  0  0  3  0  0  0  0  0  0
  -25.9060  -32.5060   23.9010 C   0  0  0  0  0  3  0  0  0  0  0  0
  -25.5830  -33.9080   24.2210 N   0  0  0  0  0  0  0  0  0  0  0  0
  -25.9120  -34.9610   23.4640 C   0  0  0  0  0  0  0  0  0  0  0  0
  -26.5660  -34.8510   22.4260 O   0  0  0  0  0  0  0  0  0  0  0  0
  -25.0070  -34.0580   25.0360 H   0  0  0  0  0  0  0  0  0  0  0  0
  -24.1720  -36.7510   23.1270 C   0  0  0  0  0  1  0  0  0  0  0  0
  -25.4330  -36.3580   23.9170 C   0  0  0  0  0  3  0  0  0  0  0  0
  -27.5840  -37.2620   24.6820 C   0  0  0  0  0  1  0  0  0  0  0  0
  -26.4600  -37.4130   23.7640 N   0  0  0  0  0  0  0  0  0  0  0  0
  -26.0560  -38.3380   23.9040 H   0  0  0  0  0  0  0  0  0  0  0  0
  -26.4010  -31.7480   25.1940 C   0  0  1  0  0  0  0  0  0  0  0  0
  -25.2910  -31.5300   26.2520 C   0  0  0  0  0  1  0  0  0  0  0  0
  -26.9900  -30.3620   24.8460 C   0  0  0  0  0  1  0  0  0  0  0  0
  -27.5500  -32.5430   25.8590 C   0  0  0  0  0  1  0  0  0  0  0  0
  1 16  1  0
  1 46  1  0
  2 15  1  0
  3  8  1  0
  4  5  1  0
  4  3  1  0
  6  5  1  0
  6 21  1  0
  6  7  1  0
  8  2  1  0
  8  7  1  0
  9  2  2  0
 10 15  1  0
 11 10  1  0
 11 16  1  0
 13 12  1  0
 13 14  1  0
 15 13  1  0
 16 17  1  1
 16 12  1  0
 18 19  2  0
 19 38  1  0
 20 19  1  0
 20 23  1  0
 21 22  1  0
 21 18  1  0
 22 20  2  0
 23 24  1  0
 24 25  2  0
 26 29  1  0
 26 25  1  0
 27 26  2  0
 28 27  1  0
 28 23  2  0
 29 30  1  0
 30 31  1  0
 31 32  2  0
 33 32  1  0
 33 37  1  0
 34 33  2  0
 35 30  2  0
 35 34  1  0
 36 35  1  0
 38 39  1  0
 39 42  1  0
 39 41  1  0
 40 38  2  0
 43 18  1  0
 43 44  1  0
 45 43  1  0
 46 47  1  0
 48 47  1  0
 49 60  2  0
 50 48  1  0
 50 55  1  0
 51 59  1  0
 51 61  1  0
 52 58  1  0
 52 54  1  0
 53 59  1  0
 54 55  2  0
 54 53  1  0
 56 50  2  0
 57 56  1  0
 57 52  2  0
 58 51  1  0
 59 49  1  0
 61 63  2  0
 62 61  1  0
 64 62  1  0
 65 74  2  0
 65 70  1  0
 66 62  1  0
 66 70  1  0
 67 66  1  0
 68 69  1  0
 68 67  1  0
 69 65  1  0
 70 71  2  0
 71 72  1  0
 73 72  2  0
 74 73  1  0
 75 49  1  0
 75 76  1  0
 75 85  1  0
 76 79  1  0
 77 81  1  0
 77 76  1  0
 78 77  2  0
 81 80  1  0
 83 84  1  0
 83 81  1  0
 83 82  1  0
 85 88  1  1
 85 86  1  0
 87 85  1  0
M  ISO  4   2 100  15 100  47 101  48 101
M  END
>  <TORSDO>  (27) 
F 18

>  <SCORE>  (27) 
-15.616

>  <name>  (27) 
26

>  <ligand_id>  (27) 
26

>  <original_smiles>  (27) 
[H]c1c([H])c([H])c2c(c1[H])C([H])([H])C([H])([H])C([H])([H])C2([H])N([H])C(=O)C1([H])N(C(=O)C([H])(N([H])C(=O)C([H])(N([H])C([H])([H])[H])C([H])([H])[H])C(C([H])([H])[H])(C([H])([H])[H])C([H])([H])[H])C([H])([H])c2c([H])c(OC([H])([H])C([H])([H])C([H])([H])[N+]3([H])C([H])([H])C([H])([H])N(C(=O)N4C([H])([H])C([H])([H])C([H])([H])C([H])(n5nc(-c6c([H])c([H])c(Oc7c([H])c([H])c(F)c([H])c7F)c([H])c6[H])c(C(=O)N([H])[H])c5N([H])[H])C4([H])[H])C([H])(C([H])([H])[H])C3([H])[H])c([H])c([H])c2C1([H])[H]

>  <smiles>  (27) 
[H]c1c([H])c([H])c2c(c1[H])C([H])([H])C([H])([H])C([H])([H])C2([H])N([H])C(=O)C1([H])N(C(=O)C([H])(N([H])C(=O)C([H])(N([H])C([H])([H])[H])C([H])([H])[H])C(C([H])([H])[H])(C([H])([H])[H])C([H])([H])[H])C([H])([H])c2c([H])c(OC([H])([H])C([H])([H])C([H])([H])[N+]3([H])C([H])([H])C([H])([H])N(C(=O)N4C([H])([H])C([H])([H])C([H])([H])C([H])(n5nc(-c6c([H])c([H])c(Oc7c([H])c([H])c(F)c([H])c7F)c([H])c6[H])c(C(=O)N([H])[H])c5N([H])[H])C4([H])[H])C([H])(C([H])([H])[H])C3([H])[H])c([H])c([H])c2C1([H])[H]

$$$$
27:0:0
     RDKit          3D

 87 95  0  0  1  0  0  0  0  0999 V2000
  -28.4060  -21.5680   20.2320 C   0  0  0  0  0  2  0  0  0  0  0  0
  -29.7880  -17.7590   20.3440 C   0  0  0  0  0  0  0  0  0  0  0  0
  -28.7370  -18.8620   20.4560 C   0  0  0  0  0  0  0  0  0  0  0  0
  -29.5780  -16.3410   20.4380 C   0  0  0  0  0  2  0  0  0  0  0  0
  -31.0640  -18.5370   20.0880 C   0  0  0  0  0  3  0  0  0  0  0  0
  -30.6730  -20.0680   20.1050 C   0  0  0  0  0  2  0  0  0  0  0  0
  -29.2210  -20.1830   20.3130 N   0  0  0  0  0  0  0  0  0  0  0  0
  -27.5370  -18.6390   20.6320 O   0  0  0  0  0  0  0  0  0  0  0  0
  -30.4890  -15.0740   20.2790 C   0  0  0  0  0  0  0  0  0  0  0  0
  -30.4390  -12.6880   19.3850 C   0  0  0  0  0  2  0  0  0  0  0  0
  -29.5100  -12.6070   18.1490 C   0  0  0  0  0  2  0  0  0  0  0  0
  -28.0480  -12.3730   18.5740 C   0  0  0  0  0  2  0  0  0  0  0  0
  -27.6200  -13.3030   19.7390 C   0  0  0  0  0  3  0  0  0  0  0  0
  -28.6720  -13.3420   20.8660 C   0  0  0  0  0  2  0  0  0  0  0  0
  -29.9390  -13.7840   20.2690 N   0  0  0  0  0  0  0  0  0  0  0  0
  -31.6920  -15.1360   19.9980 O   0  0  0  0  0  0  0  0  0  0  0  0
  -25.2400  -13.8610   20.4900 C   0  0  0  0  0  0  0  0  0  0  0  0
  -24.1820  -13.0770   20.8580 C   0  0  0  0  0  0  0  0  0  0  0  0
  -24.6550  -11.7280   20.8180 C   0  0  0  0  0  0  0  0  0  0  0  0
  -26.2870  -12.9900   20.2390 N   0  0  0  0  0  0  0  0  0  0  0  0
  -25.9450  -11.7030   20.5030 N   0  0  0  0  0  0  0  0  0  0  0  0
  -23.9350  -10.4620   21.0020 C   0  0  0  0  0  0  0  0  0  0  0  0
  -24.3560   -9.5020   21.9490 C   0  0  0  0  0  3  0  0  0  0  0  0
  -23.6340   -8.3010   22.1210 C   0  0  0  0  0  3  0  0  0  0  0  0
  -22.4780   -8.0490   21.3440 C   0  0  0  0  0  0  0  0  0  0  0  0
  -22.0760   -8.9970   20.3870 C   0  0  0  0  0  3  0  0  0  0  0  0
  -22.7990  -10.1900   20.2130 C   0  0  0  0  0  3  0  0  0  0  0  0
  -21.7310   -6.9000   21.4240 O   0  0  0  0  0  0  0  0  0  0  0  0
  -21.6390   -6.1800   22.5890 C   0  0  0  0  0  0  0  0  0  0  0  0
  -21.1300   -6.7480   23.7770 C   0  0  0  0  0  3  0  0  0  0  0  0
  -20.9870   -5.9530   24.9320 C   0  0  0  0  0  3  0  0  0  0  0  0
  -21.3440   -4.5910   24.8990 C   0  0  0  0  0  0  0  0  0  0  0  0
  -21.8450   -4.0230   23.7150 C   0  0  0  0  0  3  0  0  0  0  0  0
  -21.9890   -4.8150   22.5620 C   0  0  0  0  0  0  0  0  0  0  0  0
  -22.4530   -4.2570   21.4180 F   0  0  0  0  0  0  0  0  0  0  0  0
  -21.2000   -3.8260   26.0050 F   0  0  0  0  0  0  0  0  0  0  0  0
  -22.7820  -13.5430   21.1340 C   0  0  0  0  0  0  0  0  0  0  0  0
  -22.0600  -12.8440   22.0010 N   0  0  0  0  0  0  0  0  0  0  0  0
  -22.3370  -14.5660   20.6120 O   0  0  0  0  0  0  0  0  0  0  0  0
  -22.4330  -12.0190   22.4460 H   0  0  0  0  0  0  0  0  0  0  0  0
  -21.1220  -13.1400   22.2260 H   0  0  0  0  0  0  0  0  0  0  0  0
  -25.3940  -15.2340   20.3240 N   0  0  0  0  0  0  0  0  0  0  0  0
  -24.6250  -15.8810   20.4560 H   0  0  0  0  0  0  0  0  0  0  0  0
  -26.2380  -15.6890   20.0030 H   0  0  0  0  0  0  0  0  0  0  0  0
  -28.9230  -23.1980   20.3190 C   0  0  0  0  0  3  0  0  0  0  0  0
  -27.9210  -24.5810   20.1310 C   0  0  0  0  0  3  0  0  0  0  0  0
  -28.2190  -26.1270   20.2700 O   0  0  0  0  0  0  0  0  0  0  0  0
  -24.6340  -31.8930   23.2540 C   0  0  0  0  0  0  0  0  0  0  0  0
  -27.1780  -27.1410   20.2100 C   0  0  0  0  0  0  0  0  0  0  0  0
  -23.4270  -30.5060   21.6150 C   0  0  0  0  0  3  0  0  0  0  0  0
  -24.8650  -28.9260   20.1830 C   0  0  0  0  0  0  0  0  0  0  0  0
  -25.9850  -30.7520   21.4490 C   0  0  0  0  0  2  0  0  0  0  0  0
  -26.0500  -29.3580   20.7920 C   0  0  0  0  0  0  0  0  0  0  0  0
  -27.2070  -28.4830   20.7850 C   0  0  0  0  0  3  0  0  0  0  0  0
  -25.9650  -26.8230   19.5620 C   0  0  0  0  0  3  0  0  0  0  0  0
  -24.8380  -27.6740   19.5510 C   0  0  0  0  0  3  0  0  0  0  0  0
  -23.6430  -29.8340   20.2350 C   0  0  0  0  0  2  0  0  0  0  0  0
  -24.7030  -31.0720   22.1610 N   0  0  0  0  0  0  0  0  0  0  0  0
  -23.5500  -32.1810   23.7850 O   0  0  0  0  0  0  0  0  0  0  0  0
  -22.7430  -29.5010   22.5760 C   0  0  0  0  0  0  0  0  0  0  0  0
  -21.4140  -29.3340   22.4490 N   0  0  0  0  0  0  0  0  0  0  0  0
  -23.4110  -28.8740   23.4030 O   0  0  0  0  0  0  0  0  0  0  0  0
  -20.9310  -29.8900   21.7570 H   0  0  0  0  0  0  0  0  0  0  0  0
  -18.0300  -28.1370   22.9490 C   0  0  0  0  0  0  0  0  0  0  0  0
  -20.5890  -28.3980   23.2190 C   0  0  0  0  0  3  0  0  0  0  0  0
  -20.6900  -26.9650   22.6450 C   0  0  0  0  0  2  0  0  0  0  0  0
  -19.5890  -26.6430   21.6300 C   0  0  0  0  0  2  0  0  0  0  0  0
  -18.2070  -26.7890   22.2710 C   0  0  0  0  0  2  0  0  0  0  0  0
  -19.1480  -28.8990   23.3790 C   0  0  0  0  0  0  0  0  0  0  0  0
  -18.9280  -30.1600   23.9750 C   0  0  0  0  0  3  0  0  0  0  0  0
  -17.6240  -30.6590   24.1430 C   0  0  0  0  0  3  0  0  0  0  0  0
  -16.5200  -29.8940   23.7280 C   0  0  0  0  0  3  0  0  0  0  0  0
  -16.7240  -28.6360   23.1360 C   0  0  0  0  0  3  0  0  0  0  0  0
  -25.9140  -32.5240   23.8820 C   0  0  0  0  0  3  0  0  0  0  0  0
  -26.4210  -31.7510   25.1620 C   0  0  1  0  0  0  0  0  0  0  0  0
  -25.3240  -31.5190   26.2270 C   0  0  0  0  0  1  0  0  0  0  0  0
  -27.0010  -30.3700   24.7780 C   0  0  0  0  0  1  0  0  0  0  0  0
  -27.5730  -32.5410   25.8270 C   0  0  0  0  0  1  0  0  0  0  0  0
  -25.6060  -33.9230   24.2190 N   0  0  0  0  0  0  0  0  0  0  0  0
  -25.9100  -34.9790   23.4540 C   0  0  0  0  0  0  0  0  0  0  0  0
  -26.5450  -34.8790   22.4000 O   0  0  0  0  0  0  0  0  0  0  0  0
  -25.0380  -34.0740   25.0390 H   0  0  0  0  0  0  0  0  0  0  0  0
  -24.1520  -36.7620   23.1830 C   0  0  0  0  0  1  0  0  0  0  0  0
  -25.4380  -36.3680   23.9300 C   0  0  0  0  0  3  0  0  0  0  0  0
  -27.6030  -37.2800   24.6470 C   0  0  0  0  0  1  0  0  0  0  0  0
  -26.4550  -37.4280   23.7580 N   0  0  0  0  0  0  0  0  0  0  0  0
  -26.0480  -38.3470   23.9160 H   0  0  0  0  0  0  0  0  0  0  0  0
  1  7  1  0
  1 45  1  0
  2  4  1  0
  2  3  1  0
  3  8  2  0
  5  6  1  0
  5  2  2  0
  6  7  1  0
  7  3  1  0
  9  4  1  0
 10 15  1  0
 11 12  1  0
 11 10  1  0
 13 12  1  0
 13 20  1  0
 13 14  1  0
 15  9  1  0
 15 14  1  0
 16  9  2  0
 17 18  2  0
 18 37  1  0
 19 18  1  0
 19 22  1  0
 20 17  1  0
 20 21  1  0
 21 19  2  0
 22 23  1  0
 23 24  2  0
 25 28  1  0
 25 24  1  0
 26 25  2  0
 27 26  1  0
 27 22  2  0
 28 29  1  0
 29 30  1  0
 30 31  2  0
 32 31  1  0
 32 36  1  0
 33 32  2  0
 34 29  2  0
 34 33  1  0
 35 34  1  0
 37 38  1  0
 38 41  1  0
 38 40  1  0
 39 37  2  0
 42 43  1  0
 42 17  1  0
 44 42  1  0
 46 47  1  0
 46 45  2  0
 48 59  2  0
 49 47  1  0
 49 54  1  0
 50 58  1  0
 50 60  1  0
 51 57  1  0
 51 53  1  0
 52 58  1  0
 53 52  1  0
 54 53  2  0
 55 49  2  0
 56 55  1  0
 56 51  2  0
 57 50  1  0
 58 48  1  0
 60 62  2  0
 61 60  1  0
 63 61  1  0
 64 73  2  0
 64 69  1  0
 65 61  1  0
 65 69  1  0
 66 65  1  0
 67 68  1  0
 67 66  1  0
 68 64  1  0
 69 70  2  0
 70 71  1  0
 72 71  2  0
 73 72  1  0
 74 48  1  0
 74 79  1  0
 74 75  1  0
 75 78  1  1
 75 76  1  0
 77 75  1  0
 79 82  1  0
 80 84  1  0
 80 79  1  0
 81 80  2  0
 84 83  1  0
 86 87  1  0
 86 84  1  0
 86 85  1  0
M  ISO  4   4 100   9 100  46 101  47 101
M  END
>  <TORSDO>  (28) 
F 19

>  <SCORE>  (28) 
-15.471

>  <name>  (28) 
27

>  <ligand_id>  (28) 
27

>  <original_smiles>  (28) 
[H]C(C(=O)N1C([H])([H])C([H])([H])C([H])([H])C([H])(n2nc(-c3c([H])c([H])c(Oc4c([H])c([H])c(F)c([H])c4F)c([H])c3[H])c(C(=O)N([H])[H])c2N([H])[H])C1([H])[H])=C1C(=O)N(C([H])([H])C([H])([H])C([H])([H])Oc2c([H])c([H])c3c(c2[H])C([H])([H])N(C(=O)C([H])(N([H])C(=O)C([H])(N([H])C([H])([H])[H])C([H])([H])[H])C(C([H])([H])[H])(C([H])([H])[H])C([H])([H])[H])C([H])(C(=O)N([H])C2([H])c4c([H])c([H])c([H])c([H])c4C([H])([H])C([H])([H])C2([H])[H])C3([H])[H])C([H])([H])C1([H])[H]

>  <smiles>  (28) 
[H]C(C(=O)N1C([H])([H])C([H])([H])C([H])([H])C([H])(n2nc(-c3c([H])c([H])c(Oc4c([H])c([H])c(F)c([H])c4F)c([H])c3[H])c(C(=O)N([H])[H])c2N([H])[H])C1([H])[H])=C1C(=O)N(C([H])([H])C([H])([H])C([H])([H])Oc2c([H])c([H])c3c(c2[H])C([H])([H])N(C(=O)C([H])(N([H])C(=O)C([H])(N([H])C([H])([H])[H])C([H])([H])[H])C(C([H])([H])[H])(C([H])([H])[H])C([H])([H])[H])C([H])(C(=O)N([H])C2([H])c4c([H])c([H])c([H])c([H])c4C([H])([H])C([H])([H])C2([H])[H])C3([H])[H])C([H])([H])C1([H])[H]

$$$$
28:0:0
     RDKit          3D

 93101  0  0  1  0  0  0  0  0999 V2000
  -29.5840  -20.8050   21.2720 C   0  0  0  0  0  0  0  0  0  0  0  0
  -29.1490  -19.1490   18.9640 C   0  0  0  0  0  2  0  0  0  0  0  0
  -29.5110  -19.1700   21.3680 C   0  0  0  0  0  3  0  0  0  0  0  0
  -28.8310  -21.5910   20.1060 C   0  0  0  0  0  3  0  0  0  0  0  0
  -29.9140  -18.2720   20.0870 C   0  0  0  0  0  3  0  0  0  0  0  0
  -29.3100  -20.7030   18.9470 N   0  0  0  0  0  4  0  0  0  0  0  0
  -30.2370  -21.4370   22.1110 O   0  0  0  0  0  0  0  0  0  0  0  0
  -28.8310  -21.0270   18.1210 H   0  0  0  0  0  0  0  0  0  0  0  0
  -30.2850  -20.9050   18.7940 H   0  0  0  0  0  0  0  0  0  0  0  0
  -30.3190  -18.8040   22.5490 N   0  0  0  0  0  4  0  0  0  0  0  0
  -31.3020  -18.8640   22.3500 H   0  0  0  0  0  0  0  0  0  0  0  0
  -30.1000  -17.8900   22.8990 H   0  0  0  0  0  0  0  0  0  0  0  0
  -30.1270  -19.4810   23.2690 H   0  0  0  0  0  0  0  0  0  0  0  0
  -29.6630  -16.5600   20.2370 C   0  0  0  0  0  2  0  0  0  0  0  0
  -30.5760  -15.1810   19.8940 C   0  0  0  0  0  0  0  0  0  0  0  0
  -30.4940  -12.8100   18.9360 C   0  0  0  0  0  2  0  0  0  0  0  0
  -29.4720  -12.7520   17.7720 C   0  0  0  0  0  2  0  0  0  0  0  0
  -28.0450  -12.5040   18.2990 C   0  0  0  0  0  2  0  0  0  0  0  0
  -27.7050  -13.4080   19.5100 C   0  0  0  0  0  3  0  0  0  0  0  0
  -28.8350  -13.4190   20.5600 C   0  0  0  0  0  2  0  0  0  0  0  0
  -30.0590  -13.8770   19.8870 N   0  0  0  0  0  0  0  0  0  0  0  0
  -31.7440  -15.2930   19.5030 O   0  0  0  0  0  0  0  0  0  0  0  0
  -25.4010  -13.9590   20.4770 C   0  0  0  0  0  0  0  0  0  0  0  0
  -24.3600  -13.1720   20.8880 C   0  0  0  0  0  0  0  0  0  0  0  0
  -24.8060  -11.8220   20.7420 C   0  0  0  0  0  0  0  0  0  0  0  0
  -26.4100  -13.0890   20.0990 N   0  0  0  0  0  0  0  0  0  0  0  0
  -26.0670  -11.7940   20.3250 N   0  0  0  0  0  0  0  0  0  0  0  0
  -24.0810  -10.5560   20.9190 C   0  0  0  0  0  0  0  0  0  0  0  0
  -24.4740   -9.6080   21.8890 C   0  0  0  0  0  3  0  0  0  0  0  0
  -23.7480   -8.4080   22.0520 C   0  0  0  0  0  3  0  0  0  0  0  0
  -22.6140   -8.1480   21.2460 C   0  0  0  0  0  0  0  0  0  0  0  0
  -22.2410   -9.0850   20.2660 C   0  0  0  0  0  3  0  0  0  0  0  0
  -22.9680  -10.2770   20.1010 C   0  0  0  0  0  3  0  0  0  0  0  0
  -21.8640   -6.9990   21.3160 O   0  0  0  0  0  0  0  0  0  0  0  0
  -21.6140   -6.3760   22.5120 C   0  0  0  0  0  0  0  0  0  0  0  0
  -20.9250   -7.0230   23.5610 C   0  0  0  0  0  3  0  0  0  0  0  0
  -20.6280   -6.3220   24.7470 C   0  0  0  0  0  3  0  0  0  0  0  0
  -21.0110   -4.9740   24.8840 C   0  0  0  0  0  0  0  0  0  0  0  0
  -21.6920   -4.3270   23.8390 C   0  0  0  0  0  3  0  0  0  0  0  0
  -21.9900   -5.0240   22.6550 C   0  0  0  0  0  0  0  0  0  0  0  0
  -22.6290   -4.3890   21.6430 F   0  0  0  0  0  0  0  0  0  0  0  0
  -20.7190   -4.2980   26.0190 F   0  0  0  0  0  0  0  0  0  0  0  0
  -22.9960  -13.6430   21.2970 C   0  0  0  0  0  0  0  0  0  0  0  0
  -22.3330  -12.9100   22.1830 N   0  0  0  0  0  0  0  0  0  0  0  0
  -22.5290  -14.6970   20.8650 O   0  0  0  0  0  0  0  0  0  0  0  0
  -22.7250  -12.0560   22.5530 H   0  0  0  0  0  0  0  0  0  0  0  0
  -21.4190  -13.2050   22.4970 H   0  0  0  0  0  0  0  0  0  0  0  0
  -25.5670  -15.3370   20.3680 N   0  0  0  0  0  0  0  0  0  0  0  0
  -24.8130  -15.9850   20.5730 H   0  0  0  0  0  0  0  0  0  0  0  0
  -26.3800  -15.7870   19.9710 H   0  0  0  0  0  0  0  0  0  0  0  0
  -29.0470  -23.3160   19.9960 C   0  0  0  0  0  3  0  0  0  0  0  0
  -27.9310  -24.6200   20.1000 C   0  0  0  0  0  3  0  0  0  0  0  0
  -28.1860  -26.1870   20.1290 O   0  0  0  0  0  0  0  0  0  0  0  0
  -24.5410  -31.8200   23.3160 C   0  0  0  0  0  0  0  0  0  0  0  0
  -27.1260  -27.1860   20.1150 C   0  0  0  0  0  0  0  0  0  0  0  0
  -23.3400  -30.4700   21.6420 C   0  0  0  0  0  3  0  0  0  0  0  0
  -24.7890  -28.9470   20.1570 C   0  0  0  0  0  0  0  0  0  0  0  0
  -25.8940  -30.7470   21.4690 C   0  0  0  0  0  2  0  0  0  0  0  0
  -25.9730  -29.3730   20.7690 C   0  0  0  0  0  0  0  0  0  0  0  0
  -27.1410  -28.5130   20.7270 C   0  0  0  0  0  3  0  0  0  0  0  0
  -25.9080  -26.8740   19.4680 C   0  0  0  0  0  3  0  0  0  0  0  0
  -24.7720  -27.7130   19.4890 C   0  0  0  0  0  3  0  0  0  0  0  0
  -23.5570  -29.8370   20.2420 C   0  0  0  0  0  2  0  0  0  0  0  0
  -24.6120  -31.0330   22.1980 N   0  0  0  0  0  0  0  0  0  0  0  0
  -23.4560  -32.0800   23.8600 O   0  0  0  0  0  0  0  0  0  0  0  0
  -22.6730  -29.4290   22.5770 C   0  0  0  0  0  0  0  0  0  0  0  0
  -21.3610  -29.1910   22.3960 N   0  0  0  0  0  0  0  0  0  0  0  0
  -23.3400  -28.8390   23.4300 O   0  0  0  0  0  0  0  0  0  0  0  0
  -20.8760  -29.7220   21.6860 H   0  0  0  0  0  0  0  0  0  0  0  0
  -18.0480  -27.7540   22.7070 C   0  0  0  0  0  0  0  0  0  0  0  0
  -20.5570  -28.2110   23.1340 C   0  0  0  0  0  3  0  0  0  0  0  0
  -20.8000  -26.7790   22.6020 C   0  0  0  0  0  2  0  0  0  0  0  0
  -19.7950  -26.3560   21.5250 C   0  0  0  0  0  2  0  0  0  0  0  0
  -18.3660  -26.4100   22.0740 C   0  0  0  0  0  2  0  0  0  0  0  0
  -19.0770  -28.6070   23.1900 C   0  0  0  0  0  0  0  0  0  0  0  0
  -18.7250  -29.8580   23.7400 C   0  0  0  0  0  3  0  0  0  0  0  0
  -17.3790  -30.2620   23.8120 C   0  0  0  0  0  3  0  0  0  0  0  0
  -16.3640  -29.4090   23.3440 C   0  0  0  0  0  3  0  0  0  0  0  0
  -16.6980  -28.1570   22.7980 C   0  0  0  0  0  3  0  0  0  0  0  0
  -25.8180  -32.4470   23.9560 C   0  0  0  0  0  3  0  0  0  0  0  0
  -26.3330  -31.6510   25.2180 C   0  0  1  0  0  0  0  0  0  0  0  0
  -25.2340  -31.3750   26.2710 C   0  0  0  0  0  1  0  0  0  0  0  0
  -26.9360  -30.2890   24.8030 C   0  0  0  0  0  1  0  0  0  0  0  0
  -27.4680  -32.4420   25.9080 C   0  0  0  0  0  1  0  0  0  0  0  0
  -25.5000  -33.8360   24.3230 N   0  0  0  0  0  0  0  0  0  0  0  0
  -25.8010  -34.9120   23.5830 C   0  0  0  0  0  0  0  0  0  0  0  0
  -26.4410  -34.8390   22.5310 O   0  0  0  0  0  0  0  0  0  0  0  0
  -24.9280  -33.9650   25.1450 H   0  0  0  0  0  0  0  0  0  0  0  0
  -24.0370  -36.6920   23.3440 C   0  0  0  0  0  1  0  0  0  0  0  0
  -25.3190  -36.2860   24.0910 C   0  0  0  0  0  3  0  0  0  0  0  0
  -27.4700  -37.1930   24.8530 C   0  0  0  0  0  1  0  0  0  0  0  0
  -26.3310  -37.3560   23.9520 N   0  0  0  0  0  0  0  0  0  0  0  0
  -25.9180  -38.2680   24.1250 H   0  0  0  0  0  0  0  0  0  0  0  0
  1  3  1  0
  1  7  2  0
  2  5  1  0
  3 10  1  0
  4 51  1  0
  4  1  1  0
  5 14  1  0
  5  3  1  0
  6  2  1  0
  6  4  1  0
  8  6  1  0
  9  6  1  0
 10 12  1  0
 10 13  1  0
 11 10  1  0
 15 14  1  0
 16 21  1  0
 17 18  1  0
 17 16  1  0
 19 18  1  0
 19 26  1  0
 19 20  1  0
 21 15  1  0
 21 20  1  0
 22 15  2  0
 23 24  2  0
 24 43  1  0
 25 24  1  0
 25 28  1  0
 26 27  1  0
 26 23  1  0
 27 25  2  0
 28 29  1  0
 29 30  2  0
 31 34  1  0
 31 30  1  0
 32 31  2  0
 33 32  1  0
 33 28  2  0
 34 35  1  0
 35 40  2  0
 35 36  1  0
 36 37  2  0
 37 38  1  0
 38 42  1  0
 39 38  2  0
 40 39  1  0
 41 40  1  0
 43 44  1  0
 44 47  1  0
 44 46  1  0
 45 43  2  0
 48 23  1  0
 48 49  1  0
 50 48  1  0
 51 52  2  0
 52 53  1  0
 54 65  2  0
 55 53  1  0
 55 60  1  0
 56 64  1  0
 56 66  1  0
 57 63  1  0
 57 59  1  0
 58 64  1  0
 59 58  1  0
 60 59  2  0
 61 62  1  0
 61 55  2  0
 62 57  2  0
 63 56  1  0
 64 54  1  0
 66 68  2  0
 67 66  1  0
 69 67  1  0
 70 79  2  0
 70 75  1  0
 71 67  1  0
 71 75  1  0
 72 71  1  0
 73 74  1  0
 73 72  1  0
 74 70  1  0
 75 76  2  0
 76 77  1  0
 78 77  2  0
 79 78  1  0
 80 54  1  0
 80 85  1  0
 80 81  1  0
 81 84  1  1
 81 82  1  0
 83 81  1  0
 85 88  1  0
 86 90  1  0
 86 85  1  0
 87 86  2  0
 90 89  1  0
 92 90  1  0
 92 93  1  0
 92 91  1  0
M  ISO  4  14 100  15 100  52 101  53 101
M  END
>  <TORSDO>  (29) 
F 20

>  <SCORE>  (29) 
-14.363

>  <name>  (29) 
28

>  <ligand_id>  (29) 
28

>  <original_smiles>  (29) 
[H]c1c([H])c([H])c2c(c1[H])C([H])([H])C([H])([H])C([H])([H])C2([H])N([H])C(=O)C1([H])N(C(=O)C([H])(N([H])C(=O)C([H])(N([H])C([H])([H])[H])C([H])([H])[H])C(C([H])([H])[H])(C([H])([H])[H])C([H])([H])[H])C([H])([H])c2c([H])c(OC([H])([H])C([H])([H])C3([H])C(=O)C([H])([N+]([H])([H])[H])C([H])(C([H])([H])C(=O)N4C([H])([H])C([H])([H])C([H])([H])C([H])(n5nc(-c6c([H])c([H])c(Oc7c([H])c([H])c(F)c([H])c7F)c([H])c6[H])c(C(=O)N([H])[H])c5N([H])[H])C4([H])[H])C([H])([H])[N+]3([H])[H])c([H])c([H])c2C1([H])[H]

>  <smiles>  (29) 
[H]c1c([H])c([H])c2c(c1[H])C([H])([H])C([H])([H])C([H])([H])C2([H])N([H])C(=O)C1([H])N(C(=O)C([H])(N([H])C(=O)C([H])(N([H])C([H])([H])[H])C([H])([H])[H])C(C([H])([H])[H])(C([H])([H])[H])C([H])([H])[H])C([H])([H])c2c([H])c(OC([H])([H])C([H])([H])C3([H])C(=O)C([H])([N+]([H])([H])[H])C([H])(C([H])([H])C(=O)N4C([H])([H])C([H])([H])C([H])([H])C([H])(n5nc(-c6c([H])c([H])c(Oc7c([H])c([H])c(F)c([H])c7F)c([H])c6[H])c(C(=O)N([H])[H])c5N([H])[H])C4([H])[H])C([H])([H])[N+]3([H])[H])c([H])c([H])c2C1([H])[H]

$$$$
29:0:0
     RDKit          3D

 95104  0  0  1  0  0  0  0  0999 V2000
  -27.4680  -21.8950   20.5930 C   0  0  0  0  0  2  0  0  0  0  0  0
  -28.0290  -20.4030   20.7350 C   0  0  0  0  0  2  0  0  0  0  0  0
  -28.4400  -22.9320   19.9160 C   0  0  0  0  0  3  0  0  0  0  0  0
  -29.2150  -20.1290   19.7790 C   0  0  0  0  0  3  0  0  0  0  0  0
  -29.6900  -21.7720   19.8350 C   0  0  0  0  0  3  0  0  0  0  0  0
  -31.0480  -18.8170   21.1980 C   0  0  0  0  0  1  0  0  0  0  0  0
  -30.1670  -18.6270   19.9560 C   0  0  0  0  0  3  0  0  0  0  0  0
  -29.7270  -16.9060   19.9200 C   0  0  0  0  0  2  0  0  0  0  0  0
  -30.6310  -15.4220   19.8400 C   0  0  0  0  0  0  0  0  0  0  0  0
  -30.6010  -12.9690   19.0210 C   0  0  0  0  0  2  0  0  0  0  0  0
  -29.6130  -12.7980   17.8380 C   0  0  0  0  0  2  0  0  0  0  0  0
  -28.1820  -12.5410   18.3470 C   0  0  0  0  0  2  0  0  0  0  0  0
  -27.7960  -13.5080   19.4950 C   0  0  0  0  0  3  0  0  0  0  0  0
  -28.9010  -13.6340   20.5610 C   0  0  0  0  0  2  0  0  0  0  0  0
  -30.1180  -14.1020   19.8840 N   0  0  0  0  0  0  0  0  0  0  0  0
  -31.8330  -15.4600   19.5400 O   0  0  0  0  0  0  0  0  0  0  0  0
  -25.4880  -14.0770   20.4270 C   0  0  0  0  0  0  0  0  0  0  0  0
  -24.4390  -13.3030   20.8380 C   0  0  0  0  0  0  0  0  0  0  0  0
  -24.8810  -11.9490   20.7290 C   0  0  0  0  0  0  0  0  0  0  0  0
  -26.4970  -13.1960   20.0790 N   0  0  0  0  0  0  0  0  0  0  0  0
  -26.1480  -11.9070   20.3300 N   0  0  0  0  0  0  0  0  0  0  0  0
  -24.1480  -10.6900   20.9210 C   0  0  0  0  0  0  0  0  0  0  0  0
  -24.5610   -9.7280   21.8700 C   0  0  0  0  0  3  0  0  0  0  0  0
  -23.8250   -8.5370   22.0500 C   0  0  0  0  0  3  0  0  0  0  0  0
  -22.6600   -8.2990   21.2830 C   0  0  0  0  0  0  0  0  0  0  0  0
  -22.2640   -9.2500   20.3250 C   0  0  0  0  0  3  0  0  0  0  0  0
  -23.0010  -10.4320   20.1420 C   0  0  0  0  0  3  0  0  0  0  0  0
  -21.8960   -7.1600   21.3730 O   0  0  0  0  0  0  0  0  0  0  0  0
  -21.7540   -6.4810   22.5570 C   0  0  0  0  0  0  0  0  0  0  0  0
  -21.1780   -7.0810   23.6970 C   0  0  0  0  0  3  0  0  0  0  0  0
  -20.9880   -6.3250   24.8710 C   0  0  0  0  0  3  0  0  0  0  0  0
  -21.3610   -4.9680   24.9040 C   0  0  0  0  0  0  0  0  0  0  0  0
  -21.9280   -4.3660   23.7660 C   0  0  0  0  0  3  0  0  0  0  0  0
  -22.1210   -5.1210   22.5950 C   0  0  0  0  0  0  0  0  0  0  0  0
  -22.6490   -4.5290   21.4960 F   0  0  0  0  0  0  0  0  0  0  0  0
  -21.1720   -4.2400   26.0280 F   0  0  0  0  0  0  0  0  0  0  0  0
  -23.0700  -13.7900   21.2150 C   0  0  0  0  0  0  0  0  0  0  0  0
  -22.3860  -13.0750   22.1010 N   0  0  0  0  0  0  0  0  0  0  0  0
  -22.6180  -14.8380   20.7560 O   0  0  0  0  0  0  0  0  0  0  0  0
  -22.7660  -12.2270   22.4940 H   0  0  0  0  0  0  0  0  0  0  0  0
  -21.4700  -13.3820   22.3940 H   0  0  0  0  0  0  0  0  0  0  0  0
  -25.6620  -15.4520   20.2920 N   0  0  0  0  0  0  0  0  0  0  0  0
  -24.9190  -16.1120   20.4890 H   0  0  0  0  0  0  0  0  0  0  0  0
  -26.5000  -15.8930   19.9350 H   0  0  0  0  0  0  0  0  0  0  0  0
  -30.6000  -22.0640   18.6250 C   0  0  0  0  0  2  0  0  0  0  0  0
  -33.5470  -24.0280   18.5040 C   0  0  0  0  0  2  0  0  0  0  0  0
  -32.7450  -24.8360   17.4910 C   0  0  0  0  0  2  0  0  0  0  0  0
  -32.4760  -23.4880   19.4560 C   0  0  0  0  0  2  0  0  0  0  0  0
  -31.4530  -24.0210   17.3470 C   0  0  0  0  0  3  0  0  0  0  0  0
  -31.2150  -23.4140   18.6800 N   0  0  1  0  0  4  0  0  0  0  0  0
  -30.5580  -24.0190   19.1500 H   0  0  0  0  0  0  0  0  0  0  0  0
  -30.3950  -25.4070   15.4540 C   0  0  0  0  0  1  0  0  0  0  0  0
  -30.2400  -24.8490   16.8740 C   0  0  0  0  0  2  0  0  0  0  0  0
  -28.2430  -24.5820   20.5780 C   0  0  0  0  0  2  0  0  0  0  0  0
  -28.3770  -26.1420   20.1520 O   0  0  0  0  0  0  0  0  0  0  0  0
  -24.5920  -31.9180   23.1610 C   0  0  0  0  0  0  0  0  0  0  0  0
  -27.3130  -27.1670   20.1670 C   0  0  0  0  0  0  0  0  0  0  0  0
  -23.4550  -30.5070   21.4940 C   0  0  0  0  0  3  0  0  0  0  0  0
  -24.9640  -28.9520   20.0910 C   0  0  0  0  0  0  0  0  0  0  0  0
  -26.0140  -30.7970   21.3840 C   0  0  0  0  0  2  0  0  0  0  0  0
  -26.1310  -29.3960   20.7270 C   0  0  0  0  0  0  0  0  0  0  0  0
  -27.3050  -28.5270   20.7350 C   0  0  0  0  0  3  0  0  0  0  0  0
  -26.1130  -26.8540   19.4970 C   0  0  0  0  0  3  0  0  0  0  0  0
  -24.9750  -27.6990   19.4580 C   0  0  0  0  0  3  0  0  0  0  0  0
  -23.7210  -29.8380   20.1190 C   0  0  0  0  0  2  0  0  0  0  0  0
  -24.7080  -31.1000   22.0670 N   0  0  0  0  0  0  0  0  0  0  0  0
  -23.4880  -32.1790   23.6670 O   0  0  0  0  0  0  0  0  0  0  0  0
  -22.7730  -29.4870   22.4420 C   0  0  0  0  0  0  0  0  0  0  0  0
  -21.4500  -29.2890   22.2890 N   0  0  0  0  0  0  0  0  0  0  0  0
  -23.4380  -28.8740   23.2790 O   0  0  0  0  0  0  0  0  0  0  0  0
  -20.9660  -29.8360   21.5900 H   0  0  0  0  0  0  0  0  0  0  0  0
  -18.0860  -28.0090   22.7310 C   0  0  0  0  0  0  0  0  0  0  0  0
  -20.6350  -28.3280   23.0380 C   0  0  0  0  0  3  0  0  0  0  0  0
  -20.7780  -26.9040   22.4520 C   0  0  0  0  0  2  0  0  0  0  0  0
  -19.6980  -26.5650   21.4190 C   0  0  0  0  0  2  0  0  0  0  0  0
  -18.3040  -26.6720   22.0410 C   0  0  0  0  0  2  0  0  0  0  0  0
  -19.1800  -28.7930   23.1840 C   0  0  0  0  0  0  0  0  0  0  0  0
  -18.9220  -30.0410   23.7910 C   0  0  0  0  0  3  0  0  0  0  0  0
  -17.6030  -30.5080   23.9460 C   0  0  0  0  0  3  0  0  0  0  0  0
  -16.5230  -29.7210   23.5090 C   0  0  0  0  0  3  0  0  0  0  0  0
  -16.7650  -28.4730   22.9080 C   0  0  0  0  0  3  0  0  0  0  0  0
  -25.8400  -32.5840   23.8190 C   0  0  0  0  0  3  0  0  0  0  0  0
  -25.4910  -33.9770   24.1460 N   0  0  0  0  0  0  0  0  0  0  0  0
  -25.8110  -35.0430   23.4000 C   0  0  0  0  0  0  0  0  0  0  0  0
  -26.4930  -34.9590   22.3760 O   0  0  0  0  0  0  0  0  0  0  0  0
  -24.8890  -34.1160   24.9440 H   0  0  0  0  0  0  0  0  0  0  0  0
  -24.0590  -36.8130   23.0330 C   0  0  0  0  0  1  0  0  0  0  0  0
  -25.2930  -36.4210   23.8620 C   0  0  0  0  0  3  0  0  0  0  0  0
  -27.3910  -37.3440   24.7440 C   0  0  0  0  0  1  0  0  0  0  0  0
  -26.3080  -37.4950   23.7750 N   0  0  0  0  0  0  0  0  0  0  0  0
  -25.8800  -38.4050   23.9180 H   0  0  0  0  0  0  0  0  0  0  0  0
  -26.3310  -31.8280   25.1150 C   0  0  1  0  0  0  0  0  0  0  0  0
  -25.2100  -31.5750   26.1510 C   0  0  0  0  0  1  0  0  0  0  0  0
  -26.9520  -30.4610   24.7530 C   0  0  0  0  0  1  0  0  0  0  0  0
  -27.4460  -32.6480   25.8070 C   0  0  0  0  0  1  0  0  0  0  0  0
  1  2  1  0
  3 54  1  0
  3  1  1  0
  4  5  1  0
  4  7  1  0
  4  2  1  0
  5 45  1  0
  5  3  1  0
  7  6  1  0
  8  7  1  0
  9 15  1  0
  9  8  1  0
 10 15  1  0
 11 12  1  0
 11 10  1  0
 13 12  1  0
 13 20  1  0
 13 14  1  0
 15 14  1  0
 16  9  2  0
 17 18  2  0
 18 37  1  0
 19 18  1  0
 19 22  1  0
 20 21  1  0
 20 17  1  0
 21 19  2  0
 22 23  1  0
 23 24  2  0
 25 28  1  0
 25 24  1  0
 26 25  2  0
 27 26  1  0
 27 22  2  0
 28 29  1  0
 29 34  2  0
 29 30  1  0
 30 31  2  0
 31 32  1  0
 32 36  1  0
 33 32  2  0
 34 33  1  0
 35 34  1  0
 37 38  1  0
 38 41  1  0
 38 40  1  0
 39 37  2  0
 42 17  1  0
 42 43  1  0
 44 42  1  0
 45 50  1  0
 46 48  1  0
 47 46  1  0
 49 53  1  0
 49 47  1  0
 49 50  1  0
 50 51  1  1
 50 48  1  0
 52 53  1  0
 55 57  1  0
 55 54  1  0
 56 67  2  0
 57 62  1  0
 58 66  1  0
 58 68  1  0
 59 65  1  0
 59 61  1  0
 60 66  1  0
 61 62  2  0
 61 60  1  0
 63 57  2  0
 64 63  1  0
 64 59  2  0
 65 58  1  0
 66 56  1  0
 68 70  2  0
 69 68  1  0
 71 69  1  0
 72 81  2  0
 72 77  1  0
 73 69  1  0
 73 77  1  0
 74 73  1  0
 75 76  1  0
 75 74  1  0
 76 72  1  0
 77 78  2  0
 78 79  1  0
 80 79  2  0
 81 80  1  0
 82 56  1  0
 82 83  1  0
 82 92  1  0
 83 86  1  0
 84 88  1  0
 84 83  1  0
 85 84  2  0
 88 87  1  0
 90 88  1  0
 90 91  1  0
 90 89  1  0
 92 95  1  1
 92 93  1  0
 94 92  1  0
M  ISO  4   8 100   9 100  54 101  55 101
M  END
>  <TORSDO>  (30) 
F 22

>  <SCORE>  (30) 
-14.563

>  <name>  (30) 
29

>  <ligand_id>  (30) 
29

>  <original_smiles>  (30) 
[H]c1c([H])c([H])c2c(c1[H])C([H])([H])C([H])([H])C([H])([H])C2([H])N([H])C(=O)C1([H])N(C(=O)C([H])(N([H])C(=O)C([H])(N([H])C([H])([H])[H])C([H])([H])[H])C(C([H])([H])[H])(C([H])([H])[H])C([H])([H])[H])C([H])([H])c2c([H])c(OC([H])([H])C3([H])C([H])([H])C([H])([H])C([H])(C([H])(C([H])([H])[H])C([H])([H])C(=O)N4C([H])([H])C([H])([H])C([H])([H])C([H])(n5nc(-c6c([H])c([H])c(Oc7c([H])c([H])c(F)c([H])c7F)c([H])c6[H])c(C(=O)N([H])[H])c5N([H])[H])C4([H])[H])C3([H])C([H])([H])[N+]3([H])C([H])([H])C([H])([H])C([H])([H])C3([H])C([H])([H])C([H])([H])[H])c([H])c([H])c2C1([H])[H]

>  <smiles>  (30) 
[H]c1c([H])c([H])c2c(c1[H])C([H])([H])C([H])([H])C([H])([H])C2([H])N([H])C(=O)C1([H])N(C(=O)C([H])(N([H])C(=O)C([H])(N([H])C([H])([H])[H])C([H])([H])[H])C(C([H])([H])[H])(C([H])([H])[H])C([H])([H])[H])C([H])([H])c2c([H])c(OC([H])([H])C3([H])C([H])([H])C([H])([H])C([H])(C([H])(C([H])([H])[H])C([H])([H])C(=O)N4C([H])([H])C([H])([H])C([H])([H])C([H])(n5nc(-c6c([H])c([H])c(Oc7c([H])c([H])c(F)c([H])c7F)c([H])c6[H])c(C(=O)N([H])[H])c5N([H])[H])C4([H])[H])C3([H])C([H])([H])[N+]3([H])C([H])([H])C([H])([H])C([H])([H])C3([H])C([H])([H])C([H])([H])[H])c([H])c([H])c2C1([H])[H]

$$$$
30:0:0
     RDKit          3D

 86 94  0  0  1  0  0  0  0  0999 V2000
  -29.5010  -18.4350   20.3230 C   0  0  0  0  0  0  0  0  0  0  0  0
  -27.9780  -20.9920   20.0310 C   0  0  0  0  0  0  0  0  0  0  0  0
  -28.2280  -19.4490   20.6450 C   0  0  0  0  0  2  0  0  0  0  0  0
  -30.5020  -19.7000   19.9470 C   0  0  0  0  0  2  0  0  0  0  0  0
  -30.2460  -21.4070   20.2580 C   0  0  0  0  0  2  0  0  0  0  0  0
  -28.8280  -22.3270   20.3980 C   0  0  0  0  0  3  0  0  0  0  0  0
  -29.4860  -16.9600   20.4180 N   0  0  0  0  0  0  0  0  0  0  0  0
  -27.0450  -21.1400   19.2330 O   0  0  0  0  0  0  0  0  0  0  0  0
  -30.3660  -15.6230   20.2560 C   0  0  0  0  0  0  0  0  0  0  0  0
  -30.4600  -13.0840   19.4860 C   0  0  0  0  0  2  0  0  0  0  0  0
  -29.5590  -12.6820   18.2800 C   0  0  0  0  0  2  0  0  0  0  0  0
  -28.1400  -12.3430   18.7460 C   0  0  0  0  0  2  0  0  0  0  0  0
  -27.6240  -13.3910   19.7530 C   0  0  0  0  0  3  0  0  0  0  0  0
  -28.6390  -13.6980   20.8750 C   0  0  0  0  0  2  0  0  0  0  0  0
  -29.8570  -14.2600   20.2510 N   0  0  0  0  0  0  0  0  0  0  0  0
  -31.5840  -15.5850   20.0290 O   0  0  0  0  0  0  0  0  0  0  0  0
  -25.2550  -13.9570   20.4870 C   0  0  0  0  0  0  0  0  0  0  0  0
  -24.1840  -13.1880   20.8400 C   0  0  0  0  0  0  0  0  0  0  0  0
  -24.6440  -11.8360   20.8240 C   0  0  0  0  0  0  0  0  0  0  0  0
  -26.2950  -13.0770   20.2580 N   0  0  0  0  0  0  0  0  0  0  0  0
  -25.9400  -11.7950   20.5300 N   0  0  0  0  0  0  0  0  0  0  0  0
  -23.9040  -10.5790   21.0110 C   0  0  0  0  0  0  0  0  0  0  0  0
  -24.3150   -9.6080   21.9530 C   0  0  0  0  0  3  0  0  0  0  0  0
  -23.5700   -8.4200   22.1280 C   0  0  0  0  0  3  0  0  0  0  0  0
  -22.4010   -8.1950   21.3610 C   0  0  0  0  0  0  0  0  0  0  0  0
  -22.0110   -9.1550   20.4100 C   0  0  0  0  0  3  0  0  0  0  0  0
  -22.7570  -10.3320   20.2330 C   0  0  0  0  0  3  0  0  0  0  0  0
  -21.6320   -7.0620   21.4450 O   0  0  0  0  0  0  0  0  0  0  0  0
  -21.5620   -6.3220   22.5990 C   0  0  0  0  0  0  0  0  0  0  0  0
  -21.1170   -6.8810   23.8180 C   0  0  0  0  0  3  0  0  0  0  0  0
  -20.9950   -6.0670   24.9610 C   0  0  0  0  0  3  0  0  0  0  0  0
  -21.3090   -4.6980   24.8870 C   0  0  0  0  0  0  0  0  0  0  0  0
  -21.7490   -4.1390   23.6750 C   0  0  0  0  0  3  0  0  0  0  0  0
  -21.8710   -4.9480   22.5330 C   0  0  0  0  0  0  0  0  0  0  0  0
  -22.2740   -4.4010   21.3610 F   0  0  0  0  0  0  0  0  0  0  0  0
  -21.1840   -3.9140   25.9850 F   0  0  0  0  0  0  0  0  0  0  0  0
  -22.7860  -13.6770   21.0820 C   0  0  0  0  0  0  0  0  0  0  0  0
  -22.0420  -13.0020   21.9500 N   0  0  0  0  0  0  0  0  0  0  0  0
  -22.3660  -14.6990   20.5390 O   0  0  0  0  0  0  0  0  0  0  0  0
  -22.3980  -12.1770   22.4110 H   0  0  0  0  0  0  0  0  0  0  0  0
  -21.1010  -13.3100   22.1500 H   0  0  0  0  0  0  0  0  0  0  0  0
  -25.4300  -15.3290   20.3110 N   0  0  0  0  0  0  0  0  0  0  0  0
  -24.6710  -15.9890   20.4340 H   0  0  0  0  0  0  0  0  0  0  0  0
  -26.3120  -15.7660   20.0680 H   0  0  0  0  0  0  0  0  0  0  0  0
  -28.3220  -24.0780   19.8380 C   0  0  0  0  0  2  0  0  0  0  0  0
  -28.3530  -25.7470   20.2520 O   0  0  0  0  0  0  0  0  0  0  0  0
  -24.6410  -31.8060   23.1250 C   0  0  0  0  0  0  0  0  0  0  0  0
  -27.3390  -26.8880   20.1340 C   0  0  0  0  0  0  0  0  0  0  0  0
  -23.5090  -30.4120   21.4370 C   0  0  0  0  0  3  0  0  0  0  0  0
  -25.0130  -28.8100   20.0440 C   0  0  0  0  0  0  0  0  0  0  0  0
  -26.0780  -30.6200   21.3670 C   0  0  0  0  0  2  0  0  0  0  0  0
  -26.1840  -29.2040   20.7040 C   0  0  0  0  0  0  0  0  0  0  0  0
  -27.3300  -28.2670   20.7230 C   0  0  0  0  0  3  0  0  0  0  0  0
  -26.1350  -26.6770   19.4170 C   0  0  0  0  0  3  0  0  0  0  0  0
  -25.0210  -27.5690   19.3840 C   0  0  0  0  0  3  0  0  0  0  0  0
  -23.7810  -29.7300   20.0670 C   0  0  0  0  0  2  0  0  0  0  0  0
  -24.7640  -30.9740   22.0330 N   0  0  0  0  0  0  0  0  0  0  0  0
  -23.5380  -32.0810   23.6220 O   0  0  0  0  0  0  0  0  0  0  0  0
  -22.7870  -29.4180   22.3860 C   0  0  0  0  0  0  0  0  0  0  0  0
  -21.4570  -29.2680   22.2490 N   0  0  0  0  0  0  0  0  0  0  0  0
  -23.4380  -28.7820   23.2190 O   0  0  0  0  0  0  0  0  0  0  0  0
  -20.9950  -29.7630   21.4980 H   0  0  0  0  0  0  0  0  0  0  0  0
  -18.0580  -28.1360   22.8180 C   0  0  0  0  0  0  0  0  0  0  0  0
  -20.6270  -28.3490   23.0380 C   0  0  0  0  0  3  0  0  0  0  0  0
  -20.6880  -26.9260   22.4380 C   0  0  0  0  0  2  0  0  0  0  0  0
  -19.5750  -26.6740   21.4130 C   0  0  0  0  0  2  0  0  0  0  0  0
  -18.2070  -26.8100   22.0900 C   0  0  0  0  0  2  0  0  0  0  0  0
  -19.1980  -28.8630   23.2540 C   0  0  0  0  0  0  0  0  0  0  0  0
  -19.0080  -30.0950   23.9140 C   0  0  0  0  0  3  0  0  0  0  0  0
  -17.7140  -30.6030   24.1370 C   0  0  0  0  0  3  0  0  0  0  0  0
  -16.5870  -29.8750   23.7130 C   0  0  0  0  0  3  0  0  0  0  0  0
  -16.7610  -28.6420   23.0560 C   0  0  0  0  0  3  0  0  0  0  0  0
  -25.8830  -32.4620   23.7980 C   0  0  0  0  0  3  0  0  0  0  0  0
  -25.5380  -33.8570   24.1390 N   0  0  0  0  0  0  0  0  0  0  0  0
  -25.8740  -34.9360   23.4170 C   0  0  0  0  0  0  0  0  0  0  0  0
  -26.5610  -34.8640   22.3960 O   0  0  0  0  0  0  0  0  0  0  0  0
  -24.9250  -33.9870   24.9300 H   0  0  0  0  0  0  0  0  0  0  0  0
  -24.1290  -36.7280   23.0780 C   0  0  0  0  0  1  0  0  0  0  0  0
  -25.3630  -36.3130   23.8960 C   0  0  0  0  0  3  0  0  0  0  0  0
  -27.4700  -37.2140   24.7810 C   0  0  0  0  0  1  0  0  0  0  0  0
  -26.3870  -37.3790   23.8170 N   0  0  0  0  0  0  0  0  0  0  0  0
  -25.9680  -38.2940   23.9640 H   0  0  0  0  0  0  0  0  0  0  0  0
  -26.3680  -31.6950   25.0890 C   0  0  1  0  0  0  0  0  0  0  0  0
  -25.2480  -31.4440   26.1260 C   0  0  0  0  0  1  0  0  0  0  0  0
  -26.9770  -30.3260   24.7150 C   0  0  0  0  0  1  0  0  0  0  0  0
  -27.4950  -32.4980   25.7800 C   0  0  0  0  0  1  0  0  0  0  0  0
  1  7  2  0
  1  3  1  0
  2  6  1  0
  2  3  1  0
  4  5  1  0
  4  1  1  0
  5  6  1  0
  6 45  1  0
  8  2  2  0
  9  7  1  0
 10 15  1  0
 11 12  1  0
 11 10  1  0
 13 12  1  0
 13 20  1  0
 13 14  1  0
 15  9  1  0
 15 14  1  0
 16  9  2  0
 17 18  2  0
 18 37  1  0
 19 18  1  0
 19 22  1  0
 20 17  1  0
 20 21  1  0
 21 19  2  0
 22 23  1  0
 23 24  2  0
 25 28  1  0
 25 24  1  0
 26 25  2  0
 27 26  1  0
 27 22  2  0
 28 29  1  0
 29 30  1  0
 30 31  2  0
 32 31  1  0
 32 36  1  0
 33 32  2  0
 34 29  2  0
 34 33  1  0
 35 34  1  0
 37 38  1  0
 38 41  1  0
 38 40  1  0
 39 37  2  0
 42 43  1  0
 42 17  1  0
 44 42  1  0
 45 46  1  0
 47 58  2  0
 48 46  1  0
 48 53  1  0
 49 57  1  0
 49 59  1  0
 50 56  1  0
 50 52  1  0
 51 57  1  0
 52 53  2  0
 52 51  1  0
 54 48  2  0
 55 54  1  0
 55 50  2  0
 56 49  1  0
 57 47  1  0
 59 61  2  0
 60 59  1  0
 62 60  1  0
 63 72  2  0
 63 68  1  0
 64 60  1  0
 64 68  1  0
 65 64  1  0
 66 67  1  0
 66 65  1  0
 67 63  1  0
 68 69  2  0
 69 70  1  0
 71 70  2  0
 72 71  1  0
 73 47  1  0
 73 74  1  0
 73 83  1  0
 74 77  1  0
 75 79  1  0
 75 74  1  0
 76 75  2  0
 79 78  1  0
 81 79  1  0
 81 82  1  0
 81 80  1  0
 83 86  1  1
 83 84  1  0
 85 83  1  0
M  ISO  4   7 100   9 100  45 101  46 101
M  END
>  <TORSDO>  (31) 
F 17

>  <SCORE>  (31) 
-15.824

>  <name>  (31) 
30

>  <ligand_id>  (31) 
30

>  <original_smiles>  (31) 
[H]c1c([H])c([H])c2c(c1[H])C([H])([H])C([H])([H])C([H])([H])C2([H])N([H])C(=O)C1([H])N(C(=O)C([H])(N([H])C(=O)C([H])(N([H])C([H])([H])[H])C([H])([H])[H])C(C([H])([H])[H])(C([H])([H])[H])C([H])([H])[H])C([H])([H])c2c([H])c(OC([H])([H])C3([H])C(=O)C([H])([H])C(=NC(=O)N4C([H])([H])C([H])([H])C([H])([H])C([H])(n5nc(-c6c([H])c([H])c(Oc7c([H])c([H])c(F)c([H])c7F)c([H])c6[H])c(C(=O)N([H])[H])c5N([H])[H])C4([H])[H])C([H])([H])C3([H])[H])c([H])c([H])c2C1([H])[H]

>  <smiles>  (31) 
[H]c1c([H])c([H])c2c(c1[H])C([H])([H])C([H])([H])C([H])([H])C2([H])N([H])C(=O)C1([H])N(C(=O)C([H])(N([H])C(=O)C([H])(N([H])C([H])([H])[H])C([H])([H])[H])C(C([H])([H])[H])(C([H])([H])[H])C([H])([H])[H])C([H])([H])c2c([H])c(OC([H])([H])C3([H])C(=O)C([H])([H])C(=NC(=O)N4C([H])([H])C([H])([H])C([H])([H])C([H])(n5nc(-c6c([H])c([H])c(Oc7c([H])c([H])c(F)c([H])c7F)c([H])c6[H])c(C(=O)N([H])[H])c5N([H])[H])C4([H])[H])C([H])([H])C3([H])[H])c([H])c([H])c2C1([H])[H]

$$$$
31:0:0
     RDKit          3D

 90 98  0  0  1  0  0  0  0  0999 V2000
  -30.7480  -21.6470   20.3250 C   0  0  0  0  0  2  0  0  0  0  0  0
  -30.9880  -20.1600   20.7800 C   0  0  0  0  0  2  0  0  0  0  0  0
  -28.3880  -21.0780   19.9600 C   0  0  0  0  0  2  0  0  0  0  0  0
  -29.3100  -22.2190   20.5620 C   0  0  0  0  0  3  0  0  0  0  0  0
  -30.0140  -19.0750   20.2040 C   0  0  0  0  0  3  0  0  0  0  0  0
  -28.6470  -19.6540   20.4560 N   0  0  0  0  0  4  0  0  0  0  0  0
  -27.9660  -19.0520   20.0190 H   0  0  0  0  0  0  0  0  0  0  0  0
  -28.4630  -19.6320   21.4470 H   0  0  0  0  0  0  0  0  0  0  0  0
  -30.2290  -17.4380   22.2710 C   0  0  0  0  0  1  0  0  0  0  0  0
  -30.3580  -17.5470   20.7400 C   0  0  0  0  0  3  0  0  0  0  0  0
  -29.7840  -16.1750   20.0810 C   0  0  0  0  0  2  0  0  0  0  0  0
  -30.6330  -14.7940   20.0390 C   0  0  0  0  0  0  0  0  0  0  0  0
  -30.4010  -12.5240   19.0260 C   0  0  0  0  0  2  0  0  0  0  0  0
  -29.4000  -12.6300   17.8520 C   0  0  0  0  0  2  0  0  0  0  0  0
  -27.9490  -12.4600   18.3490 C   0  0  0  0  0  2  0  0  0  0  0  0
  -27.6420  -13.3220   19.6020 C   0  0  0  0  0  3  0  0  0  0  0  0
  -28.7560  -13.2080   20.6620 C   0  0  0  0  0  2  0  0  0  0  0  0
  -30.0290  -13.5540   20.0230 N   0  0  0  0  0  0  0  0  0  0  0  0
  -31.8280  -14.8720   19.7380 O   0  0  0  0  0  0  0  0  0  0  0  0
  -25.3060  -13.9150   20.4790 C   0  0  0  0  0  0  0  0  0  0  0  0
  -24.2550  -13.1420   20.8880 C   0  0  0  0  0  0  0  0  0  0  0  0
  -24.7040  -11.7880   20.8030 C   0  0  0  0  0  0  0  0  0  0  0  0
  -26.3260  -13.0340   20.1610 N   0  0  0  0  0  0  0  0  0  0  0  0
  -25.9750  -11.7470   20.4230 N   0  0  0  0  0  0  0  0  0  0  0  0
  -23.9760  -10.5270   21.0020 C   0  0  0  0  0  0  0  0  0  0  0  0
  -24.4300   -9.5480   21.9150 C   0  0  0  0  0  3  0  0  0  0  0  0
  -23.7020   -8.3530   22.1010 C   0  0  0  0  0  3  0  0  0  0  0  0
  -22.5060   -8.1290   21.3770 C   0  0  0  0  0  0  0  0  0  0  0  0
  -22.0720   -9.0970   20.4540 C   0  0  0  0  0  3  0  0  0  0  0  0
  -22.8010  -10.2830   20.2650 C   0  0  0  0  0  3  0  0  0  0  0  0
  -21.7480   -6.9870   21.4760 O   0  0  0  0  0  0  0  0  0  0  0  0
  -21.7090   -6.2470   22.6300 C   0  0  0  0  0  0  0  0  0  0  0  0
  -21.2770   -6.8000   23.8550 C   0  0  0  0  0  3  0  0  0  0  0  0
  -21.1830   -5.9850   25.0020 C   0  0  0  0  0  3  0  0  0  0  0  0
  -21.5140   -4.6200   24.9240 C   0  0  0  0  0  0  0  0  0  0  0  0
  -21.9390   -4.0660   23.7040 C   0  0  0  0  0  3  0  0  0  0  0  0
  -22.0320   -4.8780   22.5600 C   0  0  0  0  0  0  0  0  0  0  0  0
  -22.4230   -4.3340   21.3810 F   0  0  0  0  0  0  0  0  0  0  0  0
  -21.4180   -3.8350   26.0230 F   0  0  0  0  0  0  0  0  0  0  0  0
  -22.8760  -13.6240   21.2410 C   0  0  0  0  0  0  0  0  0  0  0  0
  -22.1840  -12.9110   22.1220 N   0  0  0  0  0  0  0  0  0  0  0  0
  -22.4240  -14.6650   20.7670 O   0  0  0  0  0  0  0  0  0  0  0  0
  -22.5640  -12.0680   22.5280 H   0  0  0  0  0  0  0  0  0  0  0  0
  -21.2590  -13.2120   22.3950 H   0  0  0  0  0  0  0  0  0  0  0  0
  -25.4720  -15.2890   20.3260 N   0  0  0  0  0  0  0  0  0  0  0  0
  -24.7180  -15.9440   20.4930 H   0  0  0  0  0  0  0  0  0  0  0  0
  -26.3030  -15.7280   19.9520 H   0  0  0  0  0  0  0  0  0  0  0  0
  -29.1610  -23.7650   20.0260 C   0  0  0  0  0  3  0  0  0  0  0  0
  -28.2020  -24.8970   20.6860 C   0  0  0  0  0  3  0  0  0  0  0  0
  -28.4060  -26.3700   20.4080 O   0  0  0  0  0  0  0  0  0  0  0  0
  -24.5890  -31.8730   23.2680 C   0  0  0  0  0  0  0  0  0  0  0  0
  -27.2930  -27.2440   20.3560 C   0  0  0  0  0  0  0  0  0  0  0  0
  -23.4360  -30.4470   21.6180 C   0  0  0  0  0  3  0  0  0  0  0  0
  -24.9290  -28.8820   20.2480 C   0  0  0  0  0  0  0  0  0  0  0  0
  -25.9800  -30.7700   21.4920 C   0  0  0  0  0  2  0  0  0  0  0  0
  -26.0840  -29.3770   20.8670 C   0  0  0  0  0  0  0  0  0  0  0  0
  -27.2710  -28.5740   20.9020 C   0  0  0  0  0  3  0  0  0  0  0  0
  -26.1170  -26.8170   19.7040 C   0  0  0  0  0  3  0  0  0  0  0  0
  -24.9530  -27.6100   19.6530 C   0  0  0  0  0  3  0  0  0  0  0  0
  -23.6870  -29.7530   20.2530 C   0  0  0  0  0  2  0  0  0  0  0  0
  -24.6870  -31.0510   22.1820 N   0  0  0  0  0  0  0  0  0  0  0  0
  -23.4910  -32.1490   23.7720 O   0  0  0  0  0  0  0  0  0  0  0  0
  -22.7500  -29.4430   22.5760 C   0  0  0  0  0  0  0  0  0  0  0  0
  -21.4220  -29.2820   22.4400 N   0  0  0  0  0  0  0  0  0  0  0  0
  -23.4140  -28.8090   23.4000 O   0  0  0  0  0  0  0  0  0  0  0  0
  -20.9480  -29.8410   21.7440 H   0  0  0  0  0  0  0  0  0  0  0  0
  -18.0200  -28.1460   22.9350 C   0  0  0  0  0  0  0  0  0  0  0  0
  -20.5840  -28.3570   23.2070 C   0  0  0  0  0  3  0  0  0  0  0  0
  -20.6610  -26.9270   22.6230 C   0  0  0  0  0  2  0  0  0  0  0  0
  -19.5530  -26.6320   21.6060 C   0  0  0  0  0  2  0  0  0  0  0  0
  -18.1730  -26.7980   22.2510 C   0  0  0  0  0  2  0  0  0  0  0  0
  -19.1530  -28.8840   23.3700 C   0  0  0  0  0  0  0  0  0  0  0  0
  -18.9560  -30.1460   23.9720 C   0  0  0  0  0  3  0  0  0  0  0  0
  -17.6600  -30.6680   24.1430 C   0  0  0  0  0  3  0  0  0  0  0  0
  -16.5420  -29.9260   23.7250 C   0  0  0  0  0  3  0  0  0  0  0  0
  -16.7240  -28.6670   23.1230 C   0  0  0  0  0  3  0  0  0  0  0  0
  -25.8500  -32.5210   23.9180 C   0  0  0  0  0  3  0  0  0  0  0  0
  -26.3250  -31.7750   25.2260 C   0  0  1  0  0  0  0  0  0  0  0  0
  -25.1970  -31.5510   26.2610 C   0  0  0  0  0  1  0  0  0  0  0  0
  -26.9250  -30.3920   24.8790 C   0  0  0  0  0  1  0  0  0  0  0  0
  -27.4500  -32.5850   25.9100 C   0  0  0  0  0  1  0  0  0  0  0  0
  -25.5260  -33.9230   24.2160 N   0  0  0  0  0  0  0  0  0  0  0  0
  -25.8780  -34.9650   23.4510 C   0  0  0  0  0  0  0  0  0  0  0  0
  -26.5770  -34.8470   22.4420 O   0  0  0  0  0  0  0  0  0  0  0  0
  -24.9050  -34.0880   24.9960 H   0  0  0  0  0  0  0  0  0  0  0  0
  -24.1640  -36.7550   23.0150 C   0  0  0  0  0  1  0  0  0  0  0  0
  -25.3770  -36.3620   23.8720 C   0  0  0  0  0  3  0  0  0  0  0  0
  -27.4820  -37.2610   24.7610 C   0  0  0  0  0  1  0  0  0  0  0  0
  -26.4150  -37.4130   23.7760 N   0  0  0  0  0  0  0  0  0  0  0  0
  -26.0070  -38.3360   23.8910 H   0  0  0  0  0  0  0  0  0  0  0  0
  1  4  1  0
  1  2  1  0
  3  6  1  0
  3  4  1  0
  4 48  1  0
  5  6  1  0
  5 10  1  0
  5  2  1  0
  6  8  1  0
  7  6  1  0
 10  9  1  0
 11 10  1  0
 12 11  1  0
 13 18  1  0
 14 15  1  0
 14 13  1  0
 16 15  1  0
 16 23  1  0
 16 17  1  0
 18 12  1  0
 18 17  1  0
 19 12  2  0
 20 21  2  0
 21 40  1  0
 22 21  1  0
 22 25  1  0
 23 24  1  0
 23 20  1  0
 24 22  2  0
 25 26  1  0
 26 27  2  0
 28 31  1  0
 28 27  1  0
 29 28  2  0
 30 29  1  0
 30 25  2  0
 31 32  1  0
 32 33  1  0
 33 34  2  0
 35 34  1  0
 35 39  1  0
 36 35  2  0
 37 32  2  0
 37 36  1  0
 38 37  1  0
 40 41  1  0
 41 44  1  0
 41 43  1  0
 42 40  2  0
 45 20  1  0
 45 46  1  0
 47 45  1  0
 48 49  2  0
 50 49  1  0
 51 62  2  0
 52 50  1  0
 52 57  1  0
 53 61  1  0
 53 63  1  0
 54 60  1  0
 54 56  1  0
 55 61  1  0
 56 57  2  0
 56 55  1  0
 58 52  2  0
 59 58  1  0
 59 54  2  0
 60 53  1  0
 61 51  1  0
 63 65  2  0
 64 63  1  0
 66 64  1  0
 67 76  2  0
 67 72  1  0
 68 64  1  0
 68 72  1  0
 69 68  1  0
 70 71  1  0
 70 69  1  0
 71 67  1  0
 72 73  2  0
 73 74  1  0
 75 74  2  0
 76 75  1  0
 77 51  1  0
 77 82  1  0
 77 78  1  0
 78 81  1  1
 78 79  1  0
 80 78  1  0
 82 85  1  0
 83 87  1  0
 83 82  1  0
 84 83  2  0
 87 86  1  0
 89 87  1  0
 89 90  1  0
 89 88  1  0
M  ISO  4  11 100  12 100  49 101  50 101
M  END
>  <TORSDO>  (32) 
F 20

>  <SCORE>  (32) 
-13.780

>  <name>  (32) 
31

>  <ligand_id>  (32) 
31

>  <original_smiles>  (32) 
[H]c1c([H])c([H])c2c(c1[H])C([H])([H])C([H])([H])C([H])([H])C2([H])N([H])C(=O)C1([H])N(C(=O)C([H])(N([H])C(=O)C([H])(N([H])C([H])([H])[H])C([H])([H])[H])C(C([H])([H])[H])(C([H])([H])[H])C([H])([H])[H])C([H])([H])c2c([H])c(OC([H])([H])C([H])([H])C3([H])C([H])([H])C([H])([H])C([H])(C([H])(C([H])([H])[H])C([H])([H])C(=O)N4C([H])([H])C([H])([H])C([H])([H])C([H])(n5nc(-c6c([H])c([H])c(Oc7c([H])c([H])c(F)c([H])c7F)c([H])c6[H])c(C(=O)N([H])[H])c5N([H])[H])C4([H])[H])[N+]([H])([H])C3([H])[H])c([H])c([H])c2C1([H])[H]

>  <smiles>  (32) 
[H]c1c([H])c([H])c2c(c1[H])C([H])([H])C([H])([H])C([H])([H])C2([H])N([H])C(=O)C1([H])N(C(=O)C([H])(N([H])C(=O)C([H])(N([H])C([H])([H])[H])C([H])([H])[H])C(C([H])([H])[H])(C([H])([H])[H])C([H])([H])[H])C([H])([H])c2c([H])c(OC([H])([H])C([H])([H])C3([H])C([H])([H])C([H])([H])C([H])(C([H])(C([H])([H])[H])C([H])([H])C(=O)N4C([H])([H])C([H])([H])C([H])([H])C([H])(n5nc(-c6c([H])c([H])c(Oc7c([H])c([H])c(F)c([H])c7F)c([H])c6[H])c(C(=O)N([H])[H])c5N([H])[H])C4([H])[H])[N+]([H])([H])C3([H])[H])c([H])c([H])c2C1([H])[H]

$$$$
32:0:0
     RDKit          3D

 89 97  0  0  1  0  0  0  0  0999 V2000
  -29.1480  -20.5190   18.8530 C   0  0  0  0  0  3  0  0  0  0  0  0
  -29.3370  -18.9540   18.7370 C   0  0  0  0  0  2  0  0  0  0  0  0
  -29.2000  -19.7080   20.9280 C   0  0  0  0  0  2  0  0  0  0  0  0
  -29.8150  -18.3250   20.0990 C   0  0  0  0  0  3  0  0  0  0  0  0
  -28.9890  -21.0820   20.0890 N   0  0  0  0  0  0  0  0  0  0  0  0
  -29.1540  -21.2760   17.7390 N   0  0  0  0  0  0  0  0  0  0  0  0
  -29.0460  -22.2790   17.7690 H   0  0  0  0  0  0  0  0  0  0  0  0
  -29.2700  -20.8570   16.8250 H   0  0  0  0  0  0  0  0  0  0  0  0
  -30.3890  -15.3730   20.2330 C   0  0  0  0  0  0  0  0  0  0  0  0
  -30.3780  -12.9060   19.3860 C   0  0  0  0  0  2  0  0  0  0  0  0
  -29.4590  -12.6750   18.1600 C   0  0  0  0  0  2  0  0  0  0  0  0
  -28.0130  -12.3990   18.6060 C   0  0  0  0  0  2  0  0  0  0  0  0
  -27.5590  -13.3640   19.7310 C   0  0  0  0  0  3  0  0  0  0  0  0
  -28.6120  -13.5380   20.8460 C   0  0  0  0  0  2  0  0  0  0  0  0
  -29.8310  -14.0570   20.2020 N   0  0  0  0  0  0  0  0  0  0  0  0
  -31.6060  -15.3680   19.9950 O   0  0  0  0  0  0  0  0  0  0  0  0
  -29.6210  -16.6510   20.3270 N   0  0  0  0  0  0  0  0  0  0  0  0
  -28.6510  -16.4340   20.4980 H   0  0  0  0  0  0  0  0  0  0  0  0
  -25.1980  -13.9110   20.5130 C   0  0  0  0  0  0  0  0  0  0  0  0
  -24.1400  -13.1310   20.8860 C   0  0  0  0  0  0  0  0  0  0  0  0
  -24.6090  -11.7820   20.8430 C   0  0  0  0  0  0  0  0  0  0  0  0
  -26.2390  -13.0400   20.2520 N   0  0  0  0  0  0  0  0  0  0  0  0
  -25.8980  -11.7520   20.5210 N   0  0  0  0  0  0  0  0  0  0  0  0
  -23.8830  -10.5180   21.0310 C   0  0  0  0  0  0  0  0  0  0  0  0
  -24.3130   -9.5480   21.9640 C   0  0  0  0  0  3  0  0  0  0  0  0
  -23.5840   -8.3520   22.1420 C   0  0  0  0  0  3  0  0  0  0  0  0
  -22.4110   -8.1170   21.3860 C   0  0  0  0  0  0  0  0  0  0  0  0
  -22.0000   -9.0750   20.4430 C   0  0  0  0  0  3  0  0  0  0  0  0
  -22.7290  -10.2620   20.2640 C   0  0  0  0  0  3  0  0  0  0  0  0
  -21.6560   -6.9730   21.4730 O   0  0  0  0  0  0  0  0  0  0  0  0
  -21.5970   -6.2340   22.6270 C   0  0  0  0  0  0  0  0  0  0  0  0
  -21.1400   -6.7880   23.8430 C   0  0  0  0  0  3  0  0  0  0  0  0
  -21.0300   -5.9760   24.9890 C   0  0  0  0  0  3  0  0  0  0  0  0
  -21.3660   -4.6110   24.9200 C   0  0  0  0  0  0  0  0  0  0  0  0
  -21.8160   -4.0550   23.7080 C   0  0  0  0  0  3  0  0  0  0  0  0
  -21.9270   -4.8660   22.5650 C   0  0  0  0  0  0  0  0  0  0  0  0
  -22.3410   -4.3220   21.3940 F   0  0  0  0  0  0  0  0  0  0  0  0
  -21.2530   -3.8280   26.0180 F   0  0  0  0  0  0  0  0  0  0  0  0
  -22.7440  -13.6060   21.1630 C   0  0  0  0  0  0  0  0  0  0  0  0
  -22.0170  -12.9060   22.0260 N   0  0  0  0  0  0  0  0  0  0  0  0
  -22.3080  -14.6360   20.6500 O   0  0  0  0  0  0  0  0  0  0  0  0
  -22.3840  -12.0700   22.4580 H   0  0  0  0  0  0  0  0  0  0  0  0
  -21.0820  -13.2060   22.2550 H   0  0  0  0  0  0  0  0  0  0  0  0
  -25.3560  -15.2830   20.3390 N   0  0  0  0  0  0  0  0  0  0  0  0
  -24.5810  -15.9300   20.4440 H   0  0  0  0  0  0  0  0  0  0  0  0
  -26.1860  -15.7170   19.9580 H   0  0  0  0  0  0  0  0  0  0  0  0
  -28.9140  -22.7210   20.5610 C   0  0  0  0  0  3  0  0  0  0  0  0
  -28.0860  -24.2330   19.9640 C   0  0  0  0  0  3  0  0  0  0  0  0
  -28.2130  -25.8630   20.3030 O   0  0  0  0  0  0  0  0  0  0  0  0
  -24.6380  -31.8620   23.2260 C   0  0  0  0  0  0  0  0  0  0  0  0
  -27.1980  -26.9640   20.2160 C   0  0  0  0  0  0  0  0  0  0  0  0
  -23.4450  -30.4670   21.5860 C   0  0  0  0  0  3  0  0  0  0  0  0
  -24.8950  -28.8560   20.1640 C   0  0  0  0  0  0  0  0  0  0  0  0
  -26.0120  -30.6710   21.4430 C   0  0  0  0  0  2  0  0  0  0  0  0
  -26.0820  -29.2580   20.7910 C   0  0  0  0  0  0  0  0  0  0  0  0
  -27.2230  -28.3320   20.7950 C   0  0  0  0  0  3  0  0  0  0  0  0
  -25.9820  -26.7190   19.5400 C   0  0  0  0  0  3  0  0  0  0  0  0
  -24.8720  -27.6080   19.5200 C   0  0  0  0  0  3  0  0  0  0  0  0
  -23.6770  -29.7810   20.2100 C   0  0  0  0  0  2  0  0  0  0  0  0
  -24.7210  -31.0270   22.1390 N   0  0  0  0  0  0  0  0  0  0  0  0
  -23.5470  -32.1540   23.7430 O   0  0  0  0  0  0  0  0  0  0  0  0
  -22.7480  -29.4720   22.5520 C   0  0  0  0  0  0  0  0  0  0  0  0
  -21.4190  -29.3040   22.4220 N   0  0  0  0  0  0  0  0  0  0  0  0
  -23.4100  -28.8530   23.3880 O   0  0  0  0  0  0  0  0  0  0  0  0
  -20.9330  -29.8560   21.7280 H   0  0  0  0  0  0  0  0  0  0  0  0
  -18.0430  -28.0720   22.9080 C   0  0  0  0  0  0  0  0  0  0  0  0
  -20.5970  -28.3650   23.1940 C   0  0  0  0  0  3  0  0  0  0  0  0
  -20.7170  -26.9280   22.6320 C   0  0  0  0  0  2  0  0  0  0  0  0
  -19.6290  -26.5870   21.6100 C   0  0  0  0  0  2  0  0  0  0  0  0
  -18.2400  -26.7220   22.2390 C   0  0  0  0  0  2  0  0  0  0  0  0
  -19.1490  -28.8510   23.3420 C   0  0  0  0  0  0  0  0  0  0  0  0
  -18.9080  -30.1120   23.9280 C   0  0  0  0  0  3  0  0  0  0  0  0
  -17.5960  -30.5970   24.0840 C   0  0  0  0  0  3  0  0  0  0  0  0
  -16.5040  -29.8160   23.6650 C   0  0  0  0  0  3  0  0  0  0  0  0
  -16.7290  -28.5560   23.0830 C   0  0  0  0  0  3  0  0  0  0  0  0
  -25.9090  -32.5070   23.8590 C   0  0  0  0  0  3  0  0  0  0  0  0
  -25.5990  -33.9150   24.1700 N   0  0  0  0  0  0  0  0  0  0  0  0
  -25.9450  -34.9640   23.4110 C   0  0  0  0  0  0  0  0  0  0  0  0
  -26.6190  -34.8490   22.3840 O   0  0  0  0  0  0  0  0  0  0  0  0
  -25.0050  -34.0800   24.9690 H   0  0  0  0  0  0  0  0  0  0  0  0
  -24.2350  -36.7750   23.0410 C   0  0  0  0  0  1  0  0  0  0  0  0
  -25.4700  -36.3620   23.8590 C   0  0  0  0  0  3  0  0  0  0  0  0
  -27.6050  -37.2410   24.6940 C   0  0  0  0  0  1  0  0  0  0  0  0
  -26.5110  -37.4060   23.7410 N   0  0  0  0  0  0  0  0  0  0  0  0
  -26.1110  -38.3310   23.8710 H   0  0  0  0  0  0  0  0  0  0  0  0
  -26.3940  -31.7600   25.1640 C   0  0  1  0  0  0  0  0  0  0  0  0
  -25.2790  -31.5610   26.2180 C   0  0  0  0  0  1  0  0  0  0  0  0
  -26.9670  -30.3670   24.8220 C   0  0  0  0  0  1  0  0  0  0  0  0
  -27.5420  -32.5560   25.8280 C   0  0  0  0  0  1  0  0  0  0  0  0
  1  6  1  0
  1  5  1  0
  2  1  1  0
  2  4  1  0
  4 17  1  0
  4  3  1  0
  5 47  1  0
  5  3  1  0
  6  7  1  0
  8  6  1  0
  9 17  1  0
 10 15  1  0
 11 12  1  0
 11 10  1  0
 13 12  1  0
 13 22  1  0
 13 14  1  0
 15  9  1  0
 15 14  1  0
 16  9  2  0
 17 18  1  0
 19 20  2  0
 20 39  1  0
 21 20  1  0
 21 24  1  0
 22 19  1  0
 22 23  1  0
 23 21  2  0
 24 25  1  0
 25 26  2  0
 27 30  1  0
 27 26  1  0
 28 27  2  0
 29 28  1  0
 29 24  2  0
 30 31  1  0
 31 32  1  0
 32 33  2  0
 34 33  1  0
 34 38  1  0
 35 34  2  0
 36 31  2  0
 36 35  1  0
 37 36  1  0
 39 40  1  0
 40 43  1  0
 40 42  1  0
 41 39  2  0
 44 45  1  0
 44 19  1  0
 46 44  1  0
 48 49  1  0
 48 47  2  0
 50 61  2  0
 51 49  1  0
 51 56  1  0
 52 60  1  0
 52 62  1  0
 53 59  1  0
 53 55  1  0
 54 60  1  0
 55 56  2  0
 55 54  1  0
 57 51  2  0
 58 57  1  0
 58 53  2  0
 59 52  1  0
 60 50  1  0
 62 64  2  0
 63 62  1  0
 65 63  1  0
 66 75  2  0
 66 71  1  0
 67 63  1  0
 67 71  1  0
 68 67  1  0
 69 70  1  0
 69 68  1  0
 70 66  1  0
 71 72  2  0
 72 73  1  0
 74 73  2  0
 75 74  1  0
 76 50  1  0
 76 77  1  0
 76 86  1  0
 77 80  1  0
 78 82  1  0
 78 77  1  0
 79 78  2  0
 82 81  1  0
 84 82  1  0
 84 85  1  0
 84 83  1  0
 86 89  1  1
 86 87  1  0
 88 86  1  0
M  ISO  4   9 100  17 100  48 101  49 101
M  END
>  <TORSDO>  (33) 
F 18

>  <SCORE>  (33) 
-16.450

>  <name>  (33) 
32

>  <ligand_id>  (33) 
32

>  <original_smiles>  (33) 
[H]c1c([H])c([H])c2c(c1[H])C([H])([H])C([H])([H])C([H])([H])C2([H])N([H])C(=O)C1([H])N(C(=O)C([H])(N([H])C(=O)C([H])(N([H])C([H])([H])[H])C([H])([H])[H])C(C([H])([H])[H])(C([H])([H])[H])C([H])([H])[H])C([H])([H])c2c([H])c(OC([H])([H])C([H])([H])N3C(=[N+]([H])[H])C([H])([H])C([H])(N([H])C(=O)N4C([H])([H])C([H])([H])C([H])([H])C([H])(n5nc(-c6c([H])c([H])c(Oc7c([H])c([H])c(F)c([H])c7F)c([H])c6[H])c(C(=O)N([H])[H])c5N([H])[H])C4([H])[H])C3([H])[H])c([H])c([H])c2C1([H])[H]

>  <smiles>  (33) 
[H]c1c([H])c([H])c2c(c1[H])C([H])([H])C([H])([H])C([H])([H])C2([H])N([H])C(=O)C1([H])N(C(=O)C([H])(N([H])C(=O)C([H])(N([H])C([H])([H])[H])C([H])([H])[H])C(C([H])([H])[H])(C([H])([H])[H])C([H])([H])[H])C([H])([H])c2c([H])c(OC([H])([H])C([H])([H])N3C(=[N+]([H])[H])C([H])([H])C([H])(N([H])C(=O)N4C([H])([H])C([H])([H])C([H])([H])C([H])(n5nc(-c6c([H])c([H])c(Oc7c([H])c([H])c(F)c([H])c7F)c([H])c6[H])c(C(=O)N([H])[H])c5N([H])[H])C4([H])[H])C3([H])[H])c([H])c([H])c2C1([H])[H]

$$$$
33:0:0
     RDKit          3D

 90 98  0  0  1  0  0  0  0  0999 V2000
  -27.0130  -21.3810   20.0210 C   0  0  0  0  0  1  0  0  0  0  0  0
  -28.5590  -21.4330   20.0520 C   0  0  0  0  0  3  0  0  0  0  0  0
  -30.7810  -15.2950   19.5510 C   0  0  0  0  0  0  0  0  0  0  0  0
  -30.5580  -12.8960   18.6820 C   0  0  0  0  0  2  0  0  0  0  0  0
  -29.5140  -12.7290   17.5570 C   0  0  0  0  0  2  0  0  0  0  0  0
  -28.1200  -12.4720   18.1540 C   0  0  0  0  0  2  0  0  0  0  0  0
  -27.8020  -13.4280   19.3310 C   0  0  0  0  0  3  0  0  0  0  0  0
  -28.9700  -13.5800   20.3300 C   0  0  0  0  0  2  0  0  0  0  0  0
  -30.1260  -14.0450   19.5510 N   0  0  0  0  0  0  0  0  0  0  0  0
  -31.9760  -15.2160   19.2380 O   0  0  0  0  0  0  0  0  0  0  0  0
  -31.0420  -17.9220   19.5780 C   0  0  0  0  0  2  0  0  0  0  0  0
  -28.8100  -17.1760   19.4860 C   0  0  0  0  0  2  0  0  0  0  0  0
  -30.5550  -19.4660   19.9570 C   0  0  0  0  0  2  0  0  0  0  0  0
  -28.3500  -18.6720   20.0060 C   0  0  0  0  0  3  0  0  0  0  0  0
  -28.1550  -18.5750   21.5390 C   0  0  0  0  0  1  0  0  0  0  0  0
  -30.2030  -16.6400   19.7110 N   0  0  0  0  0  0  0  0  0  0  0  0
  -29.1510  -19.9450   19.6120 N   0  0  1  0  0  4  0  0  0  0  0  0
  -29.1240  -19.9570   18.6030 H   0  0  0  0  0  0  0  0  0  0  0  0
  -25.5700  -13.9640   20.4460 C   0  0  0  0  0  0  0  0  0  0  0  0
  -24.5430  -13.1790   20.8820 C   0  0  0  0  0  0  0  0  0  0  0  0
  -24.9560  -11.8290   20.6670 C   0  0  0  0  0  0  0  0  0  0  0  0
  -26.5440  -13.0970   19.9870 N   0  0  0  0  0  0  0  0  0  0  0  0
  -26.1950  -11.7990   20.1860 N   0  0  0  0  0  0  0  0  0  0  0  0
  -24.2170  -10.5700   20.8330 C   0  0  0  0  0  0  0  0  0  0  0  0
  -24.6640   -9.5600   21.7130 C   0  0  0  0  0  3  0  0  0  0  0  0
  -23.9210   -8.3700   21.8730 C   0  0  0  0  0  3  0  0  0  0  0  0
  -22.7190   -8.1810   21.1500 C   0  0  0  0  0  0  0  0  0  0  0  0
  -22.2930   -9.1780   20.2560 C   0  0  0  0  0  3  0  0  0  0  0  0
  -23.0350  -10.3590   20.0940 C   0  0  0  0  0  3  0  0  0  0  0  0
  -21.9480   -7.0460   21.2210 O   0  0  0  0  0  0  0  0  0  0  0  0
  -21.8490   -6.3150   22.3770 C   0  0  0  0  0  0  0  0  0  0  0  0
  -21.3690   -6.8820   23.5780 C   0  0  0  0  0  3  0  0  0  0  0  0
  -21.2180   -6.0770   24.7260 C   0  0  0  0  0  3  0  0  0  0  0  0
  -21.5360   -4.7070   24.6710 C   0  0  0  0  0  0  0  0  0  0  0  0
  -22.0070   -4.1390   23.4740 C   0  0  0  0  0  3  0  0  0  0  0  0
  -22.1600   -4.9410   22.3300 C   0  0  0  0  0  0  0  0  0  0  0  0
  -22.5950   -4.3850   21.1730 F   0  0  0  0  0  0  0  0  0  0  0  0
  -21.3830   -3.9320   25.7690 F   0  0  0  0  0  0  0  0  0  0  0  0
  -23.2070  -13.6590   21.3740 C   0  0  0  0  0  0  0  0  0  0  0  0
  -22.5930  -12.9220   22.2910 N   0  0  0  0  0  0  0  0  0  0  0  0
  -22.7260  -14.7210   20.9810 O   0  0  0  0  0  0  0  0  0  0  0  0
  -23.0000  -12.0620   22.6260 H   0  0  0  0  0  0  0  0  0  0  0  0
  -21.7030  -13.2220   22.6630 H   0  0  0  0  0  0  0  0  0  0  0  0
  -25.7440  -15.3430   20.3670 N   0  0  0  0  0  0  0  0  0  0  0  0
  -25.0010  -15.9870   20.6160 H   0  0  0  0  0  0  0  0  0  0  0  0
  -26.5120  -15.7880   19.8870 H   0  0  0  0  0  0  0  0  0  0  0  0
  -29.0810  -22.9640   17.9400 C   0  0  0  0  0  1  0  0  0  0  0  0
  -28.9100  -23.0490   19.4630 C   0  0  0  0  0  3  0  0  0  0  0  0
  -27.9850  -24.5140   19.7920 C   0  0  0  0  0  2  0  0  0  0  0  0
  -28.2510  -26.0990   19.6420 O   0  0  0  0  0  0  0  0  0  0  0  0
  -24.6320  -31.7750   22.9300 C   0  0  0  0  0  0  0  0  0  0  0  0
  -27.2030  -27.1320   19.6710 C   0  0  0  0  0  0  0  0  0  0  0  0
  -23.4220  -30.4210   21.2710 C   0  0  0  0  0  3  0  0  0  0  0  0
  -24.8620  -28.9130   19.7530 C   0  0  0  0  0  0  0  0  0  0  0  0
  -25.9740  -30.7080   21.0650 C   0  0  0  0  0  2  0  0  0  0  0  0
  -26.0540  -29.3330   20.3560 C   0  0  0  0  0  0  0  0  0  0  0  0
  -27.2230  -28.4630   20.2920 C   0  0  0  0  0  3  0  0  0  0  0  0
  -25.9790  -26.8490   19.0240 C   0  0  0  0  0  3  0  0  0  0  0  0
  -24.8430  -27.6910   19.0670 C   0  0  0  0  0  3  0  0  0  0  0  0
  -23.6260  -29.7970   19.8640 C   0  0  0  0  0  2  0  0  0  0  0  0
  -24.6970  -30.9910   21.8100 N   0  0  0  0  0  0  0  0  0  0  0  0
  -23.5510  -32.0230   23.4900 O   0  0  0  0  0  0  0  0  0  0  0  0
  -22.7770  -29.3690   22.2100 C   0  0  0  0  0  0  0  0  0  0  0  0
  -21.4410  -29.2170   22.1430 N   0  0  0  0  0  0  0  0  0  0  0  0
  -23.4810  -28.6940   22.9660 O   0  0  0  0  0  0  0  0  0  0  0  0
  -20.9270  -29.8120   21.5090 H   0  0  0  0  0  0  0  0  0  0  0  0
  -18.0750  -28.0290   22.7860 C   0  0  0  0  0  0  0  0  0  0  0  0
  -20.6510  -28.2430   22.9030 C   0  0  0  0  0  3  0  0  0  0  0  0
  -20.6920  -26.8500   22.2320 C   0  0  0  0  0  2  0  0  0  0  0  0
  -19.5210  -26.6080   21.2730 C   0  0  0  0  0  2  0  0  0  0  0  0
  -18.1850  -26.7270   22.0110 C   0  0  0  0  0  2  0  0  0  0  0  0
  -19.2320  -28.7490   23.1910 C   0  0  0  0  0  0  0  0  0  0  0  0
  -19.0700  -29.9700   23.8810 C   0  0  0  0  0  3  0  0  0  0  0  0
  -17.7870  -30.4720   24.1670 C   0  0  0  0  0  3  0  0  0  0  0  0
  -16.6460  -29.7490   23.7750 C   0  0  0  0  0  3  0  0  0  0  0  0
  -16.7920  -28.5290   23.0920 C   0  0  0  0  0  3  0  0  0  0  0  0
  -25.9080  -32.4160   23.5550 C   0  0  0  0  0  3  0  0  0  0  0  0
  -25.5590  -33.7760   24.0010 N   0  0  0  0  0  0  0  0  0  0  0  0
  -25.8350  -34.8980   23.3240 C   0  0  0  0  0  0  0  0  0  0  0  0
  -26.4750  -34.9000   22.2690 O   0  0  0  0  0  0  0  0  0  0  0  0
  -24.9840  -33.8440   24.8280 H   0  0  0  0  0  0  0  0  0  0  0  0
  -24.0520  -36.6690   23.1600 C   0  0  0  0  0  1  0  0  0  0  0  0
  -25.3210  -36.2300   23.9080 C   0  0  0  0  0  3  0  0  0  0  0  0
  -27.4440  -37.1050   24.7780 C   0  0  0  0  0  1  0  0  0  0  0  0
  -26.3220  -37.3190   23.8680 N   0  0  0  0  0  0  0  0  0  0  0  0
  -25.8930  -38.2110   24.0980 H   0  0  0  0  0  0  0  0  0  0  0  0
  -26.4930  -31.5810   24.7600 C   0  0  1  0  0  0  0  0  0  0  0  0
  -25.4470  -31.2390   25.8480 C   0  0  0  0  0  1  0  0  0  0  0  0
  -27.1040  -30.2500   24.2660 C   0  0  0  0  0  1  0  0  0  0  0  0
  -27.6430  -32.3670   25.4320 C   0  0  0  0  0  1  0  0  0  0  0  0
  2  1  1  0
  3 16  1  0
  4  9  1  0
  5  6  1  0
  5  4  1  0
  7  6  1  0
  7 22  1  0
  7  8  1  0
  9  3  1  0
  9  8  1  0
 10  3  2  0
 11 16  1  0
 11 13  1  0
 12 16  1  0
 12 14  1  0
 14 15  1  0
 17 13  1  0
 17 14  1  0
 17  2  1  0
 17 18  1  6
 19 20  2  0
 20 39  1  0
 21 24  1  0
 21 20  1  0
 22 23  1  0
 22 19  1  0
 23 21  2  0
 24 25  1  0
 25 26  2  0
 27 30  1  0
 27 26  1  0
 28 27  2  0
 29 28  1  0
 29 24  2  0
 30 31  1  0
 31 32  1  0
 32 33  2  0
 34 33  1  0
 34 38  1  0
 35 34  2  0
 36 31  2  0
 36 35  1  0
 37 36  1  0
 39 40  1  0
 40 42  1  0
 40 43  1  0
 41 39  2  0
 44 19  1  0
 44 45  1  0
 46 44  1  0
 48 47  1  0
 48 49  1  0
 48  2  1  0
 50 52  1  0
 50 49  1  0
 51 62  2  0
 52 57  1  0
 53 61  1  0
 53 63  1  0
 54 60  1  0
 54 56  1  0
 55 61  1  0
 56 55  1  0
 57 56  2  0
 58 59  1  0
 58 52  2  0
 59 54  2  0
 60 53  1  0
 61 51  1  0
 63 65  2  0
 64 63  1  0
 66 64  1  0
 67 76  2  0
 67 72  1  0
 68 64  1  0
 68 72  1  0
 69 68  1  0
 70 71  1  0
 70 69  1  0
 71 67  1  0
 72 73  2  0
 73 74  1  0
 75 74  2  0
 76 75  1  0
 77 51  1  0
 77 78  1  0
 77 87  1  0
 78 81  1  0
 79 83  1  0
 79 78  1  0
 80 79  2  0
 83 82  1  0
 85 83  1  0
 85 86  1  0
 85 84  1  0
 87 90  1  1
 87 88  1  0
 89 87  1  0
M  ISO  4   3 100  16 100  49 101  50 101
M  END
>  <TORSDO>  (34) 
F 18

>  <SCORE>  (34) 
-12.194

>  <name>  (34) 
33

>  <ligand_id>  (34) 
33

>  <original_smiles>  (34) 
[H]c1c([H])c([H])c2c(c1[H])C([H])([H])C([H])([H])C([H])([H])C2([H])N([H])C(=O)C1([H])N(C(=O)C([H])(N([H])C(=O)C([H])(N([H])C([H])([H])[H])C([H])([H])[H])C(C([H])([H])[H])(C([H])([H])[H])C([H])([H])[H])C([H])([H])c2c([H])c(OC([H])([H])C([H])(C([H])([H])[H])C([H])(C([H])([H])[H])[N+]3([H])C([H])([H])C([H])([H])N(C(=O)N4C([H])([H])C([H])([H])C([H])([H])C([H])(n5nc(-c6c([H])c([H])c(Oc7c([H])c([H])c(F)c([H])c7F)c([H])c6[H])c(C(=O)N([H])[H])c5N([H])[H])C4([H])[H])C([H])([H])C3([H])C([H])([H])[H])c([H])c([H])c2C1([H])[H]

>  <smiles>  (34) 
[H]c1c([H])c([H])c2c(c1[H])C([H])([H])C([H])([H])C([H])([H])C2([H])N([H])C(=O)C1([H])N(C(=O)C([H])(N([H])C(=O)C([H])(N([H])C([H])([H])[H])C([H])([H])[H])C(C([H])([H])[H])(C([H])([H])[H])C([H])([H])[H])C([H])([H])c2c([H])c(OC([H])([H])C([H])(C([H])([H])[H])C([H])(C([H])([H])[H])[N+]3([H])C([H])([H])C([H])([H])N(C(=O)N4C([H])([H])C([H])([H])C([H])([H])C([H])(n5nc(-c6c([H])c([H])c(Oc7c([H])c([H])c(F)c([H])c7F)c([H])c6[H])c(C(=O)N([H])[H])c5N([H])[H])C4([H])[H])C([H])([H])C3([H])C([H])([H])[H])c([H])c([H])c2C1([H])[H]

$$$$
34:0:0
     RDKit          3D

 90 98  0  0  1  0  0  0  0  0999 V2000
  -29.8240  -23.0100   19.1900 C   0  0  0  0  0  2  0  0  0  0  0  0
  -30.0070  -21.4410   19.1670 C   0  0  0  0  0  2  0  0  0  0  0  0
  -28.4790  -22.0040   20.8810 C   0  0  0  0  0  2  0  0  0  0  0  0
  -29.0030  -23.4700   20.4270 C   0  0  0  0  0  3  0  0  0  0  0  0
  -29.5030  -20.8070   20.4890 C   0  0  0  0  0  3  0  0  0  0  0  0
  -27.9690  -24.7640   20.2200 C   0  0  0  0  0  2  0  0  0  0  0  0
  -28.2700  -26.2750   20.2430 O   0  0  0  0  0  0  0  0  0  0  0  0
  -24.6110  -31.8890   23.2400 C   0  0  0  0  0  0  0  0  0  0  0  0
  -27.1970  -27.2290   20.1860 C   0  0  0  0  0  0  0  0  0  0  0  0
  -23.4080  -30.5060   21.5920 C   0  0  0  0  0  3  0  0  0  0  0  0
  -24.8560  -28.9430   20.1620 C   0  0  0  0  0  0  0  0  0  0  0  0
  -25.9600  -30.7810   21.4270 C   0  0  0  0  0  2  0  0  0  0  0  0
  -26.0360  -29.3970   20.7680 C   0  0  0  0  0  0  0  0  0  0  0  0
  -27.2080  -28.5560   20.7620 C   0  0  0  0  0  3  0  0  0  0  0  0
  -25.9900  -26.8670   19.5440 C   0  0  0  0  0  3  0  0  0  0  0  0
  -24.8440  -27.6880   19.5370 C   0  0  0  0  0  3  0  0  0  0  0  0
  -23.6270  -29.8350   20.2110 C   0  0  0  0  0  2  0  0  0  0  0  0
  -24.6790  -31.0780   22.1420 N   0  0  0  0  0  0  0  0  0  0  0  0
  -23.5250  -32.1730   23.7690 O   0  0  0  0  0  0  0  0  0  0  0  0
  -22.7290  -29.4930   22.5470 C   0  0  0  0  0  0  0  0  0  0  0  0
  -21.3990  -29.3280   22.4180 N   0  0  0  0  0  0  0  0  0  0  0  0
  -23.3980  -28.8600   23.3670 O   0  0  0  0  0  0  0  0  0  0  0  0
  -20.9160  -29.8900   21.7300 H   0  0  0  0  0  0  0  0  0  0  0  0
  -18.0120  -28.1460   22.9150 C   0  0  0  0  0  0  0  0  0  0  0  0
  -20.5730  -28.3910   23.1830 C   0  0  0  0  0  3  0  0  0  0  0  0
  -20.6660  -26.9620   22.6010 C   0  0  0  0  0  2  0  0  0  0  0  0
  -19.5610  -26.6520   21.5840 C   0  0  0  0  0  2  0  0  0  0  0  0
  -18.1800  -26.8010   22.2290 C   0  0  0  0  0  2  0  0  0  0  0  0
  -19.1360  -28.9000   23.3480 C   0  0  0  0  0  0  0  0  0  0  0  0
  -18.9230  -30.1590   23.9500 C   0  0  0  0  0  3  0  0  0  0  0  0
  -17.6210  -30.6650   24.1210 C   0  0  0  0  0  3  0  0  0  0  0  0
  -16.5120  -29.9100   23.7030 C   0  0  0  0  0  3  0  0  0  0  0  0
  -16.7090  -28.6510   23.1060 C   0  0  0  0  0  3  0  0  0  0  0  0
  -25.8910  -32.5170   23.8720 C   0  0  0  0  0  3  0  0  0  0  0  0
  -25.5830  -33.9130   24.2150 N   0  0  0  0  0  0  0  0  0  0  0  0
  -25.8930  -34.9720   23.4560 C   0  0  0  0  0  0  0  0  0  0  0  0
  -26.5380  -34.8770   22.4090 O   0  0  0  0  0  0  0  0  0  0  0  0
  -25.0070  -34.0610   25.0300 H   0  0  0  0  0  0  0  0  0  0  0  0
  -24.1390  -36.7540   23.1730 C   0  0  0  0  0  1  0  0  0  0  0  0
  -25.4160  -36.3570   23.9340 C   0  0  0  0  0  3  0  0  0  0  0  0
  -27.5730  -37.2590   24.6830 C   0  0  0  0  0  1  0  0  0  0  0  0
  -26.4350  -37.4180   23.7810 N   0  0  0  0  0  0  0  0  0  0  0  0
  -26.0290  -38.3350   23.9420 H   0  0  0  0  0  0  0  0  0  0  0  0
  -26.4010  -31.7350   25.1450 C   0  0  1  0  0  0  0  0  0  0  0  0
  -25.3020  -31.4940   26.2080 C   0  0  0  0  0  1  0  0  0  0  0  0
  -26.9800  -30.3560   24.7490 C   0  0  0  0  0  1  0  0  0  0  0  0
  -27.5520  -32.5200   25.8160 C   0  0  0  0  0  1  0  0  0  0  0  0
  -29.0710  -19.1840   20.5070 C   0  0  0  0  0  3  0  0  0  0  0  0
  -27.9820  -18.9990   19.5320 N   0  0  0  0  0  4  0  0  0  0  0  0
  -28.3410  -19.0070   18.5940 H   0  0  0  0  0  0  0  0  0  0  0  0
  -27.3070  -19.7380   19.6190 H   0  0  0  0  0  0  0  0  0  0  0  0
  -27.5020  -18.1320   19.6850 H   0  0  0  0  0  0  0  0  0  0  0  0
  -30.1050  -17.8690   20.4050 C   0  0  0  0  0  3  0  0  0  0  0  0
  -29.6360  -16.2940   20.7090 C   0  0  0  0  0  3  0  0  0  0  0  0
  -30.4930  -14.9250   20.3850 C   0  0  0  0  0  0  0  0  0  0  0  0
  -30.3750  -12.6080   19.3770 C   0  0  0  0  0  2  0  0  0  0  0  0
  -29.4340  -12.6400   18.1480 C   0  0  0  0  0  2  0  0  0  0  0  0
  -27.9640  -12.4420   18.5670 C   0  0  0  0  0  2  0  0  0  0  0  0
  -27.5740  -13.3240   19.7810 C   0  0  0  0  0  3  0  0  0  0  0  0
  -28.6310  -13.2640   20.9030 C   0  0  0  0  0  2  0  0  0  0  0  0
  -29.9220  -13.6590   20.3260 N   0  0  0  0  0  0  0  0  0  0  0  0
  -31.6780  -15.0320   20.0470 O   0  0  0  0  0  0  0  0  0  0  0  0
  -25.1870  -13.9070   20.5110 C   0  0  0  0  0  0  0  0  0  0  0  0
  -24.1220  -13.1310   20.8790 C   0  0  0  0  0  0  0  0  0  0  0  0
  -24.5880  -11.7810   20.8510 C   0  0  0  0  0  0  0  0  0  0  0  0
  -26.2310  -13.0290   20.2730 N   0  0  0  0  0  0  0  0  0  0  0  0
  -25.8800  -11.7460   20.5440 N   0  0  0  0  0  0  0  0  0  0  0  0
  -23.8610  -10.5180   21.0410 C   0  0  0  0  0  0  0  0  0  0  0  0
  -24.2900   -9.5530   21.9780 C   0  0  0  0  0  3  0  0  0  0  0  0
  -23.5650   -8.3560   22.1540 C   0  0  0  0  0  3  0  0  0  0  0  0
  -22.3960   -8.1150   21.3940 C   0  0  0  0  0  0  0  0  0  0  0  0
  -21.9860   -9.0700   20.4460 C   0  0  0  0  0  3  0  0  0  0  0  0
  -22.7130  -10.2590   20.2680 C   0  0  0  0  0  3  0  0  0  0  0  0
  -21.6420   -6.9700   21.4790 O   0  0  0  0  0  0  0  0  0  0  0  0
  -21.5850   -6.2310   22.6330 C   0  0  0  0  0  0  0  0  0  0  0  0
  -21.1400   -6.7850   23.8520 C   0  0  0  0  0  3  0  0  0  0  0  0
  -21.0310   -5.9720   24.9990 C   0  0  0  0  0  3  0  0  0  0  0  0
  -21.3580   -4.6040   24.9250 C   0  0  0  0  0  0  0  0  0  0  0  0
  -21.7960   -4.0490   23.7100 C   0  0  0  0  0  3  0  0  0  0  0  0
  -21.9070   -4.8590   22.5670 C   0  0  0  0  0  0  0  0  0  0  0  0
  -22.3100   -4.3130   21.3940 F   0  0  0  0  0  0  0  0  0  0  0  0
  -21.2460   -3.8200   26.0230 F   0  0  0  0  0  0  0  0  0  0  0  0
  -22.7230  -13.6080   21.1450 C   0  0  0  0  0  0  0  0  0  0  0  0
  -21.9940  -12.9150   22.0110 N   0  0  0  0  0  0  0  0  0  0  0  0
  -22.2870  -14.6310   20.6200 O   0  0  0  0  0  0  0  0  0  0  0  0
  -22.3610  -12.0860   22.4560 H   0  0  0  0  0  0  0  0  0  0  0  0
  -21.0540  -13.2140   22.2290 H   0  0  0  0  0  0  0  0  0  0  0  0
  -25.3520  -15.2770   20.3320 N   0  0  0  0  0  0  0  0  0  0  0  0
  -24.5820  -15.9310   20.4270 H   0  0  0  0  0  0  0  0  0  0  0  0
  -26.1940  -15.6950   19.9640 H   0  0  0  0  0  0  0  0  0  0  0  0
  1  4  1  0
  2  1  1  0
  2  5  1  0
  4  6  1  0
  4  3  1  0
  5 48  1  0
  5  3  1  0
  6  7  1  0
  8 19  2  0
  9  7  1  0
  9 14  1  0
 10 18  1  0
 10 20  1  0
 11 17  1  0
 11 13  1  0
 12 18  1  0
 13 12  1  0
 14 13  2  0
 15  9  2  0
 16 15  1  0
 16 11  2  0
 17 10  1  0
 18  8  1  0
 20 22  2  0
 21 20  1  0
 23 21  1  0
 24 33  2  0
 24 29  1  0
 25 21  1  0
 25 29  1  0
 26 25  1  0
 27 28  1  0
 27 26  1  0
 28 24  1  0
 29 30  2  0
 30 31  1  0
 32 31  2  0
 33 32  1  0
 34  8  1  0
 34 35  1  0
 34 44  1  0
 35 38  1  0
 36 40  1  0
 36 35  1  0
 37 36  2  0
 40 39  1  0
 42 40  1  0
 42 43  1  0
 42 41  1  0
 44 47  1  1
 44 45  1  0
 46 44  1  0
 48 53  1  0
 49 51  1  0
 49 52  1  0
 49 48  1  0
 50 49  1  0
 53 54  2  0
 55 54  1  0
 56 61  1  0
 57 58  1  0
 57 56  1  0
 59 58  1  0
 59 66  1  0
 59 60  1  0
 61 55  1  0
 61 60  1  0
 62 55  2  0
 63 64  2  0
 64 83  1  0
 65 64  1  0
 65 68  1  0
 66 63  1  0
 66 67  1  0
 67 65  2  0
 68 69  1  0
 69 70  2  0
 71 74  1  0
 71 70  1  0
 72 71  2  0
 73 72  1  0
 73 68  2  0
 74 75  1  0
 75 76  1  0
 76 77  2  0
 78 77  1  0
 78 82  1  0
 79 78  2  0
 80 75  2  0
 80 79  1  0
 81 80  1  0
 83 84  1  0
 84 87  1  0
 84 86  1  0
 85 83  2  0
 88 89  1  0
 88 63  1  0
 90 88  1  0
M  ISO  4   6 101   7 101  54 100  55 100
M  END
>  <TORSDO>  (35) 
F 21

>  <SCORE>  (35) 
-13.616

>  <name>  (35) 
34

>  <ligand_id>  (35) 
34

>  <original_smiles>  (35) 
[H]c1c([H])c([H])c2c(c1[H])C([H])([H])C([H])([H])C([H])([H])C2([H])N([H])C(=O)C1([H])N(C(=O)C([H])(N([H])C(=O)C([H])(N([H])C([H])([H])[H])C([H])([H])[H])C(C([H])([H])[H])(C([H])([H])[H])C([H])([H])[H])C([H])([H])c2c([H])c(OC([H])([H])C3([H])C([H])([H])C([H])([H])C([H])(C([H])(C([H])([H])C([H])([H])C(=O)N4C([H])([H])C([H])([H])C([H])([H])C([H])(n5nc(-c6c([H])c([H])c(Oc7c([H])c([H])c(F)c([H])c7F)c([H])c6[H])c(C(=O)N([H])[H])c5N([H])[H])C4([H])[H])[N+]([H])([H])[H])C3([H])[H])c([H])c([H])c2C1([H])[H]

>  <smiles>  (35) 
[H]c1c([H])c([H])c2c(c1[H])C([H])([H])C([H])([H])C([H])([H])C2([H])N([H])C(=O)C1([H])N(C(=O)C([H])(N([H])C(=O)C([H])(N([H])C([H])([H])[H])C([H])([H])[H])C(C([H])([H])[H])(C([H])([H])[H])C([H])([H])[H])C([H])([H])c2c([H])c(OC([H])([H])C3([H])C([H])([H])C([H])([H])C([H])(C([H])(C([H])([H])C([H])([H])C(=O)N4C([H])([H])C([H])([H])C([H])([H])C([H])(n5nc(-c6c([H])c([H])c(Oc7c([H])c([H])c(F)c([H])c7F)c([H])c6[H])c(C(=O)N([H])[H])c5N([H])[H])C4([H])[H])[N+]([H])([H])[H])C3([H])[H])c([H])c([H])c2C1([H])[H]

$$$$
35:0:0
     RDKit          3D

 87 95  0  0  1  0  0  0  0  0999 V2000
  -29.7390  -23.7360   21.6020 C   0  0  0  0  0  1  0  0  0  0  0  0
  -29.0300  -23.2650   20.3250 C   0  0  0  0  0  3  0  0  0  0  0  0
  -30.0910  -19.2830   21.2090 C   0  0  0  0  0  3  0  0  0  0  0  0
  -29.7010  -20.6240   21.3220 C   0  0  0  0  0  3  0  0  0  0  0  0
  -28.5630  -18.9490   19.3800 C   0  0  0  0  0  2  0  0  0  0  0  0
  -28.6230  -20.5750   19.1560 C   0  0  0  0  0  2  0  0  0  0  0  0
  -29.7590  -18.1840   20.1200 C   0  0  0  0  0  3  0  0  0  0  0  0
  -28.7530  -21.5400   20.4270 C   0  0  0  0  0  3  0  0  0  0  0  0
  -29.6050  -16.5140   20.5740 C   0  0  0  0  0  2  0  0  0  0  0  0
  -30.4490  -15.1080   20.1350 C   0  0  0  0  0  0  0  0  0  0  0  0
  -30.3760  -12.7530   19.1380 C   0  0  0  0  0  2  0  0  0  0  0  0
  -29.3910  -12.6950   17.9420 C   0  0  0  0  0  2  0  0  0  0  0  0
  -27.9430  -12.4680   18.4190 C   0  0  0  0  0  2  0  0  0  0  0  0
  -27.5750  -13.3590   19.6330 C   0  0  0  0  0  3  0  0  0  0  0  0
  -28.6710  -13.3430   20.7160 C   0  0  0  0  0  2  0  0  0  0  0  0
  -29.9110  -13.8110   20.0850 N   0  0  0  0  0  0  0  0  0  0  0  0
  -31.6260  -15.1940   19.7640 O   0  0  0  0  0  0  0  0  0  0  0  0
  -25.2250  -13.9200   20.4620 C   0  0  0  0  0  0  0  0  0  0  0  0
  -24.1760  -13.1400   20.8580 C   0  0  0  0  0  0  0  0  0  0  0  0
  -24.6390  -11.7900   20.7910 C   0  0  0  0  0  0  0  0  0  0  0  0
  -26.2590  -13.0470   20.1730 N   0  0  0  0  0  0  0  0  0  0  0  0
  -25.9190  -11.7580   20.4370 N   0  0  0  0  0  0  0  0  0  0  0  0
  -23.9190  -10.5240   20.9930 C   0  0  0  0  0  0  0  0  0  0  0  0
  -24.3730   -9.5560   21.9150 C   0  0  0  0  0  3  0  0  0  0  0  0
  -23.6560   -8.3550   22.1050 C   0  0  0  0  0  3  0  0  0  0  0  0
  -22.4710   -8.1140   21.3720 C   0  0  0  0  0  0  0  0  0  0  0  0
  -22.0330   -9.0710   20.4400 C   0  0  0  0  0  3  0  0  0  0  0  0
  -22.7500  -10.2650   20.2470 C   0  0  0  0  0  3  0  0  0  0  0  0
  -21.7230   -6.9650   21.4700 O   0  0  0  0  0  0  0  0  0  0  0  0
  -21.6850   -6.2270   22.6260 C   0  0  0  0  0  0  0  0  0  0  0  0
  -21.2660   -6.7860   23.8520 C   0  0  0  0  0  3  0  0  0  0  0  0
  -21.1760   -5.9760   25.0010 C   0  0  0  0  0  3  0  0  0  0  0  0
  -21.4940   -4.6070   24.9240 C   0  0  0  0  0  0  0  0  0  0  0  0
  -21.9040   -4.0460   23.7010 C   0  0  0  0  0  3  0  0  0  0  0  0
  -21.9970   -4.8550   22.5560 C   0  0  0  0  0  0  0  0  0  0  0  0
  -22.3750   -4.3070   21.3760 F   0  0  0  0  0  0  0  0  0  0  0  0
  -21.3990   -3.8250   26.0260 F   0  0  0  0  0  0  0  0  0  0  0  0
  -22.7880  -13.6110   21.1800 C   0  0  0  0  0  0  0  0  0  0  0  0
  -22.0910  -12.9060   22.0650 N   0  0  0  0  0  0  0  0  0  0  0  0
  -22.3320  -14.6420   20.6860 O   0  0  0  0  0  0  0  0  0  0  0  0
  -22.4720  -12.0730   22.4860 H   0  0  0  0  0  0  0  0  0  0  0  0
  -21.1630  -13.2060   22.3240 H   0  0  0  0  0  0  0  0  0  0  0  0
  -25.3840  -15.2950   20.2980 N   0  0  0  0  0  0  0  0  0  0  0  0
  -24.6330  -15.9540   20.4640 H   0  0  0  0  0  0  0  0  0  0  0  0
  -26.2270  -15.7370   19.9540 H   0  0  0  0  0  0  0  0  0  0  0  0
  -27.9460  -24.5720   20.0590 C   0  0  0  0  0  2  0  0  0  0  0  0
  -28.2250  -26.1260   20.2230 O   0  0  0  0  0  0  0  0  0  0  0  0
  -24.6410  -31.8930   23.2490 C   0  0  0  0  0  0  0  0  0  0  0  0
  -27.1860  -27.1420   20.1860 C   0  0  0  0  0  0  0  0  0  0  0  0
  -23.4310  -30.4990   21.6160 C   0  0  0  0  0  3  0  0  0  0  0  0
  -24.8680  -28.9170   20.1860 C   0  0  0  0  0  0  0  0  0  0  0  0
  -25.9890  -30.7500   21.4400 C   0  0  0  0  0  2  0  0  0  0  0  0
  -26.0570  -29.3550   20.7820 C   0  0  0  0  0  0  0  0  0  0  0  0
  -27.2180  -28.4850   20.7590 C   0  0  0  0  0  3  0  0  0  0  0  0
  -25.9680  -26.8190   19.5520 C   0  0  0  0  0  3  0  0  0  0  0  0
  -24.8390  -27.6660   19.5550 C   0  0  0  0  0  3  0  0  0  0  0  0
  -23.6470  -29.8230   20.2370 C   0  0  0  0  0  2  0  0  0  0  0  0
  -24.7080  -31.0700   22.1570 N   0  0  0  0  0  0  0  0  0  0  0  0
  -23.5560  -32.1810   23.7790 O   0  0  0  0  0  0  0  0  0  0  0  0
  -22.7530  -29.4960   22.5830 C   0  0  0  0  0  0  0  0  0  0  0  0
  -21.4250  -29.3200   22.4560 N   0  0  0  0  0  0  0  0  0  0  0  0
  -23.4240  -28.8760   23.4110 O   0  0  0  0  0  0  0  0  0  0  0  0
  -20.9380  -29.8740   21.7660 H   0  0  0  0  0  0  0  0  0  0  0  0
  -18.0500  -28.0890   22.9450 C   0  0  0  0  0  0  0  0  0  0  0  0
  -20.6050  -28.3830   23.2290 C   0  0  0  0  0  3  0  0  0  0  0  0
  -20.7240  -26.9440   22.6720 C   0  0  0  0  0  2  0  0  0  0  0  0
  -19.6350  -26.5980   21.6520 C   0  0  0  0  0  2  0  0  0  0  0  0
  -18.2460  -26.7350   22.2840 C   0  0  0  0  0  2  0  0  0  0  0  0
  -19.1570  -28.8690   23.3740 C   0  0  0  0  0  0  0  0  0  0  0  0
  -18.9170  -30.1330   23.9550 C   0  0  0  0  0  3  0  0  0  0  0  0
  -17.6040  -30.6180   24.1070 C   0  0  0  0  0  3  0  0  0  0  0  0
  -16.5130  -29.8370   23.6920 C   0  0  0  0  0  3  0  0  0  0  0  0
  -16.7370  -28.5730   23.1160 C   0  0  0  0  0  3  0  0  0  0  0  0
  -25.9200  -32.5300   23.8720 C   0  0  0  0  0  3  0  0  0  0  0  0
  -26.4350  -31.7580   25.1500 C   0  0  1  0  0  0  0  0  0  0  0  0
  -25.3430  -31.5260   26.2190 C   0  0  0  0  0  1  0  0  0  0  0  0
  -27.0120  -30.3770   24.7630 C   0  0  0  0  0  1  0  0  0  0  0  0
  -27.5920  -32.5470   25.8070 C   0  0  0  0  0  1  0  0  0  0  0  0
  -25.6090  -33.9280   24.2110 N   0  0  0  0  0  0  0  0  0  0  0  0
  -25.9190  -34.9860   23.4500 C   0  0  0  0  0  0  0  0  0  0  0  0
  -26.5640  -34.8880   22.4030 O   0  0  0  0  0  0  0  0  0  0  0  0
  -25.0310  -34.0790   25.0250 H   0  0  0  0  0  0  0  0  0  0  0  0
  -24.1650  -36.7690   23.1650 C   0  0  0  0  0  1  0  0  0  0  0  0
  -25.4420  -36.3740   23.9260 C   0  0  0  0  0  3  0  0  0  0  0  0
  -27.6020  -37.2760   24.6690 C   0  0  0  0  0  1  0  0  0  0  0  0
  -26.4620  -37.4340   23.7690 N   0  0  0  0  0  0  0  0  0  0  0  0
  -26.0560  -38.3520   23.9310 H   0  0  0  0  0  0  0  0  0  0  0  0
  2  1  1  0
  3  4  2  0
  5  7  1  0
  6  5  1  0
  6  8  1  0
  7  9  1  0
  7  3  1  0
  8  2  1  0
  8  4  1  0
 10  9  1  0
 11 16  1  0
 12 13  1  0
 12 11  1  0
 14 13  1  0
 14 21  1  0
 14 15  1  0
 16 10  1  0
 16 15  1  0
 17 10  2  0
 18 19  2  0
 19 38  1  0
 20 19  1  0
 20 23  1  0
 21 22  1  0
 21 18  1  0
 22 20  2  0
 23 24  1  0
 24 25  2  0
 26 29  1  0
 26 25  1  0
 27 26  2  0
 28 27  1  0
 28 23  2  0
 29 30  1  0
 30 31  1  0
 31 32  2  0
 33 32  1  0
 33 37  1  0
 34 33  2  0
 35 30  2  0
 35 34  1  0
 36 35  1  0
 38 39  1  0
 39 42  1  0
 39 41  1  0
 40 38  2  0
 43 18  1  0
 43 44  1  0
 45 43  1  0
 46 47  1  0
 46  2  1  0
 48 59  2  0
 49 47  1  0
 49 54  1  0
 50 58  1  0
 50 60  1  0
 51 57  1  0
 51 53  1  0
 52 58  1  0
 53 52  1  0
 54 53  2  0
 55 56  1  0
 55 49  2  0
 56 51  2  0
 57 50  1  0
 58 48  1  0
 60 62  2  0
 61 60  1  0
 63 61  1  0
 64 73  2  0
 64 69  1  0
 65 61  1  0
 65 69  1  0
 66 65  1  0
 67 68  1  0
 67 66  1  0
 68 64  1  0
 69 70  2  0
 70 71  1  0
 72 71  2  0
 73 72  1  0
 74 48  1  0
 74 79  1  0
 74 75  1  0
 75 78  1  1
 75 76  1  0
 77 75  1  0
 79 82  1  0
 80 84  1  0
 80 79  1  0
 81 80  2  0
 84 83  1  0
 86 84  1  0
 86 87  1  0
 86 85  1  0
M  ISO  4   9 100  10 100  46 101  47 101
M  END
>  <TORSDO>  (36) 
F 19

>  <SCORE>  (36) 
-16.212

>  <name>  (36) 
35

>  <ligand_id>  (36) 
35

>  <original_smiles>  (36) 
[H]C1=C([H])C([H])(C([H])(C([H])([H])[H])C([H])([H])Oc2c([H])c([H])c3c(c2[H])C([H])([H])N(C(=O)C([H])(N([H])C(=O)C([H])(N([H])C([H])([H])[H])C([H])([H])[H])C(C([H])([H])[H])(C([H])([H])[H])C([H])([H])[H])C([H])(C(=O)N([H])C2([H])c4c([H])c([H])c([H])c([H])c4C([H])([H])C([H])([H])C2([H])[H])C3([H])[H])C([H])([H])C([H])([H])C1([H])C([H])([H])C(=O)N1C([H])([H])C([H])([H])C([H])([H])C([H])(n2nc(-c3c([H])c([H])c(Oc4c([H])c([H])c(F)c([H])c4F)c([H])c3[H])c(C(=O)N([H])[H])c2N([H])[H])C1([H])[H]

>  <smiles>  (36) 
[H]C1=C([H])C([H])(C([H])(C([H])([H])[H])C([H])([H])Oc2c([H])c([H])c3c(c2[H])C([H])([H])N(C(=O)C([H])(N([H])C(=O)C([H])(N([H])C([H])([H])[H])C([H])([H])[H])C(C([H])([H])[H])(C([H])([H])[H])C([H])([H])[H])C([H])(C(=O)N([H])C2([H])c4c([H])c([H])c([H])c([H])c4C([H])([H])C([H])([H])C2([H])[H])C3([H])[H])C([H])([H])C([H])([H])C1([H])C([H])([H])C(=O)N1C([H])([H])C([H])([H])C([H])([H])C([H])(n2nc(-c3c([H])c([H])c(Oc4c([H])c([H])c(F)c([H])c4F)c([H])c3[H])c(C(=O)N([H])[H])c2N([H])[H])C1([H])[H]

$$$$
36:0:0
     RDKit          3D

 89 97  0  0  1  0  0  0  0  0999 V2000
  -29.8430  -20.5380   19.2740 C   0  0  0  0  0  3  0  0  0  0  0  0
  -28.7770  -20.4840   21.4350 C   0  0  0  0  0  3  0  0  0  0  0  0
  -29.8400  -21.9640   19.3090 C   0  0  0  0  0  3  0  0  0  0  0  0
  -28.7750  -21.9080   21.4700 C   0  0  0  0  0  3  0  0  0  0  0  0
  -29.3040  -19.7600   20.3330 C   0  0  0  0  0  0  0  0  0  0  0  0
  -29.2970  -22.6850   20.4040 C   0  0  0  0  0  0  0  0  0  0  0  0
  -29.1290  -18.2050   20.2220 C   0  0  0  0  0  3  0  0  0  0  0  0
  -30.2040  -17.2120   20.8250 C   0  0  0  0  0  3  0  0  0  0  0  0
  -30.6120  -14.6630   20.4970 C   0  0  0  0  0  0  0  0  0  0  0  0
  -30.4050  -12.4250   19.4420 C   0  0  0  0  0  2  0  0  0  0  0  0
  -29.4950  -12.5470   18.2000 C   0  0  0  0  0  2  0  0  0  0  0  0
  -28.0120  -12.3960   18.5920 C   0  0  0  0  0  2  0  0  0  0  0  0
  -27.6260  -13.2670   19.8190 C   0  0  0  0  0  3  0  0  0  0  0  0
  -28.6560  -13.1280   20.9610 C   0  0  0  0  0  2  0  0  0  0  0  0
  -29.9750  -13.4560   20.4060 N   0  0  0  0  0  0  0  0  0  0  0  0
  -31.7910  -14.7960   20.1590 O   0  0  0  0  0  0  0  0  0  0  0  0
  -29.8330  -15.7500   20.7860 N   0  0  0  0  0  0  0  0  0  0  0  0
  -28.8730  -15.5330   21.0050 H   0  0  0  0  0  0  0  0  0  0  0  0
  -25.2140  -13.8700   20.4580 C   0  0  0  0  0  0  0  0  0  0  0  0
  -24.1400  -13.0990   20.8100 C   0  0  0  0  0  0  0  0  0  0  0  0
  -24.6070  -11.7490   20.8190 C   0  0  0  0  0  0  0  0  0  0  0  0
  -26.2670  -12.9890   20.2700 N   0  0  0  0  0  0  0  0  0  0  0  0
  -25.9060  -11.7080   20.5500 N   0  0  0  0  0  0  0  0  0  0  0  0
  -23.8780  -10.4880   21.0120 C   0  0  0  0  0  0  0  0  0  0  0  0
  -24.2980   -9.5340   21.9640 C   0  0  0  0  0  3  0  0  0  0  0  0
  -23.5690   -8.3370   22.1460 C   0  0  0  0  0  3  0  0  0  0  0  0
  -22.4100   -8.0890   21.3740 C   0  0  0  0  0  0  0  0  0  0  0  0
  -22.0100   -9.0340   20.4120 C   0  0  0  0  0  3  0  0  0  0  0  0
  -22.7360  -10.2210   20.2300 C   0  0  0  0  0  3  0  0  0  0  0  0
  -21.6550   -6.9450   21.4610 O   0  0  0  0  0  0  0  0  0  0  0  0
  -21.5960   -6.2080   22.6170 C   0  0  0  0  0  0  0  0  0  0  0  0
  -21.1580   -6.7690   23.8350 C   0  0  0  0  0  3  0  0  0  0  0  0
  -21.0470   -5.9610   24.9840 C   0  0  0  0  0  3  0  0  0  0  0  0
  -21.3630   -4.5890   24.9130 C   0  0  0  0  0  0  0  0  0  0  0  0
  -21.7930   -4.0280   23.6980 C   0  0  0  0  0  3  0  0  0  0  0  0
  -21.9070   -4.8340   22.5530 C   0  0  0  0  0  0  0  0  0  0  0  0
  -22.3020   -4.2830   21.3790 F   0  0  0  0  0  0  0  0  0  0  0  0
  -21.2490   -3.8090   26.0140 F   0  0  0  0  0  0  0  0  0  0  0  0
  -22.7350  -13.5780   21.0300 C   0  0  0  0  0  0  0  0  0  0  0  0
  -21.9870  -12.9000   21.8910 N   0  0  0  0  0  0  0  0  0  0  0  0
  -22.3090  -14.5890   20.4740 O   0  0  0  0  0  0  0  0  0  0  0  0
  -22.3450  -12.0800   22.3590 H   0  0  0  0  0  0  0  0  0  0  0  0
  -21.0430  -13.2050   22.0870 H   0  0  0  0  0  0  0  0  0  0  0  0
  -25.3750  -15.2370   20.2610 N   0  0  0  0  0  0  0  0  0  0  0  0
  -24.5900  -15.8760   20.3340 H   0  0  0  0  0  0  0  0  0  0  0  0
  -26.2150  -15.6800   19.9110 H   0  0  0  0  0  0  0  0  0  0  0  0
  -29.3970  -24.2460   20.4920 C   0  0  0  0  0  3  0  0  0  0  0  0
  -28.1770  -25.1270   20.0330 C   0  0  0  0  0  3  0  0  0  0  0  0
  -28.3520  -26.5820   20.1750 O   0  0  0  0  0  0  0  0  0  0  0  0
  -24.6280  -31.8930   23.2570 C   0  0  0  0  0  0  0  0  0  0  0  0
  -27.2120  -27.3910   20.1380 C   0  0  0  0  0  0  0  0  0  0  0  0
  -23.4030  -30.5080   21.6200 C   0  0  0  0  0  3  0  0  0  0  0  0
  -24.8360  -28.9720   20.1670 C   0  0  0  0  0  0  0  0  0  0  0  0
  -25.9350  -30.8420   21.4010 C   0  0  0  0  0  2  0  0  0  0  0  0
  -26.0090  -29.4690   20.7490 C   0  0  0  0  0  0  0  0  0  0  0  0
  -27.2000  -28.6910   20.7220 C   0  0  0  0  0  3  0  0  0  0  0  0
  -26.0150  -26.9370   19.5380 C   0  0  0  0  0  3  0  0  0  0  0  0
  -24.8390  -27.7100   19.5520 C   0  0  0  0  0  3  0  0  0  0  0  0
  -23.5990  -29.8420   20.2320 C   0  0  0  0  0  2  0  0  0  0  0  0
  -24.6750  -31.0960   22.1500 N   0  0  0  0  0  0  0  0  0  0  0  0
  -23.5510  -32.1650   23.8080 O   0  0  0  0  0  0  0  0  0  0  0  0
  -22.7520  -29.4830   22.5790 C   0  0  0  0  0  0  0  0  0  0  0  0
  -21.4260  -29.3010   22.4610 N   0  0  0  0  0  0  0  0  0  0  0  0
  -23.4390  -28.8560   23.3910 O   0  0  0  0  0  0  0  0  0  0  0  0
  -20.9310  -29.8630   21.7820 H   0  0  0  0  0  0  0  0  0  0  0  0
  -18.0560  -28.0870   22.9620 C   0  0  0  0  0  0  0  0  0  0  0  0
  -20.6130  -28.3600   23.2320 C   0  0  0  0  0  3  0  0  0  0  0  0
  -20.7230  -26.9280   22.6580 C   0  0  0  0  0  2  0  0  0  0  0  0
  -19.6220  -26.5990   21.6440 C   0  0  0  0  0  2  0  0  0  0  0  0
  -18.2400  -26.7380   22.2880 C   0  0  0  0  0  2  0  0  0  0  0  0
  -19.1720  -28.8550   23.3910 C   0  0  0  0  0  0  0  0  0  0  0  0
  -18.9470  -30.1180   23.9820 C   0  0  0  0  0  3  0  0  0  0  0  0
  -17.6400  -30.6120   24.1490 C   0  0  0  0  0  3  0  0  0  0  0  0
  -16.5390  -29.8420   23.7360 C   0  0  0  0  0  3  0  0  0  0  0  0
  -16.7480  -28.5810   23.1460 C   0  0  0  0  0  3  0  0  0  0  0  0
  -25.9190  -32.5170   23.8700 C   0  0  0  0  0  3  0  0  0  0  0  0
  -26.4440  -31.7370   25.1380 C   0  0  1  0  0  0  0  0  0  0  0  0
  -25.3620  -31.5020   26.2160 C   0  0  0  0  0  1  0  0  0  0  0  0
  -27.0180  -30.3590   24.7350 C   0  0  0  0  0  1  0  0  0  0  0  0
  -27.6030  -32.5250   25.7940 C   0  0  0  0  0  1  0  0  0  0  0  0
  -25.6160  -33.9150   24.2090 N   0  0  0  0  0  0  0  0  0  0  0  0
  -25.9310  -34.9700   23.4460 C   0  0  0  0  0  0  0  0  0  0  0  0
  -26.5790  -34.8670   22.4000 O   0  0  0  0  0  0  0  0  0  0  0  0
  -25.0350  -34.0670   25.0200 H   0  0  0  0  0  0  0  0  0  0  0  0
  -24.1870  -36.7590   23.1430 C   0  0  0  0  0  1  0  0  0  0  0  0
  -25.4540  -36.3570   23.9160 C   0  0  0  0  0  3  0  0  0  0  0  0
  -27.6100  -37.2500   24.6790 C   0  0  0  0  0  1  0  0  0  0  0  0
  -26.4790  -37.4130   23.7690 N   0  0  0  0  0  0  0  0  0  0  0  0
  -26.0750  -38.3320   23.9270 H   0  0  0  0  0  0  0  0  0  0  0  0
  1  3  2  0
  1  5  1  0
  2  4  1  0
  3  6  1  0
  5  2  2  0
  6 47  1  0
  6  4  2  0
  7  5  1  0
  7  8  2  0
  9 17  1  0
 10 15  1  0
 11 12  1  0
 11 10  1  0
 13 12  1  0
 13 22  1  0
 13 14  1  0
 15  9  1  0
 15 14  1  0
 16  9  2  0
 17  8  1  0
 17 18  1  0
 19 20  2  0
 20 21  1  0
 20 39  1  0
 21 24  1  0
 22 19  1  0
 22 23  1  0
 23 21  2  0
 24 25  1  0
 25 26  2  0
 27 30  1  0
 27 26  1  0
 28 27  2  0
 29 28  1  0
 29 24  2  0
 30 31  1  0
 31 32  1  0
 32 33  2  0
 34 33  1  0
 34 38  1  0
 35 34  2  0
 36 31  2  0
 36 35  1  0
 37 36  1  0
 39 40  1  0
 40 43  1  0
 40 42  1  0
 41 39  2  0
 44 45  1  0
 44 19  1  0
 46 44  1  0
 48 49  1  0
 48 47  2  0
 50 61  2  0
 51 49  1  0
 51 56  1  0
 52 60  1  0
 52 62  1  0
 53 59  1  0
 53 55  1  0
 54 60  1  0
 55 54  1  0
 56 55  2  0
 57 58  1  0
 57 51  2  0
 58 53  2  0
 59 52  1  0
 60 50  1  0
 62 64  2  0
 63 62  1  0
 65 63  1  0
 66 75  2  0
 66 71  1  0
 67 63  1  0
 67 71  1  0
 68 67  1  0
 69 70  1  0
 69 68  1  0
 70 66  1  0
 71 72  2  0
 72 73  1  0
 74 73  2  0
 75 74  1  0
 76 50  1  0
 76 81  1  0
 76 77  1  0
 77 80  1  1
 77 78  1  0
 79 77  1  0
 81 84  1  0
 82 86  1  0
 82 81  1  0
 83 82  2  0
 86 85  1  0
 88 86  1  0
 88 89  1  0
 88 87  1  0
M  ISO  4   9 100  17 100  48 101  49 101
M  END
>  <TORSDO>  (37) 
F 20

>  <SCORE>  (37) 
-13.487

>  <name>  (37) 
36

>  <ligand_id>  (37) 
36

>  <original_smiles>  (37) 
[H]c1c([H])c([H])c2c(c1[H])C([H])([H])C([H])([H])C([H])([H])C2([H])N([H])C(=O)C1([H])N(C(=O)C([H])(N([H])C(=O)C([H])(N([H])C([H])([H])[H])C([H])([H])[H])C(C([H])([H])[H])(C([H])([H])[H])C([H])([H])[H])C([H])([H])c2c([H])c(OC([H])([H])C([H])([H])c3c([H])c([H])c(C([H])([H])C([H])([H])N([H])C(=O)N4C([H])([H])C([H])([H])C([H])([H])C([H])(n5nc(-c6c([H])c([H])c(Oc7c([H])c([H])c(F)c([H])c7F)c([H])c6[H])c(C(=O)N([H])[H])c5N([H])[H])C4([H])[H])c([H])c3[H])c([H])c([H])c2C1([H])[H]

>  <smiles>  (37) 
[H]c1c([H])c([H])c2c(c1[H])C([H])([H])C([H])([H])C([H])([H])C2([H])N([H])C(=O)C1([H])N(C(=O)C([H])(N([H])C(=O)C([H])(N([H])C([H])([H])[H])C([H])([H])[H])C(C([H])([H])[H])(C([H])([H])[H])C([H])([H])[H])C([H])([H])c2c([H])c(OC([H])([H])C([H])([H])c3c([H])c([H])c(C([H])([H])C([H])([H])N([H])C(=O)N4C([H])([H])C([H])([H])C([H])([H])C([H])(n5nc(-c6c([H])c([H])c(Oc7c([H])c([H])c(F)c([H])c7F)c([H])c6[H])c(C(=O)N([H])[H])c5N([H])[H])C4([H])[H])c([H])c3[H])c([H])c([H])c2C1([H])[H]

$$$$
37:0:0
     RDKit          3D

 89 97  0  0  1  0  0  0  0  0999 V2000
  -28.2670  -21.6910   18.2870 C   0  0  0  0  0  1  0  0  0  0  0  0
  -29.1640  -21.6510   19.5370 C   0  0  0  0  0  3  0  0  0  0  0  0
  -29.6380  -18.8460   19.7120 C   0  0  0  0  0  3  0  0  0  0  0  0
  -29.0650  -20.0970   20.1120 C   0  0  0  0  0  3  0  0  0  0  0  0
  -30.6930  -14.8740   19.5020 C   0  0  0  0  0  0  0  0  0  0  0  0
  -30.2910  -12.5960   18.4650 C   0  0  0  0  0  2  0  0  0  0  0  0
  -29.1920  -12.6730   17.3860 C   0  0  0  0  0  2  0  0  0  0  0  0
  -27.8130  -12.4490   18.0260 C   0  0  0  0  0  2  0  0  0  0  0  0
  -27.6150  -13.3000   19.3060 C   0  0  0  0  0  3  0  0  0  0  0  0
  -28.8300  -13.2420   20.2600 C   0  0  0  0  0  2  0  0  0  0  0  0
  -30.0100  -13.6530   19.4860 N   0  0  0  0  0  0  0  0  0  0  0  0
  -31.7810  -14.8950   18.9130 O   0  0  0  0  0  0  0  0  0  0  0  0
  -30.1920  -17.1280   22.3800 C   0  0  0  0  0  2  0  0  0  0  0  0
  -28.8720  -17.2780   21.6310 C   0  0  0  0  0  2  0  0  0  0  0  0
  -31.0370  -16.2000   21.4990 C   0  0  0  0  0  2  0  0  0  0  0  0
  -29.3180  -17.2730   20.1640 C   0  0  0  0  0  3  0  0  0  0  0  0
  -30.3070  -16.0340   20.2400 N   0  0  0  0  0  0  0  0  0  0  0  0
  -25.4080  -13.8540   20.4740 C   0  0  0  0  0  0  0  0  0  0  0  0
  -24.3800  -13.0720   20.9210 C   0  0  0  0  0  0  0  0  0  0  0  0
  -24.7710  -11.7190   20.6740 C   0  0  0  0  0  0  0  0  0  0  0  0
  -26.3610  -12.9800   19.9800 N   0  0  0  0  0  0  0  0  0  0  0  0
  -25.9960  -11.6830   20.1600 N   0  0  0  0  0  0  0  0  0  0  0  0
  -24.0220  -10.4650   20.8450 C   0  0  0  0  0  0  0  0  0  0  0  0
  -24.5030   -9.4210   21.6680 C   0  0  0  0  0  3  0  0  0  0  0  0
  -23.7510   -8.2380   21.8320 C   0  0  0  0  0  3  0  0  0  0  0  0
  -22.5070   -8.0890   21.1750 C   0  0  0  0  0  0  0  0  0  0  0  0
  -22.0460   -9.1200   20.3370 C   0  0  0  0  0  3  0  0  0  0  0  0
  -22.7950  -10.2960   20.1690 C   0  0  0  0  0  3  0  0  0  0  0  0
  -21.7240   -6.9620   21.2540 O   0  0  0  0  0  0  0  0  0  0  0  0
  -21.6880   -6.1900   22.3880 C   0  0  0  0  0  0  0  0  0  0  0  0
  -21.3230   -6.7250   23.6420 C   0  0  0  0  0  3  0  0  0  0  0  0
  -21.2280   -5.8830   24.7680 C   0  0  0  0  0  3  0  0  0  0  0  0
  -21.4910   -4.5060   24.6410 C   0  0  0  0  0  0  0  0  0  0  0  0
  -21.8530   -3.9700   23.3920 C   0  0  0  0  0  3  0  0  0  0  0  0
  -21.9490   -4.8100   22.2690 C   0  0  0  0  0  0  0  0  0  0  0  0
  -22.2750   -4.2850   21.0640 F   0  0  0  0  0  0  0  0  0  0  0  0
  -21.3950   -3.6950   25.7190 F   0  0  0  0  0  0  0  0  0  0  0  0
  -23.0650  -13.5570   21.4620 C   0  0  0  0  0  0  0  0  0  0  0  0
  -22.4590  -12.8060   22.3700 N   0  0  0  0  0  0  0  0  0  0  0  0
  -22.5920  -14.6390   21.1090 O   0  0  0  0  0  0  0  0  0  0  0  0
  -22.8600  -11.9320   22.6780 H   0  0  0  0  0  0  0  0  0  0  0  0
  -21.5810  -13.1110   22.7690 H   0  0  0  0  0  0  0  0  0  0  0  0
  -25.6020  -15.2320   20.4230 N   0  0  0  0  0  0  0  0  0  0  0  0
  -24.8880  -15.8840   20.7300 H   0  0  0  0  0  0  0  0  0  0  0  0
  -26.4180  -15.6900   20.0380 H   0  0  0  0  0  0  0  0  0  0  0  0
  -28.1420  -22.7720   21.6910 C   0  0  0  0  0  1  0  0  0  0  0  0
  -28.9120  -23.1050   20.4050 C   0  0  0  0  0  3  0  0  0  0  0  0
  -28.2870  -24.5600   19.7620 C   0  0  0  0  0  2  0  0  0  0  0  0
  -28.3140  -26.0340   20.3200 O   0  0  0  0  0  0  0  0  0  0  0  0
  -24.6310  -31.7530   23.2000 C   0  0  0  0  0  0  0  0  0  0  0  0
  -27.2590  -27.0240   20.1960 C   0  0  0  0  0  0  0  0  0  0  0  0
  -23.4560  -30.3510   21.5490 C   0  0  0  0  0  3  0  0  0  0  0  0
  -24.9240  -28.7830   20.1350 C   0  0  0  0  0  0  0  0  0  0  0  0
  -26.0110  -30.6160   21.4160 C   0  0  0  0  0  2  0  0  0  0  0  0
  -26.0940  -29.2230   20.7650 C   0  0  0  0  0  0  0  0  0  0  0  0
  -27.2590  -28.3610   20.7810 C   0  0  0  0  0  3  0  0  0  0  0  0
  -26.0660  -26.7030   19.5070 C   0  0  0  0  0  3  0  0  0  0  0  0
  -24.9280  -27.5380   19.4890 C   0  0  0  0  0  3  0  0  0  0  0  0
  -23.6910  -29.6770   20.1710 C   0  0  0  0  0  2  0  0  0  0  0  0
  -24.7190  -30.9300   22.1080 N   0  0  0  0  0  0  0  0  0  0  0  0
  -23.5370  -32.0320   23.7120 O   0  0  0  0  0  0  0  0  0  0  0  0
  -22.7670  -29.3420   22.5030 C   0  0  0  0  0  0  0  0  0  0  0  0
  -21.4370  -29.1870   22.3730 N   0  0  0  0  0  0  0  0  0  0  0  0
  -23.4340  -28.7070   23.3240 O   0  0  0  0  0  0  0  0  0  0  0  0
  -20.9580  -29.7530   21.6850 H   0  0  0  0  0  0  0  0  0  0  0  0
  -18.0430  -28.0170   22.8740 C   0  0  0  0  0  0  0  0  0  0  0  0
  -20.6050  -28.2520   23.1360 C   0  0  0  0  0  3  0  0  0  0  0  0
  -20.6910  -26.8240   22.5500 C   0  0  0  0  0  2  0  0  0  0  0  0
  -19.5870  -26.5210   21.5330 C   0  0  0  0  0  2  0  0  0  0  0  0
  -18.2070  -26.6730   22.1810 C   0  0  0  0  0  2  0  0  0  0  0  0
  -19.1700  -28.7630   23.3090 C   0  0  0  0  0  0  0  0  0  0  0  0
  -18.9660  -30.0190   23.9180 C   0  0  0  0  0  3  0  0  0  0  0  0
  -17.6680  -30.5320   24.0960 C   0  0  0  0  0  3  0  0  0  0  0  0
  -16.5550  -29.7820   23.6800 C   0  0  0  0  0  3  0  0  0  0  0  0
  -16.7420  -28.5260   23.0760 C   0  0  0  0  0  3  0  0  0  0  0  0
  -25.9000  -32.3930   23.8410 C   0  0  0  0  0  3  0  0  0  0  0  0
  -26.3850  -31.6360   25.1380 C   0  0  1  0  0  0  0  0  0  0  0  0
  -25.2710  -31.4150   26.1870 C   0  0  0  0  0  1  0  0  0  0  0  0
  -26.9760  -30.2530   24.7830 C   0  0  0  0  0  1  0  0  0  0  0  0
  -27.5230  -32.4390   25.8140 C   0  0  0  0  0  1  0  0  0  0  0  0
  -25.5800  -33.7960   24.1560 N   0  0  0  0  0  0  0  0  0  0  0  0
  -25.9060  -34.8470   23.3930 C   0  0  0  0  0  0  0  0  0  0  0  0
  -26.5770  -34.7410   22.3640 O   0  0  0  0  0  0  0  0  0  0  0  0
  -24.9840  -33.9510   24.9570 H   0  0  0  0  0  0  0  0  0  0  0  0
  -24.1660  -36.6330   23.0380 C   0  0  0  0  0  1  0  0  0  0  0  0
  -25.4160  -36.2390   23.8420 C   0  0  0  0  0  3  0  0  0  0  0  0
  -27.5540  -37.1400   24.6510 C   0  0  0  0  0  1  0  0  0  0  0  0
  -26.4430  -37.2980   23.7150 N   0  0  0  0  0  0  0  0  0  0  0  0
  -26.0330  -38.2170   23.8670 H   0  0  0  0  0  0  0  0  0  0  0  0
  2  1  1  0
  2  4  1  0
  2 47  1  0
  3  4  2  0
  5 17  1  0
  6 11  1  0
  7  8  1  0
  7  6  1  0
  9  8  1  0
  9 21  1  0
  9 10  1  0
 11  5  1  0
 11 10  1  0
 12  5  2  0
 14 13  1  0
 15 13  1  0
 16  3  1  0
 16 17  1  0
 16 14  1  0
 17 15  1  0
 18 19  2  0
 19 38  1  0
 20 23  1  0
 20 19  1  0
 21 22  1  0
 21 18  1  0
 22 20  2  0
 23 24  1  0
 24 25  2  0
 26 29  1  0
 26 25  1  0
 27 26  2  0
 28 27  1  0
 28 23  2  0
 29 30  1  0
 30 31  1  0
 31 32  2  0
 33 32  1  0
 33 37  1  0
 34 33  2  0
 35 30  2  0
 35 34  1  0
 36 35  1  0
 38 39  1  0
 39 41  1  0
 39 42  1  0
 40 38  2  0
 43 18  1  0
 43 44  1  0
 45 43  1  0
 47 46  1  0
 48 49  1  0
 48 47  1  0
 50 61  2  0
 51 49  1  0
 51 56  1  0
 52 60  1  0
 52 62  1  0
 53 59  1  0
 53 55  1  0
 54 60  1  0
 55 56  2  0
 55 54  1  0
 57 51  2  0
 58 57  1  0
 58 53  2  0
 59 52  1  0
 60 50  1  0
 62 64  2  0
 63 62  1  0
 65 63  1  0
 66 75  2  0
 66 71  1  0
 67 63  1  0
 67 71  1  0
 68 67  1  0
 69 70  1  0
 69 68  1  0
 70 66  1  0
 71 72  2  0
 72 73  1  0
 74 73  2  0
 75 74  1  0
 76 50  1  0
 76 81  1  0
 76 77  1  0
 77 80  1  1
 77 78  1  0
 79 77  1  0
 81 84  1  0
 82 86  1  0
 82 81  1  0
 83 82  2  0
 86 85  1  0
 88 86  1  0
 88 89  1  0
 88 87  1  0
M  ISO  4   5 100  17 100  48 101  49 101
M  END
>  <TORSDO>  (38) 
F 19

>  <SCORE>  (38) 
-13.104

>  <name>  (38) 
37

>  <ligand_id>  (38) 
37

>  <original_smiles>  (38) 
[H]C(=C([H])C([H])(C([H])([H])[H])C([H])(C([H])([H])[H])C([H])([H])Oc1c([H])c([H])c2c(c1[H])C([H])([H])N(C(=O)C([H])(N([H])C(=O)C([H])(N([H])C([H])([H])[H])C([H])([H])[H])C(C([H])([H])[H])(C([H])([H])[H])C([H])([H])[H])C([H])(C(=O)N([H])C1([H])c3c([H])c([H])c([H])c([H])c3C([H])([H])C([H])([H])C1([H])[H])C2([H])[H])C1([H])N(C(=O)N2C([H])([H])C([H])([H])C([H])([H])C([H])(n3nc(-c4c([H])c([H])c(Oc5c([H])c([H])c(F)c([H])c5F)c([H])c4[H])c(C(=O)N([H])[H])c3N([H])[H])C2([H])[H])C([H])([H])C([H])([H])C1([H])[H]

>  <smiles>  (38) 
[H]C(=C([H])C([H])(C([H])([H])[H])C([H])(C([H])([H])[H])C([H])([H])Oc1c([H])c([H])c2c(c1[H])C([H])([H])N(C(=O)C([H])(N([H])C(=O)C([H])(N([H])C([H])([H])[H])C([H])([H])[H])C(C([H])([H])[H])(C([H])([H])[H])C([H])([H])[H])C([H])(C(=O)N([H])C1([H])c3c([H])c([H])c([H])c([H])c3C([H])([H])C([H])([H])C1([H])[H])C2([H])[H])C1([H])N(C(=O)N2C([H])([H])C([H])([H])C([H])([H])C([H])(n3nc(-c4c([H])c([H])c(Oc5c([H])c([H])c(F)c([H])c5F)c([H])c4[H])c(C(=O)N([H])[H])c3N([H])[H])C2([H])[H])C([H])([H])C([H])([H])C1([H])[H]

$$$$
38:0:0
     RDKit          3D

 86 94  0  0  1  0  0  0  0  0999 V2000
  -29.7940  -21.6630   19.8400 C   0  0  0  0  0  0  0  0  0  0  0  0
  -28.0170  -21.1370   20.6700 C   0  0  0  0  0  2  0  0  0  0  0  0
  -28.7000  -22.6520   20.6050 C   0  0  0  0  0  3  0  0  0  0  0  0
  -29.3760  -20.2080   20.5810 C   0  0  0  0  0  3  0  0  0  0  0  0
  -30.6050  -21.9140   18.9460 O   0  0  0  0  0  0  0  0  0  0  0  0
  -31.2270  -18.6140   19.4440 C   0  0  0  0  0  1  0  0  0  0  0  0
  -29.7830  -18.5390   19.9620 C   0  0  0  0  0  3  0  0  0  0  0  0
  -29.6910  -16.8710   20.6660 C   0  0  0  0  0  2  0  0  0  0  0  0
  -30.4350  -15.3090   20.2880 C   0  0  0  0  0  0  0  0  0  0  0  0
  -30.4100  -12.8600   19.4010 C   0  0  0  0  0  2  0  0  0  0  0  0
  -29.4960  -12.6970   18.1590 C   0  0  0  0  0  2  0  0  0  0  0  0
  -28.0420  -12.4300   18.5830 C   0  0  0  0  0  2  0  0  0  0  0  0
  -27.5970  -13.3770   19.7250 C   0  0  0  0  0  3  0  0  0  0  0  0
  -28.6390  -13.4980   20.8580 C   0  0  0  0  0  2  0  0  0  0  0  0
  -29.8860  -13.9920   20.2540 N   0  0  0  0  0  0  0  0  0  0  0  0
  -31.6340  -15.2940   19.9680 O   0  0  0  0  0  0  0  0  0  0  0  0
  -25.2240  -13.9400   20.4680 C   0  0  0  0  0  0  0  0  0  0  0  0
  -24.1580  -13.1660   20.8330 C   0  0  0  0  0  0  0  0  0  0  0  0
  -24.6210  -11.8140   20.8060 C   0  0  0  0  0  0  0  0  0  0  0  0
  -26.2660  -13.0610   20.2270 N   0  0  0  0  0  0  0  0  0  0  0  0
  -25.9150  -11.7770   20.4990 N   0  0  0  0  0  0  0  0  0  0  0  0
  -23.8900  -10.5540   20.9950 C   0  0  0  0  0  0  0  0  0  0  0  0
  -24.3090   -9.5880   21.9350 C   0  0  0  0  0  3  0  0  0  0  0  0
  -23.5760   -8.3950   22.1140 C   0  0  0  0  0  3  0  0  0  0  0  0
  -22.4080   -8.1600   21.3500 C   0  0  0  0  0  0  0  0  0  0  0  0
  -22.0070   -9.1140   20.3980 C   0  0  0  0  0  3  0  0  0  0  0  0
  -22.7420  -10.2980   20.2180 C   0  0  0  0  0  3  0  0  0  0  0  0
  -21.6450   -7.0200   21.4360 O   0  0  0  0  0  0  0  0  0  0  0  0
  -21.5750   -6.2860   22.5940 C   0  0  0  0  0  0  0  0  0  0  0  0
  -21.1270   -6.8510   23.8070 C   0  0  0  0  0  3  0  0  0  0  0  0
  -21.0040   -6.0450   24.9560 C   0  0  0  0  0  3  0  0  0  0  0  0
  -21.3190   -4.6750   24.8930 C   0  0  0  0  0  0  0  0  0  0  0  0
  -21.7590   -4.1090   23.6830 C   0  0  0  0  0  3  0  0  0  0  0  0
  -21.8840   -4.9120   22.5370 C   0  0  0  0  0  0  0  0  0  0  0  0
  -22.2890   -4.3570   21.3690 F   0  0  0  0  0  0  0  0  0  0  0  0
  -21.1930   -3.8980   25.9940 F   0  0  0  0  0  0  0  0  0  0  0  0
  -22.7620  -13.6470   21.0960 C   0  0  0  0  0  0  0  0  0  0  0  0
  -22.0250  -12.9530   21.9550 N   0  0  0  0  0  0  0  0  0  0  0  0
  -22.3340  -14.6770   20.5740 O   0  0  0  0  0  0  0  0  0  0  0  0
  -22.3840  -12.1200   22.3970 H   0  0  0  0  0  0  0  0  0  0  0  0
  -21.0870  -13.2570   22.1730 H   0  0  0  0  0  0  0  0  0  0  0  0
  -25.3920  -15.3100   20.2920 N   0  0  0  0  0  0  0  0  0  0  0  0
  -24.6310  -15.9700   20.4070 H   0  0  0  0  0  0  0  0  0  0  0  0
  -26.2480  -15.7450   19.9700 H   0  0  0  0  0  0  0  0  0  0  0  0
  -27.9910  -24.2340   20.0640 C   0  0  0  0  0  2  0  0  0  0  0  0
  -28.1960  -25.8530   20.3500 O   0  0  0  0  0  0  0  0  0  0  0  0
  -24.6150  -31.8430   23.2250 C   0  0  0  0  0  0  0  0  0  0  0  0
  -27.1900  -26.9530   20.2460 C   0  0  0  0  0  0  0  0  0  0  0  0
  -23.4300  -30.4390   21.5860 C   0  0  0  0  0  3  0  0  0  0  0  0
  -24.8880  -28.8310   20.1740 C   0  0  0  0  0  0  0  0  0  0  0  0
  -25.9970  -30.6520   21.4520 C   0  0  0  0  0  2  0  0  0  0  0  0
  -26.0710  -29.2390   20.8030 C   0  0  0  0  0  0  0  0  0  0  0  0
  -27.2150  -28.3210   20.8140 C   0  0  0  0  0  3  0  0  0  0  0  0
  -25.9810  -26.7000   19.5600 C   0  0  0  0  0  3  0  0  0  0  0  0
  -24.8690  -27.5820   19.5320 C   0  0  0  0  0  3  0  0  0  0  0  0
  -23.6660  -29.7490   20.2140 C   0  0  0  0  0  2  0  0  0  0  0  0
  -24.7020  -31.0050   22.1420 N   0  0  0  0  0  0  0  0  0  0  0  0
  -23.5220  -32.1340   23.7400 O   0  0  0  0  0  0  0  0  0  0  0  0
  -22.7330  -29.4470   22.5540 C   0  0  0  0  0  0  0  0  0  0  0  0
  -21.4020  -29.2870   22.4300 N   0  0  0  0  0  0  0  0  0  0  0  0
  -23.3950  -28.8210   23.3850 O   0  0  0  0  0  0  0  0  0  0  0  0
  -20.9200  -29.8420   21.7360 H   0  0  0  0  0  0  0  0  0  0  0  0
  -18.0130  -28.0960   22.9460 C   0  0  0  0  0  0  0  0  0  0  0  0
  -20.5760  -28.3540   23.2020 C   0  0  0  0  0  3  0  0  0  0  0  0
  -20.6700  -26.9210   22.6270 C   0  0  0  0  0  2  0  0  0  0  0  0
  -19.5630  -26.6020   21.6150 C   0  0  0  0  0  2  0  0  0  0  0  0
  -18.1840  -26.7490   22.2640 C   0  0  0  0  0  2  0  0  0  0  0  0
  -19.1350  -28.8560   23.3720 C   0  0  0  0  0  0  0  0  0  0  0  0
  -18.9190  -30.1140   23.9740 C   0  0  0  0  0  3  0  0  0  0  0  0
  -17.6150  -30.6150   24.1520 C   0  0  0  0  0  3  0  0  0  0  0  0
  -16.5090  -29.8520   23.7380 C   0  0  0  0  0  3  0  0  0  0  0  0
  -16.7080  -28.5940   23.1420 C   0  0  0  0  0  3  0  0  0  0  0  0
  -25.8820  -32.4910   23.8620 C   0  0  0  0  0  3  0  0  0  0  0  0
  -26.3740  -31.7380   25.1610 C   0  0  1  0  0  0  0  0  0  0  0  0
  -25.2640  -31.5230   26.2170 C   0  0  0  0  0  1  0  0  0  0  0  0
  -26.9580  -30.3520   24.8090 C   0  0  0  0  0  1  0  0  0  0  0  0
  -27.5180  -32.5390   25.8280 C   0  0  0  0  0  1  0  0  0  0  0  0
  -25.5630  -33.8930   24.1810 N   0  0  0  0  0  0  0  0  0  0  0  0
  -25.9030  -34.9490   23.4290 C   0  0  0  0  0  0  0  0  0  0  0  0
  -26.5800  -34.8440   22.4030 O   0  0  0  0  0  0  0  0  0  0  0  0
  -24.9610  -34.0480   24.9770 H   0  0  0  0  0  0  0  0  0  0  0  0
  -24.1830  -36.7540   23.0670 C   0  0  0  0  0  1  0  0  0  0  0  0
  -25.4180  -36.3420   23.8840 C   0  0  0  0  0  3  0  0  0  0  0  0
  -27.5490  -37.2240   24.7290 C   0  0  0  0  0  1  0  0  0  0  0  0
  -26.4550  -37.3920   23.7770 N   0  0  0  0  0  0  0  0  0  0  0  0
  -26.0510  -38.3140   23.9150 H   0  0  0  0  0  0  0  0  0  0  0  0
  1  4  1  0
  1  3  1  0
  3 45  1  0
  3  2  1  0
  4  7  1  0
  4  2  1  0
  5  1  2  0
  7  6  1  0
  7  8  1  0
  9  8  1  0
 10 15  1  0
 11 12  1  0
 11 10  1  0
 13 12  1  0
 13 20  1  0
 13 14  1  0
 15  9  1  0
 15 14  1  0
 16  9  2  0
 17 18  2  0
 18 37  1  0
 19 18  1  0
 19 22  1  0
 20 17  1  0
 20 21  1  0
 21 19  2  0
 22 23  1  0
 23 24  2  0
 25 28  1  0
 25 24  1  0
 26 25  2  0
 27 26  1  0
 27 22  2  0
 28 29  1  0
 29 30  1  0
 30 31  2  0
 32 31  1  0
 32 36  1  0
 33 32  2  0
 34 29  2  0
 34 33  1  0
 35 34  1  0
 37 38  1  0
 38 41  1  0
 38 40  1  0
 39 37  2  0
 42 43  1  0
 42 17  1  0
 44 42  1  0
 45 46  1  0
 47 58  2  0
 48 46  1  0
 48 53  1  0
 49 57  1  0
 49 59  1  0
 50 56  1  0
 50 52  1  0
 51 57  1  0
 52 53  2  0
 52 51  1  0
 54 48  2  0
 55 54  1  0
 55 50  2  0
 56 49  1  0
 57 47  1  0
 59 61  2  0
 60 59  1  0
 62 60  1  0
 63 72  2  0
 63 68  1  0
 64 60  1  0
 64 68  1  0
 65 64  1  0
 66 67  1  0
 66 65  1  0
 67 63  1  0
 68 69  2  0
 69 70  1  0
 71 70  2  0
 72 71  1  0
 73 47  1  0
 73 78  1  0
 73 74  1  0
 74 77  1  1
 74 75  1  0
 76 74  1  0
 78 81  1  0
 79 83  1  0
 79 78  1  0
 80 79  2  0
 83 82  1  0
 85 83  1  0
 85 86  1  0
 85 84  1  0
M  ISO  4   8 100   9 100  45 101  46 101
M  END
>  <TORSDO>  (39) 
F 19

>  <SCORE>  (39) 
-16.534

>  <name>  (39) 
38

>  <ligand_id>  (39) 
38

>  <original_smiles>  (39) 
[H]c1c([H])c([H])c2c(c1[H])C([H])([H])C([H])([H])C([H])([H])C2([H])N([H])C(=O)C1([H])N(C(=O)C([H])(N([H])C(=O)C([H])(N([H])C([H])([H])[H])C([H])([H])[H])C(C([H])([H])[H])(C([H])([H])[H])C([H])([H])[H])C([H])([H])c2c([H])c(OC([H])([H])C3([H])C(=O)C([H])(C([H])(C([H])([H])[H])C([H])([H])C(=O)N4C([H])([H])C([H])([H])C([H])([H])C([H])(n5nc(-c6c([H])c([H])c(Oc7c([H])c([H])c(F)c([H])c7F)c([H])c6[H])c(C(=O)N([H])[H])c5N([H])[H])C4([H])[H])C3([H])[H])c([H])c([H])c2C1([H])[H]

>  <smiles>  (39) 
[H]c1c([H])c([H])c2c(c1[H])C([H])([H])C([H])([H])C([H])([H])C2([H])N([H])C(=O)C1([H])N(C(=O)C([H])(N([H])C(=O)C([H])(N([H])C([H])([H])[H])C([H])([H])[H])C(C([H])([H])[H])(C([H])([H])[H])C([H])([H])[H])C([H])([H])c2c([H])c(OC([H])([H])C3([H])C(=O)C([H])(C([H])(C([H])([H])[H])C([H])([H])C(=O)N4C([H])([H])C([H])([H])C([H])([H])C([H])(n5nc(-c6c([H])c([H])c(Oc7c([H])c([H])c(F)c([H])c7F)c([H])c6[H])c(C(=O)N([H])[H])c5N([H])[H])C4([H])[H])C3([H])[H])c([H])c([H])c2C1([H])[H]

$$$$
39:0:0
     RDKit          3D

 90 99  0  0  1  0  0  0  0  0999 V2000
  -28.1090  -20.9190   19.7440 C   0  0  0  0  0  3  0  0  0  0  0  0
  -29.0860  -19.8470   20.5690 C   0  0  0  0  0  3  0  0  0  0  0  0
  -28.4790  -22.3950   20.4650 C   0  0  0  0  0  3  0  0  0  0  0  0
  -29.8020  -21.3780   20.6000 C   0  0  1  0  0  0  0  0  0  0  0  0
  -30.3860  -15.5070   20.1910 C   0  0  0  0  0  0  0  0  0  0  0  0
  -30.4070  -13.0110   19.3740 C   0  0  0  0  0  2  0  0  0  0  0  0
  -29.4900  -12.7300   18.1540 C   0  0  0  0  0  2  0  0  0  0  0  0
  -28.0570  -12.4180   18.6110 C   0  0  0  0  0  2  0  0  0  0  0  0
  -27.5900  -13.3970   19.7130 C   0  0  0  0  0  3  0  0  0  0  0  0
  -28.6360  -13.6220   20.8270 C   0  0  0  0  0  2  0  0  0  0  0  0
  -29.8430  -14.1700   20.1820 N   0  0  0  0  0  0  0  0  0  0  0  0
  -31.5950  -15.4690   19.9100 O   0  0  0  0  0  0  0  0  0  0  0  0
  -29.8740  -18.2880   20.0960 C   0  0  0  0  0  0  0  0  0  0  0  0
  -29.6370  -16.8160   20.3650 N   0  0  0  0  0  0  0  0  0  0  0  0
  -30.8900  -18.5160   19.4340 O   0  0  0  0  0  0  0  0  0  0  0  0
  -28.7220  -16.6630   20.7610 H   0  0  0  0  0  0  0  0  0  0  0  0
  -25.2320  -13.9290   20.5040 C   0  0  0  0  0  0  0  0  0  0  0  0
  -24.1780  -13.1430   20.8770 C   0  0  0  0  0  0  0  0  0  0  0  0
  -24.6510  -11.7950   20.8260 C   0  0  0  0  0  0  0  0  0  0  0  0
  -26.2740  -13.0610   20.2380 N   0  0  0  0  0  0  0  0  0  0  0  0
  -25.9390  -11.7690   20.4990 N   0  0  0  0  0  0  0  0  0  0  0  0
  -23.9290  -10.5280   21.0090 C   0  0  0  0  0  0  0  0  0  0  0  0
  -24.3620   -9.5560   21.9380 C   0  0  0  0  0  3  0  0  0  0  0  0
  -23.6370   -8.3580   22.1120 C   0  0  0  0  0  3  0  0  0  0  0  0
  -22.4640   -8.1220   21.3550 C   0  0  0  0  0  0  0  0  0  0  0  0
  -22.0500   -9.0830   20.4150 C   0  0  0  0  0  3  0  0  0  0  0  0
  -22.7760  -10.2720   20.2400 C   0  0  0  0  0  3  0  0  0  0  0  0
  -21.7100   -6.9770   21.4380 O   0  0  0  0  0  0  0  0  0  0  0  0
  -21.6440   -6.2410   22.5940 C   0  0  0  0  0  0  0  0  0  0  0  0
  -21.1650   -6.7940   23.8020 C   0  0  0  0  0  3  0  0  0  0  0  0
  -21.0470   -5.9830   24.9490 C   0  0  0  0  0  3  0  0  0  0  0  0
  -21.3980   -4.6210   24.8890 C   0  0  0  0  0  0  0  0  0  0  0  0
  -21.8720   -4.0680   23.6860 C   0  0  0  0  0  3  0  0  0  0  0  0
  -21.9910   -4.8760   22.5400 C   0  0  0  0  0  0  0  0  0  0  0  0
  -22.4260   -4.3330   21.3780 F   0  0  0  0  0  0  0  0  0  0  0  0
  -21.2790   -3.8390   25.9880 F   0  0  0  0  0  0  0  0  0  0  0  0
  -22.7830  -13.6130   21.1640 C   0  0  0  0  0  0  0  0  0  0  0  0
  -22.0620  -12.9030   22.0240 N   0  0  0  0  0  0  0  0  0  0  0  0
  -22.3430  -14.6470   20.6640 O   0  0  0  0  0  0  0  0  0  0  0  0
  -22.4340  -12.0660   22.4480 H   0  0  0  0  0  0  0  0  0  0  0  0
  -21.1260  -13.2000   22.2610 H   0  0  0  0  0  0  0  0  0  0  0  0
  -25.3850  -15.3020   20.3380 N   0  0  0  0  0  0  0  0  0  0  0  0
  -24.6070  -15.9430   20.4510 H   0  0  0  0  0  0  0  0  0  0  0  0
  -26.2070  -15.7420   19.9450 H   0  0  0  0  0  0  0  0  0  0  0  0
  -30.5950  -21.6330   21.8220 N   0  0  0  0  0  4  0  0  0  0  0  0
  -30.0410  -21.5430   22.6550 H   0  0  0  0  0  0  0  0  0  0  0  0
  -30.9740  -22.5620   21.8080 H   0  0  0  0  0  0  0  0  0  0  0  0
  -31.3680  -20.9970   21.8920 H   0  0  0  0  0  0  0  0  0  0  0  0
  -28.1180  -24.1390   19.8790 C   0  0  0  0  0  2  0  0  0  0  0  0
  -28.1600  -25.7690   20.3460 O   0  0  0  0  0  0  0  0  0  0  0  0
  -24.6090  -31.8700   23.2110 C   0  0  0  0  0  0  0  0  0  0  0  0
  -27.1700  -26.9120   20.2210 C   0  0  0  0  0  0  0  0  0  0  0  0
  -23.4220  -30.4610   21.5800 C   0  0  0  0  0  3  0  0  0  0  0  0
  -24.8760  -28.8450   20.1590 C   0  0  0  0  0  0  0  0  0  0  0  0
  -25.9900  -30.6560   21.4420 C   0  0  0  0  0  2  0  0  0  0  0  0
  -26.0630  -29.2370   20.7910 C   0  0  0  0  0  0  0  0  0  0  0  0
  -27.1970  -28.2910   20.8000 C   0  0  0  0  0  3  0  0  0  0  0  0
  -25.9560  -26.7030   19.5240 C   0  0  0  0  0  3  0  0  0  0  0  0
  -24.8540  -27.6030   19.5040 C   0  0  0  0  0  3  0  0  0  0  0  0
  -23.6570  -29.7710   20.2050 C   0  0  0  0  0  2  0  0  0  0  0  0
  -24.6960  -31.0260   22.1300 N   0  0  0  0  0  0  0  0  0  0  0  0
  -23.5170  -32.1620   23.7280 O   0  0  0  0  0  0  0  0  0  0  0  0
  -22.7260  -29.4730   22.5520 C   0  0  0  0  0  0  0  0  0  0  0  0
  -21.3950  -29.3070   22.4330 N   0  0  0  0  0  0  0  0  0  0  0  0
  -23.3920  -28.8540   23.3860 O   0  0  0  0  0  0  0  0  0  0  0  0
  -20.9080  -29.8600   21.7380 H   0  0  0  0  0  0  0  0  0  0  0  0
  -18.0150  -28.0860   22.9550 C   0  0  0  0  0  0  0  0  0  0  0  0
  -20.5750  -28.3700   23.2090 C   0  0  0  0  0  3  0  0  0  0  0  0
  -20.6820  -26.9350   22.6410 C   0  0  0  0  0  2  0  0  0  0  0  0
  -19.5800  -26.6020   21.6310 C   0  0  0  0  0  2  0  0  0  0  0  0
  -18.1990  -26.7380   22.2790 C   0  0  0  0  0  2  0  0  0  0  0  0
  -19.1310  -28.8600   23.3760 C   0  0  0  0  0  0  0  0  0  0  0  0
  -18.9010  -30.1190   23.9730 C   0  0  0  0  0  3  0  0  0  0  0  0
  -17.5920  -30.6060   24.1490 C   0  0  0  0  0  3  0  0  0  0  0  0
  -16.4930  -29.8310   23.7400 C   0  0  0  0  0  3  0  0  0  0  0  0
  -16.7060  -28.5740   23.1490 C   0  0  0  0  0  3  0  0  0  0  0  0
  -25.8740  -32.5240   23.8430 C   0  0  0  0  0  3  0  0  0  0  0  0
  -26.3720  -31.7790   25.1430 C   0  0  1  0  0  0  0  0  0  0  0  0
  -25.2650  -31.5620   26.2030 C   0  0  0  0  0  1  0  0  0  0  0  0
  -26.9600  -30.3930   24.7960 C   0  0  0  0  0  1  0  0  0  0  0  0
  -27.5130  -32.5860   25.8060 C   0  0  0  0  0  1  0  0  0  0  0  0
  -25.5500  -33.9280   24.1620 N   0  0  0  0  0  0  0  0  0  0  0  0
  -25.8910  -34.9860   23.4140 C   0  0  0  0  0  0  0  0  0  0  0  0
  -26.5690  -34.8830   22.3890 O   0  0  0  0  0  0  0  0  0  0  0  0
  -24.9460  -34.0800   24.9560 H   0  0  0  0  0  0  0  0  0  0  0  0
  -24.1790  -36.7990   23.0460 C   0  0  0  0  0  1  0  0  0  0  0  0
  -25.4050  -36.3780   23.8720 C   0  0  0  0  0  3  0  0  0  0  0  0
  -27.5260  -37.2580   24.7440 C   0  0  0  0  0  1  0  0  0  0  0  0
  -26.4450  -37.4260   23.7770 N   0  0  0  0  0  0  0  0  0  0  0  0
  -26.0400  -38.3490   23.9110 H   0  0  0  0  0  0  0  0  0  0  0  0
  1  3  1  0
  1  2  1  0
  1  4  1  0
  2  4  1  0
  3  4  1  0
  4 45  1  6
  5 14  1  0
  6 11  1  0
  7  8  1  0
  7  6  1  0
  8  9  1  0
  9 20  1  0
  9 10  1  0
 11  5  1  0
 11 10  1  0
 12  5  2  0
 13 14  1  0
 13  2  1  0
 14 16  1  0
 15 13  2  0
 17 18  2  0
 18 37  1  0
 19 18  1  0
 19 22  1  0
 20 21  1  0
 20 17  1  0
 21 19  2  0
 22 23  1  0
 23 24  2  0
 25 28  1  0
 25 24  1  0
 26 25  2  0
 27 26  1  0
 27 22  2  0
 28 29  1  0
 29 30  1  0
 30 31  2  0
 32 31  1  0
 32 36  1  0
 33 32  2  0
 34 29  2  0
 34 33  1  0
 35 34  1  0
 37 38  1  0
 38 41  1  0
 38 40  1  0
 39 37  2  0
 42 43  1  0
 42 17  1  0
 44 42  1  0
 45 48  1  0
 45 46  1  0
 47 45  1  0
 49 50  1  0
 49  3  1  0
 51 62  2  0
 51 77  1  0
 52 50  1  0
 52 57  1  0
 53 61  1  0
 53 63  1  0
 54 60  1  0
 54 56  1  0
 55 61  1  0
 56 57  2  0
 56 55  1  0
 58 52  2  0
 59 58  1  0
 59 54  2  0
 60 53  1  0
 61 51  1  0
 63 65  2  0
 64 63  1  0
 64 68  1  0
 66 64  1  0
 67 76  2  0
 67 72  1  0
 68 72  1  0
 69 68  1  0
 70 71  1  0
 70 69  1  0
 71 67  1  0
 72 73  2  0
 73 74  1  0
 75 74  2  0
 76 75  1  0
 77 82  1  0
 77 78  1  0
 78 81  1  1
 78 79  1  0
 80 78  1  0
 82 85  1  0
 83 87  1  0
 83 82  1  0
 84 83  2  0
 86 87  1  0
 89 87  1  0
 89 90  1  0
 89 88  1  0
M  ISO  4   5 100  14 100  49 101  50 101
M  END
>  <TORSDO>  (40) 
F 18

>  <SCORE>  (40) 
-16.433

>  <name>  (40) 
39

>  <ligand_id>  (40) 
39

>  <original_smiles>  (40) 
[H]c1c([H])c([H])c2c(c1[H])C([H])([H])C([H])([H])C([H])([H])C2([H])N([H])C(=O)C1([H])N(C(=O)C([H])(N([H])C(=O)C([H])(N([H])C([H])([H])[H])C([H])([H])[H])C(C([H])([H])[H])(C([H])([H])[H])C([H])([H])[H])C([H])([H])c2c([H])c(OC([H])([H])C3([H])C([H])([H])C([H])(C(=O)N([H])C(=O)N4C([H])([H])C([H])([H])C([H])([H])C([H])(n5nc(-c6c([H])c([H])c(Oc7c([H])c([H])c(F)c([H])c7F)c([H])c6[H])c(C(=O)N([H])[H])c5N([H])[H])C4([H])[H])C3([H])[N+]([H])([H])[H])c([H])c([H])c2C1([H])[H]

>  <smiles>  (40) 
[H]c1c([H])c([H])c2c(c1[H])C([H])([H])C([H])([H])C([H])([H])C2([H])N([H])C(=O)C1([H])N(C(=O)C([H])(N([H])C(=O)C([H])(N([H])C([H])([H])[H])C([H])([H])[H])C(C([H])([H])[H])(C([H])([H])[H])C([H])([H])[H])C([H])([H])c2c([H])c(OC([H])([H])C3([H])C([H])([H])C([H])(C(=O)N([H])C(=O)N4C([H])([H])C([H])([H])C([H])([H])C([H])(n5nc(-c6c([H])c([H])c(Oc7c([H])c([H])c(F)c([H])c7F)c([H])c6[H])c(C(=O)N([H])[H])c5N([H])[H])C4([H])[H])C3([H])[N+]([H])([H])[H])c([H])c([H])c2C1([H])[H]

$$$$
40:0:0
     RDKit          3D

 89 97  0  0  1  0  0  0  0  0999 V2000
  -29.0180  -22.7320   20.6630 C   0  0  0  0  0  3  0  0  0  0  0  0
  -30.3920  -21.9500   24.2500 C   0  0  0  0  0  2  0  0  0  0  0  0
  -29.8040  -23.3440   24.4890 C   0  0  0  0  0  2  0  0  0  0  0  0
  -30.4940  -21.8510   22.7220 C   0  0  0  0  0  2  0  0  0  0  0  0
  -29.0940  -23.7460   23.1720 C   0  0  0  0  0  2  0  0  0  0  0  0
  -29.2020  -22.5380   22.2230 C   0  0  0  0  0  3  0  0  0  0  0  0
  -28.7220  -21.0470   20.1510 C   0  0  0  0  0  2  0  0  0  0  0  0
  -29.7060  -19.5720   19.9720 C   0  0  0  0  0  2  0  0  0  0  0  0
  -29.5610  -17.9360   20.6240 C   0  0  0  0  0  2  0  0  0  0  0  0
  -30.4390  -15.1600   20.0880 C   0  0  0  0  0  0  0  0  0  0  0  0
  -30.3790  -12.7600   19.1380 C   0  0  0  0  0  2  0  0  0  0  0  0
  -29.4120  -12.5830   17.9450 C   0  0  0  0  0  2  0  0  0  0  0  0
  -27.9650  -12.3430   18.4260 C   0  0  0  0  0  2  0  0  0  0  0  0
  -27.5630  -13.2890   19.5890 C   0  0  0  0  0  3  0  0  0  0  0  0
  -28.6530  -13.3910   20.6710 C   0  0  0  0  0  2  0  0  0  0  0  0
  -29.8610  -13.8800   19.9900 N   0  0  0  0  0  0  0  0  0  0  0  0
  -31.6740  -15.1720   19.9880 O   0  0  0  0  0  0  0  0  0  0  0  0
  -29.6440  -16.3930   20.0370 N   0  0  0  0  0  0  0  0  0  0  0  0
  -28.7210  -16.1220   19.7290 H   0  0  0  0  0  0  0  0  0  0  0  0
  -25.2130  -13.8530   20.4100 C   0  0  0  0  0  0  0  0  0  0  0  0
  -24.1620  -13.0720   20.8030 C   0  0  0  0  0  0  0  0  0  0  0  0
  -24.6310  -11.7240   20.7620 C   0  0  0  0  0  0  0  0  0  0  0  0
  -26.2510  -12.9780   20.1380 N   0  0  0  0  0  0  0  0  0  0  0  0
  -25.9140  -11.6920   20.4230 N   0  0  0  0  0  0  0  0  0  0  0  0
  -23.9110  -10.4580   20.9610 C   0  0  0  0  0  0  0  0  0  0  0  0
  -24.3510   -9.4950   21.8990 C   0  0  0  0  0  3  0  0  0  0  0  0
  -23.6240   -8.3000   22.0920 C   0  0  0  0  0  3  0  0  0  0  0  0
  -22.4450   -8.0590   21.3470 C   0  0  0  0  0  0  0  0  0  0  0  0
  -22.0260   -9.0070   20.3970 C   0  0  0  0  0  3  0  0  0  0  0  0
  -22.7530  -10.1930   20.2010 C   0  0  0  0  0  3  0  0  0  0  0  0
  -21.6910   -6.9140   21.4430 O   0  0  0  0  0  0  0  0  0  0  0  0
  -21.6370   -6.1830   22.6040 C   0  0  0  0  0  0  0  0  0  0  0  0
  -21.2140   -6.7530   23.8240 C   0  0  0  0  0  3  0  0  0  0  0  0
  -21.1130   -5.9520   24.9790 C   0  0  0  0  0  3  0  0  0  0  0  0
  -21.4240   -4.5810   24.9130 C   0  0  0  0  0  0  0  0  0  0  0  0
  -21.8400   -4.0090   23.6970 C   0  0  0  0  0  3  0  0  0  0  0  0
  -21.9440   -4.8080   22.5460 C   0  0  0  0  0  0  0  0  0  0  0  0
  -22.3250   -4.2490   21.3730 F   0  0  0  0  0  0  0  0  0  0  0  0
  -21.3180   -3.8080   26.0170 F   0  0  0  0  0  0  0  0  0  0  0  0
  -22.7690  -13.5450   21.0920 C   0  0  0  0  0  0  0  0  0  0  0  0
  -22.0570  -12.8530   21.9750 N   0  0  0  0  0  0  0  0  0  0  0  0
  -22.3200  -14.5650   20.5710 O   0  0  0  0  0  0  0  0  0  0  0  0
  -22.4370  -12.0300   22.4190 H   0  0  0  0  0  0  0  0  0  0  0  0
  -21.1170  -13.1480   22.2040 H   0  0  0  0  0  0  0  0  0  0  0  0
  -25.3620  -15.2250   20.2230 N   0  0  0  0  0  0  0  0  0  0  0  0
  -24.5860  -15.8670   20.3440 H   0  0  0  0  0  0  0  0  0  0  0  0
  -26.1820  -15.6640   19.8310 H   0  0  0  0  0  0  0  0  0  0  0  0
  -28.0460  -24.2080   20.2730 C   0  0  0  0  0  2  0  0  0  0  0  0
  -28.2360  -25.8370   20.3930 O   0  0  0  0  0  0  0  0  0  0  0  0
  -24.6260  -31.7770   23.2110 C   0  0  0  0  0  0  0  0  0  0  0  0
  -27.2030  -26.9040   20.2720 C   0  0  0  0  0  0  0  0  0  0  0  0
  -23.4340  -30.3870   21.5590 C   0  0  0  0  0  3  0  0  0  0  0  0
  -24.8930  -28.7640   20.1590 C   0  0  0  0  0  0  0  0  0  0  0  0
  -26.0010  -30.5950   21.4330 C   0  0  0  0  0  2  0  0  0  0  0  0
  -26.0720  -29.1850   20.7870 C   0  0  0  0  0  0  0  0  0  0  0  0
  -27.2180  -28.2770   20.8160 C   0  0  0  0  0  3  0  0  0  0  0  0
  -25.9950  -26.6250   19.5890 C   0  0  0  0  0  3  0  0  0  0  0  0
  -24.8770  -27.4990   19.5420 C   0  0  0  0  0  3  0  0  0  0  0  0
  -23.6710  -29.6820   20.1900 C   0  0  0  0  0  2  0  0  0  0  0  0
  -24.7070  -30.9500   22.1210 N   0  0  0  0  0  0  0  0  0  0  0  0
  -23.5360  -32.0720   23.7300 O   0  0  0  0  0  0  0  0  0  0  0  0
  -22.7250  -29.4040   22.5290 C   0  0  0  0  0  0  0  0  0  0  0  0
  -21.3940  -29.2560   22.4010 N   0  0  0  0  0  0  0  0  0  0  0  0
  -23.3820  -28.7690   23.3580 O   0  0  0  0  0  0  0  0  0  0  0  0
  -20.9200  -29.8150   21.7050 H   0  0  0  0  0  0  0  0  0  0  0  0
  -17.9920  -28.1000   22.9150 C   0  0  0  0  0  0  0  0  0  0  0  0
  -20.5570  -28.3230   23.1660 C   0  0  0  0  0  3  0  0  0  0  0  0
  -20.6320  -26.8950   22.5730 C   0  0  0  0  0  2  0  0  0  0  0  0
  -19.5180  -26.6020   21.5620 C   0  0  0  0  0  2  0  0  0  0  0  0
  -18.1430  -26.7610   22.2140 C   0  0  0  0  0  2  0  0  0  0  0  0
  -19.1250  -28.8420   23.3440 C   0  0  0  0  0  0  0  0  0  0  0  0
  -18.9250  -30.1000   23.9550 C   0  0  0  0  0  3  0  0  0  0  0  0
  -17.6300  -30.6130   24.1430 C   0  0  0  0  0  3  0  0  0  0  0  0
  -16.5110  -29.8660   23.7300 C   0  0  0  0  0  3  0  0  0  0  0  0
  -16.6930  -28.6120   23.1220 C   0  0  0  0  0  3  0  0  0  0  0  0
  -25.9000  -32.4070   23.8530 C   0  0  0  0  0  3  0  0  0  0  0  0
  -25.5970  -33.8100   24.1920 N   0  0  0  0  0  0  0  0  0  0  0  0
  -25.9250  -34.8670   23.4350 C   0  0  0  0  0  0  0  0  0  0  0  0
  -26.5790  -34.7630   22.3950 O   0  0  0  0  0  0  0  0  0  0  0  0
  -25.0270  -33.9610   25.0100 H   0  0  0  0  0  0  0  0  0  0  0  0
  -24.1910  -36.6650   23.1290 C   0  0  0  0  0  1  0  0  0  0  0  0
  -25.4550  -36.2580   23.9060 C   0  0  0  0  0  3  0  0  0  0  0  0
  -27.6110  -37.1460   24.6790 C   0  0  0  0  0  1  0  0  0  0  0  0
  -26.4840  -37.3120   23.7630 N   0  0  0  0  0  0  0  0  0  0  0  0
  -26.0800  -38.2300   23.9200 H   0  0  0  0  0  0  0  0  0  0  0  0
  -26.3900  -31.6400   25.1440 C   0  0  1  0  0  0  0  0  0  0  0  0
  -25.2780  -31.4210   26.1970 C   0  0  0  0  0  1  0  0  0  0  0  0
  -26.9680  -30.2550   24.7760 C   0  0  0  0  0  1  0  0  0  0  0  0
  -27.5440  -32.4230   25.8120 C   0  0  0  0  0  1  0  0  0  0  0  0
  1  7  1  0
  1  6  1  0
  2  3  1  0
  4  2  1  0
  5  3  1  0
  6  4  1  0
  6  5  1  0
  8  7  1  0
  8  9  1  0
 11 16  1  0
 12 13  1  0
 12 11  1  0
 14 13  1  0
 14 23  1  0
 14 15  1  0
 16 10  1  0
 16 15  1  0
 17 10  2  0
 18 10  1  0
 18  9  1  0
 19 18  1  0
 20 21  2  0
 21 40  1  0
 22 21  1  0
 22 25  1  0
 23 20  1  0
 23 24  1  0
 24 22  2  0
 25 26  1  0
 26 27  2  0
 28 31  1  0
 28 27  1  0
 29 28  2  0
 30 29  1  0
 30 25  2  0
 31 32  1  0
 32 33  1  0
 33 34  2  0
 35 34  1  0
 35 39  1  0
 36 35  2  0
 37 32  2  0
 37 36  1  0
 38 37  1  0
 40 41  1  0
 41 44  1  0
 41 43  1  0
 42 40  2  0
 45 46  1  0
 45 20  1  0
 47 45  1  0
 48 49  1  0
 48  1  1  0
 50 61  2  0
 51 49  1  0
 51 56  1  0
 52 60  1  0
 52 62  1  0
 53 59  1  0
 53 55  1  0
 54 60  1  0
 55 56  2  0
 55 54  1  0
 57 51  2  0
 58 57  1  0
 58 53  2  0
 59 52  1  0
 60 50  1  0
 62 64  2  0
 63 62  1  0
 65 63  1  0
 66 75  2  0
 66 71  1  0
 67 63  1  0
 67 71  1  0
 68 67  1  0
 69 70  1  0
 69 68  1  0
 70 66  1  0
 71 72  2  0
 72 73  1  0
 74 73  2  0
 75 74  1  0
 76 50  1  0
 76 77  1  0
 76 86  1  0
 77 80  1  0
 78 82  1  0
 78 77  1  0
 79 78  2  0
 82 81  1  0
 84 82  1  0
 84 85  1  0
 84 83  1  0
 86 89  1  1
 86 87  1  0
 88 86  1  0
M  ISO  4  10 100  18 100  48 101  49 101
M  END
>  <TORSDO>  (41) 
F 21

>  <SCORE>  (41) 
-15.218

>  <name>  (41) 
40

>  <ligand_id>  (41) 
40

>  <original_smiles>  (41) 
[H]c1c([H])c([H])c2c(c1[H])C([H])([H])C([H])([H])C([H])([H])C2([H])N([H])C(=O)C1([H])N(C(=O)C([H])(N([H])C(=O)C([H])(N([H])C([H])([H])[H])C([H])([H])[H])C(C([H])([H])[H])(C([H])([H])[H])C([H])([H])[H])C([H])([H])c2c([H])c(OC([H])([H])C([H])(C([H])([H])C([H])([H])C([H])([H])N([H])C(=O)N3C([H])([H])C([H])([H])C([H])([H])C([H])(n4nc(-c5c([H])c([H])c(Oc6c([H])c([H])c(F)c([H])c6F)c([H])c5[H])c(C(=O)N([H])[H])c4N([H])[H])C3([H])[H])C3([H])C([H])([H])C([H])([H])C([H])([H])C3([H])[H])c([H])c([H])c2C1([H])[H]

>  <smiles>  (41) 
[H]c1c([H])c([H])c2c(c1[H])C([H])([H])C([H])([H])C([H])([H])C2([H])N([H])C(=O)C1([H])N(C(=O)C([H])(N([H])C(=O)C([H])(N([H])C([H])([H])[H])C([H])([H])[H])C(C([H])([H])[H])(C([H])([H])[H])C([H])([H])[H])C([H])([H])c2c([H])c(OC([H])([H])C([H])(C([H])([H])C([H])([H])C([H])([H])N([H])C(=O)N3C([H])([H])C([H])([H])C([H])([H])C([H])(n4nc(-c5c([H])c([H])c(Oc6c([H])c([H])c(F)c([H])c6F)c([H])c5[H])c(C(=O)N([H])[H])c4N([H])[H])C3([H])[H])C3([H])C([H])([H])C([H])([H])C([H])([H])C3([H])[H])c([H])c([H])c2C1([H])[H]

$$$$
41:0:0
     RDKit          3D

 90 98  0  0  1  0  0  0  0  0999 V2000
  -31.1540  -21.0910   20.0370 C   0  0  0  0  0  2  0  0  0  0  0  0
  -29.3930  -22.0710   18.6340 C   0  0  0  0  0  2  0  0  0  0  0  0
  -29.7650  -20.8440   20.6410 C   0  0  0  0  0  3  0  0  0  0  0  0
  -30.8900  -21.6880   18.6400 C   0  0  0  0  0  3  0  0  0  0  0  0
  -31.8140  -22.8830   18.3260 C   0  0  0  0  0  1  0  0  0  0  0  0
  -28.9320  -22.0390   20.0420 N   0  0  1  0  0  4  0  0  0  0  0  0
  -27.9610  -21.7540   20.0580 H   0  0  0  0  0  0  0  0  0  0  0  0
  -29.2920  -19.2600   20.3130 C   0  0  0  0  0  0  0  0  0  0  0  0
  -28.1870  -19.0640   19.8080 O   0  0  0  0  0  0  0  0  0  0  0  0
  -30.2010  -17.9140   20.5940 C   0  0  0  0  0  2  0  0  0  0  0  0
  -29.6180  -16.3410   20.6370 C   0  0  0  0  0  2  0  0  0  0  0  0
  -30.4800  -14.9590   20.3790 C   0  0  0  0  0  0  0  0  0  0  0  0
  -30.3740  -12.6410   19.3770 C   0  0  0  0  0  2  0  0  0  0  0  0
  -29.4300  -12.6660   18.1500 C   0  0  0  0  0  2  0  0  0  0  0  0
  -27.9660  -12.4340   18.5810 C   0  0  0  0  0  2  0  0  0  0  0  0
  -27.5640  -13.3280   19.7840 C   0  0  0  0  0  3  0  0  0  0  0  0
  -28.6230  -13.2790   20.9060 C   0  0  0  0  0  2  0  0  0  0  0  0
  -29.9100  -13.6890   20.3240 N   0  0  0  0  0  0  0  0  0  0  0  0
  -31.6720  -15.0530   20.0630 O   0  0  0  0  0  0  0  0  0  0  0  0
  -25.1730  -13.9030   20.5100 C   0  0  0  0  0  0  0  0  0  0  0  0
  -24.1080  -13.1250   20.8760 C   0  0  0  0  0  0  0  0  0  0  0  0
  -24.5780  -11.7770   20.8500 C   0  0  0  0  0  0  0  0  0  0  0  0
  -26.2210  -13.0280   20.2760 N   0  0  0  0  0  0  0  0  0  0  0  0
  -25.8710  -11.7430   20.5440 N   0  0  0  0  0  0  0  0  0  0  0  0
  -23.8560  -10.5130   21.0410 C   0  0  0  0  0  0  0  0  0  0  0  0
  -24.2870   -9.5450   21.9750 C   0  0  0  0  0  3  0  0  0  0  0  0
  -23.5640   -8.3470   22.1520 C   0  0  0  0  0  3  0  0  0  0  0  0
  -22.3940   -8.1080   21.3950 C   0  0  0  0  0  0  0  0  0  0  0  0
  -21.9830   -9.0620   20.4470 C   0  0  0  0  0  3  0  0  0  0  0  0
  -22.7070  -10.2520   20.2690 C   0  0  0  0  0  3  0  0  0  0  0  0
  -21.6410   -6.9620   21.4810 O   0  0  0  0  0  0  0  0  0  0  0  0
  -21.5900   -6.2160   22.6320 C   0  0  0  0  0  0  0  0  0  0  0  0
  -21.1580   -6.7680   23.8580 C   0  0  0  0  0  3  0  0  0  0  0  0
  -21.0570   -5.9500   25.0020 C   0  0  0  0  0  3  0  0  0  0  0  0
  -21.3770   -4.5830   24.9210 C   0  0  0  0  0  0  0  0  0  0  0  0
  -21.8030   -4.0310   23.7000 C   0  0  0  0  0  3  0  0  0  0  0  0
  -21.9060   -4.8440   22.5580 C   0  0  0  0  0  0  0  0  0  0  0  0
  -22.2960   -4.3020   21.3800 F   0  0  0  0  0  0  0  0  0  0  0  0
  -21.2740   -3.7950   26.0170 F   0  0  0  0  0  0  0  0  0  0  0  0
  -22.7080  -13.5970   21.1410 C   0  0  0  0  0  0  0  0  0  0  0  0
  -21.9780  -12.8950   22.0010 N   0  0  0  0  0  0  0  0  0  0  0  0
  -22.2680  -14.6210   20.6210 O   0  0  0  0  0  0  0  0  0  0  0  0
  -22.3490  -12.0680   22.4480 H   0  0  0  0  0  0  0  0  0  0  0  0
  -21.0350  -13.1870   22.2170 H   0  0  0  0  0  0  0  0  0  0  0  0
  -25.3340  -15.2750   20.3330 N   0  0  0  0  0  0  0  0  0  0  0  0
  -24.5750  -15.9370   20.4480 H   0  0  0  0  0  0  0  0  0  0  0  0
  -26.1920  -15.7120   20.0190 H   0  0  0  0  0  0  0  0  0  0  0  0
  -29.0080  -23.5040   20.6470 C   0  0  0  0  0  3  0  0  0  0  0  0
  -28.1080  -24.7820   20.0430 C   0  0  0  0  0  3  0  0  0  0  0  0
  -28.2910  -26.2850   20.3420 O   0  0  0  0  0  0  0  0  0  0  0  0
  -24.6380  -31.8970   23.2720 C   0  0  0  0  0  0  0  0  0  0  0  0
  -27.2170  -27.2310   20.2290 C   0  0  0  0  0  0  0  0  0  0  0  0
  -23.4290  -30.5020   21.6310 C   0  0  0  0  0  3  0  0  0  0  0  0
  -24.8740  -28.9390   20.1890 C   0  0  0  0  0  0  0  0  0  0  0  0
  -25.9760  -30.7820   21.4580 C   0  0  0  0  0  2  0  0  0  0  0  0
  -26.0460  -29.3960   20.8030 C   0  0  0  0  0  0  0  0  0  0  0  0
  -27.2130  -28.5530   20.8150 C   0  0  0  0  0  3  0  0  0  0  0  0
  -26.0300  -26.8760   19.5470 C   0  0  0  0  0  3  0  0  0  0  0  0
  -24.8770  -27.6920   19.5420 C   0  0  0  0  0  3  0  0  0  0  0  0
  -23.6410  -29.8240   20.2490 C   0  0  0  0  0  2  0  0  0  0  0  0
  -24.7000  -31.0840   22.1750 N   0  0  0  0  0  0  0  0  0  0  0  0
  -23.5560  -32.1810   23.8070 O   0  0  0  0  0  0  0  0  0  0  0  0
  -22.7590  -29.4940   22.5990 C   0  0  0  0  0  0  0  0  0  0  0  0
  -21.4320  -29.3160   22.4700 N   0  0  0  0  0  0  0  0  0  0  0  0
  -23.4330  -28.8780   23.4280 O   0  0  0  0  0  0  0  0  0  0  0  0
  -20.9460  -29.8670   21.7770 H   0  0  0  0  0  0  0  0  0  0  0  0
  -18.0580  -28.0890   22.9600 C   0  0  0  0  0  0  0  0  0  0  0  0
  -20.6120  -28.3760   23.2410 C   0  0  0  0  0  3  0  0  0  0  0  0
  -20.7270  -26.9420   22.6740 C   0  0  0  0  0  2  0  0  0  0  0  0
  -19.6330  -26.6030   21.6560 C   0  0  0  0  0  2  0  0  0  0  0  0
  -18.2490  -26.7390   22.2930 C   0  0  0  0  0  2  0  0  0  0  0  0
  -19.1670  -28.8660   23.3910 C   0  0  0  0  0  0  0  0  0  0  0  0
  -18.9340  -30.1300   23.9750 C   0  0  0  0  0  3  0  0  0  0  0  0
  -17.6240  -30.6180   24.1380 C   0  0  0  0  0  3  0  0  0  0  0  0
  -16.5290  -29.8400   23.7220 C   0  0  0  0  0  3  0  0  0  0  0  0
  -16.7460  -28.5780   23.1400 C   0  0  0  0  0  3  0  0  0  0  0  0
  -25.9220  -32.5260   23.8930 C   0  0  0  0  0  3  0  0  0  0  0  0
  -25.6200  -33.9290   24.2180 N   0  0  0  0  0  0  0  0  0  0  0  0
  -25.9430  -34.9800   23.4510 C   0  0  0  0  0  0  0  0  0  0  0  0
  -26.5990  -34.8700   22.4120 O   0  0  0  0  0  0  0  0  0  0  0  0
  -25.0380  -34.0880   25.0270 H   0  0  0  0  0  0  0  0  0  0  0  0
  -24.2110  -36.7780   23.1210 C   0  0  0  0  0  1  0  0  0  0  0  0
  -25.4670  -36.3730   23.9110 C   0  0  0  0  0  3  0  0  0  0  0  0
  -27.6160  -37.2610   24.7000 C   0  0  0  0  0  1  0  0  0  0  0  0
  -26.4990  -37.4230   23.7720 N   0  0  0  0  0  0  0  0  0  0  0  0
  -26.0970  -38.3460   23.9160 H   0  0  0  0  0  0  0  0  0  0  0  0
  -26.4320  -31.7610   25.1770 C   0  0  1  0  0  0  0  0  0  0  0  0
  -25.3360  -31.5390   26.2460 C   0  0  0  0  0  1  0  0  0  0  0  0
  -27.0090  -30.3750   24.8010 C   0  0  0  0  0  1  0  0  0  0  0  0
  -27.5860  -32.5520   25.8340 C   0  0  0  0  0  1  0  0  0  0  0  0
  1  3  1  0
  2  4  1  0
  2  6  1  0
  3  8  1  0
  4  5  1  0
  4  1  1  0
  6  7  1  6
  6  3  1  0
  6 48  1  0
  8 10  1  0
  9  8  2  0
 10 11  1  0
 12 11  1  0
 13 18  1  0
 14 15  1  0
 14 13  1  0
 16 15  1  0
 16 23  1  0
 16 17  1  0
 18 12  1  0
 18 17  1  0
 19 12  2  0
 20 21  2  0
 21 40  1  0
 22 21  1  0
 22 25  1  0
 23 20  1  0
 23 24  1  0
 24 22  2  0
 25 26  1  0
 26 27  2  0
 28 31  1  0
 28 27  1  0
 29 28  2  0
 30 29  1  0
 30 25  2  0
 31 32  1  0
 32 33  1  0
 33 34  2  0
 35 34  1  0
 35 39  1  0
 36 35  2  0
 37 32  2  0
 37 36  1  0
 38 37  1  0
 40 41  1  0
 41 44  1  0
 41 43  1  0
 42 40  2  0
 45 46  1  0
 45 20  1  0
 47 45  1  0
 49 50  1  0
 49 48  2  0
 51 62  2  0
 52 50  1  0
 52 57  1  0
 53 61  1  0
 53 63  1  0
 54 60  1  0
 54 56  1  0
 55 61  1  0
 56 57  2  0
 56 55  1  0
 58 52  2  0
 59 58  1  0
 59 54  2  0
 60 53  1  0
 61 51  1  0
 63 65  2  0
 64 63  1  0
 66 64  1  0
 67 76  2  0
 67 72  1  0
 68 64  1  0
 68 72  1  0
 69 68  1  0
 70 71  1  0
 70 69  1  0
 71 67  1  0
 72 73  2  0
 73 74  1  0
 75 74  2  0
 76 75  1  0
 77 51  1  0
 77 78  1  0
 77 87  1  0
 78 81  1  0
 79 83  1  0
 79 78  1  0
 80 79  2  0
 83 82  1  0
 85 83  1  0
 85 86  1  0
 85 84  1  0
 87 90  1  1
 87 88  1  0
 89 87  1  0
M  ISO  4  11 100  12 100  49 101  50 101
M  END
>  <TORSDO>  (42) 
F 21

>  <SCORE>  (42) 
-13.448

>  <name>  (42) 
41

>  <ligand_id>  (42) 
41

>  <original_smiles>  (42) 
[H]c1c([H])c([H])c2c(c1[H])C([H])([H])C([H])([H])C([H])([H])C2([H])N([H])C(=O)C1([H])N(C(=O)C([H])(N([H])C(=O)C([H])(N([H])C([H])([H])[H])C([H])([H])[H])C(C([H])([H])[H])(C([H])([H])[H])C([H])([H])[H])C([H])([H])c2c([H])c(OC([H])([H])C([H])([H])[N+]3([H])C([H])([H])C([H])(C([H])([H])[H])C([H])([H])C3([H])C(=O)C([H])([H])C([H])([H])C(=O)N3C([H])([H])C([H])([H])C([H])([H])C([H])(n4nc(-c5c([H])c([H])c(Oc6c([H])c([H])c(F)c([H])c6F)c([H])c5[H])c(C(=O)N([H])[H])c4N([H])[H])C3([H])[H])c([H])c([H])c2C1([H])[H]

>  <smiles>  (42) 
[H]c1c([H])c([H])c2c(c1[H])C([H])([H])C([H])([H])C([H])([H])C2([H])N([H])C(=O)C1([H])N(C(=O)C([H])(N([H])C(=O)C([H])(N([H])C([H])([H])[H])C([H])([H])[H])C(C([H])([H])[H])(C([H])([H])[H])C([H])([H])[H])C([H])([H])c2c([H])c(OC([H])([H])C([H])([H])[N+]3([H])C([H])([H])C([H])(C([H])([H])[H])C([H])([H])C3([H])C(=O)C([H])([H])C([H])([H])C(=O)N3C([H])([H])C([H])([H])C([H])([H])C([H])(n4nc(-c5c([H])c([H])c(Oc6c([H])c([H])c(F)c([H])c6F)c([H])c5[H])c(C(=O)N([H])[H])c4N([H])[H])C3([H])[H])c([H])c([H])c2C1([H])[H]

$$$$
42:0:0
     RDKit          3D

 87 94  0  0  1  0  0  0  0  0999 V2000
  -29.4930  -18.8880   20.2090 C   0  0  0  0  0  3  0  0  0  0  0  0
  -28.5150  -20.0840   20.3570 C   0  0  0  0  0  0  0  0  0  0  0  0
  -30.6520  -19.7850   19.8740 C   0  0  0  0  0  0  0  0  0  0  0  0
  -30.3480  -21.3760   19.6840 C   0  0  0  0  0  2  0  0  0  0  0  0
  -28.9650  -21.8690   20.3110 C   0  0  0  0  0  2  0  0  0  0  0  0
  -27.2850  -20.0090   20.5750 O   0  0  0  0  0  0  0  0  0  0  0  0
  -31.7910  -19.3480   19.7150 O   0  0  0  0  0  0  0  0  0  0  0  0
  -30.2500  -15.8120   20.1950 C   0  0  0  0  0  0  0  0  0  0  0  0
  -30.3970  -13.2320   19.4070 C   0  0  0  0  0  2  0  0  0  0  0  0
  -29.5250  -12.7720   18.2000 C   0  0  0  0  0  2  0  0  0  0  0  0
  -28.1050  -12.4000   18.6500 C   0  0  0  0  0  2  0  0  0  0  0  0
  -27.5730  -13.4140   19.6870 C   0  0  0  0  0  3  0  0  0  0  0  0
  -28.5890  -13.7710   20.8010 C   0  0  0  0  0  2  0  0  0  0  0  0
  -29.7510  -14.4230   20.1420 N   0  0  0  0  0  0  0  0  0  0  0  0
  -31.4830  -15.7490   20.0180 O   0  0  0  0  0  0  0  0  0  0  0  0
  -29.4520  -17.1810   20.2770 N   0  0  0  0  0  0  0  0  0  0  0  0
  -28.4910  -16.9010   20.4310 H   0  0  0  0  0  0  0  0  0  0  0  0
  -25.2070  -13.9360   20.4350 C   0  0  0  0  0  0  0  0  0  0  0  0
  -24.1470  -13.1560   20.7960 C   0  0  0  0  0  0  0  0  0  0  0  0
  -24.6200  -11.8070   20.7710 C   0  0  0  0  0  0  0  0  0  0  0  0
  -26.2550  -13.0680   20.2000 N   0  0  0  0  0  0  0  0  0  0  0  0
  -25.9170  -11.7790   20.4700 N   0  0  0  0  0  0  0  0  0  0  0  0
  -23.8920  -10.5440   20.9570 C   0  0  0  0  0  0  0  0  0  0  0  0
  -24.2970   -9.5900   21.9170 C   0  0  0  0  0  3  0  0  0  0  0  0
  -23.5640   -8.3970   22.0930 C   0  0  0  0  0  3  0  0  0  0  0  0
  -22.4120   -8.1480   21.3100 C   0  0  0  0  0  0  0  0  0  0  0  0
  -22.0250   -9.0900   20.3400 C   0  0  0  0  0  3  0  0  0  0  0  0
  -22.7590  -10.2750   20.1630 C   0  0  0  0  0  3  0  0  0  0  0  0
  -21.6530   -7.0040   21.3940 O   0  0  0  0  0  0  0  0  0  0  0  0
  -21.5460   -6.2950   22.5640 C   0  0  0  0  0  0  0  0  0  0  0  0
  -21.0340   -6.8780   23.7430 C   0  0  0  0  0  3  0  0  0  0  0  0
  -20.8760   -6.0940   24.9040 C   0  0  0  0  0  3  0  0  0  0  0  0
  -21.2200   -4.7300   24.8850 C   0  0  0  0  0  0  0  0  0  0  0  0
  -21.7260   -4.1470   23.7100 C   0  0  0  0  0  3  0  0  0  0  0  0
  -21.8840   -4.9270   22.5520 C   0  0  0  0  0  0  0  0  0  0  0  0
  -22.3510   -4.3550   21.4160 F   0  0  0  0  0  0  0  0  0  0  0  0
  -21.0630   -3.9750   25.9980 F   0  0  0  0  0  0  0  0  0  0  0  0
  -22.7450  -13.6310   21.0440 C   0  0  0  0  0  0  0  0  0  0  0  0
  -22.0130  -12.9470   21.9150 N   0  0  0  0  0  0  0  0  0  0  0  0
  -22.3110  -14.6470   20.5030 O   0  0  0  0  0  0  0  0  0  0  0  0
  -22.3790  -12.1270   22.3760 H   0  0  0  0  0  0  0  0  0  0  0  0
  -21.0720  -13.2490   22.1260 H   0  0  0  0  0  0  0  0  0  0  0  0
  -25.3620  -15.3070   20.2520 N   0  0  0  0  0  0  0  0  0  0  0  0
  -24.5890  -15.9570   20.3580 H   0  0  0  0  0  0  0  0  0  0  0  0
  -26.2050  -15.7500   19.9120 H   0  0  0  0  0  0  0  0  0  0  0  0
  -28.1210  -23.6570   19.9610 C   0  0  0  0  0  1  0  0  0  0  0  0
  -28.2360  -25.4460   20.1930 O   0  0  0  0  0  0  0  0  0  0  0  0
  -24.6810  -31.7770   23.1690 C   0  0  0  0  0  0  0  0  0  0  0  0
  -27.2630  -26.6880   20.1370 C   0  0  0  0  0  0  0  0  0  0  0  0
  -23.5170  -30.3910   21.5050 C   0  0  0  0  0  3  0  0  0  0  0  0
  -24.9870  -28.7560   20.0850 C   0  0  0  0  0  0  0  0  0  0  0  0
  -26.0990  -30.5290   21.4140 C   0  0  0  0  0  2  0  0  0  0  0  0
  -26.1770  -29.0980   20.7390 C   0  0  0  0  0  0  0  0  0  0  0  0
  -27.2940  -28.0950   20.7290 C   0  0  0  0  0  3  0  0  0  0  0  0
  -26.0360  -26.5790   19.4280 C   0  0  0  0  0  3  0  0  0  0  0  0
  -24.9600  -27.5250   19.4060 C   0  0  0  0  0  3  0  0  0  0  0  0
  -23.7760  -29.7080   20.1290 C   0  0  0  0  0  2  0  0  0  0  0  0
  -24.7900  -30.9340   22.0820 N   0  0  0  0  0  0  0  0  0  0  0  0
  -23.5800  -32.0660   23.6700 O   0  0  0  0  0  0  0  0  0  0  0  0
  -22.7910  -29.4040   22.4590 C   0  0  0  0  0  0  0  0  0  0  0  0
  -21.4580  -29.2590   22.3320 N   0  0  0  0  0  0  0  0  0  0  0  0
  -23.4430  -28.7650   23.2880 O   0  0  0  0  0  0  0  0  0  0  0  0
  -20.9810  -29.8250   21.6440 H   0  0  0  0  0  0  0  0  0  0  0  0
  -18.0610  -28.0740   22.8550 C   0  0  0  0  0  0  0  0  0  0  0  0
  -20.6280  -28.3110   23.0880 C   0  0  0  0  0  3  0  0  0  0  0  0
  -20.7040  -26.8940   22.4720 C   0  0  0  0  0  2  0  0  0  0  0  0
  -19.5860  -26.6130   21.4630 C   0  0  0  0  0  2  0  0  0  0  0  0
  -18.2160  -26.7480   22.1300 C   0  0  0  0  0  2  0  0  0  0  0  0
  -19.1920  -28.8150   23.2900 C   0  0  0  0  0  0  0  0  0  0  0  0
  -18.9890  -30.0540   23.9360 C   0  0  0  0  0  3  0  0  0  0  0  0
  -17.6900  -30.5540   24.1450 C   0  0  0  0  0  3  0  0  0  0  0  0
  -16.5740  -29.8110   23.7220 C   0  0  0  0  0  3  0  0  0  0  0  0
  -16.7610  -28.5720   23.0840 C   0  0  0  0  0  3  0  0  0  0  0  0
  -25.9310  -32.4300   23.8320 C   0  0  0  0  0  3  0  0  0  0  0  0
  -25.5930  -33.8250   24.1850 N   0  0  0  0  0  0  0  0  0  0  0  0
  -25.9090  -34.9060   23.4590 C   0  0  0  0  0  0  0  0  0  0  0  0
  -26.5720  -34.8350   22.4220 O   0  0  0  0  0  0  0  0  0  0  0  0
  -25.0010  -33.9500   24.9920 H   0  0  0  0  0  0  0  0  0  0  0  0
  -24.1550  -36.6960   23.1890 C   0  0  0  0  0  1  0  0  0  0  0  0
  -25.4190  -36.2810   23.9610 C   0  0  0  0  0  3  0  0  0  0  0  0
  -27.5570  -37.1850   24.7680 C   0  0  0  0  0  1  0  0  0  0  0  0
  -26.4370  -37.3510   23.8460 N   0  0  0  0  0  0  0  0  0  0  0  0
  -26.0210  -38.2630   24.0130 H   0  0  0  0  0  0  0  0  0  0  0  0
  -26.4180  -31.6590   25.1220 C   0  0  1  0  0  0  0  0  0  0  0  0
  -25.3020  -31.4190   26.1660 C   0  0  0  0  0  1  0  0  0  0  0  0
  -27.0130  -30.2820   24.7560 C   0  0  0  0  0  1  0  0  0  0  0  0
  -27.5530  -32.4550   25.8100 C   0  0  0  0  0  1  0  0  0  0  0  0
  1 16  1  0
  1  2  1  0
  2  6  2  0
  3  1  1  0
  4  3  1  0
  4  5  1  0
  5  2  1  0
  7  3  2  0
  8 16  1  0
  9 14  1  0
 10 11  1  0
 10  9  1  0
 12 11  1  0
 12 21  1  0
 12 13  1  0
 14  8  1  0
 14 13  1  0
 15  8  2  0
 16 17  1  0
 18 19  2  0
 19 38  1  0
 20 19  1  0
 20 23  1  0
 21 18  1  0
 21 22  1  0
 22 20  2  0
 23 24  1  0
 24 25  2  0
 26 29  1  0
 26 25  1  0
 27 26  2  0
 28 27  1  0
 28 23  2  0
 29 30  1  0
 30 31  1  0
 31 32  2  0
 33 32  1  0
 33 37  1  0
 34 33  2  0
 35 30  2  0
 35 34  1  0
 36 35  1  0
 38 39  1  0
 39 42  1  0
 39 41  1  0
 40 38  2  0
 43 44  1  0
 43 18  1  0
 45 43  1  0
 46 47  1  0
 48 59  2  0
 49 47  1  0
 49 54  1  0
 50 58  1  0
 50 60  1  0
 51 57  1  0
 51 53  1  0
 52 58  1  0
 53 52  1  0
 54 53  2  0
 55 49  2  0
 56 55  1  0
 56 51  2  0
 57 50  1  0
 58 48  1  0
 60 62  2  0
 61 60  1  0
 63 61  1  0
 64 73  2  0
 64 69  1  0
 65 61  1  0
 65 69  1  0
 66 65  1  0
 67 68  1  0
 67 66  1  0
 68 64  1  0
 69 70  2  0
 70 71  1  0
 72 71  2  0
 73 72  1  0
 74 48  1  0
 74 75  1  0
 74 84  1  0
 75 78  1  0
 76 80  1  0
 76 75  1  0
 77 76  2  0
 80 79  1  0
 82 80  1  0
 82 83  1  0
 82 81  1  0
 84 87  1  1
 84 85  1  0
 86 84  1  0
M  ISO  4   8 100  16 100  46 101  47 101
M  END
>  <TORSDO>  (43) 
F 17

>  <SCORE>  (43) 
-15.989

>  <name>  (43) 
42

>  <ligand_id>  (43) 
42

>  <original_smiles>  (43) 
[H]c1c([H])c([H])c2c(c1[H])C([H])([H])C([H])([H])C([H])([H])C2([H])N([H])C(=O)C1([H])N(C(=O)C([H])(N([H])C(=O)C([H])(N([H])C([H])([H])[H])C([H])([H])[H])C(C([H])([H])[H])(C([H])([H])[H])C([H])([H])[H])C([H])([H])c2c([H])c(OC([H])([H])C3([H])C([O-])=C(N([H])C(=O)N4C([H])([H])C([H])([H])C([H])([H])C([H])(n5nc(-c6c([H])c([H])c(Oc7c([H])c([H])c(F)c([H])c7F)c([H])c6[H])c(C(=O)N([H])[H])c5N([H])[H])C4([H])[H])C(=O)C3([H])[H])c([H])c([H])c2C1([H])[H]

>  <smiles>  (43) 
[H]c1c([H])c([H])c2c(c1[H])C([H])([H])C([H])([H])C([H])([H])C2([H])N([H])C(=O)C1([H])N(C(=O)C([H])(N([H])C(=O)C([H])(N([H])C([H])([H])[H])C([H])([H])[H])C(C([H])([H])[H])(C([H])([H])[H])C([H])([H])[H])C([H])([H])c2c([H])c(OC([H])([H])C3([H])C([O-])=C(N([H])C(=O)N4C([H])([H])C([H])([H])C([H])([H])C([H])(n5nc(-c6c([H])c([H])c(Oc7c([H])c([H])c(F)c([H])c7F)c([H])c6[H])c(C(=O)N([H])[H])c5N([H])[H])C4([H])[H])C(=O)C3([H])[H])c([H])c([H])c2C1([H])[H]

$$$$
43:0:0
     RDKit          3D

 89 97  0  0  1  0  0  0  0  0999 V2000
  -29.4960  -19.9560   20.9760 C   0  0  0  0  0  2  0  0  0  0  0  0
  -29.3170  -19.1520   18.7940 C   0  0  0  0  0  2  0  0  0  0  0  0
  -29.9510  -18.5670   20.1170 C   0  0  0  0  0  3  0  0  0  0  0  0
  -28.8790  -21.2590   20.0970 C   0  0  0  0  0  3  0  0  0  0  0  0
  -29.2900  -20.6840   18.7780 N   0  0  0  0  0  4  0  0  0  0  0  0
  -28.6820  -21.0150   18.0460 H   0  0  0  0  0  0  0  0  0  0  0  0
  -30.2190  -21.0050   18.5670 H   0  0  0  0  0  0  0  0  0  0  0  0
  -28.2070  -16.7140   20.5430 C   0  0  0  0  0  1  0  0  0  0  0  0
  -29.7260  -16.8580   20.5730 C   0  0  0  0  0  3  0  0  0  0  0  0
  -30.5130  -15.3360   20.1730 C   0  0  0  0  0  0  0  0  0  0  0  0
  -30.5240  -12.9130   19.2440 C   0  0  0  0  0  2  0  0  0  0  0  0
  -29.5600  -12.7440   18.0420 C   0  0  0  0  0  2  0  0  0  0  0  0
  -28.1180  -12.4580   18.5090 C   0  0  0  0  0  2  0  0  0  0  0  0
  -27.6990  -13.3740   19.6840 C   0  0  0  0  0  3  0  0  0  0  0  0
  -28.7920  -13.4360   20.7760 C   0  0  0  0  0  2  0  0  0  0  0  0
  -30.0010  -14.0050   20.1460 N   0  0  0  0  0  0  0  0  0  0  0  0
  -31.7000  -15.3770   19.8210 O   0  0  0  0  0  0  0  0  0  0  0  0
  -25.3230  -13.9000   20.4800 C   0  0  0  0  0  0  0  0  0  0  0  0
  -24.2810  -13.1070   20.8680 C   0  0  0  0  0  0  0  0  0  0  0  0
  -24.7670  -11.7650   20.8100 C   0  0  0  0  0  0  0  0  0  0  0  0
  -26.3800  -13.0450   20.2140 N   0  0  0  0  0  0  0  0  0  0  0  0
  -26.0540  -11.7520   20.4770 N   0  0  0  0  0  0  0  0  0  0  0  0
  -24.0580  -10.4920   20.9960 C   0  0  0  0  0  0  0  0  0  0  0  0
  -24.5040   -9.5290   21.9260 C   0  0  0  0  0  3  0  0  0  0  0  0
  -23.7910   -8.3230   22.1020 C   0  0  0  0  0  3  0  0  0  0  0  0
  -22.6200   -8.0720   21.3470 C   0  0  0  0  0  0  0  0  0  0  0  0
  -22.1950   -9.0270   20.4050 C   0  0  0  0  0  3  0  0  0  0  0  0
  -22.9080  -10.2230   20.2270 C   0  0  0  0  0  3  0  0  0  0  0  0
  -21.8810   -6.9180   21.4310 O   0  0  0  0  0  0  0  0  0  0  0  0
  -21.8140   -6.1900   22.5920 C   0  0  0  0  0  0  0  0  0  0  0  0
  -21.3000   -6.7390   23.7870 C   0  0  0  0  0  3  0  0  0  0  0  0
  -21.1860   -5.9350   24.9390 C   0  0  0  0  0  3  0  0  0  0  0  0
  -21.5740   -4.5820   24.8960 C   0  0  0  0  0  0  0  0  0  0  0  0
  -22.0810   -4.0320   23.7040 C   0  0  0  0  0  3  0  0  0  0  0  0
  -22.1960   -4.8330   22.5550 C   0  0  0  0  0  0  0  0  0  0  0  0
  -22.6660   -4.2930   21.4040 F   0  0  0  0  0  0  0  0  0  0  0  0
  -21.4580   -3.8070   26.0000 F   0  0  0  0  0  0  0  0  0  0  0  0
  -22.8840  -13.5650   21.1740 C   0  0  0  0  0  0  0  0  0  0  0  0
  -22.1810  -12.8480   22.0420 N   0  0  0  0  0  0  0  0  0  0  0  0
  -22.4270  -14.5950   20.6800 O   0  0  0  0  0  0  0  0  0  0  0  0
  -22.5680  -12.0200   22.4700 H   0  0  0  0  0  0  0  0  0  0  0  0
  -21.2430  -13.1320   22.2850 H   0  0  0  0  0  0  0  0  0  0  0  0
  -25.4380  -15.2730   20.3050 N   0  0  0  0  0  0  0  0  0  0  0  0
  -24.6590  -15.9040   20.4560 H   0  0  0  0  0  0  0  0  0  0  0  0
  -26.2820  -15.7450   20.0080 H   0  0  0  0  0  0  0  0  0  0  0  0
  -30.4910  -23.3710   19.9210 C   0  0  0  0  0  1  0  0  0  0  0  0
  -29.0650  -23.0180   20.3610 C   0  0  0  0  0  3  0  0  0  0  0  0
  -28.0580  -24.4340   19.9810 C   0  0  0  0  0  2  0  0  0  0  0  0
  -28.2370  -26.0270   20.2550 O   0  0  0  0  0  0  0  0  0  0  0  0
  -24.6070  -31.9020   23.1980 C   0  0  0  0  0  0  0  0  0  0  0  0
  -27.1950  -27.0750   20.1840 C   0  0  0  0  0  0  0  0  0  0  0  0
  -23.4140  -30.4880   21.5730 C   0  0  0  0  0  3  0  0  0  0  0  0
  -24.8680  -28.8950   20.1510 C   0  0  0  0  0  0  0  0  0  0  0  0
  -25.9740  -30.7340   21.4070 C   0  0  0  0  0  2  0  0  0  0  0  0
  -26.0530  -29.3260   20.7570 C   0  0  0  0  0  0  0  0  0  0  0  0
  -27.2120  -28.4350   20.7510 C   0  0  0  0  0  3  0  0  0  0  0  0
  -25.9770  -26.7780   19.5330 C   0  0  0  0  0  3  0  0  0  0  0  0
  -24.8500  -27.6390   19.5220 C   0  0  0  0  0  3  0  0  0  0  0  0
  -23.6380  -29.7980   20.2010 C   0  0  0  0  0  2  0  0  0  0  0  0
  -24.6860  -31.0670   22.1140 N   0  0  0  0  0  0  0  0  0  0  0  0
  -23.5200  -32.1860   23.7260 O   0  0  0  0  0  0  0  0  0  0  0  0
  -22.7340  -29.4920   22.5480 C   0  0  0  0  0  0  0  0  0  0  0  0
  -21.4090  -29.3030   22.4190 N   0  0  0  0  0  0  0  0  0  0  0  0
  -23.4070  -28.8870   23.3870 O   0  0  0  0  0  0  0  0  0  0  0  0
  -20.9190  -29.8410   21.7180 H   0  0  0  0  0  0  0  0  0  0  0  0
  -18.0390  -28.0690   22.9430 C   0  0  0  0  0  0  0  0  0  0  0  0
  -20.5960  -28.3630   23.1980 C   0  0  0  0  0  3  0  0  0  0  0  0
  -20.7100  -26.9280   22.6330 C   0  0  0  0  0  2  0  0  0  0  0  0
  -19.6090  -26.5870   21.6230 C   0  0  0  0  0  2  0  0  0  0  0  0
  -18.2280  -26.7200   22.2710 C   0  0  0  0  0  2  0  0  0  0  0  0
  -19.1500  -28.8480   23.3630 C   0  0  0  0  0  0  0  0  0  0  0  0
  -18.9160  -30.1080   23.9540 C   0  0  0  0  0  3  0  0  0  0  0  0
  -17.6050  -30.5920   24.1260 C   0  0  0  0  0  3  0  0  0  0  0  0
  -16.5090  -29.8110   23.7210 C   0  0  0  0  0  3  0  0  0  0  0  0
  -16.7260  -28.5520   23.1340 C   0  0  0  0  0  3  0  0  0  0  0  0
  -25.8800  -32.5540   23.8200 C   0  0  0  0  0  3  0  0  0  0  0  0
  -26.3890  -31.8090   25.1160 C   0  0  1  0  0  0  0  0  0  0  0  0
  -25.2870  -31.5840   26.1790 C   0  0  0  0  0  1  0  0  0  0  0  0
  -26.9870  -30.4290   24.7610 C   0  0  0  0  0  1  0  0  0  0  0  0
  -27.5290  -32.6230   25.7750 C   0  0  0  0  0  1  0  0  0  0  0  0
  -25.5610  -33.9570   24.1350 N   0  0  0  0  0  0  0  0  0  0  0  0
  -25.8980  -35.0100   23.3750 C   0  0  0  0  0  0  0  0  0  0  0  0
  -26.5720  -34.9010   22.3480 O   0  0  0  0  0  0  0  0  0  0  0  0
  -24.9610  -34.1150   24.9310 H   0  0  0  0  0  0  0  0  0  0  0  0
  -24.1870  -36.8180   22.9940 C   0  0  0  0  0  1  0  0  0  0  0  0
  -25.4110  -36.4030   23.8260 C   0  0  0  0  0  3  0  0  0  0  0  0
  -27.5280  -37.2880   24.7050 C   0  0  0  0  0  1  0  0  0  0  0  0
  -26.4520  -37.4500   23.7310 N   0  0  0  0  0  0  0  0  0  0  0  0
  -26.0460  -38.3740   23.8590 H   0  0  0  0  0  0  0  0  0  0  0  0
  2  3  1  0
  3  9  1  0
  3  1  1  0
  4 47  1  0
  4  1  1  0
  5  2  1  0
  5  4  1  0
  6  5  1  0
  7  5  1  0
  9  8  1  0
 10  9  1  0
 11 16  1  0
 12 13  1  0
 12 11  1  0
 14 13  1  0
 14 21  1  0
 14 15  1  0
 16 10  1  0
 16 15  1  0
 17 10  2  0
 18 19  2  0
 19 38  1  0
 20 19  1  0
 20 23  1  0
 21 22  1  0
 21 18  1  0
 22 20  2  0
 23 24  1  0
 24 25  2  0
 26 29  1  0
 26 25  1  0
 27 26  2  0
 28 27  1  0
 28 23  2  0
 29 30  1  0
 30 31  1  0
 31 32  2  0
 33 32  1  0
 33 37  1  0
 34 33  2  0
 35 30  2  0
 35 34  1  0
 36 35  1  0
 38 39  1  0
 39 42  1  0
 39 41  1  0
 40 38  2  0
 43 44  1  0
 43 18  1  0
 45 43  1  0
 47 46  1  0
 48 49  1  0
 48 47  1  0
 50 61  2  0
 51 49  1  0
 51 56  1  0
 52 60  1  0
 52 62  1  0
 53 59  1  0
 53 55  1  0
 54 60  1  0
 55 54  1  0
 56 55  2  0
 57 51  2  0
 58 57  1  0
 58 53  2  0
 59 52  1  0
 60 50  1  0
 62 64  2  0
 63 62  1  0
 65 63  1  0
 66 75  2  0
 66 71  1  0
 67 63  1  0
 67 71  1  0
 68 67  1  0
 69 70  1  0
 69 68  1  0
 70 66  1  0
 71 72  2  0
 72 73  1  0
 74 73  2  0
 75 74  1  0
 76 50  1  0
 76 81  1  0
 76 77  1  0
 77 80  1  1
 77 78  1  0
 79 77  1  0
 81 84  1  0
 82 86  1  0
 82 81  1  0
 83 82  2  0
 86 85  1  0
 88 86  1  0
 88 89  1  0
 88 87  1  0
M  ISO  4   9 100  10 100  48 101  49 101
M  END
>  <TORSDO>  (44) 
F 19

>  <SCORE>  (44) 
-15.994

>  <name>  (44) 
43

>  <ligand_id>  (44) 
43

>  <original_smiles>  (44) 
[H]c1c([H])c([H])c2c(c1[H])C([H])([H])C([H])([H])C([H])([H])C2([H])N([H])C(=O)C1([H])N(C(=O)C([H])(N([H])C(=O)C([H])(N([H])C([H])([H])[H])C([H])([H])[H])C(C([H])([H])[H])(C([H])([H])[H])C([H])([H])[H])C([H])([H])c2c([H])c(OC([H])([H])C([H])(C([H])([H])[H])C3([H])C([H])([H])C([H])(C([H])(C(=O)N4C([H])([H])C([H])([H])C([H])([H])C([H])(n5nc(-c6c([H])c([H])c(Oc7c([H])c([H])c(F)c([H])c7F)c([H])c6[H])c(C(=O)N([H])[H])c5N([H])[H])C4([H])[H])C([H])([H])[H])C([H])([H])[N+]3([H])[H])c([H])c([H])c2C1([H])[H]

>  <smiles>  (44) 
[H]c1c([H])c([H])c2c(c1[H])C([H])([H])C([H])([H])C([H])([H])C2([H])N([H])C(=O)C1([H])N(C(=O)C([H])(N([H])C(=O)C([H])(N([H])C([H])([H])[H])C([H])([H])[H])C(C([H])([H])[H])(C([H])([H])[H])C([H])([H])[H])C([H])([H])c2c([H])c(OC([H])([H])C([H])(C([H])([H])[H])C3([H])C([H])([H])C([H])(C([H])(C(=O)N4C([H])([H])C([H])([H])C([H])([H])C([H])(n5nc(-c6c([H])c([H])c(Oc7c([H])c([H])c(F)c([H])c7F)c([H])c6[H])c(C(=O)N([H])[H])c5N([H])[H])C4([H])[H])C([H])([H])[H])C([H])([H])[N+]3([H])[H])c([H])c([H])c2C1([H])[H]

$$$$
44:0:0
     RDKit          3D

 88 96  0  0  1  0  0  0  0  0999 V2000
  -28.7000  -21.4900   20.5750 C   0  0  0  0  0  0  0  0  0  0  0  0
  -27.9830  -21.3870   21.5720 O   0  0  0  0  0  0  0  0  0  0  0  0
  -30.5990  -15.1970   19.9280 C   0  0  0  0  0  0  0  0  0  0  0  0
  -30.3950  -12.8350   18.9620 C   0  0  0  0  0  2  0  0  0  0  0  0
  -29.3920  -12.7240   17.7910 C   0  0  0  0  0  2  0  0  0  0  0  0
  -27.9750  -12.4610   18.3270 C   0  0  0  0  0  2  0  0  0  0  0  0
  -27.6180  -13.3870   19.5170 C   0  0  0  0  0  3  0  0  0  0  0  0
  -28.7440  -13.4890   20.5670 C   0  0  0  0  0  2  0  0  0  0  0  0
  -29.9420  -13.9530   19.8570 N   0  0  0  0  0  0  0  0  0  0  0  0
  -31.8070  -15.1330   19.6620 O   0  0  0  0  0  0  0  0  0  0  0  0
  -28.3070  -18.6870   20.0280 C   0  0  0  0  0  2  0  0  0  0  0  0
  -30.5940  -19.2670   20.4140 C   0  0  0  0  0  2  0  0  0  0  0  0
  -28.8290  -17.2020   19.5300 C   0  0  0  0  0  2  0  0  0  0  0  0
  -29.2410  -19.9940   19.9430 C   0  0  0  0  0  3  0  0  0  0  0  0
  -30.7360  -17.6770   20.8760 C   0  0  0  0  0  3  0  0  0  0  0  0
  -30.5060  -17.5640   22.3940 C   0  0  0  0  0  1  0  0  0  0  0  0
  -30.0000  -16.5090   20.2030 N   0  0  0  0  0  0  0  0  0  0  0  0
  -25.3030  -13.9180   20.4530 C   0  0  0  0  0  0  0  0  0  0  0  0
  -24.2700  -13.1240   20.8660 C   0  0  0  0  0  0  0  0  0  0  0  0
  -24.7400  -11.7780   20.7630 C   0  0  0  0  0  0  0  0  0  0  0  0
  -26.3300  -13.0560   20.1110 N   0  0  0  0  0  0  0  0  0  0  0  0
  -26.0080  -11.7610   20.3670 N   0  0  0  0  0  0  0  0  0  0  0  0
  -24.0320  -10.5070   20.9600 C   0  0  0  0  0  0  0  0  0  0  0  0
  -24.4930   -9.5390   21.8810 C   0  0  0  0  0  3  0  0  0  0  0  0
  -23.7820   -8.3340   22.0690 C   0  0  0  0  0  3  0  0  0  0  0  0
  -22.5970   -8.0880   21.3350 C   0  0  0  0  0  0  0  0  0  0  0  0
  -22.1560   -9.0430   20.4030 C   0  0  0  0  0  3  0  0  0  0  0  0
  -22.8680  -10.2400   20.2140 C   0  0  0  0  0  3  0  0  0  0  0  0
  -21.8550   -6.9350   21.4320 O   0  0  0  0  0  0  0  0  0  0  0  0
  -21.7910   -6.2160   22.5990 C   0  0  0  0  0  0  0  0  0  0  0  0
  -21.3100   -6.7850   23.7990 C   0  0  0  0  0  3  0  0  0  0  0  0
  -21.1970   -5.9920   24.9580 C   0  0  0  0  0  3  0  0  0  0  0  0
  -21.5530   -4.6300   24.9180 C   0  0  0  0  0  0  0  0  0  0  0  0
  -22.0280   -4.0610   23.7230 C   0  0  0  0  0  3  0  0  0  0  0  0
  -22.1430   -4.8520   22.5660 C   0  0  0  0  0  0  0  0  0  0  0  0
  -22.5800   -4.2940   21.4120 F   0  0  0  0  0  0  0  0  0  0  0  0
  -21.4380   -3.8660   26.0290 F   0  0  0  0  0  0  0  0  0  0  0  0
  -22.8920  -13.5850   21.2390 C   0  0  0  0  0  0  0  0  0  0  0  0
  -22.2220  -12.8580   22.1260 N   0  0  0  0  0  0  0  0  0  0  0  0
  -22.4210  -14.6250   20.7790 O   0  0  0  0  0  0  0  0  0  0  0  0
  -22.6190  -12.0180   22.5190 H   0  0  0  0  0  0  0  0  0  0  0  0
  -21.3000  -13.1490   22.4180 H   0  0  0  0  0  0  0  0  0  0  0  0
  -25.4460  -15.2950   20.3090 N   0  0  0  0  0  0  0  0  0  0  0  0
  -24.6870  -15.9380   20.5060 H   0  0  0  0  0  0  0  0  0  0  0  0
  -26.2770  -15.7550   19.9630 H   0  0  0  0  0  0  0  0  0  0  0  0
  -28.9630  -23.0930   20.0700 C   0  0  0  0  0  3  0  0  0  0  0  0
  -28.0340  -24.5170   20.4660 C   0  0  0  0  0  3  0  0  0  0  0  0
  -28.3030  -26.0930   20.3010 O   0  0  0  0  0  0  0  0  0  0  0  0
  -24.6460  -31.9050   23.2460 C   0  0  0  0  0  0  0  0  0  0  0  0
  -27.2580  -27.1200   20.2630 C   0  0  0  0  0  0  0  0  0  0  0  0
  -23.4690  -30.4980   21.6040 C   0  0  0  0  0  3  0  0  0  0  0  0
  -24.9360  -28.9150   20.1980 C   0  0  0  0  0  0  0  0  0  0  0  0
  -26.0280  -30.7550   21.4640 C   0  0  0  0  0  2  0  0  0  0  0  0
  -26.1140  -29.3520   20.8170 C   0  0  0  0  0  0  0  0  0  0  0  0
  -27.2750  -28.4740   20.8260 C   0  0  0  0  0  3  0  0  0  0  0  0
  -26.0540  -26.8120   19.5940 C   0  0  0  0  0  3  0  0  0  0  0  0
  -24.9250  -27.6630   19.5670 C   0  0  0  0  0  3  0  0  0  0  0  0
  -23.7080  -29.8160   20.2310 C   0  0  0  0  0  2  0  0  0  0  0  0
  -24.7340  -31.0770   22.1590 N   0  0  0  0  0  0  0  0  0  0  0  0
  -23.5520  -32.1860   23.7640 O   0  0  0  0  0  0  0  0  0  0  0  0
  -22.7830  -29.4940   22.5650 C   0  0  0  0  0  0  0  0  0  0  0  0
  -21.4540  -29.3230   22.4370 N   0  0  0  0  0  0  0  0  0  0  0  0
  -23.4520  -28.8680   23.3940 O   0  0  0  0  0  0  0  0  0  0  0  0
  -20.9700  -29.8780   21.7460 H   0  0  0  0  0  0  0  0  0  0  0  0
  -18.0720  -28.1190   22.9440 C   0  0  0  0  0  0  0  0  0  0  0  0
  -20.6320  -28.3840   23.2070 C   0  0  0  0  0  3  0  0  0  0  0  0
  -20.7330  -26.9530   22.6300 C   0  0  0  0  0  2  0  0  0  0  0  0
  -19.6310  -26.6320   21.6160 C   0  0  0  0  0  2  0  0  0  0  0  0
  -18.2500  -26.7730   22.2620 C   0  0  0  0  0  2  0  0  0  0  0  0
  -19.1910  -28.8830   23.3730 C   0  0  0  0  0  0  0  0  0  0  0  0
  -18.9710  -30.1410   23.9740 C   0  0  0  0  0  3  0  0  0  0  0  0
  -17.6640  -30.6370   24.1470 C   0  0  0  0  0  3  0  0  0  0  0  0
  -16.5610  -29.8730   23.7320 C   0  0  0  0  0  3  0  0  0  0  0  0
  -16.7660  -28.6140   23.1360 C   0  0  0  0  0  3  0  0  0  0  0  0
  -25.9120  -32.5550   23.8830 C   0  0  0  0  0  3  0  0  0  0  0  0
  -25.5890  -33.9570   24.1970 N   0  0  0  0  0  0  0  0  0  0  0  0
  -25.9240  -35.0090   23.4390 C   0  0  0  0  0  0  0  0  0  0  0  0
  -26.6020  -34.9030   22.4140 O   0  0  0  0  0  0  0  0  0  0  0  0
  -24.9860  -34.1120   24.9920 H   0  0  0  0  0  0  0  0  0  0  0  0
  -24.1940  -36.8010   23.0680 C   0  0  0  0  0  1  0  0  0  0  0  0
  -25.4320  -36.4000   23.8880 C   0  0  0  0  0  3  0  0  0  0  0  0
  -27.5560  -37.2990   24.7310 C   0  0  0  0  0  1  0  0  0  0  0  0
  -26.4630  -37.4560   23.7760 N   0  0  0  0  0  0  0  0  0  0  0  0
  -26.0530  -38.3760   23.9110 H   0  0  0  0  0  0  0  0  0  0  0  0
  -26.4060  -31.8040   25.1810 C   0  0  1  0  0  0  0  0  0  0  0  0
  -25.2960  -31.5800   26.2340 C   0  0  0  0  0  1  0  0  0  0  0  0
  -27.0010  -30.4220   24.8260 C   0  0  0  0  0  1  0  0  0  0  0  0
  -27.5440  -32.6110   25.8510 C   0  0  0  0  0  1  0  0  0  0  0  0
  1  2  2  0
  3 17  1  0
  4  9  1  0
  5  6  1  0
  5  4  1  0
  7  6  1  0
  7 21  1  0
  7  8  1  0
  9  3  1  0
  9  8  1  0
 10  3  2  0
 12 15  1  0
 13 11  1  0
 13 17  1  0
 14 11  1  0
 14 12  1  0
 14  1  1  0
 15 16  1  0
 17 15  1  0
 18 19  2  0
 19 38  1  0
 20 19  1  0
 20 23  1  0
 21 22  1  0
 21 18  1  0
 22 20  2  0
 23 24  1  0
 24 25  2  0
 26 29  1  0
 26 25  1  0
 27 26  2  0
 28 27  1  0
 28 23  2  0
 29 30  1  0
 30 31  1  0
 31 32  2  0
 33 32  1  0
 33 37  1  0
 34 33  2  0
 35 30  2  0
 35 34  1  0
 36 35  1  0
 38 39  1  0
 39 42  1  0
 39 41  1  0
 40 38  2  0
 43 18  1  0
 43 44  1  0
 45 43  1  0
 46 47  2  0
 46  1  1  0
 48 47  1  0
 49 60  2  0
 50 48  1  0
 50 55  1  0
 51 59  1  0
 51 61  1  0
 52 58  1  0
 52 54  1  0
 53 59  1  0
 54 55  2  0
 54 53  1  0
 56 50  2  0
 57 56  1  0
 57 52  2  0
 58 51  1  0
 59 49  1  0
 61 63  2  0
 62 61  1  0
 64 62  1  0
 65 74  2  0
 65 70  1  0
 66 62  1  0
 66 70  1  0
 67 66  1  0
 68 69  1  0
 68 67  1  0
 69 65  1  0
 70 71  2  0
 71 72  1  0
 73 72  2  0
 74 73  1  0
 75 49  1  0
 75 76  1  0
 75 85  1  0
 76 79  1  0
 77 81  1  0
 77 76  1  0
 78 77  2  0
 81 80  1  0
 83 81  1  0
 83 84  1  0
 83 82  1  0
 85 88  1  1
 85 86  1  0
 87 85  1  0
M  ISO  4   3 100  17 100  47 101  48 101
M  END
>  <TORSDO>  (45) 
F 18

>  <SCORE>  (45) 
-16.152

>  <name>  (45) 
44

>  <ligand_id>  (45) 
44

>  <original_smiles>  (45) 
[H]c1c([H])c([H])c2c(c1[H])C([H])([H])C([H])([H])C([H])([H])C2([H])N([H])C(=O)C1([H])N(C(=O)C([H])(N([H])C(=O)C([H])(N([H])C([H])([H])[H])C([H])([H])[H])C(C([H])([H])[H])(C([H])([H])[H])C([H])([H])[H])C([H])([H])c2c([H])c(OC([H])([H])C([H])([H])C(=O)C3([H])C([H])([H])C([H])([H])N(C(=O)N4C([H])([H])C([H])([H])C([H])([H])C([H])(n5nc(-c6c([H])c([H])c(Oc7c([H])c([H])c(F)c([H])c7F)c([H])c6[H])c(C(=O)N([H])[H])c5N([H])[H])C4([H])[H])C([H])(C([H])([H])[H])C3([H])[H])c([H])c([H])c2C1([H])[H]

>  <smiles>  (45) 
[H]c1c([H])c([H])c2c(c1[H])C([H])([H])C([H])([H])C([H])([H])C2([H])N([H])C(=O)C1([H])N(C(=O)C([H])(N([H])C(=O)C([H])(N([H])C([H])([H])[H])C([H])([H])[H])C(C([H])([H])[H])(C([H])([H])[H])C([H])([H])[H])C([H])([H])c2c([H])c(OC([H])([H])C([H])([H])C(=O)C3([H])C([H])([H])C([H])([H])N(C(=O)N4C([H])([H])C([H])([H])C([H])([H])C([H])(n5nc(-c6c([H])c([H])c(Oc7c([H])c([H])c(F)c([H])c7F)c([H])c6[H])c(C(=O)N([H])[H])c5N([H])[H])C4([H])[H])C([H])(C([H])([H])[H])C3([H])[H])c([H])c([H])c2C1([H])[H]

$$$$
45:0:0
     RDKit          3D

 89 97  0  0  1  0  0  0  0  0999 V2000
  -28.5470  -21.0220   19.3060 C   0  0  0  0  0  3  0  0  0  0  0  0
  -29.8020  -21.6930   21.2040 C   0  0  0  0  0  3  0  0  0  0  0  0
  -28.2360  -22.4100   19.0570 C   0  0  0  0  0  3  0  0  0  0  0  0
  -29.4910  -23.0830   20.9550 C   0  0  0  0  0  3  0  0  0  0  0  0
  -29.3520  -20.5900   20.3980 C   0  0  0  0  0  0  0  0  0  0  0  0
  -28.6760  -23.5120   19.8680 C   0  0  0  0  0  0  0  0  0  0  0  0
  -29.5730  -19.0550   20.8820 C   0  0  0  0  0  3  0  0  0  0  0  0
  -29.9710  -17.6860   20.0370 C   0  0  0  0  0  3  0  0  0  0  0  0
  -28.9030  -16.0310   21.7070 C   0  0  0  0  0  1  0  0  0  0  0  0
  -31.3120  -16.4750   21.8370 C   0  0  0  0  0  1  0  0  0  0  0  0
  -30.1560  -16.2280   20.8340 C   0  0  2  0  0  0  0  0  0  0  0  0
  -30.6230  -14.8370   20.0510 C   0  0  0  0  0  0  0  0  0  0  0  0
  -30.3660  -12.5740   18.9360 C   0  0  0  0  0  2  0  0  0  0  0  0
  -29.3560  -12.6530   17.7660 C   0  0  0  0  0  2  0  0  0  0  0  0
  -27.9090  -12.4610   18.2600 C   0  0  0  0  0  2  0  0  0  0  0  0
  -27.6120  -13.3020   19.5280 C   0  0  0  0  0  3  0  0  0  0  0  0
  -28.7300  -13.1190   20.5730 C   0  0  0  0  0  2  0  0  0  0  0  0
  -29.9840  -13.5940   19.9630 N   0  0  0  0  0  0  0  0  0  0  0  0
  -31.7160  -14.9090   19.4770 O   0  0  0  0  0  0  0  0  0  0  0  0
  -25.2680  -13.9020   20.3750 C   0  0  0  0  0  0  0  0  0  0  0  0
  -24.2180  -13.1340   20.7940 C   0  0  0  0  0  0  0  0  0  0  0  0
  -24.6680  -11.7790   20.7240 C   0  0  0  0  0  0  0  0  0  0  0  0
  -26.2920  -13.0170   20.0780 N   0  0  0  0  0  0  0  0  0  0  0  0
  -25.9400  -11.7340   20.3480 N   0  0  0  0  0  0  0  0  0  0  0  0
  -23.9400  -10.5210   20.9370 C   0  0  0  0  0  0  0  0  0  0  0  0
  -24.3980   -9.5500   21.8540 C   0  0  0  0  0  3  0  0  0  0  0  0
  -23.6720   -8.3560   22.0550 C   0  0  0  0  0  3  0  0  0  0  0  0
  -22.4740   -8.1250   21.3390 C   0  0  0  0  0  0  0  0  0  0  0  0
  -22.0340   -9.0860   20.4110 C   0  0  0  0  0  3  0  0  0  0  0  0
  -22.7600  -10.2710   20.2080 C   0  0  0  0  0  3  0  0  0  0  0  0
  -21.7150   -6.9850   21.4500 O   0  0  0  0  0  0  0  0  0  0  0  0
  -21.6830   -6.2530   22.6100 C   0  0  0  0  0  0  0  0  0  0  0  0
  -21.2910   -6.8250   23.8410 C   0  0  0  0  0  3  0  0  0  0  0  0
  -21.2040   -6.0200   24.9940 C   0  0  0  0  0  3  0  0  0  0  0  0
  -21.5000   -4.6450   24.9180 C   0  0  0  0  0  0  0  0  0  0  0  0
  -21.8860   -4.0750   23.6920 C   0  0  0  0  0  3  0  0  0  0  0  0
  -21.9740   -4.8760   22.5420 C   0  0  0  0  0  0  0  0  0  0  0  0
  -22.3260   -4.3170   21.3590 F   0  0  0  0  0  0  0  0  0  0  0  0
  -21.4090   -3.8700   26.0250 F   0  0  0  0  0  0  0  0  0  0  0  0
  -22.8420  -13.6190   21.1440 C   0  0  0  0  0  0  0  0  0  0  0  0
  -22.1550  -12.9230   22.0430 N   0  0  0  0  0  0  0  0  0  0  0  0
  -22.3860  -14.6530   20.6570 O   0  0  0  0  0  0  0  0  0  0  0  0
  -22.5380  -12.0860   22.4590 H   0  0  0  0  0  0  0  0  0  0  0  0
  -21.2360  -13.2320   22.3220 H   0  0  0  0  0  0  0  0  0  0  0  0
  -25.4300  -15.2730   20.2000 N   0  0  0  0  0  0  0  0  0  0  0  0
  -24.6770  -15.9320   20.3630 H   0  0  0  0  0  0  0  0  0  0  0  0
  -26.2630  -15.7120   19.8280 H   0  0  0  0  0  0  0  0  0  0  0  0
  -28.3820  -25.0380   19.4010 C   0  0  0  0  0  2  0  0  0  0  0  0
  -28.2370  -26.2750   20.2690 O   0  0  0  0  0  0  0  0  0  0  0  0
  -24.5980  -31.8730   23.2200 C   0  0  0  0  0  0  0  0  0  0  0  0
  -27.1550  -27.2010   20.1690 C   0  0  0  0  0  0  0  0  0  0  0  0
  -23.3830  -30.4830   21.5830 C   0  0  0  0  0  3  0  0  0  0  0  0
  -24.8190  -28.9100   20.1560 C   0  0  0  0  0  0  0  0  0  0  0  0
  -25.9340  -30.7500   21.4100 C   0  0  0  0  0  2  0  0  0  0  0  0
  -25.9980  -29.3640   20.7590 C   0  0  0  0  0  0  0  0  0  0  0  0
  -27.1630  -28.5210   20.7570 C   0  0  0  0  0  3  0  0  0  0  0  0
  -25.9390  -26.8240   19.5500 C   0  0  0  0  0  3  0  0  0  0  0  0
  -24.7970  -27.6490   19.5440 C   0  0  0  0  0  3  0  0  0  0  0  0
  -23.5960  -29.8070   20.2030 C   0  0  0  0  0  2  0  0  0  0  0  0
  -24.6580  -31.0550   22.1270 N   0  0  0  0  0  0  0  0  0  0  0  0
  -23.5150  -32.1640   23.7500 O   0  0  0  0  0  0  0  0  0  0  0  0
  -22.7040  -29.4780   22.5440 C   0  0  0  0  0  0  0  0  0  0  0  0
  -21.3780  -29.3050   22.4080 N   0  0  0  0  0  0  0  0  0  0  0  0
  -23.3720  -28.8580   23.3760 O   0  0  0  0  0  0  0  0  0  0  0  0
  -20.8970  -29.8570   21.7110 H   0  0  0  0  0  0  0  0  0  0  0  0
  -17.9990  -28.0900   22.8680 C   0  0  0  0  0  0  0  0  0  0  0  0
  -20.5500  -28.3740   23.1790 C   0  0  0  0  0  3  0  0  0  0  0  0
  -20.6720  -26.9340   22.6300 C   0  0  0  0  0  2  0  0  0  0  0  0
  -19.5920  -26.5860   21.6010 C   0  0  0  0  0  2  0  0  0  0  0  0
  -18.1980  -26.7310   22.2160 C   0  0  0  0  0  2  0  0  0  0  0  0
  -19.1040  -28.8680   23.3050 C   0  0  0  0  0  0  0  0  0  0  0  0
  -18.8650  -30.1370   23.8730 C   0  0  0  0  0  3  0  0  0  0  0  0
  -17.5540  -30.6320   24.0070 C   0  0  0  0  0  3  0  0  0  0  0  0
  -16.4630  -29.8520   23.5860 C   0  0  0  0  0  3  0  0  0  0  0  0
  -16.6860  -28.5830   23.0220 C   0  0  0  0  0  3  0  0  0  0  0  0
  -25.8830  -32.4970   23.8440 C   0  0  0  0  0  3  0  0  0  0  0  0
  -26.3810  -31.7330   25.1310 C   0  0  1  0  0  0  0  0  0  0  0  0
  -25.2790  -31.5210   26.1960 C   0  0  0  0  0  1  0  0  0  0  0  0
  -26.9490  -30.3430   24.7600 C   0  0  0  0  0  1  0  0  0  0  0  0
  -27.5380  -32.5190   25.7920 C   0  0  0  0  0  1  0  0  0  0  0  0
  -25.5870  -33.9020   24.1620 N   0  0  0  0  0  0  0  0  0  0  0  0
  -25.9230  -34.9460   23.3930 C   0  0  0  0  0  0  0  0  0  0  0  0
  -26.5830  -34.8280   22.3570 O   0  0  0  0  0  0  0  0  0  0  0  0
  -25.0010  -34.0680   24.9660 H   0  0  0  0  0  0  0  0  0  0  0  0
  -24.2040  -36.7510   23.0470 C   0  0  0  0  0  1  0  0  0  0  0  0
  -25.4540  -36.3440   23.8440 C   0  0  0  0  0  3  0  0  0  0  0  0
  -27.6080  -37.2210   24.6330 C   0  0  0  0  0  1  0  0  0  0  0  0
  -26.4940  -37.3880   23.7040 N   0  0  0  0  0  0  0  0  0  0  0  0
  -26.0970  -38.3120   23.8480 H   0  0  0  0  0  0  0  0  0  0  0  0
  1  5  1  0
  3  1  2  0
  3  6  1  0
  4  2  1  0
  5  7  1  0
  5  2  2  0
  6  4  2  0
  8 11  1  0
  8  7  2  0
 11  9  1  1
 11 10  1  0
 12 11  1  0
 13 18  1  0
 14 15  1  0
 14 13  1  0
 16 15  1  0
 16 23  1  0
 16 17  1  0
 18 12  1  0
 18 17  1  0
 19 12  2  0
 20 21  2  0
 21 40  1  0
 22 21  1  0
 22 25  1  0
 23 24  1  0
 23 20  1  0
 24 22  2  0
 25 26  1  0
 26 27  2  0
 28 31  1  0
 28 27  1  0
 29 28  2  0
 30 29  1  0
 30 25  2  0
 31 32  1  0
 32 33  1  0
 33 34  2  0
 35 34  1  0
 35 39  1  0
 36 35  2  0
 37 32  2  0
 37 36  1  0
 38 37  1  0
 40 41  1  0
 41 44  1  0
 41 43  1  0
 42 40  2  0
 45 46  1  0
 45 20  1  0
 47 45  1  0
 48  6  1  0
 48 49  1  0
 50 61  2  0
 51 49  1  0
 51 56  1  0
 52 60  1  0
 52 62  1  0
 53 59  1  0
 53 55  1  0
 54 60  1  0
 55 54  1  0
 56 55  2  0
 57 51  2  0
 58 57  1  0
 58 53  2  0
 59 52  1  0
 60 50  1  0
 62 64  2  0
 63 62  1  0
 65 63  1  0
 66 75  2  0
 66 71  1  0
 67 63  1  0
 67 71  1  0
 68 67  1  0
 69 70  1  0
 69 68  1  0
 70 66  1  0
 71 72  2  0
 72 73  1  0
 74 73  2  0
 75 74  1  0
 76 50  1  0
 76 81  1  0
 76 77  1  0
 77 80  1  1
 77 78  1  0
 79 77  1  0
 81 84  1  0
 82 86  1  0
 82 81  1  0
 83 82  2  0
 86 85  1  0
 88 86  1  0
 88 89  1  0
 88 87  1  0
M  ISO  4  11 100  12 100  48 101  49 101
M  END
>  <TORSDO>  (46) 
F 20

>  <SCORE>  (46) 
-12.834

>  <name>  (46) 
45

>  <ligand_id>  (46) 
45

>  <original_smiles>  (46) 
[H]c1c([H])c([H])c2c(c1[H])C([H])([H])C([H])([H])C([H])([H])C2([H])N([H])C(=O)C1([H])N(C(=O)C([H])(N([H])C(=O)C([H])(N([H])C([H])([H])[H])C([H])([H])[H])C(C([H])([H])[H])(C([H])([H])[H])C([H])([H])[H])C([H])([H])c2c([H])c(OC([H])([H])c3c([H])c([H])c(C([H])([H])C([H])([H])C(C(=O)N4C([H])([H])C([H])([H])C([H])([H])C([H])(n5nc(-c6c([H])c([H])c(Oc7c([H])c([H])c(F)c([H])c7F)c([H])c6[H])c(C(=O)N([H])[H])c5N([H])[H])C4([H])[H])(C([H])([H])[H])C([H])([H])[H])c([H])c3[H])c([H])c([H])c2C1([H])[H]

>  <smiles>  (46) 
[H]c1c([H])c([H])c2c(c1[H])C([H])([H])C([H])([H])C([H])([H])C2([H])N([H])C(=O)C1([H])N(C(=O)C([H])(N([H])C(=O)C([H])(N([H])C([H])([H])[H])C([H])([H])[H])C(C([H])([H])[H])(C([H])([H])[H])C([H])([H])[H])C([H])([H])c2c([H])c(OC([H])([H])c3c([H])c([H])c(C([H])([H])C([H])([H])C(C(=O)N4C([H])([H])C([H])([H])C([H])([H])C([H])(n5nc(-c6c([H])c([H])c(Oc7c([H])c([H])c(F)c([H])c7F)c([H])c6[H])c(C(=O)N([H])[H])c5N([H])[H])C4([H])[H])(C([H])([H])[H])C([H])([H])[H])c([H])c3[H])c([H])c([H])c2C1([H])[H]

$$$$
46:0:0
     RDKit          3D

 88 96  0  0  1  0  0  0  0  0999 V2000
  -28.2500  -20.4200   21.6120 C   0  0  0  0  0  1  0  0  0  0  0  0
  -28.9260  -20.6380   20.2560 C   0  0  0  0  0  3  0  0  0  0  0  0
  -30.5550  -15.9590   20.1550 C   0  0  0  0  0  0  0  0  0  0  0  0
  -30.6890  -13.4230   19.3650 C   0  0  0  0  0  2  0  0  0  0  0  0
  -29.8000  -13.0070   18.1610 C   0  0  0  0  0  2  0  0  0  0  0  0
  -28.3800  -12.6360   18.6210 C   0  0  0  0  0  2  0  0  0  0  0  0
  -27.8530  -13.6300   19.6800 C   0  0  0  0  0  3  0  0  0  0  0  0
  -28.8840  -13.9740   20.7810 C   0  0  0  0  0  2  0  0  0  0  0  0
  -30.0450  -14.5930   20.1040 N   0  0  0  0  0  0  0  0  0  0  0  0
  -31.7990  -15.9110   20.0950 O   0  0  0  0  0  0  0  0  0  0  0  0
  -30.3600  -19.1310   18.5510 C   0  0  0  0  0  2  0  0  0  0  0  0
  -28.8250  -17.2330   18.9410 C   0  0  0  0  0  2  0  0  0  0  0  0
  -29.2770  -18.2730   17.8950 C   0  0  0  0  0  3  0  0  0  0  0  0
  -29.9820  -19.0530   20.0200 C   0  0  0  0  0  3  0  0  0  0  0  0
  -29.7680  -17.3030   20.0630 N   0  0  0  0  0  0  0  0  0  0  0  0
  -25.4900  -14.1290   20.4650 C   0  0  0  0  0  0  0  0  0  0  0  0
  -24.4420  -13.3290   20.8220 C   0  0  0  0  0  0  0  0  0  0  0  0
  -24.9340  -11.9880   20.7730 C   0  0  0  0  0  0  0  0  0  0  0  0
  -26.5450  -13.2740   20.2080 N   0  0  0  0  0  0  0  0  0  0  0  0
  -26.2260  -11.9790   20.4610 N   0  0  0  0  0  0  0  0  0  0  0  0
  -24.2280  -10.7120   20.9470 C   0  0  0  0  0  0  0  0  0  0  0  0
  -24.6280   -9.7720   21.9220 C   0  0  0  0  0  3  0  0  0  0  0  0
  -23.9180   -8.5630   22.0850 C   0  0  0  0  0  3  0  0  0  0  0  0
  -22.7930   -8.2850   21.2720 C   0  0  0  0  0  0  0  0  0  0  0  0
  -22.4130   -9.2140   20.2870 C   0  0  0  0  0  3  0  0  0  0  0  0
  -23.1240  -10.4140   20.1220 C   0  0  0  0  0  3  0  0  0  0  0  0
  -22.0590   -7.1270   21.3420 O   0  0  0  0  0  0  0  0  0  0  0  0
  -21.8540   -6.4750   22.5320 C   0  0  0  0  0  0  0  0  0  0  0  0
  -21.1880   -7.0910   23.6150 C   0  0  0  0  0  3  0  0  0  0  0  0
  -20.9370   -6.3610   24.7940 C   0  0  0  0  0  3  0  0  0  0  0  0
  -21.3430   -5.0160   24.8900 C   0  0  0  0  0  0  0  0  0  0  0  0
  -22.0030   -4.4000   23.8120 C   0  0  0  0  0  3  0  0  0  0  0  0
  -22.2550   -5.1270   22.6350 C   0  0  0  0  0  0  0  0  0  0  0  0
  -22.8710   -4.5230   21.5920 F   0  0  0  0  0  0  0  0  0  0  0  0
  -21.0970   -4.3120   26.0200 F   0  0  0  0  0  0  0  0  0  0  0  0
  -23.0370  -13.7800   21.0910 C   0  0  0  0  0  0  0  0  0  0  0  0
  -22.3240  -13.0770   21.9630 N   0  0  0  0  0  0  0  0  0  0  0  0
  -22.5800  -14.7930   20.5630 O   0  0  0  0  0  0  0  0  0  0  0  0
  -22.7090  -12.2590   22.4130 H   0  0  0  0  0  0  0  0  0  0  0  0
  -21.3810  -13.3610   22.1860 H   0  0  0  0  0  0  0  0  0  0  0  0
  -25.6280  -15.5050   20.3070 N   0  0  0  0  0  0  0  0  0  0  0  0
  -24.8530  -16.1440   20.4410 H   0  0  0  0  0  0  0  0  0  0  0  0
  -26.4800  -15.9670   20.0190 H   0  0  0  0  0  0  0  0  0  0  0  0
  -29.7680  -17.6400   16.7310 O   0  0  0  0  0  0  0  0  0  0  0  0
  -29.9250  -18.3140   16.0750 H   0  0  0  0  0  0  0  0  0  0  0  0
  -29.1340  -22.5460   20.1200 C   0  0  0  0  0  3  0  0  0  0  0  0
  -28.1040  -24.1720   20.1230 C   0  0  0  0  0  3  0  0  0  0  0  0
  -28.2800  -25.9080   20.1190 O   0  0  0  0  0  0  0  0  0  0  0  0
  -24.7170  -31.9730   23.3380 C   0  0  0  0  0  0  0  0  0  0  0  0
  -27.2750  -27.0800   20.1360 C   0  0  0  0  0  0  0  0  0  0  0  0
  -23.5250  -30.6230   21.6630 C   0  0  0  0  0  3  0  0  0  0  0  0
  -24.9750  -29.0530   20.1760 C   0  0  0  0  0  0  0  0  0  0  0  0
  -26.0980  -30.8160   21.5150 C   0  0  0  0  0  2  0  0  0  0  0  0
  -26.1720  -29.4130   20.8050 C   0  0  0  0  0  0  0  0  0  0  0  0
  -27.3090  -28.4560   20.7510 C   0  0  0  0  0  3  0  0  0  0  0  0
  -26.0390  -26.9170   19.4630 C   0  0  0  0  0  3  0  0  0  0  0  0
  -24.9440  -27.8310   19.4820 C   0  0  0  0  0  3  0  0  0  0  0  0
  -23.7550  -29.9810   20.2650 C   0  0  0  0  0  2  0  0  0  0  0  0
  -24.8040  -31.1680   22.2250 N   0  0  0  0  0  0  0  0  0  0  0  0
  -23.6270  -32.2390   23.8740 O   0  0  0  0  0  0  0  0  0  0  0  0
  -22.8360  -29.5990   22.6050 C   0  0  0  0  0  0  0  0  0  0  0  0
  -21.5120  -29.3950   22.4550 N   0  0  0  0  0  0  0  0  0  0  0  0
  -23.5030  -28.9860   23.4420 O   0  0  0  0  0  0  0  0  0  0  0  0
  -21.0230  -29.9420   21.7600 H   0  0  0  0  0  0  0  0  0  0  0  0
  -18.1680  -28.0430   22.8870 C   0  0  0  0  0  0  0  0  0  0  0  0
  -20.7100  -28.4150   23.1990 C   0  0  0  0  0  3  0  0  0  0  0  0
  -20.8800  -26.9950   22.6080 C   0  0  0  0  0  2  0  0  0  0  0  0
  -19.8130  -26.6420   21.5690 C   0  0  0  0  0  2  0  0  0  0  0  0
  -18.4140  -26.7160   22.1890 C   0  0  0  0  0  2  0  0  0  0  0  0
  -19.2450  -28.8480   23.3450 C   0  0  0  0  0  0  0  0  0  0  0  0
  -18.9580  -30.0850   23.9620 C   0  0  0  0  0  3  0  0  0  0  0  0
  -17.6280  -30.5210   24.1200 C   0  0  0  0  0  3  0  0  0  0  0  0
  -16.5670  -29.7140   23.6730 C   0  0  0  0  0  3  0  0  0  0  0  0
  -16.8370  -28.4780   23.0620 C   0  0  0  0  0  3  0  0  0  0  0  0
  -25.9810  -32.6140   23.9870 C   0  0  0  0  0  3  0  0  0  0  0  0
  -26.4580  -31.8570   25.2890 C   0  0  1  0  0  0  0  0  0  0  0  0
  -25.3260  -31.6010   26.3130 C   0  0  0  0  0  1  0  0  0  0  0  0
  -27.0840  -30.4880   24.9380 C   0  0  0  0  0  1  0  0  0  0  0  0
  -27.5650  -32.6750   25.9950 C   0  0  0  0  0  1  0  0  0  0  0  0
  -25.6680  -34.0190   24.3130 N   0  0  0  0  0  0  0  0  0  0  0  0
  -25.9780  -35.0750   23.5490 C   0  0  0  0  0  0  0  0  0  0  0  0
  -26.6160  -34.9700   22.4980 O   0  0  0  0  0  0  0  0  0  0  0  0
  -25.0960  -34.1730   25.1290 H   0  0  0  0  0  0  0  0  0  0  0  0
  -24.2200  -36.8620   23.2880 C   0  0  0  0  0  1  0  0  0  0  0  0
  -25.5120  -36.4690   24.0230 C   0  0  0  0  0  3  0  0  0  0  0  0
  -27.6780  -37.3930   24.7230 C   0  0  0  0  0  1  0  0  0  0  0  0
  -26.5280  -37.5280   23.8330 N   0  0  0  0  0  0  0  0  0  0  0  0
  -26.1200  -38.4480   23.9800 H   0  0  0  0  0  0  0  0  0  0  0  0
  2  1  1  0
  4  9  1  0
  5  6  1  0
  5  4  1  0
  7  6  1  0
  7 19  1  0
  7  8  1  0
  9  3  1  0
  9  8  1  0
 10  3  2  0
 11 14  1  0
 12 15  1  0
 13 44  1  0
 13 11  1  0
 13 12  1  0
 14 15  1  0
 14  2  1  0
 15  3  1  0
 16 17  2  0
 17 36  1  0
 18 17  1  0
 18 21  1  0
 19 20  1  0
 19 16  1  0
 20 18  2  0
 21 22  1  0
 22 23  2  0
 24 27  1  0
 24 23  1  0
 25 24  2  0
 26 25  1  0
 26 21  2  0
 27 28  1  0
 28 33  2  0
 28 29  1  0
 29 30  2  0
 30 31  1  0
 31 35  1  0
 32 31  2  0
 33 32  1  0
 34 33  1  0
 36 37  1  0
 37 40  1  0
 37 39  1  0
 38 36  2  0
 41 42  1  0
 41 16  1  0
 43 41  1  0
 45 44  1  0
 46 47  2  0
 46  2  1  0
 48 47  1  0
 48 50  1  0
 49 60  2  0
 50 55  1  0
 51 59  1  0
 51 61  1  0
 52 58  1  0
 52 54  1  0
 53 59  1  0
 54 53  1  0
 55 54  2  0
 56 57  1  0
 56 50  2  0
 57 52  2  0
 58 51  1  0
 59 49  1  0
 61 63  2  0
 62 61  1  0
 64 62  1  0
 65 74  2  0
 65 70  1  0
 66 62  1  0
 66 70  1  0
 67 66  1  0
 68 69  1  0
 68 67  1  0
 69 65  1  0
 70 71  2  0
 71 72  1  0
 73 72  2  0
 74 73  1  0
 75 49  1  0
 75 80  1  0
 75 76  1  0
 76 79  1  1
 76 77  1  0
 78 76  1  0
 80 83  1  0
 81 85  1  0
 81 80  1  0
 82 81  2  0
 85 84  1  0
 87 88  1  0
 87 85  1  0
 87 86  1  0
M  ISO  4   3 100  15 100  47 101  48 101
M  END
>  <TORSDO>  (47) 
F 19

>  <SCORE>  (47) 
-14.675

>  <name>  (47) 
46

>  <ligand_id>  (47) 
46

>  <original_smiles>  (47) 
[H]OC1([H])C([H])([H])N(C(=O)N2C([H])([H])C([H])([H])C([H])([H])C([H])(n3nc(-c4c([H])c([H])c(Oc5c([H])c([H])c(F)c([H])c5F)c([H])c4[H])c(C(=O)N([H])[H])c3N([H])[H])C2([H])[H])C([H])(C([H])(C([H])([H])[H])C([H])([H])C([H])([H])Oc2c([H])c([H])c3c(c2[H])C([H])([H])N(C(=O)C([H])(N([H])C(=O)C([H])(N([H])C([H])([H])[H])C([H])([H])[H])C(C([H])([H])[H])(C([H])([H])[H])C([H])([H])[H])C([H])(C(=O)N([H])C2([H])c4c([H])c([H])c([H])c([H])c4C([H])([H])C([H])([H])C2([H])[H])C3([H])[H])C1([H])[H]

>  <smiles>  (47) 
[H]OC1([H])C([H])([H])N(C(=O)N2C([H])([H])C([H])([H])C([H])([H])C([H])(n3nc(-c4c([H])c([H])c(Oc5c([H])c([H])c(F)c([H])c5F)c([H])c4[H])c(C(=O)N([H])[H])c3N([H])[H])C2([H])[H])C([H])(C([H])(C([H])([H])[H])C([H])([H])C([H])([H])Oc2c([H])c([H])c3c(c2[H])C([H])([H])N(C(=O)C([H])(N([H])C(=O)C([H])(N([H])C([H])([H])[H])C([H])([H])[H])C(C([H])([H])[H])(C([H])([H])[H])C([H])([H])[H])C([H])(C(=O)N([H])C2([H])c4c([H])c([H])c([H])c([H])c4C([H])([H])C([H])([H])C2([H])[H])C3([H])[H])C1([H])[H]

$$$$
47:0:0
     RDKit          3D

 87 95  0  0  1  0  0  0  0  0999 V2000
  -29.7340  -22.9850   19.0850 C   0  0  0  0  0  2  0  0  0  0  0  0
  -30.0010  -21.4260   19.0930 C   0  0  0  0  0  2  0  0  0  0  0  0
  -28.5110  -21.9750   20.8500 C   0  0  0  0  0  2  0  0  0  0  0  0
  -29.0030  -23.4440   20.3740 C   0  0  0  0  0  3  0  0  0  0  0  0
  -29.5360  -20.7910   20.4300 C   0  0  0  0  0  3  0  0  0  0  0  0
  -27.9840  -18.9350   19.4450 C   0  0  0  0  0  1  0  0  0  0  0  0
  -29.1170  -19.1660   20.4570 C   0  0  0  0  0  3  0  0  0  0  0  0
  -30.1570  -17.8610   20.3550 C   0  0  0  0  0  3  0  0  0  0  0  0
  -29.6900  -16.2920   20.6870 C   0  0  0  0  0  3  0  0  0  0  0  0
  -30.5320  -14.9170   20.3570 C   0  0  0  0  0  0  0  0  0  0  0  0
  -30.3850  -12.6020   19.3540 C   0  0  0  0  0  2  0  0  0  0  0  0
  -29.4290  -12.6410   18.1370 C   0  0  0  0  0  2  0  0  0  0  0  0
  -27.9660  -12.4440   18.5760 C   0  0  0  0  0  2  0  0  0  0  0  0
  -27.5930  -13.3250   19.7940 C   0  0  0  0  0  3  0  0  0  0  0  0
  -28.6640  -13.2700   20.9030 C   0  0  0  0  0  2  0  0  0  0  0  0
  -29.9500  -13.6570   20.3080 N   0  0  0  0  0  0  0  0  0  0  0  0
  -31.7120  -15.0140   20.0060 O   0  0  0  0  0  0  0  0  0  0  0  0
  -25.2170  -13.9030   20.5620 C   0  0  0  0  0  0  0  0  0  0  0  0
  -24.1540  -13.1250   20.9340 C   0  0  0  0  0  0  0  0  0  0  0  0
  -24.6190  -11.7750   20.8880 C   0  0  0  0  0  0  0  0  0  0  0  0
  -26.2570  -13.0250   20.3030 N   0  0  0  0  0  0  0  0  0  0  0  0
  -25.9060  -11.7400   20.5650 N   0  0  0  0  0  0  0  0  0  0  0  0
  -23.8920  -10.5110   21.0760 C   0  0  0  0  0  0  0  0  0  0  0  0
  -24.3330   -9.5330   21.9940 C   0  0  0  0  0  3  0  0  0  0  0  0
  -23.6070   -8.3360   22.1700 C   0  0  0  0  0  3  0  0  0  0  0  0
  -22.4250   -8.1060   21.4260 C   0  0  0  0  0  0  0  0  0  0  0  0
  -22.0030   -9.0730   20.4940 C   0  0  0  0  0  3  0  0  0  0  0  0
  -22.7300  -10.2610   20.3180 C   0  0  0  0  0  3  0  0  0  0  0  0
  -21.6690   -6.9630   21.5120 O   0  0  0  0  0  0  0  0  0  0  0  0
  -21.6340   -6.2070   22.6560 C   0  0  0  0  0  0  0  0  0  0  0  0
  -21.2180   -6.7460   23.8920 C   0  0  0  0  0  3  0  0  0  0  0  0
  -21.1310   -5.9170   25.0290 C   0  0  0  0  0  3  0  0  0  0  0  0
  -21.4480   -4.5490   24.9290 C   0  0  0  0  0  0  0  0  0  0  0  0
  -21.8580   -4.0090   23.6970 C   0  0  0  0  0  3  0  0  0  0  0  0
  -21.9470   -4.8350   22.5630 C   0  0  0  0  0  0  0  0  0  0  0  0
  -22.3220   -4.3050   21.3740 F   0  0  0  0  0  0  0  0  0  0  0  0
  -21.3570   -3.7500   26.0170 F   0  0  0  0  0  0  0  0  0  0  0  0
  -22.7600  -13.5990   21.2210 C   0  0  0  0  0  0  0  0  0  0  0  0
  -22.0410  -12.8990   22.0920 N   0  0  0  0  0  0  0  0  0  0  0  0
  -22.3150  -14.6260   20.7090 O   0  0  0  0  0  0  0  0  0  0  0  0
  -22.4160  -12.0690   22.5280 H   0  0  0  0  0  0  0  0  0  0  0  0
  -21.1050  -13.1970   22.3260 H   0  0  0  0  0  0  0  0  0  0  0  0
  -25.3810  -15.2750   20.3980 N   0  0  0  0  0  0  0  0  0  0  0  0
  -24.6220  -15.9340   20.5360 H   0  0  0  0  0  0  0  0  0  0  0  0
  -26.2330  -15.7160   20.0770 H   0  0  0  0  0  0  0  0  0  0  0  0
  -27.9570  -24.7390   20.2300 C   0  0  0  0  0  2  0  0  0  0  0  0
  -28.2600  -26.2540   20.2320 O   0  0  0  0  0  0  0  0  0  0  0  0
  -24.6290  -31.8850   23.2510 C   0  0  0  0  0  0  0  0  0  0  0  0
  -27.1890  -27.2100   20.1880 C   0  0  0  0  0  0  0  0  0  0  0  0
  -23.4150  -30.4960   21.6170 C   0  0  0  0  0  3  0  0  0  0  0  0
  -24.8520  -28.9300   20.1800 C   0  0  0  0  0  0  0  0  0  0  0  0
  -25.9660  -30.7700   21.4300 C   0  0  0  0  0  2  0  0  0  0  0  0
  -26.0360  -29.3820   20.7770 C   0  0  0  0  0  0  0  0  0  0  0  0
  -27.2050  -28.5390   20.7640 C   0  0  0  0  0  3  0  0  0  0  0  0
  -25.9750  -26.8520   19.5550 C   0  0  0  0  0  3  0  0  0  0  0  0
  -24.8310  -27.6750   19.5560 C   0  0  0  0  0  3  0  0  0  0  0  0
  -23.6240  -29.8230   20.2360 C   0  0  0  0  0  2  0  0  0  0  0  0
  -24.6910  -31.0710   22.1550 N   0  0  0  0  0  0  0  0  0  0  0  0
  -23.5480  -32.1690   23.7880 O   0  0  0  0  0  0  0  0  0  0  0  0
  -22.7440  -29.4850   22.5800 C   0  0  0  0  0  0  0  0  0  0  0  0
  -21.4150  -29.3120   22.4560 N   0  0  0  0  0  0  0  0  0  0  0  0
  -23.4190  -28.8590   23.4010 O   0  0  0  0  0  0  0  0  0  0  0  0
  -20.9280  -29.8680   21.7680 H   0  0  0  0  0  0  0  0  0  0  0  0
  -18.0380  -28.1060   22.9580 C   0  0  0  0  0  0  0  0  0  0  0  0
  -20.5960  -28.3750   23.2280 C   0  0  0  0  0  3  0  0  0  0  0  0
  -20.7020  -26.9410   22.6590 C   0  0  0  0  0  2  0  0  0  0  0  0
  -19.6020  -26.6120   21.6450 C   0  0  0  0  0  2  0  0  0  0  0  0
  -18.2190  -26.7550   22.2860 C   0  0  0  0  0  2  0  0  0  0  0  0
  -19.1540  -28.8730   23.3860 C   0  0  0  0  0  0  0  0  0  0  0  0
  -18.9290  -30.1360   23.9750 C   0  0  0  0  0  3  0  0  0  0  0  0
  -17.6220  -30.6330   24.1400 C   0  0  0  0  0  3  0  0  0  0  0  0
  -16.5210  -29.8620   23.7260 C   0  0  0  0  0  3  0  0  0  0  0  0
  -16.7300  -28.6010   23.1430 C   0  0  0  0  0  3  0  0  0  0  0  0
  -25.9140  -32.5150   23.8720 C   0  0  0  0  0  3  0  0  0  0  0  0
  -26.4340  -31.7360   25.1430 C   0  0  1  0  0  0  0  0  0  0  0  0
  -25.3460  -31.4970   26.2150 C   0  0  0  0  0  1  0  0  0  0  0  0
  -27.0110  -30.3580   24.7450 C   0  0  0  0  0  1  0  0  0  0  0  0
  -27.5900  -32.5230   25.8030 C   0  0  0  0  0  1  0  0  0  0  0  0
  -25.6050  -33.9110   24.2160 N   0  0  0  0  0  0  0  0  0  0  0  0
  -25.9080  -34.9700   23.4530 C   0  0  0  0  0  0  0  0  0  0  0  0
  -26.5440  -34.8750   22.4010 O   0  0  0  0  0  0  0  0  0  0  0  0
  -25.0350  -34.0580   25.0360 H   0  0  0  0  0  0  0  0  0  0  0  0
  -24.1480  -36.7500   23.1840 C   0  0  0  0  0  1  0  0  0  0  0  0
  -25.4310  -36.3560   23.9340 C   0  0  0  0  0  3  0  0  0  0  0  0
  -27.5940  -37.2630   24.6620 C   0  0  0  0  0  1  0  0  0  0  0  0
  -26.4480  -37.4170   23.7700 N   0  0  0  0  0  0  0  0  0  0  0  0
  -26.0400  -38.3350   23.9340 H   0  0  0  0  0  0  0  0  0  0  0  0
  1  2  1  0
  1  4  1  0
  2  5  1  0
  4 46  1  0
  4  3  1  0
  5  7  1  0
  5  3  1  0
  7  6  1  0
  8  7  1  0
  8  9  2  0
 10  9  1  0
 11 16  1  0
 12 13  1  0
 12 11  1  0
 14 13  1  0
 14 21  1  0
 14 15  1  0
 16 10  1  0
 16 15  1  0
 17 10  2  0
 18 19  2  0
 19 38  1  0
 20 19  1  0
 20 23  1  0
 21 18  1  0
 21 22  1  0
 22 20  2  0
 23 24  1  0
 24 25  2  0
 26 29  1  0
 26 25  1  0
 27 26  2  0
 28 27  1  0
 28 23  2  0
 29 30  1  0
 30 31  1  0
 31 32  2  0
 33 32  1  0
 33 37  1  0
 34 33  2  0
 35 30  2  0
 35 34  1  0
 36 35  1  0
 38 39  1  0
 39 42  1  0
 39 41  1  0
 40 38  2  0
 43 44  1  0
 43 18  1  0
 45 43  1  0
 46 47  1  0
 48 59  2  0
 49 47  1  0
 49 54  1  0
 50 58  1  0
 50 60  1  0
 51 57  1  0
 51 53  1  0
 52 58  1  0
 53 52  1  0
 54 53  2  0
 55 56  1  0
 55 49  2  0
 56 51  2  0
 57 50  1  0
 58 48  1  0
 60 62  2  0
 61 60  1  0
 63 61  1  0
 64 73  2  0
 64 69  1  0
 65 61  1  0
 65 69  1  0
 66 65  1  0
 67 68  1  0
 67 66  1  0
 68 64  1  0
 69 70  2  0
 70 71  1  0
 72 71  2  0
 73 72  1  0
 74 48  1  0
 74 79  1  0
 74 75  1  0
 75 78  1  1
 75 76  1  0
 77 75  1  0
 79 82  1  0
 80 84  1  0
 80 79  1  0
 81 80  2  0
 84 83  1  0
 86 87  1  0
 86 84  1  0
 86 85  1  0
M  ISO  4   9 100  10 100  46 101  47 101
M  END
>  <TORSDO>  (48) 
F 20

>  <SCORE>  (48) 
-13.810

>  <name>  (48) 
47

>  <ligand_id>  (48) 
47

>  <original_smiles>  (48) 
[H]c1c([H])c([H])c2c(c1[H])C([H])([H])C([H])([H])C([H])([H])C2([H])N([H])C(=O)C1([H])N(C(=O)C([H])(N([H])C(=O)C([H])(N([H])C([H])([H])[H])C([H])([H])[H])C(C([H])([H])[H])(C([H])([H])[H])C([H])([H])[H])C([H])([H])c2c([H])c(OC([H])([H])C3([H])C([H])([H])C([H])([H])C([H])(C([H])(C([H])([H])[H])C([H])([H])C([H])([H])C(=O)N4C([H])([H])C([H])([H])C([H])([H])C([H])(n5nc(-c6c([H])c([H])c(Oc7c([H])c([H])c(F)c([H])c7F)c([H])c6[H])c(C(=O)N([H])[H])c5N([H])[H])C4([H])[H])C3([H])[H])c([H])c([H])c2C1([H])[H]

>  <smiles>  (48) 
[H]c1c([H])c([H])c2c(c1[H])C([H])([H])C([H])([H])C([H])([H])C2([H])N([H])C(=O)C1([H])N(C(=O)C([H])(N([H])C(=O)C([H])(N([H])C([H])([H])[H])C([H])([H])[H])C(C([H])([H])[H])(C([H])([H])[H])C([H])([H])[H])C([H])([H])c2c([H])c(OC([H])([H])C3([H])C([H])([H])C([H])([H])C([H])(C([H])(C([H])([H])[H])C([H])([H])C([H])([H])C(=O)N4C([H])([H])C([H])([H])C([H])([H])C([H])(n5nc(-c6c([H])c([H])c(Oc7c([H])c([H])c(F)c([H])c7F)c([H])c6[H])c(C(=O)N([H])[H])c5N([H])[H])C4([H])[H])C3([H])[H])c([H])c([H])c2C1([H])[H]

$$$$
48:0:0
     RDKit          3D

 85 90  0  0  1  0  0  0  0  0999 V2000
  -29.4690  -19.2250   20.0990 C   0  0  0  0  0  3  0  0  0  0  0  0
  -30.4630  -19.5610   19.0180 C   0  0  0  0  0  0  0  0  0  0  0  0
  -31.0060  -20.9860   19.1420 C   0  0  0  0  0  2  0  0  0  0  0  0
  -30.5060  -21.5650   20.4840 C   0  0  0  0  0  2  0  0  0  0  0  0
  -29.0170  -21.2400   20.5170 C   0  0  0  0  0  1  0  0  0  0  0  0
  -29.3630  -17.6990   20.4920 N   0  0  0  0  0  0  0  0  0  0  0  0
  -30.8380  -18.7880   18.1330 O   0  0  0  0  0  0  0  0  0  0  0  0
  -30.1260  -16.1380   20.2710 C   0  0  0  0  0  0  0  0  0  0  0  0
  -30.3600  -13.4650   19.5740 C   0  0  0  0  0  2  0  0  0  0  0  0
  -29.5460  -12.8790   18.3710 C   0  0  0  0  0  2  0  0  0  0  0  0
  -28.1480  -12.4270   18.8100 C   0  0  0  0  0  2  0  0  0  0  0  0
  -27.5460  -13.4500   19.7910 C   0  0  0  0  0  3  0  0  0  0  0  0
  -28.5240  -13.9520   20.8970 C   0  0  0  0  0  2  0  0  0  0  0  0
  -29.6610  -14.6810   20.2630 N   0  0  0  0  0  0  0  0  0  0  0  0
  -31.3340  -15.9810   20.0250 O   0  0  0  0  0  0  0  0  0  0  0  0
  -25.1770  -13.9320   20.5460 C   0  0  0  0  0  0  0  0  0  0  0  0
  -24.1220  -13.1460   20.9000 C   0  0  0  0  0  0  0  0  0  0  0  0
  -24.6010  -11.7980   20.8720 C   0  0  0  0  0  0  0  0  0  0  0  0
  -26.2340  -13.0740   20.3050 N   0  0  0  0  0  0  0  0  0  0  0  0
  -25.8980  -11.7770   20.5610 N   0  0  0  0  0  0  0  0  0  0  0  0
  -23.8680  -10.5340   21.0510 C   0  0  0  0  0  0  0  0  0  0  0  0
  -24.2800   -9.5680   21.9890 C   0  0  0  0  0  3  0  0  0  0  0  0
  -23.5430   -8.3750   22.1660 C   0  0  0  0  0  3  0  0  0  0  0  0
  -22.3790   -8.1380   21.3930 C   0  0  0  0  0  0  0  0  0  0  0  0
  -21.9830   -9.0970   20.4430 C   0  0  0  0  0  3  0  0  0  0  0  0
  -22.7220  -10.2790   20.2700 C   0  0  0  0  0  3  0  0  0  0  0  0
  -21.6090   -7.0040   21.4800 O   0  0  0  0  0  0  0  0  0  0  0  0
  -21.5420   -6.2660   22.6340 C   0  0  0  0  0  0  0  0  0  0  0  0
  -21.0860   -6.8250   23.8490 C   0  0  0  0  0  3  0  0  0  0  0  0
  -20.9570   -6.0100   24.9930 C   0  0  0  0  0  3  0  0  0  0  0  0
  -21.2760   -4.6430   24.9250 C   0  0  0  0  0  0  0  0  0  0  0  0
  -21.7230   -4.0820   23.7160 C   0  0  0  0  0  3  0  0  0  0  0  0
  -21.8560   -4.8910   22.5740 C   0  0  0  0  0  0  0  0  0  0  0  0
  -22.2660   -4.3410   21.4080 F   0  0  0  0  0  0  0  0  0  0  0  0
  -21.1480   -3.8630   26.0250 F   0  0  0  0  0  0  0  0  0  0  0  0
  -22.7210  -13.6210   21.1410 C   0  0  0  0  0  0  0  0  0  0  0  0
  -21.9760  -12.9340   21.9990 N   0  0  0  0  0  0  0  0  0  0  0  0
  -22.2950  -14.6400   20.6010 O   0  0  0  0  0  0  0  0  0  0  0  0
  -22.3390  -12.1170   22.4680 H   0  0  0  0  0  0  0  0  0  0  0  0
  -21.0320  -13.2360   22.1910 H   0  0  0  0  0  0  0  0  0  0  0  0
  -25.3170  -15.3070   20.3840 N   0  0  0  0  0  0  0  0  0  0  0  0
  -24.5320  -15.9310   20.5210 H   0  0  0  0  0  0  0  0  0  0  0  0
  -26.1630  -15.7890   20.1010 H   0  0  0  0  0  0  0  0  0  0  0  0
  -28.3590  -23.1840   19.9070 C   0  0  0  0  0 15  0  0  0  0  0  0
  -28.2130  -25.0880   20.2910 O   0  0  0  0  0  1  0  0  0  0  0  0
  -24.6650  -31.8020   23.1480 C   0  0  0  0  0  0  0  0  0  0  0  0
  -27.2560  -26.4360   20.2260 C   0  0  0  0  0  0  0  0  0  0  0  0
  -23.5110  -30.3630   21.5270 C   0  0  0  0  0  3  0  0  0  0  0  0
  -24.9830  -28.6430   20.1650 C   0  0  0  0  0  0  0  0  0  0  0  0
  -26.1010  -30.4390   21.4520 C   0  0  0  0  0  2  0  0  0  0  0  0
  -26.1820  -28.9580   20.8150 C   0  0  0  0  0  0  0  0  0  0  0  0
  -27.2830  -27.8890   20.8090 C   0  0  0  0  0  3  0  0  0  0  0  0
  -26.0190  -26.4160   19.5230 C   0  0  0  0  0  3  0  0  0  0  0  0
  -24.9640  -27.3980   19.5010 C   0  0  0  0  0  3  0  0  0  0  0  0
  -23.7850  -29.6240   20.1810 C   0  0  0  0  0  2  0  0  0  0  0  0
  -24.7870  -30.9150   22.0960 N   0  0  0  0  0  0  0  0  0  0  0  0
  -23.5680  -32.1180   23.6360 O   0  0  0  0  0  0  0  0  0  0  0  0
  -22.7590  -29.4350   22.5170 C   0  0  0  0  0  0  0  0  0  0  0  0
  -21.4200  -29.2990   22.4000 N   0  0  0  0  0  0  0  0  0  0  0  0
  -23.3960  -28.8200   23.3780 O   0  0  0  0  0  0  0  0  0  0  0  0
  -20.9470  -29.8420   21.6910 H   0  0  0  0  0  0  0  0  0  0  0  0
  -18.0240  -28.0980   22.9460 C   0  0  0  0  0  0  0  0  0  0  0  0
  -20.5880  -28.3780   23.1850 C   0  0  0  0  0  3  0  0  0  0  0  0
  -20.6860  -26.9380   22.6280 C   0  0  0  0  0  2  0  0  0  0  0  0
  -19.5800  -26.6050   21.6220 C   0  0  0  0  0  2  0  0  0  0  0  0
  -18.2010  -26.7480   22.2710 C   0  0  0  0  0  2  0  0  0  0  0  0
  -19.1430  -28.8710   23.3610 C   0  0  0  0  0  0  0  0  0  0  0  0
  -18.9190  -30.1270   23.9640 C   0  0  0  0  0  3  0  0  0  0  0  0
  -17.6130  -30.6150   24.1500 C   0  0  0  0  0  3  0  0  0  0  0  0
  -16.5090  -29.8450   23.7450 C   0  0  0  0  0  3  0  0  0  0  0  0
  -16.7150  -28.5870   23.1490 C   0  0  0  0  0  3  0  0  0  0  0  0
  -25.9100  -32.4880   23.8020 C   0  0  0  0  0  3  0  0  0  0  0  0
  -25.5590  -33.8870   24.1390 N   0  0  0  0  0  0  0  0  0  0  0  0
  -25.8880  -34.9690   23.4150 C   0  0  0  0  0  0  0  0  0  0  0  0
  -26.5670  -34.8840   22.3860 O   0  0  0  0  0  0  0  0  0  0  0  0
  -24.9510  -34.0200   24.9320 H   0  0  0  0  0  0  0  0  0  0  0  0
  -24.1580  -36.7800   23.1030 C   0  0  0  0  0  1  0  0  0  0  0  0
  -25.4060  -36.3520   23.8980 C   0  0  0  0  0  3  0  0  0  0  0  0
  -27.5190  -37.2640   24.7610 C   0  0  0  0  0  1  0  0  0  0  0  0
  -26.4430  -37.4040   23.7830 N   0  0  0  0  0  0  0  0  0  0  0  0
  -26.0430  -38.3310   23.8700 H   0  0  0  0  0  0  0  0  0  0  0  0
  -26.4060  -31.7450   25.1050 C   0  0  1  0  0  0  0  0  0  0  0  0
  -25.2890  -31.5210   26.1550 C   0  0  0  0  0  1  0  0  0  0  0  0
  -27.0100  -30.3630   24.7690 C   0  0  0  0  0  1  0  0  0  0  0  0
  -27.5380  -32.5600   25.7740 C   0  0  0  0  0  1  0  0  0  0  0  0
  1  6  2  0
  2  3  1  0
  2  1  1  0
  3  4  1  0
  4  5  1  0
  7  2  2  0
  8  6  1  0
  9 14  1  0
 10 11  1  0
 10  9  1  0
 12 11  1  0
 12 19  1  0
 12 13  1  0
 14  8  1  0
 14 13  1  0
 15  8  2  0
 16 17  2  0
 17 36  1  0
 18 17  1  0
 18 21  1  0
 19 16  1  0
 19 20  1  0
 20 18  2  0
 21 22  1  0
 22 23  2  0
 24 27  1  0
 24 23  1  0
 25 24  2  0
 26 25  1  0
 26 21  2  0
 27 28  1  0
 28 29  1  0
 29 30  2  0
 31 30  1  0
 31 35  1  0
 32 31  2  0
 33 28  2  0
 33 32  1  0
 34 33  1  0
 36 37  1  0
 37 40  1  0
 37 39  1  0
 38 36  2  0
 41 42  1  0
 41 16  1  0
 43 41  1  0
 46 57  2  0
 47 45  1  0
 47 52  1  0
 48 56  1  0
 48 58  1  0
 49 55  1  0
 49 51  1  0
 50 56  1  0
 51 50  1  0
 52 51  2  0
 53 47  2  0
 54 53  1  0
 54 49  2  0
 55 48  1  0
 56 46  1  0
 58 60  2  0
 59 58  1  0
 61 59  1  0
 62 71  2  0
 62 67  1  0
 63 59  1  0
 63 67  1  0
 64 63  1  0
 65 66  1  0
 65 64  1  0
 66 62  1  0
 67 68  2  0
 68 69  1  0
 70 69  2  0
 71 70  1  0
 72 46  1  0
 72 73  1  0
 72 82  1  0
 73 76  1  0
 74 78  1  0
 74 73  1  0
 75 74  2  0
 78 77  1  0
 80 81  1  0
 80 78  1  0
 80 79  1  0
 82 85  1  1
 82 83  1  0
 84 82  1  0
M  ISO  4   6 100   8 100  44 101  45 101
M  END
>  <TORSDO>  (49) 
F 17

>  <SCORE>  (49) 
-16.608

>  <name>  (49) 
48

>  <ligand_id>  (49) 
48

>  <original_smiles>  (49) 
[H]c1c([H])c([H])c2c(c1[H])C([H])([H])C([H])([H])C([H])([H])C2([H])N([H])C(=O)C1([H])N(C(=O)C([H])(N([H])C(=O)C([H])(N([H])C([H])([H])[H])C([H])([H])[H])C(C([H])([H])[H])(C([H])([H])[H])C([H])([H])[H])C([H])([H])c2c([H])c(OC([H])([H])C3([H])C(=NC(=O)N4C([H])([H])C([H])([H])C([H])([H])C([H])(n5nc(-c6c([H])c([H])c(Oc7c([H])c([H])c(F)c([H])c7F)c([H])c6[H])c(C(=O)N([H])[H])c5N([H])[H])C4([H])[H])C(=O)C([H])([H])C3([H])[H])c([H])c([H])c2C1([H])[H]

>  <smiles>  (49) 
[H]c1c([H])c([H])c2c(c1[H])C([H])([H])C([H])([H])C([H])([H])C2([H])N([H])C(=O)C1([H])N(C(=O)C([H])(N([H])C(=O)C([H])(N([H])C([H])([H])[H])C([H])([H])[H])C(C([H])([H])[H])(C([H])([H])[H])C([H])([H])[H])C([H])([H])c2c([H])c(OC([H])([H])C3([H])C(=NC(=O)N4C([H])([H])C([H])([H])C([H])([H])C([H])(n5nc(-c6c([H])c([H])c(Oc7c([H])c([H])c(F)c([H])c7F)c([H])c6[H])c(C(=O)N([H])[H])c5N([H])[H])C4([H])[H])C(=O)C([H])([H])C3([H])[H])c([H])c([H])c2C1([H])[H]

$$$$
49:0:0
     RDKit          3D

 88 96  0  0  1  0  0  0  0  0999 V2000
  -30.8210  -21.2100   20.2110 C   0  0  0  0  0  1  0  0  0  0  0  0
  -29.3740  -20.8000   20.5140 C   0  0  0  0  0  3  0  0  0  0  0  0
  -28.3540  -16.9190   19.0230 C   0  0  0  0  0  2  0  0  0  0  0  0
  -29.2620  -19.0750   18.3990 C   0  0  0  0  0  2  0  0  0  0  0  0
  -29.2950  -17.1610   20.2430 C   0  0  0  0  0  3  0  0  0  0  0  0
  -29.1570  -19.0370   19.9200 C   0  0  0  0  0  3  0  0  0  0  0  0
  -28.7240  -17.8060   17.9000 N   0  0  0  0  0  4  0  0  0  0  0  0
  -27.9200  -17.9790   17.3160 H   0  0  0  0  0  0  0  0  0  0  0  0
  -29.4280  -17.3690   17.3270 H   0  0  0  0  0  0  0  0  0  0  0  0
  -30.2490  -15.5940   20.1190 C   0  0  0  0  0  0  0  0  0  0  0  0
  -30.3350  -13.0860   19.2680 C   0  0  0  0  0  2  0  0  0  0  0  0
  -29.3880  -12.7990   18.0670 C   0  0  0  0  0  2  0  0  0  0  0  0
  -27.9680  -12.4460   18.5430 C   0  0  0  0  0  2  0  0  0  0  0  0
  -27.5020  -13.3960   19.6710 C   0  0  0  0  0  3  0  0  0  0  0  0
  -28.5790  -13.6340   20.7560 C   0  0  0  0  0  2  0  0  0  0  0  0
  -29.7730  -14.2210   20.1070 N   0  0  0  0  0  0  0  0  0  0  0  0
  -31.4680  -15.6000   19.8740 O   0  0  0  0  0  0  0  0  0  0  0  0
  -25.1560  -13.9260   20.4980 C   0  0  0  0  0  0  0  0  0  0  0  0
  -24.1090  -13.1380   20.8760 C   0  0  0  0  0  0  0  0  0  0  0  0
  -24.5880  -11.7940   20.8220 C   0  0  0  0  0  0  0  0  0  0  0  0
  -26.2000  -13.0600   20.2200 N   0  0  0  0  0  0  0  0  0  0  0  0
  -25.8730  -11.7710   20.4830 N   0  0  0  0  0  0  0  0  0  0  0  0
  -23.8770  -10.5250   21.0170 C   0  0  0  0  0  0  0  0  0  0  0  0
  -24.3390   -9.5550   21.9350 C   0  0  0  0  0  3  0  0  0  0  0  0
  -23.6250   -8.3520   22.1210 C   0  0  0  0  0  3  0  0  0  0  0  0
  -22.4380   -8.1100   21.3890 C   0  0  0  0  0  0  0  0  0  0  0  0
  -21.9970   -9.0680   20.4600 C   0  0  0  0  0  3  0  0  0  0  0  0
  -22.7100  -10.2640   20.2720 C   0  0  0  0  0  3  0  0  0  0  0  0
  -21.6950   -6.9600   21.4860 O   0  0  0  0  0  0  0  0  0  0  0  0
  -21.6810   -6.2060   22.6330 C   0  0  0  0  0  0  0  0  0  0  0  0
  -21.2790   -6.7470   23.8740 C   0  0  0  0  0  3  0  0  0  0  0  0
  -21.2140   -5.9200   25.0120 C   0  0  0  0  0  3  0  0  0  0  0  0
  -21.5380   -4.5540   24.9120 C   0  0  0  0  0  0  0  0  0  0  0  0
  -21.9320   -4.0130   23.6750 C   0  0  0  0  0  3  0  0  0  0  0  0
  -22.0020   -4.8380   22.5380 C   0  0  0  0  0  0  0  0  0  0  0  0
  -22.3630   -4.3080   21.3450 F   0  0  0  0  0  0  0  0  0  0  0  0
  -21.4670   -3.7560   26.0030 F   0  0  0  0  0  0  0  0  0  0  0  0
  -22.7130  -13.6010   21.1750 C   0  0  0  0  0  0  0  0  0  0  0  0
  -22.0100  -12.8950   22.0530 N   0  0  0  0  0  0  0  0  0  0  0  0
  -22.2570  -14.6250   20.6670 O   0  0  0  0  0  0  0  0  0  0  0  0
  -22.3960  -12.0710   22.4880 H   0  0  0  0  0  0  0  0  0  0  0  0
  -21.0720  -13.1840   22.2940 H   0  0  0  0  0  0  0  0  0  0  0  0
  -25.2990  -15.3020   20.3410 N   0  0  0  0  0  0  0  0  0  0  0  0
  -24.5310  -15.9400   20.5170 H   0  0  0  0  0  0  0  0  0  0  0  0
  -26.1590  -15.7710   20.1080 H   0  0  0  0  0  0  0  0  0  0  0  0
  -28.4110  -22.4180   20.5460 C   0  0  0  0  0  2  0  0  0  0  0  0
  -28.4530  -24.1940   19.9520 C   0  0  0  0  0  2  0  0  0  0  0  0
  -28.2490  -25.8140   20.4480 O   0  0  0  0  0  0  0  0  0  0  0  0
  -24.6450  -31.9180   23.2300 C   0  0  0  0  0  0  0  0  0  0  0  0
  -27.2360  -26.9360   20.2840 C   0  0  0  0  0  0  0  0  0  0  0  0
  -23.4680  -30.5000   21.5960 C   0  0  0  0  0  3  0  0  0  0  0  0
  -24.9320  -28.8670   20.1960 C   0  0  0  0  0  0  0  0  0  0  0  0
  -26.0380  -30.6890   21.4760 C   0  0  0  0  0  2  0  0  0  0  0  0
  -26.1140  -29.2640   20.8330 C   0  0  0  0  0  0  0  0  0  0  0  0
  -27.2480  -28.3180   20.8540 C   0  0  0  0  0  3  0  0  0  0  0  0
  -26.0270  -26.7160   19.5810 C   0  0  0  0  0  3  0  0  0  0  0  0
  -24.9200  -27.6160   19.5480 C   0  0  0  0  0  3  0  0  0  0  0  0
  -23.7120  -29.7940   20.2300 C   0  0  0  0  0  2  0  0  0  0  0  0
  -24.7400  -31.0670   22.1540 N   0  0  0  0  0  0  0  0  0  0  0  0
  -23.5500  -32.2140   23.7370 O   0  0  0  0  0  0  0  0  0  0  0  0
  -22.7600  -29.5220   22.5710 C   0  0  0  0  0  0  0  0  0  0  0  0
  -21.4300  -29.3530   22.4340 N   0  0  0  0  0  0  0  0  0  0  0  0
  -23.4150  -28.9140   23.4200 O   0  0  0  0  0  0  0  0  0  0  0  0
  -20.9540  -29.8960   21.7270 H   0  0  0  0  0  0  0  0  0  0  0  0
  -18.0520  -28.1100   22.9070 C   0  0  0  0  0  0  0  0  0  0  0  0
  -20.6040  -28.4200   23.2080 C   0  0  0  0  0  3  0  0  0  0  0  0
  -20.7350  -26.9790   22.6620 C   0  0  0  0  0  2  0  0  0  0  0  0
  -19.6560  -26.6220   21.6340 C   0  0  0  0  0  2  0  0  0  0  0  0
  -18.2610  -26.7550   22.2520 C   0  0  0  0  0  2  0  0  0  0  0  0
  -19.1520  -28.8990   23.3400 C   0  0  0  0  0  0  0  0  0  0  0  0
  -18.9020  -30.1630   23.9150 C   0  0  0  0  0  3  0  0  0  0  0  0
  -17.5850  -30.6420   24.0590 C   0  0  0  0  0  3  0  0  0  0  0  0
  -16.5010  -29.8530   23.6390 C   0  0  0  0  0  3  0  0  0  0  0  0
  -16.7340  -28.5880   23.0690 C   0  0  0  0  0  3  0  0  0  0  0  0
  -25.9060  -32.5730   23.8690 C   0  0  0  0  0  3  0  0  0  0  0  0
  -26.4020  -31.8210   25.1660 C   0  0  1  0  0  0  0  0  0  0  0  0
  -25.2940  -31.6000   26.2230 C   0  0  0  0  0  1  0  0  0  0  0  0
  -26.9910  -30.4360   24.8130 C   0  0  0  0  0  1  0  0  0  0  0  0
  -27.5430  -32.6230   25.8340 C   0  0  0  0  0  1  0  0  0  0  0  0
  -25.5800  -33.9730   24.1960 N   0  0  0  0  0  0  0  0  0  0  0  0
  -25.9080  -35.0360   23.4470 C   0  0  0  0  0  0  0  0  0  0  0  0
  -26.5780  -34.9390   22.4170 O   0  0  0  0  0  0  0  0  0  0  0  0
  -24.9830  -34.1210   24.9970 H   0  0  0  0  0  0  0  0  0  0  0  0
  -24.1680  -36.8290   23.1200 C   0  0  0  0  0  1  0  0  0  0  0  0
  -25.4210  -36.4240   23.9150 C   0  0  0  0  0  3  0  0  0  0  0  0
  -27.5570  -37.3250   24.7250 C   0  0  0  0  0  1  0  0  0  0  0  0
  -26.4470  -37.4840   23.7910 N   0  0  0  0  0  0  0  0  0  0  0  0
  -26.0370  -38.4020   23.9380 H   0  0  0  0  0  0  0  0  0  0  0  0
  2  1  1  0
  2 46  1  0
  3  5  1  0
  4  6  1  0
  5 10  1  0
  6  5  1  0
  6  2  1  0
  7  4  1  0
  7  3  1  0
  8  7  1  0
  9  7  1  0
 11 16  1  0
 12 13  1  0
 12 11  1  0
 14 13  1  0
 14 21  1  0
 14 15  1  0
 16 10  1  0
 16 15  1  0
 17 10  2  0
 18 19  2  0
 19 38  1  0
 20 19  1  0
 20 23  1  0
 21 22  1  0
 21 18  1  0
 22 20  2  0
 23 24  1  0
 24 25  2  0
 26 29  1  0
 26 25  1  0
 27 26  2  0
 28 27  1  0
 28 23  2  0
 29 30  1  0
 30 31  1  0
 31 32  2  0
 33 32  1  0
 33 37  1  0
 34 33  2  0
 35 30  2  0
 35 34  1  0
 36 35  1  0
 38 39  1  0
 39 42  1  0
 39 41  1  0
 40 38  2  0
 43 18  1  0
 43 44  1  0
 45 43  1  0
 47 48  1  0
 47 46  1  0
 49 60  2  0
 50 48  1  0
 50 55  1  0
 51 59  1  0
 51 61  1  0
 52 58  1  0
 52 54  1  0
 53 59  1  0
 54 55  2  0
 54 53  1  0
 56 50  2  0
 57 56  1  0
 57 52  2  0
 58 51  1  0
 59 49  1  0
 61 63  2  0
 62 61  1  0
 64 62  1  0
 65 74  2  0
 65 70  1  0
 66 62  1  0
 66 70  1  0
 67 66  1  0
 68 69  1  0
 68 67  1  0
 69 65  1  0
 70 71  2  0
 71 72  1  0
 73 72  2  0
 74 73  1  0
 75 49  1  0
 75 80  1  0
 75 76  1  0
 76 79  1  1
 76 77  1  0
 78 76  1  0
 80 83  1  0
 81 85  1  0
 81 80  1  0
 82 81  2  0
 85 84  1  0
 87 85  1  0
 87 88  1  0
 87 86  1  0
M  ISO  4   5 100  10 100  47 101  48 101
M  END
>  <TORSDO>  (50) 
F 19

>  <SCORE>  (50) 
-16.952

>  <name>  (50) 
49

>  <ligand_id>  (50) 
49

>  <original_smiles>  (50) 
[H]c1c([H])c([H])c2c(c1[H])C([H])([H])C([H])([H])C([H])([H])C2([H])N([H])C(=O)C1([H])N(C(=O)C([H])(N([H])C(=O)C([H])(N([H])C([H])([H])[H])C([H])([H])[H])C(C([H])([H])[H])(C([H])([H])[H])C([H])([H])[H])C([H])([H])c2c([H])c(OC([H])([H])C([H])([H])C([H])(C([H])([H])[H])C3([H])C([H])(C(=O)N4C([H])([H])C([H])([H])C([H])([H])C([H])(n5nc(-c6c([H])c([H])c(Oc7c([H])c([H])c(F)c([H])c7F)c([H])c6[H])c(C(=O)N([H])[H])c5N([H])[H])C4([H])[H])C([H])([H])[N+]([H])([H])C3([H])[H])c([H])c([H])c2C1([H])[H]

>  <smiles>  (50) 
[H]c1c([H])c([H])c2c(c1[H])C([H])([H])C([H])([H])C([H])([H])C2([H])N([H])C(=O)C1([H])N(C(=O)C([H])(N([H])C(=O)C([H])(N([H])C([H])([H])[H])C([H])([H])[H])C(C([H])([H])[H])(C([H])([H])[H])C([H])([H])[H])C([H])([H])c2c([H])c(OC([H])([H])C([H])([H])C([H])(C([H])([H])[H])C3([H])C([H])(C(=O)N4C([H])([H])C([H])([H])C([H])([H])C([H])(n5nc(-c6c([H])c([H])c(Oc7c([H])c([H])c(F)c([H])c7F)c([H])c6[H])c(C(=O)N([H])[H])c5N([H])[H])C4([H])[H])C([H])([H])[N+]([H])([H])C3([H])[H])c([H])c([H])c2C1([H])[H]

$$$$
50:0:0
     RDKit          3D

 87 95  0  0  1  0  0  0  0  0999 V2000
  -29.0370  -19.9040   19.2460 C   0  0  0  0  0  3  0  0  0  0  0  0
  -29.9270  -19.9120   21.4460 C   0  0  0  0  0  3  0  0  0  0  0  0
  -28.8020  -21.3310   19.3190 C   0  0  0  0  0  3  0  0  0  0  0  0
  -29.6870  -21.3340   21.5210 C   0  0  0  0  0  3  0  0  0  0  0  0
  -29.6510  -19.1300   20.2870 C   0  0  0  0  0  0  0  0  0  0  0  0
  -29.1530  -22.1250   20.4510 C   0  0  0  0  0  0  0  0  0  0  0  0
  -30.2360  -17.6380   20.0310 C   0  0  0  0  0  3  0  0  0  0  0  0
  -29.8160  -16.2280   20.7530 C   0  0  0  0  0  3  0  0  0  0  0  0
  -30.5980  -14.8510   20.3660 C   0  0  0  0  0  0  0  0  0  0  0  0
  -30.4390  -12.5560   19.3510 C   0  0  0  0  0  2  0  0  0  0  0  0
  -29.5110  -12.6290   18.1170 C   0  0  0  0  0  2  0  0  0  0  0  0
  -28.0370  -12.4450   18.5290 C   0  0  0  0  0  2  0  0  0  0  0  0
  -27.6520  -13.3260   19.7480 C   0  0  0  0  0  3  0  0  0  0  0  0
  -28.7010  -13.2430   20.8770 C   0  0  0  0  0  2  0  0  0  0  0  0
  -30.0010  -13.6060   20.3040 N   0  0  0  0  0  0  0  0  0  0  0  0
  -31.7750  -14.9420   19.9990 O   0  0  0  0  0  0  0  0  0  0  0  0
  -25.2610  -13.9130   20.4580 C   0  0  0  0  0  0  0  0  0  0  0  0
  -24.1940  -13.1380   20.8260 C   0  0  0  0  0  0  0  0  0  0  0  0
  -24.6630  -11.7880   20.8100 C   0  0  0  0  0  0  0  0  0  0  0  0
  -26.3080  -13.0340   20.2330 N   0  0  0  0  0  0  0  0  0  0  0  0
  -25.9560  -11.7520   20.5100 N   0  0  0  0  0  0  0  0  0  0  0  0
  -23.9370  -10.5250   21.0080 C   0  0  0  0  0  0  0  0  0  0  0  0
  -24.3700   -9.5640   21.9470 C   0  0  0  0  0  3  0  0  0  0  0  0
  -23.6450   -8.3670   22.1320 C   0  0  0  0  0  3  0  0  0  0  0  0
  -22.4720   -8.1240   21.3770 C   0  0  0  0  0  0  0  0  0  0  0  0
  -22.0600   -9.0740   20.4270 C   0  0  0  0  0  3  0  0  0  0  0  0
  -22.7850  -10.2630   20.2410 C   0  0  0  0  0  3  0  0  0  0  0  0
  -21.7210   -6.9780   21.4690 O   0  0  0  0  0  0  0  0  0  0  0  0
  -21.6730   -6.2380   22.6230 C   0  0  0  0  0  0  0  0  0  0  0  0
  -21.2500   -6.7980   23.8480 C   0  0  0  0  0  3  0  0  0  0  0  0
  -21.1480   -5.9870   24.9960 C   0  0  0  0  0  3  0  0  0  0  0  0
  -21.4600   -4.6160   24.9200 C   0  0  0  0  0  0  0  0  0  0  0  0
  -21.8750   -4.0550   23.6980 C   0  0  0  0  0  3  0  0  0  0  0  0
  -21.9770   -4.8630   22.5540 C   0  0  0  0  0  0  0  0  0  0  0  0
  -22.3580   -4.3140   21.3750 F   0  0  0  0  0  0  0  0  0  0  0  0
  -21.3560   -3.8340   26.0200 F   0  0  0  0  0  0  0  0  0  0  0  0
  -22.7940  -13.6140   21.0820 C   0  0  0  0  0  0  0  0  0  0  0  0
  -22.0620  -12.9270   21.9510 N   0  0  0  0  0  0  0  0  0  0  0  0
  -22.3560  -14.6310   20.5460 O   0  0  0  0  0  0  0  0  0  0  0  0
  -22.4270  -12.1040   22.4090 H   0  0  0  0  0  0  0  0  0  0  0  0
  -21.1220  -13.2300   22.1620 H   0  0  0  0  0  0  0  0  0  0  0  0
  -25.4220  -15.2830   20.2700 N   0  0  0  0  0  0  0  0  0  0  0  0
  -24.6550  -15.9380   20.3770 H   0  0  0  0  0  0  0  0  0  0  0  0
  -26.2760  -15.7240   19.9530 H   0  0  0  0  0  0  0  0  0  0  0  0
  -29.2140  -23.7490   20.4940 C   0  0  0  0  0  3  0  0  0  0  0  0
  -28.0410  -24.8240   20.1190 C   0  0  0  0  0  3  0  0  0  0  0  0
  -28.2790  -26.3280   20.2340 O   0  0  0  0  0  0  0  0  0  0  0  0
  -24.6130  -31.8760   23.2340 C   0  0  0  0  0  0  0  0  0  0  0  0
  -27.1920  -27.2450   20.1720 C   0  0  0  0  0  0  0  0  0  0  0  0
  -23.4030  -30.4790   21.6010 C   0  0  0  0  0  3  0  0  0  0  0  0
  -24.8450  -28.9240   20.1610 C   0  0  0  0  0  0  0  0  0  0  0  0
  -25.9490  -30.7760   21.4100 C   0  0  0  0  0  2  0  0  0  0  0  0
  -26.0230  -29.3930   20.7560 C   0  0  0  0  0  0  0  0  0  0  0  0
  -27.1980  -28.5670   20.7470 C   0  0  0  0  0  3  0  0  0  0  0  0
  -25.9900  -26.8550   19.5420 C   0  0  0  0  0  3  0  0  0  0  0  0
  -24.8360  -27.6660   19.5400 C   0  0  0  0  0  3  0  0  0  0  0  0
  -23.6130  -29.8070   20.2180 C   0  0  0  0  0  2  0  0  0  0  0  0
  -24.6750  -31.0640   22.1370 N   0  0  0  0  0  0  0  0  0  0  0  0
  -23.5310  -32.1530   23.7740 O   0  0  0  0  0  0  0  0  0  0  0  0
  -22.7410  -29.4640   22.5650 C   0  0  0  0  0  0  0  0  0  0  0  0
  -21.4130  -29.2860   22.4440 N   0  0  0  0  0  0  0  0  0  0  0  0
  -23.4210  -28.8410   23.3830 O   0  0  0  0  0  0  0  0  0  0  0  0
  -20.9220  -29.8400   21.7560 H   0  0  0  0  0  0  0  0  0  0  0  0
  -18.0400  -28.0710   22.9500 C   0  0  0  0  0  0  0  0  0  0  0  0
  -20.5980  -28.3470   23.2170 C   0  0  0  0  0  3  0  0  0  0  0  0
  -20.7080  -26.9140   22.6470 C   0  0  0  0  0  2  0  0  0  0  0  0
  -19.6070  -26.5820   21.6340 C   0  0  0  0  0  2  0  0  0  0  0  0
  -18.2240  -26.7210   22.2770 C   0  0  0  0  0  2  0  0  0  0  0  0
  -19.1550  -28.8410   23.3770 C   0  0  0  0  0  0  0  0  0  0  0  0
  -18.9280  -30.1040   23.9670 C   0  0  0  0  0  3  0  0  0  0  0  0
  -17.6200  -30.5960   24.1330 C   0  0  0  0  0  3  0  0  0  0  0  0
  -16.5200  -29.8230   23.7210 C   0  0  0  0  0  3  0  0  0  0  0  0
  -16.7310  -28.5620   23.1360 C   0  0  0  0  0  3  0  0  0  0  0  0
  -25.8970  -32.5110   23.8510 C   0  0  0  0  0  3  0  0  0  0  0  0
  -26.4160  -31.7400   25.1270 C   0  0  1  0  0  0  0  0  0  0  0  0
  -25.3280  -31.5030   26.1990 C   0  0  0  0  0  1  0  0  0  0  0  0
  -26.9980  -30.3620   24.7350 C   0  0  0  0  0  1  0  0  0  0  0  0
  -27.5710  -32.5340   25.7830 C   0  0  0  0  0  1  0  0  0  0  0  0
  -25.5850  -33.9080   24.1880 N   0  0  0  0  0  0  0  0  0  0  0  0
  -25.9070  -34.9660   23.4310 C   0  0  0  0  0  0  0  0  0  0  0  0
  -26.5660  -34.8680   22.3930 O   0  0  0  0  0  0  0  0  0  0  0  0
  -24.9950  -34.0560   24.9940 H   0  0  0  0  0  0  0  0  0  0  0  0
  -24.1700  -36.7570   23.1060 C   0  0  0  0  0  1  0  0  0  0  0  0
  -25.4220  -36.3520   23.9000 C   0  0  0  0  0  3  0  0  0  0  0  0
  -27.5660  -37.2370   24.7040 C   0  0  0  0  0  1  0  0  0  0  0  0
  -26.4500  -37.4090   23.7790 N   0  0  0  0  0  0  0  0  0  0  0  0
  -26.0430  -38.3270   23.9410 H   0  0  0  0  0  0  0  0  0  0  0  0
  1  3  2  0
  1  5  1  0
  2  4  1  0
  3  6  1  0
  5  2  2  0
  6 45  1  0
  6  4  2  0
  7  5  1  0
  7  8  2  0
  9  8  1  0
 10 15  1  0
 11 12  1  0
 11 10  1  0
 13 12  1  0
 13 20  1  0
 13 14  1  0
 15  9  1  0
 15 14  1  0
 16  9  2  0
 17 18  2  0
 18 37  1  0
 19 18  1  0
 19 22  1  0
 20 17  1  0
 20 21  1  0
 21 19  2  0
 22 23  1  0
 23 24  2  0
 25 28  1  0
 25 24  1  0
 26 25  2  0
 27 26  1  0
 27 22  2  0
 28 29  1  0
 29 30  1  0
 30 31  2  0
 32 31  1  0
 32 36  1  0
 33 32  2  0
 34 29  2  0
 34 33  1  0
 35 34  1  0
 37 38  1  0
 38 41  1  0
 38 40  1  0
 39 37  2  0
 42 43  1  0
 42 17  1  0
 44 42  1  0
 46 47  1  0
 46 45  2  0
 48 59  2  0
 49 47  1  0
 49 54  1  0
 50 58  1  0
 50 60  1  0
 51 57  1  0
 51 53  1  0
 52 58  1  0
 53 52  1  0
 54 53  2  0
 55 49  2  0
 56 55  1  0
 56 51  2  0
 57 50  1  0
 58 48  1  0
 60 62  2  0
 61 60  1  0
 63 61  1  0
 64 73  2  0
 64 69  1  0
 65 61  1  0
 65 69  1  0
 66 65  1  0
 67 68  1  0
 67 66  1  0
 68 64  1  0
 69 70  2  0
 70 71  1  0
 72 71  2  0
 73 72  1  0
 74 48  1  0
 74 79  1  0
 74 75  1  0
 75 78  1  1
 75 76  1  0
 77 75  1  0
 79 82  1  0
 80 84  1  0
 80 79  1  0
 81 80  2  0
 84 83  1  0
 86 84  1  0
 86 87  1  0
 86 85  1  0
M  ISO  4   8 100   9 100  46 101  47 101
M  END
>  <TORSDO>  (51) 
F 20

>  <SCORE>  (51) 
-13.670

>  <name>  (51) 
50

>  <ligand_id>  (51) 
50

>  <original_smiles>  (51) 
[H]c1c([H])c([H])c2c(c1[H])C([H])([H])C([H])([H])C([H])([H])C2([H])N([H])C(=O)C1([H])N(C(=O)C([H])(N([H])C(=O)C([H])(N([H])C([H])([H])[H])C([H])([H])[H])C(C([H])([H])[H])(C([H])([H])[H])C([H])([H])[H])C([H])([H])c2c([H])c(OC([H])([H])C([H])([H])c3c([H])c([H])c(C([H])([H])C([H])([H])C(=O)N4C([H])([H])C([H])([H])C([H])([H])C([H])(n5nc(-c6c([H])c([H])c(Oc7c([H])c([H])c(F)c([H])c7F)c([H])c6[H])c(C(=O)N([H])[H])c5N([H])[H])C4([H])[H])c([H])c3[H])c([H])c([H])c2C1([H])[H]

>  <smiles>  (51) 
[H]c1c([H])c([H])c2c(c1[H])C([H])([H])C([H])([H])C([H])([H])C2([H])N([H])C(=O)C1([H])N(C(=O)C([H])(N([H])C(=O)C([H])(N([H])C([H])([H])[H])C([H])([H])[H])C(C([H])([H])[H])(C([H])([H])[H])C([H])([H])[H])C([H])([H])c2c([H])c(OC([H])([H])C([H])([H])c3c([H])c([H])c(C([H])([H])C([H])([H])C(=O)N4C([H])([H])C([H])([H])C([H])([H])C([H])(n5nc(-c6c([H])c([H])c(Oc7c([H])c([H])c(F)c([H])c7F)c([H])c6[H])c(C(=O)N([H])[H])c5N([H])[H])C4([H])[H])c([H])c3[H])c([H])c([H])c2C1([H])[H]

$$$$
51:0:0
     RDKit          3D

 91 99  0  0  1  0  0  0  0  0999 V2000
  -29.2920  -23.7610   19.1540 C   0  0  0  0  0  2  0  0  0  0  0  0
  -29.8470  -22.2790   19.5790 C   0  0  0  0  0  2  0  0  0  0  0  0
  -27.9680  -23.4720   21.1800 C   0  0  0  0  0  2  0  0  0  0  0  0
  -28.1270  -24.5040   19.9690 C   0  0  0  0  0  3  0  0  0  0  0  0
  -28.8070  -21.1480   19.9890 C   0  0  0  0  0  3  0  0  0  0  0  0
  -27.8420  -21.9420   20.8790 N   0  0  0  0  0  4  0  0  0  0  0  0
  -26.9270  -21.7770   20.4950 H   0  0  0  0  0  0  0  0  0  0  0  0
  -27.8390  -21.4350   21.7510 H   0  0  0  0  0  0  0  0  0  0  0  0
  -28.2350  -26.0770   20.1890 O   0  0  0  0  0  0  0  0  0  0  0  0
  -24.6190  -31.8160   23.1920 C   0  0  0  0  0  0  0  0  0  0  0  0
  -27.1650  -27.0620   20.1340 C   0  0  0  0  0  0  0  0  0  0  0  0
  -23.4090  -30.4240   21.5560 C   0  0  0  0  0  3  0  0  0  0  0  0
  -24.8460  -28.8450   20.1190 C   0  0  0  0  0  0  0  0  0  0  0  0
  -25.9650  -30.6750   21.3790 C   0  0  0  0  0  2  0  0  0  0  0  0
  -26.0320  -29.2780   20.7250 C   0  0  0  0  0  0  0  0  0  0  0  0
  -27.1890  -28.4030   20.7130 C   0  0  0  0  0  3  0  0  0  0  0  0
  -25.9510  -26.7470   19.4810 C   0  0  0  0  0  3  0  0  0  0  0  0
  -24.8210  -27.5970   19.4790 C   0  0  0  0  0  3  0  0  0  0  0  0
  -23.6230  -29.7500   20.1750 C   0  0  0  0  0  2  0  0  0  0  0  0
  -24.6860  -30.9940   22.0970 N   0  0  0  0  0  0  0  0  0  0  0  0
  -23.5360  -32.1010   23.7250 O   0  0  0  0  0  0  0  0  0  0  0  0
  -22.7340  -29.4170   22.5210 C   0  0  0  0  0  0  0  0  0  0  0  0
  -21.4050  -29.2470   22.4030 N   0  0  0  0  0  0  0  0  0  0  0  0
  -23.4100  -28.7920   23.3420 O   0  0  0  0  0  0  0  0  0  0  0  0
  -20.9150  -29.8030   21.7150 H   0  0  0  0  0  0  0  0  0  0  0  0
  -18.0290  -28.0380   22.9240 C   0  0  0  0  0  0  0  0  0  0  0  0
  -20.5890  -28.3090   23.1780 C   0  0  0  0  0  3  0  0  0  0  0  0
  -20.6920  -26.8760   22.6060 C   0  0  0  0  0  2  0  0  0  0  0  0
  -19.5870  -26.5490   21.5970 C   0  0  0  0  0  2  0  0  0  0  0  0
  -18.2070  -26.6900   22.2470 C   0  0  0  0  0  2  0  0  0  0  0  0
  -19.1470  -28.8050   23.3480 C   0  0  0  0  0  0  0  0  0  0  0  0
  -18.9250  -30.0650   23.9430 C   0  0  0  0  0  3  0  0  0  0  0  0
  -17.6190  -30.5600   24.1190 C   0  0  0  0  0  3  0  0  0  0  0  0
  -16.5160  -29.7910   23.7110 C   0  0  0  0  0  3  0  0  0  0  0  0
  -16.7220  -28.5320   23.1180 C   0  0  0  0  0  3  0  0  0  0  0  0
  -25.9000  -32.4530   23.8110 C   0  0  0  0  0  3  0  0  0  0  0  0
  -26.4190  -31.6860   25.0900 C   0  0  1  0  0  0  0  0  0  0  0  0
  -25.3300  -31.4500   26.1640 C   0  0  0  0  0  1  0  0  0  0  0  0
  -27.0010  -30.3050   24.7060 C   0  0  0  0  0  1  0  0  0  0  0  0
  -27.5720  -32.4830   25.7460 C   0  0  0  0  0  1  0  0  0  0  0  0
  -25.5870  -33.8510   24.1470 N   0  0  0  0  0  0  0  0  0  0  0  0
  -25.9040  -34.9090   23.3890 C   0  0  0  0  0  0  0  0  0  0  0  0
  -26.5560  -34.8120   22.3460 O   0  0  0  0  0  0  0  0  0  0  0  0
  -25.0030  -34.0000   24.9560 H   0  0  0  0  0  0  0  0  0  0  0  0
  -24.1600  -36.7020   23.0870 C   0  0  0  0  0  1  0  0  0  0  0  0
  -25.4240  -36.2960   23.8610 C   0  0  0  0  0  3  0  0  0  0  0  0
  -27.5790  -37.1930   24.6320 C   0  0  0  0  0  1  0  0  0  0  0  0
  -26.4490  -37.3540   23.7200 N   0  0  0  0  0  0  0  0  0  0  0  0
  -26.0420  -38.2720   23.8800 H   0  0  0  0  0  0  0  0  0  0  0  0
  -29.2120  -19.5650   20.5850 C   0  0  0  0  0  3  0  0  0  0  0  0
  -27.9670  -19.1260   21.1940 N   0  0  0  0  0  0  0  0  0  0  0  0
  -27.3080  -18.8740   20.4660 H   0  0  0  0  0  0  0  0  0  0  0  0
  -28.1390  -18.2530   21.6820 H   0  0  0  0  0  0  0  0  0  0  0  0
  -29.7980  -18.1200   19.8390 C   0  0  0  0  0  3  0  0  0  0  0  0
  -29.6940  -16.4940   20.4290 C   0  0  0  0  0  3  0  0  0  0  0  0
  -30.4320  -15.0530   19.9120 C   0  0  0  0  0  0  0  0  0  0  0  0
  -30.2840  -12.6840   18.9390 C   0  0  0  0  0  2  0  0  0  0  0  0
  -29.2660  -12.6250   17.7730 C   0  0  0  0  0  2  0  0  0  0  0  0
  -27.8390  -12.3920   18.3000 C   0  0  0  0  0  2  0  0  0  0  0  0
  -27.5080  -13.3110   19.5040 C   0  0  0  0  0  3  0  0  0  0  0  0
  -28.6350  -13.3260   20.5570 C   0  0  0  0  0  2  0  0  0  0  0  0
  -29.8640  -13.7680   19.8850 N   0  0  0  0  0  0  0  0  0  0  0  0
  -31.5870  -15.1120   19.4710 O   0  0  0  0  0  0  0  0  0  0  0  0
  -25.1960  -13.8890   20.4250 C   0  0  0  0  0  0  0  0  0  0  0  0
  -24.1490  -13.1150   20.8450 C   0  0  0  0  0  0  0  0  0  0  0  0
  -24.5940  -11.7610   20.7460 C   0  0  0  0  0  0  0  0  0  0  0  0
  -26.2070  -13.0080   20.0890 N   0  0  0  0  0  0  0  0  0  0  0  0
  -25.8600  -11.7200   20.3480 N   0  0  0  0  0  0  0  0  0  0  0  0
  -23.8650  -10.5020   20.9520 C   0  0  0  0  0  0  0  0  0  0  0  0
  -24.3180   -9.5250   21.8650 C   0  0  0  0  0  3  0  0  0  0  0  0
  -23.5890   -8.3330   22.0610 C   0  0  0  0  0  3  0  0  0  0  0  0
  -22.3910   -8.1080   21.3430 C   0  0  0  0  0  0  0  0  0  0  0  0
  -21.9540   -9.0730   20.4180 C   0  0  0  0  0  3  0  0  0  0  0  0
  -22.6850  -10.2570   20.2210 C   0  0  0  0  0  3  0  0  0  0  0  0
  -21.6310   -6.9690   21.4490 O   0  0  0  0  0  0  0  0  0  0  0  0
  -21.5790   -6.2420   22.6110 C   0  0  0  0  0  0  0  0  0  0  0  0
  -21.1610   -6.8170   23.8300 C   0  0  0  0  0  3  0  0  0  0  0  0
  -21.0570   -6.0170   24.9870 C   0  0  0  0  0  3  0  0  0  0  0  0
  -21.3600   -4.6450   24.9240 C   0  0  0  0  0  0  0  0  0  0  0  0
  -21.7710   -4.0680   23.7080 C   0  0  0  0  0  3  0  0  0  0  0  0
  -21.8770   -4.8650   22.5540 C   0  0  0  0  0  0  0  0  0  0  0  0
  -22.2530   -4.3000   21.3810 F   0  0  0  0  0  0  0  0  0  0  0  0
  -21.2520   -3.8740   26.0320 F   0  0  0  0  0  0  0  0  0  0  0  0
  -22.7800  -13.6000   21.2230 C   0  0  0  0  0  0  0  0  0  0  0  0
  -22.1030  -12.8900   22.1190 N   0  0  0  0  0  0  0  0  0  0  0  0
  -22.3210  -14.6430   20.7580 O   0  0  0  0  0  0  0  0  0  0  0  0
  -22.4870  -12.0450   22.5140 H   0  0  0  0  0  0  0  0  0  0  0  0
  -21.1890  -13.2000   22.4160 H   0  0  0  0  0  0  0  0  0  0  0  0
  -25.3630  -15.2630   20.2750 N   0  0  0  0  0  0  0  0  0  0  0  0
  -24.6130  -15.9220   20.4590 H   0  0  0  0  0  0  0  0  0  0  0  0
  -26.1970  -15.7020   19.9060 H   0  0  0  0  0  0  0  0  0  0  0  0
  1  2  1  0
  1  4  1  0
  2  5  1  0
  4  9  1  0
  4  3  1  0
  5 50  1  0
  5  6  1  0
  6  3  1  0
  6  8  1  0
  7  6  1  0
 10 21  2  0
 11  9  1  0
 11 16  1  0
 12 20  1  0
 12 22  1  0
 13 19  1  0
 13 15  1  0
 14 20  1  0
 15 14  1  0
 16 15  2  0
 17 11  2  0
 18 17  1  0
 18 13  2  0
 19 12  1  0
 20 10  1  0
 22 24  2  0
 23 22  1  0
 25 23  1  0
 26 35  2  0
 26 31  1  0
 27 23  1  0
 27 31  1  0
 28 27  1  0
 29 30  1  0
 29 28  1  0
 30 26  1  0
 31 32  2  0
 32 33  1  0
 34 33  2  0
 35 34  1  0
 36 10  1  0
 36 41  1  0
 36 37  1  0
 37 40  1  1
 37 38  1  0
 39 37  1  0
 41 44  1  0
 42 46  1  0
 42 41  1  0
 43 42  2  0
 46 45  1  0
 48 46  1  0
 48 49  1  0
 48 47  1  0
 50 54  1  0
 50 51  1  0
 51 53  1  0
 52 51  1  0
 54 55  2  0
 56 55  1  0
 57 62  1  0
 58 59  1  0
 58 57  1  0
 60 59  1  0
 60 67  1  0
 60 61  1  0
 62 56  1  0
 62 61  1  0
 63 56  2  0
 64 65  2  0
 65 84  1  0
 66 65  1  0
 66 69  1  0
 67 68  1  0
 67 64  1  0
 68 66  2  0
 69 70  1  0
 70 71  2  0
 72 75  1  0
 72 71  1  0
 73 72  2  0
 74 73  1  0
 74 69  2  0
 75 76  1  0
 76 77  1  0
 77 78  2  0
 79 78  1  0
 79 83  1  0
 80 79  2  0
 81 76  2  0
 81 80  1  0
 82 81  1  0
 84 85  1  0
 85 88  1  0
 85 87  1  0
 86 84  2  0
 89 64  1  0
 89 90  1  0
 91 89  1  0
M  ISO  4   4 101   9 101  55 100  56 100
M  END
>  <TORSDO>  (52) 
F 20

>  <SCORE>  (52) 
-15.511

>  <name>  (52) 
51

>  <ligand_id>  (52) 
51

>  <original_smiles>  (52) 
[H]c1c([H])c([H])c2c(c1[H])C([H])([H])C([H])([H])C([H])([H])C2([H])N([H])C(=O)C1([H])N(C(=O)C([H])(N([H])C(=O)C([H])(N([H])C([H])([H])[H])C([H])([H])[H])C(C([H])([H])[H])(C([H])([H])[H])C([H])([H])[H])C([H])([H])c2c([H])c(OC3([H])C([H])([H])C([H])([H])C([H])(C([H])(N([H])[H])C([H])([H])C([H])([H])C(=O)N4C([H])([H])C([H])([H])C([H])([H])C([H])(n5nc(-c6c([H])c([H])c(Oc7c([H])c([H])c(F)c([H])c7F)c([H])c6[H])c(C(=O)N([H])[H])c5N([H])[H])C4([H])[H])[N+]([H])([H])C3([H])[H])c([H])c([H])c2C1([H])[H]

>  <smiles>  (52) 
[H]c1c([H])c([H])c2c(c1[H])C([H])([H])C([H])([H])C([H])([H])C2([H])N([H])C(=O)C1([H])N(C(=O)C([H])(N([H])C(=O)C([H])(N([H])C([H])([H])[H])C([H])([H])[H])C(C([H])([H])[H])(C([H])([H])[H])C([H])([H])[H])C([H])([H])c2c([H])c(OC3([H])C([H])([H])C([H])([H])C([H])(C([H])(N([H])[H])C([H])([H])C([H])([H])C(=O)N4C([H])([H])C([H])([H])C([H])([H])C([H])(n5nc(-c6c([H])c([H])c(Oc7c([H])c([H])c(F)c([H])c7F)c([H])c6[H])c(C(=O)N([H])[H])c5N([H])[H])C4([H])[H])[N+]([H])([H])C3([H])[H])c([H])c([H])c2C1([H])[H]

$$$$
52:0:0
     RDKit          3D

 95103  0  0  1  0  0  0  0  0999 V2000
  -29.2210  -20.6950   21.1090 C   0  0  0  0  0  2  0  0  0  0  0  0
  -30.4950  -22.5420   19.3090 C   0  0  0  0  0  2  0  0  0  0  0  0
  -30.1530  -19.9390   20.0520 C   0  0  0  0  0  3  0  0  0  0  0  0
  -28.5600  -22.1600   20.7210 C   0  0  0  0  0  3  0  0  0  0  0  0
  -29.5330  -23.3980   20.3080 C   0  0  0  0  0  3  0  0  0  0  0  0
  -31.0590  -21.1330   19.7110 N   0  0  0  0  0  4  0  0  0  0  0  0
  -31.6610  -21.2660   20.5080 H   0  0  0  0  0  0  0  0  0  0  0  0
  -31.6670  -20.8300   18.9680 H   0  0  0  0  0  0  0  0  0  0  0  0
  -30.5090  -17.0360   20.3580 C   0  0  0  0  0  3  0  0  0  0  0  0
  -30.9010  -18.4340   20.3810 C   0  0  0  0  0  0  0  0  0  0  0  0
  -31.3260  -15.6770   20.5330 C   0  0  0  0  0  0  0  0  0  0  0  0
  -31.2910  -13.1860   19.9230 C   0  0  0  0  0  2  0  0  0  0  0  0
  -30.4900  -12.9410   18.6200 C   0  0  0  0  0  2  0  0  0  0  0  0
  -28.9910  -12.7600   18.9290 C   0  0  0  0  0  2  0  0  0  0  0  0
  -28.4690  -13.8260   19.9230 C   0  0  0  0  0  3  0  0  0  0  0  0
  -29.4090  -14.0300   21.1290 C   0  0  0  0  0  2  0  0  0  0  0  0
  -30.7280  -14.4010   20.5980 N   0  0  0  0  0  0  0  0  0  0  0  0
  -32.5590  -15.6450   20.4280 O   0  0  0  0  0  0  0  0  0  0  0  0
  -26.0760  -14.5040   20.5000 C   0  0  0  0  0  0  0  0  0  0  0  0
  -24.9520  -13.7790   20.7850 C   0  0  0  0  0  0  0  0  0  0  0  0
  -25.3540  -12.4080   20.7800 C   0  0  0  0  0  0  0  0  0  0  0  0
  -27.0900  -13.5810   20.3290 N   0  0  0  0  0  0  0  0  0  0  0  0
  -26.6640  -12.3130   20.5690 N   0  0  0  0  0  0  0  0  0  0  0  0
  -24.5550  -11.1820   20.9070 C   0  0  0  0  0  0  0  0  0  0  0  0
  -24.8660  -10.1900   21.8650 C   0  0  0  0  0  3  0  0  0  0  0  0
  -24.0690   -9.0310   21.9800 C   0  0  0  0  0  3  0  0  0  0  0  0
  -22.9440   -8.8540   21.1370 C   0  0  0  0  0  0  0  0  0  0  0  0
  -22.6530   -9.8330   20.1710 C   0  0  0  0  0  3  0  0  0  0  0  0
  -23.4510  -10.9840   20.0540 C   0  0  0  0  0  3  0  0  0  0  0  0
  -22.1280   -7.7500   21.1610 O   0  0  0  0  0  0  0  0  0  0  0  0
  -21.9450   -7.0150   22.3050 C   0  0  0  0  0  0  0  0  0  0  0  0
  -21.4260   -7.5920   23.4850 C   0  0  0  0  0  3  0  0  0  0  0  0
  -21.1870   -6.7860   24.6170 C   0  0  0  0  0  3  0  0  0  0  0  0
  -21.4570   -5.4050   24.5680 C   0  0  0  0  0  0  0  0  0  0  0  0
  -21.9680   -4.8290   23.3910 C   0  0  0  0  0  3  0  0  0  0  0  0
  -22.2090   -5.6310   22.2620 C   0  0  0  0  0  0  0  0  0  0  0  0
  -22.6820   -5.0670   21.1240 F   0  0  0  0  0  0  0  0  0  0  0  0
  -21.2210   -4.6280   25.6510 F   0  0  0  0  0  0  0  0  0  0  0  0
  -23.5620  -14.3220   20.9460 C   0  0  0  0  0  0  0  0  0  0  0  0
  -22.7390  -13.6650   21.7530 N   0  0  0  0  0  0  0  0  0  0  0  0
  -23.2160  -15.3660   20.3950 O   0  0  0  0  0  0  0  0  0  0  0  0
  -23.0290  -12.8200   22.2220 H   0  0  0  0  0  0  0  0  0  0  0  0
  -21.8020  -14.0140   21.9050 H   0  0  0  0  0  0  0  0  0  0  0  0
  -26.3160  -15.8670   20.3420 N   0  0  0  0  0  0  0  0  0  0  0  0
  -25.5710  -16.5540   20.3830 H   0  0  0  0  0  0  0  0  0  0  0  0
  -27.1970  -16.2580   20.0380 H   0  0  0  0  0  0  0  0  0  0  0  0
  -32.1810  -18.7310   20.6500 O   0  0  0  0  0  0  0  0  0  0  0  0
  -32.6420  -17.9130   20.8010 H   0  0  0  0  0  0  0  0  0  0  0  0
  -27.4240  -21.9480   19.6780 C   0  0  0  0  0  2  0  0  0  0  0  0
  -26.2010  -21.3730   20.2660 N   0  0  0  0  0  4  0  0  0  0  0  0
  -26.3830  -20.5030   20.7320 H   0  0  0  0  0  0  0  0  0  0  0  0
  -25.5260  -21.1950   19.5430 H   0  0  0  0  0  0  0  0  0  0  0  0
  -25.7830  -22.0070   20.9230 H   0  0  0  0  0  0  0  0  0  0  0  0
  -28.8240  -24.9560   19.8500 C   0  0  0  0  0  2  0  0  0  0  0  0
  -28.9990  -26.5060   20.2410 O   0  0  0  0  0  0  0  0  0  0  0  0
  -24.8240  -31.9080   23.2990 C   0  0  0  0  0  0  0  0  0  0  0  0
  -27.9150  -27.5010   20.1680 C   0  0  0  0  0  0  0  0  0  0  0  0
  -23.8460  -30.5680   21.4810 C   0  0  0  0  0  3  0  0  0  0  0  0
  -25.4990  -29.1770   20.0710 C   0  0  0  0  0  0  0  0  0  0  0  0
  -26.3920  -30.9660   21.5460 C   0  0  0  0  0  2  0  0  0  0  0  0
  -26.6050  -29.6250   20.8030 C   0  0  0  0  0  0  0  0  0  0  0  0
  -27.8130  -28.8080   20.8290 C   0  0  0  0  0  3  0  0  0  0  0  0
  -26.7730  -27.1840   19.3990 C   0  0  0  0  0  3  0  0  0  0  0  0
  -25.6020  -27.9770   19.3540 C   0  0  0  0  0  3  0  0  0  0  0  0
  -24.2180  -30.0040   20.0830 C   0  0  0  0  0  2  0  0  0  0  0  0
  -25.0360  -31.1690   22.1650 N   0  0  0  0  0  0  0  0  0  0  0  0
  -23.6830  -32.0900   23.7540 O   0  0  0  0  0  0  0  0  0  0  0  0
  -23.1560  -29.4600   22.3150 C   0  0  0  0  0  0  0  0  0  0  0  0
  -21.8330  -29.2830   22.1340 N   0  0  0  0  0  0  0  0  0  0  0  0
  -23.8140  -28.7620   23.0910 O   0  0  0  0  0  0  0  0  0  0  0  0
  -21.3550  -29.9000   21.4930 H   0  0  0  0  0  0  0  0  0  0  0  0
  -18.4380  -28.0880   22.5650 C   0  0  0  0  0  0  0  0  0  0  0  0
  -21.0100  -28.2570   22.7810 C   0  0  0  0  0  3  0  0  0  0  0  0
  -21.0580  -26.9260   21.9940 C   0  0  0  0  0  2  0  0  0  0  0  0
  -19.9190  -26.7840   20.9800 C   0  0  0  0  0  2  0  0  0  0  0  0
  -18.5600  -26.8570   21.6820 C   0  0  0  0  0  2  0  0  0  0  0  0
  -19.5870  -28.7540   23.0670 C   0  0  0  0  0  0  0  0  0  0  0  0
  -19.4150  -29.9120   23.8560 C   0  0  0  0  0  3  0  0  0  0  0  0
  -18.1280  -30.4040   24.1430 C   0  0  0  0  0  3  0  0  0  0  0  0
  -16.9940  -29.7320   23.6570 C   0  0  0  0  0  3  0  0  0  0  0  0
  -17.1490  -28.5740   22.8740 C   0  0  0  0  0  3  0  0  0  0  0  0
  -26.0020  -32.5760   24.0720 C   0  0  0  0  0  3  0  0  0  0  0  0
  -25.6190  -33.9670   24.3670 N   0  0  0  0  0  0  0  0  0  0  0  0
  -25.9720  -35.0310   23.6330 C   0  0  0  0  0  0  0  0  0  0  0  0
  -26.7180  -34.9470   22.6550 O   0  0  0  0  0  0  0  0  0  0  0  0
  -24.9660  -34.1030   25.1250 H   0  0  0  0  0  0  0  0  0  0  0  0
  -24.1980  -36.7560   23.1730 C   0  0  0  0  0  1  0  0  0  0  0  0
  -25.4110  -36.4050   24.0500 C   0  0  0  0  0  3  0  0  0  0  0  0
  -27.4590  -37.3870   24.9870 C   0  0  0  0  0  1  0  0  0  0  0  0
  -26.4080  -37.4970   23.9790 N   0  0  0  0  0  0  0  0  0  0  0  0
  -25.9580  -38.4020   24.0880 H   0  0  0  0  0  0  0  0  0  0  0  0
  -26.3750  -31.8190   25.4070 C   0  0  1  0  0  0  0  0  0  0  0  0
  -25.1640  -31.5580   26.3330 C   0  0  0  0  0  1  0  0  0  0  0  0
  -27.0350  -30.4550   25.1030 C   0  0  0  0  0  1  0  0  0  0  0  0
  -27.4140  -32.6430   26.2040 C   0  0  0  0  0  1  0  0  0  0  0  0
  2  6  1  0
  2  5  1  0
  3 10  1  0
  3  1  1  0
  4 49  1  0
  4  1  1  0
  5 54  1  0
  5  4  1  0
  6  3  1  0
  6  7  1  0
  8  6  1  0
  9 10  2  0
  9 11  1  0
 10 47  1  0
 11 17  1  0
 12 17  1  0
 13 14  1  0
 13 12  1  0
 15 14  1  0
 15 22  1  0
 15 16  1  0
 17 16  1  0
 18 11  2  0
 19 20  2  0
 20 39  1  0
 21 20  1  0
 21 24  1  0
 22 19  1  0
 22 23  1  0
 23 21  2  0
 24 25  1  0
 25 26  2  0
 27 30  1  0
 27 26  1  0
 28 27  2  0
 29 28  1  0
 29 24  2  0
 30 31  1  0
 31 32  1  0
 32 33  2  0
 34 33  1  0
 34 38  1  0
 35 34  2  0
 36 31  2  0
 36 35  1  0
 37 36  1  0
 39 40  1  0
 40 43  1  0
 40 42  1  0
 41 39  2  0
 44 45  1  0
 44 19  1  0
 46 44  1  0
 47 48  1  0
 49 50  1  0
 50 51  1  0
 50 53  1  0
 52 50  1  0
 54 55  1  0
 56 67  2  0
 57 55  1  0
 57 62  1  0
 58 66  1  0
 58 68  1  0
 59 65  1  0
 59 61  1  0
 60 66  1  0
 61 62  2  0
 61 60  1  0
 63 57  2  0
 64 63  1  0
 64 59  2  0
 65 58  1  0
 66 56  1  0
 68 70  2  0
 69 68  1  0
 71 69  1  0
 72 81  2  0
 72 77  1  0
 73 69  1  0
 73 77  1  0
 74 73  1  0
 75 76  1  0
 75 74  1  0
 76 72  1  0
 77 78  2  0
 78 79  1  0
 80 79  2  0
 81 80  1  0
 82 56  1  0
 82 83  1  0
 82 92  1  0
 83 86  1  0
 84 88  1  0
 84 83  1  0
 85 84  2  0
 88 87  1  0
 90 88  1  0
 90 91  1  0
 90 89  1  0
 92 95  1  1
 92 93  1  0
 94 92  1  0
M  ISO  4   9 100  11 100  54 101  55 101
M  END
>  <TORSDO>  (53) 
F 21

>  <SCORE>  (53) 
-12.183

>  <name>  (53) 
52

>  <ligand_id>  (53) 
52

>  <original_smiles>  (53) 
[H]OC(=C([H])C(=O)N1C([H])([H])C([H])([H])C([H])([H])C([H])(n2nc(-c3c([H])c([H])c(Oc4c([H])c([H])c(F)c([H])c4F)c([H])c3[H])c(C(=O)N([H])[H])c2N([H])[H])C1([H])[H])C1([H])C([H])([H])C([H])(C([H])([H])[N+]([H])([H])[H])C([H])(C([H])([H])Oc2c([H])c([H])c3c(c2[H])C([H])([H])N(C(=O)C([H])(N([H])C(=O)C([H])(N([H])C([H])([H])[H])C([H])([H])[H])C(C([H])([H])[H])(C([H])([H])[H])C([H])([H])[H])C([H])(C(=O)N([H])C2([H])c4c([H])c([H])c([H])c([H])c4C([H])([H])C([H])([H])C2([H])[H])C3([H])[H])C([H])([H])[N+]1([H])[H]

>  <smiles>  (53) 
[H]OC(=C([H])C(=O)N1C([H])([H])C([H])([H])C([H])([H])C([H])(n2nc(-c3c([H])c([H])c(Oc4c([H])c([H])c(F)c([H])c4F)c([H])c3[H])c(C(=O)N([H])[H])c2N([H])[H])C1([H])[H])C1([H])C([H])([H])C([H])(C([H])([H])[N+]([H])([H])[H])C([H])(C([H])([H])Oc2c([H])c([H])c3c(c2[H])C([H])([H])N(C(=O)C([H])(N([H])C(=O)C([H])(N([H])C([H])([H])[H])C([H])([H])[H])C(C([H])([H])[H])(C([H])([H])[H])C([H])([H])[H])C([H])(C(=O)N([H])C2([H])c4c([H])c([H])c([H])c([H])c4C([H])([H])C([H])([H])C2([H])[H])C3([H])[H])C([H])([H])[N+]1([H])[H]

$$$$
53:0:0
     RDKit          3D

 89 97  0  0  1  0  0  0  0  0999 V2000
  -29.1340  -22.0790   19.3490 C   0  0  0  0  0  2  0  0  0  0  0  0
  -28.4130  -22.0470   21.2260 C   0  0  0  0  0  2  0  0  0  0  0  0
  -28.8710  -23.3050   20.3530 C   0  0  0  0  0  3  0  0  0  0  0  0
  -29.3150  -20.9550   20.4800 C   0  0  0  0  0  3  0  0  0  0  0  0
  -27.9310  -24.6740   20.0340 C   0  0  0  0  0  2  0  0  0  0  0  0
  -28.2170  -26.1930   20.2650 O   0  0  0  0  0  0  0  0  0  0  0  0
  -24.5990  -31.8920   23.2500 C   0  0  0  0  0  0  0  0  0  0  0  0
  -27.1660  -27.1840   20.1970 C   0  0  0  0  0  0  0  0  0  0  0  0
  -23.3940  -30.5000   21.6120 C   0  0  0  0  0  3  0  0  0  0  0  0
  -24.8370  -28.9310   20.1750 C   0  0  0  0  0  0  0  0  0  0  0  0
  -25.9480  -30.7640   21.4410 C   0  0  0  0  0  2  0  0  0  0  0  0
  -26.0180  -29.3740   20.7850 C   0  0  0  0  0  0  0  0  0  0  0  0
  -27.1830  -28.5160   20.7800 C   0  0  0  0  0  3  0  0  0  0  0  0
  -25.9580  -26.8470   19.5470 C   0  0  0  0  0  3  0  0  0  0  0  0
  -24.8200  -27.6810   19.5410 C   0  0  0  0  0  3  0  0  0  0  0  0
  -23.6090  -29.8260   20.2310 C   0  0  0  0  0  2  0  0  0  0  0  0
  -24.6670  -31.0730   22.1560 N   0  0  0  0  0  0  0  0  0  0  0  0
  -23.5140  -32.1750   23.7820 O   0  0  0  0  0  0  0  0  0  0  0  0
  -22.7170  -29.4910   22.5730 C   0  0  0  0  0  0  0  0  0  0  0  0
  -21.3910  -29.3150   22.4440 N   0  0  0  0  0  0  0  0  0  0  0  0
  -23.3900  -28.8670   23.3990 O   0  0  0  0  0  0  0  0  0  0  0  0
  -20.9040  -29.8700   21.7540 H   0  0  0  0  0  0  0  0  0  0  0  0
  -18.0120  -28.1010   22.9380 C   0  0  0  0  0  0  0  0  0  0  0  0
  -20.5690  -28.3760   23.2130 C   0  0  0  0  0  3  0  0  0  0  0  0
  -20.6790  -26.9430   22.6420 C   0  0  0  0  0  2  0  0  0  0  0  0
  -19.5820  -26.6120   21.6240 C   0  0  0  0  0  2  0  0  0  0  0  0
  -18.1970  -26.7520   22.2630 C   0  0  0  0  0  2  0  0  0  0  0  0
  -19.1260  -28.8700   23.3690 C   0  0  0  0  0  0  0  0  0  0  0  0
  -18.8970  -30.1320   23.9610 C   0  0  0  0  0  3  0  0  0  0  0  0
  -17.5880  -30.6240   24.1240 C   0  0  0  0  0  3  0  0  0  0  0  0
  -16.4900  -29.8520   23.7090 C   0  0  0  0  0  3  0  0  0  0  0  0
  -16.7020  -28.5920   23.1220 C   0  0  0  0  0  3  0  0  0  0  0  0
  -25.8780  -32.5240   23.8760 C   0  0  0  0  0  3  0  0  0  0  0  0
  -25.5670  -33.9240   24.2100 N   0  0  0  0  0  0  0  0  0  0  0  0
  -25.8750  -34.9800   23.4440 C   0  0  0  0  0  0  0  0  0  0  0  0
  -26.5180  -34.8790   22.3960 O   0  0  0  0  0  0  0  0  0  0  0  0
  -24.9900  -34.0740   25.0240 H   0  0  0  0  0  0  0  0  0  0  0  0
  -24.1210  -36.7630   23.1520 C   0  0  0  0  0  1  0  0  0  0  0  0
  -25.3950  -36.3680   23.9160 C   0  0  0  0  0  3  0  0  0  0  0  0
  -27.5510  -37.2760   24.6630 C   0  0  0  0  0  1  0  0  0  0  0  0
  -26.4150  -37.4280   23.7590 N   0  0  0  0  0  0  0  0  0  0  0  0
  -26.0070  -38.3450   23.9130 H   0  0  0  0  0  0  0  0  0  0  0  0
  -26.3880  -31.7550   25.1580 C   0  0  1  0  0  0  0  0  0  0  0  0
  -25.2900  -31.5240   26.2220 C   0  0  0  0  0  1  0  0  0  0  0  0
  -26.9700  -30.3750   24.7760 C   0  0  0  0  0  1  0  0  0  0  0  0
  -27.5390  -32.5490   25.8210 C   0  0  0  0  0  1  0  0  0  0  0  0
  -28.9390  -19.3050   20.3980 C   0  0  0  0  0  3  0  0  0  0  0  0
  -27.9700  -19.1250   19.3040 N   0  0  0  0  0  4  0  0  0  0  0  0
  -28.4150  -19.2640   18.4140 H   0  0  0  0  0  0  0  0  0  0  0  0
  -27.2200  -19.7860   19.3950 H   0  0  0  0  0  0  0  0  0  0  0  0
  -27.5720  -18.2040   19.3240 H   0  0  0  0  0  0  0  0  0  0  0  0
  -30.0210  -18.0010   20.3680 C   0  0  0  0  0  3  0  0  0  0  0  0
  -29.5790  -16.3800   20.5820 C   0  0  0  0  0  3  0  0  0  0  0  0
  -30.4660  -15.0040   20.2890 C   0  0  0  0  0  0  0  0  0  0  0  0
  -30.3630  -12.6740   19.2880 C   0  0  0  0  0  2  0  0  0  0  0  0
  -29.4040  -12.6950   18.0740 C   0  0  0  0  0  2  0  0  0  0  0  0
  -27.9440  -12.4740   18.5200 C   0  0  0  0  0  2  0  0  0  0  0  0
  -27.5660  -13.3490   19.7460 C   0  0  0  0  0  3  0  0  0  0  0  0
  -28.6440  -13.3020   20.8480 C   0  0  0  0  0  2  0  0  0  0  0  0
  -29.9150  -13.7240   20.2430 N   0  0  0  0  0  0  0  0  0  0  0  0
  -31.6500  -15.1080   19.9480 O   0  0  0  0  0  0  0  0  0  0  0  0
  -25.1980  -13.9160   20.5390 C   0  0  0  0  0  0  0  0  0  0  0  0
  -24.1430  -13.1350   20.9210 C   0  0  0  0  0  0  0  0  0  0  0  0
  -24.6100  -11.7860   20.8640 C   0  0  0  0  0  0  0  0  0  0  0  0
  -26.2380  -13.0420   20.2650 N   0  0  0  0  0  0  0  0  0  0  0  0
  -25.8930  -11.7540   20.5250 N   0  0  0  0  0  0  0  0  0  0  0  0
  -23.8890  -10.5190   21.0530 C   0  0  0  0  0  0  0  0  0  0  0  0
  -24.3360   -9.5480   21.9760 C   0  0  0  0  0  3  0  0  0  0  0  0
  -23.6180   -8.3460   22.1560 C   0  0  0  0  0  3  0  0  0  0  0  0
  -22.4380   -8.1080   21.4120 C   0  0  0  0  0  0  0  0  0  0  0  0
  -22.0100   -9.0660   20.4770 C   0  0  0  0  0  3  0  0  0  0  0  0
  -22.7290  -10.2610   20.2960 C   0  0  0  0  0  3  0  0  0  0  0  0
  -21.6880   -6.9600   21.5000 O   0  0  0  0  0  0  0  0  0  0  0  0
  -21.6430   -6.2140   22.6510 C   0  0  0  0  0  0  0  0  0  0  0  0
  -21.1870   -6.7560   23.8720 C   0  0  0  0  0  3  0  0  0  0  0  0
  -21.0930   -5.9370   25.0140 C   0  0  0  0  0  3  0  0  0  0  0  0
  -21.4440   -4.5750   24.9360 C   0  0  0  0  0  0  0  0  0  0  0  0
  -21.8920   -4.0320   23.7190 C   0  0  0  0  0  3  0  0  0  0  0  0
  -21.9890   -4.8490   22.5790 C   0  0  0  0  0  0  0  0  0  0  0  0
  -22.4010   -4.3160   21.4030 F   0  0  0  0  0  0  0  0  0  0  0  0
  -21.3470   -3.7860   26.0310 F   0  0  0  0  0  0  0  0  0  0  0  0
  -22.7510  -13.6040   21.2250 C   0  0  0  0  0  0  0  0  0  0  0  0
  -22.0380  -12.8980   22.0950 N   0  0  0  0  0  0  0  0  0  0  0  0
  -22.3010  -14.6340   20.7240 O   0  0  0  0  0  0  0  0  0  0  0  0
  -22.4130  -12.0650   22.5220 H   0  0  0  0  0  0  0  0  0  0  0  0
  -21.1000  -13.1910   22.3310 H   0  0  0  0  0  0  0  0  0  0  0  0
  -25.3560  -15.2890   20.3760 N   0  0  0  0  0  0  0  0  0  0  0  0
  -24.5980  -15.9450   20.5290 H   0  0  0  0  0  0  0  0  0  0  0  0
  -26.2070  -15.7240   20.0510 H   0  0  0  0  0  0  0  0  0  0  0  0
  1  3  1  0
  1  4  1  0
  3  5  1  0
  3  2  1  0
  4 47  1  0
  4  2  1  0
  5  6  1  0
  7 18  2  0
  8  6  1  0
  8 13  1  0
  9 17  1  0
  9 19  1  0
 10 16  1  0
 10 12  1  0
 11 17  1  0
 12 11  1  0
 13 12  2  0
 14  8  2  0
 15 14  1  0
 15 10  2  0
 16  9  1  0
 17  7  1  0
 19 21  2  0
 20 19  1  0
 22 20  1  0
 23 32  2  0
 23 28  1  0
 24 20  1  0
 24 28  1  0
 25 24  1  0
 26 27  1  0
 26 25  1  0
 27 23  1  0
 28 29  2  0
 29 30  1  0
 31 30  2  0
 32 31  1  0
 33  7  1  0
 33 34  1  0
 33 43  1  0
 34 37  1  0
 35 39  1  0
 35 34  1  0
 36 35  2  0
 39 38  1  0
 41 42  1  0
 41 39  1  0
 41 40  1  0
 43 46  1  1
 43 44  1  0
 45 43  1  0
 47 52  1  0
 48 51  1  0
 48 50  1  0
 48 47  1  0
 49 48  1  0
 52 53  2  0
 54 53  1  0
 55 60  1  0
 56 57  1  0
 56 55  1  0
 58 57  1  0
 58 65  1  0
 58 59  1  0
 60 54  1  0
 60 59  1  0
 61 54  2  0
 62 63  2  0
 63 82  1  0
 64 63  1  0
 64 67  1  0
 65 66  1  0
 65 62  1  0
 66 64  2  0
 67 68  1  0
 68 69  2  0
 70 73  1  0
 70 69  1  0
 71 70  2  0
 72 71  1  0
 72 67  2  0
 73 74  1  0
 74 75  1  0
 75 76  2  0
 77 76  1  0
 77 81  1  0
 78 77  2  0
 79 74  2  0
 79 78  1  0
 80 79  1  0
 82 83  1  0
 83 86  1  0
 83 85  1  0
 84 82  2  0
 87 88  1  0
 87 62  1  0
 89 87  1  0
M  ISO  4   5 101   6 101  53 100  54 100
M  END
>  <TORSDO>  (54) 
F 21

>  <SCORE>  (54) 
-14.845

>  <name>  (54) 
53

>  <ligand_id>  (54) 
53

>  <original_smiles>  (54) 
[H]c1c([H])c([H])c2c(c1[H])C([H])([H])C([H])([H])C([H])([H])C2([H])N([H])C(=O)C1([H])N(C(=O)C([H])(N([H])C(=O)C([H])(N([H])C([H])([H])[H])C([H])([H])[H])C(C([H])([H])[H])(C([H])([H])[H])C([H])([H])[H])C([H])([H])c2c([H])c(OC([H])([H])C3([H])C([H])([H])C([H])(C([H])(C([H])([H])C([H])([H])C(=O)N4C([H])([H])C([H])([H])C([H])([H])C([H])(n5nc(-c6c([H])c([H])c(Oc7c([H])c([H])c(F)c([H])c7F)c([H])c6[H])c(C(=O)N([H])[H])c5N([H])[H])C4([H])[H])[N+]([H])([H])[H])C3([H])[H])c([H])c([H])c2C1([H])[H]

>  <smiles>  (54) 
[H]c1c([H])c([H])c2c(c1[H])C([H])([H])C([H])([H])C([H])([H])C2([H])N([H])C(=O)C1([H])N(C(=O)C([H])(N([H])C(=O)C([H])(N([H])C([H])([H])[H])C([H])([H])[H])C(C([H])([H])[H])(C([H])([H])[H])C([H])([H])[H])C([H])([H])c2c([H])c(OC([H])([H])C3([H])C([H])([H])C([H])(C([H])(C([H])([H])C([H])([H])C(=O)N4C([H])([H])C([H])([H])C([H])([H])C([H])(n5nc(-c6c([H])c([H])c(Oc7c([H])c([H])c(F)c([H])c7F)c([H])c6[H])c(C(=O)N([H])[H])c5N([H])[H])C4([H])[H])[N+]([H])([H])[H])C3([H])[H])c([H])c([H])c2C1([H])[H]

$$$$
54:0:0
     RDKit          3D

 90 98  0  0  1  0  0  0  0  0999 V2000
  -29.9830  -22.9820   19.3670 C   0  0  0  0  0  0  0  0  0  0  0  0
  -30.3580  -21.4740   19.4190 C   0  0  0  0  0  2  0  0  0  0  0  0
  -28.9780  -23.3910   20.4560 C   0  0  0  0  0  3  0  0  0  0  0  0
  -29.4830  -20.8460   20.5280 C   0  0  0  0  0  3  0  0  0  0  0  0
  -28.4190  -21.9610   20.6980 N   0  0  0  0  0  4  0  0  0  0  0  0
  -30.4670  -23.7350   18.5170 O   0  0  0  0  0  0  0  0  0  0  0  0
  -27.6940  -21.7960   20.0180 H   0  0  0  0  0  0  0  0  0  0  0  0
  -27.9940  -21.8990   21.6090 H   0  0  0  0  0  0  0  0  0  0  0  0
  -28.1540  -19.0500   19.1570 C   0  0  0  0  0  1  0  0  0  0  0  0
  -29.0530  -19.2190   20.3950 C   0  0  0  0  0  3  0  0  0  0  0  0
  -30.1010  -17.9030   20.4420 C   0  0  0  0  0  3  0  0  0  0  0  0
  -29.6140  -16.3070   20.6260 C   0  0  0  0  0  3  0  0  0  0  0  0
  -30.4950  -14.9360   20.3440 C   0  0  0  0  0  0  0  0  0  0  0  0
  -30.3900  -12.6100   19.3510 C   0  0  0  0  0  2  0  0  0  0  0  0
  -29.4400  -12.6330   18.1290 C   0  0  0  0  0  2  0  0  0  0  0  0
  -27.9760  -12.4180   18.5640 C   0  0  0  0  0  2  0  0  0  0  0  0
  -27.5890  -13.3050   19.7760 C   0  0  0  0  0  3  0  0  0  0  0  0
  -28.6550  -13.2610   20.8890 C   0  0  0  0  0  2  0  0  0  0  0  0
  -29.9370  -13.6630   20.2980 N   0  0  0  0  0  0  0  0  0  0  0  0
  -31.6820  -15.0440   20.0140 O   0  0  0  0  0  0  0  0  0  0  0  0
  -25.2080  -13.8710   20.5330 C   0  0  0  0  0  0  0  0  0  0  0  0
  -24.1510  -13.0900   20.9090 C   0  0  0  0  0  0  0  0  0  0  0  0
  -24.6230  -11.7410   20.8730 C   0  0  0  0  0  0  0  0  0  0  0  0
  -26.2550  -13.0000   20.2820 N   0  0  0  0  0  0  0  0  0  0  0  0
  -25.9120  -11.7140   20.5520 N   0  0  0  0  0  0  0  0  0  0  0  0
  -23.9060  -10.4750   21.0670 C   0  0  0  0  0  0  0  0  0  0  0  0
  -24.3580   -9.5020   21.9860 C   0  0  0  0  0  3  0  0  0  0  0  0
  -23.6390   -8.3010   22.1690 C   0  0  0  0  0  3  0  0  0  0  0  0
  -22.4540   -8.0640   21.4340 C   0  0  0  0  0  0  0  0  0  0  0  0
  -22.0200   -9.0260   20.5050 C   0  0  0  0  0  3  0  0  0  0  0  0
  -22.7400  -10.2180   20.3200 C   0  0  0  0  0  3  0  0  0  0  0  0
  -21.7060   -6.9150   21.5260 O   0  0  0  0  0  0  0  0  0  0  0  0
  -21.6900   -6.1560   22.6680 C   0  0  0  0  0  0  0  0  0  0  0  0
  -21.2980   -6.6920   23.9140 C   0  0  0  0  0  3  0  0  0  0  0  0
  -21.2300   -5.8580   25.0490 C   0  0  0  0  0  3  0  0  0  0  0  0
  -21.5460   -4.4910   24.9390 C   0  0  0  0  0  0  0  0  0  0  0  0
  -21.9310   -3.9560   23.6980 C   0  0  0  0  0  3  0  0  0  0  0  0
  -22.0010   -4.7850   22.5650 C   0  0  0  0  0  0  0  0  0  0  0  0
  -22.3530   -4.2590   21.3680 F   0  0  0  0  0  0  0  0  0  0  0  0
  -21.4730   -3.6880   26.0270 F   0  0  0  0  0  0  0  0  0  0  0  0
  -22.7530  -13.5580   21.1890 C   0  0  0  0  0  0  0  0  0  0  0  0
  -22.0360  -12.8580   22.0620 N   0  0  0  0  0  0  0  0  0  0  0  0
  -22.3050  -14.5790   20.6690 O   0  0  0  0  0  0  0  0  0  0  0  0
  -22.4110  -12.0330   22.5070 H   0  0  0  0  0  0  0  0  0  0  0  0
  -21.0980  -13.1540   22.2910 H   0  0  0  0  0  0  0  0  0  0  0  0
  -25.3630  -15.2440   20.3580 N   0  0  0  0  0  0  0  0  0  0  0  0
  -24.5970  -15.8950   20.4850 H   0  0  0  0  0  0  0  0  0  0  0  0
  -26.2110  -15.6900   20.0360 H   0  0  0  0  0  0  0  0  0  0  0  0
  -27.9780  -24.6980   20.1070 C   0  0  0  0  0  2  0  0  0  0  0  0
  -28.2580  -26.2200   20.2590 O   0  0  0  0  0  0  0  0  0  0  0  0
  -24.6450  -31.8900   23.2470 C   0  0  0  0  0  0  0  0  0  0  0  0
  -27.1950  -27.1890   20.1960 C   0  0  0  0  0  0  0  0  0  0  0  0
  -23.4310  -30.4990   21.6140 C   0  0  0  0  0  3  0  0  0  0  0  0
  -24.8660  -28.9250   20.1790 C   0  0  0  0  0  0  0  0  0  0  0  0
  -25.9830  -30.7620   21.4320 C   0  0  0  0  0  2  0  0  0  0  0  0
  -26.0490  -29.3720   20.7810 C   0  0  0  0  0  0  0  0  0  0  0  0
  -27.2140  -28.5200   20.7720 C   0  0  0  0  0  3  0  0  0  0  0  0
  -25.9860  -26.8410   19.5530 C   0  0  0  0  0  3  0  0  0  0  0  0
  -24.8460  -27.6720   19.5490 C   0  0  0  0  0  3  0  0  0  0  0  0
  -23.6410  -29.8240   20.2330 C   0  0  0  0  0  2  0  0  0  0  0  0
  -24.7060  -31.0720   22.1520 N   0  0  0  0  0  0  0  0  0  0  0  0
  -23.5640  -32.1770   23.7820 O   0  0  0  0  0  0  0  0  0  0  0  0
  -22.7560  -29.4920   22.5780 C   0  0  0  0  0  0  0  0  0  0  0  0
  -21.4260  -29.3240   22.4560 N   0  0  0  0  0  0  0  0  0  0  0  0
  -23.4290  -28.8650   23.4010 O   0  0  0  0  0  0  0  0  0  0  0  0
  -20.9410  -29.8810   21.7670 H   0  0  0  0  0  0  0  0  0  0  0  0
  -18.0460  -28.1260   22.9650 C   0  0  0  0  0  0  0  0  0  0  0  0
  -20.6050  -28.3910   23.2310 C   0  0  0  0  0  3  0  0  0  0  0  0
  -20.7090  -26.9560   22.6650 C   0  0  0  0  0  2  0  0  0  0  0  0
  -19.6070  -26.6270   21.6520 C   0  0  0  0  0  2  0  0  0  0  0  0
  -18.2250  -26.7730   22.2940 C   0  0  0  0  0  2  0  0  0  0  0  0
  -19.1640  -28.8910   23.3910 C   0  0  0  0  0  0  0  0  0  0  0  0
  -18.9420  -30.1550   23.9790 C   0  0  0  0  0  3  0  0  0  0  0  0
  -17.6370  -30.6550   24.1430 C   0  0  0  0  0  3  0  0  0  0  0  0
  -16.5340  -29.8870   23.7330 C   0  0  0  0  0  3  0  0  0  0  0  0
  -16.7390  -28.6230   23.1500 C   0  0  0  0  0  3  0  0  0  0  0  0
  -25.9300  -32.5210   23.8660 C   0  0  0  0  0  3  0  0  0  0  0  0
  -26.4460  -31.7470   25.1420 C   0  0  1  0  0  0  0  0  0  0  0  0
  -25.3550  -31.5160   26.2150 C   0  0  0  0  0  1  0  0  0  0  0  0
  -27.0200  -30.3650   24.7530 C   0  0  0  0  0  1  0  0  0  0  0  0
  -27.6040  -32.5350   25.8000 C   0  0  0  0  0  1  0  0  0  0  0  0
  -25.6250  -33.9190   24.2030 N   0  0  0  0  0  0  0  0  0  0  0  0
  -25.9350  -34.9750   23.4380 C   0  0  0  0  0  0  0  0  0  0  0  0
  -26.5780  -34.8720   22.3890 O   0  0  0  0  0  0  0  0  0  0  0  0
  -25.0540  -34.0730   25.0220 H   0  0  0  0  0  0  0  0  0  0  0  0
  -24.1870  -36.7610   23.1470 C   0  0  0  0  0  1  0  0  0  0  0  0
  -25.4600  -36.3640   23.9090 C   0  0  0  0  0  3  0  0  0  0  0  0
  -27.6210  -37.2630   24.6530 C   0  0  0  0  0  1  0  0  0  0  0  0
  -26.4830  -37.4220   23.7520 N   0  0  0  0  0  0  0  0  0  0  0  0
  -26.0770  -38.3400   23.9120 H   0  0  0  0  0  0  0  0  0  0  0  0
  1  2  1  0
  1  3  1  0
  2  4  1  0
  3 49  1  0
  3  5  1  0
  4 10  1  0
  4  5  1  0
  5  8  1  0
  6  1  2  0
  7  5  1  0
 10  9  1  0
 10 11  1  0
 11 12  2  0
 13 12  1  0
 14 19  1  0
 15 16  1  0
 15 14  1  0
 17 16  1  0
 17 24  1  0
 17 18  1  0
 19 13  1  0
 19 18  1  0
 20 13  2  0
 21 22  2  0
 22 41  1  0
 23 22  1  0
 23 26  1  0
 24 21  1  0
 24 25  1  0
 25 23  2  0
 26 27  1  0
 27 28  2  0
 29 32  1  0
 29 28  1  0
 30 29  2  0
 31 30  1  0
 31 26  2  0
 32 33  1  0
 33 34  1  0
 34 35  2  0
 36 35  1  0
 36 40  1  0
 37 36  2  0
 38 33  2  0
 38 37  1  0
 39 38  1  0
 41 42  1  0
 42 45  1  0
 42 44  1  0
 43 41  2  0
 46 47  1  0
 46 21  1  0
 48 46  1  0
 49 50  1  0
 51 62  2  0
 52 50  1  0
 52 57  1  0
 53 61  1  0
 53 63  1  0
 54 60  1  0
 54 56  1  0
 55 61  1  0
 56 55  1  0
 57 56  2  0
 58 52  2  0
 59 58  1  0
 59 54  2  0
 60 53  1  0
 61 51  1  0
 63 65  2  0
 64 63  1  0
 66 64  1  0
 67 76  2  0
 67 72  1  0
 68 64  1  0
 68 72  1  0
 69 68  1  0
 70 71  1  0
 70 69  1  0
 71 67  1  0
 72 73  2  0
 73 74  1  0
 75 74  2  0
 76 75  1  0
 77 51  1  0
 77 82  1  0
 77 78  1  0
 78 81  1  1
 78 79  1  0
 80 78  1  0
 82 85  1  0
 83 87  1  0
 83 82  1  0
 84 83  2  0
 87 86  1  0
 89 87  1  0
 89 90  1  0
 89 88  1  0
M  ISO  4  12 100  13 100  49 101  50 101
M  END
>  <TORSDO>  (55) 
F 20

>  <SCORE>  (55) 
-13.794

>  <name>  (55) 
54

>  <ligand_id>  (55) 
54

>  <original_smiles>  (55) 
[H]c1c([H])c([H])c2c(c1[H])C([H])([H])C([H])([H])C([H])([H])C2([H])N([H])C(=O)C1([H])N(C(=O)C([H])(N([H])C(=O)C([H])(N([H])C([H])([H])[H])C([H])([H])[H])C(C([H])([H])[H])(C([H])([H])[H])C([H])([H])[H])C([H])([H])c2c([H])c(OC([H])([H])C3([H])C(=O)C([H])([H])C([H])(C([H])(C([H])([H])[H])C([H])([H])C([H])([H])C(=O)N4C([H])([H])C([H])([H])C([H])([H])C([H])(n5nc(-c6c([H])c([H])c(Oc7c([H])c([H])c(F)c([H])c7F)c([H])c6[H])c(C(=O)N([H])[H])c5N([H])[H])C4([H])[H])[N+]3([H])[H])c([H])c([H])c2C1([H])[H]

>  <smiles>  (55) 
[H]c1c([H])c([H])c2c(c1[H])C([H])([H])C([H])([H])C([H])([H])C2([H])N([H])C(=O)C1([H])N(C(=O)C([H])(N([H])C(=O)C([H])(N([H])C([H])([H])[H])C([H])([H])[H])C(C([H])([H])[H])(C([H])([H])[H])C([H])([H])[H])C([H])([H])c2c([H])c(OC([H])([H])C3([H])C(=O)C([H])([H])C([H])(C([H])(C([H])([H])[H])C([H])([H])C([H])([H])C(=O)N4C([H])([H])C([H])([H])C([H])([H])C([H])(n5nc(-c6c([H])c([H])c(Oc7c([H])c([H])c(F)c([H])c7F)c([H])c6[H])c(C(=O)N([H])[H])c5N([H])[H])C4([H])[H])[N+]3([H])[H])c([H])c([H])c2C1([H])[H]

$$$$
55:0:0
     RDKit          3D

 89 97  0  0  1  0  0  0  0  0999 V2000
  -30.0700  -22.4440   20.9540 C   0  0  0  0  0  2  0  0  0  0  0  0
  -30.2800  -20.8750   21.2590 C   0  0  0  0  0  2  0  0  0  0  0  0
  -28.4550  -21.2450   19.8280 C   0  0  0  0  0  2  0  0  0  0  0  0
  -28.6060  -22.7780   20.5380 C   0  0  0  0  0  3  0  0  0  0  0  0
  -29.2010  -19.9350   20.6000 C   0  0  0  0  0  3  0  0  0  0  0  0
  -28.1150  -24.3710   19.8950 C   0  0  0  0  0  2  0  0  0  0  0  0
  -28.2100  -25.9370   20.3370 O   0  0  0  0  0  0  0  0  0  0  0  0
  -24.6360  -31.8590   23.2120 C   0  0  0  0  0  0  0  0  0  0  0  0
  -27.1900  -27.0050   20.2160 C   0  0  0  0  0  0  0  0  0  0  0  0
  -23.4360  -30.4530   21.5850 C   0  0  0  0  0  3  0  0  0  0  0  0
  -24.8800  -28.8500   20.1610 C   0  0  0  0  0  0  0  0  0  0  0  0
  -25.9970  -30.6770   21.4250 C   0  0  0  0  0  2  0  0  0  0  0  0
  -26.0650  -29.2690   20.7810 C   0  0  0  0  0  0  0  0  0  0  0  0
  -27.2100  -28.3620   20.7910 C   0  0  0  0  0  3  0  0  0  0  0  0
  -25.9830  -26.7350   19.5300 C   0  0  0  0  0  3  0  0  0  0  0  0
  -24.8620  -27.6030   19.5180 C   0  0  0  0  0  3  0  0  0  0  0  0
  -23.6580  -29.7640   20.2100 C   0  0  0  0  0  2  0  0  0  0  0  0
  -24.7110  -31.0230   22.1270 N   0  0  0  0  0  0  0  0  0  0  0  0
  -23.5490  -32.1510   23.7360 O   0  0  0  0  0  0  0  0  0  0  0  0
  -22.7490  -29.4610   22.5600 C   0  0  0  0  0  0  0  0  0  0  0  0
  -21.4180  -29.2970   22.4440 N   0  0  0  0  0  0  0  0  0  0  0  0
  -23.4200  -28.8380   23.3870 O   0  0  0  0  0  0  0  0  0  0  0  0
  -20.9290  -29.8510   21.7560 H   0  0  0  0  0  0  0  0  0  0  0  0
  -18.0370  -28.0880   22.9670 C   0  0  0  0  0  0  0  0  0  0  0  0
  -20.5980  -28.3630   23.2240 C   0  0  0  0  0  3  0  0  0  0  0  0
  -20.7020  -26.9260   22.6620 C   0  0  0  0  0  2  0  0  0  0  0  0
  -19.5990  -26.5920   21.6530 C   0  0  0  0  0  2  0  0  0  0  0  0
  -18.2180  -26.7370   22.2980 C   0  0  0  0  0  2  0  0  0  0  0  0
  -19.1550  -28.8600   23.3880 C   0  0  0  0  0  0  0  0  0  0  0  0
  -18.9310  -30.1240   23.9750 C   0  0  0  0  0  3  0  0  0  0  0  0
  -17.6230  -30.6170   24.1450 C   0  0  0  0  0  3  0  0  0  0  0  0
  -16.5220  -29.8440   23.7390 C   0  0  0  0  0  3  0  0  0  0  0  0
  -16.7300  -28.5810   23.1560 C   0  0  0  0  0  3  0  0  0  0  0  0
  -25.9110  -32.5050   23.8360 C   0  0  0  0  0  3  0  0  0  0  0  0
  -26.4280  -31.7420   25.1180 C   0  0  1  0  0  0  0  0  0  0  0  0
  -25.3350  -31.5150   26.1910 C   0  0  0  0  0  1  0  0  0  0  0  0
  -27.0080  -30.3610   24.7390 C   0  0  0  0  0  1  0  0  0  0  0  0
  -27.5820  -32.5380   25.7730 C   0  0  0  0  0  1  0  0  0  0  0  0
  -25.5930  -33.9020   24.1740 N   0  0  0  0  0  0  0  0  0  0  0  0
  -25.9060  -34.9640   23.4200 C   0  0  0  0  0  0  0  0  0  0  0  0
  -26.5580  -34.8730   22.3770 O   0  0  0  0  0  0  0  0  0  0  0  0
  -25.0160  -34.0500   24.9890 H   0  0  0  0  0  0  0  0  0  0  0  0
  -24.1550  -36.7510   23.1270 C   0  0  0  0  0  1  0  0  0  0  0  0
  -25.4220  -36.3500   23.8990 C   0  0  0  0  0  3  0  0  0  0  0  0
  -27.5740  -37.2480   24.6700 C   0  0  0  0  0  1  0  0  0  0  0  0
  -26.4420  -37.4110   23.7600 N   0  0  0  0  0  0  0  0  0  0  0  0
  -26.0330  -38.3280   23.9240 H   0  0  0  0  0  0  0  0  0  0  0  0
  -29.6750  -18.3200   19.9920 C   0  0  0  0  0  3  0  0  0  0  0  0
  -30.9340  -18.4830   19.2450 N   0  0  0  0  0  4  0  0  0  0  0  0
  -31.7160  -18.5510   19.8720 H   0  0  0  0  0  0  0  0  0  0  0  0
  -30.8990  -19.3140   18.6810 H   0  0  0  0  0  0  0  0  0  0  0  0
  -31.0890  -17.7030   18.6320 H   0  0  0  0  0  0  0  0  0  0  0  0
  -29.6620  -16.7000   20.7240 C   0  0  0  0  0  2  0  0  0  0  0  0
  -30.4130  -15.1910   20.3170 C   0  0  0  0  0  0  0  0  0  0  0  0
  -30.3750  -12.7630   19.4260 C   0  0  0  0  0  2  0  0  0  0  0  0
  -29.4570  -12.6260   18.1850 C   0  0  0  0  0  2  0  0  0  0  0  0
  -27.9970  -12.3830   18.6090 C   0  0  0  0  0  2  0  0  0  0  0  0
  -27.5600  -13.3320   19.7530 C   0  0  0  0  0  3  0  0  0  0  0  0
  -28.6010  -13.4190   20.8890 C   0  0  0  0  0  2  0  0  0  0  0  0
  -29.8620  -13.8850   20.2910 N   0  0  0  0  0  0  0  0  0  0  0  0
  -31.6010  -15.2140   19.9650 O   0  0  0  0  0  0  0  0  0  0  0  0
  -25.1800  -13.8990   20.4770 C   0  0  0  0  0  0  0  0  0  0  0  0
  -24.1150  -13.1240   20.8450 C   0  0  0  0  0  0  0  0  0  0  0  0
  -24.5830  -11.7740   20.8300 C   0  0  0  0  0  0  0  0  0  0  0  0
  -26.2250  -13.0220   20.2490 N   0  0  0  0  0  0  0  0  0  0  0  0
  -25.8780  -11.7390   20.5300 N   0  0  0  0  0  0  0  0  0  0  0  0
  -23.8550  -10.5130   21.0260 C   0  0  0  0  0  0  0  0  0  0  0  0
  -24.2890   -9.5440   21.9570 C   0  0  0  0  0  3  0  0  0  0  0  0
  -23.5580   -8.3510   22.1410 C   0  0  0  0  0  3  0  0  0  0  0  0
  -22.3790   -8.1170   21.3940 C   0  0  0  0  0  0  0  0  0  0  0  0
  -21.9650   -9.0740   20.4510 C   0  0  0  0  0  3  0  0  0  0  0  0
  -22.6970  -10.2590   20.2660 C   0  0  0  0  0  3  0  0  0  0  0  0
  -21.6200   -6.9760   21.4860 O   0  0  0  0  0  0  0  0  0  0  0  0
  -21.5890   -6.2230   22.6340 C   0  0  0  0  0  0  0  0  0  0  0  0
  -21.2010   -6.7740   23.8750 C   0  0  0  0  0  3  0  0  0  0  0  0
  -21.1160   -5.9500   25.0150 C   0  0  0  0  0  3  0  0  0  0  0  0
  -21.4080   -4.5760   24.9140 C   0  0  0  0  0  0  0  0  0  0  0  0
  -21.7890   -4.0250   23.6780 C   0  0  0  0  0  3  0  0  0  0  0  0
  -21.8760   -4.8470   22.5410 C   0  0  0  0  0  0  0  0  0  0  0  0
  -22.2220   -4.3070   21.3480 F   0  0  0  0  0  0  0  0  0  0  0  0
  -21.3190   -3.7820   26.0070 F   0  0  0  0  0  0  0  0  0  0  0  0
  -22.7150  -13.6020   21.0990 C   0  0  0  0  0  0  0  0  0  0  0  0
  -21.9810  -12.9160   21.9660 N   0  0  0  0  0  0  0  0  0  0  0  0
  -22.2830  -14.6230   20.5640 O   0  0  0  0  0  0  0  0  0  0  0  0
  -22.3440  -12.0890   22.4180 H   0  0  0  0  0  0  0  0  0  0  0  0
  -21.0420  -13.2200   22.1820 H   0  0  0  0  0  0  0  0  0  0  0  0
  -25.3410  -15.2680   20.2890 N   0  0  0  0  0  0  0  0  0  0  0  0
  -24.5680  -15.9180   20.3880 H   0  0  0  0  0  0  0  0  0  0  0  0
  -26.1860  -15.7080   19.9480 H   0  0  0  0  0  0  0  0  0  0  0  0
  1  2  1  0
  3  4  1  0
  3  5  1  0
  4  6  1  0
  4  1  1  0
  5 48  1  0
  5  2  1  0
  6  7  1  0
  8 19  2  0
  9  7  1  0
  9 14  1  0
 10 18  1  0
 10 20  1  0
 11 17  1  0
 11 13  1  0
 12 18  1  0
 13 14  2  0
 13 12  1  0
 15  9  2  0
 16 15  1  0
 16 11  2  0
 17 10  1  0
 18  8  1  0
 20 22  2  0
 21 20  1  0
 23 21  1  0
 24 33  2  0
 24 29  1  0
 25 21  1  0
 25 29  1  0
 26 25  1  0
 27 28  1  0
 27 26  1  0
 28 24  1  0
 29 30  2  0
 30 31  1  0
 32 31  2  0
 33 32  1  0
 34  8  1  0
 34 39  1  0
 34 35  1  0
 35 38  1  1
 35 36  1  0
 37 35  1  0
 39 42  1  0
 40 44  1  0
 40 39  1  0
 41 40  2  0
 44 43  1  0
 46 44  1  0
 46 47  1  0
 46 45  1  0
 48 53  1  0
 49 50  1  0
 49 48  1  0
 51 49  1  0
 52 49  1  0
 54 53  1  0
 55 60  1  0
 56 57  1  0
 56 55  1  0
 58 57  1  0
 58 65  1  0
 58 59  1  0
 60 54  1  0
 60 59  1  0
 61 54  2  0
 62 63  2  0
 63 82  1  0
 64 63  1  0
 64 67  1  0
 65 62  1  0
 65 66  1  0
 66 64  2  0
 67 68  1  0
 68 69  2  0
 70 73  1  0
 70 69  1  0
 71 70  2  0
 72 71  1  0
 72 67  2  0
 73 74  1  0
 74 75  1  0
 75 76  2  0
 77 76  1  0
 77 81  1  0
 78 77  2  0
 79 74  2  0
 79 78  1  0
 80 79  1  0
 82 83  1  0
 83 86  1  0
 83 85  1  0
 84 82  2  0
 87 88  1  0
 87 62  1  0
 89 87  1  0
M  ISO  4   6 101   7 101  53 100  54 100
M  END
>  <TORSDO>  (56) 
F 20

>  <SCORE>  (56) 
-16.091

>  <name>  (56) 
55

>  <ligand_id>  (56) 
55

>  <original_smiles>  (56) 
[H]c1c([H])c([H])c2c(c1[H])C([H])([H])C([H])([H])C([H])([H])C2([H])N([H])C(=O)C1([H])N(C(=O)C([H])(N([H])C(=O)C([H])(N([H])C([H])([H])[H])C([H])([H])[H])C(C([H])([H])[H])(C([H])([H])[H])C([H])([H])[H])C([H])([H])c2c([H])c(OC([H])([H])C3([H])C([H])([H])C([H])([H])C([H])(C([H])(C([H])([H])C(=O)N4C([H])([H])C([H])([H])C([H])([H])C([H])(n5nc(-c6c([H])c([H])c(Oc7c([H])c([H])c(F)c([H])c7F)c([H])c6[H])c(C(=O)N([H])[H])c5N([H])[H])C4([H])[H])[N+]([H])([H])[H])C3([H])[H])c([H])c([H])c2C1([H])[H]

>  <smiles>  (56) 
[H]c1c([H])c([H])c2c(c1[H])C([H])([H])C([H])([H])C([H])([H])C2([H])N([H])C(=O)C1([H])N(C(=O)C([H])(N([H])C(=O)C([H])(N([H])C([H])([H])[H])C([H])([H])[H])C(C([H])([H])[H])(C([H])([H])[H])C([H])([H])[H])C([H])([H])c2c([H])c(OC([H])([H])C3([H])C([H])([H])C([H])([H])C([H])(C([H])(C([H])([H])C(=O)N4C([H])([H])C([H])([H])C([H])([H])C([H])(n5nc(-c6c([H])c([H])c(Oc7c([H])c([H])c(F)c([H])c7F)c([H])c6[H])c(C(=O)N([H])[H])c5N([H])[H])C4([H])[H])[N+]([H])([H])[H])C3([H])[H])c([H])c([H])c2C1([H])[H]

$$$$
56:0:0
     RDKit          3D

 86 94  0  0  1  0  0  0  0  0999 V2000
  -30.5220  -15.6910   20.1270 C   0  0  0  0  0  0  0  0  0  0  0  0
  -30.6260  -13.0600   19.6850 C   0  0  0  0  0  2  0  0  0  0  0  0
  -29.8060  -12.5090   18.4830 C   0  0  0  0  0  2  0  0  0  0  0  0
  -28.3440  -12.2410   18.8780 C   0  0  0  0  0  2  0  0  0  0  0  0
  -27.7890  -13.3690   19.7780 C   0  0  0  0  0  3  0  0  0  0  0  0
  -28.7650  -13.8030   20.9010 C   0  0  0  0  0  2  0  0  0  0  0  0
  -29.9750  -14.3360   20.2290 N   0  0  0  0  0  0  0  0  0  0  0  0
  -31.7590  -15.5880   20.0200 O   0  0  0  0  0  0  0  0  0  0  0  0
  -27.5170  -18.2790   19.5880 C   0  0  0  0  0  2  0  0  0  0  0  0
  -28.3730  -17.1580   20.2900 C   0  0  0  0  0  2  0  0  0  0  0  0
  -30.1710  -18.7460   19.6580 C   0  0  0  0  0  2  0  0  0  0  0  0
  -27.8140  -19.7940   19.8890 C   0  0  0  0  0  3  0  0  0  0  0  0
  -29.1230  -20.2590   19.2250 C   0  0  0  0  0  3  0  0  0  0  0  0
  -27.7890  -20.1060   21.3940 C   0  0  0  0  0  1  0  0  0  0  0  0
  -29.8030  -17.0740   19.9480 N   0  0  0  0  0  0  0  0  0  0  0  0
  -25.4230  -14.0280   20.4500 C   0  0  0  0  0  0  0  0  0  0  0  0
  -24.3190  -13.3070   20.7970 C   0  0  0  0  0  0  0  0  0  0  0  0
  -24.7220  -11.9380   20.7890 C   0  0  0  0  0  0  0  0  0  0  0  0
  -26.4370  -13.1060   20.2540 N   0  0  0  0  0  0  0  0  0  0  0  0
  -26.0220  -11.8400   20.5220 N   0  0  0  0  0  0  0  0  0  0  0  0
  -23.9230  -10.7170   20.9590 C   0  0  0  0  0  0  0  0  0  0  0  0
  -24.3030   -9.7060   21.8690 C   0  0  0  0  0  3  0  0  0  0  0  0
  -23.5030   -8.5550   22.0320 C   0  0  0  0  0  3  0  0  0  0  0  0
  -22.3110   -8.4070   21.2850 C   0  0  0  0  0  0  0  0  0  0  0  0
  -21.9490   -9.4060   20.3640 C   0  0  0  0  0  3  0  0  0  0  0  0
  -22.7480  -10.5490   20.1990 C   0  0  0  0  0  3  0  0  0  0  0  0
  -21.4860   -7.3100   21.3600 O   0  0  0  0  0  0  0  0  0  0  0  0
  -21.4450   -6.5140   22.4760 C   0  0  0  0  0  0  0  0  0  0  0  0
  -21.1250   -7.0340   23.7490 C   0  0  0  0  0  3  0  0  0  0  0  0
  -21.0250   -6.1710   24.8580 C   0  0  0  0  0  3  0  0  0  0  0  0
  -21.2370   -4.7880   24.6960 C   0  0  0  0  0  0  0  0  0  0  0  0
  -21.5510   -4.2680   23.4290 C   0  0  0  0  0  3  0  0  0  0  0  0
  -21.6520   -5.1290   22.3210 C   0  0  0  0  0  0  0  0  0  0  0  0
  -21.9350   -4.6190   21.0970 F   0  0  0  0  0  0  0  0  0  0  0  0
  -21.1330   -3.9570   25.7590 F   0  0  0  0  0  0  0  0  0  0  0  0
  -22.9420  -13.8600   21.0120 C   0  0  0  0  0  0  0  0  0  0  0  0
  -22.1520  -13.2220   21.8690 N   0  0  0  0  0  0  0  0  0  0  0  0
  -22.5770  -14.8980   20.4600 O   0  0  0  0  0  0  0  0  0  0  0  0
  -22.4580  -12.3840   22.3390 H   0  0  0  0  0  0  0  0  0  0  0  0
  -21.2280  -13.5810   22.0580 H   0  0  0  0  0  0  0  0  0  0  0  0
  -25.6280  -15.3860   20.2460 N   0  0  0  0  0  0  0  0  0  0  0  0
  -24.8550  -16.0430   20.2770 H   0  0  0  0  0  0  0  0  0  0  0  0
  -26.4700  -15.7850   19.8580 H   0  0  0  0  0  0  0  0  0  0  0  0
  -29.2720  -22.1890   19.1700 C   0  0  0  0  0  3  0  0  0  0  0  0
  -28.2380  -23.8020   18.9040 C   0  0  0  0  0  3  0  0  0  0  0  0
  -28.3440  -25.5470   19.0340 O   0  0  0  0  0  0  0  0  0  0  0  0
  -24.7030  -31.3120   22.7070 C   0  0  0  0  0  0  0  0  0  0  0  0
  -27.3100  -26.6960   19.1280 C   0  0  0  0  0  0  0  0  0  0  0  0
  -23.5060  -30.0360   20.9810 C   0  0  0  0  0  3  0  0  0  0  0  0
  -24.9590  -28.6070   19.3540 C   0  0  0  0  0  0  0  0  0  0  0  0
  -26.0690  -30.3090   20.7780 C   0  0  0  0  0  2  0  0  0  0  0  0
  -26.1630  -28.9550   19.9790 C   0  0  0  0  0  0  0  0  0  0  0  0
  -27.3200  -28.0280   19.8380 C   0  0  0  0  0  3  0  0  0  0  0  0
  -26.0620  -26.5510   18.4710 C   0  0  0  0  0  3  0  0  0  0  0  0
  -24.9440  -27.4350   18.5770 C   0  0  0  0  0  3  0  0  0  0  0  0
  -23.7180  -29.4940   19.5370 C   0  0  0  0  0  2  0  0  0  0  0  0
  -24.7840  -30.5800   21.5430 N   0  0  0  0  0  0  0  0  0  0  0  0
  -23.6210  -31.5110   23.2850 O   0  0  0  0  0  0  0  0  0  0  0  0
  -22.8690  -28.9340   21.8710 C   0  0  0  0  0  0  0  0  0  0  0  0
  -21.5360  -28.7570   21.8020 N   0  0  0  0  0  0  0  0  0  0  0  0
  -23.5870  -28.2410   22.5970 O   0  0  0  0  0  0  0  0  0  0  0  0
  -21.0070  -29.3710   21.2000 H   0  0  0  0  0  0  0  0  0  0  0  0
  -18.2090  -27.4030   22.3570 C   0  0  0  0  0  0  0  0  0  0  0  0
  -20.7740  -27.7170   22.5060 C   0  0  0  0  0  3  0  0  0  0  0  0
  -20.8740  -26.3600   21.7690 C   0  0  0  0  0  2  0  0  0  0  0  0
  -19.7240  -26.1200   20.7870 C   0  0  0  0  0  2  0  0  0  0  0  0
  -18.3790  -26.1470   21.5180 C   0  0  0  0  0  2  0  0  0  0  0  0
  -19.3320  -28.1480   22.8060 C   0  0  0  0  0  0  0  0  0  0  0  0
  -19.1150  -29.3220   23.5590 C   0  0  0  0  0  3  0  0  0  0  0  0
  -17.8090  -29.7540   23.8620 C   0  0  0  0  0  3  0  0  0  0  0  0
  -16.7020  -29.0050   23.4250 C   0  0  0  0  0  3  0  0  0  0  0  0
  -16.9030  -27.8300   22.6780 C   0  0  0  0  0  3  0  0  0  0  0  0
  -25.9650  -31.9500   23.3660 C   0  0  0  0  0  3  0  0  0  0  0  0
  -25.5810  -33.2610   23.9260 N   0  0  0  0  0  0  0  0  0  0  0  0
  -25.8120  -34.4460   23.3440 C   0  0  0  0  0  0  0  0  0  0  0  0
  -26.4270  -34.5550   22.2820 O   0  0  0  0  0  0  0  0  0  0  0  0
  -25.0240  -33.2430   24.7670 H   0  0  0  0  0  0  0  0  0  0  0  0
  -23.9650  -36.1620   23.3930 C   0  0  0  0  0  1  0  0  0  0  0  0
  -25.2810  -35.7120   24.0510 C   0  0  0  0  0  3  0  0  0  0  0  0
  -27.4120  -36.6040   24.8890 C   0  0  0  0  0  1  0  0  0  0  0  0
  -26.2400  -36.8390   24.0500 N   0  0  0  0  0  0  0  0  0  0  0  0
  -25.7910  -37.6950   24.3640 H   0  0  0  0  0  0  0  0  0  0  0  0
  -26.5900  -31.0480   24.5000 C   0  0  1  0  0  0  0  0  0  0  0  0
  -25.5760  -30.6080   25.5850 C   0  0  0  0  0  1  0  0  0  0  0  0
  -27.2180  -29.7680   23.9070 C   0  0  0  0  0  1  0  0  0  0  0  0
  -27.7360  -31.8110   25.2060 C   0  0  0  0  0  1  0  0  0  0  0  0
  1  7  1  0
  2  7  1  0
  3  4  1  0
  3  2  1  0
  5  4  1  0
  5 19  1  0
  5  6  1  0
  7  6  1  0
  8  1  2  0
  9 12  1  0
  9 10  1  0
 11 15  1  0
 12 14  1  0
 13 44  1  0
 13 11  1  0
 13 12  1  0
 15  1  1  0
 15 10  1  0
 16 17  2  0
 17 36  1  0
 18 17  1  0
 18 21  1  0
 19 16  1  0
 19 20  1  0
 20 18  2  0
 21 22  1  0
 22 23  2  0
 24 27  1  0
 24 23  1  0
 25 24  2  0
 26 25  1  0
 26 21  2  0
 27 28  1  0
 28 29  1  0
 29 30  2  0
 31 30  1  0
 31 35  1  0
 32 31  2  0
 33 28  2  0
 33 32  1  0
 34 33  1  0
 36 37  1  0
 37 40  1  0
 37 39  1  0
 38 36  2  0
 41 42  1  0
 41 16  1  0
 43 41  1  0
 45 46  1  0
 45 44  2  0
 46 48  1  0
 47 58  2  0
 48 53  1  0
 49 57  1  0
 49 59  1  0
 50 56  1  0
 50 52  1  0
 51 57  1  0
 52 51  1  0
 53 52  2  0
 54 55  1  0
 54 48  2  0
 55 50  2  0
 56 49  1  0
 57 47  1  0
 59 61  2  0
 60 59  1  0
 62 60  1  0
 63 72  2  0
 63 68  1  0
 64 60  1  0
 64 68  1  0
 65 64  1  0
 66 67  1  0
 66 65  1  0
 67 63  1  0
 68 69  2  0
 69 70  1  0
 71 70  2  0
 72 71  1  0
 73 47  1  0
 73 74  1  0
 73 83  1  0
 74 77  1  0
 75 74  1  0
 75 79  1  0
 76 75  2  0
 79 78  1  0
 81 79  1  0
 81 82  1  0
 81 80  1  0
 83 86  1  1
 83 84  1  0
 85 83  1  0
M  ISO  4   1 100  15 100  45 101  46 101
M  END
>  <TORSDO>  (57) 
F 17

>  <SCORE>  (57) 
-12.846

>  <name>  (57) 
56

>  <ligand_id>  (57) 
56

>  <original_smiles>  (57) 
[H]c1c([H])c([H])c2c(c1[H])C([H])([H])C([H])([H])C([H])([H])C2([H])N([H])C(=O)C1([H])N(C(=O)C([H])(N([H])C(=O)C([H])(N([H])C([H])([H])[H])C([H])([H])[H])C(C([H])([H])[H])(C([H])([H])[H])C([H])([H])[H])C([H])([H])c2c([H])c(OC([H])([H])C([H])([H])C3([H])C([H])([H])N(C(=O)N4C([H])([H])C([H])([H])C([H])([H])C([H])(n5nc(-c6c([H])c([H])c(Oc7c([H])c([H])c(F)c([H])c7F)c([H])c6[H])c(C(=O)N([H])[H])c5N([H])[H])C4([H])[H])C([H])([H])C([H])([H])C3([H])C([H])([H])[H])c([H])c([H])c2C1([H])[H]

>  <smiles>  (57) 
[H]c1c([H])c([H])c2c(c1[H])C([H])([H])C([H])([H])C([H])([H])C2([H])N([H])C(=O)C1([H])N(C(=O)C([H])(N([H])C(=O)C([H])(N([H])C([H])([H])[H])C([H])([H])[H])C(C([H])([H])[H])(C([H])([H])[H])C([H])([H])[H])C([H])([H])c2c([H])c(OC([H])([H])C([H])([H])C3([H])C([H])([H])N(C(=O)N4C([H])([H])C([H])([H])C([H])([H])C([H])(n5nc(-c6c([H])c([H])c(Oc7c([H])c([H])c(F)c([H])c7F)c([H])c6[H])c(C(=O)N([H])[H])c5N([H])[H])C4([H])[H])C([H])([H])C([H])([H])C3([H])C([H])([H])[H])c([H])c([H])c2C1([H])[H]

$$$$
57:0:0
     RDKit          3D

 90 98  0  0  1  0  0  0  0  0999 V2000
  -30.5480  -22.1430   20.0410 C   0  0  0  0  0  2  0  0  0  0  0  0
  -28.2800  -22.4470   20.6530 C   0  0  0  0  0  2  0  0  0  0  0  0
  -30.2920  -23.6440   20.3680 C   0  0  0  0  0  3  0  0  0  0  0  0
  -28.7830  -23.8590   20.1600 C   0  0  0  0  0  3  0  0  0  0  0  0
  -31.1810  -24.6000   19.5590 C   0  0  0  0  0  1  0  0  0  0  0  0
  -29.2710  -21.3980   20.2160 N   0  0  2  0  0  4  0  0  0  0  0  0
  -28.9760  -21.1400   19.2870 H   0  0  0  0  0  0  0  0  0  0  0  0
  -28.1500  -25.1580   20.8410 C   0  0  0  0  0  2  0  0  0  0  0  0
  -28.3540  -26.5030   20.2520 O   0  0  0  0  0  0  0  0  0  0  0  0
  -24.6260  -31.8950   23.2470 C   0  0  0  0  0  0  0  0  0  0  0  0
  -27.2420  -27.3510   20.2100 C   0  0  0  0  0  0  0  0  0  0  0  0
  -23.4220  -30.4890   21.6130 C   0  0  0  0  0  3  0  0  0  0  0  0
  -24.8730  -28.9400   20.1880 C   0  0  0  0  0  0  0  0  0  0  0  0
  -25.9590  -30.8200   21.4220 C   0  0  0  0  0  2  0  0  0  0  0  0
  -26.0420  -29.4440   20.7760 C   0  0  0  0  0  0  0  0  0  0  0  0
  -27.2340  -28.6630   20.7700 C   0  0  0  0  0  3  0  0  0  0  0  0
  -26.0580  -26.8960   19.5930 C   0  0  0  0  0  3  0  0  0  0  0  0
  -24.8830  -27.6720   19.5840 C   0  0  0  0  0  3  0  0  0  0  0  0
  -23.6340  -29.8090   20.2340 C   0  0  0  0  0  2  0  0  0  0  0  0
  -24.6870  -31.0860   22.1500 N   0  0  0  0  0  0  0  0  0  0  0  0
  -23.5430  -32.1710   23.7840 O   0  0  0  0  0  0  0  0  0  0  0  0
  -22.7650  -29.4730   22.5780 C   0  0  0  0  0  0  0  0  0  0  0  0
  -21.4390  -29.2910   22.4530 N   0  0  0  0  0  0  0  0  0  0  0  0
  -23.4480  -28.8530   23.3970 O   0  0  0  0  0  0  0  0  0  0  0  0
  -20.9510  -29.8420   21.7610 H   0  0  0  0  0  0  0  0  0  0  0  0
  -18.0650  -28.0890   22.9580 C   0  0  0  0  0  0  0  0  0  0  0  0
  -20.6220  -28.3560   23.2280 C   0  0  0  0  0  3  0  0  0  0  0  0
  -20.7280  -26.9220   22.6590 C   0  0  0  0  0  2  0  0  0  0  0  0
  -19.6270  -26.5930   21.6460 C   0  0  0  0  0  2  0  0  0  0  0  0
  -18.2450  -26.7370   22.2890 C   0  0  0  0  0  2  0  0  0  0  0  0
  -19.1810  -28.8560   23.3840 C   0  0  0  0  0  0  0  0  0  0  0  0
  -18.9580  -30.1220   23.9690 C   0  0  0  0  0  3  0  0  0  0  0  0
  -17.6510  -30.6190   24.1320 C   0  0  0  0  0  3  0  0  0  0  0  0
  -16.5490  -29.8490   23.7230 C   0  0  0  0  0  3  0  0  0  0  0  0
  -16.7570  -28.5860   23.1410 C   0  0  0  0  0  3  0  0  0  0  0  0
  -25.9080  -32.5320   23.8660 C   0  0  0  0  0  3  0  0  0  0  0  0
  -25.5960  -33.9300   24.1920 N   0  0  0  0  0  0  0  0  0  0  0  0
  -25.9260  -34.9830   23.4310 C   0  0  0  0  0  0  0  0  0  0  0  0
  -26.5940  -34.8780   22.3990 O   0  0  0  0  0  0  0  0  0  0  0  0
  -25.0030  -34.0860   24.9950 H   0  0  0  0  0  0  0  0  0  0  0  0
  -24.1920  -36.7700   23.0800 C   0  0  0  0  0  1  0  0  0  0  0  0
  -25.4380  -36.3710   23.8870 C   0  0  0  0  0  3  0  0  0  0  0  0
  -27.5770  -37.2600   24.7040 C   0  0  0  0  0  1  0  0  0  0  0  0
  -26.4690  -37.4270   23.7660 N   0  0  0  0  0  0  0  0  0  0  0  0
  -26.0640  -38.3460   23.9140 H   0  0  0  0  0  0  0  0  0  0  0  0
  -26.4290  -31.7660   25.1440 C   0  0  1  0  0  0  0  0  0  0  0  0
  -25.3390  -31.5310   26.2160 C   0  0  0  0  0  1  0  0  0  0  0  0
  -27.0110  -30.3880   24.7580 C   0  0  0  0  0  1  0  0  0  0  0  0
  -27.5820  -32.5640   25.7980 C   0  0  0  0  0  1  0  0  0  0  0  0
  -29.3610  -20.0960   21.0120 C   0  0  0  0  0  3  0  0  0  0  0  0
  -29.5310  -18.7300   20.1950 C   0  0  0  0  0  3  0  0  0  0  0  0
  -31.5660  -17.5550   21.2240 C   0  0  0  0  0  1  0  0  0  0  0  0
  -30.0590  -17.4160   20.9520 C   0  0  0  0  0  3  0  0  0  0  0  0
  -29.6230  -15.9960   20.3250 C   0  0  0  0  0  2  0  0  0  0  0  0
  -30.5270  -14.6790   20.2420 C   0  0  0  0  0  0  0  0  0  0  0  0
  -30.3280  -12.4230   19.2160 C   0  0  0  0  0  2  0  0  0  0  0  0
  -29.3750  -12.5680   18.0070 C   0  0  0  0  0  2  0  0  0  0  0  0
  -27.8990  -12.4250   18.4350 C   0  0  0  0  0  2  0  0  0  0  0  0
  -27.5570  -13.2640   19.6950 C   0  0  0  0  0  3  0  0  0  0  0  0
  -28.6320  -13.0990   20.7920 C   0  0  0  0  0  2  0  0  0  0  0  0
  -29.9360  -13.4400   20.2100 N   0  0  0  0  0  0  0  0  0  0  0  0
  -31.7130  -14.8000   19.9210 O   0  0  0  0  0  0  0  0  0  0  0  0
  -25.1750  -13.8520   20.4550 C   0  0  0  0  0  0  0  0  0  0  0  0
  -24.1170  -13.0760   20.8450 C   0  0  0  0  0  0  0  0  0  0  0  0
  -24.5840  -11.7250   20.8070 C   0  0  0  0  0  0  0  0  0  0  0  0
  -26.2190  -12.9760   20.2030 N   0  0  0  0  0  0  0  0  0  0  0  0
  -25.8690  -11.6920   20.4770 N   0  0  0  0  0  0  0  0  0  0  0  0
  -23.8640  -10.4620   21.0110 C   0  0  0  0  0  0  0  0  0  0  0  0
  -24.3220   -9.4930   21.9320 C   0  0  0  0  0  3  0  0  0  0  0  0
  -23.6050   -8.2940   22.1270 C   0  0  0  0  0  3  0  0  0  0  0  0
  -22.4140   -8.0530   21.4010 C   0  0  0  0  0  0  0  0  0  0  0  0
  -21.9730   -9.0100   20.4690 C   0  0  0  0  0  3  0  0  0  0  0  0
  -22.6930  -10.2010   20.2730 C   0  0  0  0  0  3  0  0  0  0  0  0
  -21.6670   -6.9040   21.5020 O   0  0  0  0  0  0  0  0  0  0  0  0
  -21.6580   -6.1510   22.6480 C   0  0  0  0  0  0  0  0  0  0  0  0
  -21.2820   -6.6960   23.8960 C   0  0  0  0  0  3  0  0  0  0  0  0
  -21.2180   -5.8700   25.0350 C   0  0  0  0  0  3  0  0  0  0  0  0
  -21.5210   -4.4990   24.9290 C   0  0  0  0  0  0  0  0  0  0  0  0
  -21.8890   -3.9530   23.6880 C   0  0  0  0  0  3  0  0  0  0  0  0
  -21.9550   -4.7770   22.5490 C   0  0  0  0  0  0  0  0  0  0  0  0
  -22.2910   -4.2420   21.3510 F   0  0  0  0  0  0  0  0  0  0  0  0
  -21.4520   -3.7030   26.0220 F   0  0  0  0  0  0  0  0  0  0  0  0
  -22.7220  -13.5470   21.1370 C   0  0  0  0  0  0  0  0  0  0  0  0
  -22.0140  -12.8510   22.0190 N   0  0  0  0  0  0  0  0  0  0  0  0
  -22.2700  -14.5680   20.6200 O   0  0  0  0  0  0  0  0  0  0  0  0
  -22.3940  -12.0260   22.4610 H   0  0  0  0  0  0  0  0  0  0  0  0
  -21.0770  -13.1450   22.2540 H   0  0  0  0  0  0  0  0  0  0  0  0
  -25.3290  -15.2250   20.2740 N   0  0  0  0  0  0  0  0  0  0  0  0
  -24.5610  -15.8760   20.4000 H   0  0  0  0  0  0  0  0  0  0  0  0
  -26.1740  -15.6710   19.9410 H   0  0  0  0  0  0  0  0  0  0  0  0
  1  6  1  0
  1  3  1  0
  3  5  1  0
  4  3  1  0
  4  2  1  0
  4  8  1  0
  6  2  1  0
  6 50  1  0
  6  7  1  6
  9  8  1  0
 10 21  2  0
 11  9  1  0
 11 16  1  0
 12 20  1  0
 12 22  1  0
 13 19  1  0
 13 15  1  0
 14 20  1  0
 15 14  1  0
 16 15  2  0
 17 11  2  0
 18 17  1  0
 18 13  2  0
 19 12  1  0
 20 10  1  0
 22 24  2  0
 23 22  1  0
 25 23  1  0
 26 35  2  0
 26 31  1  0
 27 23  1  0
 27 31  1  0
 28 27  1  0
 29 30  1  0
 29 28  1  0
 30 26  1  0
 31 32  2  0
 32 33  1  0
 34 33  2  0
 35 34  1  0
 36 10  1  0
 36 37  1  0
 36 46  1  0
 37 40  1  0
 38 42  1  0
 38 37  1  0
 39 38  2  0
 42 41  1  0
 44 42  1  0
 44 45  1  0
 44 43  1  0
 46 49  1  1
 46 47  1  0
 48 46  1  0
 51 53  1  0
 51 50  2  0
 53 52  1  0
 54 53  1  0
 55 54  1  0
 56 61  1  0
 57 58  1  0
 57 56  1  0
 59 58  1  0
 59 66  1  0
 59 60  1  0
 61 55  1  0
 61 60  1  0
 62 55  2  0
 63 64  2  0
 64 83  1  0
 65 64  1  0
 65 68  1  0
 66 63  1  0
 66 67  1  0
 67 65  2  0
 68 69  1  0
 69 70  2  0
 71 74  1  0
 71 70  1  0
 72 71  2  0
 73 72  1  0
 73 68  2  0
 74 75  1  0
 75 76  1  0
 76 77  2  0
 78 77  1  0
 78 82  1  0
 79 78  2  0
 80 75  2  0
 80 79  1  0
 81 80  1  0
 83 84  1  0
 84 87  1  0
 84 86  1  0
 85 83  2  0
 88 89  1  0
 88 63  1  0
 90 88  1  0
M  ISO  4   8 101   9 101  54 100  55 100
M  END
>  <TORSDO>  (58) 
F 21

>  <SCORE>  (58) 
-13.462

>  <name>  (58) 
57

>  <ligand_id>  (58) 
57

>  <original_smiles>  (58) 
[H]c1c([H])c([H])c2c(c1[H])C([H])([H])C([H])([H])C([H])([H])C2([H])N([H])C(=O)C1([H])N(C(=O)C([H])(N([H])C(=O)C([H])(N([H])C([H])([H])[H])C([H])([H])[H])C(C([H])([H])[H])(C([H])([H])[H])C([H])([H])[H])C([H])([H])c2c([H])c(OC([H])([H])C3([H])C([H])(C([H])([H])[H])C([H])([H])[N+]([H])(C([H])([H])C([H])([H])C([H])(C([H])([H])[H])C([H])([H])C(=O)N4C([H])([H])C([H])([H])C([H])([H])C([H])(n5nc(-c6c([H])c([H])c(Oc7c([H])c([H])c(F)c([H])c7F)c([H])c6[H])c(C(=O)N([H])[H])c5N([H])[H])C4([H])[H])C3([H])[H])c([H])c([H])c2C1([H])[H]

>  <smiles>  (58) 
[H]c1c([H])c([H])c2c(c1[H])C([H])([H])C([H])([H])C([H])([H])C2([H])N([H])C(=O)C1([H])N(C(=O)C([H])(N([H])C(=O)C([H])(N([H])C([H])([H])[H])C([H])([H])[H])C(C([H])([H])[H])(C([H])([H])[H])C([H])([H])[H])C([H])([H])c2c([H])c(OC([H])([H])C3([H])C([H])(C([H])([H])[H])C([H])([H])[N+]([H])(C([H])([H])C([H])([H])C([H])(C([H])([H])[H])C([H])([H])C(=O)N4C([H])([H])C([H])([H])C([H])([H])C([H])(n5nc(-c6c([H])c([H])c(Oc7c([H])c([H])c(F)c([H])c7F)c([H])c6[H])c(C(=O)N([H])[H])c5N([H])[H])C4([H])[H])C3([H])[H])c([H])c([H])c2C1([H])[H]

$$$$
58:0:0
     RDKit          3D

 93101  0  0  1  0  0  0  0  0999 V2000
  -27.9750  -21.2940   17.7950 C   0  0  0  0  0  2  0  0  0  0  0  0
  -29.2620  -22.0150   18.2180 C   0  0  0  0  0  2  0  0  0  0  0  0
  -27.6470  -20.3090   18.9430 C   0  0  0  0  0  3  0  0  0  0  0  0
  -28.7570  -20.5270   20.0020 C   0  0  0  0  0  3  0  0  0  0  0  0
  -26.2080  -20.4800   19.4820 C   0  0  0  0  0  1  0  0  0  0  0  0
  -29.2040  -22.0290   19.6910 N   0  0  2  0  0  4  0  0  0  0  0  0
  -30.1490  -22.1590   20.0290 H   0  0  0  0  0  0  0  0  0  0  0  0
  -29.8470  -19.2040   19.9120 C   0  0  0  0  0  2  0  0  0  0  0  0
  -30.7750  -15.0110   19.9390 C   0  0  0  0  0  0  0  0  0  0  0  0
  -30.4250  -12.7050   18.9390 C   0  0  0  0  0  2  0  0  0  0  0  0
  -29.4220  -12.6140   17.7740 C   0  0  0  0  0  2  0  0  0  0  0  0
  -28.0020  -12.3970   18.3210 C   0  0  0  0  0  2  0  0  0  0  0  0
  -27.6740  -13.3260   19.5160 C   0  0  0  0  0  3  0  0  0  0  0  0
  -28.8120  -13.4190   20.5550 C   0  0  0  0  0  2  0  0  0  0  0  0
  -30.0010  -13.8490   19.8110 N   0  0  0  0  0  0  0  0  0  0  0  0
  -31.9790  -14.8510   19.6960 O   0  0  0  0  0  0  0  0  0  0  0  0
  -29.5600  -17.5930   20.2530 C   0  0  0  0  0  0  0  0  0  0  0  0
  -30.3600  -16.5150   19.7260 N   0  0  0  0  0  0  0  0  0  0  0  0
  -28.5870  -17.3310   21.1470 N   0  0  0  0  0  4  0  0  0  0  0  0
  -31.0740  -17.0000   19.2120 H   0  0  0  0  0  0  0  0  0  0  0  0
  -28.0690  -18.0840   21.5800 H   0  0  0  0  0  0  0  0  0  0  0  0
  -28.4180  -16.4090   21.5210 H   0  0  0  0  0  0  0  0  0  0  0  0
  -25.3910  -13.9010   20.4910 C   0  0  0  0  0  0  0  0  0  0  0  0
  -24.3370  -13.1230   20.8870 C   0  0  0  0  0  0  0  0  0  0  0  0
  -24.7690  -11.7660   20.7620 C   0  0  0  0  0  0  0  0  0  0  0  0
  -26.3820  -13.0150   20.1120 N   0  0  0  0  0  0  0  0  0  0  0  0
  -26.0300  -11.7250   20.3480 N   0  0  0  0  0  0  0  0  0  0  0  0
  -24.0380  -10.5040   20.9540 C   0  0  0  0  0  0  0  0  0  0  0  0
  -24.4890   -9.5240   21.8660 C   0  0  0  0  0  3  0  0  0  0  0  0
  -23.7590   -8.3310   22.0550 C   0  0  0  0  0  3  0  0  0  0  0  0
  -22.5660   -8.1040   21.3270 C   0  0  0  0  0  0  0  0  0  0  0  0
  -22.1350   -9.0720   20.4020 C   0  0  0  0  0  3  0  0  0  0  0  0
  -22.8640  -10.2580   20.2110 C   0  0  0  0  0  3  0  0  0  0  0  0
  -21.8080   -6.9630   21.4270 O   0  0  0  0  0  0  0  0  0  0  0  0
  -21.7440   -6.2400   22.5930 C   0  0  0  0  0  0  0  0  0  0  0  0
  -21.2770   -6.8070   23.7980 C   0  0  0  0  0  3  0  0  0  0  0  0
  -21.1560   -6.0090   24.9540 C   0  0  0  0  0  3  0  0  0  0  0  0
  -21.4960   -4.6440   24.9060 C   0  0  0  0  0  0  0  0  0  0  0  0
  -21.9520   -4.0740   23.7040 C   0  0  0  0  0  3  0  0  0  0  0  0
  -22.0710   -4.8700   22.5510 C   0  0  0  0  0  0  0  0  0  0  0  0
  -22.4910   -4.3080   21.3920 F   0  0  0  0  0  0  0  0  0  0  0  0
  -21.3730   -3.8760   26.0140 F   0  0  0  0  0  0  0  0  0  0  0  0
  -22.9590  -13.6000   21.2540 C   0  0  0  0  0  0  0  0  0  0  0  0
  -22.2720  -12.8750   22.1280 N   0  0  0  0  0  0  0  0  0  0  0  0
  -22.5000  -14.6410   20.7890 O   0  0  0  0  0  0  0  0  0  0  0  0
  -22.6510  -12.0180   22.5060 H   0  0  0  0  0  0  0  0  0  0  0  0
  -21.3530  -13.1810   22.4210 H   0  0  0  0  0  0  0  0  0  0  0  0
  -25.6050  -15.2780   20.3860 N   0  0  0  0  0  0  0  0  0  0  0  0
  -25.0690  -15.9670   20.8980 H   0  0  0  0  0  0  0  0  0  0  0  0
  -26.4180  -15.6840   19.9340 H   0  0  0  0  0  0  0  0  0  0  0  0
  -28.4010  -23.3210   20.1900 C   0  0  0  0  0  2  0  0  0  0  0  0
  -28.6330  -24.8710   19.5680 C   0  0  0  0  0  2  0  0  0  0  0  0
  -28.4310  -26.2660   20.2060 O   0  0  0  0  0  0  0  0  0  0  0  0
  -24.6260  -31.7740   23.1490 C   0  0  0  0  0  0  0  0  0  0  0  0
  -27.3270  -27.1710   20.0800 C   0  0  0  0  0  0  0  0  0  0  0  0
  -23.4750  -30.3840   21.4640 C   0  0  0  0  0  3  0  0  0  0  0  0
  -24.9690  -28.8590   20.0280 C   0  0  0  0  0  0  0  0  0  0  0  0
  -26.0210  -30.7010   21.3430 C   0  0  0  0  0  2  0  0  0  0  0  0
  -26.1220  -29.3180   20.6770 C   0  0  0  0  0  0  0  0  0  0  0  0
  -27.2950  -28.4850   20.6970 C   0  0  0  0  0  3  0  0  0  0  0  0
  -26.1530  -26.8030   19.3920 C   0  0  0  0  0  3  0  0  0  0  0  0
  -24.9970  -27.6170   19.3730 C   0  0  0  0  0  3  0  0  0  0  0  0
  -23.7260  -29.7330   20.0750 C   0  0  0  0  0  2  0  0  0  0  0  0
  -24.7250  -30.9790   22.0370 N   0  0  0  0  0  0  0  0  0  0  0  0
  -23.5300  -32.0310   23.6670 O   0  0  0  0  0  0  0  0  0  0  0  0
  -22.8020  -29.3520   22.4030 C   0  0  0  0  0  0  0  0  0  0  0  0
  -21.4730  -29.1920   22.2840 N   0  0  0  0  0  0  0  0  0  0  0  0
  -23.4770  -28.6970   23.2030 O   0  0  0  0  0  0  0  0  0  0  0  0
  -20.9910  -29.7680   21.6070 H   0  0  0  0  0  0  0  0  0  0  0  0
  -18.0750  -28.0370   22.7860 C   0  0  0  0  0  0  0  0  0  0  0  0
  -20.6420  -28.2390   23.0280 C   0  0  0  0  0  3  0  0  0  0  0  0
  -20.7120  -26.8320   22.3890 C   0  0  0  0  0  2  0  0  0  0  0  0
  -19.5890  -26.5740   21.3810 C   0  0  0  0  0  2  0  0  0  0  0  0
  -18.2190  -26.7150   22.0510 C   0  0  0  0  0  2  0  0  0  0  0  0
  -19.2140  -28.7620   23.2290 C   0  0  0  0  0  0  0  0  0  0  0  0
  -19.0280  -30.0010   23.8790 C   0  0  0  0  0  3  0  0  0  0  0  0
  -17.7360  -30.5140   24.0940 C   0  0  0  0  0  3  0  0  0  0  0  0
  -16.6120  -29.7870   23.6670 C   0  0  0  0  0  3  0  0  0  0  0  0
  -16.7820  -28.5500   23.0210 C   0  0  0  0  0  3  0  0  0  0  0  0
  -25.8870  -32.4160   23.8050 C   0  0  0  0  0  3  0  0  0  0  0  0
  -26.3900  -31.6310   25.0810 C   0  0  1  0  0  0  0  0  0  0  0  0
  -25.2790  -31.3650   26.1240 C   0  0  0  0  0  1  0  0  0  0  0  0
  -26.9940  -30.2630   24.6870 C   0  0  0  0  0  1  0  0  0  0  0  0
  -27.5270  -32.4230   25.7690 C   0  0  0  0  0  1  0  0  0  0  0  0
  -25.5570  -33.8050   24.1540 N   0  0  0  0  0  0  0  0  0  0  0  0
  -25.8880  -34.8750   23.4170 C   0  0  0  0  0  0  0  0  0  0  0  0
  -26.5700  -34.7920   22.3900 O   0  0  0  0  0  0  0  0  0  0  0  0
  -24.9610  -33.9460   24.9560 H   0  0  0  0  0  0  0  0  0  0  0  0
  -24.1440  -36.6540   23.0620 C   0  0  0  0  0  1  0  0  0  0  0  0
  -25.3780  -36.2510   23.8840 C   0  0  0  0  0  3  0  0  0  0  0  0
  -27.4870  -37.1510   24.7660 C   0  0  0  0  0  1  0  0  0  0  0  0
  -26.4010  -37.3160   23.8020 N   0  0  0  0  0  0  0  0  0  0  0  0
  -25.9840  -38.2310   23.9490 H   0  0  0  0  0  0  0  0  0  0  0  0
  1  2  1  0
  1  3  1  0
  2  6  1  0
  3  5  1  0
  3  4  1  0
  4  8  1  0
  6  4  1  0
  6  7  1  1
  6 51  1  0
  8 17  1  0
 10 15  1  0
 11 12  1  0
 11 10  1  0
 13 12  1  0
 13 26  1  0
 13 14  1  0
 15  9  1  0
 15 14  1  0
 16  9  2  0
 17 19  2  0
 18  9  1  0
 18 17  1  0
 19 22  1  0
 19 21  1  0
 20 18  1  0
 23 24  2  0
 24 43  1  0
 25 24  1  0
 25 28  1  0
 26 27  1  0
 26 23  1  0
 27 25  2  0
 28 29  1  0
 29 30  2  0
 31 34  1  0
 31 30  1  0
 32 31  2  0
 33 32  1  0
 33 28  2  0
 34 35  1  0
 35 36  1  0
 36 37  2  0
 38 37  1  0
 38 42  1  0
 39 38  2  0
 40 35  2  0
 40 39  1  0
 41 40  1  0
 43 44  1  0
 44 47  1  0
 44 46  1  0
 45 43  2  0
 48 23  1  0
 48 49  1  0
 50 48  1  0
 52 51  1  0
 52 53  1  0
 54 65  2  0
 55 53  1  0
 55 60  1  0
 56 64  1  0
 56 66  1  0
 57 63  1  0
 57 59  1  0
 58 64  1  0
 59 60  2  0
 59 58  1  0
 61 55  2  0
 62 61  1  0
 62 57  2  0
 63 56  1  0
 64 54  1  0
 66 68  2  0
 67 66  1  0
 69 67  1  0
 70 79  2  0
 70 75  1  0
 71 67  1  0
 71 75  1  0
 72 71  1  0
 73 74  1  0
 73 72  1  0
 74 70  1  0
 75 76  2  0
 76 77  1  0
 78 77  2  0
 79 78  1  0
 80 54  1  0
 80 85  1  0
 80 81  1  0
 81 84  1  1
 81 82  1  0
 83 81  1  0
 85 88  1  0
 86 90  1  0
 86 85  1  0
 87 86  2  0
 90 89  1  0
 92 90  1  0
 92 93  1  0
 92 91  1  0
M  ISO  4   9 100  18 100  52 101  53 101
M  END
>  <TORSDO>  (59) 
F 19

>  <SCORE>  (59) 
-13.827

>  <name>  (59) 
58

>  <ligand_id>  (59) 
58

>  <original_smiles>  (59) 
[H]c1c([H])c([H])c2c(c1[H])C([H])([H])C([H])([H])C([H])([H])C2([H])N([H])C(=O)C1([H])N(C(=O)C([H])(N([H])C(=O)C([H])(N([H])C([H])([H])[H])C([H])([H])[H])C(C([H])([H])[H])(C([H])([H])[H])C([H])([H])[H])C([H])([H])c2c([H])c(OC([H])([H])C([H])([H])[N+]3([H])C([H])([H])C([H])([H])C([H])(C([H])([H])[H])C3([H])C([H])([H])C(N([H])C(=O)N3C([H])([H])C([H])([H])C([H])([H])C([H])(n4nc(-c5c([H])c([H])c(Oc6c([H])c([H])c(F)c([H])c6F)c([H])c5[H])c(C(=O)N([H])[H])c4N([H])[H])C3([H])[H])=[N+]([H])[H])c([H])c([H])c2C1([H])[H]

>  <smiles>  (59) 
[H]c1c([H])c([H])c2c(c1[H])C([H])([H])C([H])([H])C([H])([H])C2([H])N([H])C(=O)C1([H])N(C(=O)C([H])(N([H])C(=O)C([H])(N([H])C([H])([H])[H])C([H])([H])[H])C(C([H])([H])[H])(C([H])([H])[H])C([H])([H])[H])C([H])([H])c2c([H])c(OC([H])([H])C([H])([H])[N+]3([H])C([H])([H])C([H])([H])C([H])(C([H])([H])[H])C3([H])C([H])([H])C(N([H])C(=O)N3C([H])([H])C([H])([H])C([H])([H])C([H])(n4nc(-c5c([H])c([H])c(Oc6c([H])c([H])c(F)c([H])c6F)c([H])c5[H])c(C(=O)N([H])[H])c4N([H])[H])C3([H])[H])=[N+]([H])[H])c([H])c([H])c2C1([H])[H]

$$$$
59:0:0
     RDKit          3D

 86 94  0  0  1  0  0  0  0  0999 V2000
  -29.1920  -22.1750   19.7620 C   0  0  0  0  0  0  0  0  0  0  0  0
  -30.3680  -22.4670   19.9950 O   0  0  0  0  0  0  0  0  0  0  0  0
  -30.5490  -15.8040   19.3940 C   0  0  0  0  0  0  0  0  0  0  0  0
  -30.5420  -13.2590   18.5180 C   0  0  0  0  0  2  0  0  0  0  0  0
  -29.4760  -12.8110   17.4740 C   0  0  0  0  0  2  0  0  0  0  0  0
  -28.1660  -12.4050   18.1600 C   0  0  0  0  0  2  0  0  0  0  0  0
  -27.8140  -13.3890   19.2960 C   0  0  0  0  0  3  0  0  0  0  0  0
  -29.0070  -13.7300   20.2200 C   0  0  0  0  0  2  0  0  0  0  0  0
  -30.0240  -14.4240   19.3860 N   0  0  0  0  0  0  0  0  0  0  0  0
  -31.7150  -15.7240   18.9510 O   0  0  0  0  0  0  0  0  0  0  0  0
  -28.7580  -19.3720   20.8680 C   0  0  0  0  0  2  0  0  0  0  0  0
  -29.9700  -18.8270   19.0310 C   0  0  0  0  0  2  0  0  0  0  0  0
  -29.0100  -20.2890   19.6050 C   0  0  0  0  0  3  0  0  0  0  0  0
  -29.4810  -17.8860   20.9110 C   0  0  0  0  0  3  0  0  0  0  0  0
  -28.7720  -16.9550   21.8990 C   0  0  0  0  0  1  0  0  0  0  0  0
  -29.8580  -17.2210   19.5960 N   0  0  0  0  0  0  0  0  0  0  0  0
  -25.7030  -13.8590   20.6230 C   0  0  0  0  0  0  0  0  0  0  0  0
  -24.6900  -13.0640   21.0790 C   0  0  0  0  0  0  0  0  0  0  0  0
  -25.0490  -11.7260   20.7310 C   0  0  0  0  0  0  0  0  0  0  0  0
  -26.6130  -13.0080   20.0270 N   0  0  0  0  0  0  0  0  0  0  0  0
  -26.2470  -11.7040   20.1520 N   0  0  0  0  0  0  0  0  0  0  0  0
  -24.2880  -10.4760   20.8640 C   0  0  0  0  0  0  0  0  0  0  0  0
  -24.6980   -9.4480   21.7410 C   0  0  0  0  0  3  0  0  0  0  0  0
  -23.9340   -8.2670   21.8690 C   0  0  0  0  0  3  0  0  0  0  0  0
  -22.7460   -8.1050   21.1180 C   0  0  0  0  0  0  0  0  0  0  0  0
  -22.3530   -9.1220   20.2310 C   0  0  0  0  0  3  0  0  0  0  0  0
  -23.1180  -10.2940   20.1000 C   0  0  0  0  0  3  0  0  0  0  0  0
  -21.9550   -6.9820   21.1580 O   0  0  0  0  0  0  0  0  0  0  0  0
  -21.7050   -6.3190   22.3330 C   0  0  0  0  0  0  0  0  0  0  0  0
  -21.0940   -6.9570   23.4340 C   0  0  0  0  0  3  0  0  0  0  0  0
  -20.7930   -6.2210   24.5970 C   0  0  0  0  0  3  0  0  0  0  0  0
  -21.0920   -4.8460   24.6580 C   0  0  0  0  0  0  0  0  0  0  0  0
  -21.6950   -4.2080   23.5600 C   0  0  0  0  0  3  0  0  0  0  0  0
  -21.9990   -4.9420   22.4000 C   0  0  0  0  0  0  0  0  0  0  0  0
  -22.5590   -4.3160   21.3370 F   0  0  0  0  0  0  0  0  0  0  0  0
  -20.7960   -4.1370   25.7720 F   0  0  0  0  0  0  0  0  0  0  0  0
  -23.4130  -13.5380   21.7070 C   0  0  0  0  0  0  0  0  0  0  0  0
  -22.8600  -12.7600   22.6290 N   0  0  0  0  0  0  0  0  0  0  0  0
  -22.9250  -14.6300   21.4180 O   0  0  0  0  0  0  0  0  0  0  0  0
  -23.2730  -11.8730   22.8810 H   0  0  0  0  0  0  0  0  0  0  0  0
  -22.0130  -13.0550   23.0940 H   0  0  0  0  0  0  0  0  0  0  0  0
  -25.9140  -15.2340   20.6300 N   0  0  0  0  0  0  0  0  0  0  0  0
  -25.2320  -15.8840   21.0050 H   0  0  0  0  0  0  0  0  0  0  0  0
  -26.6970  -15.6950   20.1850 H   0  0  0  0  0  0  0  0  0  0  0  0
  -28.1170  -23.7300   19.6650 C   0  0  0  0  0  2  0  0  0  0  0  0
  -28.3350  -25.4870   19.9010 O   0  0  0  0  0  0  0  0  0  0  0  0
  -24.8270  -31.6830   23.1320 C   0  0  0  0  0  0  0  0  0  0  0  0
  -27.3660  -26.7200   19.9060 C   0  0  0  0  0  0  0  0  0  0  0  0
  -23.6420  -30.3540   21.4400 C   0  0  0  0  0  3  0  0  0  0  0  0
  -25.0910  -28.7700   19.9490 C   0  0  0  0  0  0  0  0  0  0  0  0
  -26.2210  -30.5000   21.3190 C   0  0  0  0  0  2  0  0  0  0  0  0
  -26.2880  -29.0940   20.5970 C   0  0  0  0  0  0  0  0  0  0  0  0
  -27.4070  -28.1000   20.5450 C   0  0  0  0  0  3  0  0  0  0  0  0
  -26.1320  -26.6190   19.2130 C   0  0  0  0  0  3  0  0  0  0  0  0
  -25.0540  -27.5590   19.2340 C   0  0  0  0  0  3  0  0  0  0  0  0
  -23.8820  -29.7180   20.0390 C   0  0  0  0  0  2  0  0  0  0  0  0
  -24.9220  -30.8780   22.0170 N   0  0  0  0  0  0  0  0  0  0  0  0
  -23.7340  -31.9580   23.6570 O   0  0  0  0  0  0  0  0  0  0  0  0
  -22.9280  -29.3360   22.3690 C   0  0  0  0  0  0  0  0  0  0  0  0
  -21.5970  -29.1730   22.2310 N   0  0  0  0  0  0  0  0  0  0  0  0
  -23.5840  -28.6890   23.1890 O   0  0  0  0  0  0  0  0  0  0  0  0
  -21.1170  -29.7470   21.5520 H   0  0  0  0  0  0  0  0  0  0  0  0
  -18.2190  -27.9110   22.6900 C   0  0  0  0  0  0  0  0  0  0  0  0
  -20.7780  -28.1980   22.9620 C   0  0  0  0  0  3  0  0  0  0  0  0
  -20.8920  -26.7900   22.3300 C   0  0  0  0  0  2  0  0  0  0  0  0
  -19.7940  -26.4990   21.3020 C   0  0  0  0  0  2  0  0  0  0  0  0
  -18.4110  -26.5980   21.9500 C   0  0  0  0  0  2  0  0  0  0  0  0
  -19.3290  -28.6690   23.1500 C   0  0  0  0  0  0  0  0  0  0  0  0
  -19.0920  -29.8950   23.8090 C   0  0  0  0  0  3  0  0  0  0  0  0
  -17.7800  -30.3670   24.0050 C   0  0  0  0  0  3  0  0  0  0  0  0
  -16.6860  -29.6070   23.5570 C   0  0  0  0  0  3  0  0  0  0  0  0
  -16.9050  -28.3800   22.9060 C   0  0  0  0  0  3  0  0  0  0  0  0
  -26.0880  -32.3110   23.8020 C   0  0  0  0  0  3  0  0  0  0  0  0
  -25.7680  -33.7020   24.1790 N   0  0  0  0  0  0  0  0  0  0  0  0
  -26.0520  -34.7880   23.4480 C   0  0  0  0  0  0  0  0  0  0  0  0
  -26.6700  -34.7260   22.3830 O   0  0  0  0  0  0  0  0  0  0  0  0
  -25.2120  -33.8220   25.0130 H   0  0  0  0  0  0  0  0  0  0  0  0
  -24.2730  -36.5670   23.2830 C   0  0  0  0  0  1  0  0  0  0  0  0
  -25.5820  -36.1610   23.9790 C   0  0  0  0  0  3  0  0  0  0  0  0
  -27.7520  -37.0850   24.6710 C   0  0  0  0  0  1  0  0  0  0  0  0
  -26.5850  -37.2360   23.8070 N   0  0  0  0  0  0  0  0  0  0  0  0
  -26.1710  -38.1470   23.9900 H   0  0  0  0  0  0  0  0  0  0  0  0
  -26.5730  -31.5120   25.0750 C   0  0  1  0  0  0  0  0  0  0  0  0
  -25.4560  -31.2550   26.1140 C   0  0  0  0  0  1  0  0  0  0  0  0
  -27.1640  -30.1410   24.6790 C   0  0  0  0  0  1  0  0  0  0  0  0
  -27.7100  -32.2900   25.7790 C   0  0  0  0  0  1  0  0  0  0  0  0
  1  2  2  0
  3 16  1  0
  4  9  1  0
  5  6  1  0
  5  4  1  0
  7  6  1  0
  7 20  1  0
  7  8  1  0
  9  3  1  0
  9  8  1  0
 10  3  2  0
 11 14  1  0
 12 16  1  0
 12 13  1  0
 13  1  1  0
 13 11  1  0
 14 15  1  0
 16 14  1  0
 17 42  1  0
 17 18  2  0
 18 37  1  0
 19 22  1  0
 19 18  1  0
 20 21  1  0
 20 17  1  0
 21 19  2  0
 22 23  1  0
 23 24  2  0
 25 28  1  0
 25 24  1  0
 26 25  2  0
 27 26  1  0
 27 22  2  0
 28 29  1  0
 29 34  2  0
 29 30  1  0
 30 31  2  0
 31 32  1  0
 32 36  1  0
 33 32  2  0
 34 33  1  0
 35 34  1  0
 37 38  1  0
 38 40  1  0
 38 41  1  0
 39 37  2  0
 42 43  1  0
 44 42  1  0
 45  1  1  0
 45 46  1  0
 46 48  1  0
 47 58  2  0
 48 53  1  0
 49 57  1  0
 49 59  1  0
 50 56  1  0
 50 52  1  0
 51 57  1  0
 52 51  1  0
 53 52  2  0
 54 55  1  0
 54 48  2  0
 55 50  2  0
 56 49  1  0
 57 47  1  0
 59 61  2  0
 60 59  1  0
 62 60  1  0
 63 72  2  0
 63 68  1  0
 64 60  1  0
 64 68  1  0
 65 64  1  0
 66 67  1  0
 66 65  1  0
 67 63  1  0
 68 69  2  0
 69 70  1  0
 71 70  2  0
 72 71  1  0
 73 47  1  0
 73 74  1  0
 73 83  1  0
 74 77  1  0
 75 79  1  0
 75 74  1  0
 76 75  2  0
 79 78  1  0
 81 79  1  0
 81 82  1  0
 81 80  1  0
 83 86  1  1
 83 84  1  0
 85 83  1  0
M  ISO  4   3 100  16 100  45 101  46 101
M  END
>  <TORSDO>  (60) 
F 17

>  <SCORE>  (60) 
-12.138

>  <name>  (60) 
59

>  <ligand_id>  (60) 
59

>  <original_smiles>  (60) 
[H]c1c([H])c([H])c2c(c1[H])C([H])([H])C([H])([H])C([H])([H])C2([H])N([H])C(=O)C1([H])N(C(=O)C([H])(N([H])C(=O)C([H])(N([H])C([H])([H])[H])C([H])([H])[H])C(C([H])([H])[H])(C([H])([H])[H])C([H])([H])[H])C([H])([H])c2c([H])c(OC([H])([H])C(=O)C3([H])C([H])([H])N(C(=O)N4C([H])([H])C([H])([H])C([H])([H])C([H])(n5nc(-c6c([H])c([H])c(Oc7c([H])c([H])c(F)c([H])c7F)c([H])c6[H])c(C(=O)N([H])[H])c5N([H])[H])C4([H])[H])C([H])(C([H])([H])[H])C3([H])[H])c([H])c([H])c2C1([H])[H]

>  <smiles>  (60) 
[H]c1c([H])c([H])c2c(c1[H])C([H])([H])C([H])([H])C([H])([H])C2([H])N([H])C(=O)C1([H])N(C(=O)C([H])(N([H])C(=O)C([H])(N([H])C([H])([H])[H])C([H])([H])[H])C(C([H])([H])[H])(C([H])([H])[H])C([H])([H])[H])C([H])([H])c2c([H])c(OC([H])([H])C(=O)C3([H])C([H])([H])N(C(=O)N4C([H])([H])C([H])([H])C([H])([H])C([H])(n5nc(-c6c([H])c([H])c(Oc7c([H])c([H])c(F)c([H])c7F)c([H])c6[H])c(C(=O)N([H])[H])c5N([H])[H])C4([H])[H])C([H])(C([H])([H])[H])C3([H])[H])c([H])c([H])c2C1([H])[H]

$$$$
60:0:0
     RDKit          3D

 90 98  0  0  1  0  0  0  0  0999 V2000
  -29.3970  -22.2730   21.1080 C   0  0  0  0  0  2  0  0  0  0  0  0
  -28.5940  -21.9550   19.2900 C   0  0  0  0  0  2  0  0  0  0  0  0
  -28.3930  -23.2090   20.2920 C   0  0  0  0  0  3  0  0  0  0  0  0
  -28.9360  -20.8880   20.4280 C   0  0  0  0  0  3  0  0  0  0  0  0
  -28.5510  -24.8210   19.7870 C   0  0  0  0  0  2  0  0  0  0  0  0
  -28.3350  -26.2130   20.4600 O   0  0  0  0  0  0  0  0  0  0  0  0
  -24.7340  -31.9280   23.2580 C   0  0  0  0  0  0  0  0  0  0  0  0
  -27.2690  -27.1700   20.2920 C   0  0  0  0  0  0  0  0  0  0  0  0
  -23.5140  -30.5290   21.6270 C   0  0  0  0  0  3  0  0  0  0  0  0
  -24.9490  -28.9200   20.2260 C   0  0  0  0  0  0  0  0  0  0  0  0
  -26.0670  -30.7850   21.4470 C   0  0  0  0  0  2  0  0  0  0  0  0
  -26.1320  -29.3830   20.8120 C   0  0  0  0  0  0  0  0  0  0  0  0
  -27.2890  -28.5200   20.8290 C   0  0  0  0  0  3  0  0  0  0  0  0
  -26.0610  -26.7970   19.6670 C   0  0  0  0  0  3  0  0  0  0  0  0
  -24.9240  -27.6390   19.6460 C   0  0  0  0  0  3  0  0  0  0  0  0
  -23.7250  -29.8200   20.2610 C   0  0  0  0  0  2  0  0  0  0  0  0
  -24.7920  -31.1020   22.1690 N   0  0  0  0  0  0  0  0  0  0  0  0
  -23.6540  -32.2270   23.7890 O   0  0  0  0  0  0  0  0  0  0  0  0
  -22.8250  -29.5460   22.6060 C   0  0  0  0  0  0  0  0  0  0  0  0
  -21.5010  -29.3510   22.4530 N   0  0  0  0  0  0  0  0  0  0  0  0
  -23.4830  -28.9550   23.4660 O   0  0  0  0  0  0  0  0  0  0  0  0
  -21.0190  -29.8830   21.7410 H   0  0  0  0  0  0  0  0  0  0  0  0
  -18.1350  -28.0970   22.9050 C   0  0  0  0  0  0  0  0  0  0  0  0
  -20.6800  -28.4200   23.2330 C   0  0  0  0  0  3  0  0  0  0  0  0
  -20.8240  -26.9720   22.7100 C   0  0  0  0  0  2  0  0  0  0  0  0
  -19.7600  -26.5960   21.6730 C   0  0  0  0  0  2  0  0  0  0  0  0
  -18.3580  -26.7320   22.2750 C   0  0  0  0  0  2  0  0  0  0  0  0
  -19.2250  -28.8950   23.3420 C   0  0  0  0  0  0  0  0  0  0  0  0
  -18.9650  -30.1680   23.8930 C   0  0  0  0  0  3  0  0  0  0  0  0
  -17.6470  -30.6470   24.0070 C   0  0  0  0  0  3  0  0  0  0  0  0
  -16.5700  -29.8470   23.5880 C   0  0  0  0  0  3  0  0  0  0  0  0
  -16.8140  -28.5730   23.0440 C   0  0  0  0  0  3  0  0  0  0  0  0
  -26.0210  -32.5540   23.8810 C   0  0  0  0  0  3  0  0  0  0  0  0
  -25.7320  -33.9640   24.1890 N   0  0  0  0  0  0  0  0  0  0  0  0
  -26.1000  -35.0020   23.4250 C   0  0  0  0  0  0  0  0  0  0  0  0
  -26.7800  -34.8700   22.4040 O   0  0  0  0  0  0  0  0  0  0  0  0
  -25.1320  -34.1460   24.9810 H   0  0  0  0  0  0  0  0  0  0  0  0
  -24.4270  -36.8310   23.0230 C   0  0  0  0  0  1  0  0  0  0  0  0
  -25.6390  -36.4040   23.8640 C   0  0  0  0  0  3  0  0  0  0  0  0
  -27.7720  -37.2460   24.7410 C   0  0  0  0  0  1  0  0  0  0  0  0
  -26.7000  -37.4300   23.7650 N   0  0  0  0  0  0  0  0  0  0  0  0
  -26.3130  -38.3610   23.8910 H   0  0  0  0  0  0  0  0  0  0  0  0
  -26.5190  -31.8000   25.1760 C   0  0  1  0  0  0  0  0  0  0  0  0
  -25.4080  -31.5780   26.2270 C   0  0  0  0  0  1  0  0  0  0  0  0
  -27.1120  -30.4190   24.8210 C   0  0  0  0  0  1  0  0  0  0  0  0
  -27.6550  -32.6070   25.8480 C   0  0  0  0  0  1  0  0  0  0  0  0
  -29.8500  -19.4420   20.5450 C   0  0  0  0  0  3  0  0  0  0  0  0
  -29.9050  -19.2000   21.9970 N   0  0  0  0  0  4  0  0  0  0  0  0
  -30.5700  -18.4840   22.2240 H   0  0  0  0  0  0  0  0  0  0  0  0
  -29.0040  -18.9240   22.3440 H   0  0  0  0  0  0  0  0  0  0  0  0
  -30.1750  -20.0430   22.4730 H   0  0  0  0  0  0  0  0  0  0  0  0
  -30.1230  -18.0030   18.3820 C   0  0  0  0  0  1  0  0  0  0  0  0
  -29.6570  -17.9060   19.8350 C   0  0  0  0  0  3  0  0  0  0  0  0
  -30.2320  -16.4590   20.5530 C   0  0  0  0  0  2  0  0  0  0  0  0
  -30.8700  -15.0320   19.9280 C   0  0  0  0  0  0  0  0  0  0  0  0
  -30.7140  -12.6520   19.0140 C   0  0  0  0  0  2  0  0  0  0  0  0
  -29.7380  -12.6210   17.8110 C   0  0  0  0  0  2  0  0  0  0  0  0
  -28.2860  -12.4470   18.3010 C   0  0  0  0  0  2  0  0  0  0  0  0
  -27.9500  -13.3740   19.5000 C   0  0  0  0  0  3  0  0  0  0  0  0
  -29.0440  -13.3570   20.5860 C   0  0  0  0  0  2  0  0  0  0  0  0
  -30.2950  -13.7570   19.9340 N   0  0  0  0  0  0  0  0  0  0  0  0
  -32.0020  -15.0870   19.4330 O   0  0  0  0  0  0  0  0  0  0  0  0
  -25.6270  -14.0040   20.3670 C   0  0  0  0  0  0  0  0  0  0  0  0
  -24.5560  -13.2580   20.7670 C   0  0  0  0  0  0  0  0  0  0  0  0
  -24.9720  -11.8920   20.6820 C   0  0  0  0  0  0  0  0  0  0  0  0
  -26.6270  -13.1020   20.0490 N   0  0  0  0  0  0  0  0  0  0  0  0
  -26.2460  -11.8220   20.3050 N   0  0  0  0  0  0  0  0  0  0  0  0
  -24.2150  -10.6500   20.8790 C   0  0  0  0  0  0  0  0  0  0  0  0
  -24.6050   -9.6860   21.8350 C   0  0  0  0  0  3  0  0  0  0  0  0
  -23.8430   -8.5120   22.0170 C   0  0  0  0  0  3  0  0  0  0  0  0
  -22.6810   -8.2900   21.2420 C   0  0  0  0  0  0  0  0  0  0  0  0
  -22.3110   -9.2410   20.2760 C   0  0  0  0  0  3  0  0  0  0  0  0
  -23.0740  -10.4080   20.0910 C   0  0  0  0  0  3  0  0  0  0  0  0
  -21.8970   -7.1640   21.3300 O   0  0  0  0  0  0  0  0  0  0  0  0
  -21.7370   -6.4900   22.5130 C   0  0  0  0  0  0  0  0  0  0  0  0
  -21.1740   -7.1070   23.6520 C   0  0  0  0  0  3  0  0  0  0  0  0
  -20.9600   -6.3570   24.8260 C   0  0  0  0  0  3  0  0  0  0  0  0
  -21.3040   -4.9920   24.8640 C   0  0  0  0  0  0  0  0  0  0  0  0
  -21.8640   -4.3760   23.7310 C   0  0  0  0  0  3  0  0  0  0  0  0
  -22.0760   -5.1220   22.5600 C   0  0  0  0  0  0  0  0  0  0  0  0
  -22.5940   -4.5170   21.4640 F   0  0  0  0  0  0  0  0  0  0  0  0
  -21.0960   -4.2720   25.9920 F   0  0  0  0  0  0  0  0  0  0  0  0
  -23.1900  -13.7720   21.1190 C   0  0  0  0  0  0  0  0  0  0  0  0
  -22.4860  -13.0880   22.0100 N   0  0  0  0  0  0  0  0  0  0  0  0
  -22.7640  -14.8240   20.6380 O   0  0  0  0  0  0  0  0  0  0  0  0
  -22.8500  -12.2400   22.4180 H   0  0  0  0  0  0  0  0  0  0  0  0
  -21.5720  -13.4140   22.2910 H   0  0  0  0  0  0  0  0  0  0  0  0
  -25.8240  -15.3760   20.2220 N   0  0  0  0  0  0  0  0  0  0  0  0
  -25.0750  -16.0360   20.4020 H   0  0  0  0  0  0  0  0  0  0  0  0
  -26.6500  -15.8080   19.8300 H   0  0  0  0  0  0  0  0  0  0  0  0
  2  3  1  0
  2  4  1  0
  3  5  1  0
  3  1  1  0
  4 47  1  0
  4  1  1  0
  5  6  1  0
  7 18  2  0
  8  6  1  0
  8 13  1  0
  9 17  1  0
  9 19  1  0
 10 16  1  0
 10 12  1  0
 11 17  1  0
 12 13  2  0
 12 11  1  0
 14  8  2  0
 15 14  1  0
 15 10  2  0
 16  9  1  0
 17  7  1  0
 19 21  2  0
 20 19  1  0
 22 20  1  0
 23 32  2  0
 23 28  1  0
 24 20  1  0
 24 28  1  0
 25 24  1  0
 26 27  1  0
 26 25  1  0
 27 23  1  0
 28 29  2  0
 29 30  1  0
 31 30  2  0
 32 31  1  0
 33  7  1  0
 33 34  1  0
 33 43  1  0
 34 37  1  0
 35 39  1  0
 35 34  1  0
 36 35  2  0
 39 38  1  0
 41 39  1  0
 41 42  1  0
 41 40  1  0
 43 46  1  1
 43 44  1  0
 45 43  1  0
 47 48  1  0
 48 49  1  0
 48 50  1  0
 48 51  1  0
 53 52  1  0
 53 47  1  0
 53 54  1  0
 55 61  1  0
 55 54  1  0
 56 61  1  0
 57 58  1  0
 57 56  1  0
 59 58  1  0
 59 66  1  0
 59 60  1  0
 61 60  1  0
 62 55  2  0
 63 64  2  0
 64 83  1  0
 65 64  1  0
 65 68  1  0
 66 67  1  0
 66 63  1  0
 67 65  2  0
 68 69  1  0
 69 70  2  0
 71 74  1  0
 71 70  1  0
 72 71  2  0
 73 72  1  0
 73 68  2  0
 74 75  1  0
 75 80  2  0
 75 76  1  0
 76 77  2  0
 77 78  1  0
 78 82  1  0
 79 78  2  0
 80 79  1  0
 81 80  1  0
 83 84  1  0
 84 87  1  0
 84 86  1  0
 85 83  2  0
 88 63  1  0
 88 89  1  0
 90 88  1  0
M  ISO  4   5 101   6 101  54 100  55 100
M  END
>  <TORSDO>  (61) 
F 21

>  <SCORE>  (61) 
-15.320

>  <name>  (61) 
60

>  <ligand_id>  (61) 
60

>  <original_smiles>  (61) 
[H]c1c([H])c([H])c2c(c1[H])C([H])([H])C([H])([H])C([H])([H])C2([H])N([H])C(=O)C1([H])N(C(=O)C([H])(N([H])C(=O)C([H])(N([H])C([H])([H])[H])C([H])([H])[H])C(C([H])([H])[H])(C([H])([H])[H])C([H])([H])[H])C([H])([H])c2c([H])c(OC([H])([H])C3([H])C([H])([H])C([H])(C([H])(C([H])(C([H])([H])[H])C([H])([H])C(=O)N4C([H])([H])C([H])([H])C([H])([H])C([H])(n5nc(-c6c([H])c([H])c(Oc7c([H])c([H])c(F)c([H])c7F)c([H])c6[H])c(C(=O)N([H])[H])c5N([H])[H])C4([H])[H])[N+]([H])([H])[H])C3([H])[H])c([H])c([H])c2C1([H])[H]

>  <smiles>  (61) 
[H]c1c([H])c([H])c2c(c1[H])C([H])([H])C([H])([H])C([H])([H])C2([H])N([H])C(=O)C1([H])N(C(=O)C([H])(N([H])C(=O)C([H])(N([H])C([H])([H])[H])C([H])([H])[H])C(C([H])([H])[H])(C([H])([H])[H])C([H])([H])[H])C([H])([H])c2c([H])c(OC([H])([H])C3([H])C([H])([H])C([H])(C([H])(C([H])(C([H])([H])[H])C([H])([H])C(=O)N4C([H])([H])C([H])([H])C([H])([H])C([H])(n5nc(-c6c([H])c([H])c(Oc7c([H])c([H])c(F)c([H])c7F)c([H])c6[H])c(C(=O)N([H])[H])c5N([H])[H])C4([H])[H])[N+]([H])([H])[H])C3([H])[H])c([H])c([H])c2C1([H])[H]

$$$$
61:0:0
     RDKit          3D

 89 97  0  0  1  0  0  0  0  0999 V2000
  -28.7370  -21.1500   21.8670 C   0  0  0  0  0  2  0  0  0  0  0  0
  -27.3300  -21.7550   21.7660 C   0  0  0  0  0  2  0  0  0  0  0  0
  -29.4530  -21.6170   20.5950 C   0  0  0  0  0  3  0  0  0  0  0  0
  -28.7960  -23.2830   20.6040 C   0  0  0  0  0  3  0  0  0  0  0  0
  -27.4550  -23.1150   21.2040 N   0  0  0  0  0  4  0  0  0  0  0  0
  -27.3410  -23.7870   21.9480 H   0  0  0  0  0  0  0  0  0  0  0  0
  -26.7180  -23.2780   20.5380 H   0  0  0  0  0  0  0  0  0  0  0  0
  -28.3780  -20.5030   18.5470 C   0  0  0  0  0  1  0  0  0  0  0  0
  -29.4930  -20.2050   19.5710 C   0  0  0  0  0  3  0  0  0  0  0  0
  -29.4460  -18.4220   19.7450 C   0  0  0  0  0  2  0  0  0  0  0  0
  -30.2480  -17.0560   20.5020 C   0  0  0  0  0  2  0  0  0  0  0  0
  -30.8120  -15.5110   19.9660 C   0  0  0  0  0  0  0  0  0  0  0  0
  -30.7090  -13.0780   19.1160 C   0  0  0  0  0  2  0  0  0  0  0  0
  -29.7660  -12.9720   17.8920 C   0  0  0  0  0  2  0  0  0  0  0  0
  -28.3110  -12.7600   18.3470 C   0  0  0  0  0  2  0  0  0  0  0  0
  -27.9170  -13.6900   19.5240 C   0  0  0  0  0  3  0  0  0  0  0  0
  -28.9980  -13.7630   20.6220 C   0  0  0  0  0  2  0  0  0  0  0  0
  -30.2400  -14.2150   19.9840 N   0  0  0  0  0  0  0  0  0  0  0  0
  -31.9690  -15.4980   19.5220 O   0  0  0  0  0  0  0  0  0  0  0  0
  -25.5820  -14.2570   20.3910 C   0  0  0  0  0  0  0  0  0  0  0  0
  -24.5200  -13.4850   20.7660 C   0  0  0  0  0  0  0  0  0  0  0  0
  -24.9570  -12.1270   20.6550 C   0  0  0  0  0  0  0  0  0  0  0  0
  -26.5990  -13.3760   20.0650 N   0  0  0  0  0  0  0  0  0  0  0  0
  -26.2350  -12.0850   20.2910 N   0  0  0  0  0  0  0  0  0  0  0  0
  -24.2140  -10.8710   20.8220 C   0  0  0  0  0  0  0  0  0  0  0  0
  -24.6220   -9.8850   21.7490 C   0  0  0  0  0  3  0  0  0  0  0  0
  -23.8740   -8.6970   21.9050 C   0  0  0  0  0  3  0  0  0  0  0  0
  -22.7020   -8.4880   21.1400 C   0  0  0  0  0  0  0  0  0  0  0  0
  -22.3130   -9.4620   20.2050 C   0  0  0  0  0  3  0  0  0  0  0  0
  -23.0620  -10.6410   20.0450 C   0  0  0  0  0  3  0  0  0  0  0  0
  -21.9270   -7.3540   21.2100 O   0  0  0  0  0  0  0  0  0  0  0  0
  -21.8170   -6.6270   22.3680 C   0  0  0  0  0  0  0  0  0  0  0  0
  -21.3180   -7.1950   23.5610 C   0  0  0  0  0  3  0  0  0  0  0  0
  -21.1570   -6.3920   24.7080 C   0  0  0  0  0  3  0  0  0  0  0  0
  -21.4810   -5.0230   24.6610 C   0  0  0  0  0  0  0  0  0  0  0  0
  -21.9710   -4.4550   23.4710 C   0  0  0  0  0  3  0  0  0  0  0  0
  -22.1370   -5.2540   22.3270 C   0  0  0  0  0  0  0  0  0  0  0  0
  -22.5890   -4.6980   21.1780 F   0  0  0  0  0  0  0  0  0  0  0  0
  -21.3170   -4.2510   25.7590 F   0  0  0  0  0  0  0  0  0  0  0  0
  -23.1420  -13.9740   21.1040 C   0  0  0  0  0  0  0  0  0  0  0  0
  -22.4310  -13.2560   21.9650 N   0  0  0  0  0  0  0  0  0  0  0  0
  -22.7080  -15.0290   20.6410 O   0  0  0  0  0  0  0  0  0  0  0  0
  -22.7960  -12.4040   22.3630 H   0  0  0  0  0  0  0  0  0  0  0  0
  -21.5080  -13.5660   22.2340 H   0  0  0  0  0  0  0  0  0  0  0  0
  -25.7620  -15.6320   20.2650 N   0  0  0  0  0  0  0  0  0  0  0  0
  -25.0070  -16.2870   20.4280 H   0  0  0  0  0  0  0  0  0  0  0  0
  -26.5960  -16.0750   19.8990 H   0  0  0  0  0  0  0  0  0  0  0  0
  -28.8570  -24.8240   19.7560 C   0  0  0  0  0  2  0  0  0  0  0  0
  -28.7300  -26.3670   20.2550 O   0  0  0  0  0  0  0  0  0  0  0  0
  -24.7930  -31.9570   23.2320 C   0  0  0  0  0  0  0  0  0  0  0  0
  -27.6420  -27.3520   20.1390 C   0  0  0  0  0  0  0  0  0  0  0  0
  -23.6960  -30.5520   21.5280 C   0  0  0  0  0  3  0  0  0  0  0  0
  -25.2470  -29.0760   20.0860 C   0  0  0  0  0  0  0  0  0  0  0  0
  -26.2440  -30.9130   21.4340 C   0  0  0  0  0  2  0  0  0  0  0  0
  -26.3940  -29.5330   20.7440 C   0  0  0  0  0  0  0  0  0  0  0  0
  -27.5850  -28.6900   20.7520 C   0  0  0  0  0  3  0  0  0  0  0  0
  -26.4590  -27.0260   19.4350 C   0  0  0  0  0  3  0  0  0  0  0  0
  -25.3020  -27.8440   19.4120 C   0  0  0  0  0  3  0  0  0  0  0  0
  -23.9780  -29.9210   20.1360 C   0  0  0  0  0  2  0  0  0  0  0  0
  -24.9280  -31.1670   22.1200 N   0  0  0  0  0  0  0  0  0  0  0  0
  -23.6820  -32.1790   23.7390 O   0  0  0  0  0  0  0  0  0  0  0  0
  -23.0400  -29.4940   22.4540 C   0  0  0  0  0  0  0  0  0  0  0  0
  -21.7180  -29.2880   22.3170 N   0  0  0  0  0  0  0  0  0  0  0  0
  -23.7290  -28.8620   23.2600 O   0  0  0  0  0  0  0  0  0  0  0  0
  -21.2180  -29.8520   21.6450 H   0  0  0  0  0  0  0  0  0  0  0  0
  -18.3680  -27.9870   22.8000 C   0  0  0  0  0  0  0  0  0  0  0  0
  -20.9240  -28.2940   23.0490 C   0  0  0  0  0  3  0  0  0  0  0  0
  -21.0470  -26.8980   22.3970 C   0  0  0  0  0  2  0  0  0  0  0  0
  -19.9390  -26.6050   21.3800 C   0  0  0  0  0  2  0  0  0  0  0  0
  -18.5640  -26.6820   22.0490 C   0  0  0  0  0  2  0  0  0  0  0  0
  -19.4750  -28.7520   23.2540 C   0  0  0  0  0  0  0  0  0  0  0  0
  -19.2320  -29.9740   23.9200 C   0  0  0  0  0  3  0  0  0  0  0  0
  -17.9180  -30.4280   24.1350 C   0  0  0  0  0  3  0  0  0  0  0  0
  -16.8270  -29.6620   23.6910 C   0  0  0  0  0  3  0  0  0  0  0  0
  -17.0530  -28.4400   23.0320 C   0  0  0  0  0  3  0  0  0  0  0  0
  -26.0210  -32.6380   23.9110 C   0  0  0  0  0  3  0  0  0  0  0  0
  -26.4990  -31.8930   25.2200 C   0  0  1  0  0  0  0  0  0  0  0  0
  -25.3630  -31.6310   26.2380 C   0  0  0  0  0  1  0  0  0  0  0  0
  -27.1420  -30.5290   24.8750 C   0  0  0  0  0  1  0  0  0  0  0  0
  -27.5950  -32.7290   25.9250 C   0  0  0  0  0  1  0  0  0  0  0  0
  -25.6520  -34.0280   24.2240 N   0  0  0  0  0  0  0  0  0  0  0  0
  -25.9740  -35.0930   23.4760 C   0  0  0  0  0  0  0  0  0  0  0  0
  -26.6720  -35.0080   22.4630 O   0  0  0  0  0  0  0  0  0  0  0  0
  -25.0370  -34.1680   25.0110 H   0  0  0  0  0  0  0  0  0  0  0  0
  -24.1940  -36.8300   23.0810 C   0  0  0  0  0  1  0  0  0  0  0  0
  -25.4340  -36.4680   23.9170 C   0  0  0  0  0  3  0  0  0  0  0  0
  -27.5200  -37.4340   24.7870 C   0  0  0  0  0  1  0  0  0  0  0  0
  -26.4340  -37.5530   23.8170 N   0  0  0  0  0  0  0  0  0  0  0  0
  -25.9950  -38.4620   23.9420 H   0  0  0  0  0  0  0  0  0  0  0  0
  2  1  1  0
  3  9  1  0
  3  4  1  0
  3  1  1  0
  4 48  1  0
  4  5  1  0
  5  2  1  0
  5  6  1  0
  7  5  1  0
  9  8  1  0
  9 10  1  0
 10 11  1  0
 12 18  1  0
 12 11  1  0
 13 18  1  0
 14 15  1  0
 14 13  1  0
 16 15  1  0
 16 23  1  0
 16 17  1  0
 18 17  1  0
 19 12  2  0
 20 21  2  0
 21 40  1  0
 22 21  1  0
 22 25  1  0
 23 24  1  0
 23 20  1  0
 24 22  2  0
 25 26  1  0
 26 27  2  0
 28 31  1  0
 28 27  1  0
 29 28  2  0
 30 29  1  0
 30 25  2  0
 31 32  1  0
 32 33  1  0
 33 34  2  0
 35 34  1  0
 35 39  1  0
 36 35  2  0
 37 32  2  0
 37 36  1  0
 38 37  1  0
 40 41  1  0
 41 44  1  0
 41 43  1  0
 42 40  2  0
 45 20  1  0
 45 46  1  0
 47 45  1  0
 48 49  1  0
 50 61  2  0
 51 49  1  0
 51 56  1  0
 52 60  1  0
 52 62  1  0
 53 59  1  0
 53 55  1  0
 54 60  1  0
 55 56  2  0
 55 54  1  0
 57 51  2  0
 58 57  1  0
 58 53  2  0
 59 52  1  0
 60 50  1  0
 62 64  2  0
 63 62  1  0
 65 63  1  0
 66 75  2  0
 66 71  1  0
 67 63  1  0
 67 71  1  0
 68 67  1  0
 69 70  1  0
 69 68  1  0
 70 66  1  0
 71 72  2  0
 72 73  1  0
 74 73  2  0
 75 74  1  0
 76 50  1  0
 76 81  1  0
 76 77  1  0
 77 80  1  1
 77 78  1  0
 79 77  1  0
 81 84  1  0
 82 86  1  0
 82 81  1  0
 83 82  2  0
 86 85  1  0
 88 86  1  0
 88 89  1  0
 88 87  1  0
M  ISO  4  11 100  12 100  48 101  49 101
M  END
>  <TORSDO>  (62) 
F 20

>  <SCORE>  (62) 
-14.392

>  <name>  (62) 
61

>  <ligand_id>  (62) 
61

>  <original_smiles>  (62) 
[H]c1c([H])c([H])c2c(c1[H])C([H])([H])C([H])([H])C([H])([H])C2([H])N([H])C(=O)C1([H])N(C(=O)C([H])(N([H])C(=O)C([H])(N([H])C([H])([H])[H])C([H])([H])[H])C(C([H])([H])[H])(C([H])([H])[H])C([H])([H])[H])C([H])([H])c2c([H])c(OC([H])([H])C3([H])C([H])(C([H])(C([H])([H])[H])C([H])([H])C([H])([H])C(=O)N4C([H])([H])C([H])([H])C([H])([H])C([H])(n5nc(-c6c([H])c([H])c(Oc7c([H])c([H])c(F)c([H])c7F)c([H])c6[H])c(C(=O)N([H])[H])c5N([H])[H])C4([H])[H])C([H])([H])C([H])([H])[N+]3([H])[H])c([H])c([H])c2C1([H])[H]

>  <smiles>  (62) 
[H]c1c([H])c([H])c2c(c1[H])C([H])([H])C([H])([H])C([H])([H])C2([H])N([H])C(=O)C1([H])N(C(=O)C([H])(N([H])C(=O)C([H])(N([H])C([H])([H])[H])C([H])([H])[H])C(C([H])([H])[H])(C([H])([H])[H])C([H])([H])[H])C([H])([H])c2c([H])c(OC([H])([H])C3([H])C([H])(C([H])(C([H])([H])[H])C([H])([H])C([H])([H])C(=O)N4C([H])([H])C([H])([H])C([H])([H])C([H])(n5nc(-c6c([H])c([H])c(Oc7c([H])c([H])c(F)c([H])c7F)c([H])c6[H])c(C(=O)N([H])[H])c5N([H])[H])C4([H])[H])C([H])([H])C([H])([H])[N+]3([H])[H])c([H])c([H])c2C1([H])[H]

$$$$
62:0:0
     RDKit          3D

 90 98  0  0  1  0  0  0  0  0999 V2000
  -29.0260  -19.6260   19.2100 C   0  0  0  0  0  3  0  0  0  0  0  0
  -29.3490  -18.2180   19.2810 C   0  0  0  0  0  3  0  0  0  0  0  0
  -30.2620  -18.5530   21.4320 C   0  0  0  0  0  3  0  0  0  0  0  0
  -29.2590  -20.5810   20.2580 C   0  0  0  0  0  0  0  0  0  0  0  0
  -29.9530  -19.9730   21.3650 C   0  0  0  0  0  0  0  0  0  0  0  0
  -29.9550  -17.5930   20.4120 C   0  0  0  0  0  0  0  0  0  0  0  0
  -30.3340  -20.8210   22.5660 C   0  0  0  0  0  1  0  0  0  0  0  0
  -30.7860  -15.0120   20.2580 C   0  0  0  0  0  0  0  0  0  0  0  0
  -30.6880  -12.6600   19.3460 C   0  0  0  0  0  2  0  0  0  0  0  0
  -29.7390  -12.6190   18.1230 C   0  0  0  0  0  2  0  0  0  0  0  0
  -28.2800  -12.4080   18.5720 C   0  0  0  0  0  2  0  0  0  0  0  0
  -27.8810  -13.3460   19.7400 C   0  0  0  0  0  3  0  0  0  0  0  0
  -28.9470  -13.3440   20.8610 C   0  0  0  0  0  2  0  0  0  0  0  0
  -30.2280  -13.7410   20.2550 N   0  0  0  0  0  0  0  0  0  0  0  0
  -31.9410  -15.1550   19.8410 O   0  0  0  0  0  0  0  0  0  0  0  0
  -29.9830  -16.0970   20.6400 N   0  0  0  0  0  0  0  0  0  0  0  0
  -29.1430  -15.7610   21.0880 H   0  0  0  0  0  0  0  0  0  0  0  0
  -25.5140  -13.9290   20.5340 C   0  0  0  0  0  0  0  0  0  0  0  0
  -24.4520  -13.1500   20.9070 C   0  0  0  0  0  0  0  0  0  0  0  0
  -24.9080  -11.7990   20.8370 C   0  0  0  0  0  0  0  0  0  0  0  0
  -26.5460  -13.0500   20.2510 N   0  0  0  0  0  0  0  0  0  0  0  0
  -26.1920  -11.7630   20.4990 N   0  0  0  0  0  0  0  0  0  0  0  0
  -24.1820  -10.5350   21.0140 C   0  0  0  0  0  0  0  0  0  0  0  0
  -24.6020   -9.5640   21.9490 C   0  0  0  0  0  3  0  0  0  0  0  0
  -23.8740   -8.3670   22.1150 C   0  0  0  0  0  3  0  0  0  0  0  0
  -22.7110   -8.1310   21.3460 C   0  0  0  0  0  0  0  0  0  0  0  0
  -22.3090   -9.0910   20.4010 C   0  0  0  0  0  3  0  0  0  0  0  0
  -23.0380  -10.2800   20.2320 C   0  0  0  0  0  3  0  0  0  0  0  0
  -21.9570   -6.9850   21.4210 O   0  0  0  0  0  0  0  0  0  0  0  0
  -21.8340   -6.2780   22.5900 C   0  0  0  0  0  0  0  0  0  0  0  0
  -21.2970   -6.8580   23.7590 C   0  0  0  0  0  3  0  0  0  0  0  0
  -21.1250   -6.0760   24.9190 C   0  0  0  0  0  3  0  0  0  0  0  0
  -21.4810   -4.7150   24.9090 C   0  0  0  0  0  0  0  0  0  0  0  0
  -22.0140   -4.1330   23.7460 C   0  0  0  0  0  3  0  0  0  0  0  0
  -22.1860   -4.9120   22.5880 C   0  0  0  0  0  0  0  0  0  0  0  0
  -22.6790   -4.3420   21.4620 F   0  0  0  0  0  0  0  0  0  0  0  0
  -21.3090   -3.9610   26.0200 F   0  0  0  0  0  0  0  0  0  0  0  0
  -23.0620  -13.6280   21.2160 C   0  0  0  0  0  0  0  0  0  0  0  0
  -22.3510  -12.9200   22.0860 N   0  0  0  0  0  0  0  0  0  0  0  0
  -22.6170  -14.6640   20.7240 O   0  0  0  0  0  0  0  0  0  0  0  0
  -22.7240  -12.0810   22.5070 H   0  0  0  0  0  0  0  0  0  0  0  0
  -21.4180  -13.2230   22.3340 H   0  0  0  0  0  0  0  0  0  0  0  0
  -25.6800  -15.3030   20.3850 N   0  0  0  0  0  0  0  0  0  0  0  0
  -24.9240  -15.9620   20.5390 H   0  0  0  0  0  0  0  0  0  0  0  0
  -26.5150  -15.7440   20.0210 H   0  0  0  0  0  0  0  0  0  0  0  0
  -27.2680  -22.0060   19.3880 C   0  0  0  0  0  1  0  0  0  0  0  0
  -28.5120  -22.0510   20.3000 C   0  0  0  0  0  3  0  0  0  0  0  0
  -29.1810  -23.5680   20.1860 C   0  0  0  0  0  3  0  0  0  0  0  0
  -28.2100  -24.9040   19.9620 C   0  0  0  0  0  3  0  0  0  0  0  0
  -28.5030  -26.3940   20.1870 O   0  0  0  0  0  0  0  0  0  0  0  0
  -24.7280  -31.8370   23.3260 C   0  0  0  0  0  0  0  0  0  0  0  0
  -27.4280  -27.3420   20.1320 C   0  0  0  0  0  0  0  0  0  0  0  0
  -23.5810  -30.5250   21.5810 C   0  0  0  0  0  3  0  0  0  0  0  0
  -25.0800  -29.0370   20.1240 C   0  0  0  0  0  0  0  0  0  0  0  0
  -26.1320  -30.8230   21.5000 C   0  0  0  0  0  2  0  0  0  0  0  0
  -26.2350  -29.4700   20.7850 C   0  0  0  0  0  0  0  0  0  0  0  0
  -27.4130  -28.6380   20.7710 C   0  0  0  0  0  3  0  0  0  0  0  0
  -26.2440  -27.0020   19.4370 C   0  0  0  0  0  3  0  0  0  0  0  0
  -25.0940  -27.8130   19.4390 C   0  0  0  0  0  3  0  0  0  0  0  0
  -23.8450  -29.9200   20.1760 C   0  0  0  0  0  2  0  0  0  0  0  0
  -24.8320  -31.0770   22.1920 N   0  0  0  0  0  0  0  0  0  0  0  0
  -23.6260  -32.0890   23.8360 O   0  0  0  0  0  0  0  0  0  0  0  0
  -22.8810  -29.4650   22.4680 C   0  0  0  0  0  0  0  0  0  0  0  0
  -21.5520  -29.3190   22.3130 N   0  0  0  0  0  0  0  0  0  0  0  0
  -23.5370  -28.7790   23.2570 O   0  0  0  0  0  0  0  0  0  0  0  0
  -21.0820  -29.9320   21.6620 H   0  0  0  0  0  0  0  0  0  0  0  0
  -18.1470  -28.1670   22.7310 C   0  0  0  0  0  0  0  0  0  0  0  0
  -20.7100  -28.3470   23.0140 C   0  0  0  0  0  3  0  0  0  0  0  0
  -20.7780  -26.9580   22.3380 C   0  0  0  0  0  2  0  0  0  0  0  0
  -19.6700  -26.7350   21.3030 C   0  0  0  0  0  2  0  0  0  0  0  0
  -18.2910  -26.8660   21.9570 C   0  0  0  0  0  2  0  0  0  0  0  0
  -19.2820  -28.8680   23.2140 C   0  0  0  0  0  0  0  0  0  0  0  0
  -19.0920  -30.0870   23.9020 C   0  0  0  0  0  3  0  0  0  0  0  0
  -17.7990  -30.6050   24.1060 C   0  0  0  0  0  3  0  0  0  0  0  0
  -16.6780  -29.9000   23.6380 C   0  0  0  0  0  3  0  0  0  0  0  0
  -16.8510  -28.6810   22.9560 C   0  0  0  0  0  3  0  0  0  0  0  0
  -25.9850  -32.4410   24.0190 C   0  0  0  0  0  3  0  0  0  0  0  0
  -26.4380  -31.6300   25.2960 C   0  0  1  0  0  0  0  0  0  0  0  0
  -25.2960  -31.3740   26.3070 C   0  0  0  0  0  1  0  0  0  0  0  0
  -27.0260  -30.2570   24.8940 C   0  0  0  0  0  1  0  0  0  0  0  0
  -27.5640  -32.3940   26.0300 C   0  0  0  0  0  1  0  0  0  0  0  0
  -25.6720  -33.8330   24.3790 N   0  0  0  0  0  0  0  0  0  0  0  0
  -26.0000  -34.9040   23.6450 C   0  0  0  0  0  0  0  0  0  0  0  0
  -26.6690  -34.8240   22.6120 O   0  0  0  0  0  0  0  0  0  0  0  0
  -25.0780  -33.9650   25.1850 H   0  0  0  0  0  0  0  0  0  0  0  0
  -24.2510  -36.6890   23.3580 C   0  0  0  0  0  1  0  0  0  0  0  0
  -25.5130  -36.2830   24.1340 C   0  0  0  0  0  3  0  0  0  0  0  0
  -27.6540  -37.1810   24.9350 C   0  0  0  0  0  1  0  0  0  0  0  0
  -26.5340  -37.3450   24.0120 N   0  0  0  0  0  0  0  0  0  0  0  0
  -26.1230  -38.2610   24.1740 H   0  0  0  0  0  0  0  0  0  0  0  0
  1  2  2  0
  1  4  1  0
  2  6  1  0
  4 47  1  0
  4  5  2  0
  5  3  1  0
  5  7  1  0
  6 16  1  0
  6  3  2  0
  8 16  1  0
  9 14  1  0
 10 11  1  0
 10  9  1  0
 12 11  1  0
 12 21  1  0
 12 13  1  0
 14  8  1  0
 14 13  1  0
 15  8  2  0
 16 17  1  0
 18 19  2  0
 19 38  1  0
 20 19  1  0
 20 23  1  0
 21 22  1  0
 21 18  1  0
 22 20  2  0
 23 24  1  0
 24 25  2  0
 26 29  1  0
 26 25  1  0
 27 26  2  0
 28 27  1  0
 28 23  2  0
 29 30  1  0
 30 31  1  0
 31 32  2  0
 33 32  1  0
 33 37  1  0
 34 33  2  0
 35 30  2  0
 35 34  1  0
 36 35  1  0
 38 39  1  0
 39 42  1  0
 39 41  1  0
 40 38  2  0
 43 18  1  0
 43 44  1  0
 45 43  1  0
 47 46  1  0
 48 47  1  0
 49 48  2  0
 49 50  1  0
 51 62  2  0
 52 50  1  0
 52 57  1  0
 53 61  1  0
 53 63  1  0
 54 60  1  0
 54 56  1  0
 55 61  1  0
 56 55  1  0
 57 56  2  0
 58 59  1  0
 58 52  2  0
 59 54  2  0
 60 53  1  0
 61 51  1  0
 63 65  2  0
 64 63  1  0
 66 64  1  0
 67 76  2  0
 67 72  1  0
 68 64  1  0
 68 72  1  0
 69 68  1  0
 70 71  1  0
 70 69  1  0
 71 67  1  0
 72 73  2  0
 73 74  1  0
 75 74  2  0
 76 75  1  0
 77 51  1  0
 77 82  1  0
 77 78  1  0
 78 81  1  1
 78 79  1  0
 80 78  1  0
 82 85  1  0
 83 87  1  0
 83 82  1  0
 84 83  2  0
 87 86  1  0
 89 87  1  0
 89 90  1  0
 89 88  1  0
M  ISO  4   8 100  16 100  49 101  50 101
M  END
>  <TORSDO>  (63) 
F 19

>  <SCORE>  (63) 
-13.797

>  <name>  (63) 
62

>  <ligand_id>  (63) 
62

>  <original_smiles>  (63) 
[H]c1c([H])c([H])c2c(c1[H])C([H])([H])C([H])([H])C([H])([H])C2([H])N([H])C(=O)C1([H])N(C(=O)C([H])(N([H])C(=O)C([H])(N([H])C([H])([H])[H])C([H])([H])[H])C(C([H])([H])[H])(C([H])([H])[H])C([H])([H])[H])C([H])([H])c2c([H])c(OC([H])([H])C([H])([H])C([H])(c3c([H])c([H])c(N([H])C(=O)N4C([H])([H])C([H])([H])C([H])([H])C([H])(n5nc(-c6c([H])c([H])c(Oc7c([H])c([H])c(F)c([H])c7F)c([H])c6[H])c(C(=O)N([H])[H])c5N([H])[H])C4([H])[H])c([H])c3C([H])([H])[H])C([H])([H])[H])c([H])c([H])c2C1([H])[H]

>  <smiles>  (63) 
[H]c1c([H])c([H])c2c(c1[H])C([H])([H])C([H])([H])C([H])([H])C2([H])N([H])C(=O)C1([H])N(C(=O)C([H])(N([H])C(=O)C([H])(N([H])C([H])([H])[H])C([H])([H])[H])C(C([H])([H])[H])(C([H])([H])[H])C([H])([H])[H])C([H])([H])c2c([H])c(OC([H])([H])C([H])([H])C([H])(c3c([H])c([H])c(N([H])C(=O)N4C([H])([H])C([H])([H])C([H])([H])C([H])(n5nc(-c6c([H])c([H])c(Oc7c([H])c([H])c(F)c([H])c7F)c([H])c6[H])c(C(=O)N([H])[H])c5N([H])[H])C4([H])[H])c([H])c3C([H])([H])[H])C([H])([H])[H])c([H])c([H])c2C1([H])[H]

$$$$
63:0:0
     RDKit          3D

 88 96  0  0  1  0  0  0  0  0999 V2000
  -28.8630  -21.4030   19.8740 N   0  0  0  0  0  4  0  0  0  0  0  0
  -28.7030  -21.3720   18.8830 H   0  0  0  0  0  0  0  0  0  0  0  0
  -27.9660  -21.1790   20.2820 H   0  0  0  0  0  0  0  0  0  0  0  0
  -29.1090  -23.0020   20.2300 C   0  0  0  0  0  3  0  0  0  0  0  0
  -28.0580  -24.4130   19.9700 C   0  0  0  0  0  3  0  0  0  0  0  0
  -28.2690  -26.0110   20.2080 O   0  0  0  0  0  0  0  0  0  0  0  0
  -24.6080  -31.8480   23.1760 C   0  0  0  0  0  0  0  0  0  0  0  0
  -27.2360  -27.0650   20.1380 C   0  0  0  0  0  0  0  0  0  0  0  0
  -23.4310  -30.4470   21.5240 C   0  0  0  0  0  3  0  0  0  0  0  0
  -24.9090  -28.8770   20.0940 C   0  0  0  0  0  0  0  0  0  0  0  0
  -25.9900  -30.7040   21.3840 C   0  0  0  0  0  2  0  0  0  0  0  0
  -26.0830  -29.3030   20.7240 C   0  0  0  0  0  0  0  0  0  0  0  0
  -27.2400  -28.4140   20.7340 C   0  0  0  0  0  3  0  0  0  0  0  0
  -26.0390  -26.7830   19.4490 C   0  0  0  0  0  3  0  0  0  0  0  0
  -24.9070  -27.6370   19.4320 C   0  0  0  0  0  3  0  0  0  0  0  0
  -23.6770  -29.7790   20.1410 C   0  0  0  0  0  2  0  0  0  0  0  0
  -24.6970  -31.0230   22.0830 N   0  0  0  0  0  0  0  0  0  0  0  0
  -23.5160  -32.1230   23.6970 O   0  0  0  0  0  0  0  0  0  0  0  0
  -22.7520  -29.4330   22.4810 C   0  0  0  0  0  0  0  0  0  0  0  0
  -21.4290  -29.2320   22.3370 N   0  0  0  0  0  0  0  0  0  0  0  0
  -23.4230  -28.8310   23.3230 O   0  0  0  0  0  0  0  0  0  0  0  0
  -20.9400  -29.7820   21.6420 H   0  0  0  0  0  0  0  0  0  0  0  0
  -18.0850  -27.9020   22.7600 C   0  0  0  0  0  0  0  0  0  0  0  0
  -20.6200  -28.2770   23.0990 C   0  0  0  0  0  3  0  0  0  0  0  0
  -20.7990  -26.8390   22.5580 C   0  0  0  0  0  2  0  0  0  0  0  0
  -19.7450  -26.4520   21.5160 C   0  0  0  0  0  2  0  0  0  0  0  0
  -18.3390  -26.5490   22.1130 C   0  0  0  0  0  2  0  0  0  0  0  0
  -19.1570  -28.7190   23.2090 C   0  0  0  0  0  0  0  0  0  0  0  0
  -18.8660  -29.9790   23.7740 C   0  0  0  0  0  3  0  0  0  0  0  0
  -17.5360  -30.4240   23.8980 C   0  0  0  0  0  3  0  0  0  0  0  0
  -16.4790  -29.6070   23.4600 C   0  0  0  0  0  3  0  0  0  0  0  0
  -16.7540  -28.3480   22.8960 C   0  0  0  0  0  3  0  0  0  0  0  0
  -25.8720  -32.5000   23.8090 C   0  0  0  0  0  3  0  0  0  0  0  0
  -25.5450  -33.9000   24.1390 N   0  0  0  0  0  0  0  0  0  0  0  0
  -25.8780  -34.9630   23.3960 C   0  0  0  0  0  0  0  0  0  0  0  0
  -26.5640  -34.8720   22.3740 O   0  0  0  0  0  0  0  0  0  0  0  0
  -24.9380  -34.0410   24.9340 H   0  0  0  0  0  0  0  0  0  0  0  0
  -24.1450  -36.7580   23.0320 C   0  0  0  0  0  1  0  0  0  0  0  0
  -25.3760  -36.3470   23.8570 C   0  0  0  0  0  3  0  0  0  0  0  0
  -27.4900  -37.2450   24.7280 C   0  0  0  0  0  1  0  0  0  0  0  0
  -26.4010  -37.4080   23.7690 N   0  0  0  0  0  0  0  0  0  0  0  0
  -25.9840  -38.3230   23.9140 H   0  0  0  0  0  0  0  0  0  0  0  0
  -26.3820  -31.7410   25.0980 C   0  0  1  0  0  0  0  0  0  0  0  0
  -25.2830  -31.5030   26.1590 C   0  0  0  0  0  1  0  0  0  0  0  0
  -26.9750  -30.3590   24.7300 C   0  0  0  0  0  1  0  0  0  0  0  0
  -27.5160  -32.5470   25.7720 C   0  0  0  0  0  1  0  0  0  0  0  0
  -29.8460  -20.1180   20.2020 C   0  0  0  0  0  3  0  0  0  0  0  0
  -31.6320  -19.7400   22.1090 C   0  0  0  0  0  2  0  0  0  0  0  0
  -31.3040  -21.2120   22.0780 C   0  0  0  0  0  2  0  0  0  0  0  0
  -30.2600  -20.1960   21.6610 C   0  0  0  0  0  3  0  0  0  0  0  0
  -29.6900  -18.4030   19.7360 C   0  0  0  0  0  2  0  0  0  0  0  0
  -30.0540  -16.8730   20.5700 C   0  0  0  0  0  2  0  0  0  0  0  0
  -30.7530  -15.3510   20.1160 C   0  0  0  0  0  0  0  0  0  0  0  0
  -30.6770  -12.9240   19.2360 C   0  0  0  0  0  2  0  0  0  0  0  0
  -29.7420  -12.8060   18.0080 C   0  0  0  0  0  2  0  0  0  0  0  0
  -28.2900  -12.5580   18.4480 C   0  0  0  0  0  2  0  0  0  0  0  0
  -27.8720  -13.5210   19.5860 C   0  0  0  0  0  3  0  0  0  0  0  0
  -28.9240  -13.5940   20.7110 C   0  0  0  0  0  2  0  0  0  0  0  0
  -30.1860  -14.0530   20.1050 N   0  0  0  0  0  0  0  0  0  0  0  0
  -31.9360  -15.3530   19.7480 O   0  0  0  0  0  0  0  0  0  0  0  0
  -25.5140  -14.1200   20.3570 C   0  0  0  0  0  0  0  0  0  0  0  0
  -24.4440  -13.3600   20.7410 C   0  0  0  0  0  0  0  0  0  0  0  0
  -24.8910  -12.0030   20.7150 C   0  0  0  0  0  0  0  0  0  0  0  0
  -26.5400  -13.2280   20.1050 N   0  0  0  0  0  0  0  0  0  0  0  0
  -26.1790  -11.9510   20.3880 N   0  0  0  0  0  0  0  0  0  0  0  0
  -24.1500  -10.7520   20.9190 C   0  0  0  0  0  0  0  0  0  0  0  0
  -24.5610   -9.7980   21.8750 C   0  0  0  0  0  3  0  0  0  0  0  0
  -23.8210   -8.6110   22.0660 C   0  0  0  0  0  3  0  0  0  0  0  0
  -22.6530   -8.3720   21.3020 C   0  0  0  0  0  0  0  0  0  0  0  0
  -22.2630   -9.3140   20.3340 C   0  0  0  0  0  3  0  0  0  0  0  0
  -23.0050  -10.4920   20.1420 C   0  0  0  0  0  3  0  0  0  0  0  0
  -21.8860   -7.2360   21.3970 O   0  0  0  0  0  0  0  0  0  0  0  0
  -21.7870   -6.5320   22.5710 C   0  0  0  0  0  0  0  0  0  0  0  0
  -21.3260   -7.1310   23.7630 C   0  0  0  0  0  3  0  0  0  0  0  0
  -21.1730   -6.3540   24.9300 C   0  0  0  0  0  3  0  0  0  0  0  0
  -21.4760   -4.9790   24.9060 C   0  0  0  0  0  0  0  0  0  0  0  0
  -21.9330   -4.3790   23.7180 C   0  0  0  0  0  3  0  0  0  0  0  0
  -22.0880   -5.1540   22.5550 C   0  0  0  0  0  0  0  0  0  0  0  0
  -22.5070   -4.5700   21.4060 F   0  0  0  0  0  0  0  0  0  0  0  0
  -21.3260   -4.2290   26.0220 F   0  0  0  0  0  0  0  0  0  0  0  0
  -23.0570  -13.8570   21.0220 C   0  0  0  0  0  0  0  0  0  0  0  0
  -22.3290  -13.1850   21.9070 N   0  0  0  0  0  0  0  0  0  0  0  0
  -22.6260  -14.8780   20.4890 O   0  0  0  0  0  0  0  0  0  0  0  0
  -22.6880  -12.3620   22.3640 H   0  0  0  0  0  0  0  0  0  0  0  0
  -21.3970  -13.5020   22.1340 H   0  0  0  0  0  0  0  0  0  0  0  0
  -25.6990  -15.4890   20.1750 N   0  0  0  0  0  0  0  0  0  0  0  0
  -24.9520  -16.1670   20.2960 H   0  0  0  0  0  0  0  0  0  0  0  0
  -26.5640  -15.9060   19.8540 H   0  0  0  0  0  0  0  0  0  0  0  0
  1 47  1  0
  1  4  1  0
  1  3  1  0
  2  1  1  0
  5  6  1  0
  5  4  2  0
  7 18  2  0
  8  6  1  0
  8 13  1  0
  9 17  1  0
  9 19  1  0
 10 16  1  0
 10 12  1  0
 11 17  1  0
 12 13  2  0
 12 11  1  0
 14  8  2  0
 15 14  1  0
 15 10  2  0
 16  9  1  0
 17  7  1  0
 19 21  2  0
 20 19  1  0
 22 20  1  0
 23 32  2  0
 23 28  1  0
 24 20  1  0
 24 28  1  0
 25 24  1  0
 26 27  1  0
 26 25  1  0
 27 23  1  0
 28 29  2  0
 29 30  1  0
 31 30  2  0
 32 31  1  0
 33  7  1  0
 33 34  1  0
 33 43  1  0
 34 37  1  0
 35 39  1  0
 35 34  1  0
 36 35  2  0
 39 38  1  0
 41 39  1  0
 41 42  1  0
 41 40  1  0
 43 46  1  1
 43 44  1  0
 45 43  1  0
 47 51  1  0
 47 50  1  0
 49 48  1  0
 50 49  1  0
 50 48  1  0
 51 52  1  0
 53 52  1  0
 54 59  1  0
 55 56  1  0
 55 54  1  0
 57 56  1  0
 57 64  1  0
 57 58  1  0
 59 53  1  0
 59 58  1  0
 60 53  2  0
 61 62  2  0
 62 81  1  0
 63 62  1  0
 63 66  1  0
 64 61  1  0
 64 65  1  0
 65 63  2  0
 66 67  1  0
 67 68  2  0
 69 72  1  0
 69 68  1  0
 70 69  2  0
 71 70  1  0
 71 66  2  0
 72 73  1  0
 73 74  1  0
 74 75  2  0
 76 75  1  0
 76 80  1  0
 77 76  2  0
 78 73  2  0
 78 77  1  0
 79 78  1  0
 81 82  1  0
 82 85  1  0
 82 84  1  0
 83 81  2  0
 86 87  1  0
 86 61  1  0
 88 86  1  0
M  ISO  4   5 101   6 101  52 100  53 100
M  END
>  <TORSDO>  (64) 
F 22

>  <SCORE>  (64) 
-14.749

>  <name>  (64) 
63

>  <ligand_id>  (64) 
63

>  <original_smiles>  (64) 
[H]c1c([H])c([H])c2c(c1[H])C([H])([H])C([H])([H])C([H])([H])C2([H])N([H])C(=O)C1([H])N(C(=O)C([H])(N([H])C(=O)C([H])(N([H])C([H])([H])[H])C([H])([H])[H])C(C([H])([H])[H])(C([H])([H])[H])C([H])([H])[H])C([H])([H])c2c([H])c(OC([H])([H])C([H])([H])[N+]([H])([H])C([H])(C([H])([H])C([H])([H])C(=O)N3C([H])([H])C([H])([H])C([H])([H])C([H])(n4nc(-c5c([H])c([H])c(Oc6c([H])c([H])c(F)c([H])c6F)c([H])c5[H])c(C(=O)N([H])[H])c4N([H])[H])C3([H])[H])C3([H])C([H])([H])C3([H])[H])c([H])c([H])c2C1([H])[H]

>  <smiles>  (64) 
[H]c1c([H])c([H])c2c(c1[H])C([H])([H])C([H])([H])C([H])([H])C2([H])N([H])C(=O)C1([H])N(C(=O)C([H])(N([H])C(=O)C([H])(N([H])C([H])([H])[H])C([H])([H])[H])C(C([H])([H])[H])(C([H])([H])[H])C([H])([H])[H])C([H])([H])c2c([H])c(OC([H])([H])C([H])([H])[N+]([H])([H])C([H])(C([H])([H])C([H])([H])C(=O)N3C([H])([H])C([H])([H])C([H])([H])C([H])(n4nc(-c5c([H])c([H])c(Oc6c([H])c([H])c(F)c([H])c6F)c([H])c5[H])c(C(=O)N([H])[H])c4N([H])[H])C3([H])[H])C3([H])C([H])([H])C3([H])[H])c([H])c([H])c2C1([H])[H]

$$$$
64:0:0
     RDKit          3D

 90 98  0  0  1  0  0  0  0  0999 V2000
  -29.4610  -20.5960   21.4700 C   0  0  0  0  0  2  0  0  0  0  0  0
  -28.7600  -22.0900   21.4880 C   0  0  0  0  0  2  0  0  0  0  0  0
  -28.3280  -21.8090   19.1580 C   0  0  0  0  0  2  0  0  0  0  0  0
  -29.0540  -19.4970   20.3650 C   0  0  0  0  0  3  0  0  0  0  0  0
  -28.7320  -23.0160   20.1740 C   0  0  0  0  0  3  0  0  0  0  0  0
  -29.0840  -20.4370   19.1550 N   0  0  0  0  0  4  0  0  0  0  0  0
  -30.0540  -20.6210   18.9530 H   0  0  0  0  0  0  0  0  0  0  0  0
  -28.7340  -19.9100   18.3720 H   0  0  0  0  0  0  0  0  0  0  0  0
  -29.5700  -16.5950   20.4240 C   0  0  0  0  0  3  0  0  0  0  0  0
  -29.8920  -18.0070   20.2640 C   0  0  0  0  0  0  0  0  0  0  0  0
  -30.4240  -15.2530   20.2650 C   0  0  0  0  0  0  0  0  0  0  0  0
  -30.3830  -12.8380   19.3880 C   0  0  0  0  0  2  0  0  0  0  0  0
  -29.4510  -12.7040   18.1590 C   0  0  0  0  0  2  0  0  0  0  0  0
  -28.0010  -12.4380   18.6060 C   0  0  0  0  0  2  0  0  0  0  0  0
  -27.5640  -13.3830   19.7530 C   0  0  0  0  0  3  0  0  0  0  0  0
  -28.6220  -13.4800   20.8700 C   0  0  0  0  0  2  0  0  0  0  0  0
  -29.8700  -13.9520   20.2550 N   0  0  0  0  0  0  0  0  0  0  0  0
  -31.6320  -15.2750   19.9860 O   0  0  0  0  0  0  0  0  0  0  0  0
  -25.1980  -13.9230   20.5480 C   0  0  0  0  0  0  0  0  0  0  0  0
  -24.1450  -13.1360   20.9210 C   0  0  0  0  0  0  0  0  0  0  0  0
  -24.6160  -11.7890   20.8590 C   0  0  0  0  0  0  0  0  0  0  0  0
  -26.2410  -13.0570   20.2720 N   0  0  0  0  0  0  0  0  0  0  0  0
  -25.9030  -11.7660   20.5270 N   0  0  0  0  0  0  0  0  0  0  0  0
  -23.8950  -10.5210   21.0390 C   0  0  0  0  0  0  0  0  0  0  0  0
  -24.3240   -9.5550   21.9730 C   0  0  0  0  0  3  0  0  0  0  0  0
  -23.6040   -8.3510   22.1420 C   0  0  0  0  0  3  0  0  0  0  0  0
  -22.4390   -8.1090   21.3770 C   0  0  0  0  0  0  0  0  0  0  0  0
  -22.0280   -9.0650   20.4330 C   0  0  0  0  0  3  0  0  0  0  0  0
  -22.7480  -10.2580   20.2620 C   0  0  0  0  0  3  0  0  0  0  0  0
  -21.6900   -6.9600   21.4540 O   0  0  0  0  0  0  0  0  0  0  0  0
  -21.6080   -6.2310   22.6130 C   0  0  0  0  0  0  0  0  0  0  0  0
  -21.1020   -6.7880   23.8080 C   0  0  0  0  0  3  0  0  0  0  0  0
  -20.9710   -5.9830   24.9580 C   0  0  0  0  0  3  0  0  0  0  0  0
  -21.3340   -4.6240   24.9120 C   0  0  0  0  0  0  0  0  0  0  0  0
  -21.8310   -4.0680   23.7210 C   0  0  0  0  0  3  0  0  0  0  0  0
  -21.9670   -4.8700   22.5740 C   0  0  0  0  0  0  0  0  0  0  0  0
  -22.4280   -4.3230   21.4220 F   0  0  0  0  0  0  0  0  0  0  0  0
  -21.1990   -3.8500   26.0140 F   0  0  0  0  0  0  0  0  0  0  0  0
  -22.7500  -13.6040   21.2170 C   0  0  0  0  0  0  0  0  0  0  0  0
  -22.0340  -12.8960   22.0830 N   0  0  0  0  0  0  0  0  0  0  0  0
  -22.3040  -14.6360   20.7160 O   0  0  0  0  0  0  0  0  0  0  0  0
  -22.4110  -12.0650   22.5170 H   0  0  0  0  0  0  0  0  0  0  0  0
  -21.1000  -13.1970   22.3230 H   0  0  0  0  0  0  0  0  0  0  0  0
  -25.3490  -15.2980   20.3920 N   0  0  0  0  0  0  0  0  0  0  0  0
  -24.5640  -15.9310   20.5040 H   0  0  0  0  0  0  0  0  0  0  0  0
  -26.1680  -15.7490   20.0060 H   0  0  0  0  0  0  0  0  0  0  0  0
  -31.1480  -18.3390   19.9370 O   0  0  0  0  0  0  0  0  0  0  0  0
  -31.6560  -17.5360   19.8880 H   0  0  0  0  0  0  0  0  0  0  0  0
  -27.8310  -24.5250   20.1040 C   0  0  0  0  0  2  0  0  0  0  0  0
  -28.1460  -26.0870   20.2990 O   0  0  0  0  0  0  0  0  0  0  0  0
  -24.6090  -31.9570   23.2550 C   0  0  0  0  0  0  0  0  0  0  0  0
  -27.1310  -27.1440   20.2300 C   0  0  0  0  0  0  0  0  0  0  0  0
  -23.4010  -30.5730   21.6180 C   0  0  0  0  0  3  0  0  0  0  0  0
  -24.8340  -28.9770   20.1900 C   0  0  0  0  0  0  0  0  0  0  0  0
  -25.9620  -30.7930   21.4570 C   0  0  0  0  0  2  0  0  0  0  0  0
  -26.0220  -29.3920   20.8040 C   0  0  0  0  0  0  0  0  0  0  0  0
  -27.1690  -28.4950   20.8010 C   0  0  0  0  0  3  0  0  0  0  0  0
  -25.9140  -26.8580   19.5710 C   0  0  0  0  0  3  0  0  0  0  0  0
  -24.7990  -27.7270   19.5550 C   0  0  0  0  0  3  0  0  0  0  0  0
  -23.6190  -29.8960   20.2390 C   0  0  0  0  0  2  0  0  0  0  0  0
  -24.6780  -31.1330   22.1640 N   0  0  0  0  0  0  0  0  0  0  0  0
  -23.5250  -32.2510   23.7820 O   0  0  0  0  0  0  0  0  0  0  0  0
  -22.7100  -29.5730   22.5800 C   0  0  0  0  0  0  0  0  0  0  0  0
  -21.3810  -29.4050   22.4500 N   0  0  0  0  0  0  0  0  0  0  0  0
  -23.3730  -28.9480   23.4130 O   0  0  0  0  0  0  0  0  0  0  0  0
  -20.9000  -29.9580   21.7530 H   0  0  0  0  0  0  0  0  0  0  0  0
  -17.9920  -28.2200   22.9530 C   0  0  0  0  0  0  0  0  0  0  0  0
  -20.5530  -28.4740   23.2210 C   0  0  0  0  0  3  0  0  0  0  0  0
  -20.6470  -27.0390   22.6490 C   0  0  0  0  0  2  0  0  0  0  0  0
  -19.5450  -26.7200   21.6350 C   0  0  0  0  0  2  0  0  0  0  0  0
  -18.1640  -26.8700   22.2770 C   0  0  0  0  0  2  0  0  0  0  0  0
  -19.1130  -28.9800   23.3830 C   0  0  0  0  0  0  0  0  0  0  0  0
  -18.8960  -30.2410   23.9780 C   0  0  0  0  0  3  0  0  0  0  0  0
  -17.5930  -30.7440   24.1480 C   0  0  0  0  0  3  0  0  0  0  0  0
  -16.4870  -29.9820   23.7320 C   0  0  0  0  0  3  0  0  0  0  0  0
  -16.6870  -28.7230   23.1410 C   0  0  0  0  0  3  0  0  0  0  0  0
  -25.8890  -32.5890   23.8830 C   0  0  0  0  0  3  0  0  0  0  0  0
  -26.3910  -31.8200   25.1670 C   0  0  1  0  0  0  0  0  0  0  0  0
  -25.2890  -31.5920   26.2300 C   0  0  0  0  0  1  0  0  0  0  0  0
  -26.9670  -30.4360   24.7900 C   0  0  0  0  0  1  0  0  0  0  0  0
  -27.5430  -32.6090   25.8330 C   0  0  0  0  0  1  0  0  0  0  0  0
  -25.5820  -33.9910   24.2150 N   0  0  0  0  0  0  0  0  0  0  0  0
  -25.8970  -35.0450   23.4510 C   0  0  0  0  0  0  0  0  0  0  0  0
  -26.5390  -34.9400   22.4030 O   0  0  0  0  0  0  0  0  0  0  0  0
  -25.0050  -34.1440   25.0290 H   0  0  0  0  0  0  0  0  0  0  0  0
  -24.1540  -36.8390   23.1590 C   0  0  0  0  0  1  0  0  0  0  0  0
  -25.4250  -36.4360   23.9230 C   0  0  0  0  0  3  0  0  0  0  0  0
  -27.5860  -37.3320   24.6730 C   0  0  0  0  0  1  0  0  0  0  0  0
  -26.4510  -37.4910   23.7680 N   0  0  0  0  0  0  0  0  0  0  0  0
  -26.0470  -38.4110   23.9250 H   0  0  0  0  0  0  0  0  0  0  0  0
  1  2  1  0
  3  5  1  0
  4 10  1  0
  4  1  1  0
  5 49  1  0
  5  2  1  0
  6  3  1  0
  6  4  1  0
  7  6  1  0
  8  6  1  0
 10  9  2  0
 11  9  1  0
 12 17  1  0
 13 14  1  0
 13 12  1  0
 15 14  1  0
 15 22  1  0
 15 16  1  0
 17 11  1  0
 17 16  1  0
 18 11  2  0
 19 20  2  0
 20 39  1  0
 21 20  1  0
 21 24  1  0
 22 23  1  0
 22 19  1  0
 23 21  2  0
 24 25  1  0
 25 26  2  0
 27 30  1  0
 27 26  1  0
 28 27  2  0
 29 28  1  0
 29 24  2  0
 30 31  1  0
 31 32  1  0
 32 33  2  0
 34 33  1  0
 34 38  1  0
 35 34  2  0
 36 31  2  0
 36 35  1  0
 37 36  1  0
 39 40  1  0
 40 43  1  0
 40 42  1  0
 41 39  2  0
 44 45  1  0
 44 19  1  0
 46 44  1  0
 47 10  1  0
 48 47  1  0
 49 50  1  0
 51 62  2  0
 52 50  1  0
 52 57  1  0
 53 61  1  0
 53 63  1  0
 54 60  1  0
 54 56  1  0
 55 61  1  0
 56 55  1  0
 57 56  2  0
 58 52  2  0
 59 58  1  0
 59 54  2  0
 60 53  1  0
 61 51  1  0
 63 65  2  0
 64 63  1  0
 66 64  1  0
 67 76  2  0
 67 72  1  0
 68 64  1  0
 68 72  1  0
 69 68  1  0
 70 71  1  0
 70 69  1  0
 71 67  1  0
 72 73  2  0
 73 74  1  0
 75 74  2  0
 76 75  1  0
 77 51  1  0
 77 82  1  0
 77 78  1  0
 78 81  1  1
 78 79  1  0
 80 78  1  0
 82 85  1  0
 83 87  1  0
 83 82  1  0
 84 83  2  0
 87 86  1  0
 89 87  1  0
 89 90  1  0
 89 88  1  0
M  ISO  4   9 100  11 100  49 101  50 101
M  END
>  <TORSDO>  (65) 
F 19

>  <SCORE>  (65) 
-15.465

>  <name>  (65) 
64

>  <ligand_id>  (65) 
64

>  <original_smiles>  (65) 
[H]OC(=C([H])C(=O)N1C([H])([H])C([H])([H])C([H])([H])C([H])(n2nc(-c3c([H])c([H])c(Oc4c([H])c([H])c(F)c([H])c4F)c([H])c3[H])c(C(=O)N([H])[H])c2N([H])[H])C1([H])[H])C1([H])C([H])([H])C([H])([H])C([H])(C([H])([H])Oc2c([H])c([H])c3c(c2[H])C([H])([H])N(C(=O)C([H])(N([H])C(=O)C([H])(N([H])C([H])([H])[H])C([H])([H])[H])C(C([H])([H])[H])(C([H])([H])[H])C([H])([H])[H])C([H])(C(=O)N([H])C2([H])c4c([H])c([H])c([H])c([H])c4C([H])([H])C([H])([H])C2([H])[H])C3([H])[H])C([H])([H])[N+]1([H])[H]

>  <smiles>  (65) 
[H]OC(=C([H])C(=O)N1C([H])([H])C([H])([H])C([H])([H])C([H])(n2nc(-c3c([H])c([H])c(Oc4c([H])c([H])c(F)c([H])c4F)c([H])c3[H])c(C(=O)N([H])[H])c2N([H])[H])C1([H])[H])C1([H])C([H])([H])C([H])([H])C([H])(C([H])([H])Oc2c([H])c([H])c3c(c2[H])C([H])([H])N(C(=O)C([H])(N([H])C(=O)C([H])(N([H])C([H])([H])[H])C([H])([H])[H])C(C([H])([H])[H])(C([H])([H])[H])C([H])([H])[H])C([H])(C(=O)N([H])C2([H])c4c([H])c([H])c([H])c([H])c4C([H])([H])C([H])([H])C2([H])[H])C3([H])[H])C([H])([H])[N+]1([H])[H]

$$$$
65:0:0
     RDKit          3D

 86 94  0  0  1  0  0  0  0  0999 V2000
  -30.3810  -20.7080   20.3320 C   0  0  0  0  0  3  0  0  0  0  0  0
  -29.0290  -21.2740   20.0090 C   0  0  0  0  0  3  0  0  0  0  0  0
  -29.3690  -19.6060   20.5730 C   0  0  0  0  0  3  0  0  0  0  0  0
  -31.4050  -20.6540   19.2110 C   0  0  0  0  0  1  0  0  0  0  0  0
  -28.8660  -22.9190   20.6110 C   0  0  0  0  0  3  0  0  0  0  0  0
  -28.0690  -24.3740   19.9820 C   0  0  0  0  0  3  0  0  0  0  0  0
  -28.2130  -25.9580   20.3300 O   0  0  0  0  0  0  0  0  0  0  0  0
  -24.6290  -31.8670   23.2290 C   0  0  0  0  0  0  0  0  0  0  0  0
  -27.1870  -27.0190   20.2300 C   0  0  0  0  0  0  0  0  0  0  0  0
  -23.4320  -30.4660   21.5940 C   0  0  0  0  0  3  0  0  0  0  0  0
  -24.8800  -28.8610   20.1790 C   0  0  0  0  0  0  0  0  0  0  0  0
  -25.9950  -30.6880   21.4460 C   0  0  0  0  0  2  0  0  0  0  0  0
  -26.0650  -29.2790   20.7970 C   0  0  0  0  0  0  0  0  0  0  0  0
  -27.2120  -28.3760   20.8030 C   0  0  0  0  0  3  0  0  0  0  0  0
  -25.9770  -26.7410   19.5550 C   0  0  0  0  0  3  0  0  0  0  0  0
  -24.8580  -27.6100   19.5400 C   0  0  0  0  0  3  0  0  0  0  0  0
  -23.6600  -29.7770   20.2210 C   0  0  0  0  0  2  0  0  0  0  0  0
  -24.7060  -31.0320   22.1440 N   0  0  0  0  0  0  0  0  0  0  0  0
  -23.5390  -32.1600   23.7480 O   0  0  0  0  0  0  0  0  0  0  0  0
  -22.7390  -29.4730   22.5640 C   0  0  0  0  0  0  0  0  0  0  0  0
  -21.4090  -29.3080   22.4390 N   0  0  0  0  0  0  0  0  0  0  0  0
  -23.4030  -28.8510   23.3960 O   0  0  0  0  0  0  0  0  0  0  0  0
  -20.9240  -29.8600   21.7440 H   0  0  0  0  0  0  0  0  0  0  0  0
  -18.0270  -28.1000   22.9430 C   0  0  0  0  0  0  0  0  0  0  0  0
  -20.5860  -28.3770   23.2160 C   0  0  0  0  0  3  0  0  0  0  0  0
  -20.6930  -26.9390   22.6550 C   0  0  0  0  0  2  0  0  0  0  0  0
  -19.5970  -26.6040   21.6400 C   0  0  0  0  0  2  0  0  0  0  0  0
  -18.2120  -26.7490   22.2750 C   0  0  0  0  0  2  0  0  0  0  0  0
  -19.1410  -28.8710   23.3710 C   0  0  0  0  0  0  0  0  0  0  0  0
  -18.9120  -30.1350   23.9580 C   0  0  0  0  0  3  0  0  0  0  0  0
  -17.6050  -30.6290   24.1180 C   0  0  0  0  0  3  0  0  0  0  0  0
  -16.5060  -29.8560   23.7030 C   0  0  0  0  0  3  0  0  0  0  0  0
  -16.7170  -28.5930   23.1240 C   0  0  0  0  0  3  0  0  0  0  0  0
  -25.9020  -32.5080   23.8580 C   0  0  0  0  0  3  0  0  0  0  0  0
  -26.4070  -31.7490   25.1490 C   0  0  1  0  0  0  0  0  0  0  0  0
  -25.3040  -31.5280   26.2120 C   0  0  0  0  0  1  0  0  0  0  0  0
  -26.9840  -30.3630   24.7840 C   0  0  0  0  0  1  0  0  0  0  0  0
  -27.5570  -32.5430   25.8100 C   0  0  0  0  0  1  0  0  0  0  0  0
  -25.5890  -33.9110   24.1860 N   0  0  0  0  0  0  0  0  0  0  0  0
  -25.9180  -34.9650   23.4300 C   0  0  0  0  0  0  0  0  0  0  0  0
  -26.5800  -34.8620   22.3950 O   0  0  0  0  0  0  0  0  0  0  0  0
  -25.0000  -34.0640   24.9910 H   0  0  0  0  0  0  0  0  0  0  0  0
  -24.1880  -36.7660   23.0990 C   0  0  0  0  0  1  0  0  0  0  0  0
  -25.4400  -36.3570   23.8940 C   0  0  0  0  0  3  0  0  0  0  0  0
  -27.5850  -37.2460   24.6970 C   0  0  0  0  0  1  0  0  0  0  0  0
  -26.4720  -37.4090   23.7640 N   0  0  0  0  0  0  0  0  0  0  0  0
  -26.0690  -38.3300   23.9110 H   0  0  0  0  0  0  0  0  0  0  0  0
  -29.9670  -18.0430   20.0200 C   0  0  0  0  0  2  0  0  0  0  0  0
  -30.4520  -15.2060   20.2630 C   0  0  0  0  0  0  0  0  0  0  0  0
  -30.3740  -12.7840   19.3810 C   0  0  0  0  0  2  0  0  0  0  0  0
  -29.4510  -12.6500   18.1450 C   0  0  0  0  0  2  0  0  0  0  0  0
  -27.9980  -12.3990   18.5840 C   0  0  0  0  0  2  0  0  0  0  0  0
  -27.5660  -13.3420   19.7350 C   0  0  0  0  0  3  0  0  0  0  0  0
  -28.6210  -13.4480   20.8600 C   0  0  0  0  0  2  0  0  0  0  0  0
  -29.8670  -13.9160   20.2360 N   0  0  0  0  0  0  0  0  0  0  0  0
  -31.6540  -15.2170   19.9660 O   0  0  0  0  0  0  0  0  0  0  0  0
  -29.7080  -16.4630   20.4110 N   0  0  0  0  0  0  0  0  0  0  0  0
  -28.7490  -16.2910   20.6770 H   0  0  0  0  0  0  0  0  0  0  0  0
  -25.1910  -13.8990   20.4850 C   0  0  0  0  0  0  0  0  0  0  0  0
  -24.1310  -13.1200   20.8560 C   0  0  0  0  0  0  0  0  0  0  0  0
  -24.6030  -11.7710   20.8300 C   0  0  0  0  0  0  0  0  0  0  0  0
  -26.2370  -13.0270   20.2440 N   0  0  0  0  0  0  0  0  0  0  0  0
  -25.8950  -11.7400   20.5200 N   0  0  0  0  0  0  0  0  0  0  0  0
  -23.8790  -10.5070   21.0240 C   0  0  0  0  0  0  0  0  0  0  0  0
  -24.3140   -9.5420   21.9580 C   0  0  0  0  0  3  0  0  0  0  0  0
  -23.5870   -8.3450   22.1430 C   0  0  0  0  0  3  0  0  0  0  0  0
  -22.4110   -8.1060   21.3930 C   0  0  0  0  0  0  0  0  0  0  0  0
  -21.9950   -9.0600   20.4480 C   0  0  0  0  0  3  0  0  0  0  0  0
  -22.7230  -10.2480   20.2620 C   0  0  0  0  0  3  0  0  0  0  0  0
  -21.6560   -6.9620   21.4850 O   0  0  0  0  0  0  0  0  0  0  0  0
  -21.6130   -6.2180   22.6370 C   0  0  0  0  0  0  0  0  0  0  0  0
  -21.1950   -6.7730   23.8660 C   0  0  0  0  0  3  0  0  0  0  0  0
  -21.0990   -5.9570   25.0110 C   0  0  0  0  0  3  0  0  0  0  0  0
  -21.4110   -4.5880   24.9280 C   0  0  0  0  0  0  0  0  0  0  0  0
  -21.8240   -4.0320   23.7040 C   0  0  0  0  0  3  0  0  0  0  0  0
  -21.9210   -4.8450   22.5610 C   0  0  0  0  0  0  0  0  0  0  0  0
  -22.2980   -4.3010   21.3800 F   0  0  0  0  0  0  0  0  0  0  0  0
  -21.3120   -3.8020   26.0260 F   0  0  0  0  0  0  0  0  0  0  0  0
  -22.7340  -13.5950   21.1220 C   0  0  0  0  0  0  0  0  0  0  0  0
  -22.0050  -12.9000   21.9890 N   0  0  0  0  0  0  0  0  0  0  0  0
  -22.2970  -14.6190   20.5980 O   0  0  0  0  0  0  0  0  0  0  0  0
  -22.3710  -12.0720   22.4350 H   0  0  0  0  0  0  0  0  0  0  0  0
  -21.0660  -13.2030   22.2100 H   0  0  0  0  0  0  0  0  0  0  0  0
  -25.3440  -15.2700   20.3010 N   0  0  0  0  0  0  0  0  0  0  0  0
  -24.5660  -15.9120   20.4050 H   0  0  0  0  0  0  0  0  0  0  0  0
  -26.1750  -15.7130   19.9330 H   0  0  0  0  0  0  0  0  0  0  0  0
  1  4  1  0
  1  3  1  0
  2  1  1  0
  2  3  1  0
  2  5  1  0
  3 48  1  0
  6  7  1  0
  6  5  2  0
  8 19  2  0
  9  7  1  0
  9 14  1  0
 10 18  1  0
 10 20  1  0
 11 17  1  0
 11 13  1  0
 12 18  1  0
 13 14  2  0
 13 12  1  0
 15  9  2  0
 16 15  1  0
 16 11  2  0
 17 10  1  0
 18  8  1  0
 20 22  2  0
 21 20  1  0
 23 21  1  0
 24 33  2  0
 24 29  1  0
 25 21  1  0
 25 29  1  0
 26 25  1  0
 27 28  1  0
 27 26  1  0
 28 24  1  0
 29 30  2  0
 30 31  1  0
 32 31  2  0
 33 32  1  0
 34  8  1  0
 34 39  1  0
 34 35  1  0
 35 38  1  1
 35 36  1  0
 37 35  1  0
 39 42  1  0
 40 44  1  0
 40 39  1  0
 41 40  2  0
 44 43  1  0
 46 44  1  0
 46 47  1  0
 46 45  1  0
 48 57  1  0
 49 57  1  0
 50 55  1  0
 51 52  1  0
 51 50  1  0
 53 52  1  0
 53 62  1  0
 53 54  1  0
 55 49  1  0
 55 54  1  0
 56 49  2  0
 57 58  1  0
 59 60  2  0
 60 79  1  0
 61 60  1  0
 61 64  1  0
 62 59  1  0
 62 63  1  0
 63 61  2  0
 64 65  1  0
 65 66  2  0
 67 70  1  0
 67 66  1  0
 68 67  2  0
 69 68  1  0
 69 64  2  0
 70 71  1  0
 71 72  1  0
 72 73  2  0
 74 73  1  0
 74 78  1  0
 75 74  2  0
 76 71  2  0
 76 75  1  0
 77 76  1  0
 79 80  1  0
 80 83  1  0
 80 82  1  0
 81 79  2  0
 84 85  1  0
 84 59  1  0
 86 84  1  0
M  ISO  4   6 101   7 101  49 100  57 100
M  END
>  <TORSDO>  (66) 
F 19

>  <SCORE>  (66) 
-15.701

>  <name>  (66) 
65

>  <ligand_id>  (66) 
65

>  <original_smiles>  (66) 
[H]c1c([H])c([H])c2c(c1[H])C([H])([H])C([H])([H])C([H])([H])C2([H])N([H])C(=O)C1([H])N(C(=O)C([H])(N([H])C(=O)C([H])(N([H])C([H])([H])[H])C([H])([H])[H])C(C([H])([H])[H])(C([H])([H])[H])C([H])([H])[H])C([H])([H])c2c([H])c(OC([H])([H])C([H])([H])C3([H])C([H])(C([H])([H])[H])C3([H])C([H])([H])N([H])C(=O)N3C([H])([H])C([H])([H])C([H])([H])C([H])(n4nc(-c5c([H])c([H])c(Oc6c([H])c([H])c(F)c([H])c6F)c([H])c5[H])c(C(=O)N([H])[H])c4N([H])[H])C3([H])[H])c([H])c([H])c2C1([H])[H]

>  <smiles>  (66) 
[H]c1c([H])c([H])c2c(c1[H])C([H])([H])C([H])([H])C([H])([H])C2([H])N([H])C(=O)C1([H])N(C(=O)C([H])(N([H])C(=O)C([H])(N([H])C([H])([H])[H])C([H])([H])[H])C(C([H])([H])[H])(C([H])([H])[H])C([H])([H])[H])C([H])([H])c2c([H])c(OC([H])([H])C([H])([H])C3([H])C([H])(C([H])([H])[H])C3([H])C([H])([H])N([H])C(=O)N3C([H])([H])C([H])([H])C([H])([H])C([H])(n4nc(-c5c([H])c([H])c(Oc6c([H])c([H])c(F)c([H])c6F)c([H])c5[H])c(C(=O)N([H])[H])c4N([H])[H])C3([H])[H])c([H])c([H])c2C1([H])[H]

$$$$
66:0:0
     RDKit          3D

 91 99  0  0  1  0  0  0  0  0999 V2000
  -28.8800  -21.0330   19.9350 N   0  0  0  0  0  4  0  0  0  0  0  0
  -27.9180  -20.7750   20.0840 H   0  0  0  0  0  0  0  0  0  0  0  0
  -28.9720  -21.2220   18.9500 H   0  0  0  0  0  0  0  0  0  0  0  0
  -30.3300  -17.8660   21.6260 C   0  0  0  0  0  0  0  0  0  0  0  0
  -29.8940  -19.3500   21.6870 C   0  0  0  0  0  2  0  0  0  0  0  0
  -29.4520  -18.4180   19.5120 C   0  0  0  0  0  2  0  0  0  0  0  0
  -30.3530  -17.3010   20.1970 C   0  0  0  0  0  3  0  0  0  0  0  0
  -29.7780  -19.8120   20.2190 C   0  0  0  0  0  3  0  0  0  0  0  0
  -30.5960  -17.2190   22.6420 O   0  0  0  0  0  0  0  0  0  0  0  0
  -30.6750  -14.7060   19.9660 C   0  0  0  0  0  0  0  0  0  0  0  0
  -30.4020  -12.4260   18.9930 C   0  0  0  0  0  2  0  0  0  0  0  0
  -29.4020  -12.4970   17.8170 C   0  0  0  0  0  2  0  0  0  0  0  0
  -27.9550  -12.3510   18.3240 C   0  0  0  0  0  2  0  0  0  0  0  0
  -27.6520  -13.2630   19.5430 C   0  0  0  0  0  3  0  0  0  0  0  0
  -28.7640  -13.1720   20.6110 C   0  0  0  0  0  2  0  0  0  0  0  0
  -30.0330  -13.4920   19.9470 N   0  0  0  0  0  0  0  0  0  0  0  0
  -31.8550  -14.7910   19.6140 O   0  0  0  0  0  0  0  0  0  0  0  0
  -29.9090  -15.8410   20.1450 N   0  0  0  0  0  0  0  0  0  0  0  0
  -28.9460  -15.6710   20.3830 H   0  0  0  0  0  0  0  0  0  0  0  0
  -25.3250  -13.9020   20.4140 C   0  0  0  0  0  0  0  0  0  0  0  0
  -24.2630  -13.1490   20.8330 C   0  0  0  0  0  0  0  0  0  0  0  0
  -24.6890  -11.7870   20.7550 C   0  0  0  0  0  0  0  0  0  0  0  0
  -26.3310  -13.0010   20.1040 N   0  0  0  0  0  0  0  0  0  0  0  0
  -25.9590  -11.7240   20.3730 N   0  0  0  0  0  0  0  0  0  0  0  0
  -23.9440  -10.5400   20.9620 C   0  0  0  0  0  0  0  0  0  0  0  0
  -24.3890   -9.5550   21.8730 C   0  0  0  0  0  3  0  0  0  0  0  0
  -23.6420   -8.3730   22.0700 C   0  0  0  0  0  3  0  0  0  0  0  0
  -22.4380   -8.1670   21.3580 C   0  0  0  0  0  0  0  0  0  0  0  0
  -22.0110   -9.1400   20.4360 C   0  0  0  0  0  3  0  0  0  0  0  0
  -22.7570  -10.3130   20.2360 C   0  0  0  0  0  3  0  0  0  0  0  0
  -21.6610   -7.0390   21.4650 O   0  0  0  0  0  0  0  0  0  0  0  0
  -21.6150   -6.3050   22.6240 C   0  0  0  0  0  0  0  0  0  0  0  0
  -21.2260   -6.8780   23.8550 C   0  0  0  0  0  3  0  0  0  0  0  0
  -21.1260   -6.0720   25.0060 C   0  0  0  0  0  3  0  0  0  0  0  0
  -21.4040   -4.6940   24.9290 C   0  0  0  0  0  0  0  0  0  0  0  0
  -21.7870   -4.1210   23.7030 C   0  0  0  0  0  3  0  0  0  0  0  0
  -21.8890   -4.9250   22.5530 C   0  0  0  0  0  0  0  0  0  0  0  0
  -22.2370   -4.3620   21.3710 F   0  0  0  0  0  0  0  0  0  0  0  0
  -21.3010   -3.9190   26.0330 F   0  0  0  0  0  0  0  0  0  0  0  0
  -22.8950  -13.6540   21.1870 C   0  0  0  0  0  0  0  0  0  0  0  0
  -22.1990  -12.9640   22.0850 N   0  0  0  0  0  0  0  0  0  0  0  0
  -22.4540  -14.6970   20.7040 O   0  0  0  0  0  0  0  0  0  0  0  0
  -22.5710  -12.1200   22.4960 H   0  0  0  0  0  0  0  0  0  0  0  0
  -21.2830  -13.2840   22.3640 H   0  0  0  0  0  0  0  0  0  0  0  0
  -25.5110  -15.2720   20.2470 N   0  0  0  0  0  0  0  0  0  0  0  0
  -24.7570  -15.9330   20.3950 H   0  0  0  0  0  0  0  0  0  0  0  0
  -26.3260  -15.6930   19.8210 H   0  0  0  0  0  0  0  0  0  0  0  0
  -29.1210  -22.3680   20.6590 C   0  0  0  0  0  3  0  0  0  0  0  0
  -28.6350  -23.7540   19.9670 C   0  0  0  0  0  3  0  0  0  0  0  0
  -28.4940  -25.0820   20.8730 C   0  0  0  0  0  2  0  0  0  0  0  0
  -28.5870  -26.4650   20.3210 O   0  0  0  0  0  0  0  0  0  0  0  0
  -24.6950  -31.8300   23.2690 C   0  0  0  0  0  0  0  0  0  0  0  0
  -27.4510  -27.2910   20.3090 C   0  0  0  0  0  0  0  0  0  0  0  0
  -23.5560  -30.4130   21.5980 C   0  0  0  0  0  3  0  0  0  0  0  0
  -25.0680  -28.8720   20.2210 C   0  0  0  0  0  0  0  0  0  0  0  0
  -26.0950  -30.7660   21.4830 C   0  0  0  0  0  2  0  0  0  0  0  0
  -26.2140  -29.3840   20.8450 C   0  0  0  0  0  0  0  0  0  0  0  0
  -27.4120  -28.6080   20.8710 C   0  0  0  0  0  3  0  0  0  0  0  0
  -26.2840  -26.8260   19.6720 C   0  0  0  0  0  3  0  0  0  0  0  0
  -25.1060  -27.6000   19.6240 C   0  0  0  0  0  3  0  0  0  0  0  0
  -23.8200  -29.7340   20.2270 C   0  0  0  0  0  2  0  0  0  0  0  0
  -24.7990  -31.0220   22.1740 N   0  0  0  0  0  0  0  0  0  0  0  0
  -23.5930  -32.0930   23.7730 O   0  0  0  0  0  0  0  0  0  0  0  0
  -22.8800  -29.3910   22.5430 C   0  0  0  0  0  0  0  0  0  0  0  0
  -21.5640  -29.1860   22.3690 N   0  0  0  0  0  0  0  0  0  0  0  0
  -23.5420  -28.7840   23.3890 O   0  0  0  0  0  0  0  0  0  0  0  0
  -21.0910  -29.7260   21.6580 H   0  0  0  0  0  0  0  0  0  0  0  0
  -18.2000  -27.9040   22.7340 C   0  0  0  0  0  0  0  0  0  0  0  0
  -20.7350  -28.2380   23.1160 C   0  0  0  0  0  3  0  0  0  0  0  0
  -20.9030  -26.8020   22.5650 C   0  0  0  0  0  2  0  0  0  0  0  0
  -19.8560  -26.4360   21.5070 C   0  0  0  0  0  2  0  0  0  0  0  0
  -18.4430  -26.5510   22.0860 C   0  0  0  0  0  2  0  0  0  0  0  0
  -19.2770  -28.7020   23.2030 C   0  0  0  0  0  0  0  0  0  0  0  0
  -18.9970  -29.9660   23.7670 C   0  0  0  0  0  3  0  0  0  0  0  0
  -17.6730  -30.4330   23.8670 C   0  0  0  0  0  3  0  0  0  0  0  0
  -16.6090  -29.6330   23.4150 C   0  0  0  0  0  3  0  0  0  0  0  0
  -16.8740  -28.3700   22.8550 C   0  0  0  0  0  3  0  0  0  0  0  0
  -25.9510  -32.4800   23.9290 C   0  0  0  0  0  3  0  0  0  0  0  0
  -26.4300  -31.7260   25.2290 C   0  0  1  0  0  0  0  0  0  0  0  0
  -25.3030  -31.4910   26.2630 C   0  0  0  0  0  1  0  0  0  0  0  0
  -27.0360  -30.3490   24.8710 C   0  0  0  0  0  1  0  0  0  0  0  0
  -27.5510  -32.5360   25.9200 C   0  0  0  0  0  1  0  0  0  0  0  0
  -25.6170  -33.8790   24.2360 N   0  0  0  0  0  0  0  0  0  0  0  0
  -25.9540  -34.9270   23.4740 C   0  0  0  0  0  0  0  0  0  0  0  0
  -26.6460  -34.8210   22.4580 O   0  0  0  0  0  0  0  0  0  0  0  0
  -25.0040  -34.0330   25.0220 H   0  0  0  0  0  0  0  0  0  0  0  0
  -24.2040  -36.6920   23.0770 C   0  0  0  0  0  1  0  0  0  0  0  0
  -25.4430  -36.3150   23.9060 C   0  0  0  0  0  3  0  0  0  0  0  0
  -27.5560  -37.2430   24.7470 C   0  0  0  0  0  1  0  0  0  0  0  0
  -26.4620  -37.3820   23.7900 N   0  0  0  0  0  0  0  0  0  0  0  0
  -26.0420  -38.2980   23.9200 H   0  0  0  0  0  0  0  0  0  0  0  0
  1  2  1  0
  1 48  1  0
  3  1  1  0
  4  5  1  0
  4  9  2  0
  6  7  1  0
  6  8  1  0
  7 18  1  0
  7  4  1  0
  8  1  1  0
  8  5  1  0
 10 18  1  0
 11 16  1  0
 12 13  1  0
 12 11  1  0
 14 13  1  0
 14 23  1  0
 14 15  1  0
 16 10  1  0
 16 15  1  0
 17 10  2  0
 18 19  1  0
 20 21  2  0
 21 40  1  0
 22 21  1  0
 22 25  1  0
 23 24  1  0
 23 20  1  0
 24 22  2  0
 25 26  1  0
 26 27  2  0
 28 31  1  0
 28 27  1  0
 29 28  2  0
 30 29  1  0
 30 25  2  0
 31 32  1  0
 32 33  1  0
 33 34  2  0
 35 34  1  0
 35 39  1  0
 36 35  2  0
 37 32  2  0
 37 36  1  0
 38 37  1  0
 40 41  1  0
 41 44  1  0
 41 43  1  0
 42 40  2  0
 45 46  1  0
 45 20  1  0
 47 45  1  0
 49 48  2  0
 49 50  1  0
 51 50  1  0
 52 63  2  0
 53 51  1  0
 53 58  1  0
 54 62  1  0
 54 64  1  0
 55 61  1  0
 55 57  1  0
 56 62  1  0
 57 58  2  0
 57 56  1  0
 59 53  2  0
 60 59  1  0
 60 55  2  0
 61 54  1  0
 62 52  1  0
 64 66  2  0
 65 64  1  0
 67 65  1  0
 68 77  2  0
 68 73  1  0
 69 65  1  0
 69 73  1  0
 70 69  1  0
 71 72  1  0
 71 70  1  0
 72 68  1  0
 73 74  2  0
 74 75  1  0
 76 75  2  0
 77 76  1  0
 78 52  1  0
 78 83  1  0
 78 79  1  0
 79 82  1  1
 79 80  1  0
 81 79  1  0
 83 86  1  0
 84 88  1  0
 84 83  1  0
 85 84  2  0
 88 87  1  0
 90 88  1  0
 90 91  1  0
 90 89  1  0
M  ISO  4  10 100  18 100  50 101  51 101
M  END
>  <TORSDO>  (67) 
F 20

>  <SCORE>  (67) 
-13.340

>  <name>  (67) 
66

>  <ligand_id>  (67) 
66

>  <original_smiles>  (67) 
[H]c1c([H])c([H])c2c(c1[H])C([H])([H])C([H])([H])C([H])([H])C2([H])N([H])C(=O)C1([H])N(C(=O)C([H])(N([H])C(=O)C([H])(N([H])C([H])([H])[H])C([H])([H])[H])C(C([H])([H])[H])(C([H])([H])[H])C([H])([H])[H])C([H])([H])c2c([H])c(OC([H])([H])C([H])([H])C([H])([H])[N+]([H])([H])C3([H])C([H])([H])C(=O)C([H])(N([H])C(=O)N4C([H])([H])C([H])([H])C([H])([H])C([H])(n5nc(-c6c([H])c([H])c(Oc7c([H])c([H])c(F)c([H])c7F)c([H])c6[H])c(C(=O)N([H])[H])c5N([H])[H])C4([H])[H])C3([H])[H])c([H])c([H])c2C1([H])[H]

>  <smiles>  (67) 
[H]c1c([H])c([H])c2c(c1[H])C([H])([H])C([H])([H])C([H])([H])C2([H])N([H])C(=O)C1([H])N(C(=O)C([H])(N([H])C(=O)C([H])(N([H])C([H])([H])[H])C([H])([H])[H])C(C([H])([H])[H])(C([H])([H])[H])C([H])([H])[H])C([H])([H])c2c([H])c(OC([H])([H])C([H])([H])C([H])([H])[N+]([H])([H])C3([H])C([H])([H])C(=O)C([H])(N([H])C(=O)N4C([H])([H])C([H])([H])C([H])([H])C([H])(n5nc(-c6c([H])c([H])c(Oc7c([H])c([H])c(F)c([H])c7F)c([H])c6[H])c(C(=O)N([H])[H])c5N([H])[H])C4([H])[H])C3([H])[H])c([H])c([H])c2C1([H])[H]

$$$$
67:0:0
     RDKit          3D

 88 96  0  0  1  0  0  0  0  0999 V2000
  -30.3530  -15.6340   20.2940 C   0  0  0  0  0  0  0  0  0  0  0  0
  -30.4480  -13.0550   19.6020 C   0  0  0  0  0  2  0  0  0  0  0  0
  -29.6190  -12.5840   18.3720 C   0  0  0  0  0  2  0  0  0  0  0  0
  -28.1760  -12.2560   18.7790 C   0  0  0  0  0  2  0  0  0  0  0  0
  -27.6210  -13.3170   19.7570 C   0  0  0  0  0  3  0  0  0  0  0  0
  -28.5940  -13.6950   20.8990 C   0  0  0  0  0  2  0  0  0  0  0  0
  -29.7950  -14.2810   20.2610 N   0  0  0  0  0  0  0  0  0  0  0  0
  -31.5880  -15.5180   20.1700 O   0  0  0  0  0  0  0  0  0  0  0  0
  -28.2550  -17.4800   20.4480 C   0  0  0  0  0  2  0  0  0  0  0  0
  -30.1460  -18.6730   20.1020 C   0  0  0  0  0  3  0  0  0  0  0  0
  -27.9820  -19.1070   20.5830 C   0  0  0  0  0  3  0  0  0  0  0  0
  -29.0020  -20.0700   19.8510 C   0  0  0  0  0  3  0  0  0  0  0  0
  -26.5310  -19.4620   20.2340 C   0  0  0  0  0  1  0  0  0  0  0  0
  -29.6900  -17.0600   20.2800 N   0  0  0  0  0  0  0  0  0  0  0  0
  -25.2360  -13.8870   20.4030 C   0  0  0  0  0  0  0  0  0  0  0  0
  -24.1560  -13.1250   20.7500 C   0  0  0  0  0  0  0  0  0  0  0  0
  -24.6180  -11.7730   20.7850 C   0  0  0  0  0  0  0  0  0  0  0  0
  -26.2810  -13.0020   20.2330 N   0  0  0  0  0  0  0  0  0  0  0  0
  -25.9240  -11.7260   20.5350 N   0  0  0  0  0  0  0  0  0  0  0  0
  -23.8750  -10.5220   20.9840 C   0  0  0  0  0  0  0  0  0  0  0  0
  -24.2750   -9.5680   21.9440 C   0  0  0  0  0  3  0  0  0  0  0  0
  -23.5290   -8.3850   22.1340 C   0  0  0  0  0  3  0  0  0  0  0  0
  -22.3660   -8.1490   21.3630 C   0  0  0  0  0  0  0  0  0  0  0  0
  -21.9840   -9.0900   20.3920 C   0  0  0  0  0  3  0  0  0  0  0  0
  -22.7320  -10.2650   20.2010 C   0  0  0  0  0  3  0  0  0  0  0  0
  -21.5910   -7.0170   21.4600 O   0  0  0  0  0  0  0  0  0  0  0  0
  -21.5330   -6.2830   22.6190 C   0  0  0  0  0  0  0  0  0  0  0  0
  -21.1470   -6.8600   23.8490 C   0  0  0  0  0  3  0  0  0  0  0  0
  -21.0330   -6.0530   24.9990 C   0  0  0  0  0  3  0  0  0  0  0  0
  -21.2940   -4.6720   24.9210 C   0  0  0  0  0  0  0  0  0  0  0  0
  -21.6720   -4.0950   23.6960 C   0  0  0  0  0  3  0  0  0  0  0  0
  -21.7890   -4.8990   22.5470 C   0  0  0  0  0  0  0  0  0  0  0  0
  -22.1330   -4.3360   21.3640 F   0  0  0  0  0  0  0  0  0  0  0  0
  -21.1750   -3.8950   26.0220 F   0  0  0  0  0  0  0  0  0  0  0  0
  -22.7530  -13.6190   20.9330 C   0  0  0  0  0  0  0  0  0  0  0  0
  -21.9830  -12.9700   21.8000 N   0  0  0  0  0  0  0  0  0  0  0  0
  -22.3480  -14.6200   20.3430 O   0  0  0  0  0  0  0  0  0  0  0  0
  -22.3240  -12.1620   22.2990 H   0  0  0  0  0  0  0  0  0  0  0  0
  -21.0380  -13.2850   21.9640 H   0  0  0  0  0  0  0  0  0  0  0  0
  -25.4080  -15.2510   20.1800 N   0  0  0  0  0  0  0  0  0  0  0  0
  -24.6270  -15.8960   20.2120 H   0  0  0  0  0  0  0  0  0  0  0  0
  -26.2590  -15.6700   19.8290 H   0  0  0  0  0  0  0  0  0  0  0  0
  -31.2880  -18.7470   19.0840 C   0  0  0  0  0  0  0  0  0  0  0  0
  -31.0240  -18.1650   17.7010 C   0  0  0  0  0  1  0  0  0  0  0  0
  -32.3840  -19.2550   19.3360 O   0  0  0  0  0  0  0  0  0  0  0  0
  -29.0230  -22.0180   20.1020 C   0  0  0  0  0  3  0  0  0  0  0  0
  -28.1070  -23.7020   19.6920 C   0  0  0  0  0  3  0  0  0  0  0  0
  -28.2260  -25.4580   19.8920 O   0  0  0  0  0  0  0  0  0  0  0  0
  -24.6540  -31.6530   22.9420 C   0  0  0  0  0  0  0  0  0  0  0  0
  -27.2350  -26.6610   19.8430 C   0  0  0  0  0  0  0  0  0  0  0  0
  -23.4720  -30.2560   21.3000 C   0  0  0  0  0  3  0  0  0  0  0  0
  -24.9320  -28.6580   19.8400 C   0  0  0  0  0  0  0  0  0  0  0  0
  -26.0460  -30.4480   21.1480 C   0  0  0  0  0  2  0  0  0  0  0  0
  -26.1260  -29.0260   20.4670 C   0  0  0  0  0  0  0  0  0  0  0  0
  -27.2610  -28.0550   20.4370 C   0  0  0  0  0  3  0  0  0  0  0  0
  -26.0050  -26.5070   19.1580 C   0  0  0  0  0  3  0  0  0  0  0  0
  -24.9100  -27.4270   19.1620 C   0  0  0  0  0  3  0  0  0  0  0  0
  -23.7060  -29.5850   19.9160 C   0  0  0  0  0  2  0  0  0  0  0  0
  -24.7490  -30.8180   21.8490 N   0  0  0  0  0  0  0  0  0  0  0  0
  -23.5620  -31.9240   23.4690 O   0  0  0  0  0  0  0  0  0  0  0  0
  -22.7870  -29.2510   22.2660 C   0  0  0  0  0  0  0  0  0  0  0  0
  -21.4510  -29.1030   22.1830 N   0  0  0  0  0  0  0  0  0  0  0  0
  -23.4680  -28.6050   23.0630 O   0  0  0  0  0  0  0  0  0  0  0  0
  -20.9480  -29.6780   21.5220 H   0  0  0  0  0  0  0  0  0  0  0  0
  -18.0780  -27.8900   22.7880 C   0  0  0  0  0  0  0  0  0  0  0  0
  -20.6500  -28.1430   22.9550 C   0  0  0  0  0  3  0  0  0  0  0  0
  -20.7210  -26.7310   22.3300 C   0  0  0  0  0  2  0  0  0  0  0  0
  -19.5780  -26.4460   21.3500 C   0  0  0  0  0  2  0  0  0  0  0  0
  -18.2240  -26.5670   22.0540 C   0  0  0  0  0  2  0  0  0  0  0  0
  -19.2160  -28.6360   23.1970 C   0  0  0  0  0  0  0  0  0  0  0  0
  -19.0210  -29.8720   23.8510 C   0  0  0  0  0  3  0  0  0  0  0  0
  -17.7240  -30.3610   24.0970 C   0  0  0  0  0  3  0  0  0  0  0  0
  -16.6030  -29.6120   23.7000 C   0  0  0  0  0  3  0  0  0  0  0  0
  -16.7810  -28.3780   23.0500 C   0  0  0  0  0  3  0  0  0  0  0  0
  -25.9120  -32.3180   23.5780 C   0  0  0  0  0  3  0  0  0  0  0  0
  -25.5460  -33.6820   24.0090 N   0  0  0  0  0  0  0  0  0  0  0  0
  -25.8170  -34.8060   23.3310 C   0  0  0  0  0  0  0  0  0  0  0  0
  -26.4600  -34.8070   22.2790 O   0  0  0  0  0  0  0  0  0  0  0  0
  -24.9660  -33.7530   24.8320 H   0  0  0  0  0  0  0  0  0  0  0  0
  -24.0120  -36.5590   23.1750 C   0  0  0  0  0  1  0  0  0  0  0  0
  -25.2970  -36.1420   23.9080 C   0  0  0  0  0  3  0  0  0  0  0  0
  -27.4280  -37.0540   24.7220 C   0  0  0  0  0  1  0  0  0  0  0  0
  -26.2840  -37.2430   23.8340 N   0  0  0  0  0  0  0  0  0  0  0  0
  -25.8500  -38.1320   24.0610 H   0  0  0  0  0  0  0  0  0  0  0  0
  -26.4850  -31.5070   24.8070 C   0  0  1  0  0  0  0  0  0  0  0  0
  -25.4300  -31.1860   25.8910 C   0  0  0  0  0  1  0  0  0  0  0  0
  -27.1010  -30.1670   24.3490 C   0  0  0  0  0  1  0  0  0  0  0  0
  -27.6290  -32.3080   25.4740 C   0  0  0  0  0  1  0  0  0  0  0  0
  2  7  1  0
  3  4  1  0
  3  2  1  0
  5  4  1  0
  5 18  1  0
  5  6  1  0
  7  1  1  0
  7  6  1  0
  8  1  2  0
  9 11  1  0
 10 43  1  0
 10 14  1  0
 11 13  1  0
 12 10  1  0
 12 46  1  0
 12 11  1  0
 14  1  1  0
 14  9  1  0
 15 16  2  0
 16 17  1  0
 16 35  1  0
 17 20  1  0
 18 15  1  0
 18 19  1  0
 19 17  2  0
 20 21  1  0
 21 22  2  0
 23 26  1  0
 23 22  1  0
 24 23  2  0
 25 24  1  0
 25 20  2  0
 26 27  1  0
 27 28  1  0
 28 29  2  0
 30 29  1  0
 30 34  1  0
 31 30  2  0
 32 27  2  0
 32 31  1  0
 33 32  1  0
 35 36  1  0
 36 39  1  0
 36 38  1  0
 37 35  2  0
 40 41  1  0
 40 15  1  0
 42 40  1  0
 43 45  2  0
 44 43  1  0
 47 48  1  0
 47 46  2  0
 49 60  2  0
 50 48  1  0
 50 55  1  0
 51 59  1  0
 51 61  1  0
 52 58  1  0
 52 54  1  0
 53 59  1  0
 54 53  1  0
 55 54  2  0
 56 57  1  0
 56 50  2  0
 57 52  2  0
 58 51  1  0
 59 49  1  0
 61 63  2  0
 62 61  1  0
 64 62  1  0
 65 74  2  0
 65 70  1  0
 66 62  1  0
 66 70  1  0
 67 66  1  0
 68 69  1  0
 68 67  1  0
 69 65  1  0
 70 71  2  0
 71 72  1  0
 73 72  2  0
 74 73  1  0
 75 49  1  0
 75 76  1  0
 75 85  1  0
 76 79  1  0
 77 81  1  0
 77 76  1  0
 78 77  2  0
 81 80  1  0
 83 81  1  0
 83 84  1  0
 83 82  1  0
 85 88  1  1
 85 86  1  0
 87 85  1  0
M  ISO  4   1 100  14 100  47 101  48 101
M  END
>  <TORSDO>  (68) 
F 18

>  <SCORE>  (68) 
-14.312

>  <name>  (68) 
67

>  <ligand_id>  (68) 
67

>  <original_smiles>  (68) 
[H]c1c([H])c([H])c2c(c1[H])C([H])([H])C([H])([H])C([H])([H])C2([H])N([H])C(=O)C1([H])N(C(=O)C([H])(N([H])C(=O)C([H])(N([H])C([H])([H])[H])C([H])([H])[H])C(C([H])([H])[H])(C([H])([H])[H])C([H])([H])[H])C([H])([H])c2c([H])c(OC([H])([H])C([H])([H])C3([H])C([H])(C(=O)C([H])([H])[H])N(C(=O)N4C([H])([H])C([H])([H])C([H])([H])C([H])(n5nc(-c6c([H])c([H])c(Oc7c([H])c([H])c(F)c([H])c7F)c([H])c6[H])c(C(=O)N([H])[H])c5N([H])[H])C4([H])[H])C([H])([H])C3([H])C([H])([H])[H])c([H])c([H])c2C1([H])[H]

>  <smiles>  (68) 
[H]c1c([H])c([H])c2c(c1[H])C([H])([H])C([H])([H])C([H])([H])C2([H])N([H])C(=O)C1([H])N(C(=O)C([H])(N([H])C(=O)C([H])(N([H])C([H])([H])[H])C([H])([H])[H])C(C([H])([H])[H])(C([H])([H])[H])C([H])([H])[H])C([H])([H])c2c([H])c(OC([H])([H])C([H])([H])C3([H])C([H])(C(=O)C([H])([H])[H])N(C(=O)N4C([H])([H])C([H])([H])C([H])([H])C([H])(n5nc(-c6c([H])c([H])c(Oc7c([H])c([H])c(F)c([H])c7F)c([H])c6[H])c(C(=O)N([H])[H])c5N([H])[H])C4([H])[H])C([H])([H])C3([H])C([H])([H])[H])c([H])c([H])c2C1([H])[H]

$$$$
68:0:0
     RDKit          3D

 86 94  0  0  1  0  0  0  0  0999 V2000
  -30.7680  -21.7370   20.5080 C   0  0  0  0  0  2  0  0  0  0  0  0
  -30.4510  -23.2330   20.4500 C   0  0  0  0  0  2  0  0  0  0  0  0
  -29.2940  -21.3640   20.6990 C   0  0  0  0  0  3  0  0  0  0  0  0
  -28.9780  -22.9990   20.0830 C   0  0  0  0  0  3  0  0  0  0  0  0
  -29.0320  -19.7580   20.1220 C   0  0  0  0  0  0  0  0  0  0  0  0
  -28.1360  -19.5560   19.3000 O   0  0  0  0  0  0  0  0  0  0  0  0
  -29.9030  -18.3370   20.5380 C   0  0  0  0  0  2  0  0  0  0  0  0
  -29.4670  -16.6380   20.3800 C   0  0  0  0  0  2  0  0  0  0  0  0
  -30.3710  -15.1750   20.2570 C   0  0  0  0  0  0  0  0  0  0  0  0
  -30.3540  -12.7570   19.3660 C   0  0  0  0  0  2  0  0  0  0  0  0
  -29.4140  -12.6340   18.1390 C   0  0  0  0  0  2  0  0  0  0  0  0
  -27.9590  -12.3860   18.5810 C   0  0  0  0  0  2  0  0  0  0  0  0
  -27.5350  -13.3240   19.7390 C   0  0  0  0  0  3  0  0  0  0  0  0
  -28.5950  -13.3970   20.8560 C   0  0  0  0  0  2  0  0  0  0  0  0
  -29.8470  -13.8630   20.2450 N   0  0  0  0  0  0  0  0  0  0  0  0
  -31.5790  -15.2290   19.9910 O   0  0  0  0  0  0  0  0  0  0  0  0
  -25.1660  -13.8870   20.5100 C   0  0  0  0  0  0  0  0  0  0  0  0
  -24.1070  -13.1080   20.8870 C   0  0  0  0  0  0  0  0  0  0  0  0
  -24.5760  -11.7590   20.8540 C   0  0  0  0  0  0  0  0  0  0  0  0
  -26.2080  -13.0130   20.2550 N   0  0  0  0  0  0  0  0  0  0  0  0
  -25.8650  -11.7260   20.5300 N   0  0  0  0  0  0  0  0  0  0  0  0
  -23.8540  -10.4950   21.0520 C   0  0  0  0  0  0  0  0  0  0  0  0
  -24.3060   -9.5190   21.9680 C   0  0  0  0  0  3  0  0  0  0  0  0
  -23.5810   -8.3220   22.1550 C   0  0  0  0  0  3  0  0  0  0  0  0
  -22.3900   -8.0920   21.4260 C   0  0  0  0  0  0  0  0  0  0  0  0
  -21.9570   -9.0560   20.4990 C   0  0  0  0  0  3  0  0  0  0  0  0
  -22.6820  -10.2450   20.3100 C   0  0  0  0  0  3  0  0  0  0  0  0
  -21.6350   -6.9480   21.5220 O   0  0  0  0  0  0  0  0  0  0  0  0
  -21.6260   -6.1850   22.6630 C   0  0  0  0  0  0  0  0  0  0  0  0
  -21.2580   -6.7230   23.9150 C   0  0  0  0  0  3  0  0  0  0  0  0
  -21.1940   -5.8880   25.0480 C   0  0  0  0  0  3  0  0  0  0  0  0
  -21.4890   -4.5160   24.9310 C   0  0  0  0  0  0  0  0  0  0  0  0
  -21.8500   -3.9780   23.6820 C   0  0  0  0  0  3  0  0  0  0  0  0
  -21.9150   -4.8100   22.5520 C   0  0  0  0  0  0  0  0  0  0  0  0
  -22.2440   -4.2830   21.3480 F   0  0  0  0  0  0  0  0  0  0  0  0
  -21.4210   -3.7120   26.0170 F   0  0  0  0  0  0  0  0  0  0  0  0
  -22.7110  -13.5820   21.1670 C   0  0  0  0  0  0  0  0  0  0  0  0
  -21.9920  -12.8870   22.0400 N   0  0  0  0  0  0  0  0  0  0  0  0
  -22.2670  -14.6050   20.6480 O   0  0  0  0  0  0  0  0  0  0  0  0
  -22.3650  -12.0610   22.4840 H   0  0  0  0  0  0  0  0  0  0  0  0
  -21.0550  -13.1880   22.2700 H   0  0  0  0  0  0  0  0  0  0  0  0
  -25.3250  -15.2580   20.3330 N   0  0  0  0  0  0  0  0  0  0  0  0
  -24.5590  -15.9120   20.4610 H   0  0  0  0  0  0  0  0  0  0  0  0
  -26.1720  -15.7030   20.0040 H   0  0  0  0  0  0  0  0  0  0  0  0
  -28.0220  -24.4140   20.5050 C   0  0  0  0  0  2  0  0  0  0  0  0
  -28.2550  -26.0020   20.2800 O   0  0  0  0  0  0  0  0  0  0  0  0
  -24.6730  -31.9010   23.2210 C   0  0  0  0  0  0  0  0  0  0  0  0
  -27.2150  -27.0460   20.2520 C   0  0  0  0  0  0  0  0  0  0  0  0
  -23.4670  -30.4910   21.6020 C   0  0  0  0  0  3  0  0  0  0  0  0
  -24.9070  -28.8770   20.1940 C   0  0  0  0  0  0  0  0  0  0  0  0
  -26.0290  -30.7170   21.4360 C   0  0  0  0  0  2  0  0  0  0  0  0
  -26.0960  -29.3040   20.7990 C   0  0  0  0  0  0  0  0  0  0  0  0
  -27.2480  -28.4100   20.8020 C   0  0  0  0  0  3  0  0  0  0  0  0
  -25.9980  -26.7510   19.6010 C   0  0  0  0  0  3  0  0  0  0  0  0
  -24.8790  -27.6180   19.5750 C   0  0  0  0  0  3  0  0  0  0  0  0
  -23.6880  -29.7940   20.2320 C   0  0  0  0  0  2  0  0  0  0  0  0
  -24.7450  -31.0620   22.1400 N   0  0  0  0  0  0  0  0  0  0  0  0
  -23.5870  -32.1970   23.7450 O   0  0  0  0  0  0  0  0  0  0  0  0
  -22.7800  -29.5040   22.5790 C   0  0  0  0  0  0  0  0  0  0  0  0
  -21.4490  -29.3390   22.4600 N   0  0  0  0  0  0  0  0  0  0  0  0
  -23.4490  -28.8860   23.4120 O   0  0  0  0  0  0  0  0  0  0  0  0
  -20.9630  -29.8870   21.7640 H   0  0  0  0  0  0  0  0  0  0  0  0
  -18.0690  -28.1360   22.9810 C   0  0  0  0  0  0  0  0  0  0  0  0
  -20.6270  -28.4130   23.2450 C   0  0  0  0  0  3  0  0  0  0  0  0
  -20.7340  -26.9720   22.6940 C   0  0  0  0  0  2  0  0  0  0  0  0
  -19.6350  -26.6290   21.6840 C   0  0  0  0  0  2  0  0  0  0  0  0
  -18.2520  -26.7780   22.3230 C   0  0  0  0  0  2  0  0  0  0  0  0
  -19.1830  -28.9100   23.3990 C   0  0  0  0  0  0  0  0  0  0  0  0
  -18.9580  -30.1780   23.9770 C   0  0  0  0  0  3  0  0  0  0  0  0
  -17.6500  -30.6730   24.1380 C   0  0  0  0  0  3  0  0  0  0  0  0
  -16.5490  -29.8980   23.7340 C   0  0  0  0  0  3  0  0  0  0  0  0
  -16.7600  -28.6300   23.1620 C   0  0  0  0  0  3  0  0  0  0  0  0
  -25.9500  -32.5460   23.8410 C   0  0  0  0  0  3  0  0  0  0  0  0
  -26.4690  -31.7810   25.1220 C   0  0  1  0  0  0  0  0  0  0  0  0
  -25.3800  -31.5520   26.1960 C   0  0  0  0  0  1  0  0  0  0  0  0
  -27.0490  -30.4000   24.7410 C   0  0  0  0  0  1  0  0  0  0  0  0
  -27.6240  -32.5780   25.7730 C   0  0  0  0  0  1  0  0  0  0  0  0
  -25.6330  -33.9440   24.1780 N   0  0  0  0  0  0  0  0  0  0  0  0
  -25.9520  -35.0050   23.4230 C   0  0  0  0  0  0  0  0  0  0  0  0
  -26.6070  -34.9090   22.3830 O   0  0  0  0  0  0  0  0  0  0  0  0
  -25.0480  -34.0920   24.9870 H   0  0  0  0  0  0  0  0  0  0  0  0
  -24.2090  -36.7970   23.1170 C   0  0  0  0  0  1  0  0  0  0  0  0
  -25.4690  -36.3910   23.8980 C   0  0  0  0  0  3  0  0  0  0  0  0
  -27.6180  -37.2850   24.6830 C   0  0  0  0  0  1  0  0  0  0  0  0
  -26.4940  -37.4500   23.7650 N   0  0  0  0  0  0  0  0  0  0  0  0
  -26.0880  -38.3680   23.9230 H   0  0  0  0  0  0  0  0  0  0  0  0
  1  3  1  0
  2  1  1  0
  3  5  1  0
  4  2  1  0
  4 45  1  0
  4  3  1  0
  5  7  1  0
  6  5  2  0
  8  7  1  0
  9  8  1  0
 10 15  1  0
 11 12  1  0
 11 10  1  0
 13 12  1  0
 13 20  1  0
 13 14  1  0
 15  9  1  0
 15 14  1  0
 16  9  2  0
 17 18  2  0
 18 37  1  0
 19 18  1  0
 19 22  1  0
 20 17  1  0
 20 21  1  0
 21 19  2  0
 22 23  1  0
 23 24  2  0
 25 28  1  0
 25 24  1  0
 26 25  2  0
 27 26  1  0
 27 22  2  0
 28 29  1  0
 29 30  1  0
 30 31  2  0
 32 31  1  0
 32 36  1  0
 33 32  2  0
 34 29  2  0
 34 33  1  0
 35 34  1  0
 37 38  1  0
 38 41  1  0
 38 40  1  0
 39 37  2  0
 42 43  1  0
 42 17  1  0
 44 42  1  0
 46 45  1  0
 47 58  2  0
 48 46  1  0
 48 53  1  0
 49 57  1  0
 49 59  1  0
 50 56  1  0
 50 52  1  0
 51 57  1  0
 52 53  2  0
 52 51  1  0
 54 48  2  0
 55 54  1  0
 55 50  2  0
 56 49  1  0
 57 47  1  0
 59 61  2  0
 60 59  1  0
 62 60  1  0
 63 72  2  0
 63 68  1  0
 64 60  1  0
 64 68  1  0
 65 64  1  0
 66 67  1  0
 66 65  1  0
 67 63  1  0
 68 69  2  0
 69 70  1  0
 71 70  2  0
 72 71  1  0
 73 47  1  0
 73 78  1  0
 73 74  1  0
 74 77  1  1
 74 75  1  0
 76 74  1  0
 78 81  1  0
 79 83  1  0
 79 78  1  0
 80 79  2  0
 83 82  1  0
 85 83  1  0
 85 86  1  0
 85 84  1  0
M  ISO  4   8 100   9 100  45 101  46 101
M  END
>  <TORSDO>  (69) 
F 20

>  <SCORE>  (69) 
-16.099

>  <name>  (69) 
68

>  <ligand_id>  (69) 
68

>  <original_smiles>  (69) 
[H]c1c([H])c([H])c2c(c1[H])C([H])([H])C([H])([H])C([H])([H])C2([H])N([H])C(=O)C1([H])N(C(=O)C([H])(N([H])C(=O)C([H])(N([H])C([H])([H])[H])C([H])([H])[H])C(C([H])([H])[H])(C([H])([H])[H])C([H])([H])[H])C([H])([H])c2c([H])c(OC([H])([H])C3([H])C([H])([H])C([H])([H])C3([H])C(=O)C([H])([H])C([H])([H])C(=O)N3C([H])([H])C([H])([H])C([H])([H])C([H])(n4nc(-c5c([H])c([H])c(Oc6c([H])c([H])c(F)c([H])c6F)c([H])c5[H])c(C(=O)N([H])[H])c4N([H])[H])C3([H])[H])c([H])c([H])c2C1([H])[H]

>  <smiles>  (69) 
[H]c1c([H])c([H])c2c(c1[H])C([H])([H])C([H])([H])C([H])([H])C2([H])N([H])C(=O)C1([H])N(C(=O)C([H])(N([H])C(=O)C([H])(N([H])C([H])([H])[H])C([H])([H])[H])C(C([H])([H])[H])(C([H])([H])[H])C([H])([H])[H])C([H])([H])c2c([H])c(OC([H])([H])C3([H])C([H])([H])C([H])([H])C3([H])C(=O)C([H])([H])C([H])([H])C(=O)N3C([H])([H])C([H])([H])C([H])([H])C([H])(n4nc(-c5c([H])c([H])c(Oc6c([H])c([H])c(F)c([H])c6F)c([H])c5[H])c(C(=O)N([H])[H])c4N([H])[H])C3([H])[H])c([H])c([H])c2C1([H])[H]

$$$$
69:0:0
     RDKit          3D

 92103  0  0  1  0  0  0  0  0999 V2000
  -29.9330  -17.7230   20.4000 C   0  0  0  0  0  0  0  0  0  0  0  0
  -30.3790  -16.3560   20.5890 C   0  0  0  0  0  0  0  0  0  0  0  0
  -29.5120  -18.6040   21.5760 C   0  0  0  0  0  2  0  0  0  0  0  0
  -27.9490  -18.8980   19.6750 C   0  0  0  0  0  2  0  0  0  0  0  0
  -28.4170  -21.7480   19.1510 C   0  0  0  0  0  2  0  0  0  0  0  0
  -30.2750  -22.7720   20.0870 C   0  0  0  0  0  2  0  0  0  0  0  0
  -29.4460  -18.8400   19.3160 C   0  0  2  0  0  0  0  0  0  0  0  0
  -28.5930  -19.6230   20.8780 C   0  0  1  0  0  0  0  0  0  0  0  0
  -28.7840  -23.1830   19.8480 C   0  0  0  0  0  3  0  0  0  0  0  0
  -29.2670  -20.4880   19.7850 C   0  0  2  0  0  0  0  0  0  0  0  0
  -30.6370  -16.0120   22.0600 C   0  0  0  0  0  1  0  0  0  0  0  0
  -30.4380  -21.2670   20.2880 N   0  0  0  0  0  4  0  0  0  0  0  0
  -30.5630  -21.0810   21.2690 H   0  0  0  0  0  0  0  0  0  0  0  0
  -31.2740  -20.9700   19.8100 H   0  0  0  0  0  0  0  0  0  0  0  0
  -30.8890  -15.1590   19.7200 C   0  0  0  0  0  0  0  0  0  0  0  0
  -30.6490  -12.7930   18.7690 C   0  0  0  0  0  2  0  0  0  0  0  0
  -29.6170  -12.7630   17.6140 C   0  0  0  0  0  2  0  0  0  0  0  0
  -28.1930  -12.5580   18.1590 C   0  0  0  0  0  2  0  0  0  0  0  0
  -27.9040  -13.4770   19.3720 C   0  0  0  0  0  3  0  0  0  0  0  0
  -29.0480  -13.4750   20.4120 C   0  0  0  0  0  2  0  0  0  0  0  0
  -30.2750  -13.8930   19.7180 N   0  0  0  0  0  0  0  0  0  0  0  0
  -31.9600  -15.2220   19.1060 O   0  0  0  0  0  0  0  0  0  0  0  0
  -25.6300  -14.0890   20.3670 C   0  0  0  0  0  0  0  0  0  0  0  0
  -24.5790  -13.3330   20.8020 C   0  0  0  0  0  0  0  0  0  0  0  0
  -24.9870  -11.9690   20.6670 C   0  0  0  0  0  0  0  0  0  0  0  0
  -26.6110  -13.1920   19.9850 N   0  0  0  0  0  0  0  0  0  0  0  0
  -26.2410  -11.9070   20.2300 N   0  0  0  0  0  0  0  0  0  0  0  0
  -24.2360  -10.7230   20.8720 C   0  0  0  0  0  0  0  0  0  0  0  0
  -24.6690   -9.7380   21.7880 C   0  0  0  0  0  3  0  0  0  0  0  0
  -23.9150   -8.5590   21.9820 C   0  0  0  0  0  3  0  0  0  0  0  0
  -22.7150   -8.3580   21.2590 C   0  0  0  0  0  0  0  0  0  0  0  0
  -22.3000   -9.3310   20.3330 C   0  0  0  0  0  3  0  0  0  0  0  0
  -23.0530  -10.5010   20.1370 C   0  0  0  0  0  3  0  0  0  0  0  0
  -21.9330   -7.2340   21.3630 O   0  0  0  0  0  0  0  0  0  0  0  0
  -21.8240   -6.5370   22.5400 C   0  0  0  0  0  0  0  0  0  0  0  0
  -21.3320   -7.1390   23.7190 C   0  0  0  0  0  3  0  0  0  0  0  0
  -21.1760   -6.3710   24.8910 C   0  0  0  0  0  3  0  0  0  0  0  0
  -21.4990   -5.0010   24.8800 C   0  0  0  0  0  0  0  0  0  0  0  0
  -21.9810   -4.3970   23.7050 C   0  0  0  0  0  3  0  0  0  0  0  0
  -22.1420   -5.1640   22.5380 C   0  0  0  0  0  0  0  0  0  0  0  0
  -22.5900   -4.5740   21.4030 F   0  0  0  0  0  0  0  0  0  0  0  0
  -21.3390   -4.2590   26.0000 F   0  0  0  0  0  0  0  0  0  0  0  0
  -23.2330  -13.8440   21.2310 C   0  0  0  0  0  0  0  0  0  0  0  0
  -22.5750  -13.1430   22.1450 N   0  0  0  0  0  0  0  0  0  0  0  0
  -22.7810  -14.9000   20.7880 O   0  0  0  0  0  0  0  0  0  0  0  0
  -22.9540  -12.2850   22.5210 H   0  0  0  0  0  0  0  0  0  0  0  0
  -21.6770  -13.4660   22.4780 H   0  0  0  0  0  0  0  0  0  0  0  0
  -25.8340  -15.4600   20.2340 N   0  0  0  0  0  0  0  0  0  0  0  0
  -25.1090  -16.1380   20.4420 H   0  0  0  0  0  0  0  0  0  0  0  0
  -26.6730  -15.8770   19.8540 H   0  0  0  0  0  0  0  0  0  0  0  0
  -28.3710  -24.7090   19.1700 C   0  0  0  0  0  2  0  0  0  0  0  0
  -28.3700  -26.1920   19.7160 O   0  0  0  0  0  0  0  0  0  0  0  0
  -24.5890  -31.6430   22.9930 C   0  0  0  0  0  0  0  0  0  0  0  0
  -27.2810  -27.1570   19.6790 C   0  0  0  0  0  0  0  0  0  0  0  0
  -23.4190  -30.3040   21.2870 C   0  0  0  0  0  3  0  0  0  0  0  0
  -24.9040  -28.8560   19.7690 C   0  0  0  0  0  0  0  0  0  0  0  0
  -25.9650  -30.6520   21.1240 C   0  0  0  0  0  2  0  0  0  0  0  0
  -26.0770  -29.2980   20.3920 C   0  0  0  0  0  0  0  0  0  0  0  0
  -27.2620  -28.4630   20.3320 C   0  0  0  0  0  3  0  0  0  0  0  0
  -26.0680  -26.8270   19.0340 C   0  0  0  0  0  3  0  0  0  0  0  0
  -24.9100  -27.6330   19.0860 C   0  0  0  0  0  3  0  0  0  0  0  0
  -23.6530  -29.7150   19.8710 C   0  0  0  0  0  2  0  0  0  0  0  0
  -24.6770  -30.8860   21.8570 N   0  0  0  0  0  0  0  0  0  0  0  0
  -23.5000  -31.8640   23.5440 O   0  0  0  0  0  0  0  0  0  0  0  0
  -22.7790  -29.2250   22.1970 C   0  0  0  0  0  0  0  0  0  0  0  0
  -21.4490  -29.0450   22.1000 N   0  0  0  0  0  0  0  0  0  0  0  0
  -23.4790  -28.5500   22.9570 O   0  0  0  0  0  0  0  0  0  0  0  0
  -20.9350  -29.6470   21.4710 H   0  0  0  0  0  0  0  0  0  0  0  0
  -18.0940  -27.7850   22.6480 C   0  0  0  0  0  0  0  0  0  0  0  0
  -20.6630  -28.0480   22.8320 C   0  0  0  0  0  3  0  0  0  0  0  0
  -20.7460  -26.6640   22.1490 C   0  0  0  0  0  2  0  0  0  0  0  0
  -19.6060  -26.4080   21.1580 C   0  0  0  0  0  2  0  0  0  0  0  0
  -18.2490  -26.4950   21.8610 C   0  0  0  0  0  2  0  0  0  0  0  0
  -19.2270  -28.5220   23.0880 C   0  0  0  0  0  0  0  0  0  0  0  0
  -19.0240  -29.7330   23.7850 C   0  0  0  0  0  3  0  0  0  0  0  0
  -17.7250  -30.2120   24.0390 C   0  0  0  0  0  3  0  0  0  0  0  0
  -16.6090  -29.4710   23.6130 C   0  0  0  0  0  3  0  0  0  0  0  0
  -16.7950  -28.2590   22.9250 C   0  0  0  0  0  3  0  0  0  0  0  0
  -25.8540  -32.2830   23.6460 C   0  0  0  0  0  3  0  0  0  0  0  0
  -25.5000  -33.6500   24.0620 N   0  0  0  0  0  0  0  0  0  0  0  0
  -25.7860  -34.7580   23.3670 C   0  0  0  0  0  0  0  0  0  0  0  0
  -26.4440  -34.7390   22.3230 O   0  0  0  0  0  0  0  0  0  0  0  0
  -24.9160  -33.7370   24.8810 H   0  0  0  0  0  0  0  0  0  0  0  0
  -23.9930  -36.5100   23.1550 C   0  0  0  0  0  1  0  0  0  0  0  0
  -25.2630  -36.1000   23.9170 C   0  0  0  0  0  3  0  0  0  0  0  0
  -27.3760  -37.0150   24.7680 C   0  0  0  0  0  1  0  0  0  0  0  0
  -26.2570  -37.1940   23.8470 N   0  0  0  0  0  0  0  0  0  0  0  0
  -25.8230  -38.0910   24.0480 H   0  0  0  0  0  0  0  0  0  0  0  0
  -26.4000  -31.4590   24.8760 C   0  0  1  0  0  0  0  0  0  0  0  0
  -25.3250  -31.1450   25.9420 C   0  0  0  0  0  1  0  0  0  0  0  0
  -27.0130  -30.1140   24.4160 C   0  0  0  0  0  1  0  0  0  0  0  0
  -27.5400  -32.2450   25.5650 C   0  0  0  0  0  1  0  0  0  0  0  0
  1  2  2  0
  1  3  1  0
  2 11  1  0
  5  9  1  0
  6 12  1  0
  7  4  1  1
  7 10  1  0
  7  1  1  0
  7  8  1  0
  8  4  1  6
  8  3  1  0
  9 51  1  0
  9  6  1  0
 10  5  1  6
 10 12  1  0
 10  8  1  0
 12 13  1  0
 14 12  1  0
 15  2  1  0
 16 21  1  0
 17 18  1  0
 17 16  1  0
 19 18  1  0
 19 26  1  0
 19 20  1  0
 21 15  1  0
 21 20  1  0
 22 15  2  0
 23 24  2  0
 24 43  1  0
 25 24  1  0
 25 28  1  0
 26 27  1  0
 26 23  1  0
 27 25  2  0
 28 29  1  0
 29 30  2  0
 31 34  1  0
 31 30  1  0
 32 31  2  0
 33 32  1  0
 33 28  2  0
 34 35  1  0
 35 36  1  0
 36 37  2  0
 38 37  1  0
 38 42  1  0
 39 38  2  0
 40 35  2  0
 40 39  1  0
 41 40  1  0
 43 44  1  0
 44 47  1  0
 44 46  1  0
 45 43  2  0
 48 23  1  0
 48 49  1  0
 50 48  1  0
 51 52  1  0
 53 64  2  0
 54 52  1  0
 54 59  1  0
 55 63  1  0
 55 65  1  0
 56 62  1  0
 56 58  1  0
 57 63  1  0
 58 57  1  0
 59 58  2  0
 60 61  1  0
 60 54  2  0
 61 56  2  0
 62 55  1  0
 63 53  1  0
 65 67  2  0
 66 65  1  0
 68 66  1  0
 69 78  2  0
 69 74  1  0
 70 66  1  0
 70 74  1  0
 71 70  1  0
 72 73  1  0
 72 71  1  0
 73 69  1  0
 74 75  2  0
 75 76  1  0
 77 76  2  0
 78 77  1  0
 79 53  1  0
 79 80  1  0
 79 89  1  0
 80 83  1  0
 81 85  1  0
 81 80  1  0
 82 81  2  0
 85 84  1  0
 87 85  1  0
 87 88  1  0
 87 86  1  0
 89 92  1  1
 89 90  1  0
 91 89  1  0
M  ISO  4   2 100  15 100  51 101  52 101
M  END
>  <TORSDO>  (70) 
F 17

>  <SCORE>  (70) 
-14.115

>  <name>  (70) 
69

>  <ligand_id>  (70) 
69

>  <original_smiles>  (70) 
[H]c1c([H])c([H])c2c(c1[H])C([H])([H])C([H])([H])C([H])([H])C2([H])N([H])C(=O)C1([H])N(C(=O)C([H])(N([H])C(=O)C([H])(N([H])C([H])([H])[H])C([H])([H])[H])C(C([H])([H])[H])(C([H])([H])[H])C([H])([H])[H])C([H])([H])c2c([H])c(OC([H])([H])C3([H])C([H])([H])C4(C5([H])C(=C(C(=O)N6C([H])([H])C([H])([H])C([H])([H])C([H])(n7nc(-c8c([H])c([H])c(Oc9c([H])c([H])c(F)c([H])c9F)c([H])c8[H])c(C(=O)N([H])[H])c7N([H])[H])C6([H])[H])C([H])([H])[H])C([H])([H])C4([H])C5([H])[H])[N+]([H])([H])C3([H])[H])c([H])c([H])c2C1([H])[H]

>  <smiles>  (70) 
[H]c1c([H])c([H])c2c(c1[H])C([H])([H])C([H])([H])C([H])([H])C2([H])N([H])C(=O)C1([H])N(C(=O)C([H])(N([H])C(=O)C([H])(N([H])C([H])([H])[H])C([H])([H])[H])C(C([H])([H])[H])(C([H])([H])[H])C([H])([H])[H])C([H])([H])c2c([H])c(OC([H])([H])C3([H])C([H])([H])C4(C5([H])C(=C(C(=O)N6C([H])([H])C([H])([H])C([H])([H])C([H])(n7nc(-c8c([H])c([H])c(Oc9c([H])c([H])c(F)c([H])c9F)c([H])c8[H])c(C(=O)N([H])[H])c7N([H])[H])C6([H])[H])C([H])([H])[H])C([H])([H])C4([H])C5([H])[H])[N+]([H])([H])C3([H])[H])c([H])c([H])c2C1([H])[H]

$$$$
70:0:0
     RDKit          3D

 88 96  0  0  1  0  0  0  0  0999 V2000
  -29.0930  -21.4840   20.9880 C   0  0  0  0  0  0  0  0  0  0  0  0
  -28.3580  -22.0350   18.8640 C   0  0  0  0  0  2  0  0  0  0  0  0
  -28.8280  -22.8710   20.1090 C   0  0  0  0  0  3  0  0  0  0  0  0
  -28.9360  -19.9770   20.2170 C   0  0  0  0  0  3  0  0  0  0  0  0
  -28.9030  -20.6040   18.8620 N   0  0  0  0  0  4  0  0  0  0  0  0
  -29.3970  -21.5810   22.1810 O   0  0  0  0  0  0  0  0  0  0  0  0
  -29.8490  -20.6470   18.5210 H   0  0  0  0  0  0  0  0  0  0  0  0
  -28.3770  -20.0330   18.2210 H   0  0  0  0  0  0  0  0  0  0  0  0
  -27.9740  -24.3860   20.5170 C   0  0  0  0  0  2  0  0  0  0  0  0
  -28.2220  -25.9880   20.3100 O   0  0  0  0  0  0  0  0  0  0  0  0
  -24.6180  -31.9120   23.2450 C   0  0  0  0  0  0  0  0  0  0  0  0
  -27.1870  -27.0480   20.2790 C   0  0  0  0  0  0  0  0  0  0  0  0
  -23.4260  -30.4990   21.6180 C   0  0  0  0  0  3  0  0  0  0  0  0
  -24.8770  -28.8900   20.2150 C   0  0  0  0  0  0  0  0  0  0  0  0
  -25.9890  -30.7270   21.4660 C   0  0  0  0  0  2  0  0  0  0  0  0
  -26.0630  -29.3150   20.8270 C   0  0  0  0  0  0  0  0  0  0  0  0
  -27.2170  -28.4160   20.8320 C   0  0  0  0  0  3  0  0  0  0  0  0
  -25.9710  -26.7630   19.6210 C   0  0  0  0  0  3  0  0  0  0  0  0
  -24.8530  -27.6320   19.5910 C   0  0  0  0  0  3  0  0  0  0  0  0
  -23.6550  -29.8040   20.2490 C   0  0  0  0  0  2  0  0  0  0  0  0
  -24.6980  -31.0730   22.1630 N   0  0  0  0  0  0  0  0  0  0  0  0
  -23.5290  -32.2040   23.7640 O   0  0  0  0  0  0  0  0  0  0  0  0
  -22.7360  -29.5080   22.5930 C   0  0  0  0  0  0  0  0  0  0  0  0
  -21.4070  -29.3370   22.4650 N   0  0  0  0  0  0  0  0  0  0  0  0
  -23.4030  -28.8940   23.4290 O   0  0  0  0  0  0  0  0  0  0  0  0
  -20.9220  -29.8830   21.7670 H   0  0  0  0  0  0  0  0  0  0  0  0
  -18.0280  -28.1230   22.9780 C   0  0  0  0  0  0  0  0  0  0  0  0
  -20.5860  -28.4050   23.2460 C   0  0  0  0  0  3  0  0  0  0  0  0
  -20.6960  -26.9670   22.6880 C   0  0  0  0  0  2  0  0  0  0  0  0
  -19.5970  -26.6260   21.6750 C   0  0  0  0  0  2  0  0  0  0  0  0
  -18.2130  -26.7680   22.3140 C   0  0  0  0  0  2  0  0  0  0  0  0
  -19.1410  -28.8980   23.4010 C   0  0  0  0  0  0  0  0  0  0  0  0
  -18.9110  -30.1620   23.9850 C   0  0  0  0  0  3  0  0  0  0  0  0
  -17.6020  -30.6540   24.1480 C   0  0  0  0  0  3  0  0  0  0  0  0
  -16.5030  -29.8780   23.7390 C   0  0  0  0  0  3  0  0  0  0  0  0
  -16.7170  -28.6140   23.1600 C   0  0  0  0  0  3  0  0  0  0  0  0
  -25.8890  -32.5620   23.8700 C   0  0  0  0  0  3  0  0  0  0  0  0
  -26.3930  -31.8110   25.1660 C   0  0  1  0  0  0  0  0  0  0  0  0
  -25.2890  -31.5920   26.2280 C   0  0  0  0  0  1  0  0  0  0  0  0
  -26.9810  -30.4280   24.8090 C   0  0  0  0  0  1  0  0  0  0  0  0
  -27.5370  -32.6170   25.8250 C   0  0  0  0  0  1  0  0  0  0  0  0
  -25.5710  -33.9640   24.1880 N   0  0  0  0  0  0  0  0  0  0  0  0
  -25.9030  -35.0170   23.4300 C   0  0  0  0  0  0  0  0  0  0  0  0
  -26.5760  -34.9100   22.4000 O   0  0  0  0  0  0  0  0  0  0  0  0
  -24.9740  -34.1200   24.9870 H   0  0  0  0  0  0  0  0  0  0  0  0
  -24.1810  -36.8170   23.0690 C   0  0  0  0  0  1  0  0  0  0  0  0
  -25.4190  -36.4090   23.8830 C   0  0  0  0  0  3  0  0  0  0  0  0
  -27.5500  -37.2990   24.7230 C   0  0  0  0  0  1  0  0  0  0  0  0
  -26.4540  -37.4610   23.7710 N   0  0  0  0  0  0  0  0  0  0  0  0
  -26.0480  -38.3820   23.9080 H   0  0  0  0  0  0  0  0  0  0  0  0
  -29.8840  -18.4720   20.4180 C   0  0  0  0  0  3  0  0  0  0  0  0
  -29.4660  -16.7420   20.3330 C   0  0  0  0  0  3  0  0  0  0  0  0
  -30.3720  -15.2620   20.2100 C   0  0  0  0  0  0  0  0  0  0  0  0
  -30.3640  -12.8350   19.3210 C   0  0  0  0  0  2  0  0  0  0  0  0
  -29.4100  -12.6910   18.1050 C   0  0  0  0  0  2  0  0  0  0  0  0
  -27.9640  -12.4270   18.5670 C   0  0  0  0  0  2  0  0  0  0  0  0
  -27.5470  -13.3640   19.7290 C   0  0  0  0  0  3  0  0  0  0  0  0
  -28.6200  -13.4550   20.8300 C   0  0  0  0  0  2  0  0  0  0  0  0
  -29.8570  -13.9420   20.2010 N   0  0  0  0  0  0  0  0  0  0  0  0
  -31.5800  -15.3110   19.9380 O   0  0  0  0  0  0  0  0  0  0  0  0
  -25.1940  -13.9100   20.5540 C   0  0  0  0  0  0  0  0  0  0  0  0
  -24.1420  -13.1260   20.9360 C   0  0  0  0  0  0  0  0  0  0  0  0
  -24.6080  -11.7770   20.8680 C   0  0  0  0  0  0  0  0  0  0  0  0
  -26.2290  -13.0400   20.2650 N   0  0  0  0  0  0  0  0  0  0  0  0
  -25.8910  -11.7500   20.5230 N   0  0  0  0  0  0  0  0  0  0  0  0
  -23.8860  -10.5100   21.0560 C   0  0  0  0  0  0  0  0  0  0  0  0
  -24.3340   -9.5310   21.9700 C   0  0  0  0  0  3  0  0  0  0  0  0
  -23.6110   -8.3320   22.1450 C   0  0  0  0  0  3  0  0  0  0  0  0
  -22.4250   -8.1040   21.4070 C   0  0  0  0  0  0  0  0  0  0  0  0
  -21.9960   -9.0710   20.4820 C   0  0  0  0  0  3  0  0  0  0  0  0
  -22.7200  -10.2610   20.3040 C   0  0  0  0  0  3  0  0  0  0  0  0
  -21.6720   -6.9570   21.4930 O   0  0  0  0  0  0  0  0  0  0  0  0
  -21.6320   -6.2060   22.6400 C   0  0  0  0  0  0  0  0  0  0  0  0
  -21.1980   -6.7460   23.8700 C   0  0  0  0  0  3  0  0  0  0  0  0
  -21.1070   -5.9210   25.0090 C   0  0  0  0  0  3  0  0  0  0  0  0
  -21.4390   -4.5560   24.9180 C   0  0  0  0  0  0  0  0  0  0  0  0
  -21.8670   -4.0150   23.6920 C   0  0  0  0  0  3  0  0  0  0  0  0
  -21.9590   -4.8380   22.5560 C   0  0  0  0  0  0  0  0  0  0  0  0
  -22.3510   -4.3060   21.3730 F   0  0  0  0  0  0  0  0  0  0  0  0
  -21.3450   -3.7610   26.0100 F   0  0  0  0  0  0  0  0  0  0  0  0
  -22.7510  -13.5970   21.2490 C   0  0  0  0  0  0  0  0  0  0  0  0
  -22.0420  -12.8840   22.1160 N   0  0  0  0  0  0  0  0  0  0  0  0
  -22.3020  -14.6320   20.7580 O   0  0  0  0  0  0  0  0  0  0  0  0
  -22.4200  -12.0460   22.5350 H   0  0  0  0  0  0  0  0  0  0  0  0
  -21.1110  -13.1810   22.3680 H   0  0  0  0  0  0  0  0  0  0  0  0
  -25.3520  -15.2850   20.4000 N   0  0  0  0  0  0  0  0  0  0  0  0
  -24.5890  -15.9360   20.5520 H   0  0  0  0  0  0  0  0  0  0  0  0
  -26.1950  -15.7320   20.0640 H   0  0  0  0  0  0  0  0  0  0  0  0
  1  6  2  0
  2  3  1  0
  3  9  1  0
  3  1  1  0
  4 51  1  0
  4  1  1  0
  5  2  1  0
  5  4  1  0
  7  5  1  0
  8  5  1  0
 10  9  1  0
 11 22  2  0
 12 10  1  0
 12 17  1  0
 13 21  1  0
 13 23  1  0
 14 20  1  0
 14 16  1  0
 15 21  1  0
 16 17  2  0
 16 15  1  0
 18 12  2  0
 19 18  1  0
 19 14  2  0
 20 13  1  0
 21 11  1  0
 23 25  2  0
 24 23  1  0
 26 24  1  0
 27 36  2  0
 27 32  1  0
 28 24  1  0
 28 32  1  0
 29 28  1  0
 30 31  1  0
 30 29  1  0
 31 27  1  0
 32 33  2  0
 33 34  1  0
 35 34  2  0
 36 35  1  0
 37 11  1  0
 37 42  1  0
 37 38  1  0
 38 41  1  1
 38 39  1  0
 40 38  1  0
 42 45  1  0
 43 47  1  0
 43 42  1  0
 44 43  2  0
 47 46  1  0
 49 47  1  0
 49 50  1  0
 49 48  1  0
 52 51  2  0
 53 52  1  0
 54 59  1  0
 55 56  1  0
 55 54  1  0
 57 56  1  0
 57 64  1  0
 57 58  1  0
 59 53  1  0
 59 58  1  0
 60 53  2  0
 61 62  2  0
 62 81  1  0
 63 62  1  0
 63 66  1  0
 64 65  1  0
 64 61  1  0
 65 63  2  0
 66 67  1  0
 67 68  2  0
 69 72  1  0
 69 68  1  0
 70 69  2  0
 71 70  1  0
 71 66  2  0
 72 73  1  0
 73 74  1  0
 74 75  2  0
 76 75  1  0
 76 80  1  0
 77 76  2  0
 78 73  2  0
 78 77  1  0
 79 78  1  0
 81 82  1  0
 82 85  1  0
 82 84  1  0
 83 81  2  0
 86 87  1  0
 86 61  1  0
 88 86  1  0
M  ISO  4   9 101  10 101  52 100  53 100
M  END
>  <TORSDO>  (71) 
F 19

>  <SCORE>  (71) 
-16.241

>  <name>  (71) 
70

>  <ligand_id>  (71) 
70

>  <original_smiles>  (71) 
[H]c1c([H])c([H])c2c(c1[H])C([H])([H])C([H])([H])C([H])([H])C2([H])N([H])C(=O)C1([H])N(C(=O)C([H])(N([H])C(=O)C([H])(N([H])C([H])([H])[H])C([H])([H])[H])C(C([H])([H])[H])(C([H])([H])[H])C([H])([H])[H])C([H])([H])c2c([H])c(OC([H])([H])C3([H])C(=O)C([H])(C([H])([H])C([H])([H])C(=O)N4C([H])([H])C([H])([H])C([H])([H])C([H])(n5nc(-c6c([H])c([H])c(Oc7c([H])c([H])c(F)c([H])c7F)c([H])c6[H])c(C(=O)N([H])[H])c5N([H])[H])C4([H])[H])[N+]([H])([H])C3([H])[H])c([H])c([H])c2C1([H])[H]

>  <smiles>  (71) 
[H]c1c([H])c([H])c2c(c1[H])C([H])([H])C([H])([H])C([H])([H])C2([H])N([H])C(=O)C1([H])N(C(=O)C([H])(N([H])C(=O)C([H])(N([H])C([H])([H])[H])C([H])([H])[H])C(C([H])([H])[H])(C([H])([H])[H])C([H])([H])[H])C([H])([H])c2c([H])c(OC([H])([H])C3([H])C(=O)C([H])(C([H])([H])C([H])([H])C(=O)N4C([H])([H])C([H])([H])C([H])([H])C([H])(n5nc(-c6c([H])c([H])c(Oc7c([H])c([H])c(F)c([H])c7F)c([H])c6[H])c(C(=O)N([H])[H])c5N([H])[H])C4([H])[H])[N+]([H])([H])C3([H])[H])c([H])c([H])c2C1([H])[H]

$$$$
71:0:0
     RDKit          3D

 89 97  0  0  1  0  0  0  0  0999 V2000
  -29.2170  -20.7770   20.4070 C   0  0  0  0  0  0  0  0  0  0  0  0
  -28.3700  -21.8180   20.0420 C   0  0  0  0  0  0  0  0  0  0  0  0
  -30.2970  -21.4460   21.2410 C   0  0  0  0  0  2  0  0  0  0  0  0
  -30.1110  -23.0190   21.0420 C   0  0  0  0  0  2  0  0  0  0  0  0
  -28.6420  -23.2960   20.5960 C   0  0  0  0  0  3  0  0  0  0  0  0
  -29.0760  -19.1900   20.1660 C   0  0  0  0  0  0  0  0  0  0  0  0
  -28.0130  -18.8090   19.6690 O   0  0  0  0  0  0  0  0  0  0  0  0
  -30.1220  -17.9480   20.4600 C   0  0  0  0  0  2  0  0  0  0  0  0
  -29.6300  -16.3440   20.6350 C   0  0  0  0  0  2  0  0  0  0  0  0
  -30.4910  -14.9690   20.3070 C   0  0  0  0  0  0  0  0  0  0  0  0
  -30.3710  -12.6360   19.3220 C   0  0  0  0  0  2  0  0  0  0  0  0
  -29.4100  -12.6550   18.1080 C   0  0  0  0  0  2  0  0  0  0  0  0
  -27.9530  -12.4350   18.5580 C   0  0  0  0  0  2  0  0  0  0  0  0
  -27.5760  -13.3250   19.7700 C   0  0  0  0  0  3  0  0  0  0  0  0
  -28.6540  -13.2920   20.8730 C   0  0  0  0  0  2  0  0  0  0  0  0
  -29.9290  -13.6960   20.2690 N   0  0  0  0  0  0  0  0  0  0  0  0
  -31.6700  -15.0720   19.9500 O   0  0  0  0  0  0  0  0  0  0  0  0
  -25.2050  -13.8910   20.5580 C   0  0  0  0  0  0  0  0  0  0  0  0
  -24.1490  -13.1090   20.9350 C   0  0  0  0  0  0  0  0  0  0  0  0
  -24.6170  -11.7610   20.8830 C   0  0  0  0  0  0  0  0  0  0  0  0
  -26.2480  -13.0190   20.2900 N   0  0  0  0  0  0  0  0  0  0  0  0
  -25.9020  -11.7320   20.5490 N   0  0  0  0  0  0  0  0  0  0  0  0
  -23.8980  -10.4940   21.0700 C   0  0  0  0  0  0  0  0  0  0  0  0
  -24.3460   -9.5160   21.9850 C   0  0  0  0  0  3  0  0  0  0  0  0
  -23.6240   -8.3150   22.1620 C   0  0  0  0  0  3  0  0  0  0  0  0
  -22.4390   -8.0840   21.4220 C   0  0  0  0  0  0  0  0  0  0  0  0
  -22.0090   -9.0520   20.4960 C   0  0  0  0  0  3  0  0  0  0  0  0
  -22.7330  -10.2430   20.3180 C   0  0  0  0  0  3  0  0  0  0  0  0
  -21.6880   -6.9370   21.5080 O   0  0  0  0  0  0  0  0  0  0  0  0
  -21.6560   -6.1820   22.6530 C   0  0  0  0  0  0  0  0  0  0  0  0
  -21.2390   -6.7200   23.8900 C   0  0  0  0  0  3  0  0  0  0  0  0
  -21.1580   -5.8900   25.0260 C   0  0  0  0  0  3  0  0  0  0  0  0
  -21.4810   -4.5230   24.9250 C   0  0  0  0  0  0  0  0  0  0  0  0
  -21.8930   -3.9860   23.6920 C   0  0  0  0  0  3  0  0  0  0  0  0
  -21.9780   -4.8120   22.5590 C   0  0  0  0  0  0  0  0  0  0  0  0
  -22.3530   -4.2840   21.3680 F   0  0  0  0  0  0  0  0  0  0  0  0
  -21.3960   -3.7240   26.0150 F   0  0  0  0  0  0  0  0  0  0  0  0
  -22.7550  -13.5780   21.2360 C   0  0  0  0  0  0  0  0  0  0  0  0
  -22.0440  -12.8690   22.1030 N   0  0  0  0  0  0  0  0  0  0  0  0
  -22.3070  -14.6110   20.7380 O   0  0  0  0  0  0  0  0  0  0  0  0
  -22.4220  -12.0330   22.5250 H   0  0  0  0  0  0  0  0  0  0  0  0
  -21.1110  -13.1640   22.3490 H   0  0  0  0  0  0  0  0  0  0  0  0
  -25.3620  -15.2650   20.3990 N   0  0  0  0  0  0  0  0  0  0  0  0
  -24.5960  -15.9150   20.5340 H   0  0  0  0  0  0  0  0  0  0  0  0
  -26.2110  -15.7180   20.0860 H   0  0  0  0  0  0  0  0  0  0  0  0
  -27.2520  -21.7130   19.3110 O   0  0  0  0  0  0  0  0  0  0  0  0
  -27.1530  -20.7940   19.0790 H   0  0  0  0  0  0  0  0  0  0  0  0
  -28.2150  -24.7300   19.8120 C   0  0  0  0  0  2  0  0  0  0  0  0
  -28.2650  -26.2080   20.3130 O   0  0  0  0  0  0  0  0  0  0  0  0
  -24.6260  -31.9030   23.2440 C   0  0  0  0  0  0  0  0  0  0  0  0
  -27.1980  -27.1770   20.2090 C   0  0  0  0  0  0  0  0  0  0  0  0
  -23.4290  -30.5110   21.6040 C   0  0  0  0  0  3  0  0  0  0  0  0
  -24.8740  -28.9330   20.1800 C   0  0  0  0  0  0  0  0  0  0  0  0
  -25.9860  -30.7570   21.4540 C   0  0  0  0  0  2  0  0  0  0  0  0
  -26.0510  -29.3670   20.7970 C   0  0  0  0  0  0  0  0  0  0  0  0
  -27.2080  -28.5040   20.8010 C   0  0  0  0  0  3  0  0  0  0  0  0
  -25.9960  -26.8540   19.5360 C   0  0  0  0  0  3  0  0  0  0  0  0
  -24.8590  -27.6890   19.5370 C   0  0  0  0  0  3  0  0  0  0  0  0
  -23.6540  -29.8360   20.2250 C   0  0  0  0  0  2  0  0  0  0  0  0
  -24.7020  -31.0770   22.1540 N   0  0  0  0  0  0  0  0  0  0  0  0
  -23.5420  -32.1920   23.7670 O   0  0  0  0  0  0  0  0  0  0  0  0
  -22.7460  -29.5040   22.5670 C   0  0  0  0  0  0  0  0  0  0  0  0
  -21.4160  -29.3370   22.4430 N   0  0  0  0  0  0  0  0  0  0  0  0
  -23.4140  -28.8800   23.3940 O   0  0  0  0  0  0  0  0  0  0  0  0
  -20.9310  -29.9010   21.7600 H   0  0  0  0  0  0  0  0  0  0  0  0
  -18.0300  -28.1420   22.9520 C   0  0  0  0  0  0  0  0  0  0  0  0
  -20.5920  -28.4040   23.2180 C   0  0  0  0  0  3  0  0  0  0  0  0
  -20.6910  -26.9670   22.6550 C   0  0  0  0  0  2  0  0  0  0  0  0
  -19.5890  -26.6370   21.6430 C   0  0  0  0  0  2  0  0  0  0  0  0
  -18.2050  -26.7890   22.2810 C   0  0  0  0  0  2  0  0  0  0  0  0
  -19.1500  -28.9050   23.3770 C   0  0  0  0  0  0  0  0  0  0  0  0
  -18.9310  -30.1690   23.9670 C   0  0  0  0  0  3  0  0  0  0  0  0
  -17.6250  -30.6710   24.1320 C   0  0  0  0  0  3  0  0  0  0  0  0
  -16.5210  -29.9070   23.7150 C   0  0  0  0  0  3  0  0  0  0  0  0
  -16.7240  -28.6420   23.1310 C   0  0  0  0  0  3  0  0  0  0  0  0
  -25.9050  -32.5370   23.8690 C   0  0  0  0  0  3  0  0  0  0  0  0
  -25.5970  -33.9380   24.1940 N   0  0  0  0  0  0  0  0  0  0  0  0
  -25.9220  -34.9920   23.4340 C   0  0  0  0  0  0  0  0  0  0  0  0
  -26.5820  -34.8870   22.3970 O   0  0  0  0  0  0  0  0  0  0  0  0
  -25.0140  -34.0930   25.0040 H   0  0  0  0  0  0  0  0  0  0  0  0
  -24.1980  -36.7930   23.0910 C   0  0  0  0  0  1  0  0  0  0  0  0
  -25.4430  -36.3850   23.8940 C   0  0  0  0  0  3  0  0  0  0  0  0
  -27.5850  -37.2690   24.7080 C   0  0  0  0  0  1  0  0  0  0  0  0
  -26.4780  -37.4340   23.7700 N   0  0  0  0  0  0  0  0  0  0  0  0
  -26.0740  -38.3550   23.9140 H   0  0  0  0  0  0  0  0  0  0  0  0
  -26.4100  -31.7730   25.1540 C   0  0  1  0  0  0  0  0  0  0  0  0
  -25.3120  -31.5500   26.2200 C   0  0  0  0  0  1  0  0  0  0  0  0
  -26.9940  -30.3920   24.7840 C   0  0  0  0  0  1  0  0  0  0  0  0
  -27.5590  -32.5720   25.8150 C   0  0  0  0  0  1  0  0  0  0  0  0
  1  3  1  0
  2  1  2  0
  2  5  1  0
  4  3  1  0
  5 48  1  0
  5  4  1  0
  6  1  1  0
  6  8  1  0
  7  6  2  0
  8  9  1  0
 10  9  1  0
 11 16  1  0
 12 13  1  0
 12 11  1  0
 14 13  1  0
 14 21  1  0
 14 15  1  0
 16 10  1  0
 16 15  1  0
 17 10  2  0
 18 19  2  0
 19 38  1  0
 20 19  1  0
 20 23  1  0
 21 22  1  0
 21 18  1  0
 22 20  2  0
 23 24  1  0
 24 25  2  0
 26 29  1  0
 26 25  1  0
 27 26  2  0
 28 27  1  0
 28 23  2  0
 29 30  1  0
 30 31  1  0
 31 32  2  0
 33 32  1  0
 33 37  1  0
 34 33  2  0
 35 30  2  0
 35 34  1  0
 36 35  1  0
 38 39  1  0
 39 42  1  0
 39 41  1  0
 40 38  2  0
 43 44  1  0
 43 18  1  0
 45 43  1  0
 46  2  1  0
 47 46  1  0
 48 49  1  0
 50 61  2  0
 51 49  1  0
 51 56  1  0
 52 60  1  0
 52 62  1  0
 53 59  1  0
 53 55  1  0
 54 60  1  0
 55 56  2  0
 55 54  1  0
 57 58  1  0
 57 51  2  0
 58 53  2  0
 59 52  1  0
 60 50  1  0
 62 64  2  0
 63 62  1  0
 65 63  1  0
 66 75  2  0
 66 71  1  0
 67 63  1  0
 67 71  1  0
 68 67  1  0
 69 70  1  0
 69 68  1  0
 70 66  1  0
 71 72  2  0
 72 73  1  0
 74 73  2  0
 75 74  1  0
 76 50  1  0
 76 77  1  0
 76 86  1  0
 77 80  1  0
 78 82  1  0
 78 77  1  0
 79 78  2  0
 82 81  1  0
 84 82  1  0
 84 85  1  0
 84 83  1  0
 86 89  1  1
 86 87  1  0
 88 86  1  0
M  ISO  4   9 100  10 100  48 101  49 101
M  END
>  <TORSDO>  (72) 
F 21

>  <SCORE>  (72) 
-13.809

>  <name>  (72) 
71

>  <ligand_id>  (72) 
71

>  <original_smiles>  (72) 
[H]OC1=C(C(=O)C([H])([H])C([H])([H])C(=O)N2C([H])([H])C([H])([H])C([H])([H])C([H])(n3nc(-c4c([H])c([H])c(Oc5c([H])c([H])c(F)c([H])c5F)c([H])c4[H])c(C(=O)N([H])[H])c3N([H])[H])C2([H])[H])C([H])([H])C([H])([H])C1([H])C([H])([H])Oc1c([H])c([H])c2c(c1[H])C([H])([H])N(C(=O)C([H])(N([H])C(=O)C([H])(N([H])C([H])([H])[H])C([H])([H])[H])C(C([H])([H])[H])(C([H])([H])[H])C([H])([H])[H])C([H])(C(=O)N([H])C1([H])c3c([H])c([H])c([H])c([H])c3C([H])([H])C([H])([H])C1([H])[H])C2([H])[H]

>  <smiles>  (72) 
[H]OC1=C(C(=O)C([H])([H])C([H])([H])C(=O)N2C([H])([H])C([H])([H])C([H])([H])C([H])(n3nc(-c4c([H])c([H])c(Oc5c([H])c([H])c(F)c([H])c5F)c([H])c4[H])c(C(=O)N([H])[H])c3N([H])[H])C2([H])[H])C([H])([H])C([H])([H])C1([H])C([H])([H])Oc1c([H])c([H])c2c(c1[H])C([H])([H])N(C(=O)C([H])(N([H])C(=O)C([H])(N([H])C([H])([H])[H])C([H])([H])[H])C(C([H])([H])[H])(C([H])([H])[H])C([H])([H])[H])C([H])(C(=O)N([H])C1([H])c3c([H])c([H])c([H])c([H])c3C([H])([H])C([H])([H])C1([H])[H])C2([H])[H]

$$$$
72:0:0
     RDKit          3D

 94102  0  0  1  0  0  0  0  0999 V2000
  -28.3310  -21.9540   20.5530 C   0  0  0  0  0  2  0  0  0  0  0  0
  -30.1320  -23.1000   19.5110 C   0  0  0  0  0  2  0  0  0  0  0  0
  -28.9400  -23.4580   20.4240 C   0  0  0  0  0  3  0  0  0  0  0  0
  -29.2690  -20.7610   19.9470 C   0  0  0  0  0  3  0  0  0  0  0  0
  -30.5710  -21.6130   19.8150 C   0  0  0  0  0  3  0  0  0  0  0  0
  -31.5050  -21.1120   18.7890 N   0  0  0  0  0  4  0  0  0  0  0  0
  -31.0650  -21.0400   17.8890 H   0  0  0  0  0  0  0  0  0  0  0  0
  -31.8800  -20.2150   19.0380 H   0  0  0  0  0  0  0  0  0  0  0  0
  -32.2830  -21.7420   18.7020 H   0  0  0  0  0  0  0  0  0  0  0  0
  -28.0030  -24.7820   20.0360 C   0  0  0  0  0  2  0  0  0  0  0  0
  -28.2910  -26.2790   20.2700 O   0  0  0  0  0  0  0  0  0  0  0  0
  -24.6480  -31.9110   23.2460 C   0  0  0  0  0  0  0  0  0  0  0  0
  -27.2290  -27.2410   20.1980 C   0  0  0  0  0  0  0  0  0  0  0  0
  -23.4480  -30.5270   21.5980 C   0  0  0  0  0  3  0  0  0  0  0  0
  -24.8970  -28.9620   20.1690 C   0  0  0  0  0  0  0  0  0  0  0  0
  -26.0000  -30.7980   21.4380 C   0  0  0  0  0  2  0  0  0  0  0  0
  -26.0740  -29.4120   20.7820 C   0  0  0  0  0  0  0  0  0  0  0  0
  -27.2410  -28.5670   20.7810 C   0  0  0  0  0  3  0  0  0  0  0  0
  -26.0250  -26.8860   19.5460 C   0  0  0  0  0  3  0  0  0  0  0  0
  -24.8830  -27.7120   19.5380 C   0  0  0  0  0  3  0  0  0  0  0  0
  -23.6700  -29.8560   20.2170 C   0  0  0  0  0  2  0  0  0  0  0  0
  -24.7180  -31.0990   22.1490 N   0  0  0  0  0  0  0  0  0  0  0  0
  -23.5610  -32.1950   23.7720 O   0  0  0  0  0  0  0  0  0  0  0  0
  -22.7660  -29.5140   22.5510 C   0  0  0  0  0  0  0  0  0  0  0  0
  -21.4380  -29.3510   22.4200 N   0  0  0  0  0  0  0  0  0  0  0  0
  -23.4340  -28.8770   23.3700 O   0  0  0  0  0  0  0  0  0  0  0  0
  -20.9560  -29.9150   21.7350 H   0  0  0  0  0  0  0  0  0  0  0  0
  -18.0440  -28.1910   22.9270 C   0  0  0  0  0  0  0  0  0  0  0  0
  -20.6080  -28.4160   23.1840 C   0  0  0  0  0  3  0  0  0  0  0  0
  -20.6860  -26.9890   22.5910 C   0  0  0  0  0  2  0  0  0  0  0  0
  -19.5750  -26.6940   21.5790 C   0  0  0  0  0  2  0  0  0  0  0  0
  -18.1990  -26.8480   22.2330 C   0  0  0  0  0  2  0  0  0  0  0  0
  -19.1760  -28.9340   23.3600 C   0  0  0  0  0  0  0  0  0  0  0  0
  -18.9760  -30.1910   23.9700 C   0  0  0  0  0  3  0  0  0  0  0  0
  -17.6780  -30.7060   24.1500 C   0  0  0  0  0  3  0  0  0  0  0  0
  -16.5620  -29.9610   23.7340 C   0  0  0  0  0  3  0  0  0  0  0  0
  -16.7460  -28.7050   23.1290 C   0  0  0  0  0  3  0  0  0  0  0  0
  -25.9260  -32.5380   23.8800 C   0  0  0  0  0  3  0  0  0  0  0  0
  -25.6190  -33.9370   24.2190 N   0  0  0  0  0  0  0  0  0  0  0  0
  -25.9470  -34.9940   23.4640 C   0  0  0  0  0  0  0  0  0  0  0  0
  -26.6110  -34.8950   22.4280 O   0  0  0  0  0  0  0  0  0  0  0  0
  -25.0280  -34.0880   25.0240 H   0  0  0  0  0  0  0  0  0  0  0  0
  -24.2180  -36.7920   23.1360 C   0  0  0  0  0  1  0  0  0  0  0  0
  -25.4670  -36.3820   23.9330 C   0  0  0  0  0  3  0  0  0  0  0  0
  -27.6080  -37.2650   24.7490 C   0  0  0  0  0  1  0  0  0  0  0  0
  -26.5000  -37.4350   23.8140 N   0  0  0  0  0  0  0  0  0  0  0  0
  -26.0950  -38.3560   23.9640 H   0  0  0  0  0  0  0  0  0  0  0  0
  -26.4290  -31.7600   25.1590 C   0  0  1  0  0  0  0  0  0  0  0  0
  -25.3260  -31.5190   26.2150 C   0  0  0  0  0  1  0  0  0  0  0  0
  -27.0130  -30.3830   24.7690 C   0  0  0  0  0  1  0  0  0  0  0  0
  -27.5760  -32.5480   25.8340 C   0  0  0  0  0  1  0  0  0  0  0  0
  -29.2960  -19.2170   20.6220 C   0  0  0  0  0  3  0  0  0  0  0  0
  -27.8920  -18.8370   20.8670 N   0  0  0  0  0  4  0  0  0  0  0  0
  -27.4150  -19.5720   21.3590 H   0  0  0  0  0  0  0  0  0  0  0  0
  -27.8360  -18.0120   21.4370 H   0  0  0  0  0  0  0  0  0  0  0  0
  -27.4050  -18.6700   20.0050 H   0  0  0  0  0  0  0  0  0  0  0  0
  -30.0670  -17.8700   19.9850 C   0  0  0  0  0  3  0  0  0  0  0  0
  -29.8800  -16.3100   20.5670 C   0  0  0  0  0  3  0  0  0  0  0  0
  -30.6570  -14.9610   20.0290 C   0  0  0  0  0  0  0  0  0  0  0  0
  -30.5040  -12.6580   18.9870 C   0  0  0  0  0  2  0  0  0  0  0  0
  -29.5040  -12.6930   17.8060 C   0  0  0  0  0  2  0  0  0  0  0  0
  -28.0620  -12.4710   18.3020 C   0  0  0  0  0  2  0  0  0  0  0  0
  -27.7250  -13.3360   19.5450 C   0  0  0  0  0  3  0  0  0  0  0  0
  -28.8380  -13.2710   20.6130 C   0  0  0  0  0  2  0  0  0  0  0  0
  -30.0890  -13.6940   19.9730 N   0  0  0  0  0  0  0  0  0  0  0  0
  -31.8010  -15.0880   19.5820 O   0  0  0  0  0  0  0  0  0  0  0  0
  -25.3710  -13.8760   20.4040 C   0  0  0  0  0  0  0  0  0  0  0  0
  -24.3370  -13.0820   20.8170 C   0  0  0  0  0  0  0  0  0  0  0  0
  -24.8160  -11.7370   20.7400 C   0  0  0  0  0  0  0  0  0  0  0  0
  -26.4130  -13.0160   20.0980 N   0  0  0  0  0  0  0  0  0  0  0  0
  -26.0910  -11.7230   20.3650 N   0  0  0  0  0  0  0  0  0  0  0  0
  -24.1170  -10.4610   20.9420 C   0  0  0  0  0  0  0  0  0  0  0  0
  -24.5610   -9.5180   21.8950 C   0  0  0  0  0  3  0  0  0  0  0  0
  -23.8580   -8.3080   22.0860 C   0  0  0  0  0  3  0  0  0  0  0  0
  -22.6970   -8.0340   21.3250 C   0  0  0  0  0  0  0  0  0  0  0  0
  -22.2730   -8.9670   20.3630 C   0  0  0  0  0  3  0  0  0  0  0  0
  -22.9760  -10.1670   20.1690 C   0  0  0  0  0  3  0  0  0  0  0  0
  -21.9660   -6.8750   21.4260 O   0  0  0  0  0  0  0  0  0  0  0  0
  -21.8650   -6.1880   22.6080 C   0  0  0  0  0  0  0  0  0  0  0  0
  -21.3380   -6.7850   23.7730 C   0  0  0  0  0  3  0  0  0  0  0  0
  -21.1870   -6.0230   24.9480 C   0  0  0  0  0  3  0  0  0  0  0  0
  -21.5520   -4.6630   24.9580 C   0  0  0  0  0  0  0  0  0  0  0  0
  -22.0720   -4.0650   23.7980 C   0  0  0  0  0  3  0  0  0  0  0  0
  -22.2250   -4.8250   22.6250 C   0  0  0  0  0  0  0  0  0  0  0  0
  -22.7070   -4.2380   21.5020 F   0  0  0  0  0  0  0  0  0  0  0  0
  -21.3990   -3.9280   26.0850 F   0  0  0  0  0  0  0  0  0  0  0  0
  -22.9480  -13.5330   21.1610 C   0  0  0  0  0  0  0  0  0  0  0  0
  -22.2720  -12.8120   22.0470 N   0  0  0  0  0  0  0  0  0  0  0  0
  -22.4750  -14.5620   20.6800 O   0  0  0  0  0  0  0  0  0  0  0  0
  -22.6690  -11.9790   22.4550 H   0  0  0  0  0  0  0  0  0  0  0  0
  -21.3400  -13.0940   22.3200 H   0  0  0  0  0  0  0  0  0  0  0  0
  -25.5080  -15.2500   20.2360 N   0  0  0  0  0  0  0  0  0  0  0  0
  -24.7170  -15.8760   20.3380 H   0  0  0  0  0  0  0  0  0  0  0  0
  -26.2900  -15.6740   19.7530 H   0  0  0  0  0  0  0  0  0  0  0  0
  2  5  1  0
  2  3  1  0
  3 10  1  0
  3  1  1  0
  4  1  1  0
  4 52  1  0
  5  6  1  0
  5  4  1  0
  6  8  1  0
  7  6  1  0
  9  6  1  0
 10 11  1  0
 12 23  2  0
 13 11  1  0
 13 18  1  0
 14 22  1  0
 14 24  1  0
 15 21  1  0
 15 17  1  0
 16 22  1  0
 17 16  1  0
 18 17  2  0
 19 13  2  0
 20 19  1  0
 20 15  2  0
 21 14  1  0
 22 12  1  0
 24 26  2  0
 25 24  1  0
 27 25  1  0
 28 37  2  0
 28 33  1  0
 29 25  1  0
 29 33  1  0
 30 29  1  0
 31 32  1  0
 31 30  1  0
 32 28  1  0
 33 34  2  0
 34 35  1  0
 36 35  2  0
 37 36  1  0
 38 12  1  0
 38 39  1  0
 38 48  1  0
 39 42  1  0
 40 44  1  0
 40 39  1  0
 41 40  2  0
 44 43  1  0
 46 44  1  0
 46 47  1  0
 46 45  1  0
 48 51  1  1
 48 49  1  0
 50 48  1  0
 52 57  1  0
 52 53  1  0
 53 54  1  0
 53 55  1  0
 56 53  1  0
 57 58  2  0
 59 58  1  0
 60 65  1  0
 61 62  1  0
 61 60  1  0
 63 62  1  0
 63 70  1  0
 63 64  1  0
 65 59  1  0
 65 64  1  0
 66 59  2  0
 67 68  2  0
 68 87  1  0
 69 68  1  0
 69 72  1  0
 70 71  1  0
 70 67  1  0
 71 69  2  0
 72 73  1  0
 73 74  2  0
 75 78  1  0
 75 74  1  0
 76 75  2  0
 77 76  1  0
 77 72  2  0
 78 79  1  0
 79 84  2  0
 79 80  1  0
 80 81  2  0
 81 82  1  0
 82 86  1  0
 83 82  2  0
 84 83  1  0
 85 84  1  0
 87 88  1  0
 88 91  1  0
 88 90  1  0
 89 87  2  0
 92 93  1  0
 92 67  1  0
 94 92  1  0
M  ISO  4  10 101  11 101  58 100  59 100
M  END
>  <TORSDO>  (73) 
F 22

>  <SCORE>  (73) 
-13.220

>  <name>  (73) 
72

>  <ligand_id>  (73) 
72

>  <original_smiles>  (73) 
[H]c1c([H])c([H])c2c(c1[H])C([H])([H])C([H])([H])C([H])([H])C2([H])N([H])C(=O)C1([H])N(C(=O)C([H])(N([H])C(=O)C([H])(N([H])C([H])([H])[H])C([H])([H])[H])C(C([H])([H])[H])(C([H])([H])[H])C([H])([H])[H])C([H])([H])c2c([H])c(OC([H])([H])C3([H])C([H])([H])C([H])(C([H])(C([H])([H])C([H])([H])C(=O)N4C([H])([H])C([H])([H])C([H])([H])C([H])(n5nc(-c6c([H])c([H])c(Oc7c([H])c([H])c(F)c([H])c7F)c([H])c6[H])c(C(=O)N([H])[H])c5N([H])[H])C4([H])[H])[N+]([H])([H])[H])C([H])([N+]([H])([H])[H])C3([H])[H])c([H])c([H])c2C1([H])[H]

>  <smiles>  (73) 
[H]c1c([H])c([H])c2c(c1[H])C([H])([H])C([H])([H])C([H])([H])C2([H])N([H])C(=O)C1([H])N(C(=O)C([H])(N([H])C(=O)C([H])(N([H])C([H])([H])[H])C([H])([H])[H])C(C([H])([H])[H])(C([H])([H])[H])C([H])([H])[H])C([H])([H])c2c([H])c(OC([H])([H])C3([H])C([H])([H])C([H])(C([H])(C([H])([H])C([H])([H])C(=O)N4C([H])([H])C([H])([H])C([H])([H])C([H])(n5nc(-c6c([H])c([H])c(Oc7c([H])c([H])c(F)c([H])c7F)c([H])c6[H])c(C(=O)N([H])[H])c5N([H])[H])C4([H])[H])[N+]([H])([H])[H])C([H])([N+]([H])([H])[H])C3([H])[H])c([H])c([H])c2C1([H])[H]

$$$$
73:0:0
     RDKit          3D

 88 96  0  0  1  0  0  0  0  0999 V2000
  -27.3090  -22.3010   20.2130 C   0  0  0  0  0  2  0  0  0  0  0  0
  -27.0370  -23.8040   19.8180 C   0  0  0  0  0  2  0  0  0  0  0  0
  -29.2840  -23.5820   20.5350 C   0  0  0  0  0  2  0  0  0  0  0  0
  -28.8280  -22.0530   20.1100 C   0  0  0  0  0  3  0  0  0  0  0  0
  -28.0860  -24.7070   20.5250 C   0  0  0  0  0  3  0  0  0  0  0  0
  -29.4540  -20.6640   20.7770 C   0  0  0  0  0  0  0  0  0  0  0  0
  -29.3360  -19.3350   20.2820 N   0  0  0  0  0  0  0  0  0  0  0  0
  -30.1530  -20.8320   21.7760 O   0  0  0  0  0  0  0  0  0  0  0  0
  -28.6980  -19.2540   19.5000 H   0  0  0  0  0  0  0  0  0  0  0  0
  -30.1860  -18.0190   20.5630 C   0  0  0  0  0  2  0  0  0  0  0  0
  -29.6300  -16.4250   20.5650 C   0  0  0  0  0  2  0  0  0  0  0  0
  -30.5290  -15.0380   20.3420 C   0  0  0  0  0  0  0  0  0  0  0  0
  -30.4580  -12.6950   19.3620 C   0  0  0  0  0  2  0  0  0  0  0  0
  -29.5150  -12.6840   18.1350 C   0  0  0  0  0  2  0  0  0  0  0  0
  -28.0500  -12.4670   18.5640 C   0  0  0  0  0  2  0  0  0  0  0  0
  -27.6500  -13.3650   19.7640 C   0  0  0  0  0  3  0  0  0  0  0  0
  -28.7070  -13.3350   20.8850 C   0  0  0  0  0  2  0  0  0  0  0  0
  -29.9850  -13.7540   20.2990 N   0  0  0  0  0  0  0  0  0  0  0  0
  -31.7240  -15.1350   20.0350 O   0  0  0  0  0  0  0  0  0  0  0  0
  -25.2680  -13.9290   20.5110 C   0  0  0  0  0  0  0  0  0  0  0  0
  -24.2080  -13.1470   20.8760 C   0  0  0  0  0  0  0  0  0  0  0  0
  -24.6780  -11.7980   20.8350 C   0  0  0  0  0  0  0  0  0  0  0  0
  -26.3140  -13.0570   20.2600 N   0  0  0  0  0  0  0  0  0  0  0  0
  -25.9680  -11.7690   20.5220 N   0  0  0  0  0  0  0  0  0  0  0  0
  -23.9560  -10.5320   21.0180 C   0  0  0  0  0  0  0  0  0  0  0  0
  -24.3780   -9.5710   21.9640 C   0  0  0  0  0  3  0  0  0  0  0  0
  -23.6560   -8.3700   22.1360 C   0  0  0  0  0  3  0  0  0  0  0  0
  -22.5000   -8.1200   21.3590 C   0  0  0  0  0  0  0  0  0  0  0  0
  -22.0980   -9.0680   20.4020 C   0  0  0  0  0  3  0  0  0  0  0  0
  -22.8200  -10.2610   20.2290 C   0  0  0  0  0  3  0  0  0  0  0  0
  -21.7510   -6.9710   21.4370 O   0  0  0  0  0  0  0  0  0  0  0  0
  -21.6610   -6.2490   22.6010 C   0  0  0  0  0  0  0  0  0  0  0  0
  -21.1560   -6.8170   23.7920 C   0  0  0  0  0  3  0  0  0  0  0  0
  -21.0150   -6.0200   24.9450 C   0  0  0  0  0  3  0  0  0  0  0  0
  -21.3690   -4.6570   24.9100 C   0  0  0  0  0  0  0  0  0  0  0  0
  -21.8660   -4.0910   23.7230 C   0  0  0  0  0  3  0  0  0  0  0  0
  -22.0090   -4.8840   22.5710 C   0  0  0  0  0  0  0  0  0  0  0  0
  -22.4680   -4.3280   21.4240 F   0  0  0  0  0  0  0  0  0  0  0  0
  -21.2270   -3.8890   26.0150 F   0  0  0  0  0  0  0  0  0  0  0  0
  -22.8080  -13.6150   21.1530 C   0  0  0  0  0  0  0  0  0  0  0  0
  -22.0820  -12.9060   22.0100 N   0  0  0  0  0  0  0  0  0  0  0  0
  -22.3670  -14.6460   20.6450 O   0  0  0  0  0  0  0  0  0  0  0  0
  -22.4510  -12.0720   22.4400 H   0  0  0  0  0  0  0  0  0  0  0  0
  -21.1440  -13.2020   22.2400 H   0  0  0  0  0  0  0  0  0  0  0  0
  -25.4250  -15.3020   20.3450 N   0  0  0  0  0  0  0  0  0  0  0  0
  -24.6570  -15.9530   20.4650 H   0  0  0  0  0  0  0  0  0  0  0  0
  -26.2760  -15.7470   20.0280 H   0  0  0  0  0  0  0  0  0  0  0  0
  -28.2630  -26.2280   20.1860 O   0  0  0  0  0  0  0  0  0  0  0  0
  -24.6340  -31.9020   23.2320 C   0  0  0  0  0  0  0  0  0  0  0  0
  -27.1960  -27.2000   20.1790 C   0  0  0  0  0  0  0  0  0  0  0  0
  -23.4290  -30.5140   21.5910 C   0  0  0  0  0  3  0  0  0  0  0  0
  -24.8720  -28.9530   20.1530 C   0  0  0  0  0  0  0  0  0  0  0  0
  -25.9820  -30.7840   21.4150 C   0  0  0  0  0  2  0  0  0  0  0  0
  -26.0530  -29.3950   20.7610 C   0  0  0  0  0  0  0  0  0  0  0  0
  -27.2170  -28.5340   20.7580 C   0  0  0  0  0  3  0  0  0  0  0  0
  -25.9970  -26.8760   19.5120 C   0  0  0  0  0  3  0  0  0  0  0  0
  -24.8550  -27.7050   19.5140 C   0  0  0  0  0  3  0  0  0  0  0  0
  -23.6460  -29.8490   20.2060 C   0  0  0  0  0  2  0  0  0  0  0  0
  -24.7020  -31.0900   22.1340 N   0  0  0  0  0  0  0  0  0  0  0  0
  -23.5520  -32.1830   23.7660 O   0  0  0  0  0  0  0  0  0  0  0  0
  -22.7610  -29.4980   22.5490 C   0  0  0  0  0  0  0  0  0  0  0  0
  -21.4330  -29.3190   22.4270 N   0  0  0  0  0  0  0  0  0  0  0  0
  -23.4390  -28.8740   23.3710 O   0  0  0  0  0  0  0  0  0  0  0  0
  -20.9410  -29.8770   21.7420 H   0  0  0  0  0  0  0  0  0  0  0  0
  -18.0580  -28.1120   22.9400 C   0  0  0  0  0  0  0  0  0  0  0  0
  -20.6180  -28.3740   23.1970 C   0  0  0  0  0  3  0  0  0  0  0  0
  -20.7180  -26.9470   22.6110 C   0  0  0  0  0  2  0  0  0  0  0  0
  -19.6120  -26.6310   21.6010 C   0  0  0  0  0  2  0  0  0  0  0  0
  -18.2330  -26.7670   22.2530 C   0  0  0  0  0  2  0  0  0  0  0  0
  -19.1780  -28.8730   23.3680 C   0  0  0  0  0  0  0  0  0  0  0  0
  -18.9580  -30.1300   23.9710 C   0  0  0  0  0  3  0  0  0  0  0  0
  -17.6530  -30.6250   24.1530 C   0  0  0  0  0  3  0  0  0  0  0  0
  -16.5490  -29.8610   23.7410 C   0  0  0  0  0  3  0  0  0  0  0  0
  -16.7520  -28.6060   23.1380 C   0  0  0  0  0  3  0  0  0  0  0  0
  -25.9150  -32.5380   23.8550 C   0  0  0  0  0  3  0  0  0  0  0  0
  -26.4200  -31.7750   25.1420 C   0  0  1  0  0  0  0  0  0  0  0  0
  -25.3210  -31.5500   26.2060 C   0  0  0  0  0  1  0  0  0  0  0  0
  -27.0030  -30.3930   24.7670 C   0  0  0  0  0  1  0  0  0  0  0  0
  -27.5690  -32.5710   25.8040 C   0  0  0  0  0  1  0  0  0  0  0  0
  -25.6090  -33.9400   24.1810 N   0  0  0  0  0  0  0  0  0  0  0  0
  -25.9500  -34.9920   23.4240 C   0  0  0  0  0  0  0  0  0  0  0  0
  -26.6240  -34.8830   22.3960 O   0  0  0  0  0  0  0  0  0  0  0  0
  -25.0120  -34.1010   24.9790 H   0  0  0  0  0  0  0  0  0  0  0  0
  -24.2440  -36.8030   23.0510 C   0  0  0  0  0  1  0  0  0  0  0  0
  -25.4700  -36.3840   23.8780 C   0  0  0  0  0  3  0  0  0  0  0  0
  -27.5960  -37.2510   24.7450 C   0  0  0  0  0  1  0  0  0  0  0  0
  -26.5120  -37.4280   23.7810 N   0  0  0  0  0  0  0  0  0  0  0  0
  -26.1120  -38.3520   23.9250 H   0  0  0  0  0  0  0  0  0  0  0  0
  2  1  1  0
  2  5  1  0
  4  1  1  0
  4  3  1  0
  4  6  1  0
  5 48  1  0
  5  3  1  0
  6  8  2  0
  7 10  1  0
  7  6  1  0
  9  7  1  0
 10 11  1  0
 12 11  1  0
 13 18  1  0
 14 15  1  0
 14 13  1  0
 16 15  1  0
 16 23  1  0
 16 17  1  0
 18 12  1  0
 18 17  1  0
 19 12  2  0
 20 21  2  0
 21 40  1  0
 22 21  1  0
 22 25  1  0
 23 20  1  0
 23 24  1  0
 24 22  2  0
 25 26  1  0
 26 27  2  0
 28 31  1  0
 28 27  1  0
 29 28  2  0
 30 29  1  0
 30 25  2  0
 31 32  1  0
 32 33  1  0
 33 34  2  0
 35 34  1  0
 35 39  1  0
 36 35  2  0
 37 32  2  0
 37 36  1  0
 38 37  1  0
 40 41  1  0
 41 44  1  0
 41 43  1  0
 42 40  2  0
 45 46  1  0
 45 20  1  0
 47 45  1  0
 49 60  2  0
 50 48  1  0
 50 55  1  0
 51 59  1  0
 51 61  1  0
 52 58  1  0
 52 54  1  0
 53 59  1  0
 54 53  1  0
 55 54  2  0
 56 57  1  0
 56 50  2  0
 57 52  2  0
 58 51  1  0
 59 49  1  0
 61 63  2  0
 62 61  1  0
 64 62  1  0
 65 74  2  0
 65 70  1  0
 66 62  1  0
 66 70  1  0
 67 66  1  0
 68 69  1  0
 68 67  1  0
 69 65  1  0
 70 71  2  0
 71 72  1  0
 73 72  2  0
 74 73  1  0
 75 49  1  0
 75 80  1  0
 75 76  1  0
 76 79  1  1
 76 77  1  0
 78 76  1  0
 80 83  1  0
 81 85  1  0
 81 80  1  0
 82 81  2  0
 85 84  1  0
 87 85  1  0
 87 88  1  0
 87 86  1  0
M  ISO  4   5 101  11 100  12 100  48 101
M  END
>  <TORSDO>  (74) 
F 19

>  <SCORE>  (74) 
-14.165

>  <name>  (74) 
73

>  <ligand_id>  (74) 
73

>  <original_smiles>  (74) 
[H]c1c([H])c([H])c2c(c1[H])C([H])([H])C([H])([H])C([H])([H])C2([H])N([H])C(=O)C1([H])N(C(=O)C([H])(N([H])C(=O)C([H])(N([H])C([H])([H])[H])C([H])([H])[H])C(C([H])([H])[H])(C([H])([H])[H])C([H])([H])[H])C([H])([H])c2c([H])c(OC3([H])C([H])([H])C([H])([H])C([H])(C(=O)N([H])C([H])([H])C([H])([H])C(=O)N4C([H])([H])C([H])([H])C([H])([H])C([H])(n5nc(-c6c([H])c([H])c(Oc7c([H])c([H])c(F)c([H])c7F)c([H])c6[H])c(C(=O)N([H])[H])c5N([H])[H])C4([H])[H])C3([H])[H])c([H])c([H])c2C1([H])[H]

>  <smiles>  (74) 
[H]c1c([H])c([H])c2c(c1[H])C([H])([H])C([H])([H])C([H])([H])C2([H])N([H])C(=O)C1([H])N(C(=O)C([H])(N([H])C(=O)C([H])(N([H])C([H])([H])[H])C([H])([H])[H])C(C([H])([H])[H])(C([H])([H])[H])C([H])([H])[H])C([H])([H])c2c([H])c(OC3([H])C([H])([H])C([H])([H])C([H])(C(=O)N([H])C([H])([H])C([H])([H])C(=O)N4C([H])([H])C([H])([H])C([H])([H])C([H])(n5nc(-c6c([H])c([H])c(Oc7c([H])c([H])c(F)c([H])c7F)c([H])c6[H])c(C(=O)N([H])[H])c5N([H])[H])C4([H])[H])C3([H])[H])c([H])c([H])c2C1([H])[H]

$$$$
74:0:0
     RDKit          3D

 90 98  0  0  1  0  0  0  0  0999 V2000
  -29.5580  -18.3540   18.4720 C   0  0  0  0  0  2  0  0  0  0  0  0
  -28.9980  -19.6640   20.6090 C   0  0  0  0  0  2  0  0  0  0  0  0
  -29.8920  -19.7790   17.9230 C   0  0  0  0  0  3  0  0  0  0  0  0
  -29.7880  -18.1890   19.9920 C   0  0  0  0  0  3  0  0  0  0  0  0
  -28.9300  -20.9240   18.4580 C   0  0  0  0  0  3  0  0  0  0  0  0
  -29.9820  -19.7000   16.3770 C   0  0  0  0  0  1  0  0  0  0  0  0
  -29.0400  -22.1950   17.5930 C   0  0  0  0  0  1  0  0  0  0  0  0
  -29.1150  -21.1770   19.9340 N   0  0  1  0  0  4  0  0  0  0  0  0
  -30.1070  -21.3480   20.0090 H   0  0  0  0  0  0  0  0  0  0  0  0
  -30.4040  -15.2970   20.2810 C   0  0  0  0  0  0  0  0  0  0  0  0
  -30.3870  -12.8450   19.4310 C   0  0  0  0  0  2  0  0  0  0  0  0
  -29.4720  -12.6730   18.1920 C   0  0  0  0  0  2  0  0  0  0  0  0
  -28.0250  -12.3860   18.6220 C   0  0  0  0  0  2  0  0  0  0  0  0
  -27.5720  -13.3310   19.7630 C   0  0  0  0  0  3  0  0  0  0  0  0
  -28.6160  -13.4850   20.8910 C   0  0  0  0  0  2  0  0  0  0  0  0
  -29.8480  -13.9840   20.2630 N   0  0  0  0  0  0  0  0  0  0  0  0
  -31.6160  -15.3060   20.0280 O   0  0  0  0  0  0  0  0  0  0  0  0
  -29.6260  -16.5610   20.3730 N   0  0  0  0  0  0  0  0  0  0  0  0
  -28.6700  -16.3500   20.6190 H   0  0  0  0  0  0  0  0  0  0  0  0
  -25.2040  -13.8850   20.5230 C   0  0  0  0  0  0  0  0  0  0  0  0
  -24.1450  -13.1050   20.8900 C   0  0  0  0  0  0  0  0  0  0  0  0
  -24.6110  -11.7530   20.8530 C   0  0  0  0  0  0  0  0  0  0  0  0
  -26.2460  -13.0090   20.2730 N   0  0  0  0  0  0  0  0  0  0  0  0
  -25.9030  -11.7200   20.5400 N   0  0  0  0  0  0  0  0  0  0  0  0
  -23.8850  -10.4880   21.0390 C   0  0  0  0  0  0  0  0  0  0  0  0
  -24.3110   -9.5270   21.9830 C   0  0  0  0  0  3  0  0  0  0  0  0
  -23.5820   -8.3310   22.1600 C   0  0  0  0  0  3  0  0  0  0  0  0
  -22.4170   -8.0890   21.3930 C   0  0  0  0  0  0  0  0  0  0  0  0
  -22.0110   -9.0420   20.4390 C   0  0  0  0  0  3  0  0  0  0  0  0
  -22.7400  -10.2280   20.2620 C   0  0  0  0  0  3  0  0  0  0  0  0
  -21.6620   -6.9430   21.4730 O   0  0  0  0  0  0  0  0  0  0  0  0
  -21.5930   -6.2060   22.6290 C   0  0  0  0  0  0  0  0  0  0  0  0
  -21.1260   -6.7620   23.8390 C   0  0  0  0  0  3  0  0  0  0  0  0
  -21.0060   -5.9540   24.9870 C   0  0  0  0  0  3  0  0  0  0  0  0
  -21.3450   -4.5900   24.9250 C   0  0  0  0  0  0  0  0  0  0  0  0
  -21.8030   -4.0300   23.7200 C   0  0  0  0  0  3  0  0  0  0  0  0
  -21.9270   -4.8370   22.5740 C   0  0  0  0  0  0  0  0  0  0  0  0
  -22.3520   -4.2910   21.4100 F   0  0  0  0  0  0  0  0  0  0  0  0
  -21.2220   -3.8110   26.0250 F   0  0  0  0  0  0  0  0  0  0  0  0
  -22.7450  -13.5760   21.1560 C   0  0  0  0  0  0  0  0  0  0  0  0
  -22.0110  -12.8740   22.0090 N   0  0  0  0  0  0  0  0  0  0  0  0
  -22.3120  -14.6090   20.6420 O   0  0  0  0  0  0  0  0  0  0  0  0
  -22.3780  -12.0430   22.4490 H   0  0  0  0  0  0  0  0  0  0  0  0
  -21.0690  -13.1670   22.2210 H   0  0  0  0  0  0  0  0  0  0  0  0
  -25.3670  -15.2570   20.3430 N   0  0  0  0  0  0  0  0  0  0  0  0
  -24.5980  -15.9100   20.4410 H   0  0  0  0  0  0  0  0  0  0  0  0
  -26.1900  -15.6810   19.9360 H   0  0  0  0  0  0  0  0  0  0  0  0
  -28.5240  -22.6330   20.5670 C   0  0  0  0  0  2  0  0  0  0  0  0
  -28.2800  -24.3050   19.8800 C   0  0  0  0  0  2  0  0  0  0  0  0
  -28.2160  -25.8790   20.3900 O   0  0  0  0  0  0  0  0  0  0  0  0
  -24.6010  -31.8410   23.2050 C   0  0  0  0  0  0  0  0  0  0  0  0
  -27.1990  -26.9640   20.2360 C   0  0  0  0  0  0  0  0  0  0  0  0
  -23.4270  -30.4390   21.5560 C   0  0  0  0  0  3  0  0  0  0  0  0
  -24.8930  -28.8350   20.1520 C   0  0  0  0  0  0  0  0  0  0  0  0
  -25.9920  -30.6610   21.4320 C   0  0  0  0  0  2  0  0  0  0  0  0
  -26.0710  -29.2490   20.7850 C   0  0  0  0  0  0  0  0  0  0  0  0
  -27.2150  -28.3320   20.8070 C   0  0  0  0  0  3  0  0  0  0  0  0
  -25.9990  -26.7070   19.5380 C   0  0  0  0  0  3  0  0  0  0  0  0
  -24.8820  -27.5850   19.5100 C   0  0  0  0  0  3  0  0  0  0  0  0
  -23.6710  -29.7480   20.1870 C   0  0  0  0  0  2  0  0  0  0  0  0
  -24.6950  -31.0070   22.1190 N   0  0  0  0  0  0  0  0  0  0  0  0
  -23.5040  -32.1330   23.7070 O   0  0  0  0  0  0  0  0  0  0  0  0
  -22.7230  -29.4470   22.5190 C   0  0  0  0  0  0  0  0  0  0  0  0
  -21.3900  -29.2970   22.3900 N   0  0  0  0  0  0  0  0  0  0  0  0
  -23.3800  -28.8140   23.3490 O   0  0  0  0  0  0  0  0  0  0  0  0
  -20.9140  -29.8560   21.6960 H   0  0  0  0  0  0  0  0  0  0  0  0
  -17.9920  -28.1360   22.9070 C   0  0  0  0  0  0  0  0  0  0  0  0
  -20.5580  -28.3620   23.1560 C   0  0  0  0  0  3  0  0  0  0  0  0
  -20.6350  -26.9370   22.5650 C   0  0  0  0  0  2  0  0  0  0  0  0
  -19.5220  -26.6420   21.5540 C   0  0  0  0  0  2  0  0  0  0  0  0
  -18.1460  -26.7960   22.2110 C   0  0  0  0  0  2  0  0  0  0  0  0
  -19.1240  -28.8800   23.3370 C   0  0  0  0  0  0  0  0  0  0  0  0
  -18.9230  -30.1330   23.9550 C   0  0  0  0  0  3  0  0  0  0  0  0
  -17.6250  -30.6450   24.1440 C   0  0  0  0  0  3  0  0  0  0  0  0
  -16.5080  -29.9000   23.7270 C   0  0  0  0  0  3  0  0  0  0  0  0
  -16.6930  -28.6460   23.1150 C   0  0  0  0  0  3  0  0  0  0  0  0
  -25.8630  -32.4880   23.8510 C   0  0  0  0  0  3  0  0  0  0  0  0
  -25.5420  -33.8920   24.1720 N   0  0  0  0  0  0  0  0  0  0  0  0
  -25.8870  -34.9480   23.4240 C   0  0  0  0  0  0  0  0  0  0  0  0
  -26.5720  -34.8440   22.4040 O   0  0  0  0  0  0  0  0  0  0  0  0
  -24.9350  -34.0450   24.9640 H   0  0  0  0  0  0  0  0  0  0  0  0
  -24.1730  -36.7530   23.0490 C   0  0  0  0  0  1  0  0  0  0  0  0
  -25.4010  -36.3400   23.8770 C   0  0  0  0  0  3  0  0  0  0  0  0
  -27.5240  -37.2180   24.7460 C   0  0  0  0  0  1  0  0  0  0  0  0
  -26.4410  -37.3870   23.7810 N   0  0  0  0  0  0  0  0  0  0  0  0
  -26.0370  -38.3100   23.9170 H   0  0  0  0  0  0  0  0  0  0  0  0
  -26.3480  -31.7300   25.1510 C   0  0  1  0  0  0  0  0  0  0  0  0
  -25.2260  -31.5130   26.1940 C   0  0  0  0  0  1  0  0  0  0  0  0
  -26.9300  -30.3420   24.7940 C   0  0  0  0  0  1  0  0  0  0  0  0
  -27.4900  -32.5230   25.8290 C   0  0  0  0  0  1  0  0  0  0  0  0
  1  4  1  0
  3  6  1  0
  3  5  1  0
  3  1  1  0
  4 18  1  0
  4  2  1  0
  5  7  1  0
  5  8  1  0
  8  9  1  6
  8 48  1  0
  8  2  1  0
 10 18  1  0
 11 16  1  0
 12 13  1  0
 12 11  1  0
 14 13  1  0
 14 23  1  0
 14 15  1  0
 16 10  1  0
 16 15  1  0
 17 10  2  0
 18 19  1  0
 20 21  2  0
 21 40  1  0
 22 21  1  0
 22 25  1  0
 23 20  1  0
 23 24  1  0
 24 22  2  0
 25 26  1  0
 26 27  2  0
 28 31  1  0
 28 27  1  0
 29 28  2  0
 30 29  1  0
 30 25  2  0
 31 32  1  0
 32 33  1  0
 33 34  2  0
 35 34  1  0
 35 39  1  0
 36 35  2  0
 37 32  2  0
 37 36  1  0
 38 37  1  0
 40 41  1  0
 41 44  1  0
 41 43  1  0
 42 40  2  0
 45 46  1  0
 45 20  1  0
 47 45  1  0
 49 50  1  0
 49 48  1  0
 51 62  2  0
 52 50  1  0
 52 57  1  0
 53 61  1  0
 53 63  1  0
 54 60  1  0
 54 56  1  0
 55 61  1  0
 56 57  2  0
 56 55  1  0
 58 52  2  0
 59 58  1  0
 59 54  2  0
 60 53  1  0
 61 51  1  0
 63 65  2  0
 64 63  1  0
 66 64  1  0
 67 76  2  0
 67 72  1  0
 68 64  1  0
 68 72  1  0
 69 68  1  0
 70 71  1  0
 70 69  1  0
 71 67  1  0
 72 73  2  0
 73 74  1  0
 75 74  2  0
 76 75  1  0
 77 51  1  0
 77 78  1  0
 77 87  1  0
 78 81  1  0
 79 83  1  0
 79 78  1  0
 80 79  2  0
 83 82  1  0
 85 83  1  0
 85 86  1  0
 85 84  1  0
 87 90  1  1
 87 88  1  0
 89 87  1  0
M  ISO  4  10 100  18 100  49 101  50 101
M  END
>  <TORSDO>  (75) 
F 18

>  <SCORE>  (75) 
-16.689

>  <name>  (75) 
74

>  <ligand_id>  (75) 
74

>  <original_smiles>  (75) 
[H]c1c([H])c([H])c2c(c1[H])C([H])([H])C([H])([H])C([H])([H])C2([H])N([H])C(=O)C1([H])N(C(=O)C([H])(N([H])C(=O)C([H])(N([H])C([H])([H])[H])C([H])([H])[H])C(C([H])([H])[H])(C([H])([H])[H])C([H])([H])[H])C([H])([H])c2c([H])c(OC([H])([H])C([H])([H])[N+]3([H])C([H])([H])C([H])(N([H])C(=O)N4C([H])([H])C([H])([H])C([H])([H])C([H])(n5nc(-c6c([H])c([H])c(Oc7c([H])c([H])c(F)c([H])c7F)c([H])c6[H])c(C(=O)N([H])[H])c5N([H])[H])C4([H])[H])C([H])([H])C([H])(C([H])([H])[H])C3([H])C([H])([H])[H])c([H])c([H])c2C1([H])[H]

>  <smiles>  (75) 
[H]c1c([H])c([H])c2c(c1[H])C([H])([H])C([H])([H])C([H])([H])C2([H])N([H])C(=O)C1([H])N(C(=O)C([H])(N([H])C(=O)C([H])(N([H])C([H])([H])[H])C([H])([H])[H])C(C([H])([H])[H])(C([H])([H])[H])C([H])([H])[H])C([H])([H])c2c([H])c(OC([H])([H])C([H])([H])[N+]3([H])C([H])([H])C([H])(N([H])C(=O)N4C([H])([H])C([H])([H])C([H])([H])C([H])(n5nc(-c6c([H])c([H])c(Oc7c([H])c([H])c(F)c([H])c7F)c([H])c6[H])c(C(=O)N([H])[H])c5N([H])[H])C4([H])[H])C([H])([H])C([H])(C([H])([H])[H])C3([H])C([H])([H])[H])c([H])c([H])c2C1([H])[H]

$$$$
75:0:0
     RDKit          3D

 93101  0  0  1  0  0  0  0  0999 V2000
  -28.3780  -23.2460   21.6790 C   0  0  0  0  0  3  0  0  0  0  0  0
  -28.5600  -23.0080   19.2810 C   0  0  0  0  0  3  0  0  0  0  0  0
  -28.3290  -24.6590   21.5380 C   0  0  0  0  0  3  0  0  0  0  0  0
  -28.5170  -24.4210   19.1420 C   0  0  0  0  0  3  0  0  0  0  0  0
  -28.4830  -22.3900   20.5540 C   0  0  0  0  0  0  0  0  0  0  0  0
  -28.3820  -25.2730   20.2650 C   0  0  0  0  0  0  0  0  0  0  0  0
  -28.3890  -26.6610   20.1230 O   0  0  0  0  0  0  0  0  0  0  0  0
  -24.6120  -31.8980   23.2440 C   0  0  0  0  0  0  0  0  0  0  0  0
  -27.2170  -27.4050   20.1600 C   0  0  0  0  0  0  0  0  0  0  0  0
  -23.3910  -30.4990   21.6110 C   0  0  0  0  0  3  0  0  0  0  0  0
  -24.8300  -28.9470   20.1790 C   0  0  0  0  0  0  0  0  0  0  0  0
  -25.9190  -30.8380   21.3980 C   0  0  0  0  0  2  0  0  0  0  0  0
  -25.9950  -29.4610   20.7620 C   0  0  0  0  0  0  0  0  0  0  0  0
  -27.1900  -28.6970   20.7490 C   0  0  0  0  0  3  0  0  0  0  0  0
  -26.0320  -26.9170   19.5660 C   0  0  0  0  0  3  0  0  0  0  0  0
  -24.8450  -27.6760   19.5780 C   0  0  0  0  0  3  0  0  0  0  0  0
  -23.5900  -29.8150   20.2310 C   0  0  0  0  0  2  0  0  0  0  0  0
  -24.6590  -31.0950   22.1420 N   0  0  0  0  0  0  0  0  0  0  0  0
  -23.5350  -32.1750   23.7910 O   0  0  0  0  0  0  0  0  0  0  0  0
  -22.7400  -29.4830   22.5780 C   0  0  0  0  0  0  0  0  0  0  0  0
  -21.4140  -29.3020   22.4580 N   0  0  0  0  0  0  0  0  0  0  0  0
  -23.4260  -28.8600   23.3930 O   0  0  0  0  0  0  0  0  0  0  0  0
  -20.9220  -29.8580   21.7720 H   0  0  0  0  0  0  0  0  0  0  0  0
  -18.0430  -28.1020   22.9680 C   0  0  0  0  0  0  0  0  0  0  0  0
  -20.6010  -28.3660   23.2340 C   0  0  0  0  0  3  0  0  0  0  0  0
  -20.7040  -26.9330   22.6620 C   0  0  0  0  0  2  0  0  0  0  0  0
  -19.6010  -26.6050   21.6510 C   0  0  0  0  0  2  0  0  0  0  0  0
  -18.2200  -26.7510   22.2970 C   0  0  0  0  0  2  0  0  0  0  0  0
  -19.1610  -28.8670   23.3940 C   0  0  0  0  0  0  0  0  0  0  0  0
  -18.9420  -30.1330   23.9800 C   0  0  0  0  0  3  0  0  0  0  0  0
  -17.6370  -30.6340   24.1470 C   0  0  0  0  0  3  0  0  0  0  0  0
  -16.5340  -29.8650   23.7380 C   0  0  0  0  0  3  0  0  0  0  0  0
  -16.7370  -28.6020   23.1540 C   0  0  0  0  0  3  0  0  0  0  0  0
  -25.9030  -32.5270   23.8540 C   0  0  0  0  0  3  0  0  0  0  0  0
  -25.5990  -33.9240   24.1930 N   0  0  0  0  0  0  0  0  0  0  0  0
  -25.9200  -34.9790   23.4320 C   0  0  0  0  0  0  0  0  0  0  0  0
  -26.5740  -34.8770   22.3900 O   0  0  0  0  0  0  0  0  0  0  0  0
  -25.0160  -34.0750   25.0030 H   0  0  0  0  0  0  0  0  0  0  0  0
  -24.1840  -36.7700   23.1100 C   0  0  0  0  0  1  0  0  0  0  0  0
  -25.4390  -36.3650   23.8990 C   0  0  0  0  0  3  0  0  0  0  0  0
  -27.5860  -37.2510   24.6950 C   0  0  0  0  0  1  0  0  0  0  0  0
  -26.4680  -37.4200   23.7710 N   0  0  0  0  0  0  0  0  0  0  0  0
  -26.0640  -38.3380   23.9290 H   0  0  0  0  0  0  0  0  0  0  0  0
  -26.4340  -31.7490   25.1210 C   0  0  1  0  0  0  0  0  0  0  0  0
  -25.3540  -31.5070   26.2000 C   0  0  0  0  0  1  0  0  0  0  0  0
  -27.0110  -30.3720   24.7150 C   0  0  0  0  0  1  0  0  0  0  0  0
  -27.5930  -32.5390   25.7740 C   0  0  0  0  0  1  0  0  0  0  0  0
  -28.3200  -20.8500   20.7110 C   0  0  0  0  0  2  0  0  0  0  0  0
  -29.5270  -19.8710   20.5350 C   0  0  0  0  0  0  0  0  0  0  0  0
  -30.6790  -20.3100   20.4850 O   0  0  0  0  0  0  0  0  0  0  0  0
  -29.1900  -18.3350   20.3760 C   0  0  0  0  0  3  0  0  0  0  0  0
  -28.6880  -18.1690   18.9960 N   0  0  0  0  0  4  0  0  0  0  0  0
  -29.3900  -18.4730   18.3440 H   0  0  0  0  0  0  0  0  0  0  0  0
  -27.8650  -18.7240   18.8440 H   0  0  0  0  0  0  0  0  0  0  0  0
  -28.4610  -17.2140   18.7960 H   0  0  0  0  0  0  0  0  0  0  0  0
  -30.3460  -17.2950   20.6810 C   0  0  0  0  0  2  0  0  0  0  0  0
  -29.8660  -15.8370   21.0760 C   0  0  0  0  0  2  0  0  0  0  0  0
  -30.6400  -14.5960   20.5070 C   0  0  0  0  0  0  0  0  0  0  0  0
  -30.3970  -12.4010   19.3660 C   0  0  0  0  0  2  0  0  0  0  0  0
  -29.4650  -12.5830   18.1470 C   0  0  0  0  0  2  0  0  0  0  0  0
  -27.9850  -12.4410   18.5570 C   0  0  0  0  0  2  0  0  0  0  0  0
  -27.6290  -13.2880   19.8070 C   0  0  0  0  0  3  0  0  0  0  0  0
  -28.6740  -13.0830   20.9300 C   0  0  0  0  0  2  0  0  0  0  0  0
  -30.0010  -13.3950   20.3790 N   0  0  0  0  0  0  0  0  0  0  0  0
  -31.7840  -14.7600   20.0710 O   0  0  0  0  0  0  0  0  0  0  0  0
  -25.2290  -13.9220   20.4810 C   0  0  0  0  0  0  0  0  0  0  0  0
  -24.1500  -13.1630   20.8440 C   0  0  0  0  0  0  0  0  0  0  0  0
  -24.6020  -11.8080   20.8360 C   0  0  0  0  0  0  0  0  0  0  0  0
  -26.2710  -13.0290   20.2740 N   0  0  0  0  0  0  0  0  0  0  0  0
  -25.8970  -11.7540   20.5480 N   0  0  0  0  0  0  0  0  0  0  0  0
  -23.8640  -10.5540   21.0300 C   0  0  0  0  0  0  0  0  0  0  0  0
  -24.2850   -9.5880   21.9710 C   0  0  0  0  0  3  0  0  0  0  0  0
  -23.5480   -8.3990   22.1520 C   0  0  0  0  0  3  0  0  0  0  0  0
  -22.3770   -8.1660   21.3920 C   0  0  0  0  0  0  0  0  0  0  0  0
  -21.9760   -9.1210   20.4410 C   0  0  0  0  0  3  0  0  0  0  0  0
  -22.7130  -10.3030   20.2580 C   0  0  0  0  0  3  0  0  0  0  0  0
  -21.6130   -7.0280   21.4820 O   0  0  0  0  0  0  0  0  0  0  0  0
  -21.5590   -6.2870   22.6350 C   0  0  0  0  0  0  0  0  0  0  0  0
  -21.1410   -6.8470   23.8620 C   0  0  0  0  0  3  0  0  0  0  0  0
  -21.0340   -6.0320   25.0080 C   0  0  0  0  0  3  0  0  0  0  0  0
  -21.3340   -4.6590   24.9270 C   0  0  0  0  0  0  0  0  0  0  0  0
  -21.7460   -4.1000   23.7040 C   0  0  0  0  0  3  0  0  0  0  0  0
  -21.8550   -4.9110   22.5610 C   0  0  0  0  0  0  0  0  0  0  0  0
  -22.2310   -4.3620   21.3810 F   0  0  0  0  0  0  0  0  0  0  0  0
  -21.2240   -3.8750   26.0240 F   0  0  0  0  0  0  0  0  0  0  0  0
  -22.7530  -13.6550   21.0880 C   0  0  0  0  0  0  0  0  0  0  0  0
  -22.0050  -12.9760   21.9520 N   0  0  0  0  0  0  0  0  0  0  0  0
  -22.3310  -14.6770   20.5480 O   0  0  0  0  0  0  0  0  0  0  0  0
  -22.3580  -12.1490   22.4110 H   0  0  0  0  0  0  0  0  0  0  0  0
  -21.0670  -13.2890   22.1570 H   0  0  0  0  0  0  0  0  0  0  0  0
  -25.4060  -15.2890   20.2880 N   0  0  0  0  0  0  0  0  0  0  0  0
  -24.6390  -15.9470   20.3730 H   0  0  0  0  0  0  0  0  0  0  0  0
  -26.2590  -15.7120   19.9550 H   0  0  0  0  0  0  0  0  0  0  0  0
  2  5  1  0
  3  1  1  0
  4  2  2  0
  4  6  1  0
  5 48  1  0
  5  1  2  0
  6  3  2  0
  7  9  1  0
  7  6  1  0
  8 19  2  0
  9 14  1  0
 10 18  1  0
 10 20  1  0
 11 17  1  0
 11 13  1  0
 12 18  1  0
 13 12  1  0
 14 13  2  0
 15 16  1  0
 15  9  2  0
 16 11  2  0
 17 10  1  0
 18  8  1  0
 20 22  2  0
 21 20  1  0
 23 21  1  0
 24 33  2  0
 24 29  1  0
 25 21  1  0
 25 29  1  0
 26 25  1  0
 27 28  1  0
 27 26  1  0
 28 24  1  0
 29 30  2  0
 30 31  1  0
 32 31  2  0
 33 32  1  0
 34  8  1  0
 34 35  1  0
 34 44  1  0
 35 38  1  0
 36 40  1  0
 36 35  1  0
 37 36  2  0
 40 39  1  0
 42 40  1  0
 42 43  1  0
 42 41  1  0
 44 47  1  1
 44 45  1  0
 46 44  1  0
 49 48  1  0
 50 49  2  0
 51 49  1  0
 51 56  1  0
 52 51  1  0
 53 52  1  0
 54 52  1  0
 55 52  1  0
 56 57  1  0
 58 57  1  0
 59 64  1  0
 60 61  1  0
 60 59  1  0
 62 61  1  0
 62 69  1  0
 62 63  1  0
 64 58  1  0
 64 63  1  0
 65 58  2  0
 66 67  2  0
 67 86  1  0
 68 67  1  0
 68 71  1  0
 69 66  1  0
 69 70  1  0
 70 68  2  0
 71 72  1  0
 72 73  2  0
 74 77  1  0
 74 73  1  0
 75 74  2  0
 76 75  1  0
 76 71  2  0
 77 78  1  0
 78 79  1  0
 79 80  2  0
 81 80  1  0
 81 85  1  0
 82 81  2  0
 83 78  2  0
 83 82  1  0
 84 83  1  0
 86 87  1  0
 87 90  1  0
 87 89  1  0
 88 86  2  0
 91 92  1  0
 91 66  1  0
 93 91  1  0
M  ISO  4   6 101   7 101  57 100  58 100
M  END
>  <TORSDO>  (76) 
F 22

>  <SCORE>  (76) 
-13.490

>  <name>  (76) 
75

>  <ligand_id>  (76) 
75

>  <original_smiles>  (76) 
[H]c1c([H])c([H])c2c(c1[H])C([H])([H])C([H])([H])C([H])([H])C2([H])N([H])C(=O)C1([H])N(C(=O)C([H])(N([H])C(=O)C([H])(N([H])C([H])([H])[H])C([H])([H])[H])C(C([H])([H])[H])(C([H])([H])[H])C([H])([H])[H])C([H])([H])c2c([H])c(Oc3c([H])c([H])c(C([H])([H])C(=O)C([H])(C([H])([H])C([H])([H])C(=O)N4C([H])([H])C([H])([H])C([H])([H])C([H])(n5nc(-c6c([H])c([H])c(Oc7c([H])c([H])c(F)c([H])c7F)c([H])c6[H])c(C(=O)N([H])[H])c5N([H])[H])C4([H])[H])[N+]([H])([H])[H])c([H])c3[H])c([H])c([H])c2C1([H])[H]

>  <smiles>  (76) 
[H]c1c([H])c([H])c2c(c1[H])C([H])([H])C([H])([H])C([H])([H])C2([H])N([H])C(=O)C1([H])N(C(=O)C([H])(N([H])C(=O)C([H])(N([H])C([H])([H])[H])C([H])([H])[H])C(C([H])([H])[H])(C([H])([H])[H])C([H])([H])[H])C([H])([H])c2c([H])c(Oc3c([H])c([H])c(C([H])([H])C(=O)C([H])(C([H])([H])C([H])([H])C(=O)N4C([H])([H])C([H])([H])C([H])([H])C([H])(n5nc(-c6c([H])c([H])c(Oc7c([H])c([H])c(F)c([H])c7F)c([H])c6[H])c(C(=O)N([H])[H])c5N([H])[H])C4([H])[H])[N+]([H])([H])[H])c([H])c3[H])c([H])c([H])c2C1([H])[H]

$$$$
76:0:0
     RDKit          3D

 88 96  0  0  1  0  0  0  0  0999 V2000
  -27.2140  -21.5160   20.5200 C   0  0  0  0  0  1  0  0  0  0  0  0
  -28.6520  -21.8510   20.1000 C   0  0  0  0  0  3  0  0  0  0  0  0
  -30.4370  -23.7650   20.1600 C   0  0  0  0  0  1  0  0  0  0  0  0
  -28.9740  -23.4620   20.5000 C   0  0  0  0  0  3  0  0  0  0  0  0
  -28.0470  -24.7810   20.0160 C   0  0  0  0  0  2  0  0  0  0  0  0
  -28.2870  -26.2840   20.3360 O   0  0  0  0  0  0  0  0  0  0  0  0
  -24.6470  -31.9500   23.2990 C   0  0  0  0  0  0  0  0  0  0  0  0
  -27.2350  -27.2650   20.2520 C   0  0  0  0  0  0  0  0  0  0  0  0
  -23.4560  -30.5620   21.6520 C   0  0  0  0  0  3  0  0  0  0  0  0
  -24.9110  -29.0050   20.2150 C   0  0  0  0  0  0  0  0  0  0  0  0
  -26.0090  -30.8350   21.4940 C   0  0  0  0  0  2  0  0  0  0  0  0
  -26.0860  -29.4490   20.8330 C   0  0  0  0  0  0  0  0  0  0  0  0
  -27.2490  -28.5940   20.8350 C   0  0  0  0  0  3  0  0  0  0  0  0
  -26.0350  -26.9230   19.5870 C   0  0  0  0  0  3  0  0  0  0  0  0
  -24.8950  -27.7540   19.5790 C   0  0  0  0  0  3  0  0  0  0  0  0
  -23.6800  -29.8970   20.2690 C   0  0  0  0  0  2  0  0  0  0  0  0
  -24.7250  -31.1370   22.2030 N   0  0  0  0  0  0  0  0  0  0  0  0
  -23.5570  -32.2300   23.8260 O   0  0  0  0  0  0  0  0  0  0  0  0
  -22.7770  -29.5460   22.6040 C   0  0  0  0  0  0  0  0  0  0  0  0
  -21.4490  -29.3670   22.4650 N   0  0  0  0  0  0  0  0  0  0  0  0
  -23.4430  -28.9220   23.4340 O   0  0  0  0  0  0  0  0  0  0  0  0
  -20.9690  -29.9220   21.7720 H   0  0  0  0  0  0  0  0  0  0  0  0
  -18.0690  -28.1610   22.9460 C   0  0  0  0  0  0  0  0  0  0  0  0
  -20.6260  -28.4250   23.2270 C   0  0  0  0  0  3  0  0  0  0  0  0
  -20.7330  -26.9960   22.6460 C   0  0  0  0  0  2  0  0  0  0  0  0
  -19.6350  -26.6780   21.6250 C   0  0  0  0  0  2  0  0  0  0  0  0
  -18.2500  -26.8160   22.2620 C   0  0  0  0  0  2  0  0  0  0  0  0
  -19.1830  -28.9230   23.3830 C   0  0  0  0  0  0  0  0  0  0  0  0
  -18.9560  -30.1810   23.9830 C   0  0  0  0  0  3  0  0  0  0  0  0
  -17.6470  -30.6770   24.1470 C   0  0  0  0  0  3  0  0  0  0  0  0
  -16.5480  -29.9100   23.7230 C   0  0  0  0  0  3  0  0  0  0  0  0
  -16.7590  -28.6540   23.1270 C   0  0  0  0  0  3  0  0  0  0  0  0
  -25.9210  -32.5840   23.9340 C   0  0  0  0  0  3  0  0  0  0  0  0
  -26.4110  -31.8250   25.2280 C   0  0  1  0  0  0  0  0  0  0  0  0
  -25.2970  -31.6020   26.2800 C   0  0  0  0  0  1  0  0  0  0  0  0
  -26.9960  -30.4410   24.8640 C   0  0  0  0  0  1  0  0  0  0  0  0
  -27.5530  -32.6230   25.9010 C   0  0  0  0  0  1  0  0  0  0  0  0
  -25.6110  -33.9870   24.2500 N   0  0  0  0  0  0  0  0  0  0  0  0
  -25.9280  -35.0340   23.4760 C   0  0  0  0  0  0  0  0  0  0  0  0
  -26.5780  -34.9200   22.4340 O   0  0  0  0  0  0  0  0  0  0  0  0
  -25.0290  -34.1480   25.0610 H   0  0  0  0  0  0  0  0  0  0  0  0
  -24.1810  -36.8160   23.1590 C   0  0  0  0  0  1  0  0  0  0  0  0
  -25.4510  -36.4280   23.9310 C   0  0  0  0  0  3  0  0  0  0  0  0
  -27.6030  -37.3420   24.6790 C   0  0  0  0  0  1  0  0  0  0  0  0
  -26.4730  -37.4830   23.7650 N   0  0  0  0  0  0  0  0  0  0  0  0
  -26.0660  -38.4030   23.9060 H   0  0  0  0  0  0  0  0  0  0  0  0
  -29.6640  -20.5580   20.4860 C   0  0  0  0  0  2  0  0  0  0  0  0
  -30.5950  -15.0610   20.2860 C   0  0  0  0  0  0  0  0  0  0  0  0
  -30.4130  -12.7210   19.3340 C   0  0  0  0  0  2  0  0  0  0  0  0
  -29.4660  -12.6600   18.1140 C   0  0  0  0  0  2  0  0  0  0  0  0
  -28.0140  -12.4270   18.5700 C   0  0  0  0  0  2  0  0  0  0  0  0
  -27.6090  -13.3660   19.7340 C   0  0  0  0  0  3  0  0  0  0  0  0
  -28.6790  -13.4290   20.8470 C   0  0  0  0  0  2  0  0  0  0  0  0
  -29.9430  -13.8290   20.2130 N   0  0  0  0  0  0  0  0  0  0  0  0
  -31.8170  -15.0570   20.0970 O   0  0  0  0  0  0  0  0  0  0  0  0
  -28.5520  -18.2030   19.4570 C   0  0  0  0  0  2  0  0  0  0  0  0
  -28.6480  -16.6570   19.7250 C   0  0  0  0  0  2  0  0  0  0  0  0
  -30.4370  -17.7160   20.7480 C   0  0  0  0  0  2  0  0  0  0  0  0
  -29.3230  -18.9060   20.5750 C   0  0  0  0  0  3  0  0  0  0  0  0
  -29.9020  -16.3070   20.4170 N   0  0  0  0  0  0  0  0  0  0  0  0
  -25.2440  -13.9640   20.5040 C   0  0  0  0  0  0  0  0  0  0  0  0
  -24.1810  -13.1920   20.8770 C   0  0  0  0  0  0  0  0  0  0  0  0
  -24.6400  -11.8410   20.8340 C   0  0  0  0  0  0  0  0  0  0  0  0
  -26.2800  -13.0800   20.2500 N   0  0  0  0  0  0  0  0  0  0  0  0
  -25.9280  -11.7990   20.5170 N   0  0  0  0  0  0  0  0  0  0  0  0
  -23.9110  -10.5830   21.0190 C   0  0  0  0  0  0  0  0  0  0  0  0
  -24.3340   -9.6200   21.9610 C   0  0  0  0  0  3  0  0  0  0  0  0
  -23.6080   -8.4240   22.1330 C   0  0  0  0  0  3  0  0  0  0  0  0
  -22.4460   -8.1840   21.3620 C   0  0  0  0  0  0  0  0  0  0  0  0
  -22.0440   -9.1360   20.4080 C   0  0  0  0  0  3  0  0  0  0  0  0
  -22.7690  -10.3240   20.2340 C   0  0  0  0  0  3  0  0  0  0  0  0
  -21.6870   -7.0420   21.4450 O   0  0  0  0  0  0  0  0  0  0  0  0
  -21.6020   -6.3180   22.6070 C   0  0  0  0  0  0  0  0  0  0  0  0
  -21.0980   -6.8820   23.7990 C   0  0  0  0  0  3  0  0  0  0  0  0
  -20.9630   -6.0840   24.9540 C   0  0  0  0  0  3  0  0  0  0  0  0
  -21.3230   -4.7230   24.9150 C   0  0  0  0  0  0  0  0  0  0  0  0
  -21.8220   -4.1590   23.7270 C   0  0  0  0  0  3  0  0  0  0  0  0
  -21.9590   -4.9550   22.5770 C   0  0  0  0  0  0  0  0  0  0  0  0
  -22.4190   -4.4030   21.4280 F   0  0  0  0  0  0  0  0  0  0  0  0
  -21.1860   -3.9540   26.0190 F   0  0  0  0  0  0  0  0  0  0  0  0
  -22.7870  -13.6740   21.1580 C   0  0  0  0  0  0  0  0  0  0  0  0
  -22.0660  -12.9800   22.0300 N   0  0  0  0  0  0  0  0  0  0  0  0
  -22.3500  -14.7020   20.6440 O   0  0  0  0  0  0  0  0  0  0  0  0
  -22.4370  -12.1470   22.4650 H   0  0  0  0  0  0  0  0  0  0  0  0
  -21.1290  -13.2790   22.2600 H   0  0  0  0  0  0  0  0  0  0  0  0
  -25.4010  -15.3360   20.3270 N   0  0  0  0  0  0  0  0  0  0  0  0
  -24.6320  -15.9840   20.4550 H   0  0  0  0  0  0  0  0  0  0  0  0
  -26.2350  -15.7780   19.9650 H   0  0  0  0  0  0  0  0  0  0  0  0
  2 47  1  0
  2  4  1  0
  2  1  1  0
  4  3  1  0
  5  6  1  0
  5  4  1  0
  7 18  2  0
  8  6  1  0
  8 13  1  0
  9 17  1  0
  9 19  1  0
 10 16  1  0
 10 12  1  0
 11 17  1  0
 12 13  2  0
 12 11  1  0
 14  8  2  0
 15 14  1  0
 15 10  2  0
 16  9  1  0
 17  7  1  0
 19 21  2  0
 20 19  1  0
 22 20  1  0
 23 32  2  0
 23 28  1  0
 24 20  1  0
 24 28  1  0
 25 24  1  0
 26 27  1  0
 26 25  1  0
 27 23  1  0
 28 29  2  0
 29 30  1  0
 31 30  2  0
 32 31  1  0
 33  7  1  0
 33 38  1  0
 33 34  1  0
 34 37  1  1
 34 35  1  0
 36 34  1  0
 38 41  1  0
 39 43  1  0
 39 38  1  0
 40 39  2  0
 43 42  1  0
 45 46  1  0
 45 43  1  0
 45 44  1  0
 48 60  1  0
 49 54  1  0
 50 51  1  0
 50 49  1  0
 52 51  1  0
 52 64  1  0
 52 53  1  0
 54 48  1  0
 54 53  1  0
 55 48  2  0
 56 57  1  0
 56 59  1  0
 57 60  1  0
 59 47  1  0
 59 58  1  0
 60 58  1  0
 61 62  2  0
 62 81  1  0
 63 62  1  0
 63 66  1  0
 64 61  1  0
 64 65  1  0
 65 63  2  0
 66 67  1  0
 67 68  2  0
 69 72  1  0
 69 68  1  0
 70 69  2  0
 71 70  1  0
 71 66  2  0
 72 73  1  0
 73 74  1  0
 74 75  2  0
 76 75  1  0
 76 80  1  0
 77 76  2  0
 78 73  2  0
 78 77  1  0
 79 78  1  0
 81 82  1  0
 82 85  1  0
 82 84  1  0
 83 81  2  0
 86 87  1  0
 86 61  1  0
 88 86  1  0
M  ISO  4   5 101   6 101  48 100  60 100
M  END
>  <TORSDO>  (77) 
F 19

>  <SCORE>  (77) 
-13.892

>  <name>  (77) 
76

>  <ligand_id>  (77) 
76

>  <original_smiles>  (77) 
[H]c1c([H])c([H])c2c(c1[H])C([H])([H])C([H])([H])C([H])([H])C2([H])N([H])C(=O)C1([H])N(C(=O)C([H])(N([H])C(=O)C([H])(N([H])C([H])([H])[H])C([H])([H])[H])C(C([H])([H])[H])(C([H])([H])[H])C([H])([H])[H])C([H])([H])c2c([H])c(OC([H])([H])C([H])(C([H])([H])[H])C([H])(C([H])([H])[H])C([H])([H])C3([H])C([H])([H])N(C(=O)N4C([H])([H])C([H])([H])C([H])([H])C([H])(n5nc(-c6c([H])c([H])c(Oc7c([H])c([H])c(F)c([H])c7F)c([H])c6[H])c(C(=O)N([H])[H])c5N([H])[H])C4([H])[H])C([H])([H])C3([H])[H])c([H])c([H])c2C1([H])[H]

>  <smiles>  (77) 
[H]c1c([H])c([H])c2c(c1[H])C([H])([H])C([H])([H])C([H])([H])C2([H])N([H])C(=O)C1([H])N(C(=O)C([H])(N([H])C(=O)C([H])(N([H])C([H])([H])[H])C([H])([H])[H])C(C([H])([H])[H])(C([H])([H])[H])C([H])([H])[H])C([H])([H])c2c([H])c(OC([H])([H])C([H])(C([H])([H])[H])C([H])(C([H])([H])[H])C([H])([H])C3([H])C([H])([H])N(C(=O)N4C([H])([H])C([H])([H])C([H])([H])C([H])(n5nc(-c6c([H])c([H])c(Oc7c([H])c([H])c(F)c([H])c7F)c([H])c6[H])c(C(=O)N([H])[H])c5N([H])[H])C4([H])[H])C([H])([H])C3([H])[H])c([H])c([H])c2C1([H])[H]

$$$$
77:0:0
     RDKit          3D

 89 97  0  0  1  0  0  0  0  0999 V2000
  -29.0600  -21.2010   17.7750 C   0  0  0  0  0  2  0  0  0  0  0  0
  -29.9540  -20.6070   18.5560 C   0  0  0  0  0  2  0  0  0  0  0  0
  -27.9660  -21.8400   18.5800 C   0  0  0  0  0  2  0  0  0  0  0  0
  -29.5820  -20.7160   20.0120 C   0  0  0  0  0  3  0  0  0  0  0  0
  -28.5560  -21.9300   19.9520 N   0  0  1  0  0  4  0  0  0  0  0  0
  -27.8230  -21.7380   20.6200 H   0  0  0  0  0  0  0  0  0  0  0  0
  -27.7210  -18.8410   20.0930 C   0  0  0  0  0  1  0  0  0  0  0  0
  -29.1620  -19.1720   20.5230 C   0  0  0  0  0  3  0  0  0  0  0  0
  -30.1030  -17.8190   20.2160 C   0  0  0  0  0  3  0  0  0  0  0  0
  -29.7320  -16.2650   20.7060 C   0  0  0  0  0  3  0  0  0  0  0  0
  -30.5670  -14.9010   20.3250 C   0  0  0  0  0  0  0  0  0  0  0  0
  -30.4380  -12.5860   19.3160 C   0  0  0  0  0  2  0  0  0  0  0  0
  -29.4970  -12.6260   18.0880 C   0  0  0  0  0  2  0  0  0  0  0  0
  -28.0290  -12.4270   18.5140 C   0  0  0  0  0  2  0  0  0  0  0  0
  -27.6420  -13.3130   19.7250 C   0  0  0  0  0  3  0  0  0  0  0  0
  -28.7000  -13.2520   20.8480 C   0  0  0  0  0  2  0  0  0  0  0  0
  -29.9910  -13.6380   20.2660 N   0  0  0  0  0  0  0  0  0  0  0  0
  -31.7450  -15.0050   19.9670 O   0  0  0  0  0  0  0  0  0  0  0  0
  -25.2560  -13.8970   20.4580 C   0  0  0  0  0  0  0  0  0  0  0  0
  -24.1910  -13.1220   20.8290 C   0  0  0  0  0  0  0  0  0  0  0  0
  -24.6580  -11.7710   20.8040 C   0  0  0  0  0  0  0  0  0  0  0  0
  -26.3010  -13.0190   20.2200 N   0  0  0  0  0  0  0  0  0  0  0  0
  -25.9500  -11.7360   20.4940 N   0  0  0  0  0  0  0  0  0  0  0  0
  -23.9330  -10.5080   20.9970 C   0  0  0  0  0  0  0  0  0  0  0  0
  -24.3600   -9.5480   21.9410 C   0  0  0  0  0  3  0  0  0  0  0  0
  -23.6340   -8.3510   22.1220 C   0  0  0  0  0  3  0  0  0  0  0  0
  -22.4680   -8.1050   21.3580 C   0  0  0  0  0  0  0  0  0  0  0  0
  -22.0620   -9.0540   20.4040 C   0  0  0  0  0  3  0  0  0  0  0  0
  -22.7870  -10.2430   20.2210 C   0  0  0  0  0  3  0  0  0  0  0  0
  -21.7160   -6.9590   21.4470 O   0  0  0  0  0  0  0  0  0  0  0  0
  -21.6490   -6.2300   22.6070 C   0  0  0  0  0  0  0  0  0  0  0  0
  -21.1910   -6.7950   23.8170 C   0  0  0  0  0  3  0  0  0  0  0  0
  -21.0720   -5.9920   24.9680 C   0  0  0  0  0  3  0  0  0  0  0  0
  -21.4000   -4.6250   24.9110 C   0  0  0  0  0  0  0  0  0  0  0  0
  -21.8510   -4.0590   23.7060 C   0  0  0  0  0  3  0  0  0  0  0  0
  -21.9720   -4.8590   22.5570 C   0  0  0  0  0  0  0  0  0  0  0  0
  -22.3870   -4.3030   21.3920 F   0  0  0  0  0  0  0  0  0  0  0  0
  -21.2790   -3.8510   26.0150 F   0  0  0  0  0  0  0  0  0  0  0  0
  -22.7930  -13.5970   21.0950 C   0  0  0  0  0  0  0  0  0  0  0  0
  -22.0630  -12.9030   21.9600 N   0  0  0  0  0  0  0  0  0  0  0  0
  -22.3560  -14.6200   20.5690 O   0  0  0  0  0  0  0  0  0  0  0  0
  -22.4300  -12.0770   22.4090 H   0  0  0  0  0  0  0  0  0  0  0  0
  -21.1230  -13.2040   22.1770 H   0  0  0  0  0  0  0  0  0  0  0  0
  -25.4190  -15.2680   20.2770 N   0  0  0  0  0  0  0  0  0  0  0  0
  -24.6530  -15.9210   20.3930 H   0  0  0  0  0  0  0  0  0  0  0  0
  -26.2690  -15.7080   19.9540 H   0  0  0  0  0  0  0  0  0  0  0  0
  -29.0120  -23.4240   20.2320 C   0  0  0  0  0  3  0  0  0  0  0  0
  -27.9830  -24.7290   20.0110 C   0  0  0  0  0  3  0  0  0  0  0  0
  -28.2640  -26.2320   20.2240 O   0  0  0  0  0  0  0  0  0  0  0  0
  -24.6230  -31.8550   23.2260 C   0  0  0  0  0  0  0  0  0  0  0  0
  -27.1960  -27.1900   20.1600 C   0  0  0  0  0  0  0  0  0  0  0  0
  -23.4160  -30.4640   21.5880 C   0  0  0  0  0  3  0  0  0  0  0  0
  -24.8590  -28.9050   20.1490 C   0  0  0  0  0  0  0  0  0  0  0  0
  -25.9660  -30.7460   21.4070 C   0  0  0  0  0  2  0  0  0  0  0  0
  -26.0390  -29.3590   20.7510 C   0  0  0  0  0  0  0  0  0  0  0  0
  -27.2090  -28.5170   20.7420 C   0  0  0  0  0  3  0  0  0  0  0  0
  -25.9880  -26.8330   19.5180 C   0  0  0  0  0  3  0  0  0  0  0  0
  -24.8440  -27.6550   19.5180 C   0  0  0  0  0  3  0  0  0  0  0  0
  -23.6290  -29.7950   20.2050 C   0  0  0  0  0  2  0  0  0  0  0  0
  -24.6890  -31.0420   22.1280 N   0  0  0  0  0  0  0  0  0  0  0  0
  -23.5400  -32.1340   23.7610 O   0  0  0  0  0  0  0  0  0  0  0  0
  -22.7470  -29.4500   22.5480 C   0  0  0  0  0  0  0  0  0  0  0  0
  -21.4180  -29.2770   22.4280 N   0  0  0  0  0  0  0  0  0  0  0  0
  -23.4240  -28.8210   23.3650 O   0  0  0  0  0  0  0  0  0  0  0  0
  -20.9290  -29.8370   21.7430 H   0  0  0  0  0  0  0  0  0  0  0  0
  -18.0400  -28.0750   22.9420 C   0  0  0  0  0  0  0  0  0  0  0  0
  -20.6010  -28.3380   23.1990 C   0  0  0  0  0  3  0  0  0  0  0  0
  -20.7000  -26.9070   22.6210 C   0  0  0  0  0  2  0  0  0  0  0  0
  -19.5940  -26.5850   21.6110 C   0  0  0  0  0  2  0  0  0  0  0  0
  -18.2140  -26.7270   22.2620 C   0  0  0  0  0  2  0  0  0  0  0  0
  -19.1600  -28.8380   23.3680 C   0  0  0  0  0  0  0  0  0  0  0  0
  -18.9420  -30.0980   23.9660 C   0  0  0  0  0  3  0  0  0  0  0  0
  -17.6370  -30.5970   24.1390 C   0  0  0  0  0  3  0  0  0  0  0  0
  -16.5320  -29.8320   23.7270 C   0  0  0  0  0  3  0  0  0  0  0  0
  -16.7340  -28.5720   23.1360 C   0  0  0  0  0  3  0  0  0  0  0  0
  -25.9050  -32.4890   23.8480 C   0  0  0  0  0  3  0  0  0  0  0  0
  -25.5930  -33.8870   24.1840 N   0  0  0  0  0  0  0  0  0  0  0  0
  -25.9140  -34.9440   23.4280 C   0  0  0  0  0  0  0  0  0  0  0  0
  -26.5710  -34.8460   22.3880 O   0  0  0  0  0  0  0  0  0  0  0  0
  -25.0070  -34.0350   24.9920 H   0  0  0  0  0  0  0  0  0  0  0  0
  -24.1800  -36.7400   23.1020 C   0  0  0  0  0  1  0  0  0  0  0  0
  -25.4310  -36.3320   23.8960 C   0  0  0  0  0  3  0  0  0  0  0  0
  -27.5740  -37.2180   24.7060 C   0  0  0  0  0  1  0  0  0  0  0  0
  -26.4610  -37.3860   23.7740 N   0  0  0  0  0  0  0  0  0  0  0  0
  -26.0560  -38.3060   23.9270 H   0  0  0  0  0  0  0  0  0  0  0  0
  -26.4210  -31.7170   25.1240 C   0  0  1  0  0  0  0  0  0  0  0  0
  -25.3290  -31.4790   26.1930 C   0  0  0  0  0  1  0  0  0  0  0  0
  -27.0030  -30.3380   24.7330 C   0  0  0  0  0  1  0  0  0  0  0  0
  -27.5740  -32.5090   25.7840 C   0  0  0  0  0  1  0  0  0  0  0  0
  1  2  1  0
  1  3  1  0
  2  4  1  0
  3  5  1  0
  4  8  1  0
  5  4  1  0
  5 47  1  0
  5  6  1  1
  8  7  1  0
  9  8  1  0
  9 10  2  0
 11 10  1  0
 12 17  1  0
 13 14  1  0
 13 12  1  0
 15 14  1  0
 15 22  1  0
 15 16  1  0
 17 11  1  0
 17 16  1  0
 18 11  2  0
 19 20  2  0
 20 39  1  0
 21 20  1  0
 21 24  1  0
 22 19  1  0
 22 23  1  0
 23 21  2  0
 24 25  1  0
 25 26  2  0
 27 30  1  0
 27 26  1  0
 28 27  2  0
 29 28  1  0
 29 24  2  0
 30 31  1  0
 31 32  1  0
 32 33  2  0
 34 33  1  0
 34 38  1  0
 35 34  2  0
 36 31  2  0
 36 35  1  0
 37 36  1  0
 39 40  1  0
 40 43  1  0
 40 42  1  0
 41 39  2  0
 44 45  1  0
 44 19  1  0
 46 44  1  0
 48 49  1  0
 48 47  2  0
 50 61  2  0
 51 49  1  0
 51 56  1  0
 52 60  1  0
 52 62  1  0
 53 59  1  0
 53 55  1  0
 54 60  1  0
 55 54  1  0
 56 55  2  0
 57 51  2  0
 58 57  1  0
 58 53  2  0
 59 52  1  0
 60 50  1  0
 62 64  2  0
 63 62  1  0
 65 63  1  0
 66 75  2  0
 66 71  1  0
 67 63  1  0
 67 71  1  0
 68 67  1  0
 69 70  1  0
 69 68  1  0
 70 66  1  0
 71 72  2  0
 72 73  1  0
 74 73  2  0
 75 74  1  0
 76 50  1  0
 76 77  1  0
 76 86  1  0
 77 80  1  0
 78 82  1  0
 78 77  1  0
 79 78  2  0
 82 81  1  0
 84 82  1  0
 84 85  1  0
 84 83  1  0
 86 89  1  1
 86 87  1  0
 88 86  1  0
M  ISO  4  10 100  11 100  48 101  49 101
M  END
>  <TORSDO>  (78) 
F 21

>  <SCORE>  (78) 
-13.438

>  <name>  (78) 
77

>  <ligand_id>  (78) 
77

>  <original_smiles>  (78) 
[H]C1=C([H])C([H])(C([H])(C([H])([H])[H])C([H])([H])C([H])([H])C(=O)N2C([H])([H])C([H])([H])C([H])([H])C([H])(n3nc(-c4c([H])c([H])c(Oc5c([H])c([H])c(F)c([H])c5F)c([H])c4[H])c(C(=O)N([H])[H])c3N([H])[H])C2([H])[H])[N+]([H])(C([H])([H])C([H])([H])Oc2c([H])c([H])c3c(c2[H])C([H])([H])N(C(=O)C([H])(N([H])C(=O)C([H])(N([H])C([H])([H])[H])C([H])([H])[H])C(C([H])([H])[H])(C([H])([H])[H])C([H])([H])[H])C([H])(C(=O)N([H])C2([H])c4c([H])c([H])c([H])c([H])c4C([H])([H])C([H])([H])C2([H])[H])C3([H])[H])C1([H])[H]

>  <smiles>  (78) 
[H]C1=C([H])C([H])(C([H])(C([H])([H])[H])C([H])([H])C([H])([H])C(=O)N2C([H])([H])C([H])([H])C([H])([H])C([H])(n3nc(-c4c([H])c([H])c(Oc5c([H])c([H])c(F)c([H])c5F)c([H])c4[H])c(C(=O)N([H])[H])c3N([H])[H])C2([H])[H])[N+]([H])(C([H])([H])C([H])([H])Oc2c([H])c([H])c3c(c2[H])C([H])([H])N(C(=O)C([H])(N([H])C(=O)C([H])(N([H])C([H])([H])[H])C([H])([H])[H])C(C([H])([H])[H])(C([H])([H])[H])C([H])([H])[H])C([H])(C(=O)N([H])C2([H])c4c([H])c([H])c([H])c([H])c4C([H])([H])C([H])([H])C2([H])[H])C3([H])[H])C1([H])[H]

$$$$
78:0:0
     RDKit          3D

 87 95  0  0  1  0  0  0  0  0999 V2000
  -28.1910  -19.5490   19.4580 C   0  0  0  0  0  3  0  0  0  0  0  0
  -28.5070  -17.9710   19.3370 C   0  0  0  0  0  2  0  0  0  0  0  0
  -29.9240  -19.0940   20.7120 C   0  0  0  0  0  2  0  0  0  0  0  0
  -29.4430  -17.3760   20.4750 C   0  0  0  0  0  3  0  0  0  0  0  0
  -28.9650  -20.3890   20.2310 N   0  0  0  0  0  0  0  0  0  0  0  0
  -27.1630  -20.0580   18.7560 N   0  0  0  0  0  0  0  0  0  0  0  0
  -26.5860  -19.4680   18.1690 H   0  0  0  0  0  0  0  0  0  0  0  0
  -26.9220  -21.0370   18.7980 H   0  0  0  0  0  0  0  0  0  0  0  0
  -30.2580  -15.6890   20.3200 C   0  0  0  0  0  0  0  0  0  0  0  0
  -30.4060  -13.1220   19.5640 C   0  0  0  0  0  2  0  0  0  0  0  0
  -29.5420  -12.7360   18.3270 C   0  0  0  0  0  2  0  0  0  0  0  0
  -28.1030  -12.3880   18.7420 C   0  0  0  0  0  2  0  0  0  0  0  0
  -27.5710  -13.3880   19.7930 C   0  0  0  0  0  3  0  0  0  0  0  0
  -28.5740  -13.6960   20.9270 C   0  0  0  0  0  2  0  0  0  0  0  0
  -29.7770  -14.3040   20.3150 N   0  0  0  0  0  0  0  0  0  0  0  0
  -31.4860  -15.6290   20.1130 O   0  0  0  0  0  0  0  0  0  0  0  0
  -25.1940  -13.9070   20.5200 C   0  0  0  0  0  0  0  0  0  0  0  0
  -24.1330  -13.1210   20.8720 C   0  0  0  0  0  0  0  0  0  0  0  0
  -24.6130  -11.7750   20.8520 C   0  0  0  0  0  0  0  0  0  0  0  0
  -26.2460  -13.0420   20.2910 N   0  0  0  0  0  0  0  0  0  0  0  0
  -25.9100  -11.7520   20.5600 N   0  0  0  0  0  0  0  0  0  0  0  0
  -23.8890  -10.5090   21.0330 C   0  0  0  0  0  0  0  0  0  0  0  0
  -24.3030   -9.5470   21.9810 C   0  0  0  0  0  3  0  0  0  0  0  0
  -23.5740   -8.3500   22.1520 C   0  0  0  0  0  3  0  0  0  0  0  0
  -22.4170   -8.1050   21.3760 C   0  0  0  0  0  0  0  0  0  0  0  0
  -22.0200   -9.0560   20.4180 C   0  0  0  0  0  3  0  0  0  0  0  0
  -22.7500  -10.2450   20.2450 C   0  0  0  0  0  3  0  0  0  0  0  0
  -21.6610   -6.9590   21.4550 O   0  0  0  0  0  0  0  0  0  0  0  0
  -21.5840   -6.2260   22.6130 C   0  0  0  0  0  0  0  0  0  0  0  0
  -21.1070   -6.7850   23.8180 C   0  0  0  0  0  3  0  0  0  0  0  0
  -20.9790   -5.9780   24.9660 C   0  0  0  0  0  3  0  0  0  0  0  0
  -21.3170   -4.6130   24.9090 C   0  0  0  0  0  0  0  0  0  0  0  0
  -21.7880   -4.0530   23.7080 C   0  0  0  0  0  3  0  0  0  0  0  0
  -21.9180   -4.8580   22.5630 C   0  0  0  0  0  0  0  0  0  0  0  0
  -22.3510   -4.3090   21.4030 F   0  0  0  0  0  0  0  0  0  0  0  0
  -21.1880   -3.8360   26.0100 F   0  0  0  0  0  0  0  0  0  0  0  0
  -22.7290  -13.5910   21.1110 C   0  0  0  0  0  0  0  0  0  0  0  0
  -21.9890  -12.9010   21.9700 N   0  0  0  0  0  0  0  0  0  0  0  0
  -22.2960  -14.6070   20.5680 O   0  0  0  0  0  0  0  0  0  0  0  0
  -22.3520  -12.0800   22.4300 H   0  0  0  0  0  0  0  0  0  0  0  0
  -21.0450  -13.1990   22.1720 H   0  0  0  0  0  0  0  0  0  0  0  0
  -25.3480  -15.2780   20.3450 N   0  0  0  0  0  0  0  0  0  0  0  0
  -24.5770  -15.9280   20.4520 H   0  0  0  0  0  0  0  0  0  0  0  0
  -26.2030  -15.7220   20.0360 H   0  0  0  0  0  0  0  0  0  0  0  0
  -29.0190  -22.1770   20.4550 C   0  0  0  0  0  3  0  0  0  0  0  0
  -28.0220  -23.8080   20.1070 C   0  0  0  0  0  3  0  0  0  0  0  0
  -28.1550  -25.5610   20.2870 O   0  0  0  0  0  0  0  0  0  0  0  0
  -24.6480  -31.8490   23.1870 C   0  0  0  0  0  0  0  0  0  0  0  0
  -27.1750  -26.7640   20.2130 C   0  0  0  0  0  0  0  0  0  0  0  0
  -23.4560  -30.4410   21.5610 C   0  0  0  0  0  3  0  0  0  0  0  0
  -24.9000  -28.7880   20.1510 C   0  0  0  0  0  0  0  0  0  0  0  0
  -26.0340  -30.5870   21.4290 C   0  0  0  0  0  2  0  0  0  0  0  0
  -26.0970  -29.1510   20.7790 C   0  0  0  0  0  0  0  0  0  0  0  0
  -27.2180  -28.1680   20.7770 C   0  0  0  0  0  3  0  0  0  0  0  0
  -25.9430  -26.6070   19.5270 C   0  0  0  0  0  3  0  0  0  0  0  0
  -24.8620  -27.5410   19.5000 C   0  0  0  0  0  3  0  0  0  0  0  0
  -23.6920  -29.7370   20.1930 C   0  0  0  0  0  2  0  0  0  0  0  0
  -24.7370  -30.9920   22.1110 N   0  0  0  0  0  0  0  0  0  0  0  0
  -23.5560  -32.1500   23.6990 O   0  0  0  0  0  0  0  0  0  0  0  0
  -22.7450  -29.4680   22.5400 C   0  0  0  0  0  0  0  0  0  0  0  0
  -21.4110  -29.3130   22.4200 N   0  0  0  0  0  0  0  0  0  0  0  0
  -23.4030  -28.8500   23.3790 O   0  0  0  0  0  0  0  0  0  0  0  0
  -20.9300  -29.8620   21.7220 H   0  0  0  0  0  0  0  0  0  0  0  0
  -18.0270  -28.1030   22.9520 C   0  0  0  0  0  0  0  0  0  0  0  0
  -20.5880  -28.3800   23.2000 C   0  0  0  0  0  3  0  0  0  0  0  0
  -20.6890  -26.9440   22.6350 C   0  0  0  0  0  2  0  0  0  0  0  0
  -19.5840  -26.6130   21.6280 C   0  0  0  0  0  2  0  0  0  0  0  0
  -18.2040  -26.7540   22.2770 C   0  0  0  0  0  2  0  0  0  0  0  0
  -19.1440  -28.8740   23.3720 C   0  0  0  0  0  0  0  0  0  0  0  0
  -18.9200  -30.1330   23.9690 C   0  0  0  0  0  3  0  0  0  0  0  0
  -17.6120  -30.6230   24.1480 C   0  0  0  0  0  3  0  0  0  0  0  0
  -16.5100  -29.8520   23.7410 C   0  0  0  0  0  3  0  0  0  0  0  0
  -16.7180  -28.5930   23.1500 C   0  0  0  0  0  3  0  0  0  0  0  0
  -25.9130  -32.5030   23.8200 C   0  0  0  0  0  3  0  0  0  0  0  0
  -25.5880  -33.9040   24.1550 N   0  0  0  0  0  0  0  0  0  0  0  0
  -25.9160  -34.9710   23.4140 C   0  0  0  0  0  0  0  0  0  0  0  0
  -26.5800  -34.8810   22.3790 O   0  0  0  0  0  0  0  0  0  0  0  0
  -24.9950  -34.0480   24.9590 H   0  0  0  0  0  0  0  0  0  0  0  0
  -24.1830  -36.7760   23.1030 C   0  0  0  0  0  1  0  0  0  0  0  0
  -25.4350  -36.3580   23.8930 C   0  0  0  0  0  3  0  0  0  0  0  0
  -27.5760  -37.2450   24.7120 C   0  0  0  0  0  1  0  0  0  0  0  0
  -26.4650  -37.4140   23.7780 N   0  0  0  0  0  0  0  0  0  0  0  0
  -26.0590  -38.3330   23.9320 H   0  0  0  0  0  0  0  0  0  0  0  0
  -26.4170  -31.7490   25.1140 C   0  0  1  0  0  0  0  0  0  0  0  0
  -25.3170  -31.5350   26.1810 C   0  0  0  0  0  1  0  0  0  0  0  0
  -26.9940  -30.3610   24.7590 C   0  0  0  0  0  1  0  0  0  0  0  0
  -27.5700  -32.5460   25.7690 C   0  0  0  0  0  1  0  0  0  0  0  0
  1  6  1  0
  1  5  1  0
  2  1  1  0
  2  4  1  0
  4  9  1  0
  4  3  1  0
  5 45  1  0
  5  3  1  0
  6  8  1  0
  7  6  1  0
 10 15  1  0
 11 12  1  0
 11 10  1  0
 13 12  1  0
 13 20  1  0
 13 14  1  0
 15  9  1  0
 15 14  1  0
 16  9  2  0
 17 18  2  0
 18 37  1  0
 19 18  1  0
 19 22  1  0
 20 17  1  0
 20 21  1  0
 21 19  2  0
 22 23  1  0
 23 24  2  0
 25 28  1  0
 25 24  1  0
 26 25  2  0
 27 26  1  0
 27 22  2  0
 28 29  1  0
 29 30  1  0
 30 31  2  0
 32 31  1  0
 32 36  1  0
 33 32  2  0
 34 29  2  0
 34 33  1  0
 35 34  1  0
 37 38  1  0
 38 41  1  0
 38 40  1  0
 39 37  2  0
 42 43  1  0
 42 17  1  0
 44 42  1  0
 46 47  1  0
 46 45  2  0
 48 59  2  0
 49 47  1  0
 49 54  1  0
 50 58  1  0
 50 60  1  0
 51 57  1  0
 51 53  1  0
 52 58  1  0
 53 52  1  0
 54 53  2  0
 55 49  2  0
 56 55  1  0
 56 51  2  0
 57 50  1  0
 58 48  1  0
 60 62  2  0
 61 60  1  0
 63 61  1  0
 64 73  2  0
 64 69  1  0
 65 61  1  0
 65 69  1  0
 66 65  1  0
 67 68  1  0
 67 66  1  0
 68 64  1  0
 69 70  2  0
 70 71  1  0
 72 71  2  0
 73 72  1  0
 74 48  1  0
 74 75  1  0
 74 84  1  0
 75 78  1  0
 76 80  1  0
 76 75  1  0
 77 76  2  0
 80 79  1  0
 82 80  1  0
 82 83  1  0
 82 81  1  0
 84 87  1  1
 84 85  1  0
 86 84  1  0
M  ISO  4   4 100   9 100  46 101  47 101
M  END
>  <TORSDO>  (79) 
F 18

>  <SCORE>  (79) 
-16.645

>  <name>  (79) 
78

>  <ligand_id>  (79) 
78

>  <original_smiles>  (79) 
[H]c1c([H])c([H])c2c(c1[H])C([H])([H])C([H])([H])C([H])([H])C2([H])N([H])C(=O)C1([H])N(C(=O)C([H])(N([H])C(=O)C([H])(N([H])C([H])([H])[H])C([H])([H])[H])C(C([H])([H])[H])(C([H])([H])[H])C([H])([H])[H])C([H])([H])c2c([H])c(OC([H])([H])C([H])([H])N3C(=[N+]([H])[H])C([H])([H])C([H])(C(=O)N4C([H])([H])C([H])([H])C([H])([H])C([H])(n5nc(-c6c([H])c([H])c(Oc7c([H])c([H])c(F)c([H])c7F)c([H])c6[H])c(C(=O)N([H])[H])c5N([H])[H])C4([H])[H])C3([H])[H])c([H])c([H])c2C1([H])[H]

>  <smiles>  (79) 
[H]c1c([H])c([H])c2c(c1[H])C([H])([H])C([H])([H])C([H])([H])C2([H])N([H])C(=O)C1([H])N(C(=O)C([H])(N([H])C(=O)C([H])(N([H])C([H])([H])[H])C([H])([H])[H])C(C([H])([H])[H])(C([H])([H])[H])C([H])([H])[H])C([H])([H])c2c([H])c(OC([H])([H])C([H])([H])N3C(=[N+]([H])[H])C([H])([H])C([H])(C(=O)N4C([H])([H])C([H])([H])C([H])([H])C([H])(n5nc(-c6c([H])c([H])c(Oc7c([H])c([H])c(F)c([H])c7F)c([H])c6[H])c(C(=O)N([H])[H])c5N([H])[H])C4([H])[H])C3([H])[H])c([H])c([H])c2C1([H])[H]

$$$$
79:0:0
     RDKit          3D

 88 96  0  0  1  0  0  0  0  0999 V2000
  -30.7590  -22.0600   20.3260 C   0  0  0  0  0  1  0  0  0  0  0  0
  -29.2770  -21.8900   19.9540 C   0  0  0  0  0  3  0  0  0  0  0  0
  -27.5040  -20.0160   19.5610 C   0  0  0  0  0  1  0  0  0  0  0  0
  -28.8190  -20.2950   20.3020 C   0  0  0  0  0  3  0  0  0  0  0  0
  -30.6640  -14.9740   19.9910 C   0  0  0  0  0  0  0  0  0  0  0  0
  -30.4280  -12.6370   19.0410 C   0  0  0  0  0  2  0  0  0  0  0  0
  -29.4380  -12.6080   17.8550 C   0  0  0  0  0  2  0  0  0  0  0  0
  -28.0050  -12.3920   18.3700 C   0  0  0  0  0  2  0  0  0  0  0  0
  -27.6630  -13.3170   19.5670 C   0  0  0  0  0  3  0  0  0  0  0  0
  -28.7740  -13.3440   20.6380 C   0  0  0  0  0  2  0  0  0  0  0  0
  -30.0150  -13.7390   19.9630 N   0  0  0  0  0  0  0  0  0  0  0  0
  -31.8230  -14.9870   19.5580 O   0  0  0  0  0  0  0  0  0  0  0  0
  -30.3480  -18.4450   21.5750 C   0  0  0  0  0  2  0  0  0  0  0  0
  -30.8570  -16.9710   21.4590 C   0  0  0  0  0  2  0  0  0  0  0  0
  -29.3500  -17.3640   19.7540 C   0  0  0  0  0  2  0  0  0  0  0  0
  -29.7840  -18.8900   20.2210 C   0  0  0  0  0  3  0  0  0  0  0  0
  -30.0790  -16.1910   20.4690 N   0  0  0  0  0  0  0  0  0  0  0  0
  -25.3360  -13.8810   20.4640 C   0  0  0  0  0  0  0  0  0  0  0  0
  -24.2890  -13.1020   20.8710 C   0  0  0  0  0  0  0  0  0  0  0  0
  -24.7420  -11.7490   20.7740 C   0  0  0  0  0  0  0  0  0  0  0  0
  -26.3560  -13.0070   20.1370 N   0  0  0  0  0  0  0  0  0  0  0  0
  -26.0110  -11.7160   20.3880 N   0  0  0  0  0  0  0  0  0  0  0  0
  -24.0170  -10.4860   20.9690 C   0  0  0  0  0  0  0  0  0  0  0  0
  -24.4620   -9.5110   21.8900 C   0  0  0  0  0  3  0  0  0  0  0  0
  -23.7350   -8.3150   22.0740 C   0  0  0  0  0  3  0  0  0  0  0  0
  -22.5490   -8.0840   21.3370 C   0  0  0  0  0  0  0  0  0  0  0  0
  -22.1230   -9.0480   20.4050 C   0  0  0  0  0  3  0  0  0  0  0  0
  -22.8520  -10.2360   20.2190 C   0  0  0  0  0  3  0  0  0  0  0  0
  -21.7930   -6.9410   21.4310 O   0  0  0  0  0  0  0  0  0  0  0  0
  -21.7250   -6.2160   22.5930 C   0  0  0  0  0  0  0  0  0  0  0  0
  -21.2300   -6.7750   23.7930 C   0  0  0  0  0  3  0  0  0  0  0  0
  -21.1140   -5.9740   24.9460 C   0  0  0  0  0  3  0  0  0  0  0  0
  -21.4810   -4.6160   24.9010 C   0  0  0  0  0  0  0  0  0  0  0  0
  -21.9690   -4.0570   23.7080 C   0  0  0  0  0  3  0  0  0  0  0  0
  -22.0880   -4.8540   22.5560 C   0  0  0  0  0  0  0  0  0  0  0  0
  -22.5370   -4.3050   21.4010 F   0  0  0  0  0  0  0  0  0  0  0  0
  -21.3630   -3.8430   26.0070 F   0  0  0  0  0  0  0  0  0  0  0  0
  -22.9150  -13.5780   21.2390 C   0  0  0  0  0  0  0  0  0  0  0  0
  -22.2310  -12.8560   22.1190 N   0  0  0  0  0  0  0  0  0  0  0  0
  -22.4570  -14.6260   20.7820 O   0  0  0  0  0  0  0  0  0  0  0  0
  -22.6150  -12.0070   22.5080 H   0  0  0  0  0  0  0  0  0  0  0  0
  -21.3110  -13.1570   22.4100 H   0  0  0  0  0  0  0  0  0  0  0  0
  -25.4990  -15.2560   20.3190 N   0  0  0  0  0  0  0  0  0  0  0  0
  -24.7490  -15.9130   20.5000 H   0  0  0  0  0  0  0  0  0  0  0  0
  -26.3420  -15.7000   19.9770 H   0  0  0  0  0  0  0  0  0  0  0  0
  -28.4720  -23.2870   20.4860 C   0  0  0  0  0  2  0  0  0  0  0  0
  -28.4650  -24.8010   19.7290 C   0  0  0  0  0  2  0  0  0  0  0  0
  -28.3400  -26.2340   20.3300 O   0  0  0  0  0  0  0  0  0  0  0  0
  -24.6160  -31.8540   23.2170 C   0  0  0  0  0  0  0  0  0  0  0  0
  -27.2570  -27.1760   20.1960 C   0  0  0  0  0  0  0  0  0  0  0  0
  -23.4440  -30.4630   21.5510 C   0  0  0  0  0  3  0  0  0  0  0  0
  -24.9180  -28.9040   20.1310 C   0  0  0  0  0  0  0  0  0  0  0  0
  -25.9970  -30.7440   21.4220 C   0  0  0  0  0  2  0  0  0  0  0  0
  -26.0830  -29.3570   20.7620 C   0  0  0  0  0  0  0  0  0  0  0  0
  -27.2490  -28.5070   20.7790 C   0  0  0  0  0  3  0  0  0  0  0  0
  -26.0670  -26.8170   19.5290 C   0  0  0  0  0  3  0  0  0  0  0  0
  -24.9240  -27.6500   19.4980 C   0  0  0  0  0  3  0  0  0  0  0  0
  -23.6850  -29.7950   20.1700 C   0  0  0  0  0  2  0  0  0  0  0  0
  -24.7050  -31.0440   22.1180 N   0  0  0  0  0  0  0  0  0  0  0  0
  -23.5210  -32.1300   23.7320 O   0  0  0  0  0  0  0  0  0  0  0  0
  -22.7590  -29.4480   22.5000 C   0  0  0  0  0  0  0  0  0  0  0  0
  -21.4310  -29.2840   22.3660 N   0  0  0  0  0  0  0  0  0  0  0  0
  -23.4250  -28.8080   23.3190 O   0  0  0  0  0  0  0  0  0  0  0  0
  -20.9530  -29.8510   21.6790 H   0  0  0  0  0  0  0  0  0  0  0  0
  -18.0350  -28.1130   22.8530 C   0  0  0  0  0  0  0  0  0  0  0  0
  -20.5980  -28.3420   23.1200 C   0  0  0  0  0  3  0  0  0  0  0  0
  -20.6820  -26.9200   22.5200 C   0  0  0  0  0  2  0  0  0  0  0  0
  -19.5750  -26.6280   21.5030 C   0  0  0  0  0  2  0  0  0  0  0  0
  -18.1960  -26.7770   22.1490 C   0  0  0  0  0  2  0  0  0  0  0  0
  -19.1640  -28.8560   23.2940 C   0  0  0  0  0  0  0  0  0  0  0  0
  -18.9590  -30.1090   23.9110 C   0  0  0  0  0  3  0  0  0  0  0  0
  -17.6580  -30.6180   24.0930 C   0  0  0  0  0  3  0  0  0  0  0  0
  -16.5460  -29.8750   23.6660 C   0  0  0  0  0  3  0  0  0  0  0  0
  -16.7350  -28.6230   23.0520 C   0  0  0  0  0  3  0  0  0  0  0  0
  -25.8820  -32.4910   23.8690 C   0  0  0  0  0  3  0  0  0  0  0  0
  -26.3670  -31.7230   25.1600 C   0  0  1  0  0  0  0  0  0  0  0  0
  -25.2460  -31.4890   26.2020 C   0  0  0  0  0  1  0  0  0  0  0  0
  -26.9620  -30.3450   24.7920 C   0  0  0  0  0  1  0  0  0  0  0  0
  -27.5030  -32.5210   25.8430 C   0  0  0  0  0  1  0  0  0  0  0  0
  -25.5660  -33.8900   24.1920 N   0  0  0  0  0  0  0  0  0  0  0  0
  -25.9040  -34.9450   23.4380 C   0  0  0  0  0  0  0  0  0  0  0  0
  -26.5860  -34.8420   22.4150 O   0  0  0  0  0  0  0  0  0  0  0  0
  -24.9620  -34.0460   24.9860 H   0  0  0  0  0  0  0  0  0  0  0  0
  -24.1840  -36.7420   23.0660 C   0  0  0  0  0  1  0  0  0  0  0  0
  -25.4140  -36.3340   23.8920 C   0  0  0  0  0  3  0  0  0  0  0  0
  -27.5350  -37.2200   24.7560 C   0  0  0  0  0  1  0  0  0  0  0  0
  -26.4490  -37.3860   23.7940 N   0  0  0  0  0  0  0  0  0  0  0  0
  -26.0410  -38.3070   23.9300 H   0  0  0  0  0  0  0  0  0  0  0  0
  2  4  1  0
  2  1  1  0
  2 46  1  0
  4  3  1  0
  5 17  1  0
  6 11  1  0
  7  8  1  0
  7  6  1  0
  9  8  1  0
  9 21  1  0
  9 10  1  0
 11  5  1  0
 11 10  1  0
 12  5  2  0
 14 13  1  0
 15 16  1  0
 15 17  1  0
 16  4  1  0
 16 13  1  0
 17 14  1  0
 18 19  2  0
 19 38  1  0
 20 19  1  0
 20 23  1  0
 21 22  1  0
 21 18  1  0
 22 20  2  0
 23 24  1  0
 24 25  2  0
 26 29  1  0
 26 25  1  0
 27 26  2  0
 28 27  1  0
 28 23  2  0
 29 30  1  0
 30 31  1  0
 31 32  2  0
 33 32  1  0
 33 37  1  0
 34 33  2  0
 35 30  2  0
 35 34  1  0
 36 35  1  0
 38 39  1  0
 39 42  1  0
 39 41  1  0
 40 38  2  0
 43 18  1  0
 43 44  1  0
 45 43  1  0
 47 48  1  0
 47 46  1  0
 49 60  2  0
 50 48  1  0
 50 55  1  0
 51 59  1  0
 51 61  1  0
 52 58  1  0
 52 54  1  0
 53 59  1  0
 54 55  2  0
 54 53  1  0
 56 50  2  0
 57 56  1  0
 57 52  2  0
 58 51  1  0
 59 49  1  0
 61 63  2  0
 62 61  1  0
 64 62  1  0
 65 74  2  0
 65 70  1  0
 66 62  1  0
 66 70  1  0
 67 66  1  0
 68 69  1  0
 68 67  1  0
 69 65  1  0
 70 71  2  0
 71 72  1  0
 73 72  2  0
 74 73  1  0
 75 49  1  0
 75 80  1  0
 75 76  1  0
 76 79  1  1
 76 77  1  0
 78 76  1  0
 80 83  1  0
 81 85  1  0
 81 80  1  0
 82 81  2  0
 85 84  1  0
 87 85  1  0
 87 88  1  0
 87 86  1  0
M  ISO  4   5 100  17 100  47 101  48 101
M  END
>  <TORSDO>  (80) 
F 19

>  <SCORE>  (80) 
-15.571

>  <name>  (80) 
79

>  <ligand_id>  (80) 
79

>  <original_smiles>  (80) 
[H]c1c([H])c([H])c2c(c1[H])C([H])([H])C([H])([H])C([H])([H])C2([H])N([H])C(=O)C1([H])N(C(=O)C([H])(N([H])C(=O)C([H])(N([H])C([H])([H])[H])C([H])([H])[H])C(C([H])([H])[H])(C([H])([H])[H])C([H])([H])[H])C([H])([H])c2c([H])c(OC([H])([H])C([H])([H])C([H])(C([H])([H])[H])C([H])(C([H])([H])[H])C3([H])C([H])([H])N(C(=O)N4C([H])([H])C([H])([H])C([H])([H])C([H])(n5nc(-c6c([H])c([H])c(Oc7c([H])c([H])c(F)c([H])c7F)c([H])c6[H])c(C(=O)N([H])[H])c5N([H])[H])C4([H])[H])C([H])([H])C3([H])[H])c([H])c([H])c2C1([H])[H]

>  <smiles>  (80) 
[H]c1c([H])c([H])c2c(c1[H])C([H])([H])C([H])([H])C([H])([H])C2([H])N([H])C(=O)C1([H])N(C(=O)C([H])(N([H])C(=O)C([H])(N([H])C([H])([H])[H])C([H])([H])[H])C(C([H])([H])[H])(C([H])([H])[H])C([H])([H])[H])C([H])([H])c2c([H])c(OC([H])([H])C([H])([H])C([H])(C([H])([H])[H])C([H])(C([H])([H])[H])C3([H])C([H])([H])N(C(=O)N4C([H])([H])C([H])([H])C([H])([H])C([H])(n5nc(-c6c([H])c([H])c(Oc7c([H])c([H])c(F)c([H])c7F)c([H])c6[H])c(C(=O)N([H])[H])c5N([H])[H])C4([H])[H])C([H])([H])C3([H])[H])c([H])c([H])c2C1([H])[H]

$$$$
80:0:0
     RDKit          3D

 88 96  0  0  1  0  0  0  0  0999 V2000
  -28.9460  -20.4270   21.1480 C   0  0  0  0  0  2  0  0  0  0  0  0
  -29.3540  -19.7430   18.9890 C   0  0  0  0  0  2  0  0  0  0  0  0
  -29.2940  -21.2260   19.8570 C   0  0  0  0  0  3  0  0  0  0  0  0
  -29.6190  -18.9520   21.1820 C   0  0  0  0  0  3  0  0  0  0  0  0
  -30.0350  -18.3770   19.7680 C   0  0  0  0  0  3  0  0  0  0  0  0
  -30.8070  -18.8960   22.1550 C   0  0  0  0  0  1  0  0  0  0  0  0
  -30.6330  -15.4690   19.4740 C   0  0  0  0  0  0  0  0  0  0  0  0
  -30.5690  -13.0130   18.6290 C   0  0  0  0  0  2  0  0  0  0  0  0
  -29.5240  -12.7540   17.5150 C   0  0  0  0  0  2  0  0  0  0  0  0
  -28.1400  -12.4600   18.1210 C   0  0  0  0  0  2  0  0  0  0  0  0
  -27.7890  -13.4400   19.2670 C   0  0  0  0  0  3  0  0  0  0  0  0
  -28.9510  -13.6380   20.2640 C   0  0  0  0  0  2  0  0  0  0  0  0
  -30.0850  -14.1570   19.4830 N   0  0  0  0  0  0  0  0  0  0  0  0
  -31.8380  -15.4860   19.1810 O   0  0  0  0  0  0  0  0  0  0  0  0
  -29.8420  -16.7210   19.5890 N   0  0  0  0  0  0  0  0  0  0  0  0
  -28.8690  -16.4740   19.6800 H   0  0  0  0  0  0  0  0  0  0  0  0
  -25.5390  -13.9750   20.3390 C   0  0  0  0  0  0  0  0  0  0  0  0
  -24.5210  -13.1870   20.7980 C   0  0  0  0  0  0  0  0  0  0  0  0
  -24.9660  -11.8380   20.6460 C   0  0  0  0  0  0  0  0  0  0  0  0
  -26.5330  -13.1080   19.9260 N   0  0  0  0  0  0  0  0  0  0  0  0
  -26.2090  -11.8120   20.1780 N   0  0  0  0  0  0  0  0  0  0  0  0
  -24.2520  -10.5720   20.8600 C   0  0  0  0  0  0  0  0  0  0  0  0
  -24.7170   -9.6090   21.7830 C   0  0  0  0  0  3  0  0  0  0  0  0
  -24.0000   -8.4090   21.9870 C   0  0  0  0  0  3  0  0  0  0  0  0
  -22.8050   -8.1650   21.2690 C   0  0  0  0  0  0  0  0  0  0  0  0
  -22.3600   -9.1170   20.3350 C   0  0  0  0  0  3  0  0  0  0  0  0
  -23.0760  -10.3070   20.1280 C   0  0  0  0  0  3  0  0  0  0  0  0
  -22.0570   -7.0180   21.3830 O   0  0  0  0  0  0  0  0  0  0  0  0
  -21.9660   -6.3330   22.5680 C   0  0  0  0  0  0  0  0  0  0  0  0
  -21.4230   -6.9230   23.7310 C   0  0  0  0  0  3  0  0  0  0  0  0
  -21.2850   -6.1610   24.9090 C   0  0  0  0  0  3  0  0  0  0  0  0
  -21.6790   -4.8100   24.9240 C   0  0  0  0  0  0  0  0  0  0  0  0
  -22.2150   -4.2190   23.7660 C   0  0  0  0  0  3  0  0  0  0  0  0
  -22.3550   -4.9790   22.5910 C   0  0  0  0  0  0  0  0  0  0  0  0
  -22.8520   -4.3980   21.4720 F   0  0  0  0  0  0  0  0  0  0  0  0
  -21.5400   -4.0760   26.0520 F   0  0  0  0  0  0  0  0  0  0  0  0
  -23.1710  -13.6590   21.2540 C   0  0  0  0  0  0  0  0  0  0  0  0
  -22.5460  -12.9300   22.1710 N   0  0  0  0  0  0  0  0  0  0  0  0
  -22.6860  -14.7070   20.8320 O   0  0  0  0  0  0  0  0  0  0  0  0
  -22.9550  -12.0810   22.5320 H   0  0  0  0  0  0  0  0  0  0  0  0
  -21.6440  -13.2260   22.5180 H   0  0  0  0  0  0  0  0  0  0  0  0
  -25.6900  -15.3530   20.2080 N   0  0  0  0  0  0  0  0  0  0  0  0
  -24.9410  -15.9980   20.4350 H   0  0  0  0  0  0  0  0  0  0  0  0
  -26.4770  -15.8050   19.7640 H   0  0  0  0  0  0  0  0  0  0  0  0
  -29.3760  -23.2990   18.2120 C   0  0  0  0  0  1  0  0  0  0  0  0
  -28.5760  -22.8460   19.4400 C   0  0  0  0  0  3  0  0  0  0  0  0
  -28.2010  -24.3860   20.3070 C   0  0  0  0  0  2  0  0  0  0  0  0
  -28.2720  -26.0070   19.9890 O   0  0  0  0  0  0  0  0  0  0  0  0
  -24.5740  -31.8160   23.1610 C   0  0  0  0  0  0  0  0  0  0  0  0
  -27.2100  -27.0510   20.0460 C   0  0  0  0  0  0  0  0  0  0  0  0
  -23.4020  -30.4360   21.4930 C   0  0  0  0  0  3  0  0  0  0  0  0
  -24.8730  -28.8820   20.0440 C   0  0  0  0  0  0  0  0  0  0  0  0
  -25.9630  -30.6980   21.3470 C   0  0  0  0  0  2  0  0  0  0  0  0
  -26.0570  -29.3010   20.6640 C   0  0  0  0  0  0  0  0  0  0  0  0
  -27.2220  -28.4110   20.6330 C   0  0  0  0  0  3  0  0  0  0  0  0
  -25.9890  -26.7750   19.3950 C   0  0  0  0  0  3  0  0  0  0  0  0
  -24.8620  -27.6380   19.3920 C   0  0  0  0  0  3  0  0  0  0  0  0
  -23.6410  -29.7830   20.1050 C   0  0  0  0  0  2  0  0  0  0  0  0
  -24.6670  -31.0100   22.0550 N   0  0  0  0  0  0  0  0  0  0  0  0
  -23.4810  -32.0740   23.6910 O   0  0  0  0  0  0  0  0  0  0  0  0
  -22.7250  -29.4090   22.4390 C   0  0  0  0  0  0  0  0  0  0  0  0
  -21.4040  -29.1960   22.2870 N   0  0  0  0  0  0  0  0  0  0  0  0
  -23.3980  -28.8030   23.2770 O   0  0  0  0  0  0  0  0  0  0  0  0
  -20.9130  -29.7370   21.5890 H   0  0  0  0  0  0  0  0  0  0  0  0
  -18.0690  -27.8290   22.6910 C   0  0  0  0  0  0  0  0  0  0  0  0
  -20.6030  -28.2220   23.0360 C   0  0  0  0  0  3  0  0  0  0  0  0
  -20.7920  -26.7940   22.4720 C   0  0  0  0  0  2  0  0  0  0  0  0
  -19.7410  -26.4150   21.4250 C   0  0  0  0  0  2  0  0  0  0  0  0
  -18.3340  -26.4910   22.0230 C   0  0  0  0  0  2  0  0  0  0  0  0
  -19.1330  -28.6490   23.1530 C   0  0  0  0  0  0  0  0  0  0  0  0
  -18.8290  -29.8970   23.7380 C   0  0  0  0  0  3  0  0  0  0  0  0
  -17.4950  -30.3280   23.8660 C   0  0  0  0  0  3  0  0  0  0  0  0
  -16.4450  -29.5070   23.4190 C   0  0  0  0  0  3  0  0  0  0  0  0
  -16.7330  -28.2590   22.8390 C   0  0  0  0  0  3  0  0  0  0  0  0
  -25.8340  -32.4670   23.8070 C   0  0  0  0  0  3  0  0  0  0  0  0
  -25.5070  -33.8650   24.1360 N   0  0  0  0  0  0  0  0  0  0  0  0
  -25.8390  -34.9280   23.3900 C   0  0  0  0  0  0  0  0  0  0  0  0
  -26.5140  -34.8340   22.3630 O   0  0  0  0  0  0  0  0  0  0  0  0
  -24.9110  -34.0130   24.9380 H   0  0  0  0  0  0  0  0  0  0  0  0
  -24.0980  -36.7150   23.0470 C   0  0  0  0  0  1  0  0  0  0  0  0
  -25.3430  -36.3130   23.8540 C   0  0  0  0  0  3  0  0  0  0  0  0
  -27.4640  -37.2210   24.6970 C   0  0  0  0  0  1  0  0  0  0  0  0
  -26.3680  -37.3740   23.7430 N   0  0  0  0  0  0  0  0  0  0  0  0
  -25.9540  -38.2910   23.8830 H   0  0  0  0  0  0  0  0  0  0  0  0
  -26.3290  -31.7090   25.1010 C   0  0  1  0  0  0  0  0  0  0  0  0
  -25.2140  -31.4640   26.1450 C   0  0  0  0  0  1  0  0  0  0  0  0
  -26.9380  -30.3360   24.7390 C   0  0  0  0  0  1  0  0  0  0  0  0
  -27.4540  -32.5200   25.7870 C   0  0  0  0  0  1  0  0  0  0  0  0
  1  4  1  0
  2  5  1  0
  2  3  1  0
  3 46  1  0
  3  1  1  0
  4  6  1  0
  5 15  1  0
  5  4  1  0
  7 13  1  0
  7 15  1  0
  8 13  1  0
  9 10  1  0
  9  8  1  0
 11 10  1  0
 11 20  1  0
 11 12  1  0
 13 12  1  0
 14  7  2  0
 15 16  1  0
 17 18  2  0
 18 37  1  0
 19 18  1  0
 19 22  1  0
 20 21  1  0
 20 17  1  0
 21 19  2  0
 22 23  1  0
 23 24  2  0
 25 28  1  0
 25 24  1  0
 26 25  2  0
 27 26  1  0
 27 22  2  0
 28 29  1  0
 29 34  2  0
 29 30  1  0
 30 31  2  0
 31 32  1  0
 32 36  1  0
 33 32  2  0
 34 33  1  0
 35 34  1  0
 37 38  1  0
 38 41  1  0
 38 40  1  0
 39 37  2  0
 42 17  1  0
 42 43  1  0
 44 42  1  0
 46 45  1  0
 46 47  1  0
 48 50  1  0
 48 47  1  0
 49 60  2  0
 50 55  1  0
 51 59  1  0
 51 61  1  0
 52 58  1  0
 52 54  1  0
 53 59  1  0
 54 53  1  0
 55 54  2  0
 56 50  2  0
 57 56  1  0
 57 52  2  0
 58 51  1  0
 59 49  1  0
 61 63  2  0
 62 61  1  0
 64 62  1  0
 65 74  2  0
 65 70  1  0
 66 62  1  0
 66 70  1  0
 67 66  1  0
 68 69  1  0
 68 67  1  0
 69 65  1  0
 70 71  2  0
 71 72  1  0
 73 72  2  0
 74 73  1  0
 75 49  1  0
 75 76  1  0
 75 85  1  0
 76 79  1  0
 77 81  1  0
 77 76  1  0
 78 77  2  0
 81 80  1  0
 83 81  1  0
 83 84  1  0
 83 82  1  0
 85 88  1  1
 85 86  1  0
 87 85  1  0
M  ISO  4   7 100  15 100  47 101  48 101
M  END
>  <TORSDO>  (81) 
F 18

>  <SCORE>  (81) 
-15.318

>  <name>  (81) 
80

>  <ligand_id>  (81) 
80

>  <original_smiles>  (81) 
[H]c1c([H])c([H])c2c(c1[H])C([H])([H])C([H])([H])C([H])([H])C2([H])N([H])C(=O)C1([H])N(C(=O)C([H])(N([H])C(=O)C([H])(N([H])C([H])([H])[H])C([H])([H])[H])C(C([H])([H])[H])(C([H])([H])[H])C([H])([H])[H])C([H])([H])c2c([H])c(OC([H])([H])C([H])(C([H])([H])[H])C3([H])C([H])([H])C([H])(N([H])C(=O)N4C([H])([H])C([H])([H])C([H])([H])C([H])(n5nc(-c6c([H])c([H])c(Oc7c([H])c([H])c(F)c([H])c7F)c([H])c6[H])c(C(=O)N([H])[H])c5N([H])[H])C4([H])[H])C([H])(C([H])([H])[H])C3([H])[H])c([H])c([H])c2C1([H])[H]

>  <smiles>  (81) 
[H]c1c([H])c([H])c2c(c1[H])C([H])([H])C([H])([H])C([H])([H])C2([H])N([H])C(=O)C1([H])N(C(=O)C([H])(N([H])C(=O)C([H])(N([H])C([H])([H])[H])C([H])([H])[H])C(C([H])([H])[H])(C([H])([H])[H])C([H])([H])[H])C([H])([H])c2c([H])c(OC([H])([H])C([H])(C([H])([H])[H])C3([H])C([H])([H])C([H])(N([H])C(=O)N4C([H])([H])C([H])([H])C([H])([H])C([H])(n5nc(-c6c([H])c([H])c(Oc7c([H])c([H])c(F)c([H])c7F)c([H])c6[H])c(C(=O)N([H])[H])c5N([H])[H])C4([H])[H])C([H])(C([H])([H])[H])C3([H])[H])c([H])c([H])c2C1([H])[H]

$$$$
81:0:0
     RDKit          3D

 86 94  0  0  1  0  0  0  0  0999 V2000
  -28.9860  -22.1130   19.6650 C   0  0  0  0  0  0  0  0  0  0  0  0
  -29.2430  -20.7060   19.6470 C   0  0  0  0  0  3  0  0  0  0  0  0
  -29.0340  -22.8930   18.3480 C   0  0  0  0  0  2  0  0  0  0  0  0
  -28.5830  -23.2940   20.6800 C   0  0  0  0  0  2  0  0  0  0  0  0
  -29.0300  -24.4260   18.6270 C   0  0  0  0  0  2  0  0  0  0  0  0
  -28.1620  -24.6780   19.8670 C   0  0  0  0  0  3  0  0  0  0  0  0
  -28.2520  -26.1800   20.2810 O   0  0  0  0  0  0  0  0  0  0  0  0
  -24.6430  -31.8840   23.2100 C   0  0  0  0  0  0  0  0  0  0  0  0
  -27.1880  -27.1530   20.1720 C   0  0  0  0  0  0  0  0  0  0  0  0
  -23.4270  -30.4810   21.5880 C   0  0  0  0  0  3  0  0  0  0  0  0
  -24.8620  -28.9060   20.1510 C   0  0  0  0  0  0  0  0  0  0  0  0
  -25.9790  -30.7420   21.4000 C   0  0  0  0  0  2  0  0  0  0  0  0
  -26.0430  -29.3460   20.7580 C   0  0  0  0  0  0  0  0  0  0  0  0
  -27.2010  -28.4810   20.7620 C   0  0  0  0  0  3  0  0  0  0  0  0
  -25.9840  -26.8280   19.5050 C   0  0  0  0  0  3  0  0  0  0  0  0
  -24.8450  -27.6610   19.5100 C   0  0  0  0  0  3  0  0  0  0  0  0
  -23.6360  -29.8020   20.2090 C   0  0  0  0  0  2  0  0  0  0  0  0
  -24.7040  -31.0580   22.1210 N   0  0  0  0  0  0  0  0  0  0  0  0
  -23.5620  -32.1720   23.7450 O   0  0  0  0  0  0  0  0  0  0  0  0
  -22.7570  -29.4780   22.5570 C   0  0  0  0  0  0  0  0  0  0  0  0
  -21.4260  -29.3110   22.4450 N   0  0  0  0  0  0  0  0  0  0  0  0
  -23.4330  -28.8510   23.3780 O   0  0  0  0  0  0  0  0  0  0  0  0
  -20.9380  -29.8660   21.7560 H   0  0  0  0  0  0  0  0  0  0  0  0
  -18.0480  -28.1170   22.9680 C   0  0  0  0  0  0  0  0  0  0  0  0
  -20.6080  -28.3810   23.2240 C   0  0  0  0  0  3  0  0  0  0  0  0
  -20.7070  -26.9440   22.6600 C   0  0  0  0  0  2  0  0  0  0  0  0
  -19.6020  -26.6140   21.6550 C   0  0  0  0  0  2  0  0  0  0  0  0
  -18.2220  -26.7630   22.3010 C   0  0  0  0  0  2  0  0  0  0  0  0
  -19.1670  -28.8840   23.3860 C   0  0  0  0  0  0  0  0  0  0  0  0
  -18.9480  -30.1510   23.9720 C   0  0  0  0  0  3  0  0  0  0  0  0
  -17.6440  -30.6500   24.1430 C   0  0  0  0  0  3  0  0  0  0  0  0
  -16.5390  -29.8810   23.7410 C   0  0  0  0  0  3  0  0  0  0  0  0
  -16.7420  -28.6180   23.1590 C   0  0  0  0  0  3  0  0  0  0  0  0
  -25.9280  -32.5200   23.8230 C   0  0  0  0  0  3  0  0  0  0  0  0
  -26.4560  -31.7420   25.0920 C   0  0  1  0  0  0  0  0  0  0  0  0
  -25.3700  -31.5020   26.1680 C   0  0  0  0  0  1  0  0  0  0  0  0
  -27.0340  -30.3660   24.6930 C   0  0  0  0  0  1  0  0  0  0  0  0
  -27.6170  -32.5290   25.7430 C   0  0  0  0  0  1  0  0  0  0  0  0
  -25.6170  -33.9160   24.1680 N   0  0  0  0  0  0  0  0  0  0  0  0
  -25.9330  -34.9770   23.4140 C   0  0  0  0  0  0  0  0  0  0  0  0
  -26.5830  -34.8810   22.3700 O   0  0  0  0  0  0  0  0  0  0  0  0
  -25.0400  -34.0640   24.9840 H   0  0  0  0  0  0  0  0  0  0  0  0
  -24.1890  -36.7650   23.1120 C   0  0  0  0  0  1  0  0  0  0  0  0
  -25.4500  -36.3620   23.8910 C   0  0  0  0  0  3  0  0  0  0  0  0
  -27.6040  -37.2480   24.6740 C   0  0  0  0  0  1  0  0  0  0  0  0
  -26.4770  -37.4190   23.7580 N   0  0  0  0  0  0  0  0  0  0  0  0
  -26.0730  -38.3380   23.9230 H   0  0  0  0  0  0  0  0  0  0  0  0
  -29.2740  -19.3650   20.5820 C   0  0  0  0  0  3  0  0  0  0  0  0
  -29.9970  -17.9130   20.0860 C   0  0  0  0  0  3  0  0  0  0  0  0
  -29.7370  -16.3720   20.7330 C   0  0  0  0  0  2  0  0  0  0  0  0
  -30.5170  -14.9580   20.3340 C   0  0  0  0  0  0  0  0  0  0  0  0
  -30.3900  -12.6090   19.3740 C   0  0  0  0  0  2  0  0  0  0  0  0
  -29.4580  -12.6210   18.1390 C   0  0  0  0  0  2  0  0  0  0  0  0
  -27.9900  -12.4210   18.5570 C   0  0  0  0  0  2  0  0  0  0  0  0
  -27.5940  -13.3170   19.7590 C   0  0  0  0  0  3  0  0  0  0  0  0
  -28.6520  -13.2950   20.8850 C   0  0  0  0  0  2  0  0  0  0  0  0
  -29.9360  -13.6900   20.2950 N   0  0  0  0  0  0  0  0  0  0  0  0
  -31.6980  -15.0320   19.9720 O   0  0  0  0  0  0  0  0  0  0  0  0
  -25.2070  -13.8990   20.4810 C   0  0  0  0  0  0  0  0  0  0  0  0
  -24.1400  -13.1260   20.8490 C   0  0  0  0  0  0  0  0  0  0  0  0
  -24.6060  -11.7740   20.8330 C   0  0  0  0  0  0  0  0  0  0  0  0
  -26.2530  -13.0190   20.2530 N   0  0  0  0  0  0  0  0  0  0  0  0
  -25.8990  -11.7360   20.5290 N   0  0  0  0  0  0  0  0  0  0  0  0
  -23.8760  -10.5160   21.0330 C   0  0  0  0  0  0  0  0  0  0  0  0
  -24.3090   -9.5480   21.9670 C   0  0  0  0  0  3  0  0  0  0  0  0
  -23.5780   -8.3550   22.1530 C   0  0  0  0  0  3  0  0  0  0  0  0
  -22.4000   -8.1200   21.4060 C   0  0  0  0  0  0  0  0  0  0  0  0
  -21.9860   -9.0780   20.4620 C   0  0  0  0  0  3  0  0  0  0  0  0
  -22.7160  -10.2620   20.2750 C   0  0  0  0  0  3  0  0  0  0  0  0
  -21.6420   -6.9780   21.5010 O   0  0  0  0  0  0  0  0  0  0  0  0
  -21.6110   -6.2290   22.6500 C   0  0  0  0  0  0  0  0  0  0  0  0
  -21.2270   -6.7810   23.8910 C   0  0  0  0  0  3  0  0  0  0  0  0
  -21.1420   -5.9590   25.0320 C   0  0  0  0  0  3  0  0  0  0  0  0
  -21.4300   -4.5840   24.9330 C   0  0  0  0  0  0  0  0  0  0  0  0
  -21.8070   -4.0300   23.6960 C   0  0  0  0  0  3  0  0  0  0  0  0
  -21.8950   -4.8500   22.5570 C   0  0  0  0  0  0  0  0  0  0  0  0
  -22.2380   -4.3070   21.3640 F   0  0  0  0  0  0  0  0  0  0  0  0
  -21.3440   -3.7910   26.0280 F   0  0  0  0  0  0  0  0  0  0  0  0
  -22.7410  -13.6070   21.1000 C   0  0  0  0  0  0  0  0  0  0  0  0
  -22.0040  -12.9210   21.9650 N   0  0  0  0  0  0  0  0  0  0  0  0
  -22.3080  -14.6280   20.5660 O   0  0  0  0  0  0  0  0  0  0  0  0
  -22.3660  -12.0980   22.4220 H   0  0  0  0  0  0  0  0  0  0  0  0
  -21.0620  -13.2240   22.1760 H   0  0  0  0  0  0  0  0  0  0  0  0
  -25.3770  -15.2670   20.2920 N   0  0  0  0  0  0  0  0  0  0  0  0
  -24.6170  -15.9340   20.3770 H   0  0  0  0  0  0  0  0  0  0  0  0
  -26.2410  -15.6920   19.9780 H   0  0  0  0  0  0  0  0  0  0  0  0
  1  4  1  0
  2  1  2  0
  2 48  1  0
  3  5  1  0
  3  1  1  0
  5  6  1  0
  6  7  1  0
  6  4  1  0
  8 19  2  0
  9  7  1  0
  9 14  1  0
 10 18  1  0
 10 20  1  0
 11 17  1  0
 11 13  1  0
 12 18  1  0
 13 14  2  0
 13 12  1  0
 15 16  1  0
 15  9  2  0
 16 11  2  0
 17 10  1  0
 18  8  1  0
 20 22  2  0
 21 20  1  0
 23 21  1  0
 24 33  2  0
 24 29  1  0
 25 21  1  0
 25 29  1  0
 26 25  1  0
 27 28  1  0
 27 26  1  0
 28 24  1  0
 29 30  2  0
 30 31  1  0
 32 31  2  0
 33 32  1  0
 34  8  1  0
 34 39  1  0
 34 35  1  0
 35 38  1  1
 35 36  1  0
 37 35  1  0
 39 42  1  0
 40 44  1  0
 40 39  1  0
 41 40  2  0
 44 43  1  0
 46 44  1  0
 46 47  1  0
 46 45  1  0
 49 48  2  0
 49 50  1  0
 51 50  1  0
 52 57  1  0
 53 54  1  0
 53 52  1  0
 55 54  1  0
 55 62  1  0
 55 56  1  0
 57 51  1  0
 57 56  1  0
 58 51  2  0
 59 60  2  0
 60 79  1  0
 61 60  1  0
 61 64  1  0
 62 59  1  0
 62 63  1  0
 63 61  2  0
 64 65  1  0
 65 66  2  0
 67 70  1  0
 67 66  1  0
 68 67  2  0
 69 68  1  0
 69 64  2  0
 70 71  1  0
 71 72  1  0
 72 73  2  0
 74 73  1  0
 74 78  1  0
 75 74  2  0
 76 71  2  0
 76 75  1  0
 77 76  1  0
 79 80  1  0
 80 83  1  0
 80 82  1  0
 81 79  2  0
 84 85  1  0
 84 59  1  0
 86 84  1  0
M  ISO  4   6 101   7 101  50 100  51 100
M  END
>  <TORSDO>  (82) 
F 19

>  <SCORE>  (82) 
-14.751

>  <name>  (82) 
81

>  <ligand_id>  (82) 
81

>  <original_smiles>  (82) 
[H]C(=C1C([H])([H])C([H])([H])C([H])(Oc2c([H])c([H])c3c(c2[H])C([H])([H])N(C(=O)C([H])(N([H])C(=O)C([H])(N([H])C([H])([H])[H])C([H])([H])[H])C(C([H])([H])[H])(C([H])([H])[H])C([H])([H])[H])C([H])(C(=O)N([H])C2([H])c4c([H])c([H])c([H])c([H])c4C([H])([H])C([H])([H])C2([H])[H])C3([H])[H])C1([H])[H])C([H])([H])C([H])([H])C([H])([H])C(=O)N1C([H])([H])C([H])([H])C([H])([H])C([H])(n2nc(-c3c([H])c([H])c(Oc4c([H])c([H])c(F)c([H])c4F)c([H])c3[H])c(C(=O)N([H])[H])c2N([H])[H])C1([H])[H]

>  <smiles>  (82) 
[H]C(=C1C([H])([H])C([H])([H])C([H])(Oc2c([H])c([H])c3c(c2[H])C([H])([H])N(C(=O)C([H])(N([H])C(=O)C([H])(N([H])C([H])([H])[H])C([H])([H])[H])C(C([H])([H])[H])(C([H])([H])[H])C([H])([H])[H])C([H])(C(=O)N([H])C2([H])c4c([H])c([H])c([H])c([H])c4C([H])([H])C([H])([H])C2([H])[H])C3([H])[H])C1([H])[H])C([H])([H])C([H])([H])C([H])([H])C(=O)N1C([H])([H])C([H])([H])C([H])([H])C([H])(n2nc(-c3c([H])c([H])c(Oc4c([H])c([H])c(F)c([H])c4F)c([H])c3[H])c(C(=O)N([H])[H])c2N([H])[H])C1([H])[H]

$$$$
82:0:0
     RDKit          3D

 90 98  0  0  1  0  0  0  0  0999 V2000
  -30.5250  -20.5140   20.5600 C   0  0  0  0  0  3  0  0  0  0  0  0
  -28.1770  -20.6280   20.0340 C   0  0  0  0  0  3  0  0  0  0  0  0
  -30.5570  -21.9380   20.6300 C   0  0  0  0  0  3  0  0  0  0  0  0
  -28.2110  -22.0460   20.0900 C   0  0  0  0  0  3  0  0  0  0  0  0
  -29.3270  -19.8180   20.2510 C   0  0  0  0  0  0  0  0  0  0  0  0
  -29.4070  -22.7380   20.3840 C   0  0  0  0  0  0  0  0  0  0  0  0
  -29.1930  -18.2950   20.1410 C   0  0  0  0  0  0  0  0  0  0  0  0
  -28.0730  -17.7860   20.0260 O   0  0  0  0  0  0  0  0  0  0  0  0
  -30.4230  -17.3230   20.1210 C   0  0  0  0  0  2  0  0  0  0  0  0
  -30.4770  -15.8800   22.2870 C   0  0  0  0  0  1  0  0  0  0  0  0
  -30.1950  -15.8810   20.7680 C   0  0  0  0  0  3  0  0  0  0  0  0
  -30.8780  -14.6500   20.0630 C   0  0  0  0  0  0  0  0  0  0  0  0
  -30.5320  -12.4910   18.8720 C   0  0  0  0  0  2  0  0  0  0  0  0
  -29.5350  -12.7030   17.7130 C   0  0  0  0  0  2  0  0  0  0  0  0
  -28.0780  -12.5780   18.2020 C   0  0  0  0  0  2  0  0  0  0  0  0
  -27.8080  -13.4100   19.4820 C   0  0  0  0  0  3  0  0  0  0  0  0
  -28.9040  -13.1500   20.5390 C   0  0  0  0  0  2  0  0  0  0  0  0
  -30.2050  -13.4660   19.9290 N   0  0  0  0  0  0  0  0  0  0  0  0
  -31.9890  -14.8110   19.5480 O   0  0  0  0  0  0  0  0  0  0  0  0
  -25.4620  -14.0810   20.2980 C   0  0  0  0  0  0  0  0  0  0  0  0
  -24.3860  -13.3370   20.7000 C   0  0  0  0  0  0  0  0  0  0  0  0
  -24.8030  -11.9710   20.6340 C   0  0  0  0  0  0  0  0  0  0  0  0
  -26.4690  -13.1700   20.0140 N   0  0  0  0  0  0  0  0  0  0  0  0
  -26.0770  -11.8960   20.2730 N   0  0  0  0  0  0  0  0  0  0  0  0
  -24.0450  -10.7300   20.8360 C   0  0  0  0  0  0  0  0  0  0  0  0
  -24.4400   -9.7710   21.7950 C   0  0  0  0  0  3  0  0  0  0  0  0
  -23.6830   -8.5920   21.9820 C   0  0  0  0  0  3  0  0  0  0  0  0
  -22.5210   -8.3650   21.2090 C   0  0  0  0  0  0  0  0  0  0  0  0
  -22.1450   -9.3120   20.2410 C   0  0  0  0  0  3  0  0  0  0  0  0
  -22.9010  -10.4820   20.0520 C   0  0  0  0  0  3  0  0  0  0  0  0
  -21.7390   -7.2390   21.3060 O   0  0  0  0  0  0  0  0  0  0  0  0
  -21.5980   -6.5590   22.4890 C   0  0  0  0  0  0  0  0  0  0  0  0
  -21.1030   -7.1850   23.6540 C   0  0  0  0  0  3  0  0  0  0  0  0
  -20.9110   -6.4320   24.8280 C   0  0  0  0  0  3  0  0  0  0  0  0
  -21.2020   -5.0550   24.8400 C   0  0  0  0  0  0  0  0  0  0  0  0
  -21.6910   -4.4300   23.6810 C   0  0  0  0  0  3  0  0  0  0  0  0
  -21.8860   -5.1790   22.5060 C   0  0  0  0  0  0  0  0  0  0  0  0
  -22.3370   -4.5670   21.3860 F   0  0  0  0  0  0  0  0  0  0  0  0
  -21.0100   -4.3300   25.9660 F   0  0  0  0  0  0  0  0  0  0  0  0
  -23.0150  -13.8520   21.0340 C   0  0  0  0  0  0  0  0  0  0  0  0
  -22.3060  -13.1730   21.9290 N   0  0  0  0  0  0  0  0  0  0  0  0
  -22.5840  -14.8900   20.5350 O   0  0  0  0  0  0  0  0  0  0  0  0
  -22.6680  -12.3320   22.3550 H   0  0  0  0  0  0  0  0  0  0  0  0
  -21.3880  -13.4980   22.1930 H   0  0  0  0  0  0  0  0  0  0  0  0
  -25.6650  -15.4480   20.1340 N   0  0  0  0  0  0  0  0  0  0  0  0
  -24.9250  -16.1290   20.2720 H   0  0  0  0  0  0  0  0  0  0  0  0
  -26.5330  -15.8720   19.8310 H   0  0  0  0  0  0  0  0  0  0  0  0
  -29.5010  -24.2970   20.4340 C   0  0  0  0  0  3  0  0  0  0  0  0
  -28.1960  -25.1470   20.2480 C   0  0  0  0  0  3  0  0  0  0  0  0
  -28.3670  -26.6000   20.2600 O   0  0  0  0  0  0  0  0  0  0  0  0
  -24.5330  -31.8820   23.2350 C   0  0  0  0  0  0  0  0  0  0  0  0
  -27.2130  -27.3820   20.2110 C   0  0  0  0  0  0  0  0  0  0  0  0
  -23.3490  -30.4660   21.5940 C   0  0  0  0  0  3  0  0  0  0  0  0
  -24.8210  -28.9270   20.1880 C   0  0  0  0  0  0  0  0  0  0  0  0
  -25.8800  -30.8280   21.4090 C   0  0  0  0  0  2  0  0  0  0  0  0
  -25.9800  -29.4490   20.7770 C   0  0  0  0  0  0  0  0  0  0  0  0
  -27.1810  -28.6900   20.7730 C   0  0  0  0  0  3  0  0  0  0  0  0
  -26.0260  -26.8950   19.6150 C   0  0  0  0  0  3  0  0  0  0  0  0
  -24.8430  -27.6540   19.5990 C   0  0  0  0  0  3  0  0  0  0  0  0
  -23.5730  -29.7840   20.2210 C   0  0  0  0  0  2  0  0  0  0  0  0
  -24.6060  -31.0730   22.1390 N   0  0  0  0  0  0  0  0  0  0  0  0
  -23.4450  -32.1530   23.7630 O   0  0  0  0  0  0  0  0  0  0  0  0
  -22.6920  -29.4460   22.5550 C   0  0  0  0  0  0  0  0  0  0  0  0
  -21.3690  -29.2620   22.4220 N   0  0  0  0  0  0  0  0  0  0  0  0
  -23.3740  -28.8230   23.3710 O   0  0  0  0  0  0  0  0  0  0  0  0
  -20.8820  -29.8180   21.7330 H   0  0  0  0  0  0  0  0  0  0  0  0
  -17.9840  -28.0920   22.9290 C   0  0  0  0  0  0  0  0  0  0  0  0
  -20.5460  -28.3240   23.1860 C   0  0  0  0  0  3  0  0  0  0  0  0
  -20.6330  -26.8970   22.5950 C   0  0  0  0  0  2  0  0  0  0  0  0
  -19.5200  -26.5950   21.5850 C   0  0  0  0  0  2  0  0  0  0  0  0
  -18.1440  -26.7470   22.2410 C   0  0  0  0  0  2  0  0  0  0  0  0
  -19.1120  -28.8400   23.3580 C   0  0  0  0  0  0  0  0  0  0  0  0
  -18.9100  -30.1000   23.9600 C   0  0  0  0  0  3  0  0  0  0  0  0
  -17.6120  -30.6120   24.1400 C   0  0  0  0  0  3  0  0  0  0  0  0
  -16.4980  -29.8600   23.7300 C   0  0  0  0  0  3  0  0  0  0  0  0
  -16.6850  -28.6020   23.1300 C   0  0  0  0  0  3  0  0  0  0  0  0
  -25.8090  -32.5240   23.8620 C   0  0  0  0  0  3  0  0  0  0  0  0
  -25.4900  -33.9230   24.1750 N   0  0  0  0  0  0  0  0  0  0  0  0
  -25.8420  -34.9720   23.4190 C   0  0  0  0  0  0  0  0  0  0  0  0
  -26.5380  -34.8620   22.4060 O   0  0  0  0  0  0  0  0  0  0  0  0
  -24.8770  -34.0840   24.9600 H   0  0  0  0  0  0  0  0  0  0  0  0
  -24.1340  -36.7700   22.9960 C   0  0  0  0  0  1  0  0  0  0  0  0
  -25.3410  -36.3620   23.8550 C   0  0  0  0  0  3  0  0  0  0  0  0
  -27.4410  -37.2430   24.7720 C   0  0  0  0  0  1  0  0  0  0  0  0
  -26.3800  -37.4130   23.7840 N   0  0  0  0  0  0  0  0  0  0  0  0
  -25.9680  -38.3320   23.9200 H   0  0  0  0  0  0  0  0  0  0  0  0
  -26.3180  -31.7670   25.1500 C   0  0  1  0  0  0  0  0  0  0  0  0
  -25.2130  -31.5140   26.2050 C   0  0  0  0  0  1  0  0  0  0  0  0
  -26.9210  -30.3960   24.7680 C   0  0  0  0  0  1  0  0  0  0  0  0
  -27.4590  -32.5730   25.8190 C   0  0  0  0  0  1  0  0  0  0  0  0
  1  3  1  0
  2  4  2  0
  2  5  1  0
  4  6  1  0
  5  1  2  0
  6 48  1  0
  6  3  2  0
  7  5  1  0
  8  7  2  0
  9  7  1  0
  9 11  1  0
 11 10  1  0
 12 11  1  0
 13 18  1  0
 14 15  1  0
 14 13  1  0
 16 15  1  0
 16 23  1  0
 16 17  1  0
 18 12  1  0
 18 17  1  0
 19 12  2  0
 20 21  2  0
 21 40  1  0
 22 21  1  0
 22 25  1  0
 23 24  1  0
 23 20  1  0
 24 22  2  0
 25 26  1  0
 26 27  2  0
 28 31  1  0
 28 27  1  0
 29 28  2  0
 30 29  1  0
 30 25  2  0
 31 32  1  0
 32 37  2  0
 32 33  1  0
 33 34  2  0
 34 35  1  0
 35 39  1  0
 36 35  2  0
 37 36  1  0
 38 37  1  0
 40 41  1  0
 41 44  1  0
 41 43  1  0
 42 40  2  0
 45 46  1  0
 45 20  1  0
 47 45  1  0
 49 50  1  0
 49 48  2  0
 51 62  2  0
 52 50  1  0
 52 57  1  0
 53 61  1  0
 53 63  1  0
 54 60  1  0
 54 56  1  0
 55 61  1  0
 56 55  1  0
 57 56  2  0
 58 52  2  0
 59 58  1  0
 59 54  2  0
 60 53  1  0
 61 51  1  0
 63 65  2  0
 64 63  1  0
 66 64  1  0
 67 76  2  0
 67 72  1  0
 68 64  1  0
 68 72  1  0
 69 68  1  0
 70 71  1  0
 70 69  1  0
 71 67  1  0
 72 73  2  0
 73 74  1  0
 75 74  2  0
 76 75  1  0
 77 51  1  0
 77 78  1  0
 77 87  1  0
 78 81  1  0
 79 83  1  0
 79 78  1  0
 80 79  2  0
 83 82  1  0
 85 83  1  0
 85 86  1  0
 85 84  1  0
 87 90  1  1
 87 88  1  0
 89 87  1  0
M  ISO  4  11 100  12 100  49 101  50 101
M  END
>  <TORSDO>  (83) 
F 21

>  <SCORE>  (83) 
-13.003

>  <name>  (83) 
82

>  <ligand_id>  (83) 
82

>  <original_smiles>  (83) 
[H]c1c([H])c([H])c2c(c1[H])C([H])([H])C([H])([H])C([H])([H])C2([H])N([H])C(=O)C1([H])N(C(=O)C([H])(N([H])C(=O)C([H])(N([H])C([H])([H])[H])C([H])([H])[H])C(C([H])([H])[H])(C([H])([H])[H])C([H])([H])[H])C([H])([H])c2c([H])c(OC([H])([H])C([H])([H])c3c([H])c([H])c(C(=O)C([H])([H])C([H])(C(=O)N4C([H])([H])C([H])([H])C([H])([H])C([H])(n5nc(-c6c([H])c([H])c(Oc7c([H])c([H])c(F)c([H])c7F)c([H])c6[H])c(C(=O)N([H])[H])c5N([H])[H])C4([H])[H])C([H])([H])[H])c([H])c3[H])c([H])c([H])c2C1([H])[H]

>  <smiles>  (83) 
[H]c1c([H])c([H])c2c(c1[H])C([H])([H])C([H])([H])C([H])([H])C2([H])N([H])C(=O)C1([H])N(C(=O)C([H])(N([H])C(=O)C([H])(N([H])C([H])([H])[H])C([H])([H])[H])C(C([H])([H])[H])(C([H])([H])[H])C([H])([H])[H])C([H])([H])c2c([H])c(OC([H])([H])C([H])([H])c3c([H])c([H])c(C(=O)C([H])([H])C([H])(C(=O)N4C([H])([H])C([H])([H])C([H])([H])C([H])(n5nc(-c6c([H])c([H])c(Oc7c([H])c([H])c(F)c([H])c7F)c([H])c6[H])c(C(=O)N([H])[H])c5N([H])[H])C4([H])[H])C([H])([H])[H])c([H])c3[H])c([H])c([H])c2C1([H])[H]

$$$$
83:0:0
     RDKit          3D

 85 93  0  0  1  0  0  0  0  0999 V2000
  -28.6690  -21.3100   21.4060 C   0  0  0  0  0  2  0  0  0  0  0  0
  -28.9050  -22.2980   20.2690 C   0  0  0  0  0  3  0  0  0  0  0  0
  -28.7890  -20.3950   20.1990 C   0  0  0  0  0  3  0  0  0  0  0  0
  -30.9140  -19.0230   21.2700 C   0  0  0  0  0  1  0  0  0  0  0  0
  -29.7960  -18.7850   20.2460 C   0  0  0  0  0  0  0  0  0  0  0  0
  -30.3110  -15.6840   20.1550 C   0  0  0  0  0  0  0  0  0  0  0  0
  -30.3750  -13.1650   19.3040 C   0  0  0  0  0  2  0  0  0  0  0  0
  -29.4490  -12.8000   18.1100 C   0  0  0  0  0  2  0  0  0  0  0  0
  -28.0360  -12.4480   18.5970 C   0  0  0  0  0  2  0  0  0  0  0  0
  -27.5570  -13.4300   19.6910 C   0  0  0  0  0  3  0  0  0  0  0  0
  -28.6180  -13.7170   20.7790 C   0  0  0  0  0  2  0  0  0  0  0  0
  -29.7780  -14.3290   20.0950 N   0  0  0  0  0  0  0  0  0  0  0  0
  -31.5370  -15.6310   19.9450 O   0  0  0  0  0  0  0  0  0  0  0  0
  -29.5600  -17.0350   20.2570 N   0  0  0  0  0  4  0  0  0  0  0  0
  -28.5760  -16.8320   20.3610 H   0  0  0  0  0  0  0  0  0  0  0  0
  -25.2140  -13.9330   20.5340 C   0  0  0  0  0  0  0  0  0  0  0  0
  -24.1720  -13.1380   20.9180 C   0  0  0  0  0  0  0  0  0  0  0  0
  -24.6530  -11.7930   20.8500 C   0  0  0  0  0  0  0  0  0  0  0  0
  -26.2580  -13.0760   20.2440 N   0  0  0  0  0  0  0  0  0  0  0  0
  -25.9370  -11.7800   20.5020 N   0  0  0  0  0  0  0  0  0  0  0  0
  -23.9420  -10.5210   21.0380 C   0  0  0  0  0  0  0  0  0  0  0  0
  -24.3900   -9.5510   21.9600 C   0  0  0  0  0  3  0  0  0  0  0  0
  -23.6740   -8.3480   22.1380 C   0  0  0  0  0  3  0  0  0  0  0  0
  -22.4950   -8.1050   21.3940 C   0  0  0  0  0  0  0  0  0  0  0  0
  -22.0650   -9.0650   20.4610 C   0  0  0  0  0  3  0  0  0  0  0  0
  -22.7820  -10.2590   20.2810 C   0  0  0  0  0  3  0  0  0  0  0  0
  -21.7490   -6.9540   21.4830 O   0  0  0  0  0  0  0  0  0  0  0  0
  -21.6970   -6.2170   22.6390 C   0  0  0  0  0  0  0  0  0  0  0  0
  -21.2340   -6.7680   23.8530 C   0  0  0  0  0  3  0  0  0  0  0  0
  -21.1300   -5.9570   25.0000 C   0  0  0  0  0  3  0  0  0  0  0  0
  -21.4790   -4.5950   24.9340 C   0  0  0  0  0  0  0  0  0  0  0  0
  -21.9360   -4.0430   23.7240 C   0  0  0  0  0  3  0  0  0  0  0  0
  -22.0410   -4.8520   22.5790 C   0  0  0  0  0  0  0  0  0  0  0  0
  -22.4600   -4.3090   21.4110 F   0  0  0  0  0  0  0  0  0  0  0  0
  -21.3740   -3.8130   26.0350 F   0  0  0  0  0  0  0  0  0  0  0  0
  -22.7780  -13.5980   21.2280 C   0  0  0  0  0  0  0  0  0  0  0  0
  -22.0800  -12.8860   22.1040 N   0  0  0  0  0  0  0  0  0  0  0  0
  -22.3190  -14.6240   20.7280 O   0  0  0  0  0  0  0  0  0  0  0  0
  -22.4660  -12.0570   22.5310 H   0  0  0  0  0  0  0  0  0  0  0  0
  -21.1440  -13.1750   22.3550 H   0  0  0  0  0  0  0  0  0  0  0  0
  -25.3550  -15.3090   20.3730 N   0  0  0  0  0  0  0  0  0  0  0  0
  -24.5790  -15.9480   20.5090 H   0  0  0  0  0  0  0  0  0  0  0  0
  -26.1770  -15.7590   19.9960 H   0  0  0  0  0  0  0  0  0  0  0  0
  -27.9450  -23.9370   20.2360 C   0  0  0  0  0  2  0  0  0  0  0  0
  -28.1480  -25.6670   20.3470 O   0  0  0  0  0  0  0  0  0  0  0  0
  -24.6570  -31.9230   23.2620 C   0  0  0  0  0  0  0  0  0  0  0  0
  -27.1690  -26.8590   20.2890 C   0  0  0  0  0  0  0  0  0  0  0  0
  -23.4630  -30.5250   21.6310 C   0  0  0  0  0  3  0  0  0  0  0  0
  -24.9030  -28.8720   20.2230 C   0  0  0  0  0  0  0  0  0  0  0  0
  -26.0400  -30.6680   21.5040 C   0  0  0  0  0  2  0  0  0  0  0  0
  -26.0990  -29.2370   20.8520 C   0  0  0  0  0  0  0  0  0  0  0  0
  -27.2190  -28.2580   20.8520 C   0  0  0  0  0  3  0  0  0  0  0  0
  -25.9380  -26.6920   19.6060 C   0  0  0  0  0  3  0  0  0  0  0  0
  -24.8580  -27.6250   19.5760 C   0  0  0  0  0  3  0  0  0  0  0  0
  -23.6970  -29.8240   20.2620 C   0  0  0  0  0  2  0  0  0  0  0  0
  -24.7430  -31.0710   22.1850 N   0  0  0  0  0  0  0  0  0  0  0  0
  -23.5670  -32.2270   23.7740 O   0  0  0  0  0  0  0  0  0  0  0  0
  -22.7450  -29.5510   22.6040 C   0  0  0  0  0  0  0  0  0  0  0  0
  -21.4140  -29.3910   22.4700 N   0  0  0  0  0  0  0  0  0  0  0  0
  -23.3970  -28.9380   23.4530 O   0  0  0  0  0  0  0  0  0  0  0  0
  -20.9380  -29.9360   21.7640 H   0  0  0  0  0  0  0  0  0  0  0  0
  -18.0290  -28.1660   22.9580 C   0  0  0  0  0  0  0  0  0  0  0  0
  -20.5840  -28.4610   23.2450 C   0  0  0  0  0  3  0  0  0  0  0  0
  -20.7020  -27.0200   22.6930 C   0  0  0  0  0  2  0  0  0  0  0  0
  -19.6160  -26.6740   21.6710 C   0  0  0  0  0  2  0  0  0  0  0  0
  -18.2250  -26.8130   22.2960 C   0  0  0  0  0  2  0  0  0  0  0  0
  -19.1350  -28.9470   23.3870 C   0  0  0  0  0  0  0  0  0  0  0  0
  -18.8940  -30.2100   23.9710 C   0  0  0  0  0  3  0  0  0  0  0  0
  -17.5810  -30.6940   24.1240 C   0  0  0  0  0  3  0  0  0  0  0  0
  -16.4900  -29.9120   23.7060 C   0  0  0  0  0  3  0  0  0  0  0  0
  -16.7150  -28.6500   23.1290 C   0  0  0  0  0  3  0  0  0  0  0  0
  -25.9250  -32.5680   23.9010 C   0  0  0  0  0  3  0  0  0  0  0  0
  -25.6110  -33.9730   24.2260 N   0  0  0  0  0  0  0  0  0  0  0  0
  -25.9290  -35.0310   23.4660 C   0  0  0  0  0  0  0  0  0  0  0  0
  -26.5760  -34.9260   22.4210 O   0  0  0  0  0  0  0  0  0  0  0  0
  -25.0330  -34.1270   25.0380 H   0  0  0  0  0  0  0  0  0  0  0  0
  -24.1860  -36.8270   23.1790 C   0  0  0  0  0  1  0  0  0  0  0  0
  -25.4620  -36.4240   23.9370 C   0  0  0  0  0  3  0  0  0  0  0  0
  -27.6230  -37.3270   24.6770 C   0  0  0  0  0  1  0  0  0  0  0  0
  -26.4860  -37.4790   23.7730 N   0  0  0  0  0  0  0  0  0  0  0  0
  -26.0830  -38.3990   23.9230 H   0  0  0  0  0  0  0  0  0  0  0  0
  -26.4140  -31.8150   25.2010 C   0  0  1  0  0  0  0  0  0  0  0  0
  -25.3040  -31.6050   26.2570 C   0  0  0  0  0  1  0  0  0  0  0  0
  -26.9920  -30.4240   24.8520 C   0  0  0  0  0  1  0  0  0  0  0  0
  -27.5630  -32.6100   25.8650 C   0  0  0  0  0  1  0  0  0  0  0  0
  2 44  1  0
  2  1  1  0
  3  5  1  0
  3  2  1  0
  3  1  1  0
  5 14  2  0
  5  4  1  0
  6 14  1  0
  7 12  1  0
  8  9  1  0
  8  7  1  0
 10  9  1  0
 10 19  1  0
 10 11  1  0
 12  6  1  0
 12 11  1  0
 13  6  2  0
 14 15  1  0
 16 17  2  0
 17 36  1  0
 18 17  1  0
 18 21  1  0
 19 20  1  0
 19 16  1  0
 20 18  2  0
 21 22  1  0
 22 23  2  0
 24 27  1  0
 24 23  1  0
 25 24  2  0
 26 25  1  0
 26 21  2  0
 27 28  1  0
 28 29  1  0
 29 30  2  0
 31 30  1  0
 31 35  1  0
 32 31  2  0
 33 28  2  0
 33 32  1  0
 34 33  1  0
 36 37  1  0
 37 40  1  0
 37 39  1  0
 38 36  2  0
 41 42  1  0
 41 16  1  0
 43 41  1  0
 44 45  1  0
 46 57  2  0
 47 45  1  0
 47 52  1  0
 48 56  1  0
 48 58  1  0
 49 55  1  0
 49 51  1  0
 50 56  1  0
 51 50  1  0
 52 51  2  0
 53 47  2  0
 54 53  1  0
 54 49  2  0
 55 48  1  0
 56 46  1  0
 58 60  2  0
 59 58  1  0
 61 59  1  0
 62 71  2  0
 62 67  1  0
 63 59  1  0
 63 67  1  0
 64 63  1  0
 65 66  1  0
 65 64  1  0
 66 62  1  0
 67 68  2  0
 68 69  1  0
 70 69  2  0
 71 70  1  0
 72 46  1  0
 72 73  1  0
 72 82  1  0
 73 76  1  0
 74 78  1  0
 74 73  1  0
 75 74  2  0
 78 77  1  0
 80 81  1  0
 80 78  1  0
 80 79  1  0
 82 85  1  1
 82 83  1  0
 84 82  1  0
M  ISO  4   6 100  14 100  44 101  45 101
M  END
>  <TORSDO>  (84) 
F 18

>  <SCORE>  (84) 
-16.615

>  <name>  (84) 
83

>  <ligand_id>  (84) 
83

>  <original_smiles>  (84) 
[H]c1c([H])c([H])c2c(c1[H])C([H])([H])C([H])([H])C([H])([H])C2([H])N([H])C(=O)C1([H])N(C(=O)C([H])(N([H])C(=O)C([H])(N([H])C([H])([H])[H])C([H])([H])[H])C(C([H])([H])[H])(C([H])([H])[H])C([H])([H])[H])C([H])([H])c2c([H])c(OC([H])([H])C3([H])C([H])([H])C3([H])C([H])(N([H])C(=O)N3C([H])([H])C([H])([H])C([H])([H])C([H])(n4nc(-c5c([H])c([H])c(Oc6c([H])c([H])c(F)c([H])c6F)c([H])c5[H])c(C(=O)N([H])[H])c4N([H])[H])C3([H])[H])C([H])([H])[H])c([H])c([H])c2C1([H])[H]

>  <smiles>  (84) 
[H]c1c([H])c([H])c2c(c1[H])C([H])([H])C([H])([H])C([H])([H])C2([H])N([H])C(=O)C1([H])N(C(=O)C([H])(N([H])C(=O)C([H])(N([H])C([H])([H])[H])C([H])([H])[H])C(C([H])([H])[H])(C([H])([H])[H])C([H])([H])[H])C([H])([H])c2c([H])c(OC([H])([H])C3([H])C([H])([H])C3([H])C([H])(N([H])C(=O)N3C([H])([H])C([H])([H])C([H])([H])C([H])(n4nc(-c5c([H])c([H])c(Oc6c([H])c([H])c(F)c([H])c6F)c([H])c5[H])c(C(=O)N([H])[H])c4N([H])[H])C3([H])[H])C([H])([H])[H])c([H])c([H])c2C1([H])[H]

$$$$
84:0:0
     RDKit          3D

 89 97  0  0  1  0  0  0  0  0999 V2000
  -28.7450  -18.4620   18.8080 C   0  0  0  0  0  0  0  0  0  0  0  0
  -29.3780  -20.0010   20.8060 C   0  0  0  0  0  2  0  0  0  0  0  0
  -27.9590  -20.9200   19.0360 C   0  0  0  0  0  2  0  0  0  0  0  0
  -29.6660  -18.4450   20.0490 C   0  0  0  0  0  3  0  0  0  0  0  0
  -28.0910  -19.5810   18.4130 N   0  0  0  0  0  0  0  0  0  0  0  0
  -28.9860  -21.3640   20.0010 N   0  0  1  0  0  4  0  0  0  0  0  0
  -28.6270  -17.4280   18.1490 O   0  0  0  0  0  0  0  0  0  0  0  0
  -27.5480  -19.4730   17.5680 H   0  0  0  0  0  0  0  0  0  0  0  0
  -29.7970  -21.5210   19.4200 H   0  0  0  0  0  0  0  0  0  0  0  0
  -29.6990  -16.7940   20.7340 C   0  0  0  0  0  2  0  0  0  0  0  0
  -30.5040  -15.3060   20.3310 C   0  0  0  0  0  0  0  0  0  0  0  0
  -30.5200  -12.8740   19.4350 C   0  0  0  0  0  2  0  0  0  0  0  0
  -29.6130  -12.7190   18.1880 C   0  0  0  0  0  2  0  0  0  0  0  0
  -28.1530  -12.4500   18.6000 C   0  0  0  0  0  2  0  0  0  0  0  0
  -27.6940  -13.3910   19.7420 C   0  0  0  0  0  3  0  0  0  0  0  0
  -28.7260  -13.4940   20.8840 C   0  0  0  0  0  2  0  0  0  0  0  0
  -29.9810  -13.9870   20.2960 N   0  0  0  0  0  0  0  0  0  0  0  0
  -31.7000  -15.3470   20.0060 O   0  0  0  0  0  0  0  0  0  0  0  0
  -25.3040  -13.9330   20.4520 C   0  0  0  0  0  0  0  0  0  0  0  0
  -24.2440  -13.1470   20.8130 C   0  0  0  0  0  0  0  0  0  0  0  0
  -24.7250  -11.8020   20.7980 C   0  0  0  0  0  0  0  0  0  0  0  0
  -26.3590  -13.0660   20.2290 N   0  0  0  0  0  0  0  0  0  0  0  0
  -26.0210  -11.7790   20.5050 N   0  0  0  0  0  0  0  0  0  0  0  0
  -24.0090  -10.5330   20.9870 C   0  0  0  0  0  0  0  0  0  0  0  0
  -24.4280   -9.5820   21.9430 C   0  0  0  0  0  3  0  0  0  0  0  0
  -23.7090   -8.3790   22.1210 C   0  0  0  0  0  3  0  0  0  0  0  0
  -22.5570   -8.1200   21.3420 C   0  0  0  0  0  0  0  0  0  0  0  0
  -22.1560   -9.0600   20.3760 C   0  0  0  0  0  3  0  0  0  0  0  0
  -22.8750  -10.2530   20.1970 C   0  0  0  0  0  3  0  0  0  0  0  0
  -21.8110   -6.9680   21.4270 O   0  0  0  0  0  0  0  0  0  0  0  0
  -21.7310   -6.2460   22.5900 C   0  0  0  0  0  0  0  0  0  0  0  0
  -21.2440   -6.8120   23.7880 C   0  0  0  0  0  3  0  0  0  0  0  0
  -21.1140   -6.0150   24.9430 C   0  0  0  0  0  3  0  0  0  0  0  0
  -21.4620   -4.6520   24.9010 C   0  0  0  0  0  0  0  0  0  0  0  0
  -21.9420   -4.0840   23.7070 C   0  0  0  0  0  3  0  0  0  0  0  0
  -22.0740   -4.8780   22.5540 C   0  0  0  0  0  0  0  0  0  0  0  0
  -22.5170   -4.3220   21.4020 F   0  0  0  0  0  0  0  0  0  0  0  0
  -21.3310   -3.8830   26.0070 F   0  0  0  0  0  0  0  0  0  0  0  0
  -22.8370  -13.6100   21.0560 C   0  0  0  0  0  0  0  0  0  0  0  0
  -22.1000  -12.9110   21.9110 N   0  0  0  0  0  0  0  0  0  0  0  0
  -22.3990  -14.6290   20.5230 O   0  0  0  0  0  0  0  0  0  0  0  0
  -22.4660  -12.0880   22.3650 H   0  0  0  0  0  0  0  0  0  0  0  0
  -21.1540  -13.2020   22.1140 H   0  0  0  0  0  0  0  0  0  0  0  0
  -25.4550  -15.3050   20.2670 N   0  0  0  0  0  0  0  0  0  0  0  0
  -24.6810  -15.9530   20.3620 H   0  0  0  0  0  0  0  0  0  0  0  0
  -26.3010  -15.7410   19.9230 H   0  0  0  0  0  0  0  0  0  0  0  0
  -28.7270  -22.8760   20.6430 C   0  0  0  0  0  3  0  0  0  0  0  0
  -28.1390  -24.3840   19.8930 C   0  0  0  0  0  3  0  0  0  0  0  0
  -28.2090  -25.9740   20.2930 O   0  0  0  0  0  0  0  0  0  0  0  0
  -24.6020  -31.8780   23.1960 C   0  0  0  0  0  0  0  0  0  0  0  0
  -27.1830  -27.0400   20.1800 C   0  0  0  0  0  0  0  0  0  0  0  0
  -23.4120  -30.4770   21.5580 C   0  0  0  0  0  3  0  0  0  0  0  0
  -24.8680  -28.8850   20.1300 C   0  0  0  0  0  0  0  0  0  0  0  0
  -25.9760  -30.7060   21.4100 C   0  0  0  0  0  2  0  0  0  0  0  0
  -26.0500  -29.3020   20.7540 C   0  0  0  0  0  0  0  0  0  0  0  0
  -27.1980  -28.3970   20.7610 C   0  0  0  0  0  3  0  0  0  0  0  0
  -25.9750  -26.7710   19.4960 C   0  0  0  0  0  3  0  0  0  0  0  0
  -24.8540  -27.6400   19.4820 C   0  0  0  0  0  3  0  0  0  0  0  0
  -23.6440  -29.7960   20.1800 C   0  0  0  0  0  2  0  0  0  0  0  0
  -24.6850  -31.0480   22.1080 N   0  0  0  0  0  0  0  0  0  0  0  0
  -23.5120  -32.1630   23.7180 O   0  0  0  0  0  0  0  0  0  0  0  0
  -22.7260  -29.4770   22.5230 C   0  0  0  0  0  0  0  0  0  0  0  0
  -21.3950  -29.3100   22.4020 N   0  0  0  0  0  0  0  0  0  0  0  0
  -23.3940  -28.8510   23.3490 O   0  0  0  0  0  0  0  0  0  0  0  0
  -20.9090  -29.8650   21.7110 H   0  0  0  0  0  0  0  0  0  0  0  0
  -18.0130  -28.1090   22.9260 C   0  0  0  0  0  0  0  0  0  0  0  0
  -20.5750  -28.3710   23.1740 C   0  0  0  0  0  3  0  0  0  0  0  0
  -20.6700  -26.9410   22.5920 C   0  0  0  0  0  2  0  0  0  0  0  0
  -19.5610  -26.6250   21.5840 C   0  0  0  0  0  2  0  0  0  0  0  0
  -18.1830  -26.7660   22.2380 C   0  0  0  0  0  2  0  0  0  0  0  0
  -19.1350  -28.8710   23.3520 C   0  0  0  0  0  0  0  0  0  0  0  0
  -18.9190  -30.1260   23.9590 C   0  0  0  0  0  3  0  0  0  0  0  0
  -17.6150  -30.6230   24.1420 C   0  0  0  0  0  3  0  0  0  0  0  0
  -16.5070  -29.8610   23.7310 C   0  0  0  0  0  3  0  0  0  0  0  0
  -16.7080  -28.6060   23.1290 C   0  0  0  0  0  3  0  0  0  0  0  0
  -25.8720  -32.5240   23.8300 C   0  0  0  0  0  3  0  0  0  0  0  0
  -26.3670  -31.7720   25.1280 C   0  0  1  0  0  0  0  0  0  0  0  0
  -25.2590  -31.5600   26.1860 C   0  0  0  0  0  1  0  0  0  0  0  0
  -26.9500  -30.3860   24.7760 C   0  0  0  0  0  1  0  0  0  0  0  0
  -27.5120  -32.5740   25.7910 C   0  0  0  0  0  1  0  0  0  0  0  0
  -25.5550  -33.9280   24.1460 N   0  0  0  0  0  0  0  0  0  0  0  0
  -25.9050  -34.9810   23.3950 C   0  0  0  0  0  0  0  0  0  0  0  0
  -26.5900  -34.8730   22.3750 O   0  0  0  0  0  0  0  0  0  0  0  0
  -24.9470  -34.0850   24.9360 H   0  0  0  0  0  0  0  0  0  0  0  0
  -24.2010  -36.7950   23.0110 C   0  0  0  0  0  1  0  0  0  0  0  0
  -25.4200  -36.3750   23.8470 C   0  0  0  0  0  3  0  0  0  0  0  0
  -27.5420  -37.2450   24.7280 C   0  0  0  0  0  1  0  0  0  0  0  0
  -26.4650  -37.4200   23.7580 N   0  0  0  0  0  0  0  0  0  0  0  0
  -26.0630  -38.3440   23.8910 H   0  0  0  0  0  0  0  0  0  0  0  0
  1  4  1  0
  3  6  1  0
  4 10  1  0
  4  2  1  0
  5  1  1  0
  5  3  1  0
  6 47  1  0
  6  2  1  0
  7  1  2  0
  8  5  1  0
  6  9  1  6
 11 10  1  0
 12 17  1  0
 13 14  1  0
 13 12  1  0
 15 14  1  0
 15 22  1  0
 15 16  1  0
 17 11  1  0
 17 16  1  0
 18 11  2  0
 19 20  2  0
 20 39  1  0
 21 20  1  0
 21 24  1  0
 22 19  1  0
 22 23  1  0
 23 21  2  0
 24 25  1  0
 25 26  2  0
 27 30  1  0
 27 26  1  0
 28 27  2  0
 29 28  1  0
 29 24  2  0
 30 31  1  0
 31 32  1  0
 32 33  2  0
 34 33  1  0
 34 38  1  0
 35 34  2  0
 36 31  2  0
 36 35  1  0
 37 36  1  0
 39 40  1  0
 40 43  1  0
 40 42  1  0
 41 39  2  0
 44 45  1  0
 44 19  1  0
 46 44  1  0
 48 49  1  0
 48 47  2  0
 50 61  2  0
 51 49  1  0
 51 56  1  0
 52 60  1  0
 52 62  1  0
 53 59  1  0
 53 55  1  0
 54 60  1  0
 55 56  2  0
 55 54  1  0
 57 51  2  0
 58 57  1  0
 58 53  2  0
 59 52  1  0
 60 50  1  0
 62 64  2  0
 63 62  1  0
 65 63  1  0
 66 75  2  0
 66 71  1  0
 67 63  1  0
 67 71  1  0
 68 67  1  0
 69 70  1  0
 69 68  1  0
 70 66  1  0
 71 72  2  0
 72 73  1  0
 74 73  2  0
 75 74  1  0
 76 50  1  0
 76 81  1  0
 76 77  1  0
 77 80  1  1
 77 78  1  0
 79 77  1  0
 81 84  1  0
 82 86  1  0
 82 81  1  0
 83 82  2  0
 86 85  1  0
 88 86  1  0
 88 89  1  0
 88 87  1  0
M  ISO  4  10 100  11 100  48 101  49 101
M  END
>  <TORSDO>  (85) 
F 19

>  <SCORE>  (85) 
-15.874

>  <name>  (85) 
84

>  <ligand_id>  (85) 
84

>  <original_smiles>  (85) 
[H]c1c([H])c([H])c2c(c1[H])C([H])([H])C([H])([H])C([H])([H])C2([H])N([H])C(=O)C1([H])N(C(=O)C([H])(N([H])C(=O)C([H])(N([H])C([H])([H])[H])C([H])([H])[H])C(C([H])([H])[H])(C([H])([H])[H])C([H])([H])[H])C([H])([H])c2c([H])c(OC([H])([H])C([H])([H])[N+]3([H])C([H])([H])N([H])C(=O)C([H])(C([H])([H])C(=O)N4C([H])([H])C([H])([H])C([H])([H])C([H])(n5nc(-c6c([H])c([H])c(Oc7c([H])c([H])c(F)c([H])c7F)c([H])c6[H])c(C(=O)N([H])[H])c5N([H])[H])C4([H])[H])C3([H])[H])c([H])c([H])c2C1([H])[H]

>  <smiles>  (85) 
[H]c1c([H])c([H])c2c(c1[H])C([H])([H])C([H])([H])C([H])([H])C2([H])N([H])C(=O)C1([H])N(C(=O)C([H])(N([H])C(=O)C([H])(N([H])C([H])([H])[H])C([H])([H])[H])C(C([H])([H])[H])(C([H])([H])[H])C([H])([H])[H])C([H])([H])c2c([H])c(OC([H])([H])C([H])([H])[N+]3([H])C([H])([H])N([H])C(=O)C([H])(C([H])([H])C(=O)N4C([H])([H])C([H])([H])C([H])([H])C([H])(n5nc(-c6c([H])c([H])c(Oc7c([H])c([H])c(F)c([H])c7F)c([H])c6[H])c(C(=O)N([H])[H])c5N([H])[H])C4([H])[H])C3([H])[H])c([H])c([H])c2C1([H])[H]

$$$$
85:0:0
     RDKit          3D

 89 97  0  0  1  0  0  0  0  0999 V2000
  -29.2290  -22.1400   20.8100 C   0  0  0  0  0  2  0  0  0  0  0  0
  -28.3520  -22.6170   18.6760 C   0  0  0  0  0  2  0  0  0  0  0  0
  -28.9870  -23.4250   19.8570 C   0  0  0  0  0  3  0  0  0  0  0  0
  -29.5180  -20.8130   19.9350 C   0  0  0  0  0  3  0  0  0  0  0  0
  -28.6710  -21.1370   18.7600 N   0  0  0  0  0  4  0  0  0  0  0  0
  -29.1100  -20.8150   17.9130 H   0  0  0  0  0  0  0  0  0  0  0  0
  -27.7970  -20.6460   18.8450 H   0  0  0  0  0  0  0  0  0  0  0  0
  -27.9440  -18.8920   20.8330 C   0  0  0  0  0  1  0  0  0  0  0  0
  -29.4120  -19.2410   20.5300 C   0  0  0  0  0  3  0  0  0  0  0  0
  -30.1940  -17.8920   19.9090 C   0  0  0  0  0  3  0  0  0  0  0  0
  -30.0260  -16.3370   20.5090 C   0  0  0  0  0  3  0  0  0  0  0  0
  -30.7780  -14.9770   19.9490 C   0  0  0  0  0  0  0  0  0  0  0  0
  -30.6170  -12.6550   18.9450 C   0  0  0  0  0  2  0  0  0  0  0  0
  -29.6190  -12.7010   17.7630 C   0  0  0  0  0  2  0  0  0  0  0  0
  -28.1720  -12.5030   18.2600 C   0  0  0  0  0  2  0  0  0  0  0  0
  -27.8500  -13.3550   19.5190 C   0  0  0  0  0  3  0  0  0  0  0  0
  -28.9730  -13.2860   20.5770 C   0  0  0  0  0  2  0  0  0  0  0  0
  -30.2150  -13.7050   19.9220 N   0  0  0  0  0  0  0  0  0  0  0  0
  -31.9100  -15.0960   19.4690 O   0  0  0  0  0  0  0  0  0  0  0  0
  -25.5170  -13.9080   20.4210 C   0  0  0  0  0  0  0  0  0  0  0  0
  -24.4740  -13.1180   20.8280 C   0  0  0  0  0  0  0  0  0  0  0  0
  -24.9370  -11.7710   20.7270 C   0  0  0  0  0  0  0  0  0  0  0  0
  -26.5400  -13.0370   20.0820 N   0  0  0  0  0  0  0  0  0  0  0  0
  -26.2030  -11.7450   20.3280 N   0  0  0  0  0  0  0  0  0  0  0  0
  -24.2220  -10.5020   20.9290 C   0  0  0  0  0  0  0  0  0  0  0  0
  -24.6300   -9.5700   21.9100 C   0  0  0  0  0  3  0  0  0  0  0  0
  -23.9170   -8.3650   22.0960 C   0  0  0  0  0  3  0  0  0  0  0  0
  -22.7840   -8.0820   21.2970 C   0  0  0  0  0  0  0  0  0  0  0  0
  -22.3950   -9.0000   20.3070 C   0  0  0  0  0  3  0  0  0  0  0  0
  -23.1090  -10.1970   20.1200 C   0  0  0  0  0  3  0  0  0  0  0  0
  -22.0480   -6.9240   21.3850 O   0  0  0  0  0  0  0  0  0  0  0  0
  -21.8410   -6.2920   22.5850 C   0  0  0  0  0  0  0  0  0  0  0  0
  -21.2060   -6.9390   23.6670 C   0  0  0  0  0  3  0  0  0  0  0  0
  -20.9520   -6.2320   24.8600 C   0  0  0  0  0  3  0  0  0  0  0  0
  -21.3240   -4.8780   24.9690 C   0  0  0  0  0  0  0  0  0  0  0  0
  -21.9510   -4.2310   23.8910 C   0  0  0  0  0  3  0  0  0  0  0  0
  -22.2070   -4.9350   22.7010 C   0  0  0  0  0  0  0  0  0  0  0  0
  -22.7930   -4.3020   21.6570 F   0  0  0  0  0  0  0  0  0  0  0  0
  -21.0750   -4.1950   26.1110 F   0  0  0  0  0  0  0  0  0  0  0  0
  -23.0970  -13.5860   21.2080 C   0  0  0  0  0  0  0  0  0  0  0  0
  -22.4220  -12.8580   22.0940 N   0  0  0  0  0  0  0  0  0  0  0  0
  -22.6290  -14.6300   20.7620 O   0  0  0  0  0  0  0  0  0  0  0  0
  -22.8140  -12.0070   22.4710 H   0  0  0  0  0  0  0  0  0  0  0  0
  -21.5050  -13.1550   22.3940 H   0  0  0  0  0  0  0  0  0  0  0  0
  -25.6890  -15.2820   20.2940 N   0  0  0  0  0  0  0  0  0  0  0  0
  -24.9850  -15.9650   20.5500 H   0  0  0  0  0  0  0  0  0  0  0  0
  -26.5690  -15.7060   20.0280 H   0  0  0  0  0  0  0  0  0  0  0  0
  -28.1850  -24.8070   20.3740 C   0  0  0  0  0  2  0  0  0  0  0  0
  -28.4250  -26.2970   20.0330 O   0  0  0  0  0  0  0  0  0  0  0  0
  -24.6940  -31.8430   23.1480 C   0  0  0  0  0  0  0  0  0  0  0  0
  -27.3490  -27.2440   20.0390 C   0  0  0  0  0  0  0  0  0  0  0  0
  -23.5200  -30.4660   21.4730 C   0  0  0  0  0  3  0  0  0  0  0  0
  -24.9980  -28.9400   20.0220 C   0  0  0  0  0  0  0  0  0  0  0  0
  -26.0680  -30.7710   21.3230 C   0  0  0  0  0  2  0  0  0  0  0  0
  -26.1640  -29.3910   20.6550 C   0  0  0  0  0  0  0  0  0  0  0  0
  -27.3440  -28.5590   20.6490 C   0  0  0  0  0  3  0  0  0  0  0  0
  -26.1620  -26.8870   19.3670 C   0  0  0  0  0  3  0  0  0  0  0  0
  -25.0110  -27.7040   19.3580 C   0  0  0  0  0  3  0  0  0  0  0  0
  -23.7540  -29.8120   20.0830 C   0  0  0  0  0  2  0  0  0  0  0  0
  -24.7810  -31.0460   22.0390 N   0  0  0  0  0  0  0  0  0  0  0  0
  -23.6030  -32.1060   23.6740 O   0  0  0  0  0  0  0  0  0  0  0  0
  -22.8500  -29.4320   22.4130 C   0  0  0  0  0  0  0  0  0  0  0  0
  -21.5230  -29.2630   22.2850 N   0  0  0  0  0  0  0  0  0  0  0  0
  -23.5260  -28.7870   23.2180 O   0  0  0  0  0  0  0  0  0  0  0  0
  -21.0410  -29.8240   21.5980 H   0  0  0  0  0  0  0  0  0  0  0  0
  -18.1380  -28.1050   22.8080 C   0  0  0  0  0  0  0  0  0  0  0  0
  -20.7030  -28.3120   23.0350 C   0  0  0  0  0  3  0  0  0  0  0  0
  -20.7700  -26.9040   22.4000 C   0  0  0  0  0  2  0  0  0  0  0  0
  -19.6440  -26.6440   21.3940 C   0  0  0  0  0  2  0  0  0  0  0  0
  -18.2770  -26.7850   22.0680 C   0  0  0  0  0  2  0  0  0  0  0  0
  -19.2770  -28.8280   23.2480 C   0  0  0  0  0  0  0  0  0  0  0  0
  -19.0930  -30.0610   23.9100 C   0  0  0  0  0  3  0  0  0  0  0  0
  -17.8010  -30.5720   24.1350 C   0  0  0  0  0  3  0  0  0  0  0  0
  -16.6740  -29.8470   23.7100 C   0  0  0  0  0  3  0  0  0  0  0  0
  -16.8460  -28.6160   23.0510 C   0  0  0  0  0  3  0  0  0  0  0  0
  -25.9610  -32.4800   23.7980 C   0  0  0  0  0  3  0  0  0  0  0  0
  -26.4710  -31.6850   25.0620 C   0  0  1  0  0  0  0  0  0  0  0  0
  -25.3660  -31.4080   26.1090 C   0  0  0  0  0  1  0  0  0  0  0  0
  -27.0770  -30.3260   24.6430 C   0  0  0  0  0  1  0  0  0  0  0  0
  -27.6010  -32.4790   25.7600 C   0  0  0  0  0  1  0  0  0  0  0  0
  -25.6290  -33.8670   24.1620 N   0  0  0  0  0  0  0  0  0  0  0  0
  -25.9540  -34.9450   23.4360 C   0  0  0  0  0  0  0  0  0  0  0  0
  -26.6330  -34.8780   22.4100 O   0  0  0  0  0  0  0  0  0  0  0  0
  -25.0330  -33.9910   24.9660 H   0  0  0  0  0  0  0  0  0  0  0  0
  -24.2080  -36.7300   23.1130 C   0  0  0  0  0  1  0  0  0  0  0  0
  -25.4460  -36.3150   23.9260 C   0  0  0  0  0  3  0  0  0  0  0  0
  -27.5560  -37.2070   24.8150 C   0  0  0  0  0  1  0  0  0  0  0  0
  -26.4670  -37.3840   23.8580 N   0  0  0  0  0  0  0  0  0  0  0  0
  -26.0480  -38.2940   24.0230 H   0  0  0  0  0  0  0  0  0  0  0  0
  2  5  1  0
  2  3  1  0
  3 48  1  0
  3  1  1  0
  4  9  1  0
  4  1  1  0
  5  7  1  0
  5  4  1  0
  6  5  1  0
  9  8  1  0
 10 11  2  0
 10  9  1  0
 12 11  1  0
 13 18  1  0
 14 15  1  0
 14 13  1  0
 16 15  1  0
 16 23  1  0
 16 17  1  0
 18 12  1  0
 18 17  1  0
 19 12  2  0
 20 21  2  0
 21 40  1  0
 22 21  1  0
 22 25  1  0
 23 24  1  0
 23 20  1  0
 24 22  2  0
 25 26  1  0
 26 27  2  0
 28 31  1  0
 28 27  1  0
 29 28  2  0
 30 29  1  0
 30 25  2  0
 31 32  1  0
 32 37  2  0
 32 33  1  0
 33 34  2  0
 34 35  1  0
 35 39  1  0
 36 35  2  0
 37 36  1  0
 38 37  1  0
 40 41  1  0
 41 44  1  0
 41 43  1  0
 42 40  2  0
 45 20  1  0
 45 46  1  0
 47 45  1  0
 49 51  1  0
 49 48  1  0
 50 61  2  0
 51 56  1  0
 52 60  1  0
 52 62  1  0
 53 59  1  0
 53 55  1  0
 54 60  1  0
 55 54  1  0
 56 55  2  0
 57 51  2  0
 58 57  1  0
 58 53  2  0
 59 52  1  0
 60 50  1  0
 62 64  2  0
 63 62  1  0
 65 63  1  0
 66 75  2  0
 66 71  1  0
 67 63  1  0
 67 71  1  0
 68 67  1  0
 69 70  1  0
 69 68  1  0
 70 66  1  0
 71 72  2  0
 72 73  1  0
 74 73  2  0
 75 74  1  0
 76 50  1  0
 76 81  1  0
 76 77  1  0
 77 80  1  1
 77 78  1  0
 79 77  1  0
 81 84  1  0
 82 86  1  0
 82 81  1  0
 83 82  2  0
 86 85  1  0
 88 86  1  0
 88 89  1  0
 88 87  1  0
M  ISO  4  11 100  12 100  48 101  49 101
M  END
>  <TORSDO>  (86) 
F 20

>  <SCORE>  (86) 
-12.821

>  <name>  (86) 
85

>  <ligand_id>  (86) 
85

>  <original_smiles>  (86) 
[H]c1c([H])c([H])c2c(c1[H])C([H])([H])C([H])([H])C([H])([H])C2([H])N([H])C(=O)C1([H])N(C(=O)C([H])(N([H])C(=O)C([H])(N([H])C([H])([H])[H])C([H])([H])[H])C(C([H])([H])[H])(C([H])([H])[H])C([H])([H])[H])C([H])([H])c2c([H])c(OC([H])([H])C3([H])C([H])([H])C([H])(C([H])(C([H])([H])[H])C([H])([H])C([H])([H])C(=O)N4C([H])([H])C([H])([H])C([H])([H])C([H])(n5nc(-c6c([H])c([H])c(Oc7c([H])c([H])c(F)c([H])c7F)c([H])c6[H])c(C(=O)N([H])[H])c5N([H])[H])C4([H])[H])[N+]([H])([H])C3([H])[H])c([H])c([H])c2C1([H])[H]

>  <smiles>  (86) 
[H]c1c([H])c([H])c2c(c1[H])C([H])([H])C([H])([H])C([H])([H])C2([H])N([H])C(=O)C1([H])N(C(=O)C([H])(N([H])C(=O)C([H])(N([H])C([H])([H])[H])C([H])([H])[H])C(C([H])([H])[H])(C([H])([H])[H])C([H])([H])[H])C([H])([H])c2c([H])c(OC([H])([H])C3([H])C([H])([H])C([H])(C([H])(C([H])([H])[H])C([H])([H])C([H])([H])C(=O)N4C([H])([H])C([H])([H])C([H])([H])C([H])(n5nc(-c6c([H])c([H])c(Oc7c([H])c([H])c(F)c([H])c7F)c([H])c6[H])c(C(=O)N([H])[H])c5N([H])[H])C4([H])[H])[N+]([H])([H])C3([H])[H])c([H])c([H])c2C1([H])[H]

$$$$
86:0:0
     RDKit          3D

 90100  0  0  1  0  0  0  0  0999 V2000
  -28.3310  -21.2850   19.2810 N   0  0  0  0  0  4  0  0  0  0  0  0
  -29.1980  -21.4370   18.7910 H   0  0  0  0  0  0  0  0  0  0  0  0
  -27.6390  -21.2500   18.5500 H   0  0  0  0  0  0  0  0  0  0  0  0
  -29.9590  -15.9980   19.7580 C   0  0  0  0  0  0  0  0  0  0  0  0
  -30.1140  -13.4790   19.0050 C   0  0  0  0  0  2  0  0  0  0  0  0
  -29.2100  -13.0720   17.8120 C   0  0  0  0  0  2  0  0  0  0  0  0
  -27.8030  -12.6950   18.3000 C   0  0  0  0  0  2  0  0  0  0  0  0
  -27.2830  -13.6890   19.3670 C   0  0  0  0  0  3  0  0  0  0  0  0
  -28.3230  -14.0360   20.4550 C   0  0  0  0  0  2  0  0  0  0  0  0
  -29.4760  -14.6390   19.7580 N   0  0  0  0  0  0  0  0  0  0  0  0
  -31.1820  -16.0060   19.5410 O   0  0  0  0  0  0  0  0  0  0  0  0
  -28.6370  -18.3230   18.7930 C   0  0  0  0  0  3  0  0  0  0  0  0
  -28.3890  -19.6310   19.7810 C   0  0  0  0  0  3  0  0  0  0  0  0
  -29.6000  -18.7300   20.4570 C   0  0  2  0  0  0  0  0  0  0  0  0
  -29.1760  -17.3090   19.8720 N   0  0  0  0  0  0  0  0  0  0  0  0
  -24.9220  -14.1160   20.2030 C   0  0  0  0  0  0  0  0  0  0  0  0
  -23.9110  -13.2840   20.5950 C   0  0  0  0  0  0  0  0  0  0  0  0
  -24.4440  -11.9590   20.5440 C   0  0  0  0  0  0  0  0  0  0  0  0
  -25.9970  -13.2950   19.9220 N   0  0  0  0  0  0  0  0  0  0  0  0
  -25.7270  -11.9910   20.1970 N   0  0  0  0  0  0  0  0  0  0  0  0
  -23.7840  -10.6620   20.7490 C   0  0  0  0  0  0  0  0  0  0  0  0
  -24.2960   -9.7050   21.6520 C   0  0  0  0  0  3  0  0  0  0  0  0
  -23.6280   -8.4760   21.8480 C   0  0  0  0  0  3  0  0  0  0  0  0
  -22.4350   -8.1950   21.1410 C   0  0  0  0  0  0  0  0  0  0  0  0
  -21.9420   -9.1420   20.2260 C   0  0  0  0  0  3  0  0  0  0  0  0
  -22.6100  -10.3630   20.0290 C   0  0  0  0  0  3  0  0  0  0  0  0
  -21.7350   -7.0170   21.2460 O   0  0  0  0  0  0  0  0  0  0  0  0
  -21.8390   -6.2150   22.3540 C   0  0  0  0  0  0  0  0  0  0  0  0
  -21.5030   -6.6790   23.6450 C   0  0  0  0  0  3  0  0  0  0  0  0
  -21.5570   -5.8010   24.7450 C   0  0  0  0  0  3  0  0  0  0  0  0
  -21.9370   -4.4590   24.5580 C   0  0  0  0  0  0  0  0  0  0  0  0
  -22.2670   -3.9930   23.2730 C   0  0  0  0  0  3  0  0  0  0  0  0
  -22.2140   -4.8680   22.1730 C   0  0  0  0  0  0  0  0  0  0  0  0
  -22.5120   -4.4080   20.9340 F   0  0  0  0  0  0  0  0  0  0  0  0
  -21.9830   -3.6130   25.6140 F   0  0  0  0  0  0  0  0  0  0  0  0
  -22.5010  -13.6930   20.9010 C   0  0  0  0  0  0  0  0  0  0  0  0
  -21.8460  -12.9910   21.8180 N   0  0  0  0  0  0  0  0  0  0  0  0
  -21.9890  -14.6720   20.3600 O   0  0  0  0  0  0  0  0  0  0  0  0
  -22.2730  -12.1990   22.2730 H   0  0  0  0  0  0  0  0  0  0  0  0
  -20.9020  -13.2520   22.0680 H   0  0  0  0  0  0  0  0  0  0  0  0
  -25.0130  -15.4940   20.0310 N   0  0  0  0  0  0  0  0  0  0  0  0
  -24.2210  -16.1110   20.1750 H   0  0  0  0  0  0  0  0  0  0  0  0
  -25.8430  -15.9800   19.7140 H   0  0  0  0  0  0  0  0  0  0  0  0
  -29.6500  -18.6680   21.9870 C   0  0  0  0  0  2  0  0  0  0  0  0
  -31.3010  -18.5100   24.0120 C   0  0  0  0  0  2  0  0  0  0  0  0
  -31.8580  -17.5840   22.9550 C   0  0  0  0  0  2  0  0  0  0  0  0
  -31.0500  -18.7940   22.5510 C   0  0  0  0  0  3  0  0  0  0  0  0
  -27.9720  -22.8090   19.9880 C   0  0  0  0  0  2  0  0  0  0  0  0
  -27.5870  -24.5070   19.2990 C   0  0  0  0  0  2  0  0  0  0  0  0
  -27.7780  -26.1620   19.6840 O   0  0  0  0  0  0  0  0  0  0  0  0
  -24.7770  -32.0850   23.4390 C   0  0  0  0  0  0  0  0  0  0  0  0
  -26.8470  -27.3630   19.7520 C   0  0  0  0  0  0  0  0  0  0  0  0
  -23.4130  -30.9370   21.7460 C   0  0  0  0  0  3  0  0  0  0  0  0
  -24.6780  -29.4180   20.0570 C   0  0  0  0  0  0  0  0  0  0  0  0
  -25.9770  -31.0060   21.4590 C   0  0  0  0  0  2  0  0  0  0  0  0
  -25.9220  -29.6680   20.6460 C   0  0  0  0  0  0  0  0  0  0  0  0
  -26.9930  -28.6660   20.4730 C   0  0  0  0  0  3  0  0  0  0  0  0
  -25.5820  -27.3020   19.1200 C   0  0  0  0  0  3  0  0  0  0  0  0
  -24.5400  -28.2610   19.2700 C   0  0  0  0  0  3  0  0  0  0  0  0
  -23.5200  -30.3960   20.2920 C   0  0  0  0  0  2  0  0  0  0  0  0
  -24.7500  -31.3650   22.2680 N   0  0  0  0  0  0  0  0  0  0  0  0
  -23.7390  -32.3740   24.0580 O   0  0  0  0  0  0  0  0  0  0  0  0
  -22.7160  -29.8830   22.6470 C   0  0  0  0  0  0  0  0  0  0  0  0
  -21.3830  -29.7400   22.5280 N   0  0  0  0  0  0  0  0  0  0  0  0
  -23.3840  -29.1960   23.4230 O   0  0  0  0  0  0  0  0  0  0  0  0
  -20.8950  -30.3450   21.8810 H   0  0  0  0  0  0  0  0  0  0  0  0
  -18.0100  -28.4590   22.9380 C   0  0  0  0  0  0  0  0  0  0  0  0
  -20.5630  -28.7530   23.2400 C   0  0  0  0  0  3  0  0  0  0  0  0
  -20.6920  -27.3530   22.5950 C   0  0  0  0  0  2  0  0  0  0  0  0
  -19.6060  -27.0690   21.5530 C   0  0  0  0  0  2  0  0  0  0  0  0
  -18.2150  -27.1540   22.1880 C   0  0  0  0  0  2  0  0  0  0  0  0
  -19.1110  -29.2180   23.4170 C   0  0  0  0  0  0  0  0  0  0  0  0
  -18.8630  -30.4370   24.0820 C   0  0  0  0  0  3  0  0  0  0  0  0
  -17.5470  -30.9010   24.2690 C   0  0  0  0  0  3  0  0  0  0  0  0
  -16.4600  -30.1400   23.8040 C   0  0  0  0  0  3  0  0  0  0  0  0
  -16.6930  -28.9210   23.1440 C   0  0  0  0  0  3  0  0  0  0  0  0
  -26.1160  -32.5960   24.0540 C   0  0  0  0  0  3  0  0  0  0  0  0
  -26.6410  -31.6860   25.2340 C   0  0  1  0  0  0  0  0  0  0  0  0
  -25.5860  -31.4180   26.3320 C   0  0  0  0  0  1  0  0  0  0  0  0
  -27.1220  -30.3160   24.7070 C   0  0  0  0  0  1  0  0  0  0  0  0
  -27.8660  -32.3530   25.9030 C   0  0  0  0  0  1  0  0  0  0  0  0
  -25.9000  -33.9720   24.5400 N   0  0  0  0  0  0  0  0  0  0  0  0
  -26.3390  -35.0820   23.9310 C   0  0  0  0  0  0  0  0  0  0  0  0
  -27.0260  -35.0500   22.9080 O   0  0  0  0  0  0  0  0  0  0  0  0
  -25.2960  -34.0760   25.3420 H   0  0  0  0  0  0  0  0  0  0  0  0
  -24.8070  -37.0750   23.7500 C   0  0  0  0  0  1  0  0  0  0  0  0
  -25.9560  -36.4420   24.5520 C   0  0  0  0  0  3  0  0  0  0  0  0
  -28.1020  -37.0070   25.6060 C   0  0  0  0  0  1  0  0  0  0  0  0
  -27.0860  -37.3940   24.6310 N   0  0  0  0  0  0  0  0  0  0  0  0
  -26.7560  -38.3260   24.8700 H   0  0  0  0  0  0  0  0  0  0  0  0
  1 48  1  0
  2  1  1  0
  3  1  1  0
  4 10  1  0
  4 15  1  0
  5 10  1  0
  6  7  1  0
  6  5  1  0
  8  7  1  0
  8 19  1  0
  8  9  1  0
 10  9  1  0
 11  4  2  0
 12 13  1  0
 12 15  1  0
 12 14  1  0
 13  1  1  0
 13 14  1  0
 14 44  1  1
 15 14  1  0
 16 17  2  0
 17 36  1  0
 18 17  1  0
 18 21  1  0
 19 20  1  0
 19 16  1  0
 20 18  2  0
 21 22  1  0
 22 23  2  0
 24 27  1  0
 24 23  1  0
 25 24  2  0
 26 25  1  0
 26 21  2  0
 27 28  1  0
 28 29  1  0
 29 30  2  0
 31 30  1  0
 31 35  1  0
 32 31  2  0
 33 28  2  0
 33 32  1  0
 34 33  1  0
 36 37  1  0
 37 40  1  0
 37 39  1  0
 38 36  2  0
 41 42  1  0
 41 16  1  0
 43 41  1  0
 44 47  1  0
 46 45  1  0
 47 46  1  0
 47 45  1  0
 49 50  1  0
 49 48  1  0
 50 52  1  0
 51 62  2  0
 52 57  1  0
 53 61  1  0
 53 63  1  0
 54 60  1  0
 54 56  1  0
 55 61  1  0
 56 55  1  0
 57 56  2  0
 58 59  1  0
 58 52  2  0
 59 54  2  0
 60 53  1  0
 61 51  1  0
 63 65  2  0
 64 63  1  0
 66 64  1  0
 67 76  2  0
 67 72  1  0
 68 64  1  0
 68 72  1  0
 69 68  1  0
 70 71  1  0
 70 69  1  0
 71 67  1  0
 72 73  2  0
 73 74  1  0
 75 74  2  0
 76 75  1  0
 77 51  1  0
 77 82  1  0
 77 78  1  0
 78 81  1  1
 78 79  1  0
 80 78  1  0
 82 85  1  0
 83 82  1  0
 83 87  1  0
 84 83  2  0
 87 86  1  0
 87 89  1  0
 89 90  1  0
 89 88  1  0
M  ISO  4   4 100  15 100  49 101  50 101
M  END
>  <TORSDO>  (87) 
F 20

>  <SCORE>  (87) 
-10.359

>  <name>  (87) 
86

>  <ligand_id>  (87) 
86

>  <original_smiles>  (87) 
[H]c1c([H])c([H])c2c(c1[H])C([H])([H])C([H])([H])C([H])([H])C2([H])N([H])C(=O)C1([H])N(C(=O)C([H])(N([H])C(=O)C([H])(N([H])C([H])([H])[H])C([H])([H])[H])C(C([H])([H])[H])(C([H])([H])[H])C([H])([H])[H])C([H])([H])c2c([H])c(OC([H])([H])C([H])([H])[N+]([H])([H])C3([H])C([H])([H])N(C(=O)N4C([H])([H])C([H])([H])C([H])([H])C([H])(n5nc(-c6c([H])c([H])c(Oc7c([H])c([H])c(F)c([H])c7F)c([H])c6[H])c(C(=O)N([H])[H])c5N([H])[H])C4([H])[H])C3([H])C([H])([H])C3([H])C([H])([H])C3([H])[H])c([H])c([H])c2C1([H])[H]

>  <smiles>  (87) 
[H]c1c([H])c([H])c2c(c1[H])C([H])([H])C([H])([H])C([H])([H])C2([H])N([H])C(=O)C1([H])N(C(=O)C([H])(N([H])C(=O)C([H])(N([H])C([H])([H])[H])C([H])([H])[H])C(C([H])([H])[H])(C([H])([H])[H])C([H])([H])[H])C([H])([H])c2c([H])c(OC([H])([H])C([H])([H])[N+]([H])([H])C3([H])C([H])([H])N(C(=O)N4C([H])([H])C([H])([H])C([H])([H])C([H])(n5nc(-c6c([H])c([H])c(Oc7c([H])c([H])c(F)c([H])c7F)c([H])c6[H])c(C(=O)N([H])[H])c5N([H])[H])C4([H])[H])C3([H])C([H])([H])C3([H])C([H])([H])C3([H])[H])c([H])c([H])c2C1([H])[H]

$$$$
87:0:0
     RDKit          3D

 89 97  0  0  1  0  0  0  0  0999 V2000
  -28.4310  -19.5310   19.0750 C   0  0  0  0  0  0  0  0  0  0  0  0
  -28.7480  -17.9390   19.0570 C   0  0  0  0  0  2  0  0  0  0  0  0
  -28.9770  -20.4250   20.2450 C   0  0  0  0  0  3  0  0  0  0  0  0
  -29.6060  -17.3460   20.2620 C   0  0  0  0  0  3  0  0  0  0  0  0
  -30.0670  -19.0450   20.5950 C   0  0  0  0  0  3  0  0  0  0  0  0
  -27.7660  -20.0380   18.1680 O   0  0  0  0  0  0  0  0  0  0  0  0
  -30.4430  -15.6960   20.0820 C   0  0  0  0  0  0  0  0  0  0  0  0
  -30.5360  -13.1660   19.2570 C   0  0  0  0  0  2  0  0  0  0  0  0
  -29.6000  -12.8350   18.0590 C   0  0  0  0  0  2  0  0  0  0  0  0
  -28.1820  -12.4890   18.5430 C   0  0  0  0  0  2  0  0  0  0  0  0
  -27.7150  -13.4630   19.6490 C   0  0  0  0  0  3  0  0  0  0  0  0
  -28.7810  -13.7210   20.7360 C   0  0  0  0  0  2  0  0  0  0  0  0
  -29.9600  -14.3210   20.0760 N   0  0  0  0  0  0  0  0  0  0  0  0
  -31.6600  -15.6600   19.8180 O   0  0  0  0  0  0  0  0  0  0  0  0
  -25.3820  -13.9700   20.5210 C   0  0  0  0  0  0  0  0  0  0  0  0
  -24.3390  -13.1780   20.9070 C   0  0  0  0  0  0  0  0  0  0  0  0
  -24.8110  -11.8310   20.8200 C   0  0  0  0  0  0  0  0  0  0  0  0
  -26.4170  -13.1100   20.2070 N   0  0  0  0  0  0  0  0  0  0  0  0
  -26.0900  -11.8140   20.4560 N   0  0  0  0  0  0  0  0  0  0  0  0
  -24.0940  -10.5620   21.0030 C   0  0  0  0  0  0  0  0  0  0  0  0
  -24.5290   -9.5910   21.9320 C   0  0  0  0  0  3  0  0  0  0  0  0
  -23.8070   -8.3900   22.1050 C   0  0  0  0  0  3  0  0  0  0  0  0
  -22.6350   -8.1500   21.3490 C   0  0  0  0  0  0  0  0  0  0  0  0
  -22.2180   -9.1090   20.4090 C   0  0  0  0  0  3  0  0  0  0  0  0
  -22.9410  -10.3020   20.2350 C   0  0  0  0  0  3  0  0  0  0  0  0
  -21.8850   -7.0020   21.4310 O   0  0  0  0  0  0  0  0  0  0  0  0
  -21.7900   -6.2850   22.5980 C   0  0  0  0  0  0  0  0  0  0  0  0
  -21.2650   -6.8530   23.7790 C   0  0  0  0  0  3  0  0  0  0  0  0
  -21.1200   -6.0620   24.9370 C   0  0  0  0  0  3  0  0  0  0  0  0
  -21.4900   -4.7040   24.9120 C   0  0  0  0  0  0  0  0  0  0  0  0
  -22.0080   -4.1350   23.7350 C   0  0  0  0  0  3  0  0  0  0  0  0
  -22.1530   -4.9240   22.5800 C   0  0  0  0  0  0  0  0  0  0  0  0
  -22.6330   -4.3650   21.4430 F   0  0  0  0  0  0  0  0  0  0  0  0
  -21.3440   -3.9410   26.0220 F   0  0  0  0  0  0  0  0  0  0  0  0
  -22.9510  -13.6420   21.2380 C   0  0  0  0  0  0  0  0  0  0  0  0
  -22.2590  -12.9280   22.1180 N   0  0  0  0  0  0  0  0  0  0  0  0
  -22.4930  -14.6760   20.7540 O   0  0  0  0  0  0  0  0  0  0  0  0
  -22.6450  -12.0920   22.5310 H   0  0  0  0  0  0  0  0  0  0  0  0
  -21.3300  -13.2210   22.3820 H   0  0  0  0  0  0  0  0  0  0  0  0
  -25.5330  -15.3470   20.3780 N   0  0  0  0  0  0  0  0  0  0  0  0
  -24.7650  -15.9910   20.5370 H   0  0  0  0  0  0  0  0  0  0  0  0
  -26.3630  -15.7990   20.0190 H   0  0  0  0  0  0  0  0  0  0  0  0
  -30.5650  -19.1610   21.9790 N   0  0  0  0  0  4  0  0  0  0  0  0
  -29.8330  -19.0130   22.6490 H   0  0  0  0  0  0  0  0  0  0  0  0
  -30.9540  -20.0740   22.1370 H   0  0  0  0  0  0  0  0  0  0  0  0
  -31.2940  -18.4910   22.1510 H   0  0  0  0  0  0  0  0  0  0  0  0
  -29.1150  -22.3430   20.1100 C   0  0  0  0  0  3  0  0  0  0  0  0
  -28.0790  -23.9570   20.0460 C   0  0  0  0  0  3  0  0  0  0  0  0
  -28.2610  -25.6880   20.1090 O   0  0  0  0  0  0  0  0  0  0  0  0
  -24.7120  -31.8480   23.1370 C   0  0  0  0  0  0  0  0  0  0  0  0
  -27.2650  -26.8660   20.0750 C   0  0  0  0  0  0  0  0  0  0  0  0
  -23.5230  -30.4620   21.4890 C   0  0  0  0  0  3  0  0  0  0  0  0
  -24.9750  -28.8490   20.0500 C   0  0  0  0  0  0  0  0  0  0  0  0
  -26.0980  -30.6390   21.3510 C   0  0  0  0  0  2  0  0  0  0  0  0
  -26.1690  -29.2190   20.6790 C   0  0  0  0  0  0  0  0  0  0  0  0
  -27.3010  -28.2550   20.6580 C   0  0  0  0  0  3  0  0  0  0  0  0
  -26.0330  -26.6910   19.3970 C   0  0  0  0  0  3  0  0  0  0  0  0
  -24.9420  -27.6100   19.3850 C   0  0  0  0  0  3  0  0  0  0  0  0
  -23.7590  -29.7840   20.1090 C   0  0  0  0  0  2  0  0  0  0  0  0
  -24.8010  -31.0140   22.0450 N   0  0  0  0  0  0  0  0  0  0  0  0
  -23.6200  -32.1330   23.6580 O   0  0  0  0  0  0  0  0  0  0  0  0
  -22.8230  -29.4660   22.4510 C   0  0  0  0  0  0  0  0  0  0  0  0
  -21.4900  -29.3080   22.3350 N   0  0  0  0  0  0  0  0  0  0  0  0
  -23.4890  -28.8340   23.2740 O   0  0  0  0  0  0  0  0  0  0  0  0
  -21.0020  -29.8700   21.6510 H   0  0  0  0  0  0  0  0  0  0  0  0
  -18.1080  -28.0980   22.8770 C   0  0  0  0  0  0  0  0  0  0  0  0
  -20.6720  -28.3600   23.1020 C   0  0  0  0  0  3  0  0  0  0  0  0
  -20.7610  -26.9370   22.4990 C   0  0  0  0  0  2  0  0  0  0  0  0
  -19.6430  -26.6360   21.4960 C   0  0  0  0  0  2  0  0  0  0  0  0
  -18.2720  -26.7660   22.1660 C   0  0  0  0  0  2  0  0  0  0  0  0
  -19.2330  -28.8540   23.3010 C   0  0  0  0  0  0  0  0  0  0  0  0
  -19.0210  -30.0990   23.9330 C   0  0  0  0  0  3  0  0  0  0  0  0
  -17.7180  -30.5890   24.1380 C   0  0  0  0  0  3  0  0  0  0  0  0
  -16.6080  -29.8330   23.7260 C   0  0  0  0  0  3  0  0  0  0  0  0
  -16.8040  -28.5880   23.1010 C   0  0  0  0  0  3  0  0  0  0  0  0
  -25.9750  -32.4980   23.7780 C   0  0  0  0  0  3  0  0  0  0  0  0
  -26.4910  -31.7200   25.0510 C   0  0  1  0  0  0  0  0  0  0  0  0
  -25.3950  -31.4680   26.1160 C   0  0  0  0  0  1  0  0  0  0  0  0
  -27.0840  -30.3470   24.6610 C   0  0  0  0  0  1  0  0  0  0  0  0
  -27.6350  -32.5150   25.7230 C   0  0  0  0  0  1  0  0  0  0  0  0
  -25.6410  -33.8890   24.1420 N   0  0  0  0  0  0  0  0  0  0  0  0
  -25.9320  -34.9710   23.4060 C   0  0  0  0  0  0  0  0  0  0  0  0
  -26.5660  -34.9040   22.3510 O   0  0  0  0  0  0  0  0  0  0  0  0
  -25.0700  -34.0110   24.9650 H   0  0  0  0  0  0  0  0  0  0  0  0
  -24.1570  -36.7460   23.1830 C   0  0  0  0  0  1  0  0  0  0  0  0
  -25.4450  -36.3440   23.9190 C   0  0  0  0  0  3  0  0  0  0  0  0
  -27.5970  -37.2640   24.6680 C   0  0  0  0  0  1  0  0  0  0  0  0
  -26.4510  -37.4190   23.7760 N   0  0  0  0  0  0  0  0  0  0  0  0
  -26.0340  -38.3290   23.9510 H   0  0  0  0  0  0  0  0  0  0  0  0
  1  3  1  0
  2  1  1  0
  2  4  1  0
  3 47  1  0
  3  5  1  0
  4  7  1  0
  4  5  1  0
  5 43  1  0
  6  1  2  0
  8 13  1  0
  9 10  1  0
  9  8  1  0
 11 10  1  0
 11 18  1  0
 11 12  1  0
 13  7  1  0
 13 12  1  0
 14  7  2  0
 15 16  2  0
 16 35  1  0
 17 16  1  0
 17 20  1  0
 18 19  1  0
 18 15  1  0
 19 17  2  0
 20 21  1  0
 21 22  2  0
 23 26  1  0
 23 22  1  0
 24 23  2  0
 25 24  1  0
 25 20  2  0
 26 27  1  0
 27 28  1  0
 28 29  2  0
 30 29  1  0
 30 34  1  0
 31 30  2  0
 32 27  2  0
 32 31  1  0
 33 32  1  0
 35 36  1  0
 36 39  1  0
 36 38  1  0
 37 35  2  0
 40 15  1  0
 40 41  1  0
 42 40  1  0
 43 45  1  0
 43 46  1  0
 43 44  1  0
 48 49  1  0
 48 47  2  0
 50 61  2  0
 51 49  1  0
 51 56  1  0
 52 60  1  0
 52 62  1  0
 53 59  1  0
 53 55  1  0
 54 60  1  0
 55 54  1  0
 56 55  2  0
 57 51  2  0
 58 57  1  0
 58 53  2  0
 59 52  1  0
 60 50  1  0
 62 64  2  0
 63 62  1  0
 65 63  1  0
 66 75  2  0
 66 71  1  0
 67 63  1  0
 67 71  1  0
 68 67  1  0
 69 70  1  0
 69 68  1  0
 70 66  1  0
 71 72  2  0
 72 73  1  0
 74 73  2  0
 75 74  1  0
 76 50  1  0
 76 81  1  0
 76 77  1  0
 77 80  1  1
 77 78  1  0
 79 77  1  0
 81 84  1  0
 82 86  1  0
 82 81  1  0
 83 82  2  0
 86 85  1  0
 88 86  1  0
 88 89  1  0
 88 87  1  0
M  ISO  4   4 100   7 100  48 101  49 101
M  END
>  <TORSDO>  (88) 
F 19

>  <SCORE>  (88) 
-16.829

>  <name>  (88) 
87

>  <ligand_id>  (88) 
87

>  <original_smiles>  (88) 
[H]c1c([H])c([H])c2c(c1[H])C([H])([H])C([H])([H])C([H])([H])C2([H])N([H])C(=O)C1([H])N(C(=O)C([H])(N([H])C(=O)C([H])(N([H])C([H])([H])[H])C([H])([H])[H])C(C([H])([H])[H])(C([H])([H])[H])C([H])([H])[H])C([H])([H])c2c([H])c(OC([H])([H])C([H])([H])C3([H])C(=O)C([H])([H])C([H])(C(=O)N4C([H])([H])C([H])([H])C([H])([H])C([H])(n5nc(-c6c([H])c([H])c(Oc7c([H])c([H])c(F)c([H])c7F)c([H])c6[H])c(C(=O)N([H])[H])c5N([H])[H])C4([H])[H])C3([H])[N+]([H])([H])[H])c([H])c([H])c2C1([H])[H]

>  <smiles>  (88) 
[H]c1c([H])c([H])c2c(c1[H])C([H])([H])C([H])([H])C([H])([H])C2([H])N([H])C(=O)C1([H])N(C(=O)C([H])(N([H])C(=O)C([H])(N([H])C([H])([H])[H])C([H])([H])[H])C(C([H])([H])[H])(C([H])([H])[H])C([H])([H])[H])C([H])([H])c2c([H])c(OC([H])([H])C([H])([H])C3([H])C(=O)C([H])([H])C([H])(C(=O)N4C([H])([H])C([H])([H])C([H])([H])C([H])(n5nc(-c6c([H])c([H])c(Oc7c([H])c([H])c(F)c([H])c7F)c([H])c6[H])c(C(=O)N([H])[H])c5N([H])[H])C4([H])[H])C3([H])[N+]([H])([H])[H])c([H])c([H])c2C1([H])[H]

$$$$
88:0:0
     RDKit          3D

 89 97  0  0  1  0  0  0  0  0999 V2000
  -28.3090  -21.8740   20.5570 C   0  0  0  0  0  2  0  0  0  0  0  0
  -30.2090  -23.0960   19.7150 C   0  0  0  0  0  2  0  0  0  0  0  0
  -29.2720  -20.7700   19.8640 C   0  0  0  0  0  3  0  0  0  0  0  0
  -28.8900  -23.3900   20.4900 C   0  0  0  0  0  3  0  0  0  0  0  0
  -30.4470  -21.6090   19.5120 N   0  0  0  0  0  4  0  0  0  0  0  0
  -31.1960  -21.3210   20.1220 H   0  0  0  0  0  0  0  0  0  0  0  0
  -30.7420  -21.4140   18.5690 H   0  0  0  0  0  0  0  0  0  0  0  0
  -29.6800  -19.3070   20.5940 C   0  0  0  0  0  0  0  0  0  0  0  0
  -29.8170  -19.2800   21.8200 O   0  0  0  0  0  0  0  0  0  0  0  0
  -29.9740  -17.8750   19.8310 C   0  0  0  0  0  2  0  0  0  0  0  0
  -29.9110  -16.3660   20.5700 C   0  0  0  0  0  2  0  0  0  0  0  0
  -30.6480  -14.9800   20.0530 C   0  0  0  0  0  0  0  0  0  0  0  0
  -30.4760  -12.6560   19.0520 C   0  0  0  0  0  2  0  0  0  0  0  0
  -29.4810  -12.6630   17.8660 C   0  0  0  0  0  2  0  0  0  0  0  0
  -28.0350  -12.4610   18.3590 C   0  0  0  0  0  2  0  0  0  0  0  0
  -27.6980  -13.3530   19.5830 C   0  0  0  0  0  3  0  0  0  0  0  0
  -28.8070  -13.3080   20.6570 C   0  0  0  0  0  2  0  0  0  0  0  0
  -30.0620  -13.7180   20.0140 N   0  0  0  0  0  0  0  0  0  0  0  0
  -31.7970  -15.0720   19.6130 O   0  0  0  0  0  0  0  0  0  0  0  0
  -25.3450  -13.9140   20.4240 C   0  0  0  0  0  0  0  0  0  0  0  0
  -24.2980  -13.1310   20.8280 C   0  0  0  0  0  0  0  0  0  0  0  0
  -24.7650  -11.7820   20.7610 C   0  0  0  0  0  0  0  0  0  0  0  0
  -26.3820  -13.0450   20.1320 N   0  0  0  0  0  0  0  0  0  0  0  0
  -26.0430  -11.7550   20.3980 N   0  0  0  0  0  0  0  0  0  0  0  0
  -24.0500  -10.5150   20.9660 C   0  0  0  0  0  0  0  0  0  0  0  0
  -24.4930   -9.5600   21.9070 C   0  0  0  0  0  3  0  0  0  0  0  0
  -23.7740   -8.3590   22.0990 C   0  0  0  0  0  3  0  0  0  0  0  0
  -22.5980   -8.1070   21.3530 C   0  0  0  0  0  0  0  0  0  0  0  0
  -22.1770   -9.0500   20.4010 C   0  0  0  0  0  3  0  0  0  0  0  0
  -22.8960  -10.2420   20.2050 C   0  0  0  0  0  3  0  0  0  0  0  0
  -21.8520   -6.9580   21.4550 O   0  0  0  0  0  0  0  0  0  0  0  0
  -21.7790   -6.2500   22.6290 C   0  0  0  0  0  0  0  0  0  0  0  0
  -21.2890   -6.8290   23.8200 C   0  0  0  0  0  3  0  0  0  0  0  0
  -21.1650   -6.0450   24.9840 C   0  0  0  0  0  3  0  0  0  0  0  0
  -21.5210   -4.6830   24.9580 C   0  0  0  0  0  0  0  0  0  0  0  0
  -22.0040   -4.1040   23.7710 C   0  0  0  0  0  3  0  0  0  0  0  0
  -22.1280   -4.8850   22.6100 C   0  0  0  0  0  0  0  0  0  0  0  0
  -22.5740   -4.3160   21.4640 F   0  0  0  0  0  0  0  0  0  0  0  0
  -21.3970   -3.9270   26.0740 F   0  0  0  0  0  0  0  0  0  0  0  0
  -22.9120  -13.6000   21.1620 C   0  0  0  0  0  0  0  0  0  0  0  0
  -22.2240  -12.8900   22.0490 N   0  0  0  0  0  0  0  0  0  0  0  0
  -22.4520  -14.6330   20.6760 O   0  0  0  0  0  0  0  0  0  0  0  0
  -22.6070  -12.0510   22.4570 H   0  0  0  0  0  0  0  0  0  0  0  0
  -21.2960  -13.1860   22.3190 H   0  0  0  0  0  0  0  0  0  0  0  0
  -25.4950  -15.2870   20.2530 N   0  0  0  0  0  0  0  0  0  0  0  0
  -24.7270  -15.9340   20.3980 H   0  0  0  0  0  0  0  0  0  0  0  0
  -26.3300  -15.7360   19.9020 H   0  0  0  0  0  0  0  0  0  0  0  0
  -27.9460  -24.7150   20.0710 C   0  0  0  0  0  2  0  0  0  0  0  0
  -28.2200  -26.2300   20.2370 O   0  0  0  0  0  0  0  0  0  0  0  0
  -24.6070  -31.8960   23.1970 C   0  0  0  0  0  0  0  0  0  0  0  0
  -27.1550  -27.1940   20.1600 C   0  0  0  0  0  0  0  0  0  0  0  0
  -23.3850  -30.4810   21.5940 C   0  0  0  0  0  3  0  0  0  0  0  0
  -24.8120  -28.9110   20.1530 C   0  0  0  0  0  0  0  0  0  0  0  0
  -25.9310  -30.7720   21.3690 C   0  0  0  0  0  2  0  0  0  0  0  0
  -26.0000  -29.3760   20.7310 C   0  0  0  0  0  0  0  0  0  0  0  0
  -27.1720  -28.5340   20.7150 C   0  0  0  0  0  3  0  0  0  0  0  0
  -25.9360  -26.8230   19.5490 C   0  0  0  0  0  3  0  0  0  0  0  0
  -24.7910  -27.6450   19.5490 C   0  0  0  0  0  3  0  0  0  0  0  0
  -23.5800  -29.7990   20.2150 C   0  0  0  0  0  2  0  0  0  0  0  0
  -24.6620  -31.0700   22.1090 N   0  0  0  0  0  0  0  0  0  0  0  0
  -23.5280  -32.1740   23.7430 O   0  0  0  0  0  0  0  0  0  0  0  0
  -22.7350  -29.4740   22.5740 C   0  0  0  0  0  0  0  0  0  0  0  0
  -21.4100  -29.2770   22.4570 N   0  0  0  0  0  0  0  0  0  0  0  0
  -23.4230  -28.8740   23.4050 O   0  0  0  0  0  0  0  0  0  0  0  0
  -20.9100  -29.8150   21.7630 H   0  0  0  0  0  0  0  0  0  0  0  0
  -18.0560  -28.0030   22.9740 C   0  0  0  0  0  0  0  0  0  0  0  0
  -20.6080  -28.3350   23.2440 C   0  0  0  0  0  3  0  0  0  0  0  0
  -20.7460  -26.8920   22.7030 C   0  0  0  0  0  2  0  0  0  0  0  0
  -19.6560  -26.5180   21.6950 C   0  0  0  0  0  2  0  0  0  0  0  0
  -18.2680  -26.6460   22.3280 C   0  0  0  0  0  2  0  0  0  0  0  0
  -19.1540  -28.8030   23.3920 C   0  0  0  0  0  0  0  0  0  0  0  0
  -18.9020  -30.0730   23.9550 C   0  0  0  0  0  3  0  0  0  0  0  0
  -17.5850  -30.5460   24.1020 C   0  0  0  0  0  3  0  0  0  0  0  0
  -16.5000  -29.7430   23.7030 C   0  0  0  0  0  3  0  0  0  0  0  0
  -16.7380  -28.4740   23.1470 C   0  0  0  0  0  3  0  0  0  0  0  0
  -25.8920  -32.5430   23.8000 C   0  0  0  0  0  3  0  0  0  0  0  0
  -26.4380  -31.7790   25.0710 C   0  0  1  0  0  0  0  0  0  0  0  0
  -25.3650  -31.5280   26.1580 C   0  0  0  0  0  1  0  0  0  0  0  0
  -27.0300  -30.4100   24.6650 C   0  0  0  0  0  1  0  0  0  0  0  0
  -27.5950  -32.5850   25.7090 C   0  0  0  0  0  1  0  0  0  0  0  0
  -25.5760  -33.9380   24.1390 N   0  0  0  0  0  0  0  0  0  0  0  0
  -25.8980  -34.9980   23.3880 C   0  0  0  0  0  0  0  0  0  0  0  0
  -26.5620  -34.9050   22.3520 O   0  0  0  0  0  0  0  0  0  0  0  0
  -24.9910  -34.0870   24.9500 H   0  0  0  0  0  0  0  0  0  0  0  0
  -24.1700  -36.7910   23.0500 C   0  0  0  0  0  1  0  0  0  0  0  0
  -25.4060  -36.3800   23.8610 C   0  0  0  0  0  3  0  0  0  0  0  0
  -27.5330  -37.2530   24.7200 C   0  0  0  0  0  1  0  0  0  0  0  0
  -26.4390  -37.4340   23.7700 N   0  0  0  0  0  0  0  0  0  0  0  0
  -26.0320  -38.3520   23.9320 H   0  0  0  0  0  0  0  0  0  0  0  0
  2  4  1  0
  3  1  1  0
  3  8  1  0
  4 48  1  0
  4  1  1  0
  5  2  1  0
  5  3  1  0
  5  6  1  0
  7  5  1  0
  8  9  2  0
 10 11  1  0
 10  8  1  0
 12 11  1  0
 13 18  1  0
 14 15  1  0
 14 13  1  0
 16 15  1  0
 16 23  1  0
 16 17  1  0
 18 12  1  0
 18 17  1  0
 19 12  2  0
 20 21  2  0
 21 40  1  0
 22 21  1  0
 22 25  1  0
 23 24  1  0
 23 20  1  0
 24 22  2  0
 25 26  1  0
 26 27  2  0
 28 31  1  0
 28 27  1  0
 29 28  2  0
 30 29  1  0
 30 25  2  0
 31 32  1  0
 32 33  1  0
 33 34  2  0
 35 34  1  0
 35 39  1  0
 36 35  2  0
 37 32  2  0
 37 36  1  0
 38 37  1  0
 40 41  1  0
 41 44  1  0
 41 43  1  0
 42 40  2  0
 45 46  1  0
 45 20  1  0
 47 45  1  0
 48 49  1  0
 50 61  2  0
 51 49  1  0
 51 56  1  0
 52 60  1  0
 52 62  1  0
 53 59  1  0
 53 55  1  0
 54 60  1  0
 55 54  1  0
 56 55  2  0
 57 51  2  0
 58 57  1  0
 58 53  2  0
 59 52  1  0
 60 50  1  0
 62 64  2  0
 63 62  1  0
 65 63  1  0
 66 75  2  0
 66 71  1  0
 67 63  1  0
 67 71  1  0
 68 67  1  0
 69 70  1  0
 69 68  1  0
 70 66  1  0
 71 72  2  0
 72 73  1  0
 74 73  2  0
 75 74  1  0
 76 50  1  0
 76 81  1  0
 76 77  1  0
 77 80  1  1
 77 78  1  0
 79 77  1  0
 81 84  1  0
 82 86  1  0
 82 81  1  0
 83 82  2  0
 86 85  1  0
 88 86  1  0
 88 89  1  0
 88 87  1  0
M  ISO  4  11 100  12 100  48 101  49 101
M  END
>  <TORSDO>  (89) 
F 20

>  <SCORE>  (89) 
-13.270

>  <name>  (89) 
88

>  <ligand_id>  (89) 
88

>  <original_smiles>  (89) 
[H]c1c([H])c([H])c2c(c1[H])C([H])([H])C([H])([H])C([H])([H])C2([H])N([H])C(=O)C1([H])N(C(=O)C([H])(N([H])C(=O)C([H])(N([H])C([H])([H])[H])C([H])([H])[H])C(C([H])([H])[H])(C([H])([H])[H])C([H])([H])[H])C([H])([H])c2c([H])c(OC([H])([H])C3([H])C([H])([H])C([H])(C(=O)C([H])([H])C([H])([H])C(=O)N4C([H])([H])C([H])([H])C([H])([H])C([H])(n5nc(-c6c([H])c([H])c(Oc7c([H])c([H])c(F)c([H])c7F)c([H])c6[H])c(C(=O)N([H])[H])c5N([H])[H])C4([H])[H])[N+]([H])([H])C3([H])[H])c([H])c([H])c2C1([H])[H]

>  <smiles>  (89) 
[H]c1c([H])c([H])c2c(c1[H])C([H])([H])C([H])([H])C([H])([H])C2([H])N([H])C(=O)C1([H])N(C(=O)C([H])(N([H])C(=O)C([H])(N([H])C([H])([H])[H])C([H])([H])[H])C(C([H])([H])[H])(C([H])([H])[H])C([H])([H])[H])C([H])([H])c2c([H])c(OC([H])([H])C3([H])C([H])([H])C([H])(C(=O)C([H])([H])C([H])([H])C(=O)N4C([H])([H])C([H])([H])C([H])([H])C([H])(n5nc(-c6c([H])c([H])c(Oc7c([H])c([H])c(F)c([H])c7F)c([H])c6[H])c(C(=O)N([H])[H])c5N([H])[H])C4([H])[H])[N+]([H])([H])C3([H])[H])c([H])c([H])c2C1([H])[H]

$$$$
89:0:0
     RDKit          3D

 87 95  0  0  1  0  0  0  0  0999 V2000
  -29.3420  -21.6150   22.0630 C   0  0  0  0  0  1  0  0  0  0  0  0
  -28.6780  -21.5450   20.6820 C   0  0  0  0  0  3  0  0  0  0  0  0
  -30.5760  -15.2070   19.9280 C   0  0  0  0  0  0  0  0  0  0  0  0
  -30.3750  -12.8430   18.9600 C   0  0  0  0  0  2  0  0  0  0  0  0
  -29.3830  -12.7580   17.7810 C   0  0  0  0  0  2  0  0  0  0  0  0
  -27.9590  -12.4960   18.3010 C   0  0  0  0  0  2  0  0  0  0  0  0
  -27.6020  -13.4090   19.5040 C   0  0  0  0  0  3  0  0  0  0  0  0
  -28.7240  -13.4840   20.5660 C   0  0  0  0  0  2  0  0  0  0  0  0
  -29.9250  -13.9580   19.8630 N   0  0  0  0  0  0  0  0  0  0  0  0
  -31.7630  -15.1570   19.5720 O   0  0  0  0  0  0  0  0  0  0  0  0
  -28.3170  -18.6440   20.7960 C   0  0  0  0  0  2  0  0  0  0  0  0
  -30.3750  -19.2760   19.7670 C   0  0  0  0  0  2  0  0  0  0  0  0
  -29.0880  -17.1940   21.0460 C   0  0  0  0  0  2  0  0  0  0  0  0
  -30.4560  -17.7350   19.1950 C   0  0  0  0  0  2  0  0  0  0  0  0
  -28.9620  -19.9370   20.0540 C   0  0  0  0  0  3  0  0  0  0  0  0
  -29.9280  -16.5220   19.9690 N   0  0  0  0  0  0  0  0  0  0  0  0
  -25.2900  -13.9380   20.4420 C   0  0  0  0  0  0  0  0  0  0  0  0
  -24.2560  -13.1440   20.8510 C   0  0  0  0  0  0  0  0  0  0  0  0
  -24.7200  -11.7970   20.7350 C   0  0  0  0  0  0  0  0  0  0  0  0
  -26.3110  -13.0770   20.0890 N   0  0  0  0  0  0  0  0  0  0  0  0
  -25.9860  -11.7790   20.3330 N   0  0  0  0  0  0  0  0  0  0  0  0
  -24.0090  -10.5250   20.9280 C   0  0  0  0  0  0  0  0  0  0  0  0
  -24.4570   -9.5600   21.8560 C   0  0  0  0  0  3  0  0  0  0  0  0
  -23.7410   -8.3560   22.0350 C   0  0  0  0  0  3  0  0  0  0  0  0
  -22.5650   -8.1060   21.2860 C   0  0  0  0  0  0  0  0  0  0  0  0
  -22.1370   -9.0610   20.3470 C   0  0  0  0  0  3  0  0  0  0  0  0
  -22.8530  -10.2560   20.1670 C   0  0  0  0  0  3  0  0  0  0  0  0
  -21.8230   -6.9540   21.3760 O   0  0  0  0  0  0  0  0  0  0  0  0
  -21.7170   -6.2560   22.5530 C   0  0  0  0  0  0  0  0  0  0  0  0
  -21.2050   -6.8500   23.7280 C   0  0  0  0  0  3  0  0  0  0  0  0
  -21.0480   -6.0770   24.8940 C   0  0  0  0  0  3  0  0  0  0  0  0
  -21.3920   -4.7110   24.8880 C   0  0  0  0  0  0  0  0  0  0  0  0
  -21.8980   -4.1170   23.7180 C   0  0  0  0  0  3  0  0  0  0  0  0
  -22.0570   -4.8870   22.5530 C   0  0  0  0  0  0  0  0  0  0  0  0
  -22.5250   -4.3050   21.4220 F   0  0  0  0  0  0  0  0  0  0  0  0
  -21.2320   -3.9690   26.0080 F   0  0  0  0  0  0  0  0  0  0  0  0
  -22.8820  -13.6040   21.2340 C   0  0  0  0  0  0  0  0  0  0  0  0
  -22.2120  -12.8740   22.1170 N   0  0  0  0  0  0  0  0  0  0  0  0
  -22.4140  -14.6480   20.7820 O   0  0  0  0  0  0  0  0  0  0  0  0
  -22.6070  -12.0350   22.5160 H   0  0  0  0  0  0  0  0  0  0  0  0
  -21.2880  -13.1630   22.4080 H   0  0  0  0  0  0  0  0  0  0  0  0
  -25.4400  -15.3170   20.3130 N   0  0  0  0  0  0  0  0  0  0  0  0
  -24.6910  -15.9650   20.5280 H   0  0  0  0  0  0  0  0  0  0  0  0
  -26.2670  -15.7800   19.9620 H   0  0  0  0  0  0  0  0  0  0  0  0
  -28.8500  -23.1370   20.0140 C   0  0  0  0  0  3  0  0  0  0  0  0
  -28.0030  -24.5840   20.4610 C   0  0  0  0  0  3  0  0  0  0  0  0
  -28.2810  -26.1350   20.1990 O   0  0  0  0  0  0  0  0  0  0  0  0
  -24.6670  -31.9220   23.2060 C   0  0  0  0  0  0  0  0  0  0  0  0
  -27.2430  -27.1610   20.1810 C   0  0  0  0  0  0  0  0  0  0  0  0
  -23.4680  -30.5170   21.5760 C   0  0  0  0  0  3  0  0  0  0  0  0
  -24.9190  -28.9420   20.1450 C   0  0  0  0  0  0  0  0  0  0  0  0
  -26.0220  -30.7820   21.4000 C   0  0  0  0  0  2  0  0  0  0  0  0
  -26.1020  -29.3820   20.7540 C   0  0  0  0  0  0  0  0  0  0  0  0
  -27.2640  -28.5080   20.7520 C   0  0  0  0  0  3  0  0  0  0  0  0
  -26.0370  -26.8480   19.5180 C   0  0  0  0  0  3  0  0  0  0  0  0
  -24.9070  -27.6940   19.5080 C   0  0  0  0  0  3  0  0  0  0  0  0
  -23.6880  -29.8370   20.1980 C   0  0  0  0  0  2  0  0  0  0  0  0
  -24.7400  -31.0980   22.1150 N   0  0  0  0  0  0  0  0  0  0  0  0
  -23.5820  -32.1990   23.7380 O   0  0  0  0  0  0  0  0  0  0  0  0
  -22.8020  -29.5110   22.5460 C   0  0  0  0  0  0  0  0  0  0  0  0
  -21.4760  -29.3200   22.4230 N   0  0  0  0  0  0  0  0  0  0  0  0
  -23.4830  -28.9010   23.3740 O   0  0  0  0  0  0  0  0  0  0  0  0
  -20.9830  -29.8680   21.7330 H   0  0  0  0  0  0  0  0  0  0  0  0
  -18.1130  -28.0690   22.9390 C   0  0  0  0  0  0  0  0  0  0  0  0
  -20.6680  -28.3740   23.1980 C   0  0  0  0  0  3  0  0  0  0  0  0
  -20.7880  -26.9410   22.6310 C   0  0  0  0  0  2  0  0  0  0  0  0
  -19.6890  -26.5960   21.6200 C   0  0  0  0  0  2  0  0  0  0  0  0
  -18.3070  -26.7210   22.2660 C   0  0  0  0  0  2  0  0  0  0  0  0
  -19.2200  -28.8520   23.3610 C   0  0  0  0  0  0  0  0  0  0  0  0
  -18.9800  -30.1090   23.9540 C   0  0  0  0  0  3  0  0  0  0  0  0
  -17.6680  -30.5880   24.1240 C   0  0  0  0  0  3  0  0  0  0  0  0
  -16.5760  -29.8040   23.7140 C   0  0  0  0  0  3  0  0  0  0  0  0
  -16.7980  -28.5460   23.1290 C   0  0  0  0  0  3  0  0  0  0  0  0
  -25.9430  -32.5710   23.8260 C   0  0  0  0  0  3  0  0  0  0  0  0
  -25.6160  -33.9680   24.1600 N   0  0  0  0  0  0  0  0  0  0  0  0
  -25.9340  -35.0310   23.4090 C   0  0  0  0  0  0  0  0  0  0  0  0
  -26.5950  -34.9390   22.3710 O   0  0  0  0  0  0  0  0  0  0  0  0
  -25.0320  -34.1140   24.9700 H   0  0  0  0  0  0  0  0  0  0  0  0
  -24.1920  -36.8190   23.0790 C   0  0  0  0  0  1  0  0  0  0  0  0
  -25.4410  -36.4130   23.8790 C   0  0  0  0  0  3  0  0  0  0  0  0
  -27.5720  -37.3160   24.7040 C   0  0  0  0  0  1  0  0  0  0  0  0
  -26.4650  -37.4750   23.7650 N   0  0  0  0  0  0  0  0  0  0  0  0
  -26.0520  -38.3920   23.9130 H   0  0  0  0  0  0  0  0  0  0  0  0
  -26.4670  -31.8100   25.1070 C   0  0  1  0  0  0  0  0  0  0  0  0
  -25.3770  -31.5630   26.1750 C   0  0  0  0  0  1  0  0  0  0  0  0
  -27.0660  -30.4360   24.7250 C   0  0  0  0  0  1  0  0  0  0  0  0
  -27.6070  -32.6200   25.7680 C   0  0  0  0  0  1  0  0  0  0  0  0
  2  1  1  0
  3 16  1  0
  4  9  1  0
  5  6  1  0
  5  4  1  0
  7  6  1  0
  7 20  1  0
  7  8  1  0
  9  3  1  0
  9  8  1  0
 10  3  2  0
 11 13  1  0
 12 15  1  0
 14 12  1  0
 14 16  1  0
 15  2  1  0
 15 11  1  0
 16 13  1  0
 17 18  2  0
 18 37  1  0
 19 18  1  0
 19 22  1  0
 20 21  1  0
 20 17  1  0
 21 19  2  0
 22 23  1  0
 23 24  2  0
 25 28  1  0
 25 24  1  0
 26 25  2  0
 27 26  1  0
 27 22  2  0
 28 29  1  0
 29 34  2  0
 29 30  1  0
 30 31  2  0
 32 31  1  0
 32 36  1  0
 33 32  2  0
 34 33  1  0
 35 34  1  0
 37 38  1  0
 38 41  1  0
 38 40  1  0
 39 37  2  0
 42 17  1  0
 42 43  1  0
 44 42  1  0
 45 46  2  0
 45  2  1  0
 47 46  1  0
 48 59  2  0
 49 47  1  0
 49 54  1  0
 50 58  1  0
 50 60  1  0
 51 57  1  0
 51 53  1  0
 52 58  1  0
 53 52  1  0
 54 53  2  0
 55 49  2  0
 56 55  1  0
 56 51  2  0
 57 50  1  0
 58 48  1  0
 60 62  2  0
 61 60  1  0
 63 61  1  0
 64 73  2  0
 64 69  1  0
 65 61  1  0
 65 69  1  0
 66 65  1  0
 67 68  1  0
 67 66  1  0
 68 64  1  0
 69 70  2  0
 70 71  1  0
 72 71  2  0
 73 72  1  0
 74 48  1  0
 74 75  1  0
 74 84  1  0
 75 78  1  0
 76 80  1  0
 76 75  1  0
 77 76  2  0
 80 79  1  0
 82 80  1  0
 82 83  1  0
 82 81  1  0
 84 87  1  1
 84 85  1  0
 86 84  1  0
M  ISO  4   3 100  16 100  46 101  47 101
M  END
>  <TORSDO>  (90) 
F 18

>  <SCORE>  (90) 
-15.876

>  <name>  (90) 
89

>  <ligand_id>  (90) 
89

>  <original_smiles>  (90) 
[H]c1c([H])c([H])c2c(c1[H])C([H])([H])C([H])([H])C([H])([H])C2([H])N([H])C(=O)C1([H])N(C(=O)C([H])(N([H])C(=O)C([H])(N([H])C([H])([H])[H])C([H])([H])[H])C(C([H])([H])[H])(C([H])([H])[H])C([H])([H])[H])C([H])([H])c2c([H])c(OC([H])([H])C([H])([H])C([H])(C([H])([H])[H])C3([H])C([H])([H])C([H])([H])N(C(=O)N4C([H])([H])C([H])([H])C([H])([H])C([H])(n5nc(-c6c([H])c([H])c(Oc7c([H])c([H])c(F)c([H])c7F)c([H])c6[H])c(C(=O)N([H])[H])c5N([H])[H])C4([H])[H])C([H])([H])C3([H])[H])c([H])c([H])c2C1([H])[H]

>  <smiles>  (90) 
[H]c1c([H])c([H])c2c(c1[H])C([H])([H])C([H])([H])C([H])([H])C2([H])N([H])C(=O)C1([H])N(C(=O)C([H])(N([H])C(=O)C([H])(N([H])C([H])([H])[H])C([H])([H])[H])C(C([H])([H])[H])(C([H])([H])[H])C([H])([H])[H])C([H])([H])c2c([H])c(OC([H])([H])C([H])([H])C([H])(C([H])([H])[H])C3([H])C([H])([H])C([H])([H])N(C(=O)N4C([H])([H])C([H])([H])C([H])([H])C([H])(n5nc(-c6c([H])c([H])c(Oc7c([H])c([H])c(F)c([H])c7F)c([H])c6[H])c(C(=O)N([H])[H])c5N([H])[H])C4([H])[H])C([H])([H])C3([H])[H])c([H])c([H])c2C1([H])[H]

$$$$
90:0:0
     RDKit          3D

 86 94  0  0  1  0  0  0  0  0999 V2000
  -28.4490  -19.4140   19.7960 C   0  0  0  0  0  2  0  0  0  0  0  0
  -29.2070  -20.8540   20.1540 C   0  0  0  0  0  3  0  0  0  0  0  0
  -29.9890  -19.6510   21.0330 C   0  0  0  0  0  3  0  0  0  0  0  0
  -29.7140  -18.3610   20.0360 C   0  0  0  0  0  3  0  0  0  0  0  0
  -31.4370  -19.9030   21.4210 C   0  0  0  0  0  1  0  0  0  0  0  0
  -30.3830  -15.4130   20.2710 C   0  0  0  0  0  0  0  0  0  0  0  0
  -30.4070  -12.9370   19.4270 C   0  0  0  0  0  2  0  0  0  0  0  0
  -29.4980  -12.6880   18.1940 C   0  0  0  0  0  2  0  0  0  0  0  0
  -28.0550  -12.3890   18.6330 C   0  0  0  0  0  2  0  0  0  0  0  0
  -27.5840  -13.3570   19.7460 C   0  0  0  0  0  3  0  0  0  0  0  0
  -28.6240  -13.5440   20.8740 C   0  0  0  0  0  2  0  0  0  0  0  0
  -29.8430  -14.0840   20.2450 N   0  0  0  0  0  0  0  0  0  0  0  0
  -31.5940  -15.4100   19.9990 O   0  0  0  0  0  0  0  0  0  0  0  0
  -29.6100  -16.7000   20.4080 N   0  0  0  0  0  0  0  0  0  0  0  0
  -28.6680  -16.4690   20.6890 H   0  0  0  0  0  0  0  0  0  0  0  0
  -25.2110  -13.8940   20.4960 C   0  0  0  0  0  0  0  0  0  0  0  0
  -24.1540  -13.1100   20.8610 C   0  0  0  0  0  0  0  0  0  0  0  0
  -24.6300  -11.7630   20.8320 C   0  0  0  0  0  0  0  0  0  0  0  0
  -26.2590  -13.0260   20.2520 N   0  0  0  0  0  0  0  0  0  0  0  0
  -25.9230  -11.7380   20.5240 N   0  0  0  0  0  0  0  0  0  0  0  0
  -23.9100  -10.4960   21.0180 C   0  0  0  0  0  0  0  0  0  0  0  0
  -24.3350   -9.5340   21.9610 C   0  0  0  0  0  3  0  0  0  0  0  0
  -23.6100   -8.3350   22.1380 C   0  0  0  0  0  3  0  0  0  0  0  0
  -22.4460   -8.0890   21.3710 C   0  0  0  0  0  0  0  0  0  0  0  0
  -22.0400   -9.0400   20.4180 C   0  0  0  0  0  3  0  0  0  0  0  0
  -22.7660  -10.2300   20.2400 C   0  0  0  0  0  3  0  0  0  0  0  0
  -21.6940   -6.9420   21.4570 O   0  0  0  0  0  0  0  0  0  0  0  0
  -21.6240   -6.2130   22.6150 C   0  0  0  0  0  0  0  0  0  0  0  0
  -21.1540   -6.7750   23.8230 C   0  0  0  0  0  3  0  0  0  0  0  0
  -21.0320   -5.9710   24.9740 C   0  0  0  0  0  3  0  0  0  0  0  0
  -21.3690   -4.6050   24.9170 C   0  0  0  0  0  0  0  0  0  0  0  0
  -21.8330   -4.0420   23.7150 C   0  0  0  0  0  3  0  0  0  0  0  0
  -21.9560   -4.8430   22.5670 C   0  0  0  0  0  0  0  0  0  0  0  0
  -22.3830   -4.2910   21.4060 F   0  0  0  0  0  0  0  0  0  0  0  0
  -21.2440   -3.8300   26.0200 F   0  0  0  0  0  0  0  0  0  0  0  0
  -22.7530  -13.5790   21.1230 C   0  0  0  0  0  0  0  0  0  0  0  0
  -22.0210  -12.8790   21.9820 N   0  0  0  0  0  0  0  0  0  0  0  0
  -22.3170  -14.6040   20.6010 O   0  0  0  0  0  0  0  0  0  0  0  0
  -22.3870  -12.0510   22.4260 H   0  0  0  0  0  0  0  0  0  0  0  0
  -21.0810  -13.1780   22.1990 H   0  0  0  0  0  0  0  0  0  0  0  0
  -25.3620  -15.2660   20.3170 N   0  0  0  0  0  0  0  0  0  0  0  0
  -24.5840  -15.9070   20.4180 H   0  0  0  0  0  0  0  0  0  0  0  0
  -26.1910  -15.7070   19.9400 H   0  0  0  0  0  0  0  0  0  0  0  0
  -28.6880  -22.5470   20.7110 C   0  0  0  0  0  2  0  0  0  0  0  0
  -28.1510  -24.1510   19.9750 C   0  0  0  0  0  2  0  0  0  0  0  0
  -28.1790  -25.7850   20.3930 O   0  0  0  0  0  0  0  0  0  0  0  0
  -24.6020  -31.8490   23.2400 C   0  0  0  0  0  0  0  0  0  0  0  0
  -27.1750  -26.9060   20.2680 C   0  0  0  0  0  0  0  0  0  0  0  0
  -23.4220  -30.4420   21.6020 C   0  0  0  0  0  3  0  0  0  0  0  0
  -24.8810  -28.8230   20.1940 C   0  0  0  0  0  0  0  0  0  0  0  0
  -25.9910  -30.6390   21.4770 C   0  0  0  0  0  2  0  0  0  0  0  0
  -26.0650  -29.2200   20.8260 C   0  0  0  0  0  0  0  0  0  0  0  0
  -27.2000  -28.2820   20.8410 C   0  0  0  0  0  3  0  0  0  0  0  0
  -25.9650  -26.6790   19.5730 C   0  0  0  0  0  3  0  0  0  0  0  0
  -24.8610  -27.5760   19.5460 C   0  0  0  0  0  3  0  0  0  0  0  0
  -23.6630  -29.7480   20.2310 C   0  0  0  0  0  2  0  0  0  0  0  0
  -24.6940  -31.0060   22.1600 N   0  0  0  0  0  0  0  0  0  0  0  0
  -23.5080  -32.1420   23.7510 O   0  0  0  0  0  0  0  0  0  0  0  0
  -22.7190  -29.4550   22.5700 C   0  0  0  0  0  0  0  0  0  0  0  0
  -21.3880  -29.2930   22.4430 N   0  0  0  0  0  0  0  0  0  0  0  0
  -23.3780  -28.8340   23.4080 O   0  0  0  0  0  0  0  0  0  0  0  0
  -20.9070  -29.8450   21.7460 H   0  0  0  0  0  0  0  0  0  0  0  0
  -18.0010  -28.0890   22.9490 C   0  0  0  0  0  0  0  0  0  0  0  0
  -20.5610  -28.3590   23.2160 C   0  0  0  0  0  3  0  0  0  0  0  0
  -20.6640  -26.9240   22.6450 C   0  0  0  0  0  2  0  0  0  0  0  0
  -19.5640  -26.5980   21.6310 C   0  0  0  0  0  2  0  0  0  0  0  0
  -18.1810  -26.7410   22.2730 C   0  0  0  0  0  2  0  0  0  0  0  0
  -19.1190  -28.8550   23.3790 C   0  0  0  0  0  0  0  0  0  0  0  0
  -18.8940  -30.1160   23.9750 C   0  0  0  0  0  3  0  0  0  0  0  0
  -17.5870  -30.6090   24.1470 C   0  0  0  0  0  3  0  0  0  0  0  0
  -16.4850  -29.8410   23.7300 C   0  0  0  0  0  3  0  0  0  0  0  0
  -16.6940  -28.5830   23.1390 C   0  0  0  0  0  3  0  0  0  0  0  0
  -25.8660  -32.4990   23.8800 C   0  0  0  0  0  3  0  0  0  0  0  0
  -25.5480  -33.9050   24.1890 N   0  0  0  0  0  0  0  0  0  0  0  0
  -25.8960  -34.9570   23.4360 C   0  0  0  0  0  0  0  0  0  0  0  0
  -26.5780  -34.8450   22.4140 O   0  0  0  0  0  0  0  0  0  0  0  0
  -24.9410  -34.0640   24.9800 H   0  0  0  0  0  0  0  0  0  0  0  0
  -24.1850  -36.7670   23.0580 C   0  0  0  0  0  1  0  0  0  0  0  0
  -25.4140  -36.3520   23.8830 C   0  0  0  0  0  3  0  0  0  0  0  0
  -27.5400  -37.2360   24.7390 C   0  0  0  0  0  1  0  0  0  0  0  0
  -26.4560  -37.3990   23.7750 N   0  0  0  0  0  0  0  0  0  0  0  0
  -26.0520  -38.3240   23.9030 H   0  0  0  0  0  0  0  0  0  0  0  0
  -26.3510  -31.7560   25.1860 C   0  0  1  0  0  0  0  0  0  0  0  0
  -25.2340  -31.5500   26.2380 C   0  0  0  0  0  1  0  0  0  0  0  0
  -26.9340  -30.3640   24.8490 C   0  0  0  0  0  1  0  0  0  0  0  0
  -27.4920  -32.5590   25.8530 C   0  0  0  0  0  1  0  0  0  0  0  0
  1  4  1  0
  1  2  1  0
  2 44  1  0
  2  3  1  0
  3  5  1  0
  4 14  1  0
  4  3  1  0
  6 14  1  0
  7 12  1  0
  8  9  1  0
  8  7  1  0
 10  9  1  0
 10 19  1  0
 10 11  1  0
 12  6  1  0
 12 11  1  0
 13  6  2  0
 14 15  1  0
 16 17  2  0
 17 36  1  0
 18 17  1  0
 18 21  1  0
 19 16  1  0
 19 20  1  0
 20 18  2  0
 21 22  1  0
 22 23  2  0
 24 27  1  0
 24 23  1  0
 25 24  2  0
 26 25  1  0
 26 21  2  0
 27 28  1  0
 28 29  1  0
 29 30  2  0
 31 30  1  0
 31 35  1  0
 32 31  2  0
 33 28  2  0
 33 32  1  0
 34 33  1  0
 36 37  1  0
 37 40  1  0
 37 39  1  0
 38 36  2  0
 41 42  1  0
 41 16  1  0
 43 41  1  0
 45 46  1  0
 45 44  1  0
 47 58  2  0
 48 46  1  0
 48 53  1  0
 49 57  1  0
 49 59  1  0
 50 56  1  0
 50 52  1  0
 51 57  1  0
 52 53  2  0
 52 51  1  0
 54 48  2  0
 55 54  1  0
 55 50  2  0
 56 49  1  0
 57 47  1  0
 59 61  2  0
 60 59  1  0
 62 60  1  0
 63 72  2  0
 63 68  1  0
 64 60  1  0
 64 68  1  0
 65 64  1  0
 66 67  1  0
 66 65  1  0
 67 63  1  0
 68 69  2  0
 69 70  1  0
 71 70  2  0
 72 71  1  0
 73 47  1  0
 73 74  1  0
 73 83  1  0
 74 77  1  0
 75 79  1  0
 75 74  1  0
 76 75  2  0
 79 78  1  0
 81 79  1  0
 81 82  1  0
 81 80  1  0
 83 86  1  1
 83 84  1  0
 85 83  1  0
M  ISO  4   6 100  14 100  45 101  46 101
M  END
>  <TORSDO>  (91) 
F 18

>  <SCORE>  (91) 
-16.524

>  <name>  (91) 
90

>  <ligand_id>  (91) 
90

>  <original_smiles>  (91) 
[H]c1c([H])c([H])c2c(c1[H])C([H])([H])C([H])([H])C([H])([H])C2([H])N([H])C(=O)C1([H])N(C(=O)C([H])(N([H])C(=O)C([H])(N([H])C([H])([H])[H])C([H])([H])[H])C(C([H])([H])[H])(C([H])([H])[H])C([H])([H])[H])C([H])([H])c2c([H])c(OC([H])([H])C([H])([H])C3([H])C([H])([H])C([H])(N([H])C(=O)N4C([H])([H])C([H])([H])C([H])([H])C([H])(n5nc(-c6c([H])c([H])c(Oc7c([H])c([H])c(F)c([H])c7F)c([H])c6[H])c(C(=O)N([H])[H])c5N([H])[H])C4([H])[H])C3([H])C([H])([H])[H])c([H])c([H])c2C1([H])[H]

>  <smiles>  (91) 
[H]c1c([H])c([H])c2c(c1[H])C([H])([H])C([H])([H])C([H])([H])C2([H])N([H])C(=O)C1([H])N(C(=O)C([H])(N([H])C(=O)C([H])(N([H])C([H])([H])[H])C([H])([H])[H])C(C([H])([H])[H])(C([H])([H])[H])C([H])([H])[H])C([H])([H])c2c([H])c(OC([H])([H])C([H])([H])C3([H])C([H])([H])C([H])(N([H])C(=O)N4C([H])([H])C([H])([H])C([H])([H])C([H])(n5nc(-c6c([H])c([H])c(Oc7c([H])c([H])c(F)c([H])c7F)c([H])c6[H])c(C(=O)N([H])[H])c5N([H])[H])C4([H])[H])C3([H])C([H])([H])[H])c([H])c([H])c2C1([H])[H]

$$$$
91:0:0
     RDKit          3D

 91 90  0  0  1  0  0  0  0  0999 V2000
  -31.4780  -24.2750   17.6400 C   0  0  0  0  0  2  0  0  0  0  0  0
  -31.1600  -22.3940   15.9180 C   0  0  0  0  0  1  0  0  0  0  0  0
  -31.7030  -22.7900   17.3110 C   0  0  0  0  0  3  0  0  0  0  0  0
  -31.2340  -21.8550   18.4560 C   0  0  0  0  0  2  0  0  0  0  0  0
  -29.6380  -21.7590   18.7530 C   0  0  0  0  0  1  0  0  0  0  0  0
  -27.9200  -23.8260   20.2580 O   0  0  0  0  0 15  0  0  0  0  0  0
  -24.7150  -31.6300   22.9620 C   0  0  0  0  0  0  0  0  0  0  0  0
  -27.2450  -25.6060   20.1360 C   0  0  0  0  0  3  0  0  0  0  0  0
  -23.5760  -30.1700   21.3540 C   0  0  0  0  0  3  0  0  0  0  0  0
  -25.0520  -28.2890   20.0310 C   0  0  0  0  0  0  0  0  0  0  0  0
  -26.1820  -30.0030   21.3850 C   0  0  0  0  0  2  0  0  0  0  0  0
  -26.2490  -28.4490   20.7450 C   0  0  0  0  0  0  0  0  0  0  0  0
  -27.2490  -27.1670   20.7660 C   0  0  0  0  0  3  0  0  0  0  0  0
  -26.0400  -25.9550   19.3430 C   0  0  0  0  0  3  0  0  0  0  0  0
  -25.0510  -27.0700   19.3040 C   0  0  0  0  0  3  0  0  0  0  0  0
  -23.8760  -29.3530   20.0390 C   0  0  0  0  0  2  0  0  0  0  0  0
  -24.8610  -30.6620   21.9520 N   0  0  0  0  0  0  0  0  0  0  0  0
  -23.5980  -31.9790   23.4020 O   0  0  0  0  0  0  0  0  0  0  0  0
  -22.7500  -29.3160   22.3650 C   0  0  0  0  0  0  0  0  0  0  0  0
  -21.4050  -29.2540   22.2630 N   0  0  0  0  0  0  0  0  0  0  0  0
  -23.3610  -28.6900   23.2320 O   0  0  0  0  0  0  0  0  0  0  0  0
  -20.9500  -29.8140   21.5550 H   0  0  0  0  0  0  0  0  0  0  0  0
  -17.9710  -28.1530   22.8850 C   0  0  0  0  0  0  0  0  0  0  0  0
  -20.5490  -28.3490   23.0560 C   0  0  0  0  0  3  0  0  0  0  0  0
  -20.5790  -26.9160   22.4710 C   0  0  0  0  0  2  0  0  0  0  0  0
  -19.4400  -26.6430   21.4840 C   0  0  0  0  0  2  0  0  0  0  0  0
  -18.0830  -26.8140   22.1730 C   0  0  0  0  0  2  0  0  0  0  0  0
  -19.1250  -28.8810   23.2810 C   0  0  0  0  0  0  0  0  0  0  0  0
  -18.9550  -30.1270   23.9220 C   0  0  0  0  0  3  0  0  0  0  0  0
  -17.6690  -30.6470   24.1610 C   0  0  0  0  0  3  0  0  0  0  0  0
  -16.5300  -29.9180   23.7730 C   0  0  0  0  0  3  0  0  0  0  0  0
  -16.6840  -28.6710   23.1380 C   0  0  0  0  0  3  0  0  0  0  0  0
  -25.9220  -32.3550   23.6430 C   0  0  0  0  0  3  0  0  0  0  0  0
  -26.4010  -31.6330   24.9640 C   0  0  1  0  0  0  0  0  0  0  0  0
  -25.2780  -31.4210   26.0090 C   0  0  0  0  0  1  0  0  0  0  0  0
  -27.0100  -30.2490   24.6600 C   0  0  0  0  0  1  0  0  0  0  0  0
  -27.5250  -32.4550   25.6380 C   0  0  0  0  0  1  0  0  0  0  0  0
  -25.5440  -33.7540   23.9870 N   0  0  0  0  0  0  0  0  0  0  0  0
  -25.8810  -34.8610   23.3070 C   0  0  0  0  0  0  0  0  0  0  0  0
  -26.5700  -34.8160   22.2850 O   0  0  0  0  0  0  0  0  0  0  0  0
  -24.9230  -33.8570   24.7760 H   0  0  0  0  0  0  0  0  0  0  0  0
  -24.1370  -36.6780   23.0480 C   0  0  0  0  0  1  0  0  0  0  0  0
  -25.3840  -36.2340   23.8290 C   0  0  0  0  0  3  0  0  0  0  0  0
  -27.5150  -37.1270   24.6850 C   0  0  0  0  0  1  0  0  0  0  0  0
  -26.4040  -37.3060   23.7540 N   0  0  0  0  0  0  0  0  0  0  0  0
  -25.9830  -38.2140   23.9340 H   0  0  0  0  0  0  0  0  0  0  0  0
  -29.9960  -24.6560   17.6790 C   0  0  0  0  0  2  0  0  0  0  0  0
  -29.7360  -17.4430   20.4440 C   0  0  0  0  0  2  0  0  0  0  0  0
  -30.3410  -14.4900   19.8290 C   0  0  0  0  0  2  0  0  0  0  0  0
  -29.8080  -13.3460   18.8170 C   0  0  0  0  0  2  0  0  0  0  0  0
  -28.5530  -12.6140   19.2880 C   0  0  0  0  0  2  0  0  0  0  0  0
  -27.7150  -13.6650   20.0230 C   0  0  0  0  0  3  0  0  0  0  0  0
  -28.4920  -14.6860   21.0060 C   0  0  0  0  0  2  0  0  0  0  0  0
  -29.3980  -15.7850   20.3000 N   0  0  0  0  0  0  0  0  0  0  0  0
  -30.9640  -17.0760   20.6200 O   0  0  0  0  0  1  0  0  0  0  0  0
  -27.7860  -20.5340   19.5410 C   0  0  0  0  0 15  0  0  0  0  0  0
  -27.6580  -22.5660   18.5090 C   0  0  0  0  0 15  0  0  0  0  0  0
  -29.9390  -23.2590   20.6040 C   0  0  0  0  0 15  0  0  0  0  0  0
  -29.6460  -21.0600   21.1670 C   0  0  0  0  0  1  0  0  0  0  0  0
  -30.7420  -20.7280   22.1900 C   0  0  0  0  0  1  0  0  0  0  0  0
  -29.1220  -19.3240   20.3640 N   0  0  0  0  0 15  0  0  0  0  0  0
  -29.2370  -23.9520   18.7400 N   0  0  0  0  0  2  0  0  0  0  0  0
  -28.6740  -24.7240   19.0770 H   0  0  0  0  0  0  0  0  0  0  0  0
  -25.2850  -13.9450   20.6120 C   0  0  0  0  0  0  0  0  0  0  0  0
  -24.2500  -13.1170   20.9260 C   0  0  0  0  0  0  0  0  0  0  0  0
  -24.7900  -11.7910   20.9650 C   0  0  0  0  0  0  0  0  0  0  0  0
  -26.4110  -13.1580   20.4950 N   0  0  0  0  0  0  0  0  0  0  0  0
  -26.1170  -11.8370   20.7410 N   0  0  0  0  0  0  0  0  0  0  0  0
  -24.0850  -10.5010   21.1420 C   0  0  0  0  0  0  0  0  0  0  0  0
  -24.4680   -9.5680   22.1320 C   0  0  0  0  0  3  0  0  0  0  0  0
  -23.7460   -8.3650   22.3110 C   0  0  0  0  0  3  0  0  0  0  0  0
  -22.6220   -8.0800   21.4970 C   0  0  0  0  0  0  0  0  0  0  0  0
  -22.2480   -9.0060   20.5040 C   0  0  0  0  0  3  0  0  0  0  0  0
  -22.9730  -10.1990   20.3260 C   0  0  0  0  0  3  0  0  0  0  0  0
  -21.8800   -6.9220   21.5780 O   0  0  0  0  0  0  0  0  0  0  0  0
  -21.7950   -6.1920   22.7380 C   0  0  0  0  0  0  0  0  0  0  0  0
  -21.3200   -6.7580   23.9420 C   0  0  0  0  0  3  0  0  0  0  0  0
  -21.1860   -5.9560   25.0940 C   0  0  0  0  0  3  0  0  0  0  0  0
  -21.5170   -4.5880   25.0430 C   0  0  0  0  0  0  0  0  0  0  0  0
  -21.9790   -4.0200   23.8440 C   0  0  0  0  0  3  0  0  0  0  0  0
  -22.1170   -4.8190   22.6950 C   0  0  0  0  0  0  0  0  0  0  0  0
  -22.5440   -4.2570   21.5380 F   0  0  0  0  0  0  0  0  0  0  0  0
  -21.3810   -3.8190   26.1470 F   0  0  0  0  0  0  0  0  0  0  0  0
  -22.8140  -13.5380   21.0550 C   0  0  0  0  0  0  0  0  0  0  0  0
  -22.0430  -12.8580   21.8930 N   0  0  0  0  0  0  0  0  0  0  0  0
  -22.3830  -14.5250   20.4560 O   0  0  0  0  0  0  0  0  0  0  0  0
  -22.3920  -12.0680   22.4110 H   0  0  0  0  0  0  0  0  0  0  0  0
  -21.0790  -13.1340   22.0120 H   0  0  0  0  0  0  0  0  0  0  0  0
  -25.3640  -15.3170   20.3810 N   0  0  0  0  0  0  0  0  0  0  0  0
  -24.5430  -15.9080   20.3950 H   0  0  0  0  0  0  0  0  0  0  0  0
  -26.2050  -15.8100   20.1070 H   0  0  0  0  0  0  0  0  0  0  0  0
  1 47  1  0
  3  2  1  0
  3  1  1  0
  3  4  1  0
  4  5  1  0
  7 18  2  0
  8 13  1  0
  9 17  1  0
  9 19  1  0
 10 16  1  0
 10 12  1  0
 11 17  1  0
 12 13  2  0
 12 11  1  0
 14  8  2  0
 15 14  1  0
 15 10  2  0
 16  9  1  0
 17  7  1  0
 19 21  2  0
 20 19  1  0
 22 20  1  0
 23 32  2  0
 23 28  1  0
 24 20  1  0
 24 28  1  0
 25 24  1  0
 26 27  1  0
 26 25  1  0
 27 23  1  0
 28 29  2  0
 29 30  1  0
 31 30  2  0
 32 31  1  0
 33  7  1  0
 33 38  1  0
 33 34  1  0
 34 37  1  1
 34 35  1  0
 36 34  1  0
 38 41  1  0
 39 43  1  0
 39 38  1  0
 40 39  2  0
 43 42  1  0
 45 43  1  0
 45 46  1  0
 45 44  1  0
 47 62  1  0
 48 55  1  0
 49 54  1  0
 50 51  1  0
 50 49  1  0
 52 51  1  0
 52 67  1  0
 52 53  1  0
 54 48  1  0
 54 53  1  0
 59 60  1  0
 62 63  1  0
 64 65  2  0
 65 66  1  0
 65 84  1  0
 66 69  1  0
 67 64  1  0
 67 68  1  0
 68 66  2  0
 69 70  1  0
 70 71  2  0
 72 75  1  0
 72 71  1  0
 73 72  2  0
 74 73  1  0
 74 69  2  0
 75 76  1  0
 76 77  1  0
 77 78  2  0
 79 78  1  0
 79 83  1  0
 80 79  2  0
 81 76  2  0
 81 80  1  0
 82 81  1  0
 84 85  1  0
 85 88  1  0
 85 87  1  0
 86 84  2  0
 89 90  1  0
 89 64  1  0
 91 89  1  0
M  ISO  4   5 101   6 101  48 100  61 100
M  END
>  <TORSDO>  (92) 
F 20

>  <SCORE>  (92) 
-14.186

>  <name>  (92) 
91

>  <ligand_id>  (92) 
91

>  <original_smiles>  (92) 
[H]c1c([H])c([H])c2c(c1[H])C([H])([H])C([H])([H])C([H])([H])C2([H])N([H])C(=O)C1([H])N(C(=O)C([H])(N([H])C(=O)C([H])(N([H])C([H])([H])[H])C([H])([H])[H])C(C([H])([H])[H])(C([H])([H])[H])C([H])([H])[H])C([H])([H])c2c([H])c(OC([H])([H])C([H])([H])C([H])(C([H])([H])[H])C([H])([H])C([H])([H])[N+]3([H])C([H])([H])C([H])([H])N(C(=O)N4C([H])([H])C([H])([H])C([H])([H])C([H])(n5nc(-c6c([H])c([H])c(Oc7c([H])c([H])c(F)c([H])c7F)c([H])c6[H])c(C(=O)N([H])[H])c5N([H])[H])C4([H])[H])C([H])(C([H])([H])[H])C3([H])[H])c([H])c([H])c2C1([H])[H]

>  <smiles>  (92) 
[H]c1c([H])c([H])c2c(c1[H])C([H])([H])C([H])([H])C([H])([H])C2([H])N([H])C(=O)C1([H])N(C(=O)C([H])(N([H])C(=O)C([H])(N([H])C([H])([H])[H])C([H])([H])[H])C(C([H])([H])[H])(C([H])([H])[H])C([H])([H])[H])C([H])([H])c2c([H])c(OC([H])([H])C([H])([H])C([H])(C([H])([H])[H])C([H])([H])C([H])([H])[N+]3([H])C([H])([H])C([H])([H])N(C(=O)N4C([H])([H])C([H])([H])C([H])([H])C([H])(n5nc(-c6c([H])c([H])c(Oc7c([H])c([H])c(F)c([H])c7F)c([H])c6[H])c(C(=O)N([H])[H])c5N([H])[H])C4([H])[H])C([H])(C([H])([H])[H])C3([H])[H])c([H])c([H])c2C1([H])[H]

$$$$
92:0:0
     RDKit          3D

 85 93  0  0  1  0  0  0  0  0999 V2000
  -29.0300  -22.4120   20.3730 C   0  0  0  0  0  3  0  0  0  0  0  0
  -28.6860  -17.9240   20.6720 C   0  0  0  0  0  3  0  0  0  0  0  0
  -30.5770  -18.3740   19.5430 C   0  0  0  0  0  3  0  0  0  0  0  0
  -28.3720  -19.4230   20.7090 C   0  0  0  0  0  3  0  0  0  0  0  0
  -30.2600  -19.8500   19.5760 C   0  0  0  0  0  3  0  0  0  0  0  0
  -29.8440  -17.2070   20.0760 C   0  0  0  0  0  0  0  0  0  0  0  0
  -29.1230  -20.5890   20.1600 C   0  0  0  0  0  0  0  0  0  0  0  0
  -30.4300  -15.5560   20.0580 C   0  0  0  0  0  0  0  0  0  0  0  0
  -30.4300  -13.0300   19.2850 C   0  0  0  0  0  2  0  0  0  0  0  0
  -29.5260  -12.6990   18.0680 C   0  0  0  0  0  2  0  0  0  0  0  0
  -28.0990  -12.3790   18.5330 C   0  0  0  0  0  2  0  0  0  0  0  0
  -27.6160  -13.3780   19.6140 C   0  0  0  0  0  3  0  0  0  0  0  0
  -28.6600  -13.6710   20.7130 C   0  0  0  0  0  2  0  0  0  0  0  0
  -29.8590  -14.2220   20.0530 N   0  0  0  0  0  0  0  0  0  0  0  0
  -31.6490  -15.4380   19.8310 O   0  0  0  0  0  0  0  0  0  0  0  0
  -25.2780  -13.8880   20.4580 C   0  0  0  0  0  0  0  0  0  0  0  0
  -24.2330  -13.0950   20.8420 C   0  0  0  0  0  0  0  0  0  0  0  0
  -24.7090  -11.7500   20.7780 C   0  0  0  0  0  0  0  0  0  0  0  0
  -26.3160  -13.0270   20.1640 N   0  0  0  0  0  0  0  0  0  0  0  0
  -25.9930  -11.7310   20.4280 N   0  0  0  0  0  0  0  0  0  0  0  0
  -23.9920  -10.4800   20.9670 C   0  0  0  0  0  0  0  0  0  0  0  0
  -24.4190   -9.5220   21.9130 C   0  0  0  0  0  3  0  0  0  0  0  0
  -23.6970   -8.3210   22.0920 C   0  0  0  0  0  3  0  0  0  0  0  0
  -22.5350   -8.0710   21.3250 C   0  0  0  0  0  0  0  0  0  0  0  0
  -22.1260   -9.0180   20.3690 C   0  0  0  0  0  3  0  0  0  0  0  0
  -22.8480  -10.2090   20.1880 C   0  0  0  0  0  3  0  0  0  0  0  0
  -21.7860   -6.9220   21.4110 O   0  0  0  0  0  0  0  0  0  0  0  0
  -21.6870   -6.2140   22.5830 C   0  0  0  0  0  0  0  0  0  0  0  0
  -21.1900   -6.7980   23.7680 C   0  0  0  0  0  3  0  0  0  0  0  0
  -21.0410   -6.0160   24.9300 C   0  0  0  0  0  3  0  0  0  0  0  0
  -21.3790   -4.6490   24.9090 C   0  0  0  0  0  0  0  0  0  0  0  0
  -21.8680   -4.0630   23.7280 C   0  0  0  0  0  3  0  0  0  0  0  0
  -22.0200   -4.8430   22.5670 C   0  0  0  0  0  0  0  0  0  0  0  0
  -22.4720   -4.2690   21.4270 F   0  0  0  0  0  0  0  0  0  0  0  0
  -21.2270   -3.8960   26.0220 F   0  0  0  0  0  0  0  0  0  0  0  0
  -22.8390  -13.5610   21.1480 C   0  0  0  0  0  0  0  0  0  0  0  0
  -22.1340  -12.8560   22.0240 N   0  0  0  0  0  0  0  0  0  0  0  0
  -22.3860  -14.5870   20.6430 O   0  0  0  0  0  0  0  0  0  0  0  0
  -22.5120  -12.0240   22.4530 H   0  0  0  0  0  0  0  0  0  0  0  0
  -21.2000  -13.1530   22.2720 H   0  0  0  0  0  0  0  0  0  0  0  0
  -25.4240  -15.2640   20.3030 N   0  0  0  0  0  0  0  0  0  0  0  0
  -24.6560  -15.9070   20.4620 H   0  0  0  0  0  0  0  0  0  0  0  0
  -26.2600  -15.7230   19.9640 H   0  0  0  0  0  0  0  0  0  0  0  0
  -27.9900  -23.9660   20.1100 C   0  0  0  0  0  3  0  0  0  0  0  0
  -28.1760  -25.6700   20.2890 O   0  0  0  0  0  0  0  0  0  0  0  0
  -24.6760  -31.8400   23.2250 C   0  0  0  0  0  0  0  0  0  0  0  0
  -27.1930  -26.8400   20.2200 C   0  0  0  0  0  0  0  0  0  0  0  0
  -23.4830  -30.4510   21.5830 C   0  0  0  0  0  3  0  0  0  0  0  0
  -24.9250  -28.8230   20.1600 C   0  0  0  0  0  0  0  0  0  0  0  0
  -26.0560  -30.6170   21.4510 C   0  0  0  0  0  2  0  0  0  0  0  0
  -26.1180  -29.1930   20.7910 C   0  0  0  0  0  0  0  0  0  0  0  0
  -27.2410  -28.2270   20.7890 C   0  0  0  0  0  3  0  0  0  0  0  0
  -25.9690  -26.6550   19.5340 C   0  0  0  0  0  3  0  0  0  0  0  0
  -24.8840  -27.5770   19.5080 C   0  0  0  0  0  3  0  0  0  0  0  0
  -23.7160  -29.7650   20.2080 C   0  0  0  0  0  2  0  0  0  0  0  0
  -24.7620  -31.0000   22.1400 N   0  0  0  0  0  0  0  0  0  0  0  0
  -23.5860  -32.1360   23.7420 O   0  0  0  0  0  0  0  0  0  0  0  0
  -22.7740  -29.4650   22.5510 C   0  0  0  0  0  0  0  0  0  0  0  0
  -21.4420  -29.3100   22.4280 N   0  0  0  0  0  0  0  0  0  0  0  0
  -23.4320  -28.8370   23.3830 O   0  0  0  0  0  0  0  0  0  0  0  0
  -20.9610  -29.8680   21.7340 H   0  0  0  0  0  0  0  0  0  0  0  0
  -18.0530  -28.1070   22.9400 C   0  0  0  0  0  0  0  0  0  0  0  0
  -20.6150  -28.3730   23.1970 C   0  0  0  0  0  3  0  0  0  0  0  0
  -20.7140  -26.9420   22.6210 C   0  0  0  0  0  2  0  0  0  0  0  0
  -19.6100  -26.6220   21.6070 C   0  0  0  0  0  2  0  0  0  0  0  0
  -18.2300  -26.7620   22.2550 C   0  0  0  0  0  2  0  0  0  0  0  0
  -19.1720  -28.8700   23.3680 C   0  0  0  0  0  0  0  0  0  0  0  0
  -18.9510  -30.1260   23.9740 C   0  0  0  0  0  3  0  0  0  0  0  0
  -17.6440  -30.6190   24.1540 C   0  0  0  0  0  3  0  0  0  0  0  0
  -16.5410  -29.8550   23.7380 C   0  0  0  0  0  3  0  0  0  0  0  0
  -16.7460  -28.5990   23.1370 C   0  0  0  0  0  3  0  0  0  0  0  0
  -25.9450  -32.4840   23.8640 C   0  0  0  0  0  3  0  0  0  0  0  0
  -25.6280  -33.8850   24.2000 N   0  0  0  0  0  0  0  0  0  0  0  0
  -25.9460  -34.9490   23.4500 C   0  0  0  0  0  0  0  0  0  0  0  0
  -26.5980  -34.8530   22.4070 O   0  0  0  0  0  0  0  0  0  0  0  0
  -25.0450  -34.0310   25.0110 H   0  0  0  0  0  0  0  0  0  0  0  0
  -24.2030  -36.7460   23.1730 C   0  0  0  0  0  1  0  0  0  0  0  0
  -25.4750  -36.3380   23.9320 C   0  0  0  0  0  3  0  0  0  0  0  0
  -27.6270  -37.2420   24.6930 C   0  0  0  0  0  1  0  0  0  0  0  0
  -26.5000  -37.3930   23.7780 N   0  0  0  0  0  0  0  0  0  0  0  0
  -26.0950  -38.3150   23.9200 H   0  0  0  0  0  0  0  0  0  0  0  0
  -26.4410  -31.7210   25.1560 C   0  0  1  0  0  0  0  0  0  0  0  0
  -25.3350  -31.5000   26.2130 C   0  0  0  0  0  1  0  0  0  0  0  0
  -27.0220  -30.3360   24.7920 C   0  0  0  0  0  1  0  0  0  0  0  0
  -27.5880  -32.5150   25.8240 C   0  0  0  0  0  1  0  0  0  0  0  0
  2  4  1  0
  3  5  2  0
  3  6  1  0
  5  7  1  0
  6  2  2  0
  7  1  1  0
  7  4  2  0
  8  6  1  0
  9 14  1  0
 10 11  1  0
 10  9  1  0
 12 11  1  0
 12 19  1  0
 12 13  1  0
 14  8  1  0
 14 13  1  0
 15  8  2  0
 16 17  2  0
 17 36  1  0
 18 17  1  0
 18 21  1  0
 19 20  1  0
 19 16  1  0
 20 18  2  0
 21 22  1  0
 22 23  2  0
 24 27  1  0
 24 23  1  0
 25 24  2  0
 26 25  1  0
 26 21  2  0
 27 28  1  0
 28 29  1  0
 29 30  2  0
 31 30  1  0
 31 35  1  0
 32 31  2  0
 33 28  2  0
 33 32  1  0
 34 33  1  0
 36 37  1  0
 37 40  1  0
 37 39  1  0
 38 36  2  0
 41 16  1  0
 41 42  1  0
 43 41  1  0
 44 45  1  0
 44  1  2  0
 46 57  2  0
 47 45  1  0
 47 52  1  0
 48 56  1  0
 48 58  1  0
 49 55  1  0
 49 51  1  0
 50 56  1  0
 51 50  1  0
 52 51  2  0
 53 47  2  0
 54 53  1  0
 54 49  2  0
 55 48  1  0
 56 46  1  0
 58 60  2  0
 59 58  1  0
 61 59  1  0
 62 71  2  0
 62 67  1  0
 63 59  1  0
 63 67  1  0
 64 63  1  0
 65 66  1  0
 65 64  1  0
 66 62  1  0
 67 68  2  0
 68 69  1  0
 70 69  2  0
 71 70  1  0
 72 46  1  0
 72 73  1  0
 72 82  1  0
 73 76  1  0
 74 78  1  0
 74 73  1  0
 75 74  2  0
 78 77  1  0
 80 81  1  0
 80 78  1  0
 80 79  1  0
 82 85  1  1
 82 83  1  0
 84 82  1  0
M  ISO  4   6 100   8 100  44 101  45 101
M  END
>  <TORSDO>  (93) 
F 18

>  <SCORE>  (93) 
-16.308

>  <name>  (93) 
92

>  <ligand_id>  (93) 
92

>  <original_smiles>  (93) 
[H]c1c([H])c([H])c2c(c1[H])C([H])([H])C([H])([H])C([H])([H])C2([H])N([H])C(=O)C1([H])N(C(=O)C([H])(N([H])C(=O)C([H])(N([H])C([H])([H])[H])C([H])([H])[H])C(C([H])([H])[H])(C([H])([H])[H])C([H])([H])[H])C([H])([H])c2c([H])c(OC([H])([H])C([H])([H])c3c([H])c([H])c(C(=O)N4C([H])([H])C([H])([H])C([H])([H])C([H])(n5nc(-c6c([H])c([H])c(Oc7c([H])c([H])c(F)c([H])c7F)c([H])c6[H])c(C(=O)N([H])[H])c5N([H])[H])C4([H])[H])c([H])c3[H])c([H])c([H])c2C1([H])[H]

>  <smiles>  (93) 
[H]c1c([H])c([H])c2c(c1[H])C([H])([H])C([H])([H])C([H])([H])C2([H])N([H])C(=O)C1([H])N(C(=O)C([H])(N([H])C(=O)C([H])(N([H])C([H])([H])[H])C([H])([H])[H])C(C([H])([H])[H])(C([H])([H])[H])C([H])([H])[H])C([H])([H])c2c([H])c(OC([H])([H])C([H])([H])c3c([H])c([H])c(C(=O)N4C([H])([H])C([H])([H])C([H])([H])C([H])(n5nc(-c6c([H])c([H])c(Oc7c([H])c([H])c(F)c([H])c7F)c([H])c6[H])c(C(=O)N([H])[H])c5N([H])[H])C4([H])[H])c([H])c3[H])c([H])c([H])c2C1([H])[H]

$$$$
93:0:0
     RDKit          3D

 87 95  0  0  1  0  0  0  0  0999 V2000
  -30.2680  -23.1870   18.5260 C   0  0  0  0  0  1  0  0  0  0  0  0
  -29.0600  -22.6600   19.3110 C   0  0  0  0  0  3  0  0  0  0  0  0
  -30.2860  -19.7390   18.9600 C   0  0  0  0  0  2  0  0  0  0  0  0
  -29.5790  -20.9620   19.8630 C   0  0  0  0  0  3  0  0  0  0  0  0
  -28.8400  -19.5300   20.3120 C   0  0  0  0  0  3  0  0  0  0  0  0
  -30.0940  -18.4730   19.9930 C   0  0  0  0  0  3  0  0  0  0  0  0
  -28.2350  -19.4630   21.7060 C   0  0  0  0  0  1  0  0  0  0  0  0
  -30.7220  -15.5130   19.5880 C   0  0  0  0  0  0  0  0  0  0  0  0
  -30.6740  -13.0440   18.7080 C   0  0  0  0  0  2  0  0  0  0  0  0
  -29.6510  -12.7640   17.5760 C   0  0  0  0  0  2  0  0  0  0  0  0
  -28.2580  -12.4630   18.1550 C   0  0  0  0  0  2  0  0  0  0  0  0
  -27.8860  -13.4390   19.2960 C   0  0  0  0  0  3  0  0  0  0  0  0
  -29.0280  -13.6420   20.3140 C   0  0  0  0  0  2  0  0  0  0  0  0
  -30.1670  -14.1910   19.5540 N   0  0  0  0  0  0  0  0  0  0  0  0
  -31.9380  -15.4980   19.3390 O   0  0  0  0  0  0  0  0  0  0  0  0
  -29.9430  -16.7970   19.6990 N   0  0  0  0  0  0  0  0  0  0  0  0
  -28.9650  -16.5470   19.7270 H   0  0  0  0  0  0  0  0  0  0  0  0
  -25.6240  -13.9850   20.3300 C   0  0  0  0  0  0  0  0  0  0  0  0
  -24.5900  -13.2050   20.7650 C   0  0  0  0  0  0  0  0  0  0  0  0
  -25.0250  -11.8520   20.6120 C   0  0  0  0  0  0  0  0  0  0  0  0
  -26.6170  -13.1100   19.9300 N   0  0  0  0  0  0  0  0  0  0  0  0
  -26.2770  -11.8160   20.1670 N   0  0  0  0  0  0  0  0  0  0  0  0
  -24.2940  -10.5920   20.8050 C   0  0  0  0  0  0  0  0  0  0  0  0
  -24.7130   -9.6310   21.7520 C   0  0  0  0  0  3  0  0  0  0  0  0
  -23.9790   -8.4390   21.9340 C   0  0  0  0  0  3  0  0  0  0  0  0
  -22.8120   -8.1990   21.1700 C   0  0  0  0  0  0  0  0  0  0  0  0
  -22.4130   -9.1480   20.2130 C   0  0  0  0  0  3  0  0  0  0  0  0
  -23.1480  -10.3310   20.0290 C   0  0  0  0  0  3  0  0  0  0  0  0
  -22.0510   -7.0580   21.2610 O   0  0  0  0  0  0  0  0  0  0  0  0
  -21.8730   -6.4050   22.4540 C   0  0  0  0  0  0  0  0  0  0  0  0
  -21.2630   -7.0330   23.5630 C   0  0  0  0  0  3  0  0  0  0  0  0
  -21.0380   -6.3030   24.7480 C   0  0  0  0  0  3  0  0  0  0  0  0
  -21.4100   -4.9480   24.8230 C   0  0  0  0  0  0  0  0  0  0  0  0
  -22.0120   -4.3200   23.7170 C   0  0  0  0  0  3  0  0  0  0  0  0
  -22.2400   -5.0470   22.5350 C   0  0  0  0  0  0  0  0  0  0  0  0
  -22.8010   -4.4310   21.4670 F   0  0  0  0  0  0  0  0  0  0  0  0
  -21.1860   -4.2440   25.9570 F   0  0  0  0  0  0  0  0  0  0  0  0
  -23.2370  -13.6870   21.1970 C   0  0  0  0  0  0  0  0  0  0  0  0
  -22.5840  -12.9580   22.0940 N   0  0  0  0  0  0  0  0  0  0  0  0
  -22.7730  -14.7460   20.7760 O   0  0  0  0  0  0  0  0  0  0  0  0
  -22.9760  -12.1010   22.4550 H   0  0  0  0  0  0  0  0  0  0  0  0
  -21.6800  -13.2610   22.4260 H   0  0  0  0  0  0  0  0  0  0  0  0
  -25.7910  -15.3620   20.2100 N   0  0  0  0  0  0  0  0  0  0  0  0
  -25.0450  -16.0120   20.4290 H   0  0  0  0  0  0  0  0  0  0  0  0
  -26.5890  -15.8080   19.7780 H   0  0  0  0  0  0  0  0  0  0  0  0
  -28.3650  -24.1960   20.0610 C   0  0  0  0  0  2  0  0  0  0  0  0
  -28.4160  -25.8610   19.7930 O   0  0  0  0  0  0  0  0  0  0  0  0
  -24.6590  -31.6990   22.9870 C   0  0  0  0  0  0  0  0  0  0  0  0
  -27.3530  -26.9300   19.8500 C   0  0  0  0  0  0  0  0  0  0  0  0
  -23.5060  -30.3070   21.3180 C   0  0  0  0  0  3  0  0  0  0  0  0
  -24.9970  -28.7730   19.8580 C   0  0  0  0  0  0  0  0  0  0  0  0
  -26.0670  -30.5910   21.1690 C   0  0  0  0  0  2  0  0  0  0  0  0
  -26.1790  -29.1920   20.4820 C   0  0  0  0  0  0  0  0  0  0  0  0
  -27.3500  -28.2970   20.4430 C   0  0  0  0  0  3  0  0  0  0  0  0
  -26.1300  -26.6730   19.1910 C   0  0  0  0  0  3  0  0  0  0  0  0
  -25.0010  -27.5360   19.1910 C   0  0  0  0  0  3  0  0  0  0  0  0
  -23.7540  -29.6630   19.9260 C   0  0  0  0  0  2  0  0  0  0  0  0
  -24.7660  -30.8940   21.8790 N   0  0  0  0  0  0  0  0  0  0  0  0
  -23.5620  -31.9410   23.5170 O   0  0  0  0  0  0  0  0  0  0  0  0
  -22.8430  -29.2700   22.2620 C   0  0  0  0  0  0  0  0  0  0  0  0
  -21.5130  -29.0850   22.1530 N   0  0  0  0  0  0  0  0  0  0  0  0
  -23.5330  -28.6320   23.0610 O   0  0  0  0  0  0  0  0  0  0  0  0
  -21.0070  -29.6520   21.4890 H   0  0  0  0  0  0  0  0  0  0  0  0
  -18.1590  -27.8110   22.7090 C   0  0  0  0  0  0  0  0  0  0  0  0
  -20.7240  -28.1030   22.9060 C   0  0  0  0  0  3  0  0  0  0  0  0
  -20.8250  -26.6990   22.2650 C   0  0  0  0  0  2  0  0  0  0  0  0
  -19.6980  -26.4060   21.2710 C   0  0  0  0  0  2  0  0  0  0  0  0
  -18.3330  -26.4990   21.9620 C   0  0  0  0  0  2  0  0  0  0  0  0
  -19.2810  -28.5720   23.1380 C   0  0  0  0  0  0  0  0  0  0  0  0
  -19.0600  -29.7980   23.8020 C   0  0  0  0  0  3  0  0  0  0  0  0
  -17.7540  -30.2660   24.0360 C   0  0  0  0  0  3  0  0  0  0  0  0
  -16.6480  -29.5040   23.6200 C   0  0  0  0  0  3  0  0  0  0  0  0
  -16.8530  -28.2780   22.9620 C   0  0  0  0  0  3  0  0  0  0  0  0
  -25.9080  -32.3700   23.6340 C   0  0  0  0  0  3  0  0  0  0  0  0
  -25.5460  -33.7510   24.0050 N   0  0  0  0  0  0  0  0  0  0  0  0
  -25.8570  -34.8440   23.2970 C   0  0  0  0  0  0  0  0  0  0  0  0
  -26.5420  -34.7990   22.2720 O   0  0  0  0  0  0  0  0  0  0  0  0
  -24.9380  -33.8560   24.8040 H   0  0  0  0  0  0  0  0  0  0  0  0
  -24.0880  -36.6120   22.9960 C   0  0  0  0  0  1  0  0  0  0  0  0
  -25.3290  -36.2030   23.8040 C   0  0  0  0  0  3  0  0  0  0  0  0
  -27.4200  -37.1220   24.7090 C   0  0  0  0  0  1  0  0  0  0  0  0
  -26.3360  -37.2870   23.7460 N   0  0  0  0  0  0  0  0  0  0  0  0
  -25.8990  -38.1900   23.9100 H   0  0  0  0  0  0  0  0  0  0  0  0
  -26.4380  -31.5930   24.9040 C   0  0  1  0  0  0  0  0  0  0  0  0
  -25.3450  -31.3050   25.9600 C   0  0  0  0  0  1  0  0  0  0  0  0
  -27.0680  -30.2410   24.5020 C   0  0  0  0  0  1  0  0  0  0  0  0
  -27.5580  -32.4120   25.5880 C   0  0  0  0  0  1  0  0  0  0  0  0
  2  1  1  0
  2 46  1  0
  3  4  1  0
  3  6  1  0
  4  2  1  0
  4  5  1  0
  5  7  1  0
  6 16  1  0
  6  5  1  0
  8 16  1  0
  9 14  1  0
 10 11  1  0
 10  9  1  0
 12 11  1  0
 12 21  1  0
 12 13  1  0
 14  8  1  0
 14 13  1  0
 15  8  2  0
 16 17  1  0
 18 19  2  0
 19 38  1  0
 20 19  1  0
 20 23  1  0
 21 22  1  0
 21 18  1  0
 22 20  2  0
 23 24  1  0
 24 25  2  0
 26 29  1  0
 26 25  1  0
 27 26  2  0
 28 27  1  0
 28 23  2  0
 29 30  1  0
 30 35  2  0
 30 31  1  0
 31 32  2  0
 32 33  1  0
 33 37  1  0
 34 33  2  0
 35 34  1  0
 36 35  1  0
 38 39  1  0
 39 42  1  0
 39 41  1  0
 40 38  2  0
 43 18  1  0
 43 44  1  0
 45 43  1  0
 47 49  1  0
 47 46  1  0
 48 59  2  0
 49 54  1  0
 50 58  1  0
 50 60  1  0
 51 57  1  0
 51 53  1  0
 52 58  1  0
 53 52  1  0
 54 53  2  0
 55 56  1  0
 55 49  2  0
 56 51  2  0
 57 50  1  0
 58 48  1  0
 60 62  2  0
 61 60  1  0
 63 61  1  0
 64 73  2  0
 64 69  1  0
 65 61  1  0
 65 69  1  0
 66 65  1  0
 67 68  1  0
 67 66  1  0
 68 64  1  0
 69 70  2  0
 70 71  1  0
 72 71  2  0
 73 72  1  0
 74 48  1  0
 74 75  1  0
 74 84  1  0
 75 78  1  0
 76 80  1  0
 76 75  1  0
 77 76  2  0
 80 79  1  0
 82 80  1  0
 82 83  1  0
 82 81  1  0
 84 87  1  1
 84 85  1  0
 86 84  1  0
M  ISO  4   8 100  16 100  46 101  47 101
M  END
>  <TORSDO>  (94) 
F 18

>  <SCORE>  (94) 
-13.235

>  <name>  (94) 
93

>  <ligand_id>  (94) 
93

>  <original_smiles>  (94) 
[H]c1c([H])c([H])c2c(c1[H])C([H])([H])C([H])([H])C([H])([H])C2([H])N([H])C(=O)C1([H])N(C(=O)C([H])(N([H])C(=O)C([H])(N([H])C([H])([H])[H])C([H])([H])[H])C(C([H])([H])[H])(C([H])([H])[H])C([H])([H])[H])C([H])([H])c2c([H])c(OC([H])([H])C([H])(C([H])([H])[H])C3([H])C([H])([H])C([H])(N([H])C(=O)N4C([H])([H])C([H])([H])C([H])([H])C([H])(n5nc(-c6c([H])c([H])c(Oc7c([H])c([H])c(F)c([H])c7F)c([H])c6[H])c(C(=O)N([H])[H])c5N([H])[H])C4([H])[H])C3([H])C([H])([H])[H])c([H])c([H])c2C1([H])[H]

>  <smiles>  (94) 
[H]c1c([H])c([H])c2c(c1[H])C([H])([H])C([H])([H])C([H])([H])C2([H])N([H])C(=O)C1([H])N(C(=O)C([H])(N([H])C(=O)C([H])(N([H])C([H])([H])[H])C([H])([H])[H])C(C([H])([H])[H])(C([H])([H])[H])C([H])([H])[H])C([H])([H])c2c([H])c(OC([H])([H])C([H])(C([H])([H])[H])C3([H])C([H])([H])C([H])(N([H])C(=O)N4C([H])([H])C([H])([H])C([H])([H])C([H])(n5nc(-c6c([H])c([H])c(Oc7c([H])c([H])c(F)c([H])c7F)c([H])c6[H])c(C(=O)N([H])[H])c5N([H])[H])C4([H])[H])C3([H])C([H])([H])[H])c([H])c([H])c2C1([H])[H]

$$$$
94:0:0
     RDKit          3D

 93102  0  0  1  0  0  0  0  0999 V2000
  -27.2130  -21.1560   21.0420 C   0  0  0  0  0  2  0  0  0  0  0  0
  -26.9610  -22.4590   20.8920 C   0  0  0  0  0  2  0  0  0  0  0  0
  -29.1750  -22.2860   21.6690 C   0  0  0  0  0  2  0  0  0  0  0  0
  -28.8710  -22.0030   18.7950 C   0  0  0  0  0  2  0  0  0  0  0  0
  -28.7070  -20.9290   21.1280 C   0  0  0  0  0  3  0  0  0  0  0  0
  -28.2610  -23.2380   20.8860 C   0  0  0  0  0  3  0  0  0  0  0  0
  -29.3140  -20.7700   19.7090 C   0  0  0  0  0  3  0  0  0  0  0  0
  -28.8010  -23.3540   19.4950 N   0  0  2  0  0  4  0  0  0  0  0  0
  -29.7680  -23.6260   19.6150 H   0  0  0  0  0  0  0  0  0  0  0  0
  -28.9760  -19.3450   19.1340 C   0  0  0  0  0  2  0  0  0  0  0  0
  -30.1520  -18.3540   18.8720 C   0  0  0  0  0  2  0  0  0  0  0  0
  -30.6660  -17.4980   20.0750 C   0  0  0  0  0  2  0  0  0  0  0  0
  -31.0400  -15.0010   19.7210 C   0  0  0  0  0  0  0  0  0  0  0  0
  -30.8390  -12.6410   19.0000 C   0  0  0  0  0  2  0  0  0  0  0  0
  -29.8500  -12.5570   17.8200 C   0  0  0  0  0  2  0  0  0  0  0  0
  -28.3980  -12.4400   18.3270 C   0  0  0  0  0  2  0  0  0  0  0  0
  -28.0580  -13.4850   19.4240 C   0  0  0  0  0  3  0  0  0  0  0  0
  -29.1550  -13.5230   20.5100 C   0  0  0  0  0  2  0  0  0  0  0  0
  -30.4360  -13.7850   19.8360 N   0  0  0  0  0  0  0  0  0  0  0  0
  -32.1560  -15.1420   19.2150 O   0  0  0  0  0  0  0  0  0  0  0  0
  -30.2790  -16.0680   20.0670 N   0  0  0  0  0  0  0  0  0  0  0  0
  -29.3580  -15.8510   20.4190 H   0  0  0  0  0  0  0  0  0  0  0  0
  -25.7730  -14.1780   20.3760 C   0  0  0  0  0  0  0  0  0  0  0  0
  -24.6890  -13.4450   20.7810 C   0  0  0  0  0  0  0  0  0  0  0  0
  -25.0580  -12.0730   20.6140 C   0  0  0  0  0  0  0  0  0  0  0  0
  -26.7340  -13.2560   19.9960 N   0  0  0  0  0  0  0  0  0  0  0  0
  -26.3130  -11.9810   20.1950 N   0  0  0  0  0  0  0  0  0  0  0  0
  -24.2690  -10.8450   20.7740 C   0  0  0  0  0  0  0  0  0  0  0  0
  -24.6750   -9.8150   21.6490 C   0  0  0  0  0  3  0  0  0  0  0  0
  -23.8890   -8.6520   21.8010 C   0  0  0  0  0  3  0  0  0  0  0  0
  -22.6810   -8.5120   21.0770 C   0  0  0  0  0  0  0  0  0  0  0  0
  -22.2930   -9.5310   20.1890 C   0  0  0  0  0  3  0  0  0  0  0  0
  -23.0790  -10.6850   20.0360 C   0  0  0  0  0  3  0  0  0  0  0  0
  -21.8670   -7.4080   21.1410 O   0  0  0  0  0  0  0  0  0  0  0  0
  -21.7590   -6.6590   22.2830 C   0  0  0  0  0  0  0  0  0  0  0  0
  -21.3000   -7.2140   23.4990 C   0  0  0  0  0  3  0  0  0  0  0  0
  -21.1400   -6.3910   24.6320 C   0  0  0  0  0  3  0  0  0  0  0  0
  -21.4270   -5.0160   24.5500 C   0  0  0  0  0  0  0  0  0  0  0  0
  -21.8770   -4.4600   23.3400 C   0  0  0  0  0  3  0  0  0  0  0  0
  -22.0400   -5.2790   22.2100 C   0  0  0  0  0  0  0  0  0  0  0  0
  -22.4550   -4.7350   21.0390 F   0  0  0  0  0  0  0  0  0  0  0  0
  -21.2660   -4.2240   25.6360 F   0  0  0  0  0  0  0  0  0  0  0  0
  -23.3520  -13.9810   21.2050 C   0  0  0  0  0  0  0  0  0  0  0  0
  -22.6610  -13.2720   22.0900 N   0  0  0  0  0  0  0  0  0  0  0  0
  -22.9330  -15.0600   20.7880 O   0  0  0  0  0  0  0  0  0  0  0  0
  -23.0160  -12.3980   22.4500 H   0  0  0  0  0  0  0  0  0  0  0  0
  -21.7650  -13.6060   22.4150 H   0  0  0  0  0  0  0  0  0  0  0  0
  -26.0150  -15.5450   20.2830 N   0  0  0  0  0  0  0  0  0  0  0  0
  -25.3050  -16.2370   20.4970 H   0  0  0  0  0  0  0  0  0  0  0  0
  -26.8660  -15.9530   19.9190 H   0  0  0  0  0  0  0  0  0  0  0  0
  -28.1750  -24.4660   18.6850 C   0  0  0  0  0  3  0  0  0  0  0  0
  -28.1980  -25.8810   19.3640 C   0  0  0  0  0  3  0  0  0  0  0  0
  -27.9430  -27.0180   18.4980 O   0  0  0  0  0  0  0  0  0  0  0  0
  -24.5880  -31.5120   22.9420 C   0  0  0  0  0  0  0  0  0  0  0  0
  -26.8060  -27.7510   18.7870 C   0  0  0  0  0  0  0  0  0  0  0  0
  -23.1830  -30.4160   21.2260 C   0  0  0  0  0  3  0  0  0  0  0  0
  -24.4440  -29.2000   19.3690 C   0  0  0  0  0  0  0  0  0  0  0  0
  -25.6670  -30.8560   20.7870 C   0  0  0  0  0  2  0  0  0  0  0  0
  -25.6700  -29.6270   19.8950 C   0  0  0  0  0  0  0  0  0  0  0  0
  -26.8560  -28.9130   19.5960 C   0  0  0  0  0  3  0  0  0  0  0  0
  -25.5640  -27.3420   18.2600 C   0  0  0  0  0  3  0  0  0  0  0  0
  -24.3860  -28.0600   18.5470 C   0  0  0  0  0  3  0  0  0  0  0  0
  -23.2180  -30.0090   19.7280 C   0  0  0  0  0  2  0  0  0  0  0  0
  -24.5050  -30.9330   21.7090 N   0  0  0  0  0  0  0  0  0  0  0  0
  -23.5830  -31.6550   23.6520 O   0  0  0  0  0  0  0  0  0  0  0  0
  -22.6530  -29.2210   22.0530 C   0  0  0  0  0  0  0  0  0  0  0  0
  -21.3290  -29.0060   22.0180 N   0  0  0  0  0  0  0  0  0  0  0  0
  -23.4300  -28.4940   22.6790 O   0  0  0  0  0  0  0  0  0  0  0  0
  -20.7610  -29.6530   21.4870 H   0  0  0  0  0  0  0  0  0  0  0  0
  -18.0640  -27.5360   22.5010 C   0  0  0  0  0  0  0  0  0  0  0  0
  -20.6140  -27.9190   22.6830 C   0  0  0  0  0  3  0  0  0  0  0  0
  -20.7660  -26.5930   21.9000 C   0  0  0  0  0  2  0  0  0  0  0  0
  -19.6280  -26.3470   20.9060 C   0  0  0  0  0  2  0  0  0  0  0  0
  -18.2780  -26.3090   21.6310 C   0  0  0  0  0  2  0  0  0  0  0  0
  -19.1600  -28.3010   22.9830 C   0  0  0  0  0  0  0  0  0  0  0  0
  -18.9030  -29.4510   23.7600 C   0  0  0  0  0  3  0  0  0  0  0  0
  -17.5830  -29.8370   24.0610 C   0  0  0  0  0  3  0  0  0  0  0  0
  -16.5030  -29.0680   23.5960 C   0  0  0  0  0  3  0  0  0  0  0  0
  -16.7430  -27.9190   22.8210 C   0  0  0  0  0  3  0  0  0  0  0  0
  -25.9430  -32.0430   23.5060 C   0  0  0  0  0  3  0  0  0  0  0  0
  -25.6890  -33.3650   24.1000 N   0  0  0  0  0  0  0  0  0  0  0  0
  -26.0060  -34.5310   23.5210 C   0  0  0  0  0  0  0  0  0  0  0  0
  -26.6140  -34.6030   22.4500 O   0  0  0  0  0  0  0  0  0  0  0  0
  -25.1450  -33.3810   24.9500 H   0  0  0  0  0  0  0  0  0  0  0  0
  -24.3290  -36.4040   23.5710 C   0  0  0  0  0  1  0  0  0  0  0  0
  -25.5800  -35.8220   24.2480 C   0  0  0  0  0  3  0  0  0  0  0  0
  -27.7640  -36.4790   25.1570 C   0  0  0  0  0  1  0  0  0  0  0  0
  -26.6430  -36.8480   24.2950 N   0  0  0  0  0  0  0  0  0  0  0  0
  -26.2720  -37.7370   24.6220 H   0  0  0  0  0  0  0  0  0  0  0  0
  -26.5990  -31.0730   24.5650 C   0  0  1  0  0  0  0  0  0  0  0  0
  -25.6420  -30.6550   25.7050 C   0  0  0  0  0  1  0  0  0  0  0  0
  -27.1080  -29.7840   23.8790 C   0  0  0  0  0  1  0  0  0  0  0  0
  -27.8340  -31.7520   25.2040 C   0  0  0  0  0  1  0  0  0  0  0  0
  2  1  1  0
  4  8  1  0
  4  7  1  0
  5  1  1  0
  5  3  1  0
  6  2  1  0
  6  3  1  0
  7 10  1  0
  7  5  1  0
  8  9  1  1
  8  6  1  0
 11 10  1  0
 11 12  1  0
 13 19  1  0
 13 21  1  0
 14 19  1  0
 15 16  1  0
 15 14  1  0
 17 16  1  0
 17 26  1  0
 17 18  1  0
 19 18  1  0
 20 13  2  0
 21 12  1  0
 21 22  1  0
 23 24  2  0
 24 43  1  0
 25 28  1  0
 25 24  1  0
 26 27  1  0
 26 23  1  0
 27 25  2  0
 28 29  1  0
 29 30  2  0
 31 34  1  0
 31 30  1  0
 32 31  2  0
 33 32  1  0
 33 28  2  0
 34 35  1  0
 35 36  1  0
 36 37  2  0
 38 37  1  0
 38 42  1  0
 39 38  2  0
 40 35  2  0
 40 39  1  0
 41 40  1  0
 43 44  1  0
 44 47  1  0
 44 46  1  0
 45 43  2  0
 48 23  1  0
 48 49  1  0
 50 48  1  0
 51 52  2  0
 51  8  1  0
 53 55  1  0
 53 52  1  0
 54 65  2  0
 55 60  1  0
 56 64  1  0
 56 66  1  0
 57 63  1  0
 57 59  1  0
 58 64  1  0
 59 58  1  0
 60 59  2  0
 61 62  1  0
 61 55  2  0
 62 57  2  0
 63 56  1  0
 64 54  1  0
 66 68  2  0
 67 66  1  0
 69 67  1  0
 70 79  2  0
 70 75  1  0
 71 67  1  0
 71 75  1  0
 72 71  1  0
 73 74  1  0
 73 72  1  0
 74 70  1  0
 75 76  2  0
 76 77  1  0
 78 77  2  0
 79 78  1  0
 80 54  1  0
 80 81  1  0
 80 90  1  0
 81 84  1  0
 82 81  1  0
 82 86  1  0
 83 82  2  0
 86 85  1  0
 86 88  1  0
 88 89  1  0
 88 87  1  0
 90 93  1  1
 90 91  1  0
 92 90  1  0
M  ISO  4  13 100  21 100  52 101  53 101
M  END
>  <TORSDO>  (95) 
F 21

>  <SCORE>  (95) 
-10.497

>  <name>  (95) 
94

>  <ligand_id>  (95) 
94

>  <original_smiles>  (95) 
[H]C1=C([H])C2([H])C([H])([H])C1([H])C([H])(C([H])([H])C([H])([H])C([H])([H])N([H])C(=O)N1C([H])([H])C([H])([H])C([H])([H])C([H])(n3nc(-c4c([H])c([H])c(Oc5c([H])c([H])c(F)c([H])c5F)c([H])c4[H])c(C(=O)N([H])[H])c3N([H])[H])C1([H])[H])C([H])([H])[N+]2([H])C([H])([H])C([H])([H])Oc1c([H])c([H])c2c(c1[H])C([H])([H])N(C(=O)C([H])(N([H])C(=O)C([H])(N([H])C([H])([H])[H])C([H])([H])[H])C(C([H])([H])[H])(C([H])([H])[H])C([H])([H])[H])C([H])(C(=O)N([H])C1([H])c3c([H])c([H])c([H])c([H])c3C([H])([H])C([H])([H])C1([H])[H])C2([H])[H]

>  <smiles>  (95) 
[H]C1=C([H])C2([H])C([H])([H])C1([H])C([H])(C([H])([H])C([H])([H])C([H])([H])N([H])C(=O)N1C([H])([H])C([H])([H])C([H])([H])C([H])(n3nc(-c4c([H])c([H])c(Oc5c([H])c([H])c(F)c([H])c5F)c([H])c4[H])c(C(=O)N([H])[H])c3N([H])[H])C1([H])[H])C([H])([H])[N+]2([H])C([H])([H])C([H])([H])Oc1c([H])c([H])c2c(c1[H])C([H])([H])N(C(=O)C([H])(N([H])C(=O)C([H])(N([H])C([H])([H])[H])C([H])([H])[H])C(C([H])([H])[H])(C([H])([H])[H])C([H])([H])[H])C([H])(C(=O)N([H])C1([H])c3c([H])c([H])c([H])c([H])c3C([H])([H])C([H])([H])C1([H])[H])C2([H])[H]

$$$$
95:0:0
     RDKit          3D

 90 98  0  0  1  0  0  0  0  0999 V2000
  -29.5930  -21.2390   19.3440 N   0  0  0  0  0  4  0  0  0  0  0  0
  -29.0570  -21.2960   18.4930 H   0  0  0  0  0  0  0  0  0  0  0  0
  -30.5320  -21.4570   19.0530 H   0  0  0  0  0  0  0  0  0  0  0  0
  -30.7870  -15.4760   18.6620 C   0  0  0  0  0  0  0  0  0  0  0  0
  -30.4300  -13.1140   17.6010 C   0  0  0  0  0  2  0  0  0  0  0  0
  -29.1470  -12.9750   16.7390 C   0  0  0  0  0  2  0  0  0  0  0  0
  -27.9300  -12.6380   17.6140 C   0  0  0  0  0  2  0  0  0  0  0  0
  -27.9000  -13.4910   18.9020 C   0  0  0  0  0  3  0  0  0  0  0  0
  -29.2670  -13.5260   19.6070 C   0  0  0  0  0  2  0  0  0  0  0  0
  -30.2110  -14.1620   18.6740 N   0  0  0  0  0  0  0  0  0  0  0  0
  -31.7970  -15.5080   17.9370 O   0  0  0  0  0  0  0  0  0  0  0  0
  -30.5630  -18.9290   20.6640 C   0  0  0  0  0  2  0  0  0  0  0  0
  -29.9490  -18.2450   18.5870 C   0  0  0  0  0  2  0  0  0  0  0  0
  -29.6120  -19.5760   19.6440 C   0  0  0  0  0  3  0  0  0  0  0  0
  -30.4760  -17.3060   20.5860 C   0  0  0  0  0  3  0  0  0  0  0  0
  -30.2000  -16.7620   19.1940 N   0  0  0  0  0  0  0  0  0  0  0  0
  -26.1130  -13.9410   20.6560 C   0  0  0  0  0  0  0  0  0  0  0  0
  -25.1500  -13.1550   21.2190 C   0  0  0  0  0  0  0  0  0  0  0  0
  -25.3320  -11.8460   20.6660 C   0  0  0  0  0  0  0  0  0  0  0  0
  -26.8230  -13.1170   19.8040 N   0  0  0  0  0  0  0  0  0  0  0  0
  -26.3900  -11.8300   19.8630 N   0  0  0  0  0  0  0  0  0  0  0  0
  -24.5230  -10.6300   20.8110 C   0  0  0  0  0  0  0  0  0  0  0  0
  -25.0020   -9.5000   21.5100 C   0  0  0  0  0  3  0  0  0  0  0  0
  -24.1950   -8.3500   21.6530 C   0  0  0  0  0  3  0  0  0  0  0  0
  -22.8950   -8.3210   21.0970 C   0  0  0  0  0  0  0  0  0  0  0  0
  -22.4320   -9.4380   20.3790 C   0  0  0  0  0  3  0  0  0  0  0  0
  -23.2370  -10.5790   20.2330 C   0  0  0  0  0  3  0  0  0  0  0  0
  -22.0490   -7.2390   21.1650 O   0  0  0  0  0  0  0  0  0  0  0  0
  -21.9230   -6.4950   22.3120 C   0  0  0  0  0  0  0  0  0  0  0  0
  -21.5200   -7.0750   23.5360 C   0  0  0  0  0  3  0  0  0  0  0  0
  -21.3370   -6.2620   24.6720 C   0  0  0  0  0  3  0  0  0  0  0  0
  -21.5420   -4.8720   24.5870 C   0  0  0  0  0  0  0  0  0  0  0  0
  -21.9390   -4.2930   23.3680 C   0  0  0  0  0  3  0  0  0  0  0  0
  -22.1240   -5.1020   22.2340 C   0  0  0  0  0  0  0  0  0  0  0  0
  -22.4850   -4.5360   21.0570 F   0  0  0  0  0  0  0  0  0  0  0  0
  -21.3580   -4.0910   25.6770 F   0  0  0  0  0  0  0  0  0  0  0  0
  -24.0540  -13.6090   22.1390 C   0  0  0  0  0  0  0  0  0  0  0  0
  -23.5660  -12.7210   22.9950 N   0  0  0  0  0  0  0  0  0  0  0  0
  -23.6590  -14.7750   22.1290 O   0  0  0  0  0  0  0  0  0  0  0  0
  -23.8990  -11.7670   22.9960 H   0  0  0  0  0  0  0  0  0  0  0  0
  -22.8510  -12.9920   23.6540 H   0  0  0  0  0  0  0  0  0  0  0  0
  -26.4320  -15.2950   20.7620 N   0  0  0  0  0  0  0  0  0  0  0  0
  -25.8940  -15.9420   21.3300 H   0  0  0  0  0  0  0  0  0  0  0  0
  -27.1020  -15.7550   20.1570 H   0  0  0  0  0  0  0  0  0  0  0  0
  -29.4280  -16.7350   21.5750 C   0  0  0  0  0  2  0  0  0  0  0  0
  -30.8220  -17.4930   23.6190 C   0  0  0  0  0  1  0  0  0  0  0  0
  -29.4250  -17.2820   23.0160 C   0  0  0  0  0  2  0  0  0  0  0  0
  -29.0870  -22.5970   20.2140 C   0  0  0  0  0  2  0  0  0  0  0  0
  -28.5700  -24.2590   19.6630 C   0  0  0  0  0  2  0  0  0  0  0  0
  -28.4510  -25.8050   20.2950 O   0  0  0  0  0  0  0  0  0  0  0  0
  -24.6820  -31.6510   23.2430 C   0  0  0  0  0  0  0  0  0  0  0  0
  -27.4290  -26.8970   20.1650 C   0  0  0  0  0  0  0  0  0  0  0  0
  -23.5720  -30.2850   21.5230 C   0  0  0  0  0  3  0  0  0  0  0  0
  -25.0980  -28.7560   20.0900 C   0  0  0  0  0  0  0  0  0  0  0  0
  -26.1380  -30.5410   21.4730 C   0  0  0  0  0  2  0  0  0  0  0  0
  -26.2550  -29.1540   20.7720 C   0  0  0  0  0  0  0  0  0  0  0  0
  -27.4080  -28.2440   20.7920 C   0  0  0  0  0  3  0  0  0  0  0  0
  -26.2460  -26.6630   19.4270 C   0  0  0  0  0  3  0  0  0  0  0  0
  -25.1210  -27.5310   19.4000 C   0  0  0  0  0  3  0  0  0  0  0  0
  -23.8590  -29.6520   20.1300 C   0  0  0  0  0  2  0  0  0  0  0  0
  -24.8180  -30.8530   22.1350 N   0  0  0  0  0  0  0  0  0  0  0  0
  -23.5710  -31.9050   23.7350 O   0  0  0  0  0  0  0  0  0  0  0  0
  -22.8690  -29.2460   22.4310 C   0  0  0  0  0  0  0  0  0  0  0  0
  -21.5500  -29.0510   22.2460 N   0  0  0  0  0  0  0  0  0  0  0  0
  -23.5150  -28.6160   23.2700 O   0  0  0  0  0  0  0  0  0  0  0  0
  -21.0810  -29.6030   21.5410 H   0  0  0  0  0  0  0  0  0  0  0  0
  -18.1860  -27.7390   22.5930 C   0  0  0  0  0  0  0  0  0  0  0  0
  -20.7260  -28.0720   22.9610 C   0  0  0  0  0  3  0  0  0  0  0  0
  -20.8910  -26.6570   22.3580 C   0  0  0  0  0  2  0  0  0  0  0  0
  -19.8380  -26.3310   21.2940 C   0  0  0  0  0  2  0  0  0  0  0  0
  -18.4280  -26.4150   21.8880 C   0  0  0  0  0  2  0  0  0  0  0  0
  -19.2650  -28.5240   23.0840 C   0  0  0  0  0  0  0  0  0  0  0  0
  -18.9840  -29.7580   23.7090 C   0  0  0  0  0  3  0  0  0  0  0  0
  -17.6590  -30.2130   23.8440 C   0  0  0  0  0  3  0  0  0  0  0  0
  -16.5950  -29.4290   23.3670 C   0  0  0  0  0  3  0  0  0  0  0  0
  -16.8570  -28.1930   22.7480 C   0  0  0  0  0  3  0  0  0  0  0  0
  -25.9200  -32.2970   23.9370 C   0  0  0  0  0  3  0  0  0  0  0  0
  -26.3940  -31.5060   25.2190 C   0  0  1  0  0  0  0  0  0  0  0  0
  -25.2590  -31.2080   26.2280 C   0  0  0  0  0  1  0  0  0  0  0  0
  -27.0370  -30.1550   24.8320 C   0  0  0  0  0  1  0  0  0  0  0  0
  -27.4890  -32.3140   25.9560 C   0  0  0  0  0  1  0  0  0  0  0  0
  -25.5640  -33.6820   24.2990 N   0  0  0  0  0  0  0  0  0  0  0  0
  -25.8980  -34.7680   23.5900 C   0  0  0  0  0  0  0  0  0  0  0  0
  -26.5950  -34.7120   22.5750 O   0  0  0  0  0  0  0  0  0  0  0  0
  -24.9440  -33.7980   25.0860 H   0  0  0  0  0  0  0  0  0  0  0  0
  -24.1350  -36.5370   23.2670 C   0  0  0  0  0  1  0  0  0  0  0  0
  -25.3750  -36.1340   24.0820 C   0  0  0  0  0  3  0  0  0  0  0  0
  -27.4800  -37.0400   24.9670 C   0  0  0  0  0  1  0  0  0  0  0  0
  -26.3870  -37.2120   24.0130 N   0  0  0  0  0  0  0  0  0  0  0  0
  -25.9590  -38.1190   24.1810 H   0  0  0  0  0  0  0  0  0  0  0  0
  1 48  1  0
  2  1  1  0
  3  1  1  0
  4 10  1  0
  4 16  1  0
  5 10  1  0
  6  5  1  0
  6  7  1  0
  8  7  1  0
  8  9  1  0
  8 20  1  0
 10  9  1  0
 11  4  2  0
 13 16  1  0
 13 14  1  0
 14  1  1  0
 14 12  1  0
 15 12  1  0
 15 45  1  0
 16 15  1  0
 17 42  1  0
 17 18  2  0
 18 37  1  0
 19 22  1  0
 19 18  1  0
 20 21  1  0
 20 17  1  0
 21 19  2  0
 22 23  1  0
 23 24  2  0
 25 28  1  0
 25 24  1  0
 26 25  2  0
 27 26  1  0
 27 22  2  0
 28 29  1  0
 29 30  1  0
 30 31  2  0
 32 31  1  0
 32 36  1  0
 33 32  2  0
 34 29  2  0
 34 33  1  0
 35 34  1  0
 37 38  1  0
 38 40  1  0
 38 41  1  0
 39 37  2  0
 42 43  1  0
 44 42  1  0
 45 47  1  0
 47 46  1  0
 49 48  1  0
 49 50  1  0
 51 62  2  0
 52 50  1  0
 52 57  1  0
 53 61  1  0
 53 63  1  0
 54 60  1  0
 54 56  1  0
 55 61  1  0
 56 57  2  0
 56 55  1  0
 58 52  2  0
 59 58  1  0
 59 54  2  0
 60 53  1  0
 61 51  1  0
 63 65  2  0
 64 63  1  0
 66 64  1  0
 67 76  2  0
 67 72  1  0
 68 64  1  0
 68 72  1  0
 69 68  1  0
 70 71  1  0
 70 69  1  0
 71 67  1  0
 72 73  2  0
 73 74  1  0
 75 74  2  0
 76 75  1  0
 77 51  1  0
 77 82  1  0
 77 78  1  0
 78 81  1  1
 78 79  1  0
 80 78  1  0
 82 85  1  0
 83 87  1  0
 83 82  1  0
 84 83  2  0
 87 86  1  0
 89 87  1  0
 89 90  1  0
 89 88  1  0
M  ISO  4   4 100  16 100  49 101  50 101
M  END
>  <TORSDO>  (96) 
F 20

>  <SCORE>  (96) 
-4.636

>  <name>  (96) 
95

>  <ligand_id>  (96) 
95

>  <original_smiles>  (96) 
[H]c1c([H])c([H])c2c(c1[H])C([H])([H])C([H])([H])C([H])([H])C2([H])N([H])C(=O)C1([H])N(C(=O)C([H])(N([H])C(=O)C([H])(N([H])C([H])([H])[H])C([H])([H])[H])C(C([H])([H])[H])(C([H])([H])[H])C([H])([H])[H])C([H])([H])c2c([H])c(OC([H])([H])C([H])([H])[N+]([H])([H])C3([H])C([H])([H])N(C(=O)N4C([H])([H])C([H])([H])C([H])([H])C([H])(n5nc(-c6c([H])c([H])c(Oc7c([H])c([H])c(F)c([H])c7F)c([H])c6[H])c(C(=O)N([H])[H])c5N([H])[H])C4([H])[H])C([H])(C([H])([H])C([H])([H])C([H])([H])[H])C3([H])[H])c([H])c([H])c2C1([H])[H]

>  <smiles>  (96) 
[H]c1c([H])c([H])c2c(c1[H])C([H])([H])C([H])([H])C([H])([H])C2([H])N([H])C(=O)C1([H])N(C(=O)C([H])(N([H])C(=O)C([H])(N([H])C([H])([H])[H])C([H])([H])[H])C(C([H])([H])[H])(C([H])([H])[H])C([H])([H])[H])C([H])([H])c2c([H])c(OC([H])([H])C([H])([H])[N+]([H])([H])C3([H])C([H])([H])N(C(=O)N4C([H])([H])C([H])([H])C([H])([H])C([H])(n5nc(-c6c([H])c([H])c(Oc7c([H])c([H])c(F)c([H])c7F)c([H])c6[H])c(C(=O)N([H])[H])c5N([H])[H])C4([H])[H])C([H])(C([H])([H])C([H])([H])C([H])([H])[H])C3([H])[H])c([H])c([H])c2C1([H])[H]

$$$$
