0:0:0
     RDKit          3D

 88 95  0  0  1  0  0  0  0  0999 V2000
  -29.2880  -21.4530   20.1430 C   0  0  0  0  0  3  0  0  0  0  0  0
  -28.3430  -22.8630   20.5550 C   0  0  0  0  0  2  0  0  0  0  0  0
  -28.2950  -24.5250   19.9710 C   0  0  0  0  0  2  0  0  0  0  0  0
  -28.2750  -26.0970   20.3120 O   0  0  0  0  0  0  0  0  0  0  0  0
  -24.6250  -31.8840   23.2070 C   0  0  0  0  0  0  0  0  0  0  0  0
  -27.2080  -27.0940   20.2050 C   0  0  0  0  0  0  0  0  0  0  0  0
  -23.4300  -30.4790   21.5720 C   0  0  0  0  0  3  0  0  0  0  0  0
  -24.8800  -28.8830   20.1520 C   0  0  0  0  0  0  0  0  0  0  0  0
  -25.9860  -30.7260   21.4130 C   0  0  0  0  0  2  0  0  0  0  0  0
  -26.0600  -29.3240   20.7660 C   0  0  0  0  0  0  0  0  0  0  0  0
  -27.2180  -28.4450   20.7710 C   0  0  0  0  0  3  0  0  0  0  0  0
  -26.0020  -26.7710   19.5460 C   0  0  0  0  0  3  0  0  0  0  0  0
  -24.8700  -27.6250   19.5250 C   0  0  0  0  0  3  0  0  0  0  0  0
  -23.6540  -29.7890   20.1970 C   0  0  0  0  0  2  0  0  0  0  0  0
  -24.7010  -31.0550   22.1190 N   0  0  0  0  0  0  0  0  0  0  0  0
  -23.5370  -32.1720   23.7310 O   0  0  0  0  0  0  0  0  0  0  0  0
  -22.7440  -29.4830   22.5410 C   0  0  0  0  0  0  0  0  0  0  0  0
  -21.4140  -29.3190   22.4200 N   0  0  0  0  0  0  0  0  0  0  0  0
  -23.4130  -28.8580   23.3680 O   0  0  0  0  0  0  0  0  0  0  0  0
  -20.9290  -29.8740   21.7280 H   0  0  0  0  0  0  0  0  0  0  0  0
  -18.0300  -28.1290   22.9400 C   0  0  0  0  0  0  0  0  0  0  0  0
  -20.5920  -28.3850   23.1940 C   0  0  0  0  0  3  0  0  0  0  0  0
  -20.6850  -26.9520   22.6200 C   0  0  0  0  0  2  0  0  0  0  0  0
  -19.5780  -26.6340   21.6100 C   0  0  0  0  0  2  0  0  0  0  0  0
  -18.2000  -26.7810   22.2600 C   0  0  0  0  0  2  0  0  0  0  0  0
  -19.1530  -28.8900   23.3640 C   0  0  0  0  0  0  0  0  0  0  0  0
  -18.9380  -30.1500   23.9620 C   0  0  0  0  0  3  0  0  0  0  0  0
  -17.6350  -30.6510   24.1390 C   0  0  0  0  0  3  0  0  0  0  0  0
  -16.5270  -29.8900   23.7290 C   0  0  0  0  0  3  0  0  0  0  0  0
  -16.7250  -28.6300   23.1360 C   0  0  0  0  0  3  0  0  0  0  0  0
  -25.8990  -32.5260   23.8350 C   0  0  0  0  0  3  0  0  0  0  0  0
  -26.4090  -31.7620   25.1210 C   0  0  1  0  0  0  0  0  0  0  0  0
  -25.3110  -31.5310   26.1860 C   0  0  0  0  0  1  0  0  0  0  0  0
  -26.9930  -30.3810   24.7450 C   0  0  0  0  0  1  0  0  0  0  0  0
  -27.5580  -32.5600   25.7830 C   0  0  0  0  0  1  0  0  0  0  0  0
  -25.5820  -33.9250   24.1690 N   0  0  0  0  0  0  0  0  0  0  0  0
  -25.9130  -34.9850   23.4180 C   0  0  0  0  0  0  0  0  0  0  0  0
  -26.5810  -34.8880   22.3850 O   0  0  0  0  0  0  0  0  0  0  0  0
  -24.9880  -34.0730   24.9710 H   0  0  0  0  0  0  0  0  0  0  0  0
  -24.1840  -36.7850   23.0840 C   0  0  0  0  0  1  0  0  0  0  0  0
  -25.4290  -36.3730   23.8870 C   0  0  0  0  0  3  0  0  0  0  0  0
  -27.5650  -37.2560   24.7170 C   0  0  0  0  0  1  0  0  0  0  0  0
  -26.4600  -37.4260   23.7750 N   0  0  0  0  0  0  0  0  0  0  0  0
  -26.0550  -38.3460   23.9260 H   0  0  0  0  0  0  0  0  0  0  0  0
  -28.9720  -19.7500   20.4120 C   0  0  0  0  0  3  0  0  0  0  0  0
  -30.0110  -18.3340   20.3930 C   0  0  0  0  0  3  0  0  0  0  0  0
  -31.1010  -18.5820   19.4310 N   0  0  0  0  0  4  0  0  0  0  0  0
  -30.7590  -18.6060   18.4870 H   0  0  0  0  0  0  0  0  0  0  0  0
  -31.7990  -17.8620   19.4990 H   0  0  0  0  0  0  0  0  0  0  0  0
  -31.5480  -19.4600   19.6270 H   0  0  0  0  0  0  0  0  0  0  0  0
  -28.6250  -16.6330   19.0220 C   0  0  0  0  0  1  0  0  0  0  0  0
  -29.5300  -16.6520   20.2770 C   0  0  0  0  0  3  0  0  0  0  0  0
  -30.4350  -15.1820   20.2560 C   0  0  0  0  0  0  0  0  0  0  0  0
  -30.4200  -12.7670   19.3850 C   0  0  0  0  0  2  0  0  0  0  0  0
  -29.4860  -12.6440   18.1540 C   0  0  0  0  0  2  0  0  0  0  0  0
  -28.0310  -12.3820   18.5890 C   0  0  0  0  0  2  0  0  0  0  0  0
  -27.5930  -13.3100   19.7490 C   0  0  0  0  0  3  0  0  0  0  0  0
  -28.6520  -13.4070   20.8660 C   0  0  0  0  0  2  0  0  0  0  0  0
  -29.9080  -13.8720   20.2590 N   0  0  0  0  0  0  0  0  0  0  0  0
  -31.6500  -15.2350   20.0220 O   0  0  0  0  0  0  0  0  0  0  0  0
  -25.2170  -13.8630   20.5040 C   0  0  0  0  0  0  0  0  0  0  0  0
  -24.1610  -13.0780   20.8720 C   0  0  0  0  0  0  0  0  0  0  0  0
  -24.6400  -11.7320   20.8390 C   0  0  0  0  0  0  0  0  0  0  0  0
  -26.2670  -12.9940   20.2580 N   0  0  0  0  0  0  0  0  0  0  0  0
  -25.9310  -11.7070   20.5280 N   0  0  0  0  0  0  0  0  0  0  0  0
  -23.9260  -10.4640   21.0260 C   0  0  0  0  0  0  0  0  0  0  0  0
  -24.3550   -9.5080   21.9730 C   0  0  0  0  0  3  0  0  0  0  0  0
  -23.6390   -8.3050   22.1500 C   0  0  0  0  0  3  0  0  0  0  0  0
  -22.4810   -8.0500   21.3780 C   0  0  0  0  0  0  0  0  0  0  0  0
  -22.0710   -8.9940   20.4210 C   0  0  0  0  0  3  0  0  0  0  0  0
  -22.7880  -10.1880   20.2430 C   0  0  0  0  0  3  0  0  0  0  0  0
  -21.7370   -6.8970   21.4630 O   0  0  0  0  0  0  0  0  0  0  0  0
  -21.6690   -6.1700   22.6240 C   0  0  0  0  0  0  0  0  0  0  0  0
  -21.1940   -6.7330   23.8290 C   0  0  0  0  0  3  0  0  0  0  0  0
  -21.0740   -5.9300   24.9820 C   0  0  0  0  0  3  0  0  0  0  0  0
  -21.4180   -4.5660   24.9300 C   0  0  0  0  0  0  0  0  0  0  0  0
  -21.8860   -4.0030   23.7290 C   0  0  0  0  0  3  0  0  0  0  0  0
  -22.0080   -4.8030   22.5790 C   0  0  0  0  0  0  0  0  0  0  0  0
  -22.4380   -4.2510   21.4190 F   0  0  0  0  0  0  0  0  0  0  0  0
  -21.2960   -3.7930   26.0340 F   0  0  0  0  0  0  0  0  0  0  0  0
  -22.7600  -13.5430   21.1400 C   0  0  0  0  0  0  0  0  0  0  0  0
  -22.0360  -12.8390   22.0040 N   0  0  0  0  0  0  0  0  0  0  0  0
  -22.3150  -14.5660   20.6220 O   0  0  0  0  0  0  0  0  0  0  0  0
  -22.4090  -12.0110   22.4450 H   0  0  0  0  0  0  0  0  0  0  0  0
  -21.0960  -13.1320   22.2270 H   0  0  0  0  0  0  0  0  0  0  0  0
  -25.3650  -15.2360   20.3340 N   0  0  0  0  0  0  0  0  0  0  0  0
  -24.5930  -15.8810   20.4570 H   0  0  0  0  0  0  0  0  0  0  0  0
  -26.2150  -15.6870   20.0240 H   0  0  0  0  0  0  0  0  0  0  0  0
  1 45  2  0
  1  2  1  0
  3  4  1  0
  3  2  1  0
  5 16  2  0
  6  4  1  0
  6 11  1  0
  7 15  1  0
  7 17  1  0
  8 14  1  0
  8 10  1  0
  9 15  1  0
 10 11  2  0
 10  9  1  0
 12  6  2  0
 13 12  1  0
 13  8  2  0
 14  7  1  0
 15  5  1  0
 17 19  2  0
 18 17  1  0
 20 18  1  0
 21 30  2  0
 21 26  1  0
 22 18  1  0
 22 26  1  0
 23 22  1  0
 24 25  1  0
 24 23  1  0
 25 21  1  0
 26 27  2  0
 27 28  1  0
 29 28  2  0
 30 29  1  0
 31  5  1  0
 31 36  1  0
 31 32  1  0
 32 35  1  1
 32 33  1  0
 34 32  1  0
 36 39  1  0
 37 41  1  0
 37 36  1  0
 38 37  2  0
 41 40  1  0
 43 41  1  0
 43 44  1  0
 43 42  1  0
 46 45  1  0
 47 49  1  0
 47 50  1  0
 47 46  1  0
 48 47  1  0
 52 51  1  0
 52 46  1  0
 53 59  1  0
 53 52  1  0
 54 59  1  0
 55 56  1  0
 55 54  1  0
 57 56  1  0
 57 64  1  0
 57 58  1  0
 59 58  1  0
 60 53  2  0
 61 62  2  0
 62 81  1  0
 63 62  1  0
 63 66  1  0
 64 61  1  0
 64 65  1  0
 65 63  2  0
 66 67  1  0
 67 68  2  0
 69 72  1  0
 69 68  1  0
 70 69  2  0
 71 70  1  0
 71 66  2  0
 72 73  1  0
 73 74  1  0
 74 75  2  0
 76 75  1  0
 76 80  1  0
 77 76  2  0
 78 73  2  0
 78 77  1  0
 79 78  1  0
 81 82  1  0
 82 85  1  0
 82 84  1  0
 83 81  2  0
 86 87  1  0
 86 61  1  0
 88 86  1  0
M  ISO  4   3 101   4 101  52 100  53 100
M  END
>  <TORSDO>  (1) 
F 22

>  <SCORE>  (1) 
-16.080

>  <name>  (1) 
0

>  <ligand_id>  (1) 
0

>  <original_smiles>  (1) 
[H]c1c([H])c([H])c2c(c1[H])C([H])([H])C([H])([H])C([H])([H])C2([H])N([H])C(=O)C1([H])N(C(=O)C([H])(N([H])C(=O)C([H])(N([H])C([H])([H])[H])C([H])([H])[H])C(C([H])([H])[H])(C([H])([H])[H])C([H])([H])[H])C([H])([H])c2c([H])c(OC([H])([H])C([H])([H])C([H])([H])C([H])([H])C([H])(C([H])(C(=O)N3C([H])([H])C([H])([H])C([H])([H])C([H])(n4nc(-c5c([H])c([H])c(Oc6c([H])c([H])c(F)c([H])c6F)c([H])c5[H])c(C(=O)N([H])[H])c4N([H])[H])C3([H])[H])C([H])([H])[H])[N+]([H])([H])[H])c([H])c([H])c2C1([H])[H]

>  <smiles>  (1) 
[H]c1c([H])c([H])c2c(c1[H])C([H])([H])C([H])([H])C([H])([H])C2([H])N([H])C(=O)C1([H])N(C(=O)C([H])(N([H])C(=O)C([H])(N([H])C([H])([H])[H])C([H])([H])[H])C(C([H])([H])[H])(C([H])([H])[H])C([H])([H])[H])C([H])([H])c2c([H])c(OC([H])([H])C([H])([H])C([H])([H])C([H])([H])C([H])(C([H])(C(=O)N3C([H])([H])C([H])([H])C([H])([H])C([H])(n4nc(-c5c([H])c([H])c(Oc6c([H])c([H])c(F)c([H])c6F)c([H])c5[H])c(C(=O)N([H])[H])c4N([H])[H])C3([H])[H])C([H])([H])[H])[N+]([H])([H])[H])c([H])c([H])c2C1([H])[H]

$$$$
1:0:0
     RDKit          3D

 89 97  0  0  1  0  0  0  0  0999 V2000
  -29.0630  -19.7280   21.5200 C   0  0  0  0  0  2  0  0  0  0  0  0
  -28.8630  -21.3030   21.4830 C   0  0  0  0  0  2  0  0  0  0  0  0
  -29.2820  -19.1290   20.1010 C   0  0  0  0  0  3  0  0  0  0  0  0
  -28.7520  -21.8340   20.0300 C   0  0  0  0  0  3  0  0  0  0  0  0
  -29.5890  -20.5790   19.3750 C   0  0  0  0  0  3  0  0  0  0  0  0
  -29.3920  -20.5060   17.8550 C   0  0  0  0  0  1  0  0  0  0  0  0
  -30.6780  -15.2070   19.9110 C   0  0  0  0  0  0  0  0  0  0  0  0
  -30.5120  -12.8400   18.9960 C   0  0  0  0  0  2  0  0  0  0  0  0
  -29.5190  -12.7670   17.8140 C   0  0  0  0  0  2  0  0  0  0  0  0
  -28.0880  -12.5290   18.3320 C   0  0  0  0  0  2  0  0  0  0  0  0
  -27.7290  -13.4640   19.5170 C   0  0  0  0  0  3  0  0  0  0  0  0
  -28.8450  -13.5240   20.5820 C   0  0  0  0  0  2  0  0  0  0  0  0
  -30.0700  -13.9480   19.8950 N   0  0  0  0  0  0  0  0  0  0  0  0
  -31.8710  -15.2250   19.5850 O   0  0  0  0  0  0  0  0  0  0  0  0
  -30.2870  -17.7940   20.0170 C   0  0  0  0  0  0  0  0  0  0  0  0
  -29.9210  -16.4110   20.0800 N   0  0  0  0  0  0  0  0  0  0  0  0
  -31.4770  -18.0900   19.8810 O   0  0  0  0  0  0  0  0  0  0  0  0
  -28.9410  -16.2580   20.2570 H   0  0  0  0  0  0  0  0  0  0  0  0
  -25.4080  -14.0100   20.4410 C   0  0  0  0  0  0  0  0  0  0  0  0
  -24.3690  -13.2200   20.8480 C   0  0  0  0  0  0  0  0  0  0  0  0
  -24.8260  -11.8710   20.7310 C   0  0  0  0  0  0  0  0  0  0  0  0
  -26.4300  -13.1430   20.0960 N   0  0  0  0  0  0  0  0  0  0  0  0
  -26.0950  -11.8480   20.3380 N   0  0  0  0  0  0  0  0  0  0  0  0
  -24.1100  -10.6020   20.9160 C   0  0  0  0  0  0  0  0  0  0  0  0
  -24.5250   -9.6530   21.8760 C   0  0  0  0  0  3  0  0  0  0  0  0
  -23.8060   -8.4500   22.0500 C   0  0  0  0  0  3  0  0  0  0  0  0
  -22.6610   -8.1880   21.2640 C   0  0  0  0  0  0  0  0  0  0  0  0
  -22.2650   -9.1260   20.2930 C   0  0  0  0  0  3  0  0  0  0  0  0
  -22.9840  -10.3200   20.1180 C   0  0  0  0  0  3  0  0  0  0  0  0
  -21.9170   -7.0350   21.3440 O   0  0  0  0  0  0  0  0  0  0  0  0
  -21.7360   -6.3770   22.5340 C   0  0  0  0  0  0  0  0  0  0  0  0
  -21.0760   -6.9790   23.6260 C   0  0  0  0  0  3  0  0  0  0  0  0
  -20.8510   -6.2420   24.8070 C   0  0  0  0  0  3  0  0  0  0  0  0
  -21.2790   -4.9020   24.8920 C   0  0  0  0  0  0  0  0  0  0  0  0
  -21.9320   -4.3000   23.8030 C   0  0  0  0  0  3  0  0  0  0  0  0
  -22.1580   -5.0350   22.6260 C   0  0  0  0  0  0  0  0  0  0  0  0
  -22.7690   -4.4430   21.5720 F   0  0  0  0  0  0  0  0  0  0  0  0
  -21.0570   -4.1920   26.0230 F   0  0  0  0  0  0  0  0  0  0  0  0
  -22.9930  -13.6860   21.2260 C   0  0  0  0  0  0  0  0  0  0  0  0
  -22.3220  -12.9570   22.1100 N   0  0  0  0  0  0  0  0  0  0  0  0
  -22.5260  -14.7310   20.7740 O   0  0  0  0  0  0  0  0  0  0  0  0
  -22.7180  -12.1110   22.4940 H   0  0  0  0  0  0  0  0  0  0  0  0
  -21.4030  -13.2480   22.4100 H   0  0  0  0  0  0  0  0  0  0  0  0
  -25.5620  -15.3870   20.3100 N   0  0  0  0  0  0  0  0  0  0  0  0
  -24.7950  -16.0280   20.4830 H   0  0  0  0  0  0  0  0  0  0  0  0
  -26.3660  -15.8350   19.8930 H   0  0  0  0  0  0  0  0  0  0  0  0
  -29.0620  -23.4950   19.7940 C   0  0  0  0  0  3  0  0  0  0  0  0
  -27.9860  -24.7940   19.9700 C   0  0  0  0  0  3  0  0  0  0  0  0
  -28.2540  -26.3370   19.8590 O   0  0  0  0  0  0  0  0  0  0  0  0
  -24.6810  -31.8820   23.2130 C   0  0  0  0  0  0  0  0  0  0  0  0
  -27.1890  -27.3190   19.8900 C   0  0  0  0  0  0  0  0  0  0  0  0
  -23.4430  -30.5590   21.5420 C   0  0  0  0  0  3  0  0  0  0  0  0
  -24.8560  -29.0600   20.0060 C   0  0  0  0  0  0  0  0  0  0  0  0
  -25.9900  -30.8430   21.3220 C   0  0  0  0  0  2  0  0  0  0  0  0
  -26.0520  -29.4810   20.6020 C   0  0  0  0  0  0  0  0  0  0  0  0
  -27.2200  -28.6290   20.5230 C   0  0  0  0  0  3  0  0  0  0  0  0
  -25.9650  -27.0090   19.2560 C   0  0  0  0  0  3  0  0  0  0  0  0
  -24.8260  -27.8410   19.3160 C   0  0  0  0  0  3  0  0  0  0  0  0
  -23.6280  -29.9460   20.1290 C   0  0  0  0  0  2  0  0  0  0  0  0
  -24.7270  -31.1140   22.0800 N   0  0  0  0  0  0  0  0  0  0  0  0
  -23.6080  -32.1350   23.7830 O   0  0  0  0  0  0  0  0  0  0  0  0
  -22.7940  -29.5040   22.4760 C   0  0  0  0  0  0  0  0  0  0  0  0
  -21.4690  -29.3080   22.3530 N   0  0  0  0  0  0  0  0  0  0  0  0
  -23.4860  -28.8660   23.2730 O   0  0  0  0  0  0  0  0  0  0  0  0
  -20.9670  -29.8740   21.6840 H   0  0  0  0  0  0  0  0  0  0  0  0
  -18.1180  -28.0290   22.8600 C   0  0  0  0  0  0  0  0  0  0  0  0
  -20.6750  -28.3260   23.0990 C   0  0  0  0  0  3  0  0  0  0  0  0
  -20.7930  -26.9190   22.4650 C   0  0  0  0  0  2  0  0  0  0  0  0
  -19.6800  -26.6190   21.4540 C   0  0  0  0  0  2  0  0  0  0  0  0
  -18.3070  -26.7120   22.1270 C   0  0  0  0  0  2  0  0  0  0  0  0
  -19.2300  -28.7940   23.3030 C   0  0  0  0  0  0  0  0  0  0  0  0
  -18.9970  -30.0260   23.9510 C   0  0  0  0  0  3  0  0  0  0  0  0
  -17.6860  -30.4930   24.1630 C   0  0  0  0  0  3  0  0  0  0  0  0
  -16.5890  -29.7250   23.7350 C   0  0  0  0  0  3  0  0  0  0  0  0
  -16.8060  -28.4950   23.0890 C   0  0  0  0  0  3  0  0  0  0  0  0
  -25.9720  -32.4950   23.8340 C   0  0  0  0  0  3  0  0  0  0  0  0
  -25.6740  -33.8880   24.2060 N   0  0  0  0  0  0  0  0  0  0  0  0
  -25.9530  -34.9580   23.4500 C   0  0  0  0  0  0  0  0  0  0  0  0
  -26.5570  -34.8770   22.3770 O   0  0  0  0  0  0  0  0  0  0  0  0
  -25.1290  -34.0220   25.0450 H   0  0  0  0  0  0  0  0  0  0  0  0
  -24.1840  -36.7400   23.2670 C   0  0  0  0  0  1  0  0  0  0  0  0
  -25.4930  -36.3360   23.9660 C   0  0  0  0  0  3  0  0  0  0  0  0
  -27.6690  -37.2500   24.6450 C   0  0  0  0  0  1  0  0  0  0  0  0
  -26.5020  -37.4020   23.7810 N   0  0  0  0  0  0  0  0  0  0  0  0
  -26.0960  -38.3180   23.9540 H   0  0  0  0  0  0  0  0  0  0  0  0
  -26.4970  -31.6930   25.0880 C   0  0  1  0  0  0  0  0  0  0  0  0
  -25.4100  -31.4190   26.1530 C   0  0  0  0  0  1  0  0  0  0  0  0
  -27.0880  -30.3300   24.6630 C   0  0  0  0  0  1  0  0  0  0  0  0
  -27.6450  -32.4780   25.7670 C   0  0  0  0  0  1  0  0  0  0  0  0
  2  1  1  0
  3 15  1  0
  3  1  1  0
  4 47  1  0
  4  2  1  0
  5  6  1  0
  5  4  1  0
  5  3  1  0
  7 16  1  0
  8 13  1  0
  9 10  1  0
  9  8  1  0
 11 10  1  0
 11 22  1  0
 11 12  1  0
 13  7  1  0
 13 12  1  0
 14  7  2  0
 15 16  1  0
 16 18  1  0
 17 15  2  0
 19 20  2  0
 20 39  1  0
 21 20  1  0
 21 24  1  0
 22 23  1  0
 22 19  1  0
 23 21  2  0
 24 25  1  0
 25 26  2  0
 27 30  1  0
 27 26  1  0
 28 27  2  0
 29 28  1  0
 29 24  2  0
 30 31  1  0
 31 36  2  0
 31 32  1  0
 32 33  2  0
 33 34  1  0
 34 38  1  0
 35 34  2  0
 36 35  1  0
 37 36  1  0
 39 40  1  0
 40 43  1  0
 40 42  1  0
 41 39  2  0
 44 19  1  0
 44 45  1  0
 46 44  1  0
 47 48  2  0
 49 51  1  0
 49 48  1  0
 50 61  2  0
 51 56  1  0
 52 60  1  0
 52 62  1  0
 53 59  1  0
 53 55  1  0
 54 60  1  0
 55 54  1  0
 56 55  2  0
 57 58  1  0
 57 51  2  0
 58 53  2  0
 59 52  1  0
 60 50  1  0
 62 64  2  0
 63 62  1  0
 65 63  1  0
 66 75  2  0
 66 71  1  0
 67 63  1  0
 67 71  1  0
 68 67  1  0
 69 70  1  0
 69 68  1  0
 70 66  1  0
 71 72  2  0
 72 73  1  0
 74 73  2  0
 75 74  1  0
 76 50  1  0
 76 77  1  0
 76 86  1  0
 77 80  1  0
 78 82  1  0
 78 77  1  0
 79 78  2  0
 82 81  1  0
 84 85  1  0
 84 82  1  0
 84 83  1  0
 86 89  1  1
 86 87  1  0
 88 86  1  0
M  ISO  4   7 100  16 100  48 101  49 101
M  END
>  <TORSDO>  (2) 
F 18

>  <SCORE>  (2) 
-14.675

>  <name>  (2) 
1

>  <ligand_id>  (2) 
1

>  <original_smiles>  (2) 
[H]c1c([H])c([H])c2c(c1[H])C([H])([H])C([H])([H])C([H])([H])C2([H])N([H])C(=O)C1([H])N(C(=O)C([H])(N([H])C(=O)C([H])(N([H])C([H])([H])[H])C([H])([H])[H])C(C([H])([H])[H])(C([H])([H])[H])C([H])([H])[H])C([H])([H])c2c([H])c(OC([H])([H])C([H])([H])C3([H])C([H])([H])C([H])([H])C([H])(C(=O)N([H])C(=O)N4C([H])([H])C([H])([H])C([H])([H])C([H])(n5nc(-c6c([H])c([H])c(Oc7c([H])c([H])c(F)c([H])c7F)c([H])c6[H])c(C(=O)N([H])[H])c5N([H])[H])C4([H])[H])C3([H])C([H])([H])[H])c([H])c([H])c2C1([H])[H]

>  <smiles>  (2) 
[H]c1c([H])c([H])c2c(c1[H])C([H])([H])C([H])([H])C([H])([H])C2([H])N([H])C(=O)C1([H])N(C(=O)C([H])(N([H])C(=O)C([H])(N([H])C([H])([H])[H])C([H])([H])[H])C(C([H])([H])[H])(C([H])([H])[H])C([H])([H])[H])C([H])([H])c2c([H])c(OC([H])([H])C([H])([H])C3([H])C([H])([H])C([H])([H])C([H])(C(=O)N([H])C(=O)N4C([H])([H])C([H])([H])C([H])([H])C([H])(n5nc(-c6c([H])c([H])c(Oc7c([H])c([H])c(F)c([H])c7F)c([H])c6[H])c(C(=O)N([H])[H])c5N([H])[H])C4([H])[H])C3([H])C([H])([H])[H])c([H])c([H])c2C1([H])[H]

$$$$
2:0:0
     RDKit          3D

 95103  0  0  1  0  0  0  0  0999 V2000
  -27.3940  -20.3290   19.4580 C   0  0  0  0  0  2  0  0  0  0  0  0
  -28.4900  -19.2660   19.7360 C   0  0  0  0  0  2  0  0  0  0  0  0
  -27.8360  -21.8140   19.6370 C   0  0  0  0  0  3  0  0  0  0  0  0
  -29.8620  -19.5610   19.0810 C   0  0  0  0  0  3  0  0  0  0  0  0
  -29.0680  -22.1920   18.7460 C   0  0  0  0  0  3  0  0  0  0  0  0
  -29.7330  -20.8640   18.1860 N   0  0  0  0  0  4  0  0  0  0  0  0
  -29.2120  -20.5980   17.3660 H   0  0  0  0  0  0  0  0  0  0  0  0
  -30.6570  -21.1000   17.8600 H   0  0  0  0  0  0  0  0  0  0  0  0
  -27.9990  -22.2600   21.1110 C   0  0  0  0  0  0  0  0  0  0  0  0
  -27.5960  -21.4460   22.0800 N   0  0  0  0  0  0  0  0  0  0  0  0
  -28.4720  -23.3610   21.3880 O   0  0  0  0  0  0  0  0  0  0  0  0
  -27.1840  -20.5510   21.8580 H   0  0  0  0  0  0  0  0  0  0  0  0
  -27.6760  -21.7230   23.0500 H   0  0  0  0  0  0  0  0  0  0  0  0
  -28.7670  -23.5740   17.7980 C   0  0  0  0  0  3  0  0  0  0  0  0
  -27.9120  -24.9530   18.2790 C   0  0  0  0  0  3  0  0  0  0  0  0
  -27.8040  -26.3480   17.5860 O   0  0  0  0  0  0  0  0  0  0  0  0
  -24.8230  -31.2080   22.2800 C   0  0  0  0  0  0  0  0  0  0  0  0
  -26.7820  -27.3030   17.9330 C   0  0  0  0  0  0  0  0  0  0  0  0
  -23.3550  -30.2250   20.5630 C   0  0  0  0  0  3  0  0  0  0  0  0
  -24.5310  -29.0080   18.6290 C   0  0  0  0  0  0  0  0  0  0  0  0
  -25.8660  -30.5180   20.0910 C   0  0  0  0  0  2  0  0  0  0  0  0
  -25.7990  -29.3070   19.1430 C   0  0  0  0  0  0  0  0  0  0  0  0
  -26.9240  -28.4750   18.7800 C   0  0  0  0  0  3  0  0  0  0  0  0
  -25.4870  -27.1170   17.4020 C   0  0  0  0  0  3  0  0  0  0  0  0
  -24.3840  -27.9290   17.7450 C   0  0  0  0  0  3  0  0  0  0  0  0
  -23.3540  -29.8750   19.0510 C   0  0  0  0  0  2  0  0  0  0  0  0
  -24.7090  -30.6580   21.0330 N   0  0  0  0  0  0  0  0  0  0  0  0
  -23.8320  -31.3670   23.0110 O   0  0  0  0  0  0  0  0  0  0  0  0
  -22.7850  -29.0270   21.3620 C   0  0  0  0  0  0  0  0  0  0  0  0
  -21.4480  -28.8840   21.3850 N   0  0  0  0  0  0  0  0  0  0  0  0
  -23.5440  -28.2350   21.9260 O   0  0  0  0  0  0  0  0  0  0  0  0
  -20.8890  -29.5770   20.9080 H   0  0  0  0  0  0  0  0  0  0  0  0
  -18.1340  -27.5990   22.0820 C   0  0  0  0  0  0  0  0  0  0  0  0
  -20.7120  -27.7980   22.0360 C   0  0  0  0  0  3  0  0  0  0  0  0
  -20.6900  -26.5320   21.1490 C   0  0  0  0  0  2  0  0  0  0  0  0
  -19.4490  -26.4430   20.2550 C   0  0  0  0  0  2  0  0  0  0  0  0
  -18.1740  -26.4370   21.1040 C   0  0  0  0  0  2  0  0  0  0  0  0
  -19.3230  -28.2470   22.5080 C   0  0  0  0  0  0  0  0  0  0  0  0
  -19.2260  -29.3420   23.3940 C   0  0  0  0  0  3  0  0  0  0  0  0
  -17.9720  -29.7880   23.8530 C   0  0  0  0  0  3  0  0  0  0  0  0
  -16.7980  -29.1330   23.4380 C   0  0  0  0  0  3  0  0  0  0  0  0
  -16.8810  -28.0390   22.5590 C   0  0  0  0  0  3  0  0  0  0  0  0
  -26.1980  -31.6830   22.8400 C   0  0  0  0  0  3  0  0  0  0  0  0
  -26.9500  -30.5670   23.6650 C   0  0  1  0  0  0  0  0  0  0  0  0
  -26.0830  -29.9180   24.7690 C   0  0  0  0  0  1  0  0  0  0  0  0
  -27.4450  -29.4360   22.7350 C   0  0  0  0  0  1  0  0  0  0  0  0
  -28.2070  -31.1690   24.3350 C   0  0  0  0  0  1  0  0  0  0  0  0
  -25.9550  -32.8650   23.6830 N   0  0  0  0  0  0  0  0  0  0  0  0
  -26.1740  -34.1320   23.3050 C   0  0  0  0  0  0  0  0  0  0  0  0
  -26.6690  -34.4250   22.2140 O   0  0  0  0  0  0  0  0  0  0  0  0
  -25.4970  -32.7020   24.5680 H   0  0  0  0  0  0  0  0  0  0  0  0
  -24.4470  -35.8760   23.8610 C   0  0  0  0  0  1  0  0  0  0  0  0
  -25.7840  -35.2490   24.2920 C   0  0  0  0  0  3  0  0  0  0  0  0
  -28.0260  -35.8530   25.0890 C   0  0  0  0  0  1  0  0  0  0  0  0
  -26.8090  -36.3070   24.4210 N   0  0  0  0  0  0  0  0  0  0  0  0
  -26.4430  -37.1030   24.9370 H   0  0  0  0  0  0  0  0  0  0  0  0
  -30.5980  -18.1410   18.5260 C   0  0  0  0  0  2  0  0  0  0  0  0
  -31.1970  -15.5180   19.0540 C   0  0  0  0  0  0  0  0  0  0  0  0
  -31.1230  -13.0430   18.5230 C   0  0  0  0  0  2  0  0  0  0  0  0
  -30.0890  -12.7670   17.4060 C   0  0  0  0  0  2  0  0  0  0  0  0
  -28.6830  -12.5740   18.0010 C   0  0  0  0  0  2  0  0  0  0  0  0
  -28.3310  -13.6580   19.0530 C   0  0  0  0  0  3  0  0  0  0  0  0
  -29.4790  -13.8910   20.0570 C   0  0  0  0  0  2  0  0  0  0  0  0
  -30.6710  -14.2480   19.2760 N   0  0  0  0  0  0  0  0  0  0  0  0
  -32.3510  -15.5840   18.6190 O   0  0  0  0  0  0  0  0  0  0  0  0
  -30.3840  -16.6820   19.1050 N   0  0  0  0  0  0  0  0  0  0  0  0
  -29.4630  -16.5150   19.4820 H   0  0  0  0  0  0  0  0  0  0  0  0
  -26.1140  -14.2860   20.1640 C   0  0  0  0  0  0  0  0  0  0  0  0
  -25.0720  -13.5320   20.6300 C   0  0  0  0  0  0  0  0  0  0  0  0
  -25.4530  -12.1690   20.4420 C   0  0  0  0  0  0  0  0  0  0  0  0
  -27.0630  -13.3830   19.7190 N   0  0  0  0  0  0  0  0  0  0  0  0
  -26.6840  -12.0980   19.9490 N   0  0  0  0  0  0  0  0  0  0  0  0
  -24.6910  -10.9280   20.6490 C   0  0  0  0  0  0  0  0  0  0  0  0
  -25.1010   -9.9590   21.5900 C   0  0  0  0  0  3  0  0  0  0  0  0
  -24.3420   -8.7840   21.7850 C   0  0  0  0  0  3  0  0  0  0  0  0
  -23.1580   -8.5700   21.0390 C   0  0  0  0  0  0  0  0  0  0  0  0
  -22.7680   -9.5290   20.0880 C   0  0  0  0  0  3  0  0  0  0  0  0
  -23.5270  -10.6960   19.8910 C   0  0  0  0  0  3  0  0  0  0  0  0
  -22.3680   -7.4520   21.1460 O   0  0  0  0  0  0  0  0  0  0  0  0
  -22.1450   -6.8410   22.3540 C   0  0  0  0  0  0  0  0  0  0  0  0
  -21.5360   -7.5190   23.4330 C   0  0  0  0  0  3  0  0  0  0  0  0
  -21.2620   -6.8310   24.6320 C   0  0  0  0  0  3  0  0  0  0  0  0
  -21.5870   -5.4670   24.7520 C   0  0  0  0  0  0  0  0  0  0  0  0
  -22.1880   -4.7880   23.6770 C   0  0  0  0  0  3  0  0  0  0  0  0
  -22.4640   -5.4740   22.4820 C   0  0  0  0  0  0  0  0  0  0  0  0
  -23.0230   -4.8100   21.4410 F   0  0  0  0  0  0  0  0  0  0  0  0
  -21.3160   -4.8040   25.9010 F   0  0  0  0  0  0  0  0  0  0  0  0
  -23.7520  -14.0470   21.1250 C   0  0  0  0  0  0  0  0  0  0  0  0
  -23.1240  -13.3350   22.0530 N   0  0  0  0  0  0  0  0  0  0  0  0
  -23.2940  -15.1150   20.7200 O   0  0  0  0  0  0  0  0  0  0  0  0
  -23.5110  -12.4680   22.3970 H   0  0  0  0  0  0  0  0  0  0  0  0
  -22.2400  -13.6580   22.4210 H   0  0  0  0  0  0  0  0  0  0  0  0
  -26.3260  -15.6580   20.0510 N   0  0  0  0  0  0  0  0  0  0  0  0
  -25.6160  -16.3330   20.3110 H   0  0  0  0  0  0  0  0  0  0  0  0
  -27.1120  -16.0740   19.5720 H   0  0  0  0  0  0  0  0  0  0  0  0
  1  3  1  0
  1  2  1  0
  3  9  1  0
  4 57  1  0
  4  2  1  0
  5 14  1  0
  5  3  1  0
  6  5  1  0
  6  4  1  0
  7  6  1  0
  8  6  1  0
  9 11  2  0
  9 10  1  0
 10 13  1  0
 12 10  1  0
 14 15  2  0
 16 18  1  0
 16 15  1  0
 17 28  2  0
 18 23  1  0
 19 27  1  0
 19 29  1  0
 20 26  1  0
 20 22  1  0
 21 27  1  0
 22 21  1  0
 23 22  2  0
 24 25  1  0
 24 18  2  0
 25 20  2  0
 26 19  1  0
 27 17  1  0
 29 30  1  0
 29 31  2  0
 32 30  1  0
 33 38  2  0
 33 42  1  0
 34 30  1  0
 34 38  1  0
 35 34  1  0
 36 37  1  0
 36 35  1  0
 37 33  1  0
 38 39  1  0
 39 40  2  0
 41 40  1  0
 42 41  2  0
 43 17  1  0
 43 44  1  0
 43 48  1  0
 44 47  1  1
 44 45  1  0
 46 44  1  0
 48 51  1  0
 49 48  1  0
 49 53  1  0
 50 49  2  0
 53 52  1  0
 53 55  1  0
 55 56  1  0
 55 54  1  0
 57 66  1  0
 58 66  1  0
 58 64  1  0
 59 64  1  0
 60 61  1  0
 60 59  1  0
 62 61  1  0
 62 71  1  0
 62 63  1  0
 64 63  1  0
 65 58  2  0
 66 67  1  0
 68 69  2  0
 69 88  1  0
 70 69  1  0
 70 73  1  0
 71 72  1  0
 71 68  1  0
 72 70  2  0
 73 74  1  0
 74 75  2  0
 76 79  1  0
 76 75  1  0
 77 76  2  0
 78 77  1  0
 78 73  2  0
 79 80  1  0
 80 85  2  0
 80 81  1  0
 81 82  2  0
 82 83  1  0
 83 87  1  0
 84 83  2  0
 85 84  1  0
 86 85  1  0
 88 89  1  0
 89 91  1  0
 89 92  1  0
 90 88  2  0
 93 68  1  0
 93 94  1  0
 95 93  1  0
M  ISO  4  15 101  16 101  58 100  66 100
M  END
>  <TORSDO>  (3) 
F 20

>  <SCORE>  (3) 
-9.132

>  <name>  (3) 
2

>  <ligand_id>  (3) 
2

>  <original_smiles>  (3) 
[H]c1c([H])c([H])c2c(c1[H])C([H])([H])C([H])([H])C([H])([H])C2([H])N([H])C(=O)C1([H])N(C(=O)C([H])(N([H])C(=O)C([H])(N([H])C([H])([H])[H])C([H])([H])[H])C(C([H])([H])[H])(C([H])([H])[H])C([H])([H])[H])C([H])([H])c2c([H])c(OC([H])([H])C([H])([H])C3([H])C([H])(C(=O)N([H])[H])C([H])([H])C([H])([H])C([H])(C([H])([H])N([H])C(=O)N4C([H])([H])C([H])([H])C([H])([H])C([H])(n5nc(-c6c([H])c([H])c(Oc7c([H])c([H])c(F)c([H])c7F)c([H])c6[H])c(C(=O)N([H])[H])c5N([H])[H])C4([H])[H])[N+]3([H])[H])c([H])c([H])c2C1([H])[H]

>  <smiles>  (3) 
[H]c1c([H])c([H])c2c(c1[H])C([H])([H])C([H])([H])C([H])([H])C2([H])N([H])C(=O)C1([H])N(C(=O)C([H])(N([H])C(=O)C([H])(N([H])C([H])([H])[H])C([H])([H])[H])C(C([H])([H])[H])(C([H])([H])[H])C([H])([H])[H])C([H])([H])c2c([H])c(OC([H])([H])C([H])([H])C3([H])C([H])(C(=O)N([H])[H])C([H])([H])C([H])([H])C([H])(C([H])([H])N([H])C(=O)N4C([H])([H])C([H])([H])C([H])([H])C([H])(n5nc(-c6c([H])c([H])c(Oc7c([H])c([H])c(F)c([H])c7F)c([H])c6[H])c(C(=O)N([H])[H])c5N([H])[H])C4([H])[H])[N+]3([H])[H])c([H])c([H])c2C1([H])[H]

$$$$
3:0:0
     RDKit          3D

 94102  0  0  1  0  0  0  0  0999 V2000
  -29.5480  -20.8920   21.9970 C   0  0  0  0  0  2  0  0  0  0  0  0
  -30.5970  -20.7150   19.7420 C   0  0  0  0  0  2  0  0  0  0  0  0
  -29.0210  -22.3110   21.6300 C   0  0  0  0  0  2  0  0  0  0  0  0
  -29.7700  -19.9140   20.7930 C   0  0  0  0  0  3  0  0  0  0  0  0
  -30.0470  -22.1590   19.4160 C   0  0  0  0  0  3  0  0  0  0  0  0
  -30.9250  -22.8280   18.3440 C   0  0  0  0  0  1  0  0  0  0  0  0
  -29.9250  -22.9860   20.6650 N   0  0  1  0  0  4  0  0  0  0  0  0
  -30.8330  -22.8800   21.0920 H   0  0  0  0  0  0  0  0  0  0  0  0
  -29.8210  -24.5060   20.5970 C   0  0  0  0  0  2  0  0  0  0  0  0
  -28.5020  -25.1990   20.1130 C   0  0  0  0  0  2  0  0  0  0  0  0
  -28.5920  -26.6630   20.1590 O   0  0  0  0  0  0  0  0  0  0  0  0
  -24.5960  -31.8110   23.1540 C   0  0  0  0  0  0  0  0  0  0  0  0
  -27.4140  -27.4070   20.1070 C   0  0  0  0  0  0  0  0  0  0  0  0
  -23.4580  -30.3750   21.4980 C   0  0  0  0  0  3  0  0  0  0  0  0
  -24.9780  -28.8880   20.0830 C   0  0  0  0  0  0  0  0  0  0  0  0
  -25.9780  -30.8030   21.3340 C   0  0  0  0  0  2  0  0  0  0  0  0
  -26.1180  -29.4330   20.6860 C   0  0  0  0  0  0  0  0  0  0  0  0
  -27.3370  -28.7050   20.6900 C   0  0  0  0  0  3  0  0  0  0  0  0
  -26.2500  -26.8960   19.4880 C   0  0  0  0  0  3  0  0  0  0  0  0
  -25.0440  -27.6210   19.4790 C   0  0  0  0  0  3  0  0  0  0  0  0
  -23.7050  -29.7070   20.1200 C   0  0  0  0  0  2  0  0  0  0  0  0
  -24.6950  -31.0120   22.0530 N   0  0  0  0  0  0  0  0  0  0  0  0
  -23.4980  -32.0480   23.6800 O   0  0  0  0  0  0  0  0  0  0  0  0
  -22.8280  -29.3300   22.4490 C   0  0  0  0  0  0  0  0  0  0  0  0
  -21.5170  -29.0870   22.2900 N   0  0  0  0  0  0  0  0  0  0  0  0
  -23.5190  -28.7420   23.2840 O   0  0  0  0  0  0  0  0  0  0  0  0
  -21.0210  -29.6160   21.5860 H   0  0  0  0  0  0  0  0  0  0  0  0
  -18.1880  -27.7350   22.7020 C   0  0  0  0  0  0  0  0  0  0  0  0
  -20.7210  -28.1180   23.0450 C   0  0  0  0  0  3  0  0  0  0  0  0
  -20.9100  -26.6900   22.4820 C   0  0  0  0  0  2  0  0  0  0  0  0
  -19.8540  -26.3080   21.4410 C   0  0  0  0  0  2  0  0  0  0  0  0
  -18.4490  -26.3900   22.0440 C   0  0  0  0  0  2  0  0  0  0  0  0
  -19.2550  -28.5530   23.1560 C   0  0  0  0  0  0  0  0  0  0  0  0
  -18.9590  -29.8100   23.7290 C   0  0  0  0  0  3  0  0  0  0  0  0
  -17.6270  -30.2480   23.8540 C   0  0  0  0  0  3  0  0  0  0  0  0
  -16.5740  -29.4260   23.4160 C   0  0  0  0  0  3  0  0  0  0  0  0
  -16.8550  -28.1720   22.8450 C   0  0  0  0  0  3  0  0  0  0  0  0
  -25.8500  -32.4830   23.7930 C   0  0  0  0  0  3  0  0  0  0  0  0
  -25.4860  -33.8660   24.1270 N   0  0  0  0  0  0  0  0  0  0  0  0
  -25.8110  -34.9380   23.3940 C   0  0  0  0  0  0  0  0  0  0  0  0
  -26.5180  -34.8690   22.3840 O   0  0  0  0  0  0  0  0  0  0  0  0
  -24.8480  -33.9860   24.9020 H   0  0  0  0  0  0  0  0  0  0  0  0
  -24.0430  -36.6840   23.0010 C   0  0  0  0  0  1  0  0  0  0  0  0
  -25.2660  -36.3060   23.8510 C   0  0  0  0  0  3  0  0  0  0  0  0
  -27.3470  -37.2350   24.7670 C   0  0  0  0  0  1  0  0  0  0  0  0
  -26.2710  -37.3900   23.7910 N   0  0  0  0  0  0  0  0  0  0  0  0
  -25.8340  -38.2960   23.9390 H   0  0  0  0  0  0  0  0  0  0  0  0
  -26.3820  -31.7220   25.0690 C   0  0  1  0  0  0  0  0  0  0  0  0
  -25.2820  -31.4150   26.1120 C   0  0  0  0  0  1  0  0  0  0  0  0
  -27.0440  -30.3820   24.6730 C   0  0  0  0  0  1  0  0  0  0  0  0
  -27.4780  -32.5670   25.7600 C   0  0  0  0  0  1  0  0  0  0  0  0
  -30.3730  -18.5080   21.2730 C   0  0  0  0  0  3  0  0  0  0  0  0
  -29.6670  -18.0900   22.5020 N   0  0  0  0  0  4  0  0  0  0  0  0
  -28.7010  -17.8800   22.3180 H   0  0  0  0  0  0  0  0  0  0  0  0
  -29.7030  -18.8230   23.1880 H   0  0  0  0  0  0  0  0  0  0  0  0
  -30.1030  -17.2820   22.9100 H   0  0  0  0  0  0  0  0  0  0  0  0
  -30.4360  -17.2740   20.2710 C   0  0  0  0  0  3  0  0  0  0  0  0
  -30.6450  -15.8440   20.9400 C   0  0  0  0  0  3  0  0  0  0  0  0
  -31.1480  -14.6450   20.0570 C   0  0  0  0  0  0  0  0  0  0  0  0
  -30.7780  -12.4840   18.8750 C   0  0  0  0  0  2  0  0  0  0  0  0
  -29.7960  -12.6920   17.7020 C   0  0  0  0  0  2  0  0  0  0  0  0
  -28.3350  -12.5810   18.1800 C   0  0  0  0  0  2  0  0  0  0  0  0
  -28.0620  -13.4190   19.4580 C   0  0  0  0  0  3  0  0  0  0  0  0
  -29.1460  -13.1530   20.5240 C   0  0  0  0  0  2  0  0  0  0  0  0
  -30.4520  -13.4710   19.9250 N   0  0  0  0  0  0  0  0  0  0  0  0
  -32.2210  -14.8040   19.4690 O   0  0  0  0  0  0  0  0  0  0  0  0
  -25.7060  -14.0980   20.2360 C   0  0  0  0  0  0  0  0  0  0  0  0
  -24.6280  -13.3590   20.6410 C   0  0  0  0  0  0  0  0  0  0  0  0
  -25.0450  -11.9930   20.5990 C   0  0  0  0  0  0  0  0  0  0  0  0
  -26.7170  -13.1840   19.9760 N   0  0  0  0  0  0  0  0  0  0  0  0
  -26.3230  -11.9140   20.2510 N   0  0  0  0  0  0  0  0  0  0  0  0
  -24.2870  -10.7550   20.8160 C   0  0  0  0  0  0  0  0  0  0  0  0
  -24.6790   -9.8100   21.7890 C   0  0  0  0  0  3  0  0  0  0  0  0
  -23.9230   -8.6340   21.9920 C   0  0  0  0  0  3  0  0  0  0  0  0
  -22.7610   -8.3970   21.2200 C   0  0  0  0  0  0  0  0  0  0  0  0
  -22.3880   -9.3310   20.2370 C   0  0  0  0  0  3  0  0  0  0  0  0
  -23.1440  -10.4970   20.0340 C   0  0  0  0  0  3  0  0  0  0  0  0
  -21.9800   -7.2720   21.3290 O   0  0  0  0  0  0  0  0  0  0  0  0
  -21.8310   -6.6120   22.5230 C   0  0  0  0  0  0  0  0  0  0  0  0
  -21.3180   -7.2560   23.6700 C   0  0  0  0  0  3  0  0  0  0  0  0
  -21.1170   -6.5220   24.8580 C   0  0  0  0  0  3  0  0  0  0  0  0
  -21.4170   -5.1480   24.8960 C   0  0  0  0  0  0  0  0  0  0  0  0
  -21.9220   -4.5040   23.7530 C   0  0  0  0  0  3  0  0  0  0  0  0
  -22.1250   -5.2350   22.5690 C   0  0  0  0  0  0  0  0  0  0  0  0
  -22.5920   -4.6050   21.4630 F   0  0  0  0  0  0  0  0  0  0  0  0
  -21.2160   -4.4410   26.0330 F   0  0  0  0  0  0  0  0  0  0  0  0
  -23.2550  -13.8800   20.9570 C   0  0  0  0  0  0  0  0  0  0  0  0
  -22.5400  -13.2150   21.8580 N   0  0  0  0  0  0  0  0  0  0  0  0
  -22.8280  -14.9110   20.4390 O   0  0  0  0  0  0  0  0  0  0  0  0
  -22.9000  -12.3800   22.2970 H   0  0  0  0  0  0  0  0  0  0  0  0
  -21.6210  -13.5450   22.1130 H   0  0  0  0  0  0  0  0  0  0  0  0
  -25.9110  -15.4610   20.0480 N   0  0  0  0  0  0  0  0  0  0  0  0
  -25.1640  -16.1400   20.1590 H   0  0  0  0  0  0  0  0  0  0  0  0
  -26.7550  -15.8600   19.6590 H   0  0  0  0  0  0  0  0  0  0  0  0
  2  4  1  0
  3  1  1  0
  4 52  1  0
  4  1  1  0
  5  6  1  0
  5  2  1  0
  5  7  1  0
  7  8  1  1
  7  3  1  0
  9  7  1  0
 10 11  1  0
 10  9  1  0
 12 23  2  0
 13 11  1  0
 13 18  1  0
 14 22  1  0
 14 24  1  0
 15 21  1  0
 15 17  1  0
 16 22  1  0
 17 18  2  0
 17 16  1  0
 19 13  2  0
 20 19  1  0
 20 15  2  0
 21 14  1  0
 22 12  1  0
 24 26  2  0
 25 24  1  0
 27 25  1  0
 28 37  2  0
 28 33  1  0
 29 25  1  0
 29 33  1  0
 30 29  1  0
 31 32  1  0
 31 30  1  0
 32 28  1  0
 33 34  2  0
 34 35  1  0
 36 35  2  0
 37 36  1  0
 38 12  1  0
 38 39  1  0
 38 48  1  0
 39 42  1  0
 40 44  1  0
 40 39  1  0
 41 40  2  0
 44 43  1  0
 46 44  1  0
 46 47  1  0
 46 45  1  0
 48 51  1  1
 48 49  1  0
 50 48  1  0
 52 57  1  0
 52 53  1  0
 53 56  1  0
 53 55  1  0
 54 53  1  0
 57 58  2  0
 59 58  1  0
 60 65  1  0
 61 62  1  0
 61 60  1  0
 63 62  1  0
 63 70  1  0
 63 64  1  0
 65 59  1  0
 65 64  1  0
 66 59  2  0
 67 68  2  0
 68 87  1  0
 69 68  1  0
 69 72  1  0
 70 67  1  0
 70 71  1  0
 71 69  2  0
 72 73  1  0
 73 74  2  0
 75 78  1  0
 75 74  1  0
 76 75  2  0
 77 76  1  0
 77 72  2  0
 78 79  1  0
 79 84  2  0
 79 80  1  0
 80 81  2  0
 81 82  1  0
 82 86  1  0
 83 82  2  0
 84 83  1  0
 85 84  1  0
 87 88  1  0
 88 91  1  0
 88 90  1  0
 89 87  2  0
 92 93  1  0
 92 67  1  0
 94 92  1  0
M  ISO  4  10 101  11 101  58 100  59 100
M  END
>  <TORSDO>  (4) 
F 22

>  <SCORE>  (4) 
-12.030

>  <name>  (4) 
3

>  <ligand_id>  (4) 
3

>  <original_smiles>  (4) 
[H]c1c([H])c([H])c2c(c1[H])C([H])([H])C([H])([H])C([H])([H])C2([H])N([H])C(=O)C1([H])N(C(=O)C([H])(N([H])C(=O)C([H])(N([H])C([H])([H])[H])C([H])([H])[H])C(C([H])([H])[H])(C([H])([H])[H])C([H])([H])[H])C([H])([H])c2c([H])c(OC([H])([H])C([H])([H])[N+]3([H])C([H])([H])C([H])([H])C([H])(C([H])(C([H])([H])C([H])([H])C(=O)N4C([H])([H])C([H])([H])C([H])([H])C([H])(n5nc(-c6c([H])c([H])c(Oc7c([H])c([H])c(F)c([H])c7F)c([H])c6[H])c(C(=O)N([H])[H])c5N([H])[H])C4([H])[H])[N+]([H])([H])[H])C([H])([H])C3([H])C([H])([H])[H])c([H])c([H])c2C1([H])[H]

>  <smiles>  (4) 
[H]c1c([H])c([H])c2c(c1[H])C([H])([H])C([H])([H])C([H])([H])C2([H])N([H])C(=O)C1([H])N(C(=O)C([H])(N([H])C(=O)C([H])(N([H])C([H])([H])[H])C([H])([H])[H])C(C([H])([H])[H])(C([H])([H])[H])C([H])([H])[H])C([H])([H])c2c([H])c(OC([H])([H])C([H])([H])[N+]3([H])C([H])([H])C([H])([H])C([H])(C([H])(C([H])([H])C([H])([H])C(=O)N4C([H])([H])C([H])([H])C([H])([H])C([H])(n5nc(-c6c([H])c([H])c(Oc7c([H])c([H])c(F)c([H])c7F)c([H])c6[H])c(C(=O)N([H])[H])c5N([H])[H])C4([H])[H])[N+]([H])([H])[H])C([H])([H])C3([H])C([H])([H])[H])c([H])c([H])c2C1([H])[H]

$$$$
4:0:0
     RDKit          3D

 93101  0  0  1  0  0  0  0  0999 V2000
  -30.1720  -20.7150   19.9880 N   0  0  0  0  0  4  0  0  0  0  0  0
  -31.1040  -21.0870   19.8710 H   0  0  0  0  0  0  0  0  0  0  0  0
  -29.8130  -20.4850   19.0770 H   0  0  0  0  0  0  0  0  0  0  0  0
  -29.3140  -21.9020   20.5710 C   0  0  0  0  0  2  0  0  0  0  0  0
  -29.6260  -23.5130   20.2520 C   0  0  0  0  0  3  0  0  0  0  0  0
  -28.4790  -24.7110   20.4050 C   0  0  0  0  0  3  0  0  0  0  0  0
  -28.6830  -26.2410   20.3760 O   0  0  0  0  0  0  0  0  0  0  0  0
  -24.6450  -31.7230   23.1330 C   0  0  0  0  0  0  0  0  0  0  0  0
  -27.5610  -27.1280   20.2700 C   0  0  0  0  0  0  0  0  0  0  0  0
  -23.5670  -30.2310   21.4920 C   0  0  0  0  0  3  0  0  0  0  0  0
  -25.1350  -28.7170   20.1410 C   0  0  0  0  0  0  0  0  0  0  0  0
  -26.1040  -30.6400   21.3930 C   0  0  0  0  0  2  0  0  0  0  0  0
  -26.2720  -29.2470   20.7680 C   0  0  0  0  0  0  0  0  0  0  0  0
  -27.4850  -28.4700   20.8140 C   0  0  0  0  0  3  0  0  0  0  0  0
  -26.3890  -26.6860   19.6140 C   0  0  0  0  0  3  0  0  0  0  0  0
  -25.2050  -27.4470   19.5510 C   0  0  0  0  0  3  0  0  0  0  0  0
  -23.8600  -29.5400   20.1360 C   0  0  0  0  0  2  0  0  0  0  0  0
  -24.7880  -30.8850   22.0610 N   0  0  0  0  0  0  0  0  0  0  0  0
  -23.5300  -31.9630   23.6220 O   0  0  0  0  0  0  0  0  0  0  0  0
  -22.9170  -29.2060   22.4540 C   0  0  0  0  0  0  0  0  0  0  0  0
  -21.6020  -28.9680   22.2960 N   0  0  0  0  0  0  0  0  0  0  0  0
  -23.5970  -28.6290   23.3060 O   0  0  0  0  0  0  0  0  0  0  0  0
  -21.1100  -29.4870   21.5820 H   0  0  0  0  0  0  0  0  0  0  0  0
  -18.2720  -27.6100   22.7250 C   0  0  0  0  0  0  0  0  0  0  0  0
  -20.8050  -28.0080   23.0640 C   0  0  0  0  0  3  0  0  0  0  0  0
  -20.9960  -26.5710   22.5220 C   0  0  0  0  0  2  0  0  0  0  0  0
  -19.9430  -26.1720   21.4830 C   0  0  0  0  0  2  0  0  0  0  0  0
  -18.5360  -26.2590   22.0820 C   0  0  0  0  0  2  0  0  0  0  0  0
  -19.3360  -28.4380   23.1700 C   0  0  0  0  0  0  0  0  0  0  0  0
  -19.0350  -29.6980   23.7270 C   0  0  0  0  0  3  0  0  0  0  0  0
  -17.7010  -30.1350   23.8450 C   0  0  0  0  0  3  0  0  0  0  0  0
  -16.6500  -29.3050   23.4170 C   0  0  0  0  0  3  0  0  0  0  0  0
  -16.9360  -28.0450   22.8650 C   0  0  0  0  0  3  0  0  0  0  0  0
  -25.8710  -32.4310   23.7830 C   0  0  0  0  0  3  0  0  0  0  0  0
  -25.4680  -33.8080   24.1120 N   0  0  0  0  0  0  0  0  0  0  0  0
  -25.8090  -34.8930   23.4040 C   0  0  0  0  0  0  0  0  0  0  0  0
  -26.5620  -34.8420   22.4290 O   0  0  0  0  0  0  0  0  0  0  0  0
  -24.7930  -33.9160   24.8570 H   0  0  0  0  0  0  0  0  0  0  0  0
  -24.0320  -36.6170   22.9490 C   0  0  0  0  0  1  0  0  0  0  0  0
  -25.2230  -36.2470   23.8490 C   0  0  0  0  0  3  0  0  0  0  0  0
  -27.2430  -37.2020   24.8660 C   0  0  0  0  0  1  0  0  0  0  0  0
  -26.2120  -37.3480   23.8410 N   0  0  0  0  0  0  0  0  0  0  0  0
  -25.7530  -38.2430   23.9840 H   0  0  0  0  0  0  0  0  0  0  0  0
  -26.4060  -31.6940   25.0730 C   0  0  1  0  0  0  0  0  0  0  0  0
  -25.3030  -31.3800   26.1110 C   0  0  0  0  0  1  0  0  0  0  0  0
  -27.0890  -30.3590   24.6980 C   0  0  0  0  0  1  0  0  0  0  0  0
  -27.4890  -32.5620   25.7590 C   0  0  0  0  0  1  0  0  0  0  0  0
  -30.4560  -19.3770   20.7750 C   0  0  0  0  0  3  0  0  0  0  0  0
  -31.8010  -19.6240   21.4790 C   0  0  0  0  0  3  0  0  0  0  0  0
  -33.4970  -19.4730   23.1010 C   0  0  0  0  0  2  0  0  0  0  0  0
  -33.7130  -20.6030   22.0880 C   0  0  0  0  0  2  0  0  0  0  0  0
  -32.3830  -18.6370   22.4760 C   0  0  0  0  0  3  0  0  0  0  0  0
  -31.4010  -18.0700   23.5180 C   0  0  0  0  0  1  0  0  0  0  0  0
  -32.5040  -20.6670   21.2850 N   0  0  0  0  0  2  0  0  0  0  0  0
  -31.5400  -17.8760   18.9080 C   0  0  0  0  0  1  0  0  0  0  0  0
  -30.4460  -17.8800   19.9960 C   0  0  0  0  0  3  0  0  0  0  0  0
  -30.4270  -16.4050   20.8120 C   0  0  0  0  0  2  0  0  0  0  0  0
  -31.1380  -14.9870   20.3590 C   0  0  0  0  0  0  0  0  0  0  0  0
  -30.9360  -12.6480   19.4080 C   0  0  0  0  0  2  0  0  0  0  0  0
  -30.0150  -12.6700   18.1650 C   0  0  0  0  0  2  0  0  0  0  0  0
  -28.5410  -12.5100   18.5810 C   0  0  0  0  0  2  0  0  0  0  0  0
  -28.1580  -13.4460   19.7570 C   0  0  0  0  0  3  0  0  0  0  0  0
  -29.2010  -13.4080   20.8950 C   0  0  0  0  0  2  0  0  0  0  0  0
  -30.5070  -13.7480   20.3160 N   0  0  0  0  0  0  0  0  0  0  0  0
  -32.3120  -15.0180   19.9760 O   0  0  0  0  0  0  0  0  0  0  0  0
  -25.8080  -14.0970   20.5430 C   0  0  0  0  0  0  0  0  0  0  0  0
  -24.7080  -13.3560   20.8750 C   0  0  0  0  0  0  0  0  0  0  0  0
  -25.1040  -11.9870   20.7620 C   0  0  0  0  0  0  0  0  0  0  0  0
  -26.8060  -13.1850   20.2440 N   0  0  0  0  0  0  0  0  0  0  0  0
  -26.3910  -11.9060   20.4410 N   0  0  0  0  0  0  0  0  0  0  0  0
  -24.3160  -10.7530   20.8850 C   0  0  0  0  0  0  0  0  0  0  0  0
  -24.6560   -9.7490   21.8190 C   0  0  0  0  0  3  0  0  0  0  0  0
  -23.8730   -8.5810   21.9320 C   0  0  0  0  0  3  0  0  0  0  0  0
  -22.7330   -8.4080   21.1090 C   0  0  0  0  0  0  0  0  0  0  0  0
  -22.4120   -9.3990   20.1660 C   0  0  0  0  0  3  0  0  0  0  0  0
  -23.1970  -10.5590   20.0520 C   0  0  0  0  0  3  0  0  0  0  0  0
  -21.9280   -7.2950   21.1300 O   0  0  0  0  0  0  0  0  0  0  0  0
  -21.7280   -6.5720   22.2800 C   0  0  0  0  0  0  0  0  0  0  0  0
  -21.1850   -7.1590   23.4430 C   0  0  0  0  0  3  0  0  0  0  0  0
  -20.9320   -6.3640   24.5800 C   0  0  0  0  0  3  0  0  0  0  0  0
  -21.2140   -4.9860   24.5530 C   0  0  0  0  0  0  0  0  0  0  0  0
  -21.7490   -4.3980   23.3930 C   0  0  0  0  0  3  0  0  0  0  0  0
  -22.0030   -5.1900   22.2590 C   0  0  0  0  0  0  0  0  0  0  0  0
  -22.5000   -4.6160   21.1370 F   0  0  0  0  0  0  0  0  0  0  0  0
  -20.9630   -4.2200   25.6420 F   0  0  0  0  0  0  0  0  0  0  0  0
  -23.3370  -13.8830   21.1800 C   0  0  0  0  0  0  0  0  0  0  0  0
  -22.5880  -13.1930   22.0330 N   0  0  0  0  0  0  0  0  0  0  0  0
  -22.9380  -14.9440   20.6990 O   0  0  0  0  0  0  0  0  0  0  0  0
  -22.9220  -12.3340   22.4420 H   0  0  0  0  0  0  0  0  0  0  0  0
  -21.6680  -13.5280   22.2780 H   0  0  0  0  0  0  0  0  0  0  0  0
  -26.0380  -15.4670   20.4440 N   0  0  0  0  0  0  0  0  0  0  0  0
  -25.3020  -16.1490   20.5920 H   0  0  0  0  0  0  0  0  0  0  0  0
  -26.9030  -15.8790   20.1200 H   0  0  0  0  0  0  0  0  0  0  0  0
  1  4  1  0
  2  1  1  0
  3  1  1  0
  5  6  2  0
  5  4  1  0
  7  6  1  0
  8 19  2  0
  9  7  1  0
  9 14  1  0
 10 18  1  0
 10 20  1  0
 11 13  1  0
 12 18  1  0
 13 14  2  0
 13 12  1  0
 15  9  2  0
 16 15  1  0
 16 11  2  0
 17 11  1  0
 17 10  1  0
 18  8  1  0
 20 22  2  0
 21 20  1  0
 23 21  1  0
 24 33  2  0
 24 29  1  0
 25 21  1  0
 25 29  1  0
 26 25  1  0
 27 28  1  0
 27 26  1  0
 28 24  1  0
 29 30  2  0
 30 31  1  0
 32 31  2  0
 33 32  1  0
 34  8  1  0
 34 35  1  0
 34 44  1  0
 35 38  1  0
 36 40  1  0
 36 35  1  0
 37 36  2  0
 40 39  1  0
 42 40  1  0
 42 43  1  0
 42 41  1  0
 44 47  1  1
 44 45  1  0
 46 44  1  0
 48  1  1  0
 49 48  1  0
 49 52  1  0
 51 50  1  0
 52 50  1  0
 52 53  1  0
 54 49  1  0
 54 51  1  0
 56 55  1  0
 56 48  1  0
 56 57  1  0
 58 57  1  0
 59 64  1  0
 60 61  1  0
 60 59  1  0
 62 61  1  0
 62 69  1  0
 62 63  1  0
 64 58  1  0
 64 63  1  0
 65 58  2  0
 66 67  2  0
 67 86  1  0
 68 67  1  0
 68 71  1  0
 69 70  1  0
 69 66  1  0
 70 68  2  0
 71 72  1  0
 72 73  2  0
 74 77  1  0
 74 73  1  0
 75 74  2  0
 76 75  1  0
 76 71  2  0
 77 78  1  0
 78 79  1  0
 79 80  2  0
 81 80  1  0
 81 85  1  0
 82 81  2  0
 83 78  2  0
 83 82  1  0
 84 83  1  0
 86 87  1  0
 87 90  1  0
 87 89  1  0
 88 86  2  0
 91 66  1  0
 91 92  1  0
 93 91  1  0
M  ISO  4   6 101   7 101  57 100  58 100
M  END
>  <TORSDO>  (5) 
F 23

>  <SCORE>  (5) 
-10.129

>  <name>  (5) 
4

>  <ligand_id>  (5) 
4

>  <original_smiles>  (5) 
[H]c1c([H])c([H])c2c(c1[H])C([H])([H])C([H])([H])C([H])([H])C2([H])N([H])C(=O)C1([H])N(C(=O)C([H])(N([H])C(=O)C([H])(N([H])C([H])([H])[H])C([H])([H])[H])C(C([H])([H])[H])(C([H])([H])[H])C([H])([H])[H])C([H])([H])c2c([H])c(OC([H])([H])C([H])([H])C([H])([H])[N+]([H])([H])C([H])(C3=NC([H])([H])C([H])([H])C3([H])C([H])([H])[H])C([H])(C([H])([H])[H])C([H])([H])C(=O)N3C([H])([H])C([H])([H])C([H])([H])C([H])(n4nc(-c5c([H])c([H])c(Oc6c([H])c([H])c(F)c([H])c6F)c([H])c5[H])c(C(=O)N([H])[H])c4N([H])[H])C3([H])[H])c([H])c([H])c2C1([H])[H]

>  <smiles>  (5) 
[H]c1c([H])c([H])c2c(c1[H])C([H])([H])C([H])([H])C([H])([H])C2([H])N([H])C(=O)C1([H])N(C(=O)C([H])(N([H])C(=O)C([H])(N([H])C([H])([H])[H])C([H])([H])[H])C(C([H])([H])[H])(C([H])([H])[H])C([H])([H])[H])C([H])([H])c2c([H])c(OC([H])([H])C([H])([H])C([H])([H])[N+]([H])([H])C([H])(C3=NC([H])([H])C([H])([H])C3([H])C([H])([H])[H])C([H])(C([H])([H])[H])C([H])([H])C(=O)N3C([H])([H])C([H])([H])C([H])([H])C([H])(n4nc(-c5c([H])c([H])c(Oc6c([H])c([H])c(F)c([H])c6F)c([H])c5[H])c(C(=O)N([H])[H])c4N([H])[H])C3([H])[H])c([H])c([H])c2C1([H])[H]

$$$$
5:0:0
     RDKit          3D

 93101  0  0  1  0  0  0  0  0999 V2000
  -29.6790  -20.5270   20.2630 N   0  0  0  0  0  4  0  0  0  0  0  0
  -30.4140  -20.7240   19.6030 H   0  0  0  0  0  0  0  0  0  0  0  0
  -30.0970  -20.6370   21.1730 H   0  0  0  0  0  0  0  0  0  0  0  0
  -30.6990  -15.1100   20.0930 C   0  0  0  0  0  0  0  0  0  0  0  0
  -30.5260  -12.7730   19.1100 C   0  0  0  0  0  2  0  0  0  0  0  0
  -29.5610  -12.7160   17.9040 C   0  0  0  0  0  2  0  0  0  0  0  0
  -28.1160  -12.4770   18.3770 C   0  0  0  0  0  2  0  0  0  0  0  0
  -27.7340  -13.3820   19.5780 C   0  0  0  0  0  3  0  0  0  0  0  0
  -28.8250  -13.4000   20.6690 C   0  0  0  0  0  2  0  0  0  0  0  0
  -30.0600  -13.8650   20.0220 N   0  0  0  0  0  0  0  0  0  0  0  0
  -31.8880  -15.1100   19.7550 O   0  0  0  0  0  0  0  0  0  0  0  0
  -28.6260  -18.2400   21.2200 C   0  0  0  0  0  2  0  0  0  0  0  0
  -28.8090  -16.6780   21.0400 C   0  0  0  0  0  2  0  0  0  0  0  0
  -30.5260  -17.8130   19.9070 C   0  0  0  0  0  3  0  0  0  0  0  0
  -29.3590  -18.9670   20.0830 C   0  0  0  0  0  3  0  0  0  0  0  0
  -30.0380  -16.3800   20.2720 N   0  0  0  0  0  0  0  0  0  0  0  0
  -25.3710  -13.9170   20.4000 C   0  0  0  0  0  0  0  0  0  0  0  0
  -24.3290  -13.1230   20.7910 C   0  0  0  0  0  0  0  0  0  0  0  0
  -24.8070  -11.7790   20.7170 C   0  0  0  0  0  0  0  0  0  0  0  0
  -26.4160  -13.0580   20.1120 N   0  0  0  0  0  0  0  0  0  0  0  0
  -26.0890  -11.7640   20.3680 N   0  0  0  0  0  0  0  0  0  0  0  0
  -24.0970  -10.5070   20.8990 C   0  0  0  0  0  0  0  0  0  0  0  0
  -24.5170   -9.5560   21.8550 C   0  0  0  0  0  3  0  0  0  0  0  0
  -23.8050   -8.3500   22.0270 C   0  0  0  0  0  3  0  0  0  0  0  0
  -22.6580   -8.0860   21.2400 C   0  0  0  0  0  0  0  0  0  0  0  0
  -22.2580   -9.0240   20.2730 C   0  0  0  0  0  3  0  0  0  0  0  0
  -22.9710  -10.2220   20.1000 C   0  0  0  0  0  3  0  0  0  0  0  0
  -21.9190   -6.9300   21.3190 O   0  0  0  0  0  0  0  0  0  0  0  0
  -21.7680   -6.2510   22.5030 C   0  0  0  0  0  0  0  0  0  0  0  0
  -21.1860   -6.8560   23.6380 C   0  0  0  0  0  3  0  0  0  0  0  0
  -20.9870   -6.1020   24.8120 C   0  0  0  0  0  3  0  0  0  0  0  0
  -21.3590   -4.7450   24.8500 C   0  0  0  0  0  0  0  0  0  0  0  0
  -21.9330   -4.1410   23.7180 C   0  0  0  0  0  3  0  0  0  0  0  0
  -22.1340   -4.8910   22.5470 C   0  0  0  0  0  0  0  0  0  0  0  0
  -22.6680   -4.2990   21.4520 F   0  0  0  0  0  0  0  0  0  0  0  0
  -21.1600   -4.0180   25.9750 F   0  0  0  0  0  0  0  0  0  0  0  0
  -22.9370  -13.5820   21.1100 C   0  0  0  0  0  0  0  0  0  0  0  0
  -22.2450  -12.8710   21.9930 N   0  0  0  0  0  0  0  0  0  0  0  0
  -22.4710  -14.6070   20.6130 O   0  0  0  0  0  0  0  0  0  0  0  0
  -22.6360  -12.0420   22.4170 H   0  0  0  0  0  0  0  0  0  0  0  0
  -21.3130  -13.1600   22.2510 H   0  0  0  0  0  0  0  0  0  0  0  0
  -25.5020  -15.2910   20.2360 N   0  0  0  0  0  0  0  0  0  0  0  0
  -24.7140  -15.9180   20.3600 H   0  0  0  0  0  0  0  0  0  0  0  0
  -26.3000  -15.7390   19.8050 H   0  0  0  0  0  0  0  0  0  0  0  0
  -31.0830  -17.8300   18.4740 C   0  0  0  0  0  0  0  0  0  0  0  0
  -32.2600  -18.4070   18.2640 N   0  0  0  0  0  0  0  0  0  0  0  0
  -30.4450  -17.3320   17.5470 O   0  0  0  0  0  0  0  0  0  0  0  0
  -32.8050  -18.7780   19.0300 H   0  0  0  0  0  0  0  0  0  0  0  0
  -32.6530  -18.4320   17.3320 H   0  0  0  0  0  0  0  0  0  0  0  0
  -28.6560  -21.7360   20.0780 C   0  0  0  0  0  2  0  0  0  0  0  0
  -29.0580  -23.3820   20.2790 C   0  0  0  0  0  3  0  0  0  0  0  0
  -28.0330  -24.7150   20.0330 C   0  0  0  0  0  3  0  0  0  0  0  0
  -28.3000  -26.2430   20.2620 O   0  0  0  0  0  0  0  0  0  0  0  0
  -24.6350  -31.8890   23.3080 C   0  0  0  0  0  0  0  0  0  0  0  0
  -27.2440  -27.2320   20.2050 C   0  0  0  0  0  0  0  0  0  0  0  0
  -23.4510  -30.5210   21.6360 C   0  0  0  0  0  3  0  0  0  0  0  0
  -24.9120  -28.9780   20.1890 C   0  0  0  0  0  0  0  0  0  0  0  0
  -26.0050  -30.7950   21.4920 C   0  0  0  0  0  2  0  0  0  0  0  0
  -26.0870  -29.4150   20.8130 C   0  0  0  0  0  0  0  0  0  0  0  0
  -27.2540  -28.5580   20.8020 C   0  0  0  0  0  3  0  0  0  0  0  0
  -26.0400  -26.9000   19.5440 C   0  0  0  0  0  3  0  0  0  0  0  0
  -24.9020  -27.7360   19.5390 C   0  0  0  0  0  3  0  0  0  0  0  0
  -23.6820  -29.8710   20.2460 C   0  0  0  0  0  2  0  0  0  0  0  0
  -24.7170  -31.0890   22.2000 N   0  0  0  0  0  0  0  0  0  0  0  0
  -23.5460  -32.1610   23.8340 O   0  0  0  0  0  0  0  0  0  0  0  0
  -22.7680  -29.4940   22.5740 C   0  0  0  0  0  0  0  0  0  0  0  0
  -21.4440  -29.3120   22.4270 N   0  0  0  0  0  0  0  0  0  0  0  0
  -23.4340  -28.8640   23.4000 O   0  0  0  0  0  0  0  0  0  0  0  0
  -20.9620  -29.8730   21.7370 H   0  0  0  0  0  0  0  0  0  0  0  0
  -18.0660  -28.0820   22.8770 C   0  0  0  0  0  0  0  0  0  0  0  0
  -20.6200  -28.3570   23.1740 C   0  0  0  0  0  3  0  0  0  0  0  0
  -20.7370  -26.9360   22.5780 C   0  0  0  0  0  2  0  0  0  0  0  0
  -19.6480  -26.6210   21.5470 C   0  0  0  0  0  2  0  0  0  0  0  0
  -18.2590  -26.7450   22.1790 C   0  0  0  0  0  2  0  0  0  0  0  0
  -19.1740  -28.8450   23.3300 C   0  0  0  0  0  0  0  0  0  0  0  0
  -18.9380  -30.0950   23.9430 C   0  0  0  0  0  3  0  0  0  0  0  0
  -17.6280  -30.5810   24.1070 C   0  0  0  0  0  3  0  0  0  0  0  0
  -16.5340  -29.8140   23.6690 C   0  0  0  0  0  3  0  0  0  0  0  0
  -16.7530  -28.5660   23.0600 C   0  0  0  0  0  3  0  0  0  0  0  0
  -25.9080  -32.5180   23.9540 C   0  0  0  0  0  3  0  0  0  0  0  0
  -26.3950  -31.7430   25.2420 C   0  0  1  0  0  0  0  0  0  0  0  0
  -25.2800  -31.5100   26.2870 C   0  0  0  0  0  1  0  0  0  0  0  0
  -26.9800  -30.3630   24.8660 C   0  0  0  0  0  1  0  0  0  0  0  0
  -27.5350  -32.5330   25.9260 C   0  0  0  0  0  1  0  0  0  0  0  0
  -25.5970  -33.9160   24.2870 N   0  0  0  0  0  0  0  0  0  0  0  0
  -25.9070  -34.9710   23.5220 C   0  0  0  0  0  0  0  0  0  0  0  0
  -26.5510  -34.8690   22.4750 O   0  0  0  0  0  0  0  0  0  0  0  0
  -25.0200  -34.0700   25.1020 H   0  0  0  0  0  0  0  0  0  0  0  0
  -24.1460  -36.7480   23.2370 C   0  0  0  0  0  1  0  0  0  0  0  0
  -25.4280  -36.3610   23.9910 C   0  0  0  0  0  3  0  0  0  0  0  0
  -27.5850  -37.2800   24.7210 C   0  0  0  0  0  1  0  0  0  0  0  0
  -26.4440  -37.4220   23.8210 N   0  0  0  0  0  0  0  0  0  0  0  0
  -26.0340  -38.3410   23.9710 H   0  0  0  0  0  0  0  0  0  0  0  0
  1  3  1  0
  2  1  1  0
  4 16  1  0
  5 10  1  0
  6  7  1  0
  6  5  1  0
  8  7  1  0
  8 20  1  0
  8  9  1  0
 10  4  1  0
 10  9  1  0
 11  4  2  0
 13 12  1  0
 14 45  1  0
 14 15  1  0
 14 16  1  0
 15  1  1  0
 15 12  1  0
 16 13  1  0
 17 18  2  0
 18 37  1  0
 19 18  1  0
 19 22  1  0
 20 21  1  0
 20 17  1  0
 21 19  2  0
 22 23  1  0
 23 24  2  0
 25 28  1  0
 25 24  1  0
 26 25  2  0
 27 26  1  0
 27 22  2  0
 28 29  1  0
 29 34  2  0
 29 30  1  0
 30 31  2  0
 31 32  1  0
 32 36  1  0
 33 32  2  0
 34 33  1  0
 35 34  1  0
 37 38  1  0
 38 41  1  0
 38 40  1  0
 39 37  2  0
 42 43  1  0
 42 17  1  0
 44 42  1  0
 46 45  1  0
 46 48  1  0
 47 45  2  0
 49 46  1  0
 50  1  1  0
 50 51  1  0
 52 53  1  0
 52 51  2  0
 54 65  2  0
 55 53  1  0
 55 60  1  0
 56 64  1  0
 56 66  1  0
 57 63  1  0
 57 59  1  0
 58 64  1  0
 59 58  1  0
 60 59  2  0
 61 55  2  0
 62 61  1  0
 62 57  2  0
 63 56  1  0
 64 54  1  0
 66 68  2  0
 67 66  1  0
 69 67  1  0
 70 79  2  0
 70 75  1  0
 71 67  1  0
 71 75  1  0
 72 71  1  0
 73 74  1  0
 73 72  1  0
 74 70  1  0
 75 76  2  0
 76 77  1  0
 78 77  2  0
 79 78  1  0
 80 54  1  0
 80 85  1  0
 80 81  1  0
 81 84  1  1
 81 82  1  0
 83 81  1  0
 85 88  1  0
 86 90  1  0
 86 85  1  0
 87 86  2  0
 90 89  1  0
 92 93  1  0
 92 90  1  0
 92 91  1  0
M  ISO  4   4 100  16 100  52 101  53 101
M  END
>  <TORSDO>  (6) 
F 20

>  <SCORE>  (6) 
-13.942

>  <name>  (6) 
5

>  <ligand_id>  (6) 
5

>  <original_smiles>  (6) 
[H]c1c([H])c([H])c2c(c1[H])C([H])([H])C([H])([H])C([H])([H])C2([H])N([H])C(=O)C1([H])N(C(=O)C([H])(N([H])C(=O)C([H])(N([H])C([H])([H])[H])C([H])([H])[H])C(C([H])([H])[H])(C([H])([H])[H])C([H])([H])[H])C([H])([H])c2c([H])c(OC([H])([H])C([H])([H])C([H])([H])[N+]([H])([H])C3([H])C([H])(C(=O)N([H])[H])N(C(=O)N4C([H])([H])C([H])([H])C([H])([H])C([H])(n5nc(-c6c([H])c([H])c(Oc7c([H])c([H])c(F)c([H])c7F)c([H])c6[H])c(C(=O)N([H])[H])c5N([H])[H])C4([H])[H])C([H])([H])C3([H])[H])c([H])c([H])c2C1([H])[H]

>  <smiles>  (6) 
[H]c1c([H])c([H])c2c(c1[H])C([H])([H])C([H])([H])C([H])([H])C2([H])N([H])C(=O)C1([H])N(C(=O)C([H])(N([H])C(=O)C([H])(N([H])C([H])([H])[H])C([H])([H])[H])C(C([H])([H])[H])(C([H])([H])[H])C([H])([H])[H])C([H])([H])c2c([H])c(OC([H])([H])C([H])([H])C([H])([H])[N+]([H])([H])C3([H])C([H])(C(=O)N([H])[H])N(C(=O)N4C([H])([H])C([H])([H])C([H])([H])C([H])(n5nc(-c6c([H])c([H])c(Oc7c([H])c([H])c(F)c([H])c7F)c([H])c6[H])c(C(=O)N([H])[H])c5N([H])[H])C4([H])[H])C([H])([H])C3([H])[H])c([H])c([H])c2C1([H])[H]

$$$$
6:0:0
     RDKit          3D

 90 98  0  0  1  0  0  0  0  0999 V2000
  -29.0250  -18.2760   20.8390 C   0  0  0  0  0  0  0  0  0  0  0  0
  -29.0820  -19.8320   21.1000 C   0  0  0  0  0  2  0  0  0  0  0  0
  -30.5080  -18.4920   18.9180 C   0  0  0  0  0  2  0  0  0  0  0  0
  -30.5570  -20.0910   19.1840 C   0  0  0  0  0  2  0  0  0  0  0  0
  -30.2320  -17.5600   20.1640 C   0  0  0  0  0  3  0  0  0  0  0  0
  -29.3660  -20.7100   19.8940 N   0  0  2  0  0  4  0  0  0  0  0  0
  -28.0130  -17.6440   21.1540 O   0  0  0  0  0  0  0  0  0  0  0  0
  -28.5690  -20.6020   19.2820 H   0  0  0  0  0  0  0  0  0  0  0  0
  -30.8060  -14.9010   19.7250 C   0  0  0  0  0  0  0  0  0  0  0  0
  -30.5630  -12.6020   18.7310 C   0  0  0  0  0  2  0  0  0  0  0  0
  -29.5180  -12.6390   17.5930 C   0  0  0  0  0  2  0  0  0  0  0  0
  -28.0910  -12.4570   18.1490 C   0  0  0  0  0  2  0  0  0  0  0  0
  -27.8170  -13.3510   19.3880 C   0  0  0  0  0  3  0  0  0  0  0  0
  -28.9700  -13.2790   20.4130 C   0  0  0  0  0  2  0  0  0  0  0  0
  -30.1990  -13.6600   19.7040 N   0  0  0  0  0  0  0  0  0  0  0  0
  -31.9760  -15.0070   19.3460 O   0  0  0  0  0  0  0  0  0  0  0  0
  -30.0110  -16.0250   19.9790 N   0  0  0  0  0  0  0  0  0  0  0  0
  -29.0660  -15.7650   20.2190 H   0  0  0  0  0  0  0  0  0  0  0  0
  -25.5270  -13.9550   20.3700 C   0  0  0  0  0  0  0  0  0  0  0  0
  -24.4820  -13.1870   20.8030 C   0  0  0  0  0  0  0  0  0  0  0  0
  -24.9060  -11.8290   20.6690 C   0  0  0  0  0  0  0  0  0  0  0  0
  -26.5210  -13.0660   19.9960 N   0  0  0  0  0  0  0  0  0  0  0  0
  -26.1620  -11.7790   20.2400 N   0  0  0  0  0  0  0  0  0  0  0  0
  -24.1680  -10.5760   20.8710 C   0  0  0  0  0  0  0  0  0  0  0  0
  -24.6030   -9.6030   21.7980 C   0  0  0  0  0  3  0  0  0  0  0  0
  -23.8650   -8.4140   21.9860 C   0  0  0  0  0  3  0  0  0  0  0  0
  -22.6780   -8.1900   21.2490 C   0  0  0  0  0  0  0  0  0  0  0  0
  -22.2630   -9.1510   20.3110 C   0  0  0  0  0  3  0  0  0  0  0  0
  -23.0010  -10.3310   20.1190 C   0  0  0  0  0  3  0  0  0  0  0  0
  -21.9110   -7.0550   21.3480 O   0  0  0  0  0  0  0  0  0  0  0  0
  -21.7880   -6.3710   22.5300 C   0  0  0  0  0  0  0  0  0  0  0  0
  -21.2410   -6.9710   23.6850 C   0  0  0  0  0  3  0  0  0  0  0  0
  -21.0690   -6.2110   24.8600 C   0  0  0  0  0  3  0  0  0  0  0  0
  -21.4310   -4.8510   24.8790 C   0  0  0  0  0  0  0  0  0  0  0  0
  -21.9700   -4.2500   23.7270 C   0  0  0  0  0  3  0  0  0  0  0  0
  -22.1440   -5.0080   22.5560 C   0  0  0  0  0  0  0  0  0  0  0  0
  -22.6440   -4.4170   21.4430 F   0  0  0  0  0  0  0  0  0  0  0  0
  -21.2590   -4.1180   26.0030 F   0  0  0  0  0  0  0  0  0  0  0  0
  -23.1280  -13.6810   21.2250 C   0  0  0  0  0  0  0  0  0  0  0  0
  -22.4690  -12.9650   22.1290 N   0  0  0  0  0  0  0  0  0  0  0  0
  -22.6670  -14.7350   20.7880 O   0  0  0  0  0  0  0  0  0  0  0  0
  -22.8560  -12.1110   22.5020 H   0  0  0  0  0  0  0  0  0  0  0  0
  -21.5640  -13.2750   22.4540 H   0  0  0  0  0  0  0  0  0  0  0  0
  -25.7050  -15.3290   20.2410 N   0  0  0  0  0  0  0  0  0  0  0  0
  -24.9730  -15.9880   20.4800 H   0  0  0  0  0  0  0  0  0  0  0  0
  -26.5430  -15.7800   19.9000 H   0  0  0  0  0  0  0  0  0  0  0  0
  -29.4090  -22.2310   20.3120 C   0  0  0  0  0  2  0  0  0  0  0  0
  -28.9900  -23.5440   19.3970 C   0  0  0  0  0  2  0  0  0  0  0  0
  -28.4880  -24.9410   20.1360 C   0  0  0  0  0  2  0  0  0  0  0  0
  -28.5440  -26.3700   19.6010 O   0  0  0  0  0  0  0  0  0  0  0  0
  -24.6990  -31.6090   22.9940 C   0  0  0  0  0  0  0  0  0  0  0  0
  -27.4150  -27.2330   19.6840 C   0  0  0  0  0  0  0  0  0  0  0  0
  -23.5220  -30.2500   21.3040 C   0  0  0  0  0  3  0  0  0  0  0  0
  -25.0040  -28.8130   19.7830 C   0  0  0  0  0  0  0  0  0  0  0  0
  -26.0510  -30.6530   21.1000 C   0  0  0  0  0  2  0  0  0  0  0  0
  -26.1710  -29.3030   20.3830 C   0  0  0  0  0  0  0  0  0  0  0  0
  -27.3810  -28.5300   20.3140 C   0  0  0  0  0  3  0  0  0  0  0  0
  -26.2190  -26.8150   19.0650 C   0  0  0  0  0  3  0  0  0  0  0  0
  -25.0350  -27.5800   19.1100 C   0  0  0  0  0  3  0  0  0  0  0  0
  -23.7410  -29.6500   19.8900 C   0  0  0  0  0  2  0  0  0  0  0  0
  -24.7770  -30.8550   21.8570 N   0  0  0  0  0  0  0  0  0  0  0  0
  -23.6150  -31.8190   23.5580 O   0  0  0  0  0  0  0  0  0  0  0  0
  -22.9060  -29.1680   22.2250 C   0  0  0  0  0  0  0  0  0  0  0  0
  -21.5810  -28.9680   22.1300 N   0  0  0  0  0  0  0  0  0  0  0  0
  -23.6230  -28.5100   22.9850 O   0  0  0  0  0  0  0  0  0  0  0  0
  -21.0570  -29.5520   21.4930 H   0  0  0  0  0  0  0  0  0  0  0  0
  -18.2440  -27.6760   22.6870 C   0  0  0  0  0  0  0  0  0  0  0  0
  -20.8080  -27.9650   22.8680 C   0  0  0  0  0  3  0  0  0  0  0  0
  -20.9080  -26.5780   22.1920 C   0  0  0  0  0  2  0  0  0  0  0  0
  -19.7690  -26.3060   21.2040 C   0  0  0  0  0  2  0  0  0  0  0  0
  -18.4140  -26.3810   21.9120 C   0  0  0  0  0  2  0  0  0  0  0  0
  -19.3690  -28.4280   23.1210 C   0  0  0  0  0  0  0  0  0  0  0  0
  -19.1540  -29.6440   23.8080 C   0  0  0  0  0  3  0  0  0  0  0  0
  -17.8500  -30.1060   24.0630 C   0  0  0  0  0  3  0  0  0  0  0  0
  -16.7410  -29.3510   23.6430 C   0  0  0  0  0  3  0  0  0  0  0  0
  -16.9400  -28.1380   22.9610 C   0  0  0  0  0  3  0  0  0  0  0  0
  -25.9660  -32.2600   23.6310 C   0  0  0  0  0  3  0  0  0  0  0  0
  -26.5340  -31.4420   24.8550 C   0  0  1  0  0  0  0  0  0  0  0  0
  -25.4710  -31.1080   25.9270 C   0  0  0  0  0  1  0  0  0  0  0  0
  -27.1610  -30.1110   24.3820 C   0  0  0  0  0  1  0  0  0  0  0  0
  -27.6670  -32.2440   25.5400 C   0  0  0  0  0  1  0  0  0  0  0  0
  -25.6070  -33.6240   24.0460 N   0  0  0  0  0  0  0  0  0  0  0  0
  -25.8720  -34.7310   23.3400 C   0  0  0  0  0  0  0  0  0  0  0  0
  -26.5140  -34.7130   22.2860 O   0  0  0  0  0  0  0  0  0  0  0  0
  -25.0320  -33.7090   24.8710 H   0  0  0  0  0  0  0  0  0  0  0  0
  -24.0540  -36.4590   23.1490 C   0  0  0  0  0  1  0  0  0  0  0  0
  -25.3440  -36.0710   23.8890 C   0  0  0  0  0  3  0  0  0  0  0  0
  -27.4600  -37.0200   24.6960 C   0  0  0  0  0  1  0  0  0  0  0  0
  -26.3230  -37.1740   23.7930 N   0  0  0  0  0  0  0  0  0  0  0  0
  -25.8800  -38.0680   23.9910 H   0  0  0  0  0  0  0  0  0  0  0  0
  1  2  1  0
  1  7  2  0
  3  4  1  0
  3  5  1  0
  4  6  1  0
  5 17  1  0
  5  1  1  0
  6 47  1  0
  6  2  1  0
  6  8  1  6
  9 17  1  0
 10 15  1  0
 11 12  1  0
 11 10  1  0
 13 12  1  0
 13 22  1  0
 13 14  1  0
 15  9  1  0
 15 14  1  0
 16  9  2  0
 17 18  1  0
 19 20  2  0
 20 39  1  0
 21 20  1  0
 21 24  1  0
 22 23  1  0
 22 19  1  0
 23 21  2  0
 24 25  1  0
 25 26  2  0
 27 30  1  0
 27 26  1  0
 28 27  2  0
 29 28  1  0
 29 24  2  0
 30 31  1  0
 31 36  2  0
 31 32  1  0
 32 33  2  0
 33 34  1  0
 34 38  1  0
 35 34  2  0
 36 35  1  0
 37 36  1  0
 39 40  1  0
 40 43  1  0
 40 42  1  0
 41 39  2  0
 44 19  1  0
 44 45  1  0
 46 44  1  0
 48 49  1  0
 48 47  1  0
 50 52  1  0
 50 49  1  0
 51 62  2  0
 52 57  1  0
 53 61  1  0
 53 63  1  0
 54 60  1  0
 54 56  1  0
 55 61  1  0
 56 55  1  0
 57 56  2  0
 58 59  1  0
 58 52  2  0
 59 54  2  0
 60 53  1  0
 61 51  1  0
 63 65  2  0
 64 63  1  0
 66 64  1  0
 67 76  2  0
 67 72  1  0
 68 64  1  0
 68 72  1  0
 69 68  1  0
 70 71  1  0
 70 69  1  0
 71 67  1  0
 72 73  2  0
 73 74  1  0
 75 74  2  0
 76 75  1  0
 77 51  1  0
 77 82  1  0
 77 78  1  0
 78 81  1  1
 78 79  1  0
 80 78  1  0
 82 85  1  0
 83 87  1  0
 83 82  1  0
 84 83  2  0
 87 86  1  0
 89 87  1  0
 89 90  1  0
 89 88  1  0
M  ISO  4   9 100  17 100  49 101  50 101
M  END
>  <TORSDO>  (7) 
F 19

>  <SCORE>  (7) 
-12.473

>  <name>  (7) 
6

>  <ligand_id>  (7) 
6

>  <original_smiles>  (7) 
[H]c1c([H])c([H])c2c(c1[H])C([H])([H])C([H])([H])C([H])([H])C2([H])N([H])C(=O)C1([H])N(C(=O)C([H])(N([H])C(=O)C([H])(N([H])C([H])([H])[H])C([H])([H])[H])C(C([H])([H])[H])(C([H])([H])[H])C([H])([H])[H])C([H])([H])c2c([H])c(OC([H])([H])C([H])([H])C([H])([H])[N+]3([H])C([H])([H])C(=O)C([H])(N([H])C(=O)N4C([H])([H])C([H])([H])C([H])([H])C([H])(n5nc(-c6c([H])c([H])c(Oc7c([H])c([H])c(F)c([H])c7F)c([H])c6[H])c(C(=O)N([H])[H])c5N([H])[H])C4([H])[H])C([H])([H])C3([H])[H])c([H])c([H])c2C1([H])[H]

>  <smiles>  (7) 
[H]c1c([H])c([H])c2c(c1[H])C([H])([H])C([H])([H])C([H])([H])C2([H])N([H])C(=O)C1([H])N(C(=O)C([H])(N([H])C(=O)C([H])(N([H])C([H])([H])[H])C([H])([H])[H])C(C([H])([H])[H])(C([H])([H])[H])C([H])([H])[H])C([H])([H])c2c([H])c(OC([H])([H])C([H])([H])C([H])([H])[N+]3([H])C([H])([H])C(=O)C([H])(N([H])C(=O)N4C([H])([H])C([H])([H])C([H])([H])C([H])(n5nc(-c6c([H])c([H])c(Oc7c([H])c([H])c(F)c([H])c7F)c([H])c6[H])c(C(=O)N([H])[H])c5N([H])[H])C4([H])[H])C([H])([H])C3([H])[H])c([H])c([H])c2C1([H])[H]

$$$$
7:0:0
     RDKit          3D

 94102  0  0  1  0  0  0  0  0999 V2000
  -29.0520  -19.9470   20.3050 C   0  0  0  0  0  3  0  0  0  0  0  0
  -27.2820  -18.4770   18.9670 C   0  0  0  0  0  2  0  0  0  0  0  0
  -26.1660  -18.8010   17.9720 C   0  0  0  0  0  2  0  0  0  0  0  0
  -26.9800  -20.8720   18.9690 C   0  0  0  0  0  2  0  0  0  0  0  0
  -28.0720  -19.7820   19.0930 C   0  0  0  0  0  3  0  0  0  0  0  0
  -25.7320  -20.2200   18.3400 C   0  0  0  0  0  3  0  0  0  0  0  0
  -25.1720  -20.9700   17.2010 N   0  0  0  0  0  4  0  0  0  0  0  0
  -25.8370  -21.0630   16.4530 H   0  0  0  0  0  0  0  0  0  0  0  0
  -24.8860  -21.8890   17.4890 H   0  0  0  0  0  0  0  0  0  0  0  0
  -24.3590  -20.5010   16.8410 H   0  0  0  0  0  0  0  0  0  0  0  0
  -29.5220  -21.5280   20.2110 N   0  0  0  0  0  4  0  0  0  0  0  0
  -29.6970  -21.6970   19.2340 H   0  0  0  0  0  0  0  0  0  0  0  0
  -30.4390  -21.5420   20.6300 H   0  0  0  0  0  0  0  0  0  0  0  0
  -28.7990  -22.9010   20.7950 C   0  0  0  0  0  2  0  0  0  0  0  0
  -28.5270  -24.4690   20.0160 C   0  0  0  0  0  2  0  0  0  0  0  0
  -28.4650  -26.0040   20.5600 O   0  0  0  0  0  0  0  0  0  0  0  0
  -24.6860  -31.8900   23.2190 C   0  0  0  0  0  0  0  0  0  0  0  0
  -27.4250  -27.0400   20.3870 C   0  0  0  0  0  0  0  0  0  0  0  0
  -23.5740  -30.4550   21.5550 C   0  0  0  0  0  3  0  0  0  0  0  0
  -25.0980  -28.8530   20.2170 C   0  0  0  0  0  0  0  0  0  0  0  0
  -26.1380  -30.7070   21.5090 C   0  0  0  0  0  2  0  0  0  0  0  0
  -26.2490  -29.2920   20.8800 C   0  0  0  0  0  0  0  0  0  0  0  0
  -27.4050  -28.4040   20.9460 C   0  0  0  0  0  3  0  0  0  0  0  0
  -26.2470  -26.7410   19.6640 C   0  0  0  0  0  3  0  0  0  0  0  0
  -25.1190  -27.5960   19.5900 C   0  0  0  0  0  3  0  0  0  0  0  0
  -23.8650  -29.7530   20.2010 C   0  0  0  0  0  2  0  0  0  0  0  0
  -24.8180  -31.0430   22.1490 N   0  0  0  0  0  0  0  0  0  0  0  0
  -23.5740  -32.1760   23.6920 O   0  0  0  0  0  0  0  0  0  0  0  0
  -22.8540  -29.4650   22.5060 C   0  0  0  0  0  0  0  0  0  0  0  0
  -21.5220  -29.3290   22.3680 N   0  0  0  0  0  0  0  0  0  0  0  0
  -23.4990  -28.8220   23.3380 O   0  0  0  0  0  0  0  0  0  0  0  0
  -21.0580  -29.8960   21.6730 H   0  0  0  0  0  0  0  0  0  0  0  0
  -18.1030  -28.2390   22.8830 C   0  0  0  0  0  0  0  0  0  0  0  0
  -20.6730  -28.4050   23.1260 C   0  0  0  0  0  3  0  0  0  0  0  0
  -20.7150  -26.9840   22.5180 C   0  0  0  0  0  2  0  0  0  0  0  0
  -19.5940  -26.7260   21.5080 C   0  0  0  0  0  2  0  0  0  0  0  0
  -18.2250  -26.9020   22.1710 C   0  0  0  0  0  2  0  0  0  0  0  0
  -19.2520  -28.9530   23.3170 C   0  0  0  0  0  0  0  0  0  0  0  0
  -19.0830  -30.2050   23.9470 C   0  0  0  0  0  3  0  0  0  0  0  0
  -17.7970  -30.7440   24.1440 C   0  0  0  0  0  3  0  0  0  0  0  0
  -16.6620  -30.0280   23.7240 C   0  0  0  0  0  3  0  0  0  0  0  0
  -16.8160  -28.7780   23.0990 C   0  0  0  0  0  3  0  0  0  0  0  0
  -25.9260  -32.5550   23.8920 C   0  0  0  0  0  3  0  0  0  0  0  0
  -25.5810  -33.9560   24.1910 N   0  0  0  0  0  0  0  0  0  0  0  0
  -25.9380  -35.0100   23.4440 C   0  0  0  0  0  0  0  0  0  0  0  0
  -26.6550  -34.9060   22.4450 O   0  0  0  0  0  0  0  0  0  0  0  0
  -24.9490  -34.1090   24.9630 H   0  0  0  0  0  0  0  0  0  0  0  0
  -24.2040  -36.7850   23.0160 C   0  0  0  0  0  1  0  0  0  0  0  0
  -25.4210  -36.3990   23.8710 C   0  0  0  0  0  3  0  0  0  0  0  0
  -27.5140  -37.3190   24.7690 C   0  0  0  0  0  1  0  0  0  0  0  0
  -26.4450  -37.4620   23.7830 N   0  0  0  0  0  0  0  0  0  0  0  0
  -26.0240  -38.3790   23.9050 H   0  0  0  0  0  0  0  0  0  0  0  0
  -26.3850  -31.8150   25.2080 C   0  0  1  0  0  0  0  0  0  0  0  0
  -25.2450  -31.5900   26.2290 C   0  0  0  0  0  1  0  0  0  0  0  0
  -26.9980  -30.4340   24.8810 C   0  0  0  0  0  1  0  0  0  0  0  0
  -27.4980  -32.6330   25.9070 C   0  0  0  0  0  1  0  0  0  0  0  0
  -30.1190  -18.5060   20.4210 C   0  0  0  0  0  3  0  0  0  0  0  0
  -29.8080  -16.7920   20.8320 C   0  0  0  0  0  3  0  0  0  0  0  0
  -30.7070  -15.3100   20.7180 C   0  0  0  0  0  0  0  0  0  0  0  0
  -30.8260  -12.8070   20.0620 C   0  0  0  0  0  2  0  0  0  0  0  0
  -30.0320  -12.5280   18.7600 C   0  0  0  0  0  2  0  0  0  0  0  0
  -28.5440  -12.2780   19.0680 C   0  0  0  0  0  2  0  0  0  0  0  0
  -27.9790  -13.3120   20.0720 C   0  0  0  0  0  3  0  0  0  0  0  0
  -28.9060  -13.5340   21.2840 C   0  0  0  0  0  2  0  0  0  0  0  0
  -30.2070  -13.9840   20.7660 N   0  0  0  0  0  0  0  0  0  0  0  0
  -31.9300  -15.3550   20.5170 O   0  0  0  0  0  0  0  0  0  0  0  0
  -25.5470  -13.8910   20.5820 C   0  0  0  0  0  0  0  0  0  0  0  0
  -24.4570  -13.1300   20.8920 C   0  0  0  0  0  0  0  0  0  0  0  0
  -24.9250  -11.7820   20.9600 C   0  0  0  0  0  0  0  0  0  0  0  0
  -26.6100  -13.0130   20.4700 N   0  0  0  0  0  0  0  0  0  0  0  0
  -26.2400  -11.7390   20.7660 N   0  0  0  0  0  0  0  0  0  0  0  0
  -24.1840  -10.5270   21.1370 C   0  0  0  0  0  0  0  0  0  0  0  0
  -24.5770   -9.5660   22.0930 C   0  0  0  0  0  3  0  0  0  0  0  0
  -23.8340   -8.3760   22.2590 C   0  0  0  0  0  3  0  0  0  0  0  0
  -22.6840   -8.1410   21.4670 C   0  0  0  0  0  0  0  0  0  0  0  0
  -22.3100   -9.0930   20.5010 C   0  0  0  0  0  3  0  0  0  0  0  0
  -23.0540  -10.2730   20.3340 C   0  0  0  0  0  3  0  0  0  0  0  0
  -21.9180   -7.0030   21.5410 O   0  0  0  0  0  0  0  0  0  0  0  0
  -21.8710   -6.2400   22.6790 C   0  0  0  0  0  0  0  0  0  0  0  0
  -21.4720   -6.7790   23.9220 C   0  0  0  0  0  3  0  0  0  0  0  0
  -21.3700   -5.9430   25.0520 C   0  0  0  0  0  3  0  0  0  0  0  0
  -21.6570   -4.5700   24.9410 C   0  0  0  0  0  0  0  0  0  0  0  0
  -22.0500   -4.0300   23.7030 C   0  0  0  0  0  3  0  0  0  0  0  0
  -22.1530   -4.8620   22.5750 C   0  0  0  0  0  0  0  0  0  0  0  0
  -22.5110   -4.3340   21.3800 F   0  0  0  0  0  0  0  0  0  0  0  0
  -21.5520   -3.7650   26.0240 F   0  0  0  0  0  0  0  0  0  0  0  0
  -23.0410  -13.6160   21.0130 C   0  0  0  0  0  0  0  0  0  0  0  0
  -22.2420  -12.9720   21.8560 N   0  0  0  0  0  0  0  0  0  0  0  0
  -22.6500  -14.6050   20.3950 O   0  0  0  0  0  0  0  0  0  0  0  0
  -22.5680  -12.1730   22.3790 H   0  0  0  0  0  0  0  0  0  0  0  0
  -21.2900  -13.2860   21.9810 H   0  0  0  0  0  0  0  0  0  0  0  0
  -25.7230  -15.2490   20.3570 N   0  0  0  0  0  0  0  0  0  0  0  0
  -24.9420  -15.8920   20.3530 H   0  0  0  0  0  0  0  0  0  0  0  0
  -26.5950  -15.6720   20.0710 H   0  0  0  0  0  0  0  0  0  0  0  0
  1 57  1  0
  2  5  1  0
  3  6  1  0
  3  2  1  0
  4  5  1  0
  5  1  1  0
  6  7  1  0
  6  4  1  0
  7  9  1  0
  8  7  1  0
 10  7  1  0
 11  1  1  0
 11 13  1  0
 11 14  1  0
 12 11  1  0
 15 16  1  0
 15 14  1  0
 17 28  2  0
 18 16  1  0
 18 23  1  0
 19 27  1  0
 19 29  1  0
 20 22  1  0
 21 27  1  0
 22 23  2  0
 22 21  1  0
 24 18  2  0
 25 24  1  0
 25 20  2  0
 26 20  1  0
 26 19  1  0
 27 17  1  0
 29 31  2  0
 30 29  1  0
 32 30  1  0
 33 42  2  0
 33 38  1  0
 34 30  1  0
 34 38  1  0
 35 34  1  0
 36 37  1  0
 36 35  1  0
 37 33  1  0
 38 39  2  0
 39 40  1  0
 41 40  2  0
 42 41  1  0
 43 17  1  0
 43 44  1  0
 43 53  1  0
 44 47  1  0
 45 49  1  0
 45 44  1  0
 46 45  2  0
 49 48  1  0
 51 49  1  0
 51 52  1  0
 51 50  1  0
 53 56  1  1
 53 54  1  0
 55 53  1  0
 57 58  2  0
 59 65  1  0
 59 58  1  0
 60 65  1  0
 61 62  1  0
 61 60  1  0
 63 62  1  0
 63 70  1  0
 63 64  1  0
 65 64  1  0
 66 59  2  0
 67 68  2  0
 68 69  1  0
 68 87  1  0
 69 72  1  0
 70 67  1  0
 70 71  1  0
 71 69  2  0
 72 73  1  0
 73 74  2  0
 75 78  1  0
 75 74  1  0
 76 75  2  0
 77 76  1  0
 77 72  2  0
 78 79  1  0
 79 80  1  0
 80 81  2  0
 82 81  1  0
 82 86  1  0
 83 82  2  0
 84 79  2  0
 84 83  1  0
 85 84  1  0
 87 88  1  0
 88 91  1  0
 88 90  1  0
 89 87  2  0
 92 67  1  0
 93 92  1  0
 94 92  1  0
M  ISO  4  15 101  16 101  58 100  59 100
M  END
>  <TORSDO>  (8) 
F 23

>  <SCORE>  (8) 
-13.390

>  <name>  (8) 
7

>  <ligand_id>  (8) 
7

>  <original_smiles>  (8) 
[H]c1c([H])c([H])c2c(c1[H])C([H])([H])C([H])([H])C([H])([H])C2([H])N([H])C(=O)C1([H])N(C(=O)C([H])(N([H])C(=O)C([H])(N([H])C([H])([H])[H])C([H])([H])[H])C(C([H])([H])[H])(C([H])([H])[H])C([H])([H])[H])C([H])([H])c2c([H])c(OC([H])([H])C([H])([H])[N+]([H])([H])C([H])(C([H])([H])C([H])([H])C(=O)N3C([H])([H])C([H])([H])C([H])([H])C([H])(n4nc(-c5c([H])c([H])c(Oc6c([H])c([H])c(F)c([H])c6F)c([H])c5[H])c(C(=O)N([H])[H])c4N([H])[H])C3([H])[H])C3([H])C([H])([H])C([H])([H])C([H])([N+]([H])([H])[H])C3([H])[H])c([H])c([H])c2C1([H])[H]

>  <smiles>  (8) 
[H]c1c([H])c([H])c2c(c1[H])C([H])([H])C([H])([H])C([H])([H])C2([H])N([H])C(=O)C1([H])N(C(=O)C([H])(N([H])C(=O)C([H])(N([H])C([H])([H])[H])C([H])([H])[H])C(C([H])([H])[H])(C([H])([H])[H])C([H])([H])[H])C([H])([H])c2c([H])c(OC([H])([H])C([H])([H])[N+]([H])([H])C([H])(C([H])([H])C([H])([H])C(=O)N3C([H])([H])C([H])([H])C([H])([H])C([H])(n4nc(-c5c([H])c([H])c(Oc6c([H])c([H])c(F)c([H])c6F)c([H])c5[H])c(C(=O)N([H])[H])c4N([H])[H])C3([H])[H])C3([H])C([H])([H])C([H])([H])C([H])([N+]([H])([H])[H])C3([H])[H])c([H])c([H])c2C1([H])[H]

$$$$
8:0:0
     RDKit          3D

 94102  0  0  1  0  0  0  0  0999 V2000
  -29.9980  -21.2420   20.9160 C   0  0  0  0  0  3  0  0  0  0  0  0
  -31.2610  -15.6000   20.7330 C   0  0  0  0  0  0  0  0  0  0  0  0
  -31.1820  -13.1550   20.0270 C   0  0  0  0  0  2  0  0  0  0  0  0
  -30.3670  -12.8500   18.7450 C   0  0  0  0  0  2  0  0  0  0  0  0
  -28.8470  -12.8150   19.0160 C   0  0  0  0  0  2  0  0  0  0  0  0
  -28.3480  -13.8650   20.0490 C   0  0  0  0  0  3  0  0  0  0  0  0
  -29.3000  -14.0090   21.2540 C   0  0  0  0  0  2  0  0  0  0  0  0
  -30.6130  -14.3590   20.6980 N   0  0  0  0  0  0  0  0  0  0  0  0
  -32.4960  -15.5690   20.7780 O   0  0  0  0  0  0  0  0  0  0  0  0
  -28.8610  -19.1880   19.6460 C   0  0  0  0  0  2  0  0  0  0  0  0
  -30.7690  -18.2730   21.0250 C   0  0  0  0  0  2  0  0  0  0  0  0
  -30.1730  -19.6750   20.2690 C   0  0  0  0  0  3  0  0  0  0  0  0
  -29.0510  -17.9690   18.7010 C   0  0  0  0  0  3  0  0  0  0  0  0
  -30.3990  -17.1970   18.9390 C   0  0  0  0  0  3  0  0  0  0  0  0
  -30.5750  -16.0710   17.9060 C   0  0  0  0  0  1  0  0  0  0  0  0
  -30.5960  -16.8360   20.3810 N   0  0  0  0  0  0  0  0  0  0  0  0
  -25.9470  -14.5390   20.6290 C   0  0  0  0  0  0  0  0  0  0  0  0
  -24.8210  -13.8040   20.8810 C   0  0  0  0  0  0  0  0  0  0  0  0
  -25.2250  -12.4350   20.8430 C   0  0  0  0  0  0  0  0  0  0  0  0
  -26.9670  -13.6180   20.4480 N   0  0  0  0  0  0  0  0  0  0  0  0
  -26.5350  -12.3460   20.6480 N   0  0  0  0  0  0  0  0  0  0  0  0
  -24.4300  -11.2010   20.9230 C   0  0  0  0  0  0  0  0  0  0  0  0
  -24.7520  -10.1710   21.8330 C   0  0  0  0  0  3  0  0  0  0  0  0
  -23.9580   -9.0050   21.9060 C   0  0  0  0  0  3  0  0  0  0  0  0
  -22.8280   -8.8640   21.0670 C   0  0  0  0  0  0  0  0  0  0  0  0
  -22.5270   -9.8810   20.1450 C   0  0  0  0  0  3  0  0  0  0  0  0
  -23.3200  -11.0370   20.0690 C   0  0  0  0  0  3  0  0  0  0  0  0
  -22.0140   -7.7580   21.0500 O   0  0  0  0  0  0  0  0  0  0  0  0
  -21.8300   -6.9830   22.1670 C   0  0  0  0  0  0  0  0  0  0  0  0
  -21.3140   -7.5160   23.3680 C   0  0  0  0  0  3  0  0  0  0  0  0
  -21.0800   -6.6710   24.4710 C   0  0  0  0  0  3  0  0  0  0  0  0
  -21.3510   -5.2940   24.3720 C   0  0  0  0  0  0  0  0  0  0  0  0
  -21.8590   -4.7590   23.1750 C   0  0  0  0  0  3  0  0  0  0  0  0
  -22.0960   -5.6020   22.0760 C   0  0  0  0  0  0  0  0  0  0  0  0
  -22.5670   -5.0780   20.9180 F   0  0  0  0  0  0  0  0  0  0  0  0
  -21.1190   -4.4780   25.4290 F   0  0  0  0  0  0  0  0  0  0  0  0
  -23.4280  -14.3390   21.0480 C   0  0  0  0  0  0  0  0  0  0  0  0
  -22.6070  -13.6640   21.8450 N   0  0  0  0  0  0  0  0  0  0  0  0
  -23.0760  -15.3870   20.5080 O   0  0  0  0  0  0  0  0  0  0  0  0
  -22.9010  -12.8130   22.3000 H   0  0  0  0  0  0  0  0  0  0  0  0
  -21.6680  -14.0020   22.0000 H   0  0  0  0  0  0  0  0  0  0  0  0
  -26.1860  -15.9040   20.5150 N   0  0  0  0  0  0  0  0  0  0  0  0
  -25.4440  -16.5890   20.5940 H   0  0  0  0  0  0  0  0  0  0  0  0
  -27.0900  -16.3170   20.3230 H   0  0  0  0  0  0  0  0  0  0  0  0
  -28.8630  -18.4140   17.2320 C   0  0  0  0  0  2  0  0  0  0  0  0
  -27.7400  -19.1190   17.0840 F   0  0  0  0  0  0  0  0  0  0  0  0
  -29.2730  -22.3970   20.0990 N   0  0  0  0  0  4  0  0  0  0  0  0
  -29.5800  -22.3010   19.1440 H   0  0  0  0  0  0  0  0  0  0  0  0
  -28.2920  -22.1650   20.0960 H   0  0  0  0  0  0  0  0  0  0  0  0
  -29.3730  -23.9540   20.4250 C   0  0  0  0  0  3  0  0  0  0  0  0
  -28.3240  -25.1020   19.7830 C   0  0  0  0  0  3  0  0  0  0  0  0
  -28.4370  -26.6510   19.8790 O   0  0  0  0  0  0  0  0  0  0  0  0
  -24.5170  -31.9270   23.1510 C   0  0  0  0  0  0  0  0  0  0  0  0
  -27.3040  -27.5440   19.8440 C   0  0  0  0  0  0  0  0  0  0  0  0
  -23.3580  -30.5290   21.4830 C   0  0  0  0  0  3  0  0  0  0  0  0
  -24.8630  -29.1190   19.9440 C   0  0  0  0  0  0  0  0  0  0  0  0
  -25.8810  -30.9690   21.2640 C   0  0  0  0  0  2  0  0  0  0  0  0
  -26.0240  -29.6180   20.5470 C   0  0  0  0  0  0  0  0  0  0  0  0
  -27.2410  -28.8430   20.4870 C   0  0  0  0  0  3  0  0  0  0  0  0
  -26.1150  -27.1520   19.1910 C   0  0  0  0  0  3  0  0  0  0  0  0
  -24.9190  -27.9010   19.2500 C   0  0  0  0  0  3  0  0  0  0  0  0
  -23.5810  -29.9290   20.0680 C   0  0  0  0  0  2  0  0  0  0  0  0
  -24.6050  -31.1630   22.0210 N   0  0  0  0  0  0  0  0  0  0  0  0
  -23.4320  -32.1190   23.7210 O   0  0  0  0  0  0  0  0  0  0  0  0
  -22.7780  -29.4370   22.4170 C   0  0  0  0  0  0  0  0  0  0  0  0
  -21.4630  -29.1700   22.3030 N   0  0  0  0  0  0  0  0  0  0  0  0
  -23.5100  -28.8390   23.2090 O   0  0  0  0  0  0  0  0  0  0  0  0
  -20.9250  -29.7110   21.6430 H   0  0  0  0  0  0  0  0  0  0  0  0
  -18.2030  -27.6660   22.7670 C   0  0  0  0  0  0  0  0  0  0  0  0
  -20.7280  -28.1450   23.0530 C   0  0  0  0  0  3  0  0  0  0  0  0
  -20.9540  -26.7400   22.4460 C   0  0  0  0  0  2  0  0  0  0  0  0
  -19.8910  -26.3540   21.4130 C   0  0  0  0  0  2  0  0  0  0  0  0
  -18.5000  -26.3530   22.0560 C   0  0  0  0  0  2  0  0  0  0  0  0
  -19.2490  -28.5150   23.2170 C   0  0  0  0  0  0  0  0  0  0  0  0
  -18.9190  -29.7390   23.8370 C   0  0  0  0  0  3  0  0  0  0  0  0
  -17.5740  -30.1180   24.0110 C   0  0  0  0  0  3  0  0  0  0  0  0
  -16.5420  -29.2670   23.5780 C   0  0  0  0  0  3  0  0  0  0  0  0
  -16.8580  -28.0420   22.9620 C   0  0  0  0  0  3  0  0  0  0  0  0
  -25.7720  -32.6150   23.7690 C   0  0  0  0  0  3  0  0  0  0  0  0
  -25.4020  -33.9970   24.1140 N   0  0  0  0  0  0  0  0  0  0  0  0
  -25.7470  -35.0810   23.4050 C   0  0  0  0  0  0  0  0  0  0  0  0
  -26.4750  -35.0230   22.4100 O   0  0  0  0  0  0  0  0  0  0  0  0
  -24.7600  -34.1120   24.8850 H   0  0  0  0  0  0  0  0  0  0  0  0
  -24.0090  -36.8510   22.9840 C   0  0  0  0  0  1  0  0  0  0  0  0
  -25.1980  -36.4440   23.8710 C   0  0  0  0  0  3  0  0  0  0  0  0
  -27.2490  -37.3430   24.8790 C   0  0  0  0  0  1  0  0  0  0  0  0
  -26.2120  -37.5210   23.8650 N   0  0  0  0  0  0  0  0  0  0  0  0
  -25.7770  -38.4280   24.0140 H   0  0  0  0  0  0  0  0  0  0  0  0
  -26.3290  -31.8620   25.0410 C   0  0  1  0  0  0  0  0  0  0  0  0
  -25.2540  -31.5820   26.1180 C   0  0  0  0  0  1  0  0  0  0  0  0
  -26.9570  -30.5070   24.6470 C   0  0  0  0  0  1  0  0  0  0  0  0
  -27.4560  -32.6960   25.6930 C   0  0  0  0  0  1  0  0  0  0  0  0
  -30.1810  -20.7360   23.4940 C   0  0  0  0  0  1  0  0  0  0  0  0
  -29.3250  -21.2050   22.3140 C   0  0  0  0  0  2  0  0  0  0  0  0
  1 94  1  0
  2  9  2  0
  3  8  1  0
  4  5  1  0
  4  3  1  0
  6  5  1  0
  6 20  1  0
  6  7  1  0
  8  2  1  0
  8  7  1  0
 10 12  1  0
 12  1  1  0
 12 11  1  0
 13 45  1  0
 13 14  1  0
 13 10  1  0
 14 15  1  0
 14 16  1  0
 16  2  1  0
 16 11  1  0
 17 18  2  0
 18 37  1  0
 19 18  1  0
 19 22  1  0
 20 17  1  0
 20 21  1  0
 21 19  2  0
 22 23  1  0
 23 24  2  0
 25 24  1  0
 26 25  2  0
 27 26  1  0
 27 22  2  0
 28 25  1  0
 28 29  1  0
 29 30  1  0
 30 31  2  0
 32 31  1  0
 32 36  1  0
 33 32  2  0
 34 29  2  0
 34 33  1  0
 35 34  1  0
 37 38  1  0
 38 41  1  0
 38 40  1  0
 39 37  2  0
 42 43  1  0
 42 17  1  0
 44 42  1  0
 46 45  1  0
 47 50  1  0
 47  1  1  0
 48 47  1  0
 49 47  1  0
 51 52  1  0
 51 50  2  0
 53 64  2  0
 54 52  1  0
 54 59  1  0
 55 63  1  0
 55 65  1  0
 56 62  1  0
 56 58  1  0
 57 63  1  0
 58 57  1  0
 59 58  2  0
 60 61  1  0
 60 54  2  0
 61 56  2  0
 62 55  1  0
 63 53  1  0
 65 67  2  0
 66 65  1  0
 68 66  1  0
 69 78  2  0
 69 74  1  0
 70 66  1  0
 70 74  1  0
 71 70  1  0
 72 73  1  0
 72 71  1  0
 73 69  1  0
 74 75  2  0
 75 76  1  0
 77 76  2  0
 78 77  1  0
 79 53  1  0
 79 80  1  0
 79 89  1  0
 80 83  1  0
 81 85  1  0
 81 80  1  0
 82 81  2  0
 85 84  1  0
 87 85  1  0
 87 88  1  0
 87 86  1  0
 89 92  1  1
 89 90  1  0
 91 89  1  0
 94 93  1  0
M  ISO  4   2 100  16 100  51 101  52 101
M  END
>  <TORSDO>  (9) 
F 21

>  <SCORE>  (9) 
-11.555

>  <name>  (9) 
8

>  <ligand_id>  (9) 
8

>  <original_smiles>  (9) 
[H]c1c([H])c([H])c2c(c1[H])C([H])([H])C([H])([H])C([H])([H])C2([H])N([H])C(=O)C1([H])N(C(=O)C([H])(N([H])C(=O)C([H])(N([H])C([H])([H])[H])C([H])([H])[H])C(C([H])([H])[H])(C([H])([H])[H])C([H])([H])[H])C([H])([H])c2c([H])c(OC([H])([H])C([H])([H])[N+]([H])([H])C([H])(C([H])([H])C([H])([H])[H])C3([H])C([H])([H])N(C(=O)N4C([H])([H])C([H])([H])C([H])([H])C([H])(n5nc(-c6c([H])c([H])c(Oc7c([H])c([H])c(F)c([H])c7F)c([H])c6[H])c(C(=O)N([H])[H])c5N([H])[H])C4([H])[H])C([H])(C([H])([H])[H])C([H])(C([H])([H])F)C3([H])[H])c([H])c([H])c2C1([H])[H]

>  <smiles>  (9) 
[H]c1c([H])c([H])c2c(c1[H])C([H])([H])C([H])([H])C([H])([H])C2([H])N([H])C(=O)C1([H])N(C(=O)C([H])(N([H])C(=O)C([H])(N([H])C([H])([H])[H])C([H])([H])[H])C(C([H])([H])[H])(C([H])([H])[H])C([H])([H])[H])C([H])([H])c2c([H])c(OC([H])([H])C([H])([H])[N+]([H])([H])C([H])(C([H])([H])C([H])([H])[H])C3([H])C([H])([H])N(C(=O)N4C([H])([H])C([H])([H])C([H])([H])C([H])(n5nc(-c6c([H])c([H])c(Oc7c([H])c([H])c(F)c([H])c7F)c([H])c6[H])c(C(=O)N([H])[H])c5N([H])[H])C4([H])[H])C([H])(C([H])([H])[H])C([H])(C([H])([H])F)C3([H])[H])c([H])c([H])c2C1([H])[H]

$$$$
9:0:0
     RDKit          3D

 89 97  0  0  1  0  0  0  0  0999 V2000
  -28.4410  -21.2290   19.4470 C   0  0  0  0  0  2  0  0  0  0  0  0
  -29.7440  -20.6520   21.3080 C   0  0  0  0  0  2  0  0  0  0  0  0
  -28.9290  -19.8250   20.2750 C   0  0  0  0  0  3  0  0  0  0  0  0
  -28.7570  -22.7630   20.1180 C   0  0  0  0  0  3  0  0  0  0  0  0
  -29.1360  -22.1280   21.5040 C   0  0  0  0  0  3  0  0  0  0  0  0
  -30.3670  -22.3670   23.7340 C   0  0  0  0  0  1  0  0  0  0  0  0
  -31.2940  -23.5550   21.7100 C   0  0  0  0  0  1  0  0  0  0  0  0
  -30.0160  -23.0410   22.3980 C   0  0  0  0  0  3  0  0  0  0  0  0
  -30.9000  -18.5710   18.9870 C   0  0  0  0  0  1  0  0  0  0  0  0
  -29.5590  -18.2720   19.6720 C   0  0  0  0  0  3  0  0  0  0  0  0
  -29.6360  -16.6560   20.4020 C   0  0  0  0  0  2  0  0  0  0  0  0
  -30.4020  -15.1630   19.9580 C   0  0  0  0  0  0  0  0  0  0  0  0
  -30.3410  -12.7490   19.0400 C   0  0  0  0  0  2  0  0  0  0  0  0
  -29.3580  -12.6330   17.8470 C   0  0  0  0  0  2  0  0  0  0  0  0
  -27.9250  -12.3760   18.3430 C   0  0  0  0  0  2  0  0  0  0  0  0
  -27.5450  -13.2980   19.5280 C   0  0  0  0  0  3  0  0  0  0  0  0
  -28.6460  -13.3660   20.6060 C   0  0  0  0  0  2  0  0  0  0  0  0
  -29.8680  -13.8520   19.9480 N   0  0  0  0  0  0  0  0  0  0  0  0
  -31.5790  -15.1990   19.5720 O   0  0  0  0  0  0  0  0  0  0  0  0
  -25.2030  -13.8380   20.3830 C   0  0  0  0  0  0  0  0  0  0  0  0
  -24.1640  -13.0490   20.7950 C   0  0  0  0  0  0  0  0  0  0  0  0
  -24.6420  -11.7040   20.7370 C   0  0  0  0  0  0  0  0  0  0  0  0
  -26.2410  -12.9730   20.0890 N   0  0  0  0  0  0  0  0  0  0  0  0
  -25.9190  -11.6820   20.3720 N   0  0  0  0  0  0  0  0  0  0  0  0
  -23.9360  -10.4320   20.9500 C   0  0  0  0  0  0  0  0  0  0  0  0
  -24.3910   -9.4830   21.8920 C   0  0  0  0  0  3  0  0  0  0  0  0
  -23.6820   -8.2790   22.0940 C   0  0  0  0  0  3  0  0  0  0  0  0
  -22.5040   -8.0150   21.3550 C   0  0  0  0  0  0  0  0  0  0  0  0
  -22.0680   -8.9550   20.4020 C   0  0  0  0  0  3  0  0  0  0  0  0
  -22.7780  -10.1500   20.1990 C   0  0  0  0  0  3  0  0  0  0  0  0
  -21.7640   -6.8640   21.4660 O   0  0  0  0  0  0  0  0  0  0  0  0
  -21.7100   -6.1530   22.6390 C   0  0  0  0  0  0  0  0  0  0  0  0
  -21.2240   -6.7260   23.8350 C   0  0  0  0  0  3  0  0  0  0  0  0
  -21.1210   -5.9420   25.0010 C   0  0  0  0  0  3  0  0  0  0  0  0
  -21.4920   -4.5830   24.9700 C   0  0  0  0  0  0  0  0  0  0  0  0
  -21.9690   -4.0100   23.7790 C   0  0  0  0  0  3  0  0  0  0  0  0
  -22.0740   -4.7920   22.6160 C   0  0  0  0  0  0  0  0  0  0  0  0
  -22.5150   -4.2290   21.4660 F   0  0  0  0  0  0  0  0  0  0  0  0
  -21.3850   -3.8260   26.0870 F   0  0  0  0  0  0  0  0  0  0  0  0
  -22.7750  -13.5110   21.1260 C   0  0  0  0  0  0  0  0  0  0  0  0
  -22.0880  -12.7980   22.0100 N   0  0  0  0  0  0  0  0  0  0  0  0
  -22.3100  -14.5400   20.6350 O   0  0  0  0  0  0  0  0  0  0  0  0
  -22.4780  -11.9660   22.4270 H   0  0  0  0  0  0  0  0  0  0  0  0
  -21.1580  -13.0860   22.2760 H   0  0  0  0  0  0  0  0  0  0  0  0
  -25.3460  -15.2110   20.2080 N   0  0  0  0  0  0  0  0  0  0  0  0
  -24.5830  -15.8600   20.3620 H   0  0  0  0  0  0  0  0  0  0  0  0
  -26.1810  -15.6580   19.8520 H   0  0  0  0  0  0  0  0  0  0  0  0
  -27.8110  -24.2740   20.0120 C   0  0  0  0  0  2  0  0  0  0  0  0
  -28.0930  -25.8700   20.2050 O   0  0  0  0  0  0  0  0  0  0  0  0
  -24.5750  -31.8250   23.1480 C   0  0  0  0  0  0  0  0  0  0  0  0
  -27.0840  -26.9520   20.1370 C   0  0  0  0  0  0  0  0  0  0  0  0
  -23.3610  -30.4260   21.5270 C   0  0  0  0  0  3  0  0  0  0  0  0
  -24.7890  -28.8140   20.0990 C   0  0  0  0  0  0  0  0  0  0  0  0
  -25.9250  -30.6350   21.3560 C   0  0  0  0  0  2  0  0  0  0  0  0
  -25.9830  -29.2260   20.7060 C   0  0  0  0  0  0  0  0  0  0  0  0
  -27.1260  -28.3130   20.7010 C   0  0  0  0  0  3  0  0  0  0  0  0
  -25.8600  -26.6810   19.4830 C   0  0  0  0  0  3  0  0  0  0  0  0
  -24.7500  -27.5610   19.4680 C   0  0  0  0  0  3  0  0  0  0  0  0
  -23.5740  -29.7360   20.1510 C   0  0  0  0  0  2  0  0  0  0  0  0
  -24.6420  -30.9900   22.0620 N   0  0  0  0  0  0  0  0  0  0  0  0
  -23.4910  -32.1190   23.6790 O   0  0  0  0  0  0  0  0  0  0  0  0
  -22.6740  -29.4380   22.5020 C   0  0  0  0  0  0  0  0  0  0  0  0
  -21.3400  -29.2860   22.3990 N   0  0  0  0  0  0  0  0  0  0  0  0
  -23.3470  -28.8060   23.3210 O   0  0  0  0  0  0  0  0  0  0  0  0
  -20.8510  -29.8460   21.7150 H   0  0  0  0  0  0  0  0  0  0  0  0
  -17.9500  -28.1230   22.9650 C   0  0  0  0  0  0  0  0  0  0  0  0
  -20.5190  -28.3590   23.1850 C   0  0  0  0  0  3  0  0  0  0  0  0
  -20.5920  -26.9250   22.6090 C   0  0  0  0  0  2  0  0  0  0  0  0
  -19.4690  -26.6160   21.6150 C   0  0  0  0  0  2  0  0  0  0  0  0
  -18.0990  -26.7760   22.2810 C   0  0  0  0  0  2  0  0  0  0  0  0
  -19.0850  -28.8750   23.3750 C   0  0  0  0  0  0  0  0  0  0  0  0
  -18.8870  -30.1370   23.9760 C   0  0  0  0  0  3  0  0  0  0  0  0
  -17.5900  -30.6470   24.1700 C   0  0  0  0  0  3  0  0  0  0  0  0
  -16.4700  -29.8940   23.7740 C   0  0  0  0  0  3  0  0  0  0  0  0
  -16.6530  -28.6340   23.1770 C   0  0  0  0  0  3  0  0  0  0  0  0
  -25.8540  -32.4640   23.7670 C   0  0  0  0  0  3  0  0  0  0  0  0
  -26.3700  -31.7010   25.0490 C   0  0  1  0  0  0  0  0  0  0  0  0
  -25.2790  -31.4780   26.1220 C   0  0  0  0  0  1  0  0  0  0  0  0
  -26.9490  -30.3180   24.6750 C   0  0  0  0  0  1  0  0  0  0  0  0
  -27.5250  -32.4980   25.7020 C   0  0  0  0  0  1  0  0  0  0  0  0
  -25.5450  -33.8650   24.1030 N   0  0  0  0  0  0  0  0  0  0  0  0
  -25.8870  -34.9260   23.3600 C   0  0  0  0  0  0  0  0  0  0  0  0
  -26.5580  -34.8290   22.3300 O   0  0  0  0  0  0  0  0  0  0  0  0
  -24.9530  -34.0160   24.9060 H   0  0  0  0  0  0  0  0  0  0  0  0
  -24.1850  -36.7470   23.0080 C   0  0  0  0  0  1  0  0  0  0  0  0
  -25.4090  -36.3140   23.8330 C   0  0  0  0  0  3  0  0  0  0  0  0
  -27.5350  -37.1700   24.7150 C   0  0  0  0  0  1  0  0  0  0  0  0
  -26.4540  -37.3590   23.7520 N   0  0  0  0  0  0  0  0  0  0  0  0
  -26.0520  -38.2810   23.9020 H   0  0  0  0  0  0  0  0  0  0  0  0
  1  4  1  0
  1  3  1  0
  2  5  1  0
  3 10  1  0
  3  2  1  0
  4 48  1  0
  4  5  1  0
  5  8  1  0
  7  8  1  0
  8  6  1  0
 10  9  1  0
 10 11  1  0
 12 11  1  0
 13 18  1  0
 14 15  1  0
 14 13  1  0
 16 15  1  0
 16 23  1  0
 16 17  1  0
 18 12  1  0
 18 17  1  0
 19 12  2  0
 20 21  2  0
 21 40  1  0
 22 21  1  0
 22 25  1  0
 23 24  1  0
 23 20  1  0
 24 22  2  0
 25 26  1  0
 26 27  2  0
 28 31  1  0
 28 27  1  0
 29 28  2  0
 30 29  1  0
 30 25  2  0
 31 32  1  0
 32 33  1  0
 33 34  2  0
 35 34  1  0
 35 39  1  0
 36 35  2  0
 37 32  2  0
 37 36  1  0
 38 37  1  0
 40 41  1  0
 41 44  1  0
 41 43  1  0
 42 40  2  0
 45 46  1  0
 45 20  1  0
 47 45  1  0
 48 49  1  0
 50 61  2  0
 51 49  1  0
 51 56  1  0
 52 60  1  0
 52 62  1  0
 53 59  1  0
 53 55  1  0
 54 60  1  0
 55 54  1  0
 56 55  2  0
 57 51  2  0
 58 57  1  0
 58 53  2  0
 59 52  1  0
 60 50  1  0
 62 64  2  0
 63 62  1  0
 65 63  1  0
 66 75  2  0
 66 71  1  0
 67 63  1  0
 67 71  1  0
 68 67  1  0
 69 70  1  0
 69 68  1  0
 70 66  1  0
 71 72  2  0
 72 73  1  0
 74 73  2  0
 75 74  1  0
 76 50  1  0
 76 81  1  0
 76 77  1  0
 77 80  1  1
 77 78  1  0
 79 77  1  0
 81 84  1  0
 82 86  1  0
 82 81  1  0
 83 82  2  0
 86 85  1  0
 88 86  1  0
 88 89  1  0
 88 87  1  0
M  ISO  4  11 100  12 100  48 101  49 101
M  END
>  <TORSDO>  (10) 
F 20

>  <SCORE>  (10) 
-15.428

>  <name>  (10) 
9

>  <ligand_id>  (10) 
9

>  <original_smiles>  (10) 
[H]c1c([H])c([H])c2c(c1[H])C([H])([H])C([H])([H])C([H])([H])C2([H])N([H])C(=O)C1([H])N(C(=O)C([H])(N([H])C(=O)C([H])(N([H])C([H])([H])[H])C([H])([H])[H])C(C([H])([H])[H])(C([H])([H])[H])C([H])([H])[H])C([H])([H])c2c([H])c(OC([H])([H])C3([H])C([H])([H])C([H])(C([H])(C([H])([H])[H])C([H])([H])C(=O)N4C([H])([H])C([H])([H])C([H])([H])C([H])(n5nc(-c6c([H])c([H])c(Oc7c([H])c([H])c(F)c([H])c7F)c([H])c6[H])c(C(=O)N([H])[H])c5N([H])[H])C4([H])[H])C([H])([H])C3([H])C([H])(C([H])([H])[H])C([H])([H])[H])c([H])c([H])c2C1([H])[H]

>  <smiles>  (10) 
[H]c1c([H])c([H])c2c(c1[H])C([H])([H])C([H])([H])C([H])([H])C2([H])N([H])C(=O)C1([H])N(C(=O)C([H])(N([H])C(=O)C([H])(N([H])C([H])([H])[H])C([H])([H])[H])C(C([H])([H])[H])(C([H])([H])[H])C([H])([H])[H])C([H])([H])c2c([H])c(OC([H])([H])C3([H])C([H])([H])C([H])(C([H])(C([H])([H])[H])C([H])([H])C(=O)N4C([H])([H])C([H])([H])C([H])([H])C([H])(n5nc(-c6c([H])c([H])c(Oc7c([H])c([H])c(F)c([H])c7F)c([H])c6[H])c(C(=O)N([H])[H])c5N([H])[H])C4([H])[H])C([H])([H])C3([H])C([H])(C([H])([H])[H])C([H])([H])[H])c([H])c([H])c2C1([H])[H]

$$$$
10:0:0
     RDKit          3D

 90 98  0  0  1  0  0  0  0  0999 V2000
  -29.8800  -20.6400   21.4750 C   0  0  0  0  0  2  0  0  0  0  0  0
  -29.3150  -19.7790   19.3950 C   0  0  0  0  0  2  0  0  0  0  0  0
  -28.9790  -21.2030   20.3300 C   0  0  0  0  0  3  0  0  0  0  0  0
  -29.9990  -19.0280   21.5320 C   0  0  0  0  0  3  0  0  0  0  0  0
  -30.1210  -18.4060   20.0770 C   0  0  0  0  0  3  0  0  0  0  0  0
  -30.6250  -15.4670   19.7460 C   0  0  0  0  0  0  0  0  0  0  0  0
  -30.5410  -13.0220   18.8510 C   0  0  0  0  0  2  0  0  0  0  0  0
  -29.5260  -12.8010   17.7010 C   0  0  0  0  0  2  0  0  0  0  0  0
  -28.1200  -12.5190   18.2590 C   0  0  0  0  0  2  0  0  0  0  0  0
  -27.7540  -13.4800   19.4160 C   0  0  0  0  0  3  0  0  0  0  0  0
  -28.8880  -13.6390   20.4510 C   0  0  0  0  0  2  0  0  0  0  0  0
  -30.0530  -14.1600   19.7170 N   0  0  0  0  0  0  0  0  0  0  0  0
  -31.8310  -15.4580   19.4580 O   0  0  0  0  0  0  0  0  0  0  0  0
  -29.8710  -16.7440   19.9120 N   0  0  0  0  0  0  0  0  0  0  0  0
  -28.8920  -16.5280   20.0290 H   0  0  0  0  0  0  0  0  0  0  0  0
  -25.4670  -14.0300   20.3970 C   0  0  0  0  0  0  0  0  0  0  0  0
  -24.4320  -13.2480   20.8290 C   0  0  0  0  0  0  0  0  0  0  0  0
  -24.8790  -11.8960   20.7090 C   0  0  0  0  0  0  0  0  0  0  0  0
  -26.4740  -13.1550   20.0310 N   0  0  0  0  0  0  0  0  0  0  0  0
  -26.1380  -11.8630   20.2870 N   0  0  0  0  0  0  0  0  0  0  0  0
  -24.1540  -10.6350   20.9140 C   0  0  0  0  0  0  0  0  0  0  0  0
  -24.6040   -9.6640   21.8360 C   0  0  0  0  0  3  0  0  0  0  0  0
  -23.8760   -8.4700   22.0300 C   0  0  0  0  0  3  0  0  0  0  0  0
  -22.6850   -8.2380   21.3030 C   0  0  0  0  0  0  0  0  0  0  0  0
  -22.2550   -9.1970   20.3680 C   0  0  0  0  0  3  0  0  0  0  0  0
  -22.9830  -10.3820   20.1710 C   0  0  0  0  0  3  0  0  0  0  0  0
  -21.9270   -7.0960   21.4070 O   0  0  0  0  0  0  0  0  0  0  0  0
  -21.8450   -6.3930   22.5820 C   0  0  0  0  0  0  0  0  0  0  0  0
  -21.3610   -6.9810   23.7700 C   0  0  0  0  0  3  0  0  0  0  0  0
  -21.2260   -6.2030   24.9380 C   0  0  0  0  0  3  0  0  0  0  0  0
  -21.5660   -4.8370   24.9170 C   0  0  0  0  0  0  0  0  0  0  0  0
  -22.0430   -4.2480   23.7330 C   0  0  0  0  0  3  0  0  0  0  0  0
  -22.1780   -5.0240   22.5680 C   0  0  0  0  0  0  0  0  0  0  0  0
  -22.6180   -4.4450   21.4240 F   0  0  0  0  0  0  0  0  0  0  0  0
  -21.4300   -4.0870   26.0360 F   0  0  0  0  0  0  0  0  0  0  0  0
  -23.0680  -13.7280   21.2300 C   0  0  0  0  0  0  0  0  0  0  0  0
  -22.4090  -13.0140   22.1360 N   0  0  0  0  0  0  0  0  0  0  0  0
  -22.6000  -14.7720   20.7760 O   0  0  0  0  0  0  0  0  0  0  0  0
  -22.8030  -12.1700   22.5230 H   0  0  0  0  0  0  0  0  0  0  0  0
  -21.4970  -13.3180   22.4460 H   0  0  0  0  0  0  0  0  0  0  0  0
  -25.6270  -15.4050   20.2550 N   0  0  0  0  0  0  0  0  0  0  0  0
  -24.8730  -16.0550   20.4500 H   0  0  0  0  0  0  0  0  0  0  0  0
  -26.4300  -15.8490   19.8320 H   0  0  0  0  0  0  0  0  0  0  0  0
  -30.9400  -19.2490   23.9220 C   0  0  0  0  0  1  0  0  0  0  0  0
  -31.2690  -17.0890   22.7150 C   0  0  0  0  0  1  0  0  0  0  0  0
  -31.1240  -18.6070   22.5300 C   0  0  0  0  0  3  0  0  0  0  0  0
  -29.1180  -22.9390   20.0030 C   0  0  0  0  0  0  0  0  0  0  0  0
  -30.1500  -23.2420   19.3980 O   0  0  0  0  0  0  0  0  0  0  0  0
  -28.0720  -24.3120   20.3740 C   0  0  0  0  0  2  0  0  0  0  0  0
  -28.3680  -25.9470   20.3180 O   0  0  0  0  0  0  0  0  0  0  0  0
  -24.7320  -31.9360   23.2350 C   0  0  0  0  0  0  0  0  0  0  0  0
  -27.3480  -27.0440   20.2740 C   0  0  0  0  0  0  0  0  0  0  0  0
  -23.5570  -30.5080   21.6120 C   0  0  0  0  0  3  0  0  0  0  0  0
  -25.0260  -28.9040   20.2080 C   0  0  0  0  0  0  0  0  0  0  0  0
  -26.1210  -30.7460   21.4630 C   0  0  0  0  0  2  0  0  0  0  0  0
  -26.2110  -29.3290   20.8220 C   0  0  0  0  0  0  0  0  0  0  0  0
  -27.3670  -28.4220   20.8270 C   0  0  0  0  0  3  0  0  0  0  0  0
  -26.1290  -26.7760   19.6110 C   0  0  0  0  0  3  0  0  0  0  0  0
  -25.0110  -27.6500   19.5800 C   0  0  0  0  0  3  0  0  0  0  0  0
  -23.7960  -29.8120   20.2440 C   0  0  0  0  0  2  0  0  0  0  0  0
  -24.8250  -31.0910   22.1570 N   0  0  0  0  0  0  0  0  0  0  0  0
  -23.6380  -32.2170   23.7530 O   0  0  0  0  0  0  0  0  0  0  0  0
  -22.8750  -29.5130   22.5890 C   0  0  0  0  0  0  0  0  0  0  0  0
  -21.5560  -29.2880   22.4310 N   0  0  0  0  0  0  0  0  0  0  0  0
  -23.5390  -28.9430   23.4570 O   0  0  0  0  0  0  0  0  0  0  0  0
  -21.0710  -29.8020   21.7080 H   0  0  0  0  0  0  0  0  0  0  0  0
  -18.2290  -27.8950   22.8310 C   0  0  0  0  0  0  0  0  0  0  0  0
  -20.7510  -28.3390   23.2070 C   0  0  0  0  0  3  0  0  0  0  0  0
  -20.9710  -26.8900   22.7160 C   0  0  0  0  0  2  0  0  0  0  0  0
  -19.9460  -26.4460   21.6660 C   0  0  0  0  0  2  0  0  0  0  0  0
  -18.5260  -26.5310   22.2330 C   0  0  0  0  0  2  0  0  0  0  0  0
  -19.2740  -28.7510   23.2750 C   0  0  0  0  0  0  0  0  0  0  0  0
  -18.9430  -30.0200   23.7950 C   0  0  0  0  0  3  0  0  0  0  0  0
  -17.6000  -30.4380   23.8760 C   0  0  0  0  0  3  0  0  0  0  0  0
  -16.5710  -29.5820   23.4480 C   0  0  0  0  0  3  0  0  0  0  0  0
  -16.8850  -28.3130   22.9310 C   0  0  0  0  0  3  0  0  0  0  0  0
  -25.9940  -32.6030   23.8610 C   0  0  0  0  0  3  0  0  0  0  0  0
  -26.5070  -31.8610   25.1580 C   0  0  1  0  0  0  0  0  0  0  0  0
  -25.4000  -31.6020   26.2070 C   0  0  0  0  0  1  0  0  0  0  0  0
  -27.1400  -30.4970   24.8020 C   0  0  0  0  0  1  0  0  0  0  0  0
  -27.6180  -32.6980   25.8340 C   0  0  0  0  0  1  0  0  0  0  0  0
  -25.6560  -34.0020   24.1790 N   0  0  0  0  0  0  0  0  0  0  0  0
  -25.9900  -35.0620   23.4310 C   0  0  0  0  0  0  0  0  0  0  0  0
  -26.6750  -34.9670   22.4100 O   0  0  0  0  0  0  0  0  0  0  0  0
  -25.0480  -34.1480   24.9710 H   0  0  0  0  0  0  0  0  0  0  0  0
  -24.2500  -36.8470   23.0640 C   0  0  0  0  0  1  0  0  0  0  0  0
  -25.4860  -36.4490   23.8860 C   0  0  0  0  0  3  0  0  0  0  0  0
  -27.6040  -37.3570   24.7400 C   0  0  0  0  0  1  0  0  0  0  0  0
  -26.5110  -37.5120   23.7830 N   0  0  0  0  0  0  0  0  0  0  0  0
  -26.0950  -38.4280   23.9240 H   0  0  0  0  0  0  0  0  0  0  0  0
  1  4  1  0
  2  5  1  0
  2  3  1  0
  3 47  1  0
  3  1  1  0
  4 46  1  0
  5 14  1  0
  5  4  1  0
  6 14  1  0
  7 12  1  0
  8  9  1  0
  8  7  1  0
 10  9  1  0
 10 19  1  0
 10 11  1  0
 12  6  1  0
 12 11  1  0
 13  6  2  0
 14 15  1  0
 16 17  2  0
 17 36  1  0
 18 17  1  0
 18 21  1  0
 19 20  1  0
 19 16  1  0
 20 18  2  0
 21 22  1  0
 22 23  2  0
 24 27  1  0
 24 23  1  0
 25 24  2  0
 26 25  1  0
 26 21  2  0
 27 28  1  0
 28 29  1  0
 29 30  2  0
 31 30  1  0
 31 35  1  0
 32 31  2  0
 33 28  2  0
 33 32  1  0
 34 33  1  0
 36 37  1  0
 37 40  1  0
 37 39  1  0
 38 36  2  0
 41 16  1  0
 41 42  1  0
 43 41  1  0
 46 45  1  0
 46 44  1  0
 47 49  1  0
 48 47  2  0
 50 49  1  0
 51 62  2  0
 52 50  1  0
 52 57  1  0
 53 61  1  0
 53 63  1  0
 54 60  1  0
 54 56  1  0
 55 61  1  0
 56 57  2  0
 56 55  1  0
 58 52  2  0
 59 58  1  0
 59 54  2  0
 60 53  1  0
 61 51  1  0
 63 65  2  0
 64 63  1  0
 66 64  1  0
 67 76  2  0
 67 72  1  0
 68 64  1  0
 68 72  1  0
 69 68  1  0
 70 71  1  0
 70 69  1  0
 71 67  1  0
 72 73  2  0
 73 74  1  0
 75 74  2  0
 76 75  1  0
 77 51  1  0
 77 82  1  0
 77 78  1  0
 78 81  1  1
 78 79  1  0
 80 78  1  0
 82 85  1  0
 83 87  1  0
 83 82  1  0
 84 83  2  0
 87 86  1  0
 89 87  1  0
 89 90  1  0
 89 88  1  0
M  ISO  4   6 100  14 100  49 101  50 101
M  END
>  <TORSDO>  (11) 
F 19

>  <SCORE>  (11) 
-14.684

>  <name>  (11) 
10

>  <ligand_id>  (11) 
10

>  <original_smiles>  (11) 
[H]c1c([H])c([H])c2c(c1[H])C([H])([H])C([H])([H])C([H])([H])C2([H])N([H])C(=O)C1([H])N(C(=O)C([H])(N([H])C(=O)C([H])(N([H])C([H])([H])[H])C([H])([H])[H])C(C([H])([H])[H])(C([H])([H])[H])C([H])([H])[H])C([H])([H])c2c([H])c(OC([H])([H])C(=O)C3([H])C([H])([H])C([H])(N([H])C(=O)N4C([H])([H])C([H])([H])C([H])([H])C([H])(n5nc(-c6c([H])c([H])c(Oc7c([H])c([H])c(F)c([H])c7F)c([H])c6[H])c(C(=O)N([H])[H])c5N([H])[H])C4([H])[H])C([H])(C([H])(C([H])([H])[H])C([H])([H])[H])C3([H])[H])c([H])c([H])c2C1([H])[H]

>  <smiles>  (11) 
[H]c1c([H])c([H])c2c(c1[H])C([H])([H])C([H])([H])C([H])([H])C2([H])N([H])C(=O)C1([H])N(C(=O)C([H])(N([H])C(=O)C([H])(N([H])C([H])([H])[H])C([H])([H])[H])C(C([H])([H])[H])(C([H])([H])[H])C([H])([H])[H])C([H])([H])c2c([H])c(OC([H])([H])C(=O)C3([H])C([H])([H])C([H])(N([H])C(=O)N4C([H])([H])C([H])([H])C([H])([H])C([H])(n5nc(-c6c([H])c([H])c(Oc7c([H])c([H])c(F)c([H])c7F)c([H])c6[H])c(C(=O)N([H])[H])c5N([H])[H])C4([H])[H])C([H])(C([H])(C([H])([H])[H])C([H])([H])[H])C3([H])[H])c([H])c([H])c2C1([H])[H]

$$$$
11:0:0
     RDKit          3D

 92100  0  0  1  0  0  0  0  0999 V2000
  -30.1010  -22.6660   20.4670 C   0  0  0  0  0  2  0  0  0  0  0  0
  -30.5620  -21.1040   20.2250 C   0  0  0  0  0  2  0  0  0  0  0  0
  -28.6540  -22.2200   18.5890 C   0  0  0  0  0  2  0  0  0  0  0  0
  -28.8410  -23.3280   19.7350 C   0  0  0  0  0  3  0  0  0  0  0  0
  -28.6570  -20.5860   18.8200 C   0  0  0  0  0  3  0  0  0  0  0  0
  -29.5650  -19.8650   19.9520 C   0  0  1  0  0  0  0  0  0  0  0  0
  -28.9220  -19.9390   17.4530 C   0  0  0  0  0  1  0  0  0  0  0  0
  -28.7800  -24.9820   19.2280 C   0  0  0  0  0  2  0  0  0  0  0  0
  -28.6050  -26.3900   19.9270 O   0  0  0  0  0  0  0  0  0  0  0  0
  -24.5470  -31.7540   23.0360 C   0  0  0  0  0  0  0  0  0  0  0  0
  -27.4770  -27.3100   19.8460 C   0  0  0  0  0  0  0  0  0  0  0  0
  -23.4620  -30.3490   21.3220 C   0  0  0  0  0  3  0  0  0  0  0  0
  -25.0340  -28.9270   19.8580 C   0  0  0  0  0  0  0  0  0  0  0  0
  -26.0010  -30.7710   21.2200 C   0  0  0  0  0  2  0  0  0  0  0  0
  -26.1740  -29.4130   20.5110 C   0  0  0  0  0  0  0  0  0  0  0  0
  -27.3850  -28.6170   20.4940 C   0  0  0  0  0  3  0  0  0  0  0  0
  -26.2980  -26.9400   19.1590 C   0  0  0  0  0  3  0  0  0  0  0  0
  -25.1110  -27.7070   19.1700 C   0  0  0  0  0  3  0  0  0  0  0  0
  -23.7500  -29.7400   19.9230 C   0  0  0  0  0  2  0  0  0  0  0  0
  -24.6870  -30.9810   21.9140 N   0  0  0  0  0  0  0  0  0  0  0  0
  -23.4370  -31.9510   23.5530 O   0  0  0  0  0  0  0  0  0  0  0  0
  -22.8320  -29.2670   22.2350 C   0  0  0  0  0  0  0  0  0  0  0  0
  -21.5180  -29.0240   22.0820 N   0  0  0  0  0  0  0  0  0  0  0  0
  -23.5300  -28.6490   23.0450 O   0  0  0  0  0  0  0  0  0  0  0  0
  -21.0080  -29.5710   21.4040 H   0  0  0  0  0  0  0  0  0  0  0  0
  -18.2100  -27.6220   22.5150 C   0  0  0  0  0  0  0  0  0  0  0  0
  -20.7500  -28.0090   22.8080 C   0  0  0  0  0  3  0  0  0  0  0  0
  -20.9280  -26.6140   22.1660 C   0  0  0  0  0  2  0  0  0  0  0  0
  -19.8500  -26.2870   21.1290 C   0  0  0  0  0  2  0  0  0  0  0  0
  -18.4610  -26.3240   21.7690 C   0  0  0  0  0  2  0  0  0  0  0  0
  -19.2840  -28.4220   22.9880 C   0  0  0  0  0  0  0  0  0  0  0  0
  -18.9940  -29.6360   23.6450 C   0  0  0  0  0  3  0  0  0  0  0  0
  -17.6630  -30.0550   23.8350 C   0  0  0  0  0  3  0  0  0  0  0  0
  -16.6030  -29.2540   23.3750 C   0  0  0  0  0  3  0  0  0  0  0  0
  -16.8780  -28.0380   22.7240 C   0  0  0  0  0  3  0  0  0  0  0  0
  -25.7710  -32.4460   23.7070 C   0  0  0  0  0  3  0  0  0  0  0  0
  -25.3730  -33.8160   24.0680 N   0  0  0  0  0  0  0  0  0  0  0  0
  -25.6580  -34.9110   23.3500 C   0  0  0  0  0  0  0  0  0  0  0  0
  -26.3510  -34.8770   22.3300 O   0  0  0  0  0  0  0  0  0  0  0  0
  -24.7590  -33.9130   24.8630 H   0  0  0  0  0  0  0  0  0  0  0  0
  -23.8340  -36.6140   23.0280 C   0  0  0  0  0  1  0  0  0  0  0  0
  -25.0880  -36.2570   23.8410 C   0  0  0  0  0  3  0  0  0  0  0  0
  -27.1550  -37.2420   24.7310 C   0  0  0  0  0  1  0  0  0  0  0  0
  -26.0620  -37.3690   23.7700 N   0  0  0  0  0  0  0  0  0  0  0  0
  -25.6010  -38.2610   23.9320 H   0  0  0  0  0  0  0  0  0  0  0  0
  -26.2970  -31.6720   24.9790 C   0  0  1  0  0  0  0  0  0  0  0  0
  -25.1890  -31.3480   26.0080 C   0  0  0  0  0  1  0  0  0  0  0  0
  -26.9670  -30.3370   24.5790 C   0  0  0  0  0  1  0  0  0  0  0  0
  -27.3840  -32.5130   25.6900 C   0  0  0  0  0  1  0  0  0  0  0  0
  -30.3380  -18.3320   19.6570 C   0  0  0  0  0  3  0  0  0  0  0  0
  -29.8540  -16.7220   20.0120 C   0  0  0  0  0  3  0  0  0  0  0  0
  -30.6950  -15.2830   19.7500 C   0  0  0  0  0  0  0  0  0  0  0  0
  -30.5960  -12.8690   18.9280 C   0  0  0  0  0  2  0  0  0  0  0  0
  -29.6020  -12.7570   17.7460 C   0  0  0  0  0  2  0  0  0  0  0  0
  -28.1670  -12.5320   18.2560 C   0  0  0  0  0  2  0  0  0  0  0  0
  -27.8010  -13.4930   19.4170 C   0  0  0  0  0  3  0  0  0  0  0  0
  -28.9140  -13.5800   20.4840 C   0  0  0  0  0  2  0  0  0  0  0  0
  -30.1490  -13.9920   19.8060 N   0  0  0  0  0  0  0  0  0  0  0  0
  -31.8700  -15.3420   19.3720 O   0  0  0  0  0  0  0  0  0  0  0  0
  -25.4840  -14.0660   20.3310 C   0  0  0  0  0  0  0  0  0  0  0  0
  -24.4400  -13.2900   20.7540 C   0  0  0  0  0  0  0  0  0  0  0  0
  -24.8890  -11.9370   20.6610 C   0  0  0  0  0  0  0  0  0  0  0  0
  -26.5000  -13.1870   19.9990 N   0  0  0  0  0  0  0  0  0  0  0  0
  -26.1580  -11.8980   20.2660 N   0  0  0  0  0  0  0  0  0  0  0  0
  -24.1640  -10.6770   20.8690 C   0  0  0  0  0  0  0  0  0  0  0  0
  -24.5830   -9.7300   21.8290 C   0  0  0  0  0  3  0  0  0  0  0  0
  -23.8540   -8.5370   22.0240 C   0  0  0  0  0  3  0  0  0  0  0  0
  -22.6930   -8.2810   21.2560 C   0  0  0  0  0  0  0  0  0  0  0  0
  -22.2920   -9.2170   20.2860 C   0  0  0  0  0  3  0  0  0  0  0  0
  -23.0210  -10.4000   20.0900 C   0  0  0  0  0  3  0  0  0  0  0  0
  -21.9400   -7.1360   21.3580 O   0  0  0  0  0  0  0  0  0  0  0  0
  -21.7920   -6.4750   22.5510 C   0  0  0  0  0  0  0  0  0  0  0  0
  -21.2400   -7.1030   23.6880 C   0  0  0  0  0  3  0  0  0  0  0  0
  -21.0400   -6.3670   24.8730 C   0  0  0  0  0  3  0  0  0  0  0  0
  -21.3840   -5.0040   24.9220 C   0  0  0  0  0  0  0  0  0  0  0  0
  -21.9280   -4.3730   23.7880 C   0  0  0  0  0  3  0  0  0  0  0  0
  -22.1280   -5.1070   22.6050 C   0  0  0  0  0  0  0  0  0  0  0  0
  -22.6330   -4.4890   21.5110 F   0  0  0  0  0  0  0  0  0  0  0  0
  -21.1860   -4.2940   26.0580 F   0  0  0  0  0  0  0  0  0  0  0  0
  -23.0690  -13.7740   21.1250 C   0  0  0  0  0  0  0  0  0  0  0  0
  -22.3950  -13.0680   22.0260 N   0  0  0  0  0  0  0  0  0  0  0  0
  -22.6060  -14.8130   20.6550 O   0  0  0  0  0  0  0  0  0  0  0  0
  -22.7850  -12.2300   22.4290 H   0  0  0  0  0  0  0  0  0  0  0  0
  -21.4790  -13.3730   22.3230 H   0  0  0  0  0  0  0  0  0  0  0  0
  -25.6480  -15.4400   20.1780 N   0  0  0  0  0  0  0  0  0  0  0  0
  -24.8950  -16.0960   20.3560 H   0  0  0  0  0  0  0  0  0  0  0  0
  -26.4800  -15.8820   19.8030 H   0  0  0  0  0  0  0  0  0  0  0  0
  -28.7230  -19.5760   21.2280 C   0  0  0  0  0  2  0  0  0  0  0  0
  -27.9460  -20.7210   21.7310 N   0  0  0  0  0  4  0  0  0  0  0  0
  -27.2780  -21.0110   21.0390 H   0  0  0  0  0  0  0  0  0  0  0  0
  -28.5630  -21.4820   21.9570 H   0  0  0  0  0  0  0  0  0  0  0  0
  -27.4420  -20.4490   22.5580 H   0  0  0  0  0  0  0  0  0  0  0  0
  2  1  1  0
  3  5  1  0
  3  4  1  0
  4  8  1  0
  4  1  1  0
  5  7  1  0
  5  6  1  0
  6 50  1  0
  6  2  1  0
  6 88  1  1
  8  9  1  0
 10 21  2  0
 11  9  1  0
 11 16  1  0
 12 20  1  0
 12 22  1  0
 13 19  1  0
 13 15  1  0
 14 20  1  0
 15 14  1  0
 16 15  2  0
 17 18  1  0
 17 11  2  0
 18 13  2  0
 19 12  1  0
 20 10  1  0
 22 24  2  0
 23 22  1  0
 25 23  1  0
 26 35  2  0
 26 31  1  0
 27 23  1  0
 27 31  1  0
 28 27  1  0
 29 30  1  0
 29 28  1  0
 30 26  1  0
 31 32  2  0
 32 33  1  0
 34 33  2  0
 35 34  1  0
 36 10  1  0
 36 37  1  0
 36 46  1  0
 37 40  1  0
 38 42  1  0
 38 37  1  0
 39 38  2  0
 42 41  1  0
 44 42  1  0
 44 45  1  0
 44 43  1  0
 46 49  1  1
 46 47  1  0
 48 46  1  0
 50 51  2  0
 52 58  1  0
 52 51  1  0
 53 58  1  0
 54 55  1  0
 54 53  1  0
 56 55  1  0
 56 63  1  0
 56 57  1  0
 58 57  1  0
 59 52  2  0
 60 61  2  0
 61 80  1  0
 62 61  1  0
 62 65  1  0
 63 64  1  0
 63 60  1  0
 64 62  2  0
 65 66  1  0
 66 67  2  0
 68 71  1  0
 68 67  1  0
 69 68  2  0
 70 69  1  0
 70 65  2  0
 71 72  1  0
 72 77  2  0
 72 73  1  0
 73 74  2  0
 74 75  1  0
 75 79  1  0
 76 75  2  0
 77 76  1  0
 78 77  1  0
 80 81  1  0
 81 84  1  0
 81 83  1  0
 82 80  2  0
 85 60  1  0
 85 86  1  0
 87 85  1  0
 88 89  1  0
 89 91  1  0
 89 92  1  0
 90 89  1  0
M  ISO  4   8 101   9 101  51 100  52 100
M  END
>  <TORSDO>  (12) 
F 21

>  <SCORE>  (12) 
-13.592

>  <name>  (12) 
11

>  <ligand_id>  (12) 
11

>  <original_smiles>  (12) 
[H]c1c([H])c([H])c2c(c1[H])C([H])([H])C([H])([H])C([H])([H])C2([H])N([H])C(=O)C1([H])N(C(=O)C([H])(N([H])C(=O)C([H])(N([H])C([H])([H])[H])C([H])([H])[H])C(C([H])([H])[H])(C([H])([H])[H])C([H])([H])[H])C([H])([H])c2c([H])c(OC([H])([H])C3([H])C([H])([H])C([H])([H])C(C([H])([H])C([H])([H])C(=O)N4C([H])([H])C([H])([H])C([H])([H])C([H])(n5nc(-c6c([H])c([H])c(Oc7c([H])c([H])c(F)c([H])c7F)c([H])c6[H])c(C(=O)N([H])[H])c5N([H])[H])C4([H])[H])(C([H])([H])[N+]([H])([H])[H])C([H])(C([H])([H])[H])C3([H])[H])c([H])c([H])c2C1([H])[H]

>  <smiles>  (12) 
[H]c1c([H])c([H])c2c(c1[H])C([H])([H])C([H])([H])C([H])([H])C2([H])N([H])C(=O)C1([H])N(C(=O)C([H])(N([H])C(=O)C([H])(N([H])C([H])([H])[H])C([H])([H])[H])C(C([H])([H])[H])(C([H])([H])[H])C([H])([H])[H])C([H])([H])c2c([H])c(OC([H])([H])C3([H])C([H])([H])C([H])([H])C(C([H])([H])C([H])([H])C(=O)N4C([H])([H])C([H])([H])C([H])([H])C([H])(n5nc(-c6c([H])c([H])c(Oc7c([H])c([H])c(F)c([H])c7F)c([H])c6[H])c(C(=O)N([H])[H])c5N([H])[H])C4([H])[H])(C([H])([H])[N+]([H])([H])[H])C([H])(C([H])([H])[H])C3([H])[H])c([H])c([H])c2C1([H])[H]

$$$$
12:0:0
     RDKit          3D

 88 96  0  0  1  0  0  0  0  0999 V2000
  -27.3650  -20.8260   20.0560 C   0  0  0  0  0  2  0  0  0  0  0  0
  -27.6900  -19.3260   19.9920 C   0  0  0  0  0  3  0  0  0  0  0  0
  -28.7590  -21.2230   20.5480 C   0  0  0  0  0  3  0  0  0  0  0  0
  -29.2050  -19.5830   19.9820 C   0  0  0  0  0  3  0  0  0  0  0  0
  -27.0740  -18.4980   18.8710 C   0  0  0  0  0  1  0  0  0  0  0  0
  -30.4550  -23.2580   20.8130 C   0  0  0  0  0  1  0  0  0  0  0  0
  -29.0920  -22.9330   20.1910 C   0  0  0  0  0  3  0  0  0  0  0  0
  -28.0690  -24.3700   20.4580 C   0  0  0  0  0  2  0  0  0  0  0  0
  -28.3000  -25.9830   20.3370 O   0  0  0  0  0  0  0  0  0  0  0  0
  -24.6190  -31.8830   23.2250 C   0  0  0  0  0  0  0  0  0  0  0  0
  -27.2560  -27.0340   20.2900 C   0  0  0  0  0  0  0  0  0  0  0  0
  -23.4530  -30.4580   21.5920 C   0  0  0  0  0  3  0  0  0  0  0  0
  -24.9310  -28.8580   20.2040 C   0  0  0  0  0  0  0  0  0  0  0  0
  -26.0160  -30.7070   21.4620 C   0  0  0  0  0  2  0  0  0  0  0  0
  -26.1080  -29.2930   20.8250 C   0  0  0  0  0  0  0  0  0  0  0  0
  -27.2680  -28.4030   20.8410 C   0  0  0  0  0  3  0  0  0  0  0  0
  -26.0470  -26.7380   19.6240 C   0  0  0  0  0  3  0  0  0  0  0  0
  -24.9220  -27.5990   19.5840 C   0  0  0  0  0  3  0  0  0  0  0  0
  -23.7010  -29.7620   20.2260 C   0  0  0  0  0  2  0  0  0  0  0  0
  -24.7160  -31.0430   22.1460 N   0  0  0  0  0  0  0  0  0  0  0  0
  -23.5220  -32.1660   23.7340 O   0  0  0  0  0  0  0  0  0  0  0  0
  -22.7640  -29.4630   22.5620 C   0  0  0  0  0  0  0  0  0  0  0  0
  -21.4350  -29.2930   22.4360 N   0  0  0  0  0  0  0  0  0  0  0  0
  -23.4310  -28.8430   23.3940 O   0  0  0  0  0  0  0  0  0  0  0  0
  -20.9490  -29.8430   21.7410 H   0  0  0  0  0  0  0  0  0  0  0  0
  -18.0500  -28.1060   22.9720 C   0  0  0  0  0  0  0  0  0  0  0  0
  -20.6130  -28.3580   23.2130 C   0  0  0  0  0  3  0  0  0  0  0  0
  -20.7020  -26.9270   22.6330 C   0  0  0  0  0  2  0  0  0  0  0  0
  -19.5880  -26.6120   21.6280 C   0  0  0  0  0  2  0  0  0  0  0  0
  -18.2140  -26.7590   22.2870 C   0  0  0  0  0  2  0  0  0  0  0  0
  -19.1760  -28.8630   23.3920 C   0  0  0  0  0  0  0  0  0  0  0  0
  -18.9650  -30.1210   23.9970 C   0  0  0  0  0  3  0  0  0  0  0  0
  -17.6640  -30.6230   24.1840 C   0  0  0  0  0  3  0  0  0  0  0  0
  -16.5530  -29.8640   23.7760 C   0  0  0  0  0  3  0  0  0  0  0  0
  -16.7460  -28.6060   23.1770 C   0  0  0  0  0  3  0  0  0  0  0  0
  -25.8790  -32.5450   23.8610 C   0  0  0  0  0  3  0  0  0  0  0  0
  -26.3690  -31.8100   25.1700 C   0  0  1  0  0  0  0  0  0  0  0  0
  -25.2530  -31.5900   26.2180 C   0  0  0  0  0  1  0  0  0  0  0  0
  -26.9740  -30.4280   24.8340 C   0  0  0  0  0  1  0  0  0  0  0  0
  -27.4980  -32.6300   25.8390 C   0  0  0  0  0  1  0  0  0  0  0  0
  -25.5490  -33.9500   24.1620 N   0  0  0  0  0  0  0  0  0  0  0  0
  -25.8890  -34.9970   23.4000 C   0  0  0  0  0  0  0  0  0  0  0  0
  -26.5760  -34.8850   22.3820 O   0  0  0  0  0  0  0  0  0  0  0  0
  -24.9400  -34.1110   24.9500 H   0  0  0  0  0  0  0  0  0  0  0  0
  -24.1700  -36.7920   22.9910 C   0  0  0  0  0  1  0  0  0  0  0  0
  -25.3910  -36.3910   23.8340 C   0  0  0  0  0  3  0  0  0  0  0  0
  -27.5000  -37.2920   24.7150 C   0  0  0  0  0  1  0  0  0  0  0  0
  -26.4260  -37.4440   23.7380 N   0  0  0  0  0  0  0  0  0  0  0  0
  -26.0150  -38.3660   23.8600 H   0  0  0  0  0  0  0  0  0  0  0  0
  -30.0970  -18.1510   20.5400 C   0  0  0  0  0  2  0  0  0  0  0  0
  -30.5790  -15.2820   20.2520 C   0  0  0  0  0  0  0  0  0  0  0  0
  -30.5260  -12.8620   19.3450 C   0  0  0  0  0  2  0  0  0  0  0  0
  -29.5910  -12.6870   18.1240 C   0  0  0  0  0  2  0  0  0  0  0  0
  -28.1430  -12.4280   18.5760 C   0  0  0  0  0  2  0  0  0  0  0  0
  -27.7090  -13.3820   19.7180 C   0  0  0  0  0  3  0  0  0  0  0  0
  -28.7700  -13.5030   20.8310 C   0  0  0  0  0  2  0  0  0  0  0  0
  -29.9990  -13.9910   20.1860 N   0  0  0  0  0  0  0  0  0  0  0  0
  -31.8020  -15.2900   20.0520 O   0  0  0  0  0  0  0  0  0  0  0  0
  -29.8130  -16.5330   20.3440 N   0  0  0  0  0  0  0  0  0  0  0  0
  -28.8250  -16.3310   20.3920 H   0  0  0  0  0  0  0  0  0  0  0  0
  -25.3410  -13.9350   20.4930 C   0  0  0  0  0  0  0  0  0  0  0  0
  -24.2840  -13.1540   20.8660 C   0  0  0  0  0  0  0  0  0  0  0  0
  -24.7550  -11.8060   20.8280 C   0  0  0  0  0  0  0  0  0  0  0  0
  -26.3850  -13.0630   20.2380 N   0  0  0  0  0  0  0  0  0  0  0  0
  -26.0440  -11.7760   20.5090 N   0  0  0  0  0  0  0  0  0  0  0  0
  -24.0320  -10.5410   21.0180 C   0  0  0  0  0  0  0  0  0  0  0  0
  -24.4630   -9.5750   21.9550 C   0  0  0  0  0  3  0  0  0  0  0  0
  -23.7370   -8.3780   22.1330 C   0  0  0  0  0  3  0  0  0  0  0  0
  -22.5660   -8.1360   21.3760 C   0  0  0  0  0  0  0  0  0  0  0  0
  -22.1560   -9.0910   20.4290 C   0  0  0  0  0  3  0  0  0  0  0  0
  -22.8810  -10.2790   20.2470 C   0  0  0  0  0  3  0  0  0  0  0  0
  -21.8140   -6.9910   21.4640 O   0  0  0  0  0  0  0  0  0  0  0  0
  -21.7500   -6.2590   22.6220 C   0  0  0  0  0  0  0  0  0  0  0  0
  -21.2700   -6.8140   23.8290 C   0  0  0  0  0  3  0  0  0  0  0  0
  -21.1570   -6.0060   24.9790 C   0  0  0  0  0  3  0  0  0  0  0  0
  -21.5100   -4.6460   24.9230 C   0  0  0  0  0  0  0  0  0  0  0  0
  -21.9820   -4.0900   23.7190 C   0  0  0  0  0  3  0  0  0  0  0  0
  -22.0980   -4.8940   22.5720 C   0  0  0  0  0  0  0  0  0  0  0  0
  -22.5330   -4.3480   21.4110 F   0  0  0  0  0  0  0  0  0  0  0  0
  -21.3940   -3.8680   26.0240 F   0  0  0  0  0  0  0  0  0  0  0  0
  -22.8870  -13.6270   21.1410 C   0  0  0  0  0  0  0  0  0  0  0  0
  -22.1650  -12.9300   22.0120 N   0  0  0  0  0  0  0  0  0  0  0  0
  -22.4450  -14.6510   20.6210 O   0  0  0  0  0  0  0  0  0  0  0  0
  -22.5360  -12.1030   22.4530 H   0  0  0  0  0  0  0  0  0  0  0  0
  -21.2280  -13.2300   22.2390 H   0  0  0  0  0  0  0  0  0  0  0  0
  -25.4960  -15.3070   20.3170 N   0  0  0  0  0  0  0  0  0  0  0  0
  -24.7220  -15.9510   20.4360 H   0  0  0  0  0  0  0  0  0  0  0  0
  -26.3280  -15.7510   19.9580 H   0  0  0  0  0  0  0  0  0  0  0  0
  1  3  1  0
  2  5  1  0
  2  1  1  0
  3  7  1  0
  4  2  1  0
  4 50  1  0
  4  3  1  0
  7  8  1  0
  7  6  1  0
  9  8  1  0
 10 21  2  0
 11  9  1  0
 11 16  1  0
 12 20  1  0
 12 22  1  0
 13 19  1  0
 13 15  1  0
 14 20  1  0
 15 16  2  0
 15 14  1  0
 17 11  2  0
 18 17  1  0
 18 13  2  0
 19 12  1  0
 20 10  1  0
 22 24  2  0
 23 22  1  0
 25 23  1  0
 26 35  2  0
 26 31  1  0
 27 23  1  0
 27 31  1  0
 28 27  1  0
 29 30  1  0
 29 28  1  0
 30 26  1  0
 31 32  2  0
 32 33  1  0
 34 33  2  0
 35 34  1  0
 36 10  1  0
 36 41  1  0
 36 37  1  0
 37 40  1  1
 37 38  1  0
 39 37  1  0
 41 44  1  0
 42 46  1  0
 42 41  1  0
 43 42  2  0
 46 45  1  0
 48 46  1  0
 48 49  1  0
 48 47  1  0
 51 59  1  0
 52 57  1  0
 53 54  1  0
 53 52  1  0
 55 54  1  0
 55 64  1  0
 55 56  1  0
 57 51  1  0
 57 56  1  0
 58 51  2  0
 59 60  1  0
 59 50  1  0
 61 62  2  0
 62 81  1  0
 63 62  1  0
 63 66  1  0
 64 61  1  0
 64 65  1  0
 65 63  2  0
 66 67  1  0
 67 68  2  0
 69 72  1  0
 69 68  1  0
 70 69  2  0
 71 70  1  0
 71 66  2  0
 72 73  1  0
 73 74  1  0
 74 75  2  0
 76 75  1  0
 76 80  1  0
 77 76  2  0
 78 73  2  0
 78 77  1  0
 79 78  1  0
 81 82  1  0
 82 85  1  0
 82 84  1  0
 83 81  2  0
 86 87  1  0
 86 61  1  0
 88 86  1  0
M  ISO  4   8 101   9 101  51 100  59 100
M  END
>  <TORSDO>  (13) 
F 19

>  <SCORE>  (13) 
-15.450

>  <name>  (13) 
12

>  <ligand_id>  (13) 
12

>  <original_smiles>  (13) 
[H]c1c([H])c([H])c2c(c1[H])C([H])([H])C([H])([H])C([H])([H])C2([H])N([H])C(=O)C1([H])N(C(=O)C([H])(N([H])C(=O)C([H])(N([H])C([H])([H])[H])C([H])([H])[H])C(C([H])([H])[H])(C([H])([H])[H])C([H])([H])[H])C([H])([H])c2c([H])c(OC([H])([H])C([H])(C([H])([H])[H])C3([H])C([H])([H])C([H])(C([H])([H])[H])C3([H])C([H])([H])N([H])C(=O)N3C([H])([H])C([H])([H])C([H])([H])C([H])(n4nc(-c5c([H])c([H])c(Oc6c([H])c([H])c(F)c([H])c6F)c([H])c5[H])c(C(=O)N([H])[H])c4N([H])[H])C3([H])[H])c([H])c([H])c2C1([H])[H]

>  <smiles>  (13) 
[H]c1c([H])c([H])c2c(c1[H])C([H])([H])C([H])([H])C([H])([H])C2([H])N([H])C(=O)C1([H])N(C(=O)C([H])(N([H])C(=O)C([H])(N([H])C([H])([H])[H])C([H])([H])[H])C(C([H])([H])[H])(C([H])([H])[H])C([H])([H])[H])C([H])([H])c2c([H])c(OC([H])([H])C([H])(C([H])([H])[H])C3([H])C([H])([H])C([H])(C([H])([H])[H])C3([H])C([H])([H])N([H])C(=O)N3C([H])([H])C([H])([H])C([H])([H])C([H])(n4nc(-c5c([H])c([H])c(Oc6c([H])c([H])c(F)c([H])c6F)c([H])c5[H])c(C(=O)N([H])[H])c4N([H])[H])C3([H])[H])c([H])c([H])c2C1([H])[H]

$$$$
13:0:0
     RDKit          3D

 88 96  0  0  1  0  0  0  0  0999 V2000
  -30.5040  -20.6120   19.6040 C   0  0  0  0  0  3  0  0  0  0  0  0
  -30.6780  -19.1390   19.6850 C   0  0  0  0  0  3  0  0  0  0  0  0
  -28.4210  -18.9510   20.1040 C   0  0  0  0  0  3  0  0  0  0  0  0
  -29.2860  -21.4050   19.7730 C   0  0  0  0  0  0  0  0  0  0  0  0
  -28.2410  -20.4280   20.0370 C   0  0  0  0  0  0  0  0  0  0  0  0
  -29.6430  -18.1600   19.9570 C   0  0  0  0  0  0  0  0  0  0  0  0
  -26.8520  -20.9800   20.2960 C   0  0  0  0  0  1  0  0  0  0  0  0
  -30.5080  -15.3650   19.8860 C   0  0  0  0  0  0  0  0  0  0  0  0
  -30.4460  -12.9200   19.0550 C   0  0  0  0  0  2  0  0  0  0  0  0
  -29.4700  -12.7440   17.8630 C   0  0  0  0  0  2  0  0  0  0  0  0
  -28.0340  -12.5030   18.3650 C   0  0  0  0  0  2  0  0  0  0  0  0
  -27.6450  -13.4950   19.4910 C   0  0  0  0  0  3  0  0  0  0  0  0
  -28.7340  -13.6050   20.5780 C   0  0  0  0  0  2  0  0  0  0  0  0
  -29.9600  -14.0610   19.9040 N   0  0  0  0  0  0  0  0  0  0  0  0
  -31.7060  -15.4080   19.5720 O   0  0  0  0  0  0  0  0  0  0  0  0
  -29.6740  -16.5580   20.0580 N   0  0  0  0  0  0  0  0  0  0  0  0
  -28.7660  -16.2180   20.3360 H   0  0  0  0  0  0  0  0  0  0  0  0
  -25.3240  -14.1180   20.3520 C   0  0  0  0  0  0  0  0  0  0  0  0
  -24.2570  -13.3670   20.7580 C   0  0  0  0  0  0  0  0  0  0  0  0
  -24.6820  -12.0040   20.6850 C   0  0  0  0  0  0  0  0  0  0  0  0
  -26.3280  -13.2160   20.0490 N   0  0  0  0  0  0  0  0  0  0  0  0
  -25.9560  -11.9380   20.3180 N   0  0  0  0  0  0  0  0  0  0  0  0
  -23.9280  -10.7600   20.8870 C   0  0  0  0  0  0  0  0  0  0  0  0
  -24.3580   -9.7730   21.8000 C   0  0  0  0  0  3  0  0  0  0  0  0
  -23.6040   -8.5950   21.9920 C   0  0  0  0  0  3  0  0  0  0  0  0
  -22.4050   -8.3940   21.2670 C   0  0  0  0  0  0  0  0  0  0  0  0
  -21.9910   -9.3700   20.3420 C   0  0  0  0  0  3  0  0  0  0  0  0
  -22.7470  -10.5390   20.1500 C   0  0  0  0  0  3  0  0  0  0  0  0
  -21.6220   -7.2700   21.3670 O   0  0  0  0  0  0  0  0  0  0  0  0
  -21.5800   -6.5210   22.5170 C   0  0  0  0  0  0  0  0  0  0  0  0
  -21.1840   -7.0750   23.7530 C   0  0  0  0  0  3  0  0  0  0  0  0
  -21.0890   -6.2550   24.8950 C   0  0  0  0  0  3  0  0  0  0  0  0
  -21.3820   -4.8810   24.8010 C   0  0  0  0  0  0  0  0  0  0  0  0
  -21.7740   -4.3270   23.5700 C   0  0  0  0  0  3  0  0  0  0  0  0
  -21.8700   -5.1440   22.4300 C   0  0  0  0  0  0  0  0  0  0  0  0
  -22.2280   -4.6010   21.2420 F   0  0  0  0  0  0  0  0  0  0  0  0
  -21.2850   -4.0910   25.8950 F   0  0  0  0  0  0  0  0  0  0  0  0
  -22.8860  -13.8790   21.0920 C   0  0  0  0  0  0  0  0  0  0  0  0
  -22.1750  -13.1930   21.9800 N   0  0  0  0  0  0  0  0  0  0  0  0
  -22.4580  -14.9230   20.6020 O   0  0  0  0  0  0  0  0  0  0  0  0
  -22.5330  -12.3470   22.3980 H   0  0  0  0  0  0  0  0  0  0  0  0
  -21.2580  -13.5210   22.2460 H   0  0  0  0  0  0  0  0  0  0  0  0
  -25.5160  -15.4860   20.1850 N   0  0  0  0  0  0  0  0  0  0  0  0
  -24.7620  -16.1510   20.3200 H   0  0  0  0  0  0  0  0  0  0  0  0
  -26.3370  -15.9010   19.7650 H   0  0  0  0  0  0  0  0  0  0  0  0
  -29.2620  -23.1400   19.9010 C   0  0  0  0  0  3  0  0  0  0  0  0
  -28.2280  -24.5020   19.4350 C   0  0  0  0  0  3  0  0  0  0  0  0
  -28.3690  -26.1040   19.7160 O   0  0  0  0  0  0  0  0  0  0  0  0
  -24.5580  -31.6770   22.9960 C   0  0  0  0  0  0  0  0  0  0  0  0
  -27.2980  -27.1250   19.7040 C   0  0  0  0  0  0  0  0  0  0  0  0
  -23.4120  -30.3280   21.2840 C   0  0  0  0  0  3  0  0  0  0  0  0
  -24.9160  -28.8700   19.7690 C   0  0  0  0  0  0  0  0  0  0  0  0
  -25.9620  -30.6640   21.1390 C   0  0  0  0  0  2  0  0  0  0  0  0
  -26.0870  -29.3020   20.4040 C   0  0  0  0  0  0  0  0  0  0  0  0
  -27.2730  -28.4500   20.3480 C   0  0  0  0  0  3  0  0  0  0  0  0
  -26.0920  -26.8310   19.0300 C   0  0  0  0  0  3  0  0  0  0  0  0
  -24.9380  -27.6560   19.0640 C   0  0  0  0  0  3  0  0  0  0  0  0
  -23.6610  -29.7340   19.8700 C   0  0  0  0  0  2  0  0  0  0  0  0
  -24.6640  -30.9150   21.8600 N   0  0  0  0  0  0  0  0  0  0  0  0
  -23.4620  -31.8940   23.5360 O   0  0  0  0  0  0  0  0  0  0  0  0
  -22.7640  -29.2510   22.1930 C   0  0  0  0  0  0  0  0  0  0  0  0
  -21.4360  -29.0630   22.0860 N   0  0  0  0  0  0  0  0  0  0  0  0
  -23.4630  -28.5890   22.9650 O   0  0  0  0  0  0  0  0  0  0  0  0
  -20.9250  -29.6550   21.4460 H   0  0  0  0  0  0  0  0  0  0  0  0
  -18.0860  -27.7790   22.6180 C   0  0  0  0  0  0  0  0  0  0  0  0
  -20.6510  -28.0560   22.8070 C   0  0  0  0  0  3  0  0  0  0  0  0
  -20.7450  -26.6760   22.1150 C   0  0  0  0  0  2  0  0  0  0  0  0
  -19.6090  -26.4220   21.1190 C   0  0  0  0  0  2  0  0  0  0  0  0
  -18.2520  -26.4920   21.8250 C   0  0  0  0  0  2  0  0  0  0  0  0
  -19.2130  -28.5200   23.0650 C   0  0  0  0  0  0  0  0  0  0  0  0
  -19.0020  -29.7220   23.7740 C   0  0  0  0  0  3  0  0  0  0  0  0
  -17.7000  -30.1860   24.0350 C   0  0  0  0  0  3  0  0  0  0  0  0
  -16.5880  -29.4430   23.6010 C   0  0  0  0  0  3  0  0  0  0  0  0
  -16.7830  -28.2400   22.8990 C   0  0  0  0  0  3  0  0  0  0  0  0
  -25.8080  -32.3320   23.6600 C   0  0  0  0  0  3  0  0  0  0  0  0
  -25.4450  -33.7060   24.0500 N   0  0  0  0  0  0  0  0  0  0  0  0
  -25.7320  -34.8060   23.3410 C   0  0  0  0  0  0  0  0  0  0  0  0
  -26.3930  -34.7730   22.3000 O   0  0  0  0  0  0  0  0  0  0  0  0
  -24.8550  -33.8010   24.8620 H   0  0  0  0  0  0  0  0  0  0  0  0
  -23.9290  -36.5480   23.1060 C   0  0  0  0  0  1  0  0  0  0  0  0
  -25.2040  -36.1560   23.8680 C   0  0  0  0  0  3  0  0  0  0  0  0
  -27.3200  -37.1020   24.6850 C   0  0  0  0  0  1  0  0  0  0  0  0
  -26.1920  -37.2540   23.7710 N   0  0  0  0  0  0  0  0  0  0  0  0
  -25.7530  -38.1520   23.9550 H   0  0  0  0  0  0  0  0  0  0  0  0
  -26.3320  -31.5310   24.9170 C   0  0  1  0  0  0  0  0  0  0  0  0
  -25.2350  -31.2260   25.9650 C   0  0  0  0  0  1  0  0  0  0  0  0
  -26.9570  -30.1830   24.4910 C   0  0  0  0  0  1  0  0  0  0  0  0
  -27.4530  -32.3330   25.6190 C   0  0  0  0  0  1  0  0  0  0  0  0
  1  2  2  0
  1  4  1  0
  2  6  1  0
  4 46  1  0
  4  5  2  0
  5  3  1  0
  5  7  1  0
  6 16  1  0
  6  3  2  0
  8 14  1  0
  8 16  1  0
  9 14  1  0
 10 11  1  0
 10  9  1  0
 12 11  1  0
 12 21  1  0
 12 13  1  0
 14 13  1  0
 15  8  2  0
 16 17  1  0
 18 19  2  0
 19 38  1  0
 20 19  1  0
 20 23  1  0
 21 22  1  0
 21 18  1  0
 22 20  2  0
 23 24  1  0
 24 25  2  0
 26 29  1  0
 26 25  1  0
 27 26  2  0
 28 27  1  0
 28 23  2  0
 29 30  1  0
 30 31  1  0
 31 32  2  0
 33 32  1  0
 33 37  1  0
 34 33  2  0
 35 30  2  0
 35 34  1  0
 36 35  1  0
 38 39  1  0
 39 42  1  0
 39 41  1  0
 40 38  2  0
 43 44  1  0
 43 18  1  0
 45 43  1  0
 47 48  1  0
 47 46  2  0
 49 60  2  0
 50 48  1  0
 50 55  1  0
 51 59  1  0
 51 61  1  0
 52 58  1  0
 52 54  1  0
 53 59  1  0
 54 53  1  0
 55 54  2  0
 56 57  1  0
 56 50  2  0
 57 52  2  0
 58 51  1  0
 59 49  1  0
 61 63  2  0
 62 61  1  0
 64 62  1  0
 65 74  2  0
 65 70  1  0
 66 62  1  0
 66 70  1  0
 67 66  1  0
 68 69  1  0
 68 67  1  0
 69 65  1  0
 70 71  2  0
 71 72  1  0
 73 72  2  0
 74 73  1  0
 75 49  1  0
 75 76  1  0
 75 85  1  0
 76 79  1  0
 77 81  1  0
 77 76  1  0
 78 77  2  0
 81 80  1  0
 83 81  1  0
 83 84  1  0
 83 82  1  0
 85 88  1  1
 85 86  1  0
 87 85  1  0
M  ISO  4   8 100  16 100  47 101  48 101
M  END
>  <TORSDO>  (14) 
F 18

>  <SCORE>  (14) 
-14.192

>  <name>  (14) 
13

>  <ligand_id>  (14) 
13

>  <original_smiles>  (14) 
[H]c1c([H])c([H])c2c(c1[H])C([H])([H])C([H])([H])C([H])([H])C2([H])N([H])C(=O)C1([H])N(C(=O)C([H])(N([H])C(=O)C([H])(N([H])C([H])([H])[H])C([H])([H])[H])C(C([H])([H])[H])(C([H])([H])[H])C([H])([H])[H])C([H])([H])c2c([H])c(OC([H])([H])C([H])([H])c3c([H])c([H])c(N([H])C(=O)N4C([H])([H])C([H])([H])C([H])([H])C([H])(n5nc(-c6c([H])c([H])c(Oc7c([H])c([H])c(F)c([H])c7F)c([H])c6[H])c(C(=O)N([H])[H])c5N([H])[H])C4([H])[H])c([H])c3C([H])([H])[H])c([H])c([H])c2C1([H])[H]

>  <smiles>  (14) 
[H]c1c([H])c([H])c2c(c1[H])C([H])([H])C([H])([H])C([H])([H])C2([H])N([H])C(=O)C1([H])N(C(=O)C([H])(N([H])C(=O)C([H])(N([H])C([H])([H])[H])C([H])([H])[H])C(C([H])([H])[H])(C([H])([H])[H])C([H])([H])[H])C([H])([H])c2c([H])c(OC([H])([H])C([H])([H])c3c([H])c([H])c(N([H])C(=O)N4C([H])([H])C([H])([H])C([H])([H])C([H])(n5nc(-c6c([H])c([H])c(Oc7c([H])c([H])c(F)c([H])c7F)c([H])c6[H])c(C(=O)N([H])[H])c5N([H])[H])C4([H])[H])c([H])c3C([H])([H])[H])c([H])c([H])c2C1([H])[H]

$$$$
14:0:0
     RDKit          3D

 86 93  0  0  1  0  0  0  0  0999 V2000
  -28.7430  -22.7780   19.9400 C   0  0  0  0  0  2  0  0  0  0  0  0
  -30.2460  -21.3380   21.6100 C   0  0  0  0  0  1  0  0  0  0  0  0
  -29.0370  -21.1670   20.6780 C   0  0  0  0  0  3  0  0  0  0  0  0
  -29.1070  -19.5460   20.0200 C   0  0  0  0  0  0  0  0  0  0  0  0
  -28.4590  -19.3830   18.9840 O   0  0  0  0  0  0  0  0  0  0  0  0
  -29.9230  -18.1160   20.5880 C   0  0  0  0  0  2  0  0  0  0  0  0
  -30.4000  -15.2450   20.2540 C   0  0  0  0  0  0  0  0  0  0  0  0
  -30.3680  -12.8190   19.3500 C   0  0  0  0  0  2  0  0  0  0  0  0
  -29.4340  -12.6160   18.1320 C   0  0  0  0  0  2  0  0  0  0  0  0
  -27.9890  -12.3490   18.5880 C   0  0  0  0  0  2  0  0  0  0  0  0
  -27.5460  -13.3100   19.7190 C   0  0  0  0  0  3  0  0  0  0  0  0
  -28.6050  -13.4490   20.8320 C   0  0  0  0  0  2  0  0  0  0  0  0
  -29.8270  -13.9500   20.1810 N   0  0  0  0  0  0  0  0  0  0  0  0
  -31.6260  -15.2510   20.0750 O   0  0  0  0  0  0  0  0  0  0  0  0
  -29.6330  -16.5020   20.3280 N   0  0  0  0  0  0  0  0  0  0  0  0
  -28.6410  -16.3140   20.3160 H   0  0  0  0  0  0  0  0  0  0  0  0
  -25.1800  -13.8620   20.4940 C   0  0  0  0  0  0  0  0  0  0  0  0
  -24.1240  -13.0810   20.8710 C   0  0  0  0  0  0  0  0  0  0  0  0
  -24.5960  -11.7330   20.8360 C   0  0  0  0  0  0  0  0  0  0  0  0
  -26.2240  -12.9910   20.2420 N   0  0  0  0  0  0  0  0  0  0  0  0
  -25.8860  -11.7040   20.5170 N   0  0  0  0  0  0  0  0  0  0  0  0
  -23.8750  -10.4670   21.0280 C   0  0  0  0  0  0  0  0  0  0  0  0
  -24.3230   -9.4940   21.9480 C   0  0  0  0  0  3  0  0  0  0  0  0
  -23.6000   -8.2960   22.1310 C   0  0  0  0  0  3  0  0  0  0  0  0
  -22.4150   -8.0620   21.3930 C   0  0  0  0  0  0  0  0  0  0  0  0
  -21.9860   -9.0230   20.4630 C   0  0  0  0  0  3  0  0  0  0  0  0
  -22.7090  -10.2140   20.2780 C   0  0  0  0  0  3  0  0  0  0  0  0
  -21.6630   -6.9160   21.4870 O   0  0  0  0  0  0  0  0  0  0  0  0
  -21.6430   -6.1570   22.6290 C   0  0  0  0  0  0  0  0  0  0  0  0
  -21.2560   -6.6980   23.8750 C   0  0  0  0  0  3  0  0  0  0  0  0
  -21.1830   -5.8670   25.0110 C   0  0  0  0  0  3  0  0  0  0  0  0
  -21.4870   -4.4960   24.9020 C   0  0  0  0  0  0  0  0  0  0  0  0
  -21.8670   -3.9550   23.6610 C   0  0  0  0  0  3  0  0  0  0  0  0
  -21.9420   -4.7840   22.5280 C   0  0  0  0  0  0  0  0  0  0  0  0
  -22.2870   -4.2540   21.3300 F   0  0  0  0  0  0  0  0  0  0  0  0
  -21.4100   -3.6950   25.9910 F   0  0  0  0  0  0  0  0  0  0  0  0
  -22.7250  -13.5520   21.1450 C   0  0  0  0  0  0  0  0  0  0  0  0
  -22.0030  -12.8560   22.0150 N   0  0  0  0  0  0  0  0  0  0  0  0
  -22.2820  -14.5740   20.6210 O   0  0  0  0  0  0  0  0  0  0  0  0
  -22.3760  -12.0310   22.4610 H   0  0  0  0  0  0  0  0  0  0  0  0
  -21.0650  -13.1540   22.2390 H   0  0  0  0  0  0  0  0  0  0  0  0
  -25.3320  -15.2350   20.3140 N   0  0  0  0  0  0  0  0  0  0  0  0
  -24.5550  -15.8780   20.4260 H   0  0  0  0  0  0  0  0  0  0  0  0
  -26.1580  -15.6760   19.9320 H   0  0  0  0  0  0  0  0  0  0  0  0
  -28.0720  -24.3240   20.5550 C   0  0  0  0  0  2  0  0  0  0  0  0
  -28.2390  -25.9220   20.2210 O   0  0  0  0  0  0  0  0  0  0  0  0
  -24.6320  -31.8530   23.2020 C   0  0  0  0  0  0  0  0  0  0  0  0
  -27.1970  -26.9790   20.2280 C   0  0  0  0  0  0  0  0  0  0  0  0
  -23.4380  -30.4420   21.5760 C   0  0  0  0  0  3  0  0  0  0  0  0
  -24.8870  -28.8290   20.1710 C   0  0  0  0  0  0  0  0  0  0  0  0
  -26.0020  -30.6680   21.4190 C   0  0  0  0  0  2  0  0  0  0  0  0
  -26.0760  -29.2530   20.7790 C   0  0  0  0  0  0  0  0  0  0  0  0
  -27.2290  -28.3500   20.7760 C   0  0  0  0  0  3  0  0  0  0  0  0
  -25.9760  -26.6940   19.5810 C   0  0  0  0  0  3  0  0  0  0  0  0
  -24.8590  -27.5690   19.5520 C   0  0  0  0  0  3  0  0  0  0  0  0
  -23.6670  -29.7470   20.2060 C   0  0  0  0  0  2  0  0  0  0  0  0
  -24.7130  -31.0140   22.1200 N   0  0  0  0  0  0  0  0  0  0  0  0
  -23.5440  -32.1440   23.7230 O   0  0  0  0  0  0  0  0  0  0  0  0
  -22.7490  -29.4520   22.5500 C   0  0  0  0  0  0  0  0  0  0  0  0
  -21.4180  -29.2860   22.4300 N   0  0  0  0  0  0  0  0  0  0  0  0
  -23.4170  -28.8320   23.3810 O   0  0  0  0  0  0  0  0  0  0  0  0
  -20.9320  -29.8370   21.7360 H   0  0  0  0  0  0  0  0  0  0  0  0
  -18.0380  -28.0800   22.9560 C   0  0  0  0  0  0  0  0  0  0  0  0
  -20.5980  -28.3540   23.2100 C   0  0  0  0  0  3  0  0  0  0  0  0
  -20.7010  -26.9170   22.6480 C   0  0  0  0  0  2  0  0  0  0  0  0
  -19.5970  -26.5840   21.6380 C   0  0  0  0  0  2  0  0  0  0  0  0
  -18.2170  -26.7280   22.2850 C   0  0  0  0  0  2  0  0  0  0  0  0
  -19.1560  -28.8500   23.3750 C   0  0  0  0  0  0  0  0  0  0  0  0
  -18.9320  -30.1130   23.9660 C   0  0  0  0  0  3  0  0  0  0  0  0
  -17.6250  -30.6080   24.1360 C   0  0  0  0  0  3  0  0  0  0  0  0
  -16.5230  -29.8360   23.7300 C   0  0  0  0  0  3  0  0  0  0  0  0
  -16.7300  -28.5740   23.1460 C   0  0  0  0  0  3  0  0  0  0  0  0
  -25.9040  -32.5020   23.8280 C   0  0  0  0  0  3  0  0  0  0  0  0
  -26.4200  -31.7400   25.1110 C   0  0  1  0  0  0  0  0  0  0  0  0
  -25.3260  -31.5080   26.1810 C   0  0  0  0  0  1  0  0  0  0  0  0
  -27.0050  -30.3600   24.7360 C   0  0  0  0  0  1  0  0  0  0  0  0
  -27.5680  -32.5410   25.7690 C   0  0  0  0  0  1  0  0  0  0  0  0
  -25.5800  -33.9000   24.1640 N   0  0  0  0  0  0  0  0  0  0  0  0
  -25.9010  -34.9640   23.4170 C   0  0  0  0  0  0  0  0  0  0  0  0
  -26.5640  -34.8730   22.3800 O   0  0  0  0  0  0  0  0  0  0  0  0
  -24.9890  -34.0430   24.9700 H   0  0  0  0  0  0  0  0  0  0  0  0
  -24.1590  -36.7550   23.1000 C   0  0  0  0  0  1  0  0  0  0  0  0
  -25.4120  -36.3490   23.8910 C   0  0  0  0  0  3  0  0  0  0  0  0
  -27.5530  -37.2430   24.6990 C   0  0  0  0  0  1  0  0  0  0  0  0
  -26.4370  -37.4090   23.7720 N   0  0  0  0  0  0  0  0  0  0  0  0
  -26.0280  -38.3260   23.9290 H   0  0  0  0  0  0  0  0  0  0  0  0
  1 45  1  0
  1  3  1  0
  3  2  1  0
  4  6  1  0
  4  3  1  0
  5  4  2  0
  7 15  1  0
  8 13  1  0
  9 10  1  0
  9  8  1  0
 11 10  1  0
 11 20  1  0
 11 12  1  0
 13  7  1  0
 13 12  1  0
 14  7  2  0
 15  6  1  0
 16 15  1  0
 17 18  2  0
 18 37  1  0
 19 18  1  0
 19 22  1  0
 20 17  1  0
 20 21  1  0
 21 19  2  0
 22 23  1  0
 23 24  2  0
 25 28  1  0
 25 24  1  0
 26 25  2  0
 27 26  1  0
 27 22  2  0
 28 29  1  0
 29 30  1  0
 30 31  2  0
 32 31  1  0
 32 36  1  0
 33 32  2  0
 34 29  2  0
 34 33  1  0
 35 34  1  0
 37 38  1  0
 38 41  1  0
 38 40  1  0
 39 37  2  0
 42 43  1  0
 42 17  1  0
 44 42  1  0
 46 48  1  0
 46 45  1  0
 47 58  2  0
 48 53  1  0
 49 57  1  0
 49 59  1  0
 50 56  1  0
 50 52  1  0
 51 57  1  0
 52 51  1  0
 53 52  2  0
 54 48  2  0
 55 54  1  0
 55 50  2  0
 56 49  1  0
 57 47  1  0
 59 61  2  0
 60 59  1  0
 62 60  1  0
 63 72  2  0
 63 68  1  0
 64 60  1  0
 64 68  1  0
 65 64  1  0
 66 67  1  0
 66 65  1  0
 67 63  1  0
 68 69  2  0
 69 70  1  0
 71 70  2  0
 72 71  1  0
 73 47  1  0
 73 78  1  0
 73 74  1  0
 74 77  1  1
 74 75  1  0
 76 74  1  0
 78 81  1  0
 79 83  1  0
 79 78  1  0
 80 79  2  0
 83 82  1  0
 85 83  1  0
 85 86  1  0
 85 84  1  0
M  ISO  4   7 100  15 100  45 101  46 101
M  END
>  <TORSDO>  (15) 
F 20

>  <SCORE>  (15) 
-15.790

>  <name>  (15) 
14

>  <ligand_id>  (15) 
14

>  <original_smiles>  (15) 
[H]c1c([H])c([H])c2c(c1[H])C([H])([H])C([H])([H])C([H])([H])C2([H])N([H])C(=O)C1([H])N(C(=O)C([H])(N([H])C(=O)C([H])(N([H])C([H])([H])[H])C([H])([H])[H])C(C([H])([H])[H])(C([H])([H])[H])C([H])([H])[H])C([H])([H])c2c([H])c(OC([H])([H])C([H])([H])C([H])(C(=O)C([H])([H])N([H])C(=O)N3C([H])([H])C([H])([H])C([H])([H])C([H])(n4nc(-c5c([H])c([H])c(Oc6c([H])c([H])c(F)c([H])c6F)c([H])c5[H])c(C(=O)N([H])[H])c4N([H])[H])C3([H])[H])C([H])([H])[H])c([H])c([H])c2C1([H])[H]

>  <smiles>  (15) 
[H]c1c([H])c([H])c2c(c1[H])C([H])([H])C([H])([H])C([H])([H])C2([H])N([H])C(=O)C1([H])N(C(=O)C([H])(N([H])C(=O)C([H])(N([H])C([H])([H])[H])C([H])([H])[H])C(C([H])([H])[H])(C([H])([H])[H])C([H])([H])[H])C([H])([H])c2c([H])c(OC([H])([H])C([H])([H])C([H])(C(=O)C([H])([H])N([H])C(=O)N3C([H])([H])C([H])([H])C([H])([H])C([H])(n4nc(-c5c([H])c([H])c(Oc6c([H])c([H])c(F)c([H])c6F)c([H])c5[H])c(C(=O)N([H])[H])c4N([H])[H])C3([H])[H])C([H])([H])[H])c([H])c([H])c2C1([H])[H]

$$$$
15:0:0
     RDKit          3D

 88 96  0  0  1  0  0  0  0  0999 V2000
  -27.8270  -20.6890   20.3120 C   0  0  0  0  0  2  0  0  0  0  0  0
  -28.1610  -19.1990   20.1920 C   0  0  0  0  0  3  0  0  0  0  0  0
  -29.2510  -21.0660   20.7210 C   0  0  0  0  0  3  0  0  0  0  0  0
  -29.6620  -19.4840   19.9790 C   0  0  0  0  0  3  0  0  0  0  0  0
  -25.8730  -18.4760   19.3410 C   0  0  0  0  0  1  0  0  0  0  0  0
  -27.3940  -18.3520   19.1840 C   0  0  0  0  0  2  0  0  0  0  0  0
  -29.5090  -22.8110   20.5080 C   0  0  0  0  0  3  0  0  0  0  0  0
  -28.4860  -24.1960   20.9620 C   0  0  0  0  0  3  0  0  0  0  0  0
  -28.6740  -25.8160   20.9980 O   0  0  0  0  0  0  0  0  0  0  0  0
  -24.7660  -31.8320   23.2860 C   0  0  0  0  0  0  0  0  0  0  0  0
  -27.6210  -26.8440   20.8380 C   0  0  0  0  0  0  0  0  0  0  0  0
  -23.7170  -30.2940   21.6740 C   0  0  0  0  0  3  0  0  0  0  0  0
  -25.2910  -28.6270   20.4870 C   0  0  0  0  0  0  0  0  0  0  0  0
  -26.2800  -30.5650   21.6910 C   0  0  0  0  0  2  0  0  0  0  0  0
  -26.4230  -29.1160   21.1530 C   0  0  0  0  0  0  0  0  0  0  0  0
  -27.5870  -28.2440   21.2970 C   0  0  0  0  0  3  0  0  0  0  0  0
  -26.4590  -26.4870   20.1180 C   0  0  0  0  0  3  0  0  0  0  0  0
  -25.3320  -27.3300   19.9500 C   0  0  0  0  0  3  0  0  0  0  0  0
  -24.0560  -29.5170   20.3730 C   0  0  0  0  0  2  0  0  0  0  0  0
  -24.9380  -30.9270   22.2700 N   0  0  0  0  0  0  0  0  0  0  0  0
  -23.6370  -32.1330   23.7060 O   0  0  0  0  0  0  0  0  0  0  0  0
  -22.9730  -29.3550   22.6590 C   0  0  0  0  0  0  0  0  0  0  0  0
  -21.6520  -29.1790   22.4700 N   0  0  0  0  0  0  0  0  0  0  0  0
  -23.5930  -28.7830   23.5590 O   0  0  0  0  0  0  0  0  0  0  0  0
  -21.2080  -29.6890   21.7200 H   0  0  0  0  0  0  0  0  0  0  0  0
  -18.2310  -28.0610   22.9210 C   0  0  0  0  0  0  0  0  0  0  0  0
  -20.7880  -28.2880   23.2500 C   0  0  0  0  0  3  0  0  0  0  0  0
  -20.8760  -26.8320   22.7340 C   0  0  0  0  0  2  0  0  0  0  0  0
  -19.7970  -26.4930   21.6990 C   0  0  0  0  0  2  0  0  0  0  0  0
  -18.4000  -26.6860   22.2960 C   0  0  0  0  0  2  0  0  0  0  0  0
  -19.3520  -28.8200   23.3530 C   0  0  0  0  0  0  0  0  0  0  0  0
  -19.1390  -30.1040   23.8990 C   0  0  0  0  0  3  0  0  0  0  0  0
  -17.8380  -30.6310   24.0130 C   0  0  0  0  0  3  0  0  0  0  0  0
  -16.7320  -29.8710   23.5950 C   0  0  0  0  0  3  0  0  0  0  0  0
  -16.9290  -28.5880   23.0540 C   0  0  0  0  0  3  0  0  0  0  0  0
  -25.9780  -32.5440   23.9590 C   0  0  0  0  0  3  0  0  0  0  0  0
  -26.4420  -31.8460   25.2970 C   0  0  1  0  0  0  0  0  0  0  0  0
  -25.2860  -31.5580   26.2840 C   0  0  0  0  0  1  0  0  0  0  0  0
  -27.1490  -30.5040   25.0020 C   0  0  0  0  0  1  0  0  0  0  0  0
  -27.4770  -32.7380   26.0220 C   0  0  0  0  0  1  0  0  0  0  0  0
  -25.5910  -33.9410   24.2240 N   0  0  0  0  0  0  0  0  0  0  0  0
  -25.9080  -34.9850   23.4460 C   0  0  0  0  0  0  0  0  0  0  0  0
  -26.6190  -34.8770   22.4430 O   0  0  0  0  0  0  0  0  0  0  0  0
  -24.9610  -34.0940   24.9960 H   0  0  0  0  0  0  0  0  0  0  0  0
  -24.1090  -36.6890   22.9940 C   0  0  0  0  0  1  0  0  0  0  0  0
  -25.3510  -36.3680   23.8410 C   0  0  0  0  0  3  0  0  0  0  0  0
  -27.4240  -37.3850   24.6790 C   0  0  0  0  0  1  0  0  0  0  0  0
  -26.3380  -37.4620   23.7070 N   0  0  0  0  0  0  0  0  0  0  0  0
  -25.8870  -38.3680   23.8070 H   0  0  0  0  0  0  0  0  0  0  0  0
  -30.6200  -18.0290   20.3340 C   0  0  0  0  0  2  0  0  0  0  0  0
  -30.9210  -15.1370   20.1030 C   0  0  0  0  0  0  0  0  0  0  0  0
  -30.7230  -12.7450   19.1440 C   0  0  0  0  0  2  0  0  0  0  0  0
  -29.7480  -12.6480   17.9460 C   0  0  0  0  0  2  0  0  0  0  0  0
  -28.3020  -12.4460   18.4350 C   0  0  0  0  0  2  0  0  0  0  0  0
  -27.9480  -13.3890   19.6130 C   0  0  0  0  0  3  0  0  0  0  0  0
  -29.0440  -13.4310   20.6980 C   0  0  0  0  0  2  0  0  0  0  0  0
  -30.2780  -13.8770   20.0320 N   0  0  0  0  0  0  0  0  0  0  0  0
  -32.1290  -15.0950   19.8360 O   0  0  0  0  0  0  0  0  0  0  0  0
  -30.2250  -16.4230   20.2720 N   0  0  0  0  0  0  0  0  0  0  0  0
  -29.2360  -16.2750   20.4100 H   0  0  0  0  0  0  0  0  0  0  0  0
  -25.6460  -14.0330   20.5010 C   0  0  0  0  0  0  0  0  0  0  0  0
  -24.5590  -13.2970   20.8810 C   0  0  0  0  0  0  0  0  0  0  0  0
  -24.9460  -11.9280   20.7520 C   0  0  0  0  0  0  0  0  0  0  0  0
  -26.6260  -13.1180   20.1630 N   0  0  0  0  0  0  0  0  0  0  0  0
  -26.2200  -11.8400   20.3810 N   0  0  0  0  0  0  0  0  0  0  0  0
  -24.1550  -10.7000   20.9010 C   0  0  0  0  0  0  0  0  0  0  0  0
  -24.5400   -9.6750   21.7920 C   0  0  0  0  0  3  0  0  0  0  0  0
  -23.7500   -8.5140   21.9340 C   0  0  0  0  0  3  0  0  0  0  0  0
  -22.5590   -8.3710   21.1820 C   0  0  0  0  0  0  0  0  0  0  0  0
  -22.1920   -9.3830   20.2780 C   0  0  0  0  0  3  0  0  0  0  0  0
  -22.9830  -10.5360   20.1350 C   0  0  0  0  0  3  0  0  0  0  0  0
  -21.7430   -7.2670   21.2350 O   0  0  0  0  0  0  0  0  0  0  0  0
  -21.6210   -6.5150   22.3760 C   0  0  0  0  0  0  0  0  0  0  0  0
  -21.1670   -7.0750   23.5910 C   0  0  0  0  0  3  0  0  0  0  0  0
  -20.9910   -6.2520   24.7220 C   0  0  0  0  0  3  0  0  0  0  0  0
  -21.2570   -4.8720   24.6390 C   0  0  0  0  0  0  0  0  0  0  0  0
  -21.7030   -4.3140   23.4280 C   0  0  0  0  0  3  0  0  0  0  0  0
  -21.8810   -5.1320   22.2990 C   0  0  0  0  0  0  0  0  0  0  0  0
  -22.2910   -4.5850   21.1300 F   0  0  0  0  0  0  0  0  0  0  0  0
  -21.0800   -4.0810   25.7220 F   0  0  0  0  0  0  0  0  0  0  0  0
  -23.2050  -13.8370   21.2370 C   0  0  0  0  0  0  0  0  0  0  0  0
  -22.4870  -13.1540   22.1200 N   0  0  0  0  0  0  0  0  0  0  0  0
  -22.7970  -14.8990   20.7680 O   0  0  0  0  0  0  0  0  0  0  0  0
  -22.8320  -12.2930   22.5200 H   0  0  0  0  0  0  0  0  0  0  0  0
  -21.5790  -13.4960   22.4020 H   0  0  0  0  0  0  0  0  0  0  0  0
  -25.8720  -15.3980   20.3800 N   0  0  0  0  0  0  0  0  0  0  0  0
  -25.1350  -16.0740   20.5420 H   0  0  0  0  0  0  0  0  0  0  0  0
  -26.6940  -15.8000   19.9530 H   0  0  0  0  0  0  0  0  0  0  0  0
  1  3  1  0
  2  6  1  0
  2  1  1  0
  3  7  1  0
  4  2  1  0
  4 50  1  0
  4  3  1  0
  6  5  1  0
  7  8  2  0
  8  9  1  0
 10 21  2  0
 11  9  1  0
 11 16  1  0
 12 20  1  0
 12 22  1  0
 13 15  1  0
 14 20  1  0
 15 16  2  0
 15 14  1  0
 17 11  2  0
 18 17  1  0
 18 13  2  0
 19 13  1  0
 19 12  1  0
 20 10  1  0
 22 24  2  0
 23 22  1  0
 25 23  1  0
 26 35  2  0
 26 31  1  0
 27 23  1  0
 27 31  1  0
 28 27  1  0
 29 30  1  0
 29 28  1  0
 30 26  1  0
 31 32  2  0
 32 33  1  0
 34 33  2  0
 35 34  1  0
 36 10  1  0
 36 41  1  0
 36 37  1  0
 37 40  1  1
 37 38  1  0
 39 37  1  0
 41 44  1  0
 42 46  1  0
 42 41  1  0
 43 42  2  0
 46 45  1  0
 48 49  1  0
 48 46  1  0
 48 47  1  0
 51 59  1  0
 52 57  1  0
 53 54  1  0
 53 52  1  0
 55 54  1  0
 55 64  1  0
 55 56  1  0
 57 51  1  0
 57 56  1  0
 58 51  2  0
 59 50  1  0
 59 60  1  0
 61 62  2  0
 62 81  1  0
 63 62  1  0
 63 66  1  0
 64 65  1  0
 64 61  1  0
 65 63  2  0
 66 67  1  0
 67 68  2  0
 69 72  1  0
 69 68  1  0
 70 69  2  0
 71 70  1  0
 71 66  2  0
 72 73  1  0
 73 74  1  0
 74 75  2  0
 76 75  1  0
 76 80  1  0
 77 76  2  0
 78 73  2  0
 78 77  1  0
 79 78  1  0
 81 82  1  0
 82 85  1  0
 82 84  1  0
 83 81  2  0
 86 61  1  0
 86 87  1  0
 88 86  1  0
M  ISO  4   8 101   9 101  51 100  59 100
M  END
>  <TORSDO>  (16) 
F 20

>  <SCORE>  (16) 
-14.358

>  <name>  (16) 
15

>  <ligand_id>  (16) 
15

>  <original_smiles>  (16) 
[H]c1c([H])c([H])c2c(c1[H])C([H])([H])C([H])([H])C([H])([H])C2([H])N([H])C(=O)C1([H])N(C(=O)C([H])(N([H])C(=O)C([H])(N([H])C([H])([H])[H])C([H])([H])[H])C(C([H])([H])[H])(C([H])([H])[H])C([H])([H])[H])C([H])([H])c2c([H])c(OC([H])([H])C([H])([H])C3([H])C([H])([H])C([H])(C([H])([H])C([H])([H])[H])C3([H])C([H])([H])N([H])C(=O)N3C([H])([H])C([H])([H])C([H])([H])C([H])(n4nc(-c5c([H])c([H])c(Oc6c([H])c([H])c(F)c([H])c6F)c([H])c5[H])c(C(=O)N([H])[H])c4N([H])[H])C3([H])[H])c([H])c([H])c2C1([H])[H]

>  <smiles>  (16) 
[H]c1c([H])c([H])c2c(c1[H])C([H])([H])C([H])([H])C([H])([H])C2([H])N([H])C(=O)C1([H])N(C(=O)C([H])(N([H])C(=O)C([H])(N([H])C([H])([H])[H])C([H])([H])[H])C(C([H])([H])[H])(C([H])([H])[H])C([H])([H])[H])C([H])([H])c2c([H])c(OC([H])([H])C([H])([H])C3([H])C([H])([H])C([H])(C([H])([H])C([H])([H])[H])C3([H])C([H])([H])N([H])C(=O)N3C([H])([H])C([H])([H])C([H])([H])C([H])(n4nc(-c5c([H])c([H])c(Oc6c([H])c([H])c(F)c([H])c6F)c([H])c5[H])c(C(=O)N([H])[H])c4N([H])[H])C3([H])[H])c([H])c([H])c2C1([H])[H]

$$$$
16:0:0
     RDKit          3D

 90 98  0  0  1  0  0  0  0  0999 V2000
  -29.5120  -20.8790   20.6870 N   0  0  0  0  0  4  0  0  0  0  0  0
  -30.2220  -21.3150   20.1070 H   0  0  0  0  0  0  0  0  0  0  0  0
  -29.7640  -21.0960   21.6370 H   0  0  0  0  0  0  0  0  0  0  0  0
  -30.6630  -14.8860   19.9450 C   0  0  0  0  0  0  0  0  0  0  0  0
  -30.4100  -12.6100   18.9500 C   0  0  0  0  0  2  0  0  0  0  0  0
  -29.4040  -12.6550   17.7840 C   0  0  0  0  0  2  0  0  0  0  0  0
  -27.9590  -12.4770   18.2940 C   0  0  0  0  0  2  0  0  0  0  0  0
  -27.6560  -13.3280   19.5540 C   0  0  0  0  0  3  0  0  0  0  0  0
  -28.7920  -13.2850   20.6010 C   0  0  0  0  0  2  0  0  0  0  0  0
  -30.0230  -13.6660   19.9070 N   0  0  0  0  0  0  0  0  0  0  0  0
  -31.8470  -14.9320   19.6070 O   0  0  0  0  0  0  0  0  0  0  0  0
  -28.9930  -18.4960   19.3650 C   0  0  0  0  0  3  0  0  0  0  0  0
  -29.0450  -16.8650   19.3790 C   0  0  0  0  0  3  0  0  0  0  0  0
  -30.5410  -16.9840   21.3150 C   0  0  0  0  0  2  0  0  0  0  0  0
  -29.7740  -18.3380   21.6450 C   0  0  0  0  0  3  0  0  0  0  0  0
  -29.7610  -19.3370   20.4420 C   0  0  0  0  0  3  0  0  0  0  0  0
  -30.3560  -18.9520   22.9330 C   0  0  0  0  0  1  0  0  0  0  0  0
  -29.9760  -16.0780   20.2780 N   0  0  0  0  0  0  0  0  0  0  0  0
  -25.3420  -13.8810   20.4820 C   0  0  0  0  0  0  0  0  0  0  0  0
  -24.3000  -13.0830   20.8890 C   0  0  0  0  0  0  0  0  0  0  0  0
  -24.7630  -11.7390   20.7880 C   0  0  0  0  0  0  0  0  0  0  0  0
  -26.3580  -13.0090   20.1350 N   0  0  0  0  0  0  0  0  0  0  0  0
  -26.0280  -11.7170   20.3920 N   0  0  0  0  0  0  0  0  0  0  0  0
  -24.0480  -10.4700   20.9880 C   0  0  0  0  0  0  0  0  0  0  0  0
  -24.4890   -9.5170   21.9300 C   0  0  0  0  0  3  0  0  0  0  0  0
  -23.7750   -8.3130   22.1160 C   0  0  0  0  0  3  0  0  0  0  0  0
  -22.6040   -8.0560   21.3590 C   0  0  0  0  0  0  0  0  0  0  0  0
  -22.1900   -8.9990   20.4000 C   0  0  0  0  0  3  0  0  0  0  0  0
  -22.9050  -10.1930   20.2140 C   0  0  0  0  0  3  0  0  0  0  0  0
  -21.8580   -6.9000   21.4500 O   0  0  0  0  0  0  0  0  0  0  0  0
  -21.7440   -6.2180   22.6350 C   0  0  0  0  0  0  0  0  0  0  0  0
  -21.2000   -6.8200   23.7920 C   0  0  0  0  0  3  0  0  0  0  0  0
  -21.0280   -6.0610   24.9670 C   0  0  0  0  0  3  0  0  0  0  0  0
  -21.3900   -4.7000   24.9850 C   0  0  0  0  0  0  0  0  0  0  0  0
  -21.9210   -4.0970   23.8320 C   0  0  0  0  0  3  0  0  0  0  0  0
  -22.0940   -4.8540   22.6590 C   0  0  0  0  0  0  0  0  0  0  0  0
  -22.5880   -4.2660   21.5460 F   0  0  0  0  0  0  0  0  0  0  0  0
  -21.2170   -3.9660   26.1100 F   0  0  0  0  0  0  0  0  0  0  0  0
  -22.9210  -13.5490   21.2580 C   0  0  0  0  0  0  0  0  0  0  0  0
  -22.2600  -12.8420   22.1740 N   0  0  0  0  0  0  0  0  0  0  0  0
  -22.4450  -14.5790   20.7850 O   0  0  0  0  0  0  0  0  0  0  0  0
  -22.6630  -12.0110   22.5800 H   0  0  0  0  0  0  0  0  0  0  0  0
  -21.3380  -13.1340   22.4610 H   0  0  0  0  0  0  0  0  0  0  0  0
  -25.4810  -15.2530   20.3380 N   0  0  0  0  0  0  0  0  0  0  0  0
  -24.7180  -15.8950   20.5360 H   0  0  0  0  0  0  0  0  0  0  0  0
  -26.3110  -15.7160   19.9940 H   0  0  0  0  0  0  0  0  0  0  0  0
  -28.2750  -21.7020   20.2510 C   0  0  0  0  0  2  0  0  0  0  0  0
  -27.9160  -23.3180   20.6410 C   0  0  0  0  0  3  0  0  0  0  0  0
  -28.6640  -24.7560   20.1760 C   0  0  0  0  0  3  0  0  0  0  0  0
  -28.4410  -26.2760   20.4490 O   0  0  0  0  0  0  0  0  0  0  0  0
  -24.6300  -31.8540   23.2060 C   0  0  0  0  0  0  0  0  0  0  0  0
  -27.3390  -27.1750   20.2760 C   0  0  0  0  0  0  0  0  0  0  0  0
  -23.4740  -30.4350   21.5520 C   0  0  0  0  0  3  0  0  0  0  0  0
  -24.9770  -28.8720   20.1490 C   0  0  0  0  0  0  0  0  0  0  0  0
  -26.0190  -30.7450   21.4310 C   0  0  0  0  0  2  0  0  0  0  0  0
  -26.1290  -29.3590   20.7800 C   0  0  0  0  0  0  0  0  0  0  0  0
  -27.3080  -28.5210   20.8160 C   0  0  0  0  0  3  0  0  0  0  0  0
  -26.1780  -26.7770   19.6000 C   0  0  0  0  0  3  0  0  0  0  0  0
  -25.0210  -27.5980   19.5400 C   0  0  0  0  0  3  0  0  0  0  0  0
  -23.7100  -29.7230   20.1870 C   0  0  0  0  0  2  0  0  0  0  0  0
  -24.7290  -31.0230   22.1240 N   0  0  0  0  0  0  0  0  0  0  0  0
  -23.5320  -32.1390   23.7230 O   0  0  0  0  0  0  0  0  0  0  0  0
  -22.7880  -29.4390   22.5130 C   0  0  0  0  0  0  0  0  0  0  0  0
  -21.4590  -29.2830   22.3740 N   0  0  0  0  0  0  0  0  0  0  0  0
  -23.4580  -28.7950   23.3250 O   0  0  0  0  0  0  0  0  0  0  0  0
  -20.9920  -29.8150   21.6550 H   0  0  0  0  0  0  0  0  0  0  0  0
  -18.0670  -28.1630   22.9160 C   0  0  0  0  0  0  0  0  0  0  0  0
  -20.6360  -28.3360   23.1290 C   0  0  0  0  0  3  0  0  0  0  0  0
  -20.6810  -26.9230   22.5030 C   0  0  0  0  0  2  0  0  0  0  0  0
  -19.5500  -26.6720   21.5030 C   0  0  0  0  0  2  0  0  0  0  0  0
  -18.1890  -26.8330   22.1870 C   0  0  0  0  0  2  0  0  0  0  0  0
  -19.2190  -28.8730   23.3460 C   0  0  0  0  0  0  0  0  0  0  0  0
  -19.0550  -30.1190   23.9830 C   0  0  0  0  0  3  0  0  0  0  0  0
  -17.7720  -30.6520   24.2020 C   0  0  0  0  0  3  0  0  0  0  0  0
  -16.6340  -29.9360   23.7960 C   0  0  0  0  0  3  0  0  0  0  0  0
  -16.7810  -28.6950   23.1530 C   0  0  0  0  0  3  0  0  0  0  0  0
  -25.8950  -32.4980   23.8510 C   0  0  0  0  0  3  0  0  0  0  0  0
  -26.3970  -31.7190   25.1260 C   0  0  1  0  0  0  0  0  0  0  0  0
  -25.2750  -31.4560   26.1500 C   0  0  0  0  0  1  0  0  0  0  0  0
  -27.0160  -30.3540   24.7470 C   0  0  0  0  0  1  0  0  0  0  0  0
  -27.5200  -32.5270   25.8140 C   0  0  0  0  0  1  0  0  0  0  0  0
  -25.5570  -33.8900   24.1880 N   0  0  0  0  0  0  0  0  0  0  0  0
  -25.9000  -34.9620   23.4670 C   0  0  0  0  0  0  0  0  0  0  0  0
  -26.5980  -34.8810   22.4530 O   0  0  0  0  0  0  0  0  0  0  0  0
  -24.9070  -34.0120   24.9510 H   0  0  0  0  0  0  0  0  0  0  0  0
  -24.1600  -36.7340   23.1020 C   0  0  0  0  0  1  0  0  0  0  0  0
  -25.3860  -36.3340   23.9310 C   0  0  0  0  0  3  0  0  0  0  0  0
  -27.4800  -37.2300   24.8370 C   0  0  0  0  0  1  0  0  0  0  0  0
  -26.4060  -37.3990   23.8630 N   0  0  0  0  0  0  0  0  0  0  0  0
  -25.9920  -38.3160   24.0090 H   0  0  0  0  0  0  0  0  0  0  0  0
  1  3  1  0
  2  1  1  0
  4 18  1  0
  5 10  1  0
  6  7  1  0
  6  5  1  0
  8  7  1  0
  8 22  1  0
  8  9  1  0
 10  4  1  0
 10  9  1  0
 11  4  2  0
 12 13  2  0
 12 16  1  0
 13 18  1  0
 14 15  1  0
 15 17  1  0
 16  1  1  0
 16 15  1  0
 18 14  1  0
 19 20  2  0
 20 39  1  0
 21 20  1  0
 21 24  1  0
 22 23  1  0
 22 19  1  0
 23 21  2  0
 24 25  1  0
 25 26  2  0
 27 30  1  0
 27 26  1  0
 28 27  2  0
 29 28  1  0
 29 24  2  0
 30 31  1  0
 31 36  2  0
 31 32  1  0
 32 33  2  0
 33 34  1  0
 34 38  1  0
 35 34  2  0
 36 35  1  0
 37 36  1  0
 39 40  1  0
 40 43  1  0
 40 42  1  0
 41 39  2  0
 44 19  1  0
 44 45  1  0
 46 44  1  0
 47 48  1  0
 47  1  1  0
 49 50  1  0
 49 48  2  0
 51 62  2  0
 52 50  1  0
 52 57  1  0
 53 61  1  0
 53 63  1  0
 54 60  1  0
 54 56  1  0
 55 61  1  0
 56 57  2  0
 56 55  1  0
 58 52  2  0
 59 58  1  0
 59 54  2  0
 60 53  1  0
 61 51  1  0
 63 65  2  0
 64 63  1  0
 66 64  1  0
 67 76  2  0
 67 72  1  0
 68 64  1  0
 68 72  1  0
 69 68  1  0
 70 71  1  0
 70 69  1  0
 71 67  1  0
 72 73  2  0
 73 74  1  0
 75 74  2  0
 76 75  1  0
 77 51  1  0
 77 82  1  0
 77 78  1  0
 78 81  1  1
 78 79  1  0
 80 78  1  0
 82 85  1  0
 83 87  1  0
 83 82  1  0
 84 83  2  0
 87 86  1  0
 89 87  1  0
 89 90  1  0
 89 88  1  0
M  ISO  4   4 100  18 100  49 101  50 101
M  END
>  <TORSDO>  (17) 
F 19

>  <SCORE>  (17) 
-13.871

>  <name>  (17) 
16

>  <ligand_id>  (17) 
16

>  <original_smiles>  (17) 
[H]c1c([H])c([H])c2c(c1[H])C([H])([H])C([H])([H])C([H])([H])C2([H])N([H])C(=O)C1([H])N(C(=O)C([H])(N([H])C(=O)C([H])(N([H])C([H])([H])[H])C([H])([H])[H])C(C([H])([H])[H])(C([H])([H])[H])C([H])([H])[H])C([H])([H])c2c([H])c(OC([H])([H])C([H])([H])C([H])([H])[N+]([H])([H])C3([H])C([H])([H])C([H])([H])N(C(=O)N4C([H])([H])C([H])([H])C([H])([H])C([H])(n5nc(-c6c([H])c([H])c(Oc7c([H])c([H])c(F)c([H])c7F)c([H])c6[H])c(C(=O)N([H])[H])c5N([H])[H])C4([H])[H])C([H])([H])C3([H])C([H])([H])[H])c([H])c([H])c2C1([H])[H]

>  <smiles>  (17) 
[H]c1c([H])c([H])c2c(c1[H])C([H])([H])C([H])([H])C([H])([H])C2([H])N([H])C(=O)C1([H])N(C(=O)C([H])(N([H])C(=O)C([H])(N([H])C([H])([H])[H])C([H])([H])[H])C(C([H])([H])[H])(C([H])([H])[H])C([H])([H])[H])C([H])([H])c2c([H])c(OC([H])([H])C([H])([H])C([H])([H])[N+]([H])([H])C3([H])C([H])([H])C([H])([H])N(C(=O)N4C([H])([H])C([H])([H])C([H])([H])C([H])(n5nc(-c6c([H])c([H])c(Oc7c([H])c([H])c(F)c([H])c7F)c([H])c6[H])c(C(=O)N([H])[H])c5N([H])[H])C4([H])[H])C([H])([H])C3([H])C([H])([H])[H])c([H])c([H])c2C1([H])[H]

$$$$
17:0:0
     RDKit          3D

 93101  0  0  1  0  0  0  0  0999 V2000
  -28.9600  -19.5410   19.0390 C   0  0  0  0  0  2  0  0  0  0  0  0
  -29.5690  -20.5070   21.1160 C   0  0  0  0  0  2  0  0  0  0  0  0
  -28.8790  -21.1350   18.9780 C   0  0  0  0  0  3  0  0  0  0  0  0
  -29.2440  -19.0320   20.4820 C   0  0  0  0  0  3  0  0  0  0  0  0
  -28.7320  -21.7210   20.4150 C   0  0  0  0  0  3  0  0  0  0  0  0
  -27.7840  -21.6320   18.0240 C   0  0  0  0  0  0  0  0  0  0  0  0
  -28.1530  -22.4340   17.0330 N   0  0  0  0  0  0  0  0  0  0  0  0
  -26.6100  -21.2990   18.1720 O   0  0  0  0  0  0  0  0  0  0  0  0
  -29.1220  -22.7020   16.9250 H   0  0  0  0  0  0  0  0  0  0  0  0
  -27.4730  -22.7780   16.3690 H   0  0  0  0  0  0  0  0  0  0  0  0
  -30.8940  -17.7760   22.0550 C   0  0  0  0  0  1  0  0  0  0  0  0
  -30.2330  -17.6670   20.6700 C   0  0  0  0  0  3  0  0  0  0  0  0
  -30.5330  -14.9580   20.3210 C   0  0  0  0  0  0  0  0  0  0  0  0
  -30.3710  -12.6330   19.3290 C   0  0  0  0  0  2  0  0  0  0  0  0
  -29.4190  -12.6170   18.1120 C   0  0  0  0  0  2  0  0  0  0  0  0
  -27.9640  -12.3980   18.5680 C   0  0  0  0  0  2  0  0  0  0  0  0
  -27.5770  -13.3020   19.7660 C   0  0  0  0  0  3  0  0  0  0  0  0
  -28.6500  -13.3000   20.8740 C   0  0  0  0  0  2  0  0  0  0  0  0
  -29.9110  -13.7130   20.2470 N   0  0  0  0  0  0  0  0  0  0  0  0
  -31.7350  -15.0040   20.0430 O   0  0  0  0  0  0  0  0  0  0  0  0
  -29.7870  -16.1570   20.5150 N   0  0  0  0  0  0  0  0  0  0  0  0
  -28.7970  -16.0010   20.6350 H   0  0  0  0  0  0  0  0  0  0  0  0
  -25.2070  -13.8640   20.5530 C   0  0  0  0  0  0  0  0  0  0  0  0
  -24.1500  -13.0810   20.9260 C   0  0  0  0  0  0  0  0  0  0  0  0
  -24.6160  -11.7320   20.8680 C   0  0  0  0  0  0  0  0  0  0  0  0
  -26.2480  -12.9920   20.2820 N   0  0  0  0  0  0  0  0  0  0  0  0
  -25.9040  -11.7040   20.5380 N   0  0  0  0  0  0  0  0  0  0  0  0
  -23.8950  -10.4640   21.0490 C   0  0  0  0  0  0  0  0  0  0  0  0
  -24.3220   -9.4970   21.9860 C   0  0  0  0  0  3  0  0  0  0  0  0
  -23.5990   -8.2970   22.1550 C   0  0  0  0  0  3  0  0  0  0  0  0
  -22.4350   -8.0550   21.3880 C   0  0  0  0  0  0  0  0  0  0  0  0
  -22.0270   -9.0110   20.4410 C   0  0  0  0  0  3  0  0  0  0  0  0
  -22.7510  -10.2030   20.2690 C   0  0  0  0  0  3  0  0  0  0  0  0
  -21.6860   -6.9060   21.4660 O   0  0  0  0  0  0  0  0  0  0  0  0
  -21.6070   -6.1760   22.6240 C   0  0  0  0  0  0  0  0  0  0  0  0
  -21.0800   -6.7210   23.8150 C   0  0  0  0  0  3  0  0  0  0  0  0
  -20.9500   -5.9150   24.9630 C   0  0  0  0  0  3  0  0  0  0  0  0
  -21.3390   -4.5620   24.9210 C   0  0  0  0  0  0  0  0  0  0  0  0
  -21.8610   -4.0160   23.7350 C   0  0  0  0  0  3  0  0  0  0  0  0
  -21.9910   -4.8200   22.5890 C   0  0  0  0  0  0  0  0  0  0  0  0
  -22.4720   -4.2830   21.4430 F   0  0  0  0  0  0  0  0  0  0  0  0
  -21.2100   -3.7850   26.0210 F   0  0  0  0  0  0  0  0  0  0  0  0
  -22.7560  -13.5510   21.2200 C   0  0  0  0  0  0  0  0  0  0  0  0
  -22.0400  -12.8460   22.0890 N   0  0  0  0  0  0  0  0  0  0  0  0
  -22.3090  -14.5800   20.7150 O   0  0  0  0  0  0  0  0  0  0  0  0
  -22.4140  -12.0140   22.5220 H   0  0  0  0  0  0  0  0  0  0  0  0
  -21.1060  -13.1460   22.3290 H   0  0  0  0  0  0  0  0  0  0  0  0
  -25.3620  -15.2390   20.3960 N   0  0  0  0  0  0  0  0  0  0  0  0
  -24.5860  -15.8810   20.5200 H   0  0  0  0  0  0  0  0  0  0  0  0
  -26.1920  -15.6880   20.0330 H   0  0  0  0  0  0  0  0  0  0  0  0
  -29.0380  -23.3740   20.6580 C   0  0  0  0  0  3  0  0  0  0  0  0
  -28.0650  -24.6840   20.2280 C   0  0  0  0  0  3  0  0  0  0  0  0
  -28.2970  -26.1940   20.5360 O   0  0  0  0  0  0  0  0  0  0  0  0
  -24.6520  -31.9490   23.3490 C   0  0  0  0  0  0  0  0  0  0  0  0
  -27.2480  -27.1800   20.4260 C   0  0  0  0  0  0  0  0  0  0  0  0
  -23.4750  -30.5520   21.6950 C   0  0  0  0  0  3  0  0  0  0  0  0
  -24.9370  -28.9450   20.3200 C   0  0  0  0  0  0  0  0  0  0  0  0
  -26.0350  -30.7850   21.5900 C   0  0  0  0  0  2  0  0  0  0  0  0
  -26.1060  -29.3860   20.9520 C   0  0  0  0  0  0  0  0  0  0  0  0
  -27.2620  -28.5190   20.9880 C   0  0  0  0  0  3  0  0  0  0  0  0
  -26.0530  -26.8380   19.7540 C   0  0  0  0  0  3  0  0  0  0  0  0
  -24.9240  -27.6830   19.7070 C   0  0  0  0  0  3  0  0  0  0  0  0
  -23.7200  -29.8570   20.3290 C   0  0  0  0  0  2  0  0  0  0  0  0
  -24.7390  -31.1170   22.2670 N   0  0  0  0  0  0  0  0  0  0  0  0
  -23.5580  -32.2520   23.8480 O   0  0  0  0  0  0  0  0  0  0  0  0
  -22.7600  -29.5630   22.6490 C   0  0  0  0  0  0  0  0  0  0  0  0
  -21.4340  -29.4060   22.4910 N   0  0  0  0  0  0  0  0  0  0  0  0
  -23.4020  -28.9380   23.4980 O   0  0  0  0  0  0  0  0  0  0  0  0
  -20.9730  -29.9590   21.7810 H   0  0  0  0  0  0  0  0  0  0  0  0
  -18.0200  -28.2860   22.9510 C   0  0  0  0  0  0  0  0  0  0  0  0
  -20.5810  -28.4880   23.2510 C   0  0  0  0  0  3  0  0  0  0  0  0
  -20.6560  -27.0540   22.6780 C   0  0  0  0  0  2  0  0  0  0  0  0
  -19.5610  -26.7570   21.6490 C   0  0  0  0  0  2  0  0  0  0  0  0
  -18.1750  -26.9340   22.2760 C   0  0  0  0  0  2  0  0  0  0  0  0
  -19.1510  -29.0220   23.3950 C   0  0  0  0  0  0  0  0  0  0  0  0
  -18.9520  -30.2890   23.9890 C   0  0  0  0  0  3  0  0  0  0  0  0
  -17.6570  -30.8180   24.1420 C   0  0  0  0  0  3  0  0  0  0  0  0
  -16.5410  -30.0780   23.7140 C   0  0  0  0  0  3  0  0  0  0  0  0
  -16.7230  -28.8140   23.1240 C   0  0  0  0  0  3  0  0  0  0  0  0
  -25.9230  -32.5750   24.0000 C   0  0  0  0  0  3  0  0  0  0  0  0
  -26.3870  -31.8170   25.3060 C   0  0  1  0  0  0  0  0  0  0  0  0
  -25.2560  -31.6030   26.3390 C   0  0  0  0  0  1  0  0  0  0  0  0
  -26.9730  -30.4300   24.9590 C   0  0  0  0  0  1  0  0  0  0  0  0
  -27.5210  -32.6120   25.9960 C   0  0  0  0  0  1  0  0  0  0  0  0
  -25.6220  -33.9820   24.3060 N   0  0  0  0  0  0  0  0  0  0  0  0
  -25.9420  -35.0200   23.5210 C   0  0  0  0  0  0  0  0  0  0  0  0
  -26.5900  -34.8930   22.4780 O   0  0  0  0  0  0  0  0  0  0  0  0
  -25.0450  -34.1550   25.1160 H   0  0  0  0  0  0  0  0  0  0  0  0
  -24.1980  -36.8040   23.1950 C   0  0  0  0  0  1  0  0  0  0  0  0
  -25.4730  -36.4210   23.9630 C   0  0  0  0  0  3  0  0  0  0  0  0
  -27.6320  -37.3420   24.6880 C   0  0  0  0  0  1  0  0  0  0  0  0
  -26.4980  -37.4720   23.7770 N   0  0  0  0  0  0  0  0  0  0  0  0
  -26.0940  -38.3960   23.9040 H   0  0  0  0  0  0  0  0  0  0  0  0
  1  4  1  0
  3  6  1  0
  3  1  1  0
  3  5  1  0
  4 12  1  0
  4  2  1  0
  5 51  1  0
  5  2  1  0
  6  8  2  0
  7  6  1  0
  9  7  1  0
 10  7  1  0
 12 11  1  0
 13 21  1  0
 14 19  1  0
 15 16  1  0
 15 14  1  0
 17 16  1  0
 17 26  1  0
 17 18  1  0
 19 13  1  0
 19 18  1  0
 20 13  2  0
 21 22  1  0
 21 12  1  0
 23 24  2  0
 24 43  1  0
 25 24  1  0
 25 28  1  0
 26 27  1  0
 26 23  1  0
 27 25  2  0
 28 29  1  0
 29 30  2  0
 31 34  1  0
 31 30  1  0
 32 31  2  0
 33 32  1  0
 33 28  2  0
 34 35  1  0
 35 36  1  0
 36 37  2  0
 38 37  1  0
 38 42  1  0
 39 38  2  0
 40 35  2  0
 40 39  1  0
 41 40  1  0
 43 44  1  0
 44 47  1  0
 44 46  1  0
 45 43  2  0
 48 49  1  0
 48 23  1  0
 50 48  1  0
 52 53  1  0
 52 51  2  0
 54 65  2  0
 55 53  1  0
 55 60  1  0
 56 64  1  0
 56 66  1  0
 57 63  1  0
 57 59  1  0
 58 64  1  0
 59 60  2  0
 59 58  1  0
 61 55  2  0
 62 61  1  0
 62 57  2  0
 63 56  1  0
 64 54  1  0
 66 68  2  0
 67 66  1  0
 69 67  1  0
 70 79  2  0
 70 75  1  0
 71 67  1  0
 71 75  1  0
 72 71  1  0
 73 74  1  0
 73 72  1  0
 74 70  1  0
 75 76  2  0
 76 77  1  0
 78 77  2  0
 79 78  1  0
 80 54  1  0
 80 85  1  0
 80 81  1  0
 81 84  1  1
 81 82  1  0
 83 81  1  0
 85 88  1  0
 86 90  1  0
 86 85  1  0
 87 86  2  0
 90 89  1  0
 92 93  1  0
 92 90  1  0
 92 91  1  0
M  ISO  4  13 100  21 100  52 101  53 101
M  END
>  <TORSDO>  (18) 
F 20

>  <SCORE>  (18) 
-14.611

>  <name>  (18) 
17

>  <ligand_id>  (18) 
17

>  <original_smiles>  (18) 
[H]c1c([H])c([H])c2c(c1[H])C([H])([H])C([H])([H])C([H])([H])C2([H])N([H])C(=O)C1([H])N(C(=O)C([H])(N([H])C(=O)C([H])(N([H])C([H])([H])[H])C([H])([H])[H])C(C([H])([H])[H])(C([H])([H])[H])C([H])([H])[H])C([H])([H])c2c([H])c(OC([H])([H])C([H])([H])C3([H])C([H])([H])C([H])(C([H])(N([H])C(=O)N4C([H])([H])C([H])([H])C([H])([H])C([H])(n5nc(-c6c([H])c([H])c(Oc7c([H])c([H])c(F)c([H])c7F)c([H])c6[H])c(C(=O)N([H])[H])c5N([H])[H])C4([H])[H])C([H])([H])[H])C([H])([H])C3([H])C(=O)N([H])[H])c([H])c([H])c2C1([H])[H]

>  <smiles>  (18) 
[H]c1c([H])c([H])c2c(c1[H])C([H])([H])C([H])([H])C([H])([H])C2([H])N([H])C(=O)C1([H])N(C(=O)C([H])(N([H])C(=O)C([H])(N([H])C([H])([H])[H])C([H])([H])[H])C(C([H])([H])[H])(C([H])([H])[H])C([H])([H])[H])C([H])([H])c2c([H])c(OC([H])([H])C([H])([H])C3([H])C([H])([H])C([H])(C([H])(N([H])C(=O)N4C([H])([H])C([H])([H])C([H])([H])C([H])(n5nc(-c6c([H])c([H])c(Oc7c([H])c([H])c(F)c([H])c7F)c([H])c6[H])c(C(=O)N([H])[H])c5N([H])[H])C4([H])[H])C([H])([H])[H])C([H])([H])C3([H])C(=O)N([H])[H])c([H])c([H])c2C1([H])[H]

$$$$
18:0:0
     RDKit          3D

 92100  0  0  1  0  0  0  0  0999 V2000
  -29.1390  -20.2170   21.9990 C   0  0  0  0  0  2  0  0  0  0  0  0
  -28.1900  -20.4350   20.8250 C   0  0  0  0  0  2  0  0  0  0  0  0
  -30.1640  -19.3550   19.9540 C   0  0  0  0  0  3  0  0  0  0  0  0
  -30.1160  -19.1550   21.4910 C   0  0  0  0  0  3  0  0  0  0  0  0
  -29.0550  -20.4740   19.6270 N   0  0  2  0  0  4  0  0  0  0  0  0
  -28.4960  -20.1030   18.8720 H   0  0  0  0  0  0  0  0  0  0  0  0
  -30.9430  -15.3150   19.4610 C   0  0  0  0  0  0  0  0  0  0  0  0
  -30.7480  -12.9110   18.6830 C   0  0  0  0  0  2  0  0  0  0  0  0
  -29.7120  -12.8130   17.5360 C   0  0  0  0  0  2  0  0  0  0  0  0
  -28.2950  -12.6120   18.1000 C   0  0  0  0  0  2  0  0  0  0  0  0
  -27.9910  -13.5740   19.2770 C   0  0  0  0  0  3  0  0  0  0  0  0
  -29.1420  -13.6510   20.3060 C   0  0  0  0  0  2  0  0  0  0  0  0
  -30.3570  -14.0450   19.5790 N   0  0  0  0  0  0  0  0  0  0  0  0
  -32.0820  -15.3270   18.9810 O   0  0  0  0  0  0  0  0  0  0  0  0
  -30.3630  -17.8630   19.2010 C   0  0  0  0  0  0  0  0  0  0  0  0
  -30.2530  -16.5390   19.7590 N   0  0  0  0  0  0  0  0  0  0  0  0
  -30.7160  -17.9530   18.0220 O   0  0  0  0  0  0  0  0  0  0  0  0
  -29.5840  -16.4600   20.5080 H   0  0  0  0  0  0  0  0  0  0  0  0
  -25.7310  -14.1730   20.3130 C   0  0  0  0  0  0  0  0  0  0  0  0
  -24.6840  -13.4120   20.7530 C   0  0  0  0  0  0  0  0  0  0  0  0
  -25.0860  -12.0500   20.5860 C   0  0  0  0  0  0  0  0  0  0  0  0
  -26.7050  -13.2790   19.9030 N   0  0  0  0  0  0  0  0  0  0  0  0
  -26.3330  -11.9910   20.1300 N   0  0  0  0  0  0  0  0  0  0  0  0
  -24.3310  -10.8040   20.7800 C   0  0  0  0  0  0  0  0  0  0  0  0
  -24.7550   -9.8230   21.7040 C   0  0  0  0  0  3  0  0  0  0  0  0
  -24.0030   -8.6420   21.8880 C   0  0  0  0  0  3  0  0  0  0  0  0
  -22.8140   -8.4350   21.1490 C   0  0  0  0  0  0  0  0  0  0  0  0
  -22.4110   -9.4050   20.2140 C   0  0  0  0  0  3  0  0  0  0  0  0
  -23.1610  -10.5770   20.0270 C   0  0  0  0  0  3  0  0  0  0  0  0
  -22.0320   -7.3100   21.2440 O   0  0  0  0  0  0  0  0  0  0  0  0
  -21.8760   -6.6410   22.4320 C   0  0  0  0  0  0  0  0  0  0  0  0
  -21.3270   -7.2670   23.5730 C   0  0  0  0  0  3  0  0  0  0  0  0
  -21.1200   -6.5240   24.7530 C   0  0  0  0  0  3  0  0  0  0  0  0
  -21.4450   -5.1540   24.7890 C   0  0  0  0  0  0  0  0  0  0  0  0
  -21.9840   -4.5280   23.6530 C   0  0  0  0  0  3  0  0  0  0  0  0
  -22.1940   -5.2690   22.4760 C   0  0  0  0  0  0  0  0  0  0  0  0
  -22.6930   -4.6550   21.3760 F   0  0  0  0  0  0  0  0  0  0  0  0
  -21.2410   -4.4370   25.9190 F   0  0  0  0  0  0  0  0  0  0  0  0
  -23.3460  -13.9170   21.2060 C   0  0  0  0  0  0  0  0  0  0  0  0
  -22.6940  -13.1970   22.1140 N   0  0  0  0  0  0  0  0  0  0  0  0
  -22.8900  -14.9820   20.7910 O   0  0  0  0  0  0  0  0  0  0  0  0
  -23.0820  -12.3370   22.4760 H   0  0  0  0  0  0  0  0  0  0  0  0
  -21.7950  -13.5090   22.4500 H   0  0  0  0  0  0  0  0  0  0  0  0
  -25.9280  -15.5460   20.1980 N   0  0  0  0  0  0  0  0  0  0  0  0
  -25.2020  -16.2150   20.4260 H   0  0  0  0  0  0  0  0  0  0  0  0
  -26.7400  -15.9710   19.7680 H   0  0  0  0  0  0  0  0  0  0  0  0
  -31.4570  -18.7280   23.6320 C   0  0  0  0  0  1  0  0  0  0  0  0
  -31.4990  -19.1990   22.1750 C   0  0  0  0  0  2  0  0  0  0  0  0
  -29.3580  -22.0010   19.2060 C   0  0  0  0  0  3  0  0  0  0  0  0
  -28.4760  -23.4020   19.6760 C   0  0  0  0  0  3  0  0  0  0  0  0
  -28.4850  -24.9510   18.9630 C   0  0  0  0  0  2  0  0  0  0  0  0
  -28.3960  -26.3960   19.5650 O   0  0  0  0  0  0  0  0  0  0  0  0
  -24.7470  -31.7060   23.1120 C   0  0  0  0  0  0  0  0  0  0  0  0
  -27.2910  -27.3240   19.5780 C   0  0  0  0  0  0  0  0  0  0  0  0
  -23.4980  -30.4060   21.4280 C   0  0  0  0  0  3  0  0  0  0  0  0
  -24.9120  -28.9880   19.8110 C   0  0  0  0  0  0  0  0  0  0  0  0
  -26.0330  -30.7590   21.1620 C   0  0  0  0  0  2  0  0  0  0  0  0
  -26.1080  -29.4280   20.3920 C   0  0  0  0  0  0  0  0  0  0  0  0
  -27.2920  -28.6110   20.2590 C   0  0  0  0  0  3  0  0  0  0  0  0
  -26.0630  -26.9820   18.9700 C   0  0  0  0  0  3  0  0  0  0  0  0
  -24.9010  -27.7830   19.0880 C   0  0  0  0  0  3  0  0  0  0  0  0
  -23.6640  -29.8410   19.9930 C   0  0  0  0  0  2  0  0  0  0  0  0
  -24.7810  -30.9760   21.9560 N   0  0  0  0  0  0  0  0  0  0  0  0
  -23.6840  -31.9160   23.7140 O   0  0  0  0  0  0  0  0  0  0  0  0
  -22.8970  -29.3080   22.3420 C   0  0  0  0  0  0  0  0  0  0  0  0
  -21.5760  -29.0740   22.2320 N   0  0  0  0  0  0  0  0  0  0  0  0
  -23.6200  -28.6740   23.1150 O   0  0  0  0  0  0  0  0  0  0  0  0
  -21.0440  -29.6450   21.5880 H   0  0  0  0  0  0  0  0  0  0  0  0
  -18.2880  -27.6250   22.6840 C   0  0  0  0  0  0  0  0  0  0  0  0
  -20.8230  -28.0480   22.9600 C   0  0  0  0  0  3  0  0  0  0  0  0
  -21.0190  -26.6530   22.3210 C   0  0  0  0  0  2  0  0  0  0  0  0
  -19.9380  -26.3040   21.2930 C   0  0  0  0  0  2  0  0  0  0  0  0
  -18.5520  -26.3250   21.9450 C   0  0  0  0  0  2  0  0  0  0  0  0
  -19.3530  -28.4430   23.1460 C   0  0  0  0  0  0  0  0  0  0  0  0
  -19.0500  -29.6580   23.7980 C   0  0  0  0  0  3  0  0  0  0  0  0
  -17.7140  -30.0590   23.9900 C   0  0  0  0  0  3  0  0  0  0  0  0
  -16.6630  -29.2380   23.5430 C   0  0  0  0  0  3  0  0  0  0  0  0
  -16.9510  -28.0230   22.8980 C   0  0  0  0  0  3  0  0  0  0  0  0
  -26.0400  -32.3290   23.7240 C   0  0  0  0  0  3  0  0  0  0  0  0
  -26.6030  -31.5100   24.9510 C   0  0  1  0  0  0  0  0  0  0  0  0
  -25.5460  -31.2170   26.0400 C   0  0  0  0  0  1  0  0  0  0  0  0
  -27.1910  -30.1560   24.4920 C   0  0  0  0  0  1  0  0  0  0  0  0
  -27.7640  -32.2920   25.6140 C   0  0  0  0  0  1  0  0  0  0  0  0
  -25.7230  -33.7090   24.1300 N   0  0  0  0  0  0  0  0  0  0  0  0
  -26.0360  -34.8050   23.4270 C   0  0  0  0  0  0  0  0  0  0  0  0
  -26.6840  -34.7610   22.3790 O   0  0  0  0  0  0  0  0  0  0  0  0
  -25.1450  -33.8150   24.9510 H   0  0  0  0  0  0  0  0  0  0  0  0
  -24.2940  -36.6100   23.2060 C   0  0  0  0  0  1  0  0  0  0  0  0
  -25.5510  -36.1660   23.9700 C   0  0  0  0  0  3  0  0  0  0  0  0
  -27.6920  -37.0230   24.8160 C   0  0  0  0  0  1  0  0  0  0  0  0
  -26.5780  -37.2290   23.8960 N   0  0  0  0  0  0  0  0  0  0  0  0
  -26.1690  -38.1390   24.0920 H   0  0  0  0  0  0  0  0  0  0  0  0
  2  1  1  0
  3 15  1  0
  3  4  1  0
  4  1  1  0
  4 48  1  0
  5  3  1  0
  5  2  1  0
  5  6  1  6
  7 13  1  0
  7 16  1  0
  8 13  1  0
  9 10  1  0
  9  8  1  0
 11 10  1  0
 11 22  1  0
 11 12  1  0
 13 12  1  0
 14  7  2  0
 15 16  1  0
 16 18  1  0
 17 15  2  0
 19 20  2  0
 20 39  1  0
 21 20  1  0
 21 24  1  0
 22 23  1  0
 22 19  1  0
 23 21  2  0
 24 25  1  0
 25 26  2  0
 27 30  1  0
 27 26  1  0
 28 27  2  0
 29 28  1  0
 29 24  2  0
 30 31  1  0
 31 36  2  0
 31 32  1  0
 32 33  2  0
 33 34  1  0
 34 38  1  0
 35 34  2  0
 36 35  1  0
 37 36  1  0
 39 40  1  0
 40 43  1  0
 40 42  1  0
 41 39  2  0
 44 19  1  0
 44 45  1  0
 46 44  1  0
 48 47  1  0
 49  5  1  0
 49 50  2  0
 51 52  1  0
 51 50  1  0
 52 54  1  0
 53 64  2  0
 54 59  1  0
 55 63  1  0
 55 65  1  0
 56 62  1  0
 56 58  1  0
 57 63  1  0
 58 57  1  0
 59 58  2  0
 60 61  1  0
 60 54  2  0
 61 56  2  0
 62 55  1  0
 63 53  1  0
 65 67  2  0
 66 65  1  0
 68 66  1  0
 69 78  2  0
 69 74  1  0
 70 66  1  0
 70 74  1  0
 71 70  1  0
 72 73  1  0
 72 71  1  0
 73 69  1  0
 74 75  2  0
 75 76  1  0
 77 76  2  0
 78 77  1  0
 79 53  1  0
 79 84  1  0
 79 80  1  0
 80 83  1  1
 80 81  1  0
 82 80  1  0
 84 87  1  0
 85 89  1  0
 85 84  1  0
 86 85  2  0
 89 88  1  0
 91 89  1  0
 91 92  1  0
 91 90  1  0
M  ISO  4   7 100  16 100  51 101  52 101
M  END
>  <TORSDO>  (19) 
F 20

>  <SCORE>  (19) 
-11.979

>  <name>  (19) 
18

>  <ligand_id>  (19) 
18

>  <original_smiles>  (19) 
[H]c1c([H])c([H])c2c(c1[H])C([H])([H])C([H])([H])C([H])([H])C2([H])N([H])C(=O)C1([H])N(C(=O)C([H])(N([H])C(=O)C([H])(N([H])C([H])([H])[H])C([H])([H])[H])C(C([H])([H])[H])(C([H])([H])[H])C([H])([H])[H])C([H])([H])c2c([H])c(OC([H])([H])C([H])([H])C([H])([H])[N+]3([H])C([H])([H])C([H])([H])C([H])(C([H])([H])C([H])([H])[H])C3([H])C(=O)N([H])C(=O)N3C([H])([H])C([H])([H])C([H])([H])C([H])(n4nc(-c5c([H])c([H])c(Oc6c([H])c([H])c(F)c([H])c6F)c([H])c5[H])c(C(=O)N([H])[H])c4N([H])[H])C3([H])[H])c([H])c([H])c2C1([H])[H]

>  <smiles>  (19) 
[H]c1c([H])c([H])c2c(c1[H])C([H])([H])C([H])([H])C([H])([H])C2([H])N([H])C(=O)C1([H])N(C(=O)C([H])(N([H])C(=O)C([H])(N([H])C([H])([H])[H])C([H])([H])[H])C(C([H])([H])[H])(C([H])([H])[H])C([H])([H])[H])C([H])([H])c2c([H])c(OC([H])([H])C([H])([H])C([H])([H])[N+]3([H])C([H])([H])C([H])([H])C([H])(C([H])([H])C([H])([H])[H])C3([H])C(=O)N([H])C(=O)N3C([H])([H])C([H])([H])C([H])([H])C([H])(n4nc(-c5c([H])c([H])c(Oc6c([H])c([H])c(F)c([H])c6F)c([H])c5[H])c(C(=O)N([H])[H])c4N([H])[H])C3([H])[H])c([H])c([H])c2C1([H])[H]

$$$$
19:0:0
     RDKit          3D

 90 99  0  0  1  0  0  0  0  0999 V2000
  -28.9350  -20.8410   19.5060 N   0  0  0  0  0  4  0  0  0  0  0  0
  -29.8300  -21.0460   19.0940 H   0  0  0  0  0  0  0  0  0  0  0  0
  -28.3010  -20.8540   18.7250 H   0  0  0  0  0  0  0  0  0  0  0  0
  -30.2050  -15.4460   19.1970 C   0  0  0  0  0  0  0  0  0  0  0  0
  -30.0050  -13.0180   18.2110 C   0  0  0  0  0  2  0  0  0  0  0  0
  -28.8720  -12.7990   17.1740 C   0  0  0  0  0  2  0  0  0  0  0  0
  -27.5470  -12.4650   17.8780 C   0  0  0  0  0  2  0  0  0  0  0  0
  -27.3110  -13.3750   19.1060 C   0  0  0  0  0  3  0  0  0  0  0  0
  -28.5540  -13.5420   20.0100 C   0  0  0  0  0  2  0  0  0  0  0  0
  -29.6130  -14.1320   19.1720 N   0  0  0  0  0  0  0  0  0  0  0  0
  -31.3580  -15.3920   18.7390 O   0  0  0  0  0  0  0  0  0  0  0  0
  -28.8350  -17.9040   18.7860 C   0  0  0  0  0  3  0  0  0  0  0  0
  -28.9940  -19.1520   19.8670 C   0  0  0  0  0  3  0  0  0  0  0  0
  -30.2680  -18.1340   20.1180 C   0  0  2  0  0  0  0  0  0  0  0  0
  -29.5920  -16.7880   19.5990 N   0  0  0  0  0  0  0  0  0  0  0  0
  -25.1810  -13.8630   20.4030 C   0  0  0  0  0  0  0  0  0  0  0  0
  -24.1930  -13.0620   20.9010 C   0  0  0  0  0  0  0  0  0  0  0  0
  -24.5980  -11.7170   20.6340 C   0  0  0  0  0  0  0  0  0  0  0  0
  -26.1180  -13.0090   19.8540 N   0  0  0  0  0  0  0  0  0  0  0  0
  -25.7970  -11.7040   20.0570 N   0  0  0  0  0  0  0  0  0  0  0  0
  -23.8840  -10.4500   20.8390 C   0  0  0  0  0  0  0  0  0  0  0  0
  -24.3810   -9.4500   21.7030 C   0  0  0  0  0  3  0  0  0  0  0  0
  -23.6610   -8.2520   21.9010 C   0  0  0  0  0  3  0  0  0  0  0  0
  -22.4290   -8.0460   21.2350 C   0  0  0  0  0  0  0  0  0  0  0  0
  -21.9500   -9.0340   20.3570 C   0  0  0  0  0  3  0  0  0  0  0  0
  -22.6710  -10.2230   20.1570 C   0  0  0  0  0  3  0  0  0  0  0  0
  -21.6750   -6.9030   21.3470 O   0  0  0  0  0  0  0  0  0  0  0  0
  -21.6240   -6.1850   22.5150 C   0  0  0  0  0  0  0  0  0  0  0  0
  -21.1540   -6.7530   23.7190 C   0  0  0  0  0  3  0  0  0  0  0  0
  -21.0530   -5.9600   24.8790 C   0  0  0  0  0  3  0  0  0  0  0  0
  -21.4100   -4.6000   24.8370 C   0  0  0  0  0  0  0  0  0  0  0  0
  -21.8740   -4.0300   23.6370 C   0  0  0  0  0  3  0  0  0  0  0  0
  -21.9760   -4.8210   22.4790 C   0  0  0  0  0  0  0  0  0  0  0  0
  -22.4030   -4.2610   21.3210 F   0  0  0  0  0  0  0  0  0  0  0  0
  -21.3060   -3.8350   25.9500 F   0  0  0  0  0  0  0  0  0  0  0  0
  -22.8960  -13.5240   21.4990 C   0  0  0  0  0  0  0  0  0  0  0  0
  -22.3390  -12.7500   22.4230 N   0  0  0  0  0  0  0  0  0  0  0  0
  -22.4000  -14.6030   21.1840 O   0  0  0  0  0  0  0  0  0  0  0  0
  -22.7600  -11.8730   22.6950 H   0  0  0  0  0  0  0  0  0  0  0  0
  -21.4770  -13.0390   22.8660 H   0  0  0  0  0  0  0  0  0  0  0  0
  -25.3530  -15.2420   20.3400 N   0  0  0  0  0  0  0  0  0  0  0  0
  -24.6560  -15.8950   20.6820 H   0  0  0  0  0  0  0  0  0  0  0  0
  -26.1510  -15.7000   19.9190 H   0  0  0  0  0  0  0  0  0  0  0  0
  -30.7410  -17.9800   21.5660 C   0  0  0  0  0  2  0  0  0  0  0  0
  -31.6280  -16.7520   21.8430 C   0  0  0  0  0  2  0  0  0  0  0  0
  -31.6450  -14.2250   22.2270 C   0  0  0  0  0  1  0  0  0  0  0  0
  -30.8220  -15.5170   22.2720 C   0  0  0  0  0  2  0  0  0  0  0  0
  -28.4940  -22.2860   20.3220 C   0  0  0  0  0  2  0  0  0  0  0  0
  -27.9920  -24.0020   19.7570 C   0  0  0  0  0  2  0  0  0  0  0  0
  -27.9740  -25.6230   20.3110 O   0  0  0  0  0  0  0  0  0  0  0  0
  -24.6360  -31.8760   23.1520 C   0  0  0  0  0  0  0  0  0  0  0  0
  -27.0070  -26.7940   20.1880 C   0  0  0  0  0  0  0  0  0  0  0  0
  -23.3830  -30.4810   21.5600 C   0  0  0  0  0  3  0  0  0  0  0  0
  -24.7680  -28.8000   20.1370 C   0  0  0  0  0  0  0  0  0  0  0  0
  -25.9550  -30.5960   21.3770 C   0  0  0  0  0  2  0  0  0  0  0  0
  -25.9760  -29.1640   20.7430 C   0  0  0  0  0  0  0  0  0  0  0  0
  -27.0810  -28.1820   20.7460 C   0  0  0  0  0  3  0  0  0  0  0  0
  -25.7750  -26.6130   19.5160 C   0  0  0  0  0  3  0  0  0  0  0  0
  -24.6990  -27.5470   19.5020 C   0  0  0  0  0  3  0  0  0  0  0  0
  -23.5760  -29.7630   20.1920 C   0  0  0  0  0  2  0  0  0  0  0  0
  -24.6820  -31.0150   22.0810 N   0  0  0  0  0  0  0  0  0  0  0  0
  -23.5630  -32.2060   23.6840 O   0  0  0  0  0  0  0  0  0  0  0  0
  -22.6740  -29.5280   22.5580 C   0  0  0  0  0  0  0  0  0  0  0  0
  -21.3440  -29.3570   22.4260 N   0  0  0  0  0  0  0  0  0  0  0  0
  -23.3290  -28.9390   23.4220 O   0  0  0  0  0  0  0  0  0  0  0  0
  -20.8670  -29.8790   21.7040 H   0  0  0  0  0  0  0  0  0  0  0  0
  -17.9670  -28.1250   22.9210 C   0  0  0  0  0  0  0  0  0  0  0  0
  -20.5170  -28.4480   23.2260 C   0  0  0  0  0  3  0  0  0  0  0  0
  -20.6530  -26.9910   22.7240 C   0  0  0  0  0  2  0  0  0  0  0  0
  -19.5800  -26.6020   21.7030 C   0  0  0  0  0  2  0  0  0  0  0  0
  -18.1820  -26.7500   22.3100 C   0  0  0  0  0  2  0  0  0  0  0  0
  -19.0630  -28.9280   23.3360 C   0  0  0  0  0  0  0  0  0  0  0  0
  -18.8070  -30.2090   23.8710 C   0  0  0  0  0  3  0  0  0  0  0  0
  -17.4890  -30.6870   23.9960 C   0  0  0  0  0  3  0  0  0  0  0  0
  -16.4080  -29.8830   23.5970 C   0  0  0  0  0  3  0  0  0  0  0  0
  -16.6470  -28.6040   23.0640 C   0  0  0  0  0  3  0  0  0  0  0  0
  -25.9310  -32.5020   23.7530 C   0  0  0  0  0  3  0  0  0  0  0  0
  -25.6360  -33.9000   24.1210 N   0  0  0  0  0  0  0  0  0  0  0  0
  -25.9340  -34.9730   23.3750 C   0  0  0  0  0  0  0  0  0  0  0  0
  -26.5460  -34.8880   22.3080 O   0  0  0  0  0  0  0  0  0  0  0  0
  -25.0870  -34.0390   24.9560 H   0  0  0  0  0  0  0  0  0  0  0  0
  -24.1980  -36.7860   23.1690 C   0  0  0  0  0  1  0  0  0  0  0  0
  -25.4850  -36.3560   23.8910 C   0  0  0  0  0  3  0  0  0  0  0  0
  -27.6640  -37.2270   24.6150 C   0  0  0  0  0  1  0  0  0  0  0  0
  -26.5130  -37.4080   23.7350 N   0  0  0  0  0  0  0  0  0  0  0  0
  -26.1170  -38.3260   23.9160 H   0  0  0  0  0  0  0  0  0  0  0  0
  -26.4690  -31.7180   25.0150 C   0  0  1  0  0  0  0  0  0  0  0  0
  -25.3900  -31.4500   26.0900 C   0  0  0  0  0  1  0  0  0  0  0  0
  -27.0670  -30.3530   24.6060 C   0  0  0  0  0  1  0  0  0  0  0  0
  -27.6150  -32.5170   25.6790 C   0  0  0  0  0  1  0  0  0  0  0  0
  1 48  1  0
  2  1  1  0
  3  1  1  0
  4 15  1  0
  5 10  1  0
  6  7  1  0
  6  5  1  0
  8  7  1  0
  8 19  1  0
  8  9  1  0
 10  4  1  0
 10  9  1  0
 11  4  2  0
 12 15  1  0
 12 13  1  0
 12 14  1  0
 13  1  1  0
 13 14  1  0
 14 44  1  1
 15 14  1  0
 16 17  2  0
 17 36  1  0
 18 21  1  0
 18 17  1  0
 19 20  1  0
 19 16  1  0
 20 18  2  0
 21 22  1  0
 22 23  2  0
 24 27  1  0
 24 23  1  0
 25 24  2  0
 26 25  1  0
 26 21  2  0
 27 28  1  0
 28 29  1  0
 29 30  2  0
 31 30  1  0
 31 35  1  0
 32 31  2  0
 33 28  2  0
 33 32  1  0
 34 33  1  0
 36 37  1  0
 37 39  1  0
 37 40  1  0
 38 36  2  0
 41 16  1  0
 41 42  1  0
 43 41  1  0
 44 45  1  0
 45 47  1  0
 46 47  1  0
 49 50  1  0
 49 48  1  0
 51 62  2  0
 52 50  1  0
 52 57  1  0
 53 61  1  0
 53 63  1  0
 54 60  1  0
 54 56  1  0
 55 61  1  0
 56 57  2  0
 56 55  1  0
 58 52  2  0
 59 58  1  0
 59 54  2  0
 60 53  1  0
 61 51  1  0
 63 65  2  0
 64 63  1  0
 66 64  1  0
 67 76  2  0
 67 72  1  0
 68 64  1  0
 68 72  1  0
 69 68  1  0
 70 71  1  0
 70 69  1  0
 71 67  1  0
 72 73  2  0
 73 74  1  0
 75 74  2  0
 76 75  1  0
 77 51  1  0
 77 78  1  0
 77 87  1  0
 78 81  1  0
 79 83  1  0
 79 78  1  0
 80 79  2  0
 83 82  1  0
 85 83  1  0
 85 86  1  0
 85 84  1  0
 87 90  1  1
 87 88  1  0
 89 87  1  0
M  ISO  4   4 100  15 100  49 101  50 101
M  END
>  <TORSDO>  (20) 
F 21

>  <SCORE>  (20) 
-11.583

>  <name>  (20) 
19

>  <ligand_id>  (20) 
19

>  <original_smiles>  (20) 
[H]c1c([H])c([H])c2c(c1[H])C([H])([H])C([H])([H])C([H])([H])C2([H])N([H])C(=O)C1([H])N(C(=O)C([H])(N([H])C(=O)C([H])(N([H])C([H])([H])[H])C([H])([H])[H])C(C([H])([H])[H])(C([H])([H])[H])C([H])([H])[H])C([H])([H])c2c([H])c(OC([H])([H])C([H])([H])[N+]([H])([H])C3([H])C([H])([H])N(C(=O)N4C([H])([H])C([H])([H])C([H])([H])C([H])(n5nc(-c6c([H])c([H])c(Oc7c([H])c([H])c(F)c([H])c7F)c([H])c6[H])c(C(=O)N([H])[H])c5N([H])[H])C4([H])[H])C3([H])C([H])([H])C([H])([H])C([H])([H])C([H])([H])[H])c([H])c([H])c2C1([H])[H]

>  <smiles>  (20) 
[H]c1c([H])c([H])c2c(c1[H])C([H])([H])C([H])([H])C([H])([H])C2([H])N([H])C(=O)C1([H])N(C(=O)C([H])(N([H])C(=O)C([H])(N([H])C([H])([H])[H])C([H])([H])[H])C(C([H])([H])[H])(C([H])([H])[H])C([H])([H])[H])C([H])([H])c2c([H])c(OC([H])([H])C([H])([H])[N+]([H])([H])C3([H])C([H])([H])N(C(=O)N4C([H])([H])C([H])([H])C([H])([H])C([H])(n5nc(-c6c([H])c([H])c(Oc7c([H])c([H])c(F)c([H])c7F)c([H])c6[H])c(C(=O)N([H])[H])c5N([H])[H])C4([H])[H])C3([H])C([H])([H])C([H])([H])C([H])([H])C([H])([H])[H])c([H])c([H])c2C1([H])[H]

$$$$
20:0:0
     RDKit          3D

 87 95  0  0  1  0  0  0  0  0999 V2000
  -30.2100  -23.2870   19.3800 C   0  0  0  0  0  1  0  0  0  0  0  0
  -28.9220  -23.0590   20.1780 C   0  0  0  0  0  3  0  0  0  0  0  0
  -28.4720  -21.3990   19.9470 C   0  0  0  0  0  2  0  0  0  0  0  0
  -30.5430  -15.0750   19.8750 C   0  0  0  0  0  0  0  0  0  0  0  0
  -30.3250  -12.6990   18.9510 C   0  0  0  0  0  2  0  0  0  0  0  0
  -29.3260  -12.5950   17.7780 C   0  0  0  0  0  2  0  0  0  0  0  0
  -27.9000  -12.3640   18.3090 C   0  0  0  0  0  2  0  0  0  0  0  0
  -27.5550  -13.2990   19.4980 C   0  0  0  0  0  3  0  0  0  0  0  0
  -28.6820  -13.3840   20.5480 C   0  0  0  0  0  2  0  0  0  0  0  0
  -29.8820  -13.8330   19.8300 N   0  0  0  0  0  0  0  0  0  0  0  0
  -31.7370  -15.0120   19.5480 O   0  0  0  0  0  0  0  0  0  0  0  0
  -29.8210  -19.0200   18.9110 C   0  0  0  0  0  2  0  0  0  0  0  0
  -28.5600  -18.6280   20.8290 C   0  0  0  0  0  2  0  0  0  0  0  0
  -30.5480  -17.5640   19.1210 C   0  0  0  0  0  2  0  0  0  0  0  0
  -29.2430  -17.1350   21.0140 C   0  0  0  0  0  2  0  0  0  0  0  0
  -29.3170  -19.8830   20.1540 C   0  0  0  0  0  3  0  0  0  0  0  0
  -29.9040  -16.3920   19.8650 N   0  0  0  0  0  0  0  0  0  0  0  0
  -25.2480  -13.8500   20.4360 C   0  0  0  0  0  0  0  0  0  0  0  0
  -24.2080  -13.0680   20.8540 C   0  0  0  0  0  0  0  0  0  0  0  0
  -24.6610  -11.7160   20.7470 C   0  0  0  0  0  0  0  0  0  0  0  0
  -26.2640  -12.9780   20.0920 N   0  0  0  0  0  0  0  0  0  0  0  0
  -25.9280  -11.6870   20.3460 N   0  0  0  0  0  0  0  0  0  0  0  0
  -23.9410  -10.4520   20.9480 C   0  0  0  0  0  0  0  0  0  0  0  0
  -24.3900   -9.4830   21.8730 C   0  0  0  0  0  3  0  0  0  0  0  0
  -23.6660   -8.2860   22.0640 C   0  0  0  0  0  3  0  0  0  0  0  0
  -22.4800   -8.0480   21.3290 C   0  0  0  0  0  0  0  0  0  0  0  0
  -22.0500   -9.0050   20.3940 C   0  0  0  0  0  3  0  0  0  0  0  0
  -22.7740  -10.1940   20.2020 C   0  0  0  0  0  3  0  0  0  0  0  0
  -21.7270   -6.9020   21.4300 O   0  0  0  0  0  0  0  0  0  0  0  0
  -21.6480   -6.1930   22.6020 C   0  0  0  0  0  0  0  0  0  0  0  0
  -21.1790   -6.7800   23.7980 C   0  0  0  0  0  3  0  0  0  0  0  0
  -21.0490   -5.9970   24.9610 C   0  0  0  0  0  3  0  0  0  0  0  0
  -21.3750   -4.6280   24.9300 C   0  0  0  0  0  0  0  0  0  0  0  0
  -21.8350   -4.0410   23.7390 C   0  0  0  0  0  3  0  0  0  0  0  0
  -21.9690   -4.8210   22.5770 C   0  0  0  0  0  0  0  0  0  0  0  0
  -22.3920   -4.2450   21.4260 F   0  0  0  0  0  0  0  0  0  0  0  0
  -21.2430   -3.8730   26.0470 F   0  0  0  0  0  0  0  0  0  0  0  0
  -22.8360  -13.5420   21.2350 C   0  0  0  0  0  0  0  0  0  0  0  0
  -22.1680  -12.8260   22.1310 N   0  0  0  0  0  0  0  0  0  0  0  0
  -22.3680  -14.5820   20.7730 O   0  0  0  0  0  0  0  0  0  0  0  0
  -22.5610  -11.9830   22.5250 H   0  0  0  0  0  0  0  0  0  0  0  0
  -21.2500  -13.1240   22.4300 H   0  0  0  0  0  0  0  0  0  0  0  0
  -25.4090  -15.2260   20.2920 N   0  0  0  0  0  0  0  0  0  0  0  0
  -24.6610  -15.8840   20.4860 H   0  0  0  0  0  0  0  0  0  0  0  0
  -26.2450  -15.6700   19.9360 H   0  0  0  0  0  0  0  0  0  0  0  0
  -27.9310  -24.4680   19.9500 C   0  0  0  0  0  2  0  0  0  0  0  0
  -28.2130  -26.0230   20.1720 O   0  0  0  0  0  0  0  0  0  0  0  0
  -24.6260  -31.8110   23.1830 C   0  0  0  0  0  0  0  0  0  0  0  0
  -27.1860  -27.0610   20.1110 C   0  0  0  0  0  0  0  0  0  0  0  0
  -23.4300  -30.4400   21.5210 C   0  0  0  0  0  3  0  0  0  0  0  0
  -24.8780  -28.8680   20.0850 C   0  0  0  0  0  0  0  0  0  0  0  0
  -25.9910  -30.6790   21.3780 C   0  0  0  0  0  2  0  0  0  0  0  0
  -26.0610  -29.2880   20.7070 C   0  0  0  0  0  0  0  0  0  0  0  0
  -27.2150  -28.4020   20.7000 C   0  0  0  0  0  3  0  0  0  0  0  0
  -25.9740  -26.7640   19.4490 C   0  0  0  0  0  3  0  0  0  0  0  0
  -24.8520  -27.6230   19.4370 C   0  0  0  0  0  3  0  0  0  0  0  0
  -23.6560  -29.7750   20.1370 C   0  0  0  0  0  2  0  0  0  0  0  0
  -24.7030  -30.9990   22.0820 N   0  0  0  0  0  0  0  0  0  0  0  0
  -23.5370  -32.0940   23.7080 O   0  0  0  0  0  0  0  0  0  0  0  0
  -22.7360  -29.4290   22.4700 C   0  0  0  0  0  0  0  0  0  0  0  0
  -21.4050  -29.2810   22.3490 N   0  0  0  0  0  0  0  0  0  0  0  0
  -23.4020  -28.7790   23.2800 O   0  0  0  0  0  0  0  0  0  0  0  0
  -20.9220  -29.8570   21.6740 H   0  0  0  0  0  0  0  0  0  0  0  0
  -18.0070  -28.1320   22.8730 C   0  0  0  0  0  0  0  0  0  0  0  0
  -20.5750  -28.3390   23.1080 C   0  0  0  0  0  3  0  0  0  0  0  0
  -20.6390  -26.9200   22.4940 C   0  0  0  0  0  2  0  0  0  0  0  0
  -19.5170  -26.6460   21.4880 C   0  0  0  0  0  2  0  0  0  0  0  0
  -18.1480  -26.7990   22.1560 C   0  0  0  0  0  2  0  0  0  0  0  0
  -19.1460  -28.8620   23.3050 C   0  0  0  0  0  0  0  0  0  0  0  0
  -18.9590  -30.1100   23.9370 C   0  0  0  0  0  3  0  0  0  0  0  0
  -17.6670  -30.6280   24.1400 C   0  0  0  0  0  3  0  0  0  0  0  0
  -16.5420  -29.8950   23.7230 C   0  0  0  0  0  3  0  0  0  0  0  0
  -16.7140  -28.6480   23.0960 C   0  0  0  0  0  3  0  0  0  0  0  0
  -25.9000  -32.4380   23.8260 C   0  0  0  0  0  3  0  0  0  0  0  0
  -25.5890  -33.8360   24.1690 N   0  0  0  0  0  0  0  0  0  0  0  0
  -25.9150  -34.8990   23.4210 C   0  0  0  0  0  0  0  0  0  0  0  0
  -26.5710  -34.8060   22.3810 O   0  0  0  0  0  0  0  0  0  0  0  0
  -25.0040  -33.9810   24.9790 H   0  0  0  0  0  0  0  0  0  0  0  0
  -24.1730  -36.6950   23.1310 C   0  0  0  0  0  1  0  0  0  0  0  0
  -25.4380  -36.2850   23.9020 C   0  0  0  0  0  3  0  0  0  0  0  0
  -27.5900  -37.1760   24.6810 C   0  0  0  0  0  1  0  0  0  0  0  0
  -26.4630  -37.3430   23.7670 N   0  0  0  0  0  0  0  0  0  0  0  0
  -26.0580  -38.2610   23.9280 H   0  0  0  0  0  0  0  0  0  0  0  0
  -26.3950  -31.6580   25.1070 C   0  0  1  0  0  0  0  0  0  0  0  0
  -25.2900  -31.4240   26.1620 C   0  0  0  0  0  1  0  0  0  0  0  0
  -26.9760  -30.2770   24.7230 C   0  0  0  0  0  1  0  0  0  0  0  0
  -27.5430  -32.4440   25.7840 C   0  0  0  0  0  1  0  0  0  0  0  0
  2  1  1  0
  3  2  1  0
  5 10  1  0
  6  7  1  0
  6  5  1  0
  8  7  1  0
  8 21  1  0
  8  9  1  0
 10  4  1  0
 10  9  1  0
 11  4  2  0
 12 14  1  0
 12 16  1  0
 13 15  1  0
 14 17  1  0
 16  3  1  0
 16 13  1  0
 17  4  1  0
 17 15  1  0
 18 19  2  0
 19 38  1  0
 20 19  1  0
 20 23  1  0
 21 22  1  0
 21 18  1  0
 22 20  2  0
 23 24  1  0
 24 25  2  0
 26 29  1  0
 26 25  1  0
 27 26  2  0
 28 27  1  0
 28 23  2  0
 29 30  1  0
 30 31  1  0
 31 32  2  0
 33 32  1  0
 33 37  1  0
 34 33  2  0
 35 30  2  0
 35 34  1  0
 36 35  1  0
 38 39  1  0
 39 42  1  0
 39 41  1  0
 40 38  2  0
 43 18  1  0
 43 44  1  0
 45 43  1  0
 46 47  1  0
 46  2  1  0
 48 59  2  0
 49 47  1  0
 49 54  1  0
 50 58  1  0
 50 60  1  0
 51 57  1  0
 51 53  1  0
 52 58  1  0
 53 52  1  0
 54 53  2  0
 55 49  2  0
 56 55  1  0
 56 51  2  0
 57 50  1  0
 58 48  1  0
 60 62  2  0
 61 60  1  0
 63 61  1  0
 64 73  2  0
 64 69  1  0
 65 61  1  0
 65 69  1  0
 66 65  1  0
 67 68  1  0
 67 66  1  0
 68 64  1  0
 69 70  2  0
 70 71  1  0
 72 71  2  0
 73 72  1  0
 74 48  1  0
 74 75  1  0
 74 84  1  0
 75 78  1  0
 76 80  1  0
 76 75  1  0
 77 76  2  0
 80 79  1  0
 82 80  1  0
 82 83  1  0
 82 81  1  0
 84 87  1  1
 84 85  1  0
 86 84  1  0
M  ISO  4   4 100  17 100  46 101  47 101
M  END
>  <TORSDO>  (21) 
F 18

>  <SCORE>  (21) 
-15.800

>  <name>  (21) 
20

>  <ligand_id>  (21) 
20

>  <original_smiles>  (21) 
[H]c1c([H])c([H])c2c(c1[H])C([H])([H])C([H])([H])C([H])([H])C2([H])N([H])C(=O)C1([H])N(C(=O)C([H])(N([H])C(=O)C([H])(N([H])C([H])([H])[H])C([H])([H])[H])C(C([H])([H])[H])(C([H])([H])[H])C([H])([H])[H])C([H])([H])c2c([H])c(OC([H])([H])C([H])(C([H])([H])[H])C([H])([H])C3([H])C([H])([H])C([H])([H])N(C(=O)N4C([H])([H])C([H])([H])C([H])([H])C([H])(n5nc(-c6c([H])c([H])c(Oc7c([H])c([H])c(F)c([H])c7F)c([H])c6[H])c(C(=O)N([H])[H])c5N([H])[H])C4([H])[H])C([H])([H])C3([H])[H])c([H])c([H])c2C1([H])[H]

>  <smiles>  (21) 
[H]c1c([H])c([H])c2c(c1[H])C([H])([H])C([H])([H])C([H])([H])C2([H])N([H])C(=O)C1([H])N(C(=O)C([H])(N([H])C(=O)C([H])(N([H])C([H])([H])[H])C([H])([H])[H])C(C([H])([H])[H])(C([H])([H])[H])C([H])([H])[H])C([H])([H])c2c([H])c(OC([H])([H])C([H])(C([H])([H])[H])C([H])([H])C3([H])C([H])([H])C([H])([H])N(C(=O)N4C([H])([H])C([H])([H])C([H])([H])C([H])(n5nc(-c6c([H])c([H])c(Oc7c([H])c([H])c(F)c([H])c7F)c([H])c6[H])c(C(=O)N([H])[H])c5N([H])[H])C4([H])[H])C([H])([H])C3([H])[H])c([H])c([H])c2C1([H])[H]

$$$$
21:0:0
     RDKit          3D

 89 97  0  0  1  0  0  0  0  0999 V2000
  -29.2110  -21.1840   19.4900 C   0  0  0  0  0  2  0  0  0  0  0  0
  -29.5060  -22.2840   21.5050 C   0  0  0  0  0  2  0  0  0  0  0  0
  -29.6360  -19.8300   20.4940 C   0  0  0  0  0  3  0  0  0  0  0  0
  -29.3060  -22.8260   20.0490 C   0  0  0  0  0  3  0  0  0  0  0  0
  -30.2180  -20.8300   21.5660 C   0  0  0  0  0  3  0  0  0  0  0  0
  -30.8740  -15.5820   19.9820 C   0  0  0  0  0  0  0  0  0  0  0  0
  -30.7250  -13.1820   18.9800 C   0  0  0  0  0  2  0  0  0  0  0  0
  -29.7510  -13.0650   17.7800 C   0  0  0  0  0  2  0  0  0  0  0  0
  -28.3150  -12.8110   18.2680 C   0  0  0  0  0  2  0  0  0  0  0  0
  -27.9430  -13.7240   19.4630 C   0  0  0  0  0  3  0  0  0  0  0  0
  -29.0410  -13.7870   20.5460 C   0  0  0  0  0  2  0  0  0  0  0  0
  -30.2560  -14.2960   19.8890 N   0  0  0  0  0  0  0  0  0  0  0  0
  -32.0800  -15.5200   19.6920 O   0  0  0  0  0  0  0  0  0  0  0  0
  -30.5320  -18.3320   20.1670 C   0  0  0  0  0  0  0  0  0  0  0  0
  -30.1740  -16.8840   20.2130 N   0  0  0  0  0  0  0  0  0  0  0  0
  -31.6940  -18.5770   19.8370 O   0  0  0  0  0  0  0  0  0  0  0  0
  -29.2040  -16.7480   20.4510 H   0  0  0  0  0  0  0  0  0  0  0  0
  -25.6160  -14.3070   20.3200 C   0  0  0  0  0  0  0  0  0  0  0  0
  -24.5530  -13.5430   20.7100 C   0  0  0  0  0  0  0  0  0  0  0  0
  -24.9900  -12.1840   20.6270 C   0  0  0  0  0  0  0  0  0  0  0  0
  -26.6300  -13.4190   20.0150 N   0  0  0  0  0  0  0  0  0  0  0  0
  -26.2690  -12.1340   20.2680 N   0  0  0  0  0  0  0  0  0  0  0  0
  -24.2430  -10.9330   20.8100 C   0  0  0  0  0  0  0  0  0  0  0  0
  -24.6440   -9.9620   21.7560 C   0  0  0  0  0  3  0  0  0  0  0  0
  -23.8950   -8.7790   21.9280 C   0  0  0  0  0  3  0  0  0  0  0  0
  -22.7300   -8.5560   21.1560 C   0  0  0  0  0  0  0  0  0  0  0  0
  -22.3480   -9.5150   20.2000 C   0  0  0  0  0  3  0  0  0  0  0  0
  -23.0980  -10.6900   20.0250 C   0  0  0  0  0  3  0  0  0  0  0  0
  -21.9540   -7.4240   21.2370 O   0  0  0  0  0  0  0  0  0  0  0  0
  -21.8060   -6.7360   22.4150 C   0  0  0  0  0  0  0  0  0  0  0  0
  -21.3100   -7.3570   23.5820 C   0  0  0  0  0  3  0  0  0  0  0  0
  -21.1060   -6.5970   24.7510 C   0  0  0  0  0  3  0  0  0  0  0  0
  -21.3890   -5.2170   24.7540 C   0  0  0  0  0  0  0  0  0  0  0  0
  -21.8790   -4.5970   23.5910 C   0  0  0  0  0  3  0  0  0  0  0  0
  -22.0840   -5.3550   22.4240 C   0  0  0  0  0  0  0  0  0  0  0  0
  -22.5340   -4.7480   21.2990 F   0  0  0  0  0  0  0  0  0  0  0  0
  -21.1870   -4.4850   25.8740 F   0  0  0  0  0  0  0  0  0  0  0  0
  -23.1770  -14.0420   21.0370 C   0  0  0  0  0  0  0  0  0  0  0  0
  -22.4710  -13.3570   21.9300 N   0  0  0  0  0  0  0  0  0  0  0  0
  -22.7370  -15.0760   20.5350 O   0  0  0  0  0  0  0  0  0  0  0  0
  -22.8410  -12.5210   22.3570 H   0  0  0  0  0  0  0  0  0  0  0  0
  -21.5500  -13.6770   22.1930 H   0  0  0  0  0  0  0  0  0  0  0  0
  -25.7990  -15.6800   20.1680 N   0  0  0  0  0  0  0  0  0  0  0  0
  -25.0450  -16.3420   20.3130 H   0  0  0  0  0  0  0  0  0  0  0  0
  -26.6210  -16.1020   19.7570 H   0  0  0  0  0  0  0  0  0  0  0  0
  -31.0000  -20.9810   24.0260 C   0  0  0  0  0  1  0  0  0  0  0  0
  -30.1840  -20.2110   22.9800 C   0  0  0  0  0  2  0  0  0  0  0  0
  -28.2930  -24.3290   19.7620 C   0  0  0  0  0  2  0  0  0  0  0  0
  -28.4490  -25.9830   19.8810 O   0  0  0  0  0  0  0  0  0  0  0  0
  -24.6640  -31.7480   23.0050 C   0  0  0  0  0  0  0  0  0  0  0  0
  -27.3940  -27.0500   19.8300 C   0  0  0  0  0  0  0  0  0  0  0  0
  -23.5100  -30.3300   21.3580 C   0  0  0  0  0  3  0  0  0  0  0  0
  -25.0080  -28.8310   19.8670 C   0  0  0  0  0  0  0  0  0  0  0  0
  -26.0600  -30.6670   21.1710 C   0  0  0  0  0  2  0  0  0  0  0  0
  -26.1860  -29.2760   20.4780 C   0  0  0  0  0  0  0  0  0  0  0  0
  -27.3700  -28.4060   20.4360 C   0  0  0  0  0  3  0  0  0  0  0  0
  -26.1790  -26.7680   19.1660 C   0  0  0  0  0  3  0  0  0  0  0  0
  -25.0300  -27.6020   19.1880 C   0  0  0  0  0  3  0  0  0  0  0  0
  -23.7460  -29.6910   19.9610 C   0  0  0  0  0  2  0  0  0  0  0  0
  -24.7670  -30.9430   21.8980 N   0  0  0  0  0  0  0  0  0  0  0  0
  -23.5720  -31.9720   23.5540 O   0  0  0  0  0  0  0  0  0  0  0  0
  -22.8840  -29.2810   22.3140 C   0  0  0  0  0  0  0  0  0  0  0  0
  -21.5610  -29.0490   22.2060 N   0  0  0  0  0  0  0  0  0  0  0  0
  -23.5940  -28.6770   23.1200 O   0  0  0  0  0  0  0  0  0  0  0  0
  -21.0380  -29.5890   21.5320 H   0  0  0  0  0  0  0  0  0  0  0  0
  -18.2640  -27.6240   22.7200 C   0  0  0  0  0  0  0  0  0  0  0  0
  -20.8030  -28.0520   22.9720 C   0  0  0  0  0  3  0  0  0  0  0  0
  -20.9930  -26.6360   22.3820 C   0  0  0  0  0  2  0  0  0  0  0  0
  -19.9080  -26.2540   21.3690 C   0  0  0  0  0  2  0  0  0  0  0  0
  -18.5240  -26.2990   22.0230 C   0  0  0  0  0  2  0  0  0  0  0  0
  -19.3340  -28.4540   23.1510 C   0  0  0  0  0  0  0  0  0  0  0  0
  -19.0340  -29.6890   23.7680 C   0  0  0  0  0  3  0  0  0  0  0  0
  -17.6990  -30.0960   23.9540 C   0  0  0  0  0  3  0  0  0  0  0  0
  -16.6450  -29.2660   23.5360 C   0  0  0  0  0  3  0  0  0  0  0  0
  -16.9290  -28.0310   22.9240 C   0  0  0  0  0  3  0  0  0  0  0  0
  -25.9130  -32.4410   23.6300 C   0  0  0  0  0  3  0  0  0  0  0  0
  -25.5250  -33.8070   24.0250 N   0  0  0  0  0  0  0  0  0  0  0  0
  -25.7830  -34.9150   23.3180 C   0  0  0  0  0  0  0  0  0  0  0  0
  -26.4360  -34.8970   22.2710 O   0  0  0  0  0  0  0  0  0  0  0  0
  -24.9370  -33.8890   24.8420 H   0  0  0  0  0  0  0  0  0  0  0  0
  -23.9540  -36.6320   23.0940 C   0  0  0  0  0  1  0  0  0  0  0  0
  -25.2360  -36.2550   23.8550 C   0  0  0  0  0  3  0  0  0  0  0  0
  -27.3400  -37.2200   24.6770 C   0  0  0  0  0  1  0  0  0  0  0  0
  -26.2070  -37.3670   23.7660 N   0  0  0  0  0  0  0  0  0  0  0  0
  -25.7560  -38.2570   23.9630 H   0  0  0  0  0  0  0  0  0  0  0  0
  -26.4960  -31.6620   24.8750 C   0  0  1  0  0  0  0  0  0  0  0  0
  -25.4400  -31.3420   25.9600 C   0  0  0  0  0  1  0  0  0  0  0  0
  -27.1360  -30.3250   24.4400 C   0  0  0  0  0  1  0  0  0  0  0  0
  -27.6210  -32.4950   25.5330 C   0  0  0  0  0  1  0  0  0  0  0  0
  1  4  1  0
  1  3  1  0
  2  5  1  0
  3 14  1  0
  3  5  1  0
  4 48  1  0
  4  2  1  0
  5 47  1  0
  6 15  1  0
  7 12  1  0
  8  9  1  0
  8  7  1  0
 10  9  1  0
 10 21  1  0
 10 11  1  0
 12  6  1  0
 12 11  1  0
 13  6  2  0
 14 15  1  0
 15 17  1  0
 16 14  2  0
 18 19  2  0
 19 38  1  0
 20 19  1  0
 20 23  1  0
 21 22  1  0
 21 18  1  0
 22 20  2  0
 23 24  1  0
 24 25  2  0
 26 29  1  0
 26 25  1  0
 27 26  2  0
 28 27  1  0
 28 23  2  0
 29 30  1  0
 30 35  2  0
 30 31  1  0
 31 32  2  0
 32 33  1  0
 33 37  1  0
 34 33  2  0
 35 34  1  0
 36 35  1  0
 38 39  1  0
 39 42  1  0
 39 41  1  0
 40 38  2  0
 43 44  1  0
 43 18  1  0
 45 43  1  0
 47 46  1  0
 48 49  1  0
 50 61  2  0
 51 49  1  0
 51 56  1  0
 52 60  1  0
 52 62  1  0
 53 59  1  0
 53 55  1  0
 54 60  1  0
 55 54  1  0
 56 55  2  0
 57 58  1  0
 57 51  2  0
 58 53  2  0
 59 52  1  0
 60 50  1  0
 62 64  2  0
 63 62  1  0
 65 63  1  0
 66 75  2  0
 66 71  1  0
 67 63  1  0
 67 71  1  0
 68 67  1  0
 69 70  1  0
 69 68  1  0
 70 66  1  0
 71 72  2  0
 72 73  1  0
 74 73  2  0
 75 74  1  0
 76 50  1  0
 76 77  1  0
 76 86  1  0
 77 80  1  0
 78 82  1  0
 78 77  1  0
 79 78  2  0
 82 81  1  0
 84 82  1  0
 84 85  1  0
 84 83  1  0
 86 89  1  1
 86 87  1  0
 88 86  1  0
M  ISO  4   6 100  15 100  48 101  49 101
M  END
>  <TORSDO>  (22) 
F 18

>  <SCORE>  (22) 
-14.951

>  <name>  (22) 
21

>  <ligand_id>  (22) 
21

>  <original_smiles>  (22) 
[H]c1c([H])c([H])c2c(c1[H])C([H])([H])C([H])([H])C([H])([H])C2([H])N([H])C(=O)C1([H])N(C(=O)C([H])(N([H])C(=O)C([H])(N([H])C([H])([H])[H])C([H])([H])[H])C(C([H])([H])[H])(C([H])([H])[H])C([H])([H])[H])C([H])([H])c2c([H])c(OC([H])([H])C3([H])C([H])([H])C([H])(C(=O)N([H])C(=O)N4C([H])([H])C([H])([H])C([H])([H])C([H])(n5nc(-c6c([H])c([H])c(Oc7c([H])c([H])c(F)c([H])c7F)c([H])c6[H])c(C(=O)N([H])[H])c5N([H])[H])C4([H])[H])C([H])(C([H])([H])C([H])([H])[H])C3([H])[H])c([H])c([H])c2C1([H])[H]

>  <smiles>  (22) 
[H]c1c([H])c([H])c2c(c1[H])C([H])([H])C([H])([H])C([H])([H])C2([H])N([H])C(=O)C1([H])N(C(=O)C([H])(N([H])C(=O)C([H])(N([H])C([H])([H])[H])C([H])([H])[H])C(C([H])([H])[H])(C([H])([H])[H])C([H])([H])[H])C([H])([H])c2c([H])c(OC([H])([H])C3([H])C([H])([H])C([H])(C(=O)N([H])C(=O)N4C([H])([H])C([H])([H])C([H])([H])C([H])(n5nc(-c6c([H])c([H])c(Oc7c([H])c([H])c(F)c([H])c7F)c([H])c6[H])c(C(=O)N([H])[H])c5N([H])[H])C4([H])[H])C([H])(C([H])([H])C([H])([H])[H])C3([H])[H])c([H])c([H])c2C1([H])[H]

$$$$
22:0:0
     RDKit          3D

 91 99  0  0  1  0  0  0  0  0999 V2000
  -28.7420  -21.1670   18.8640 C   0  0  0  0  0  2  0  0  0  0  0  0
  -28.1350  -22.5560   19.2950 C   0  0  0  0  0  2  0  0  0  0  0  0
  -30.4680  -21.4020   20.5550 C   0  0  0  0  0  2  0  0  0  0  0  0
  -29.4190  -20.3510   20.0140 C   0  0  0  0  0  3  0  0  0  0  0  0
  -29.0810  -23.5710   20.0340 C   0  0  0  0  0  3  0  0  0  0  0  0
  -29.8600  -22.7220   21.0260 N   0  0  0  0  0  4  0  0  0  0  0  0
  -30.6080  -23.2800   21.4070 H   0  0  0  0  0  0  0  0  0  0  0  0
  -29.2500  -22.5020   21.7980 H   0  0  0  0  0  0  0  0  0  0  0  0
  -28.0540  -24.7530   22.1680 C   0  0  0  0  0  1  0  0  0  0  0  0
  -28.2440  -24.8570   20.6450 C   0  0  0  0  0  3  0  0  0  0  0  0
  -28.5070  -26.3190   20.3300 O   0  0  0  0  0  0  0  0  0  0  0  0
  -24.6420  -31.7910   23.2150 C   0  0  0  0  0  0  0  0  0  0  0  0
  -27.4060  -27.2170   20.2560 C   0  0  0  0  0  0  0  0  0  0  0  0
  -23.5090  -30.3830   21.5340 C   0  0  0  0  0  3  0  0  0  0  0  0
  -25.0290  -28.8470   20.1570 C   0  0  0  0  0  0  0  0  0  0  0  0
  -26.0550  -30.7120   21.4490 C   0  0  0  0  0  2  0  0  0  0  0  0
  -26.1740  -29.3320   20.8010 C   0  0  0  0  0  0  0  0  0  0  0  0
  -27.3640  -28.5290   20.8440 C   0  0  0  0  0  3  0  0  0  0  0  0
  -26.2410  -26.8180   19.5610 C   0  0  0  0  0  3  0  0  0  0  0  0
  -25.0670  -27.5940   19.5300 C   0  0  0  0  0  3  0  0  0  0  0  0
  -23.7820  -29.7130   20.1610 C   0  0  0  0  0  2  0  0  0  0  0  0
  -24.7510  -30.9800   22.1220 N   0  0  0  0  0  0  0  0  0  0  0  0
  -23.5390  -32.0620   23.7120 O   0  0  0  0  0  0  0  0  0  0  0  0
  -22.8220  -29.3600   22.4700 C   0  0  0  0  0  0  0  0  0  0  0  0
  -21.5000  -29.1760   22.3060 N   0  0  0  0  0  0  0  0  0  0  0  0
  -23.4780  -28.7330   23.3050 O   0  0  0  0  0  0  0  0  0  0  0  0
  -21.0250  -29.7320   21.6080 H   0  0  0  0  0  0  0  0  0  0  0  0
  -18.1160  -27.9690   22.7190 C   0  0  0  0  0  0  0  0  0  0  0  0
  -20.6670  -28.2310   23.0520 C   0  0  0  0  0  3  0  0  0  0  0  0
  -20.7860  -26.8050   22.4680 C   0  0  0  0  0  2  0  0  0  0  0  0
  -19.7100  -26.4880   21.4250 C   0  0  0  0  0  2  0  0  0  0  0  0
  -18.3120  -26.6250   22.0360 C   0  0  0  0  0  2  0  0  0  0  0  0
  -19.2230  -28.7300   23.1810 C   0  0  0  0  0  0  0  0  0  0  0  0
  -18.9880  -29.9890   23.7760 C   0  0  0  0  0  3  0  0  0  0  0  0
  -17.6780  -30.4850   23.9160 C   0  0  0  0  0  3  0  0  0  0  0  0
  -16.5860  -29.7200   23.4720 C   0  0  0  0  0  3  0  0  0  0  0  0
  -16.8050  -28.4640   22.8790 C   0  0  0  0  0  3  0  0  0  0  0  0
  -25.8980  -32.4360   23.8780 C   0  0  0  0  0  3  0  0  0  0  0  0
  -26.3720  -31.6790   25.1810 C   0  0  1  0  0  0  0  0  0  0  0  0
  -25.2420  -31.4460   26.2090 C   0  0  0  0  0  1  0  0  0  0  0  0
  -26.9820  -30.3020   24.8310 C   0  0  0  0  0  1  0  0  0  0  0  0
  -27.4850  -32.4910   25.8850 C   0  0  0  0  0  1  0  0  0  0  0  0
  -25.5680  -33.8360   24.1850 N   0  0  0  0  0  0  0  0  0  0  0  0
  -25.9150  -34.8850   23.4290 C   0  0  0  0  0  0  0  0  0  0  0  0
  -26.6170  -34.7810   22.4190 O   0  0  0  0  0  0  0  0  0  0  0  0
  -24.9470  -33.9920   24.9660 H   0  0  0  0  0  0  0  0  0  0  0  0
  -24.1830  -36.6650   23.0170 C   0  0  0  0  0  1  0  0  0  0  0  0
  -25.4030  -36.2720   23.8650 C   0  0  0  0  0  3  0  0  0  0  0  0
  -27.5010  -37.1850   24.7550 C   0  0  0  0  0  1  0  0  0  0  0  0
  -26.4270  -37.3350   23.7780 N   0  0  0  0  0  0  0  0  0  0  0  0
  -26.0020  -38.2490   23.9130 H   0  0  0  0  0  0  0  0  0  0  0  0
  -29.8390  -18.8370   19.5250 C   0  0  0  0  0  2  0  0  0  0  0  0
  -30.2870  -17.9660   21.9290 C   0  0  0  0  0  1  0  0  0  0  0  0
  -30.4010  -17.6040   20.4380 C   0  0  0  0  0  3  0  0  0  0  0  0
  -29.8290  -16.0850   20.2110 C   0  0  0  0  0  2  0  0  0  0  0  0
  -30.7150  -14.7430   20.0540 C   0  0  0  0  0  0  0  0  0  0  0  0
  -30.5010  -12.4700   19.0280 C   0  0  0  0  0  2  0  0  0  0  0  0
  -29.5060  -12.5820   17.8520 C   0  0  0  0  0  2  0  0  0  0  0  0
  -28.0500  -12.4200   18.3410 C   0  0  0  0  0  2  0  0  0  0  0  0
  -27.7390  -13.2920   19.5840 C   0  0  0  0  0  3  0  0  0  0  0  0
  -28.8410  -13.1480   20.6550 C   0  0  0  0  0  2  0  0  0  0  0  0
  -30.1240  -13.4950   20.0300 N   0  0  0  0  0  0  0  0  0  0  0  0
  -31.8990  -14.8450   19.7140 O   0  0  0  0  0  0  0  0  0  0  0  0
  -25.3810  -13.9090   20.4020 C   0  0  0  0  0  0  0  0  0  0  0  0
  -24.3230  -13.1460   20.8080 C   0  0  0  0  0  0  0  0  0  0  0  0
  -24.7730  -11.7880   20.7550 C   0  0  0  0  0  0  0  0  0  0  0  0
  -26.4100  -13.0220   20.1240 N   0  0  0  0  0  0  0  0  0  0  0  0
  -26.0510  -11.7420   20.3990 N   0  0  0  0  0  0  0  0  0  0  0  0
  -24.0460  -10.5320   20.9640 C   0  0  0  0  0  0  0  0  0  0  0  0
  -24.4940   -9.5570   21.8830 C   0  0  0  0  0  3  0  0  0  0  0  0
  -23.7620   -8.3670   22.0810 C   0  0  0  0  0  3  0  0  0  0  0  0
  -22.5710   -8.1390   21.3520 C   0  0  0  0  0  0  0  0  0  0  0  0
  -22.1450   -9.0990   20.4170 C   0  0  0  0  0  3  0  0  0  0  0  0
  -22.8800  -10.2800   20.2170 C   0  0  0  0  0  3  0  0  0  0  0  0
  -21.8080   -6.9990   21.4560 O   0  0  0  0  0  0  0  0  0  0  0  0
  -21.7620   -6.2620   22.6120 C   0  0  0  0  0  0  0  0  0  0  0  0
  -21.3350   -6.8260   23.8320 C   0  0  0  0  0  3  0  0  0  0  0  0
  -21.2260   -6.0200   24.9800 C   0  0  0  0  0  3  0  0  0  0  0  0
  -21.5460   -4.6510   24.9150 C   0  0  0  0  0  0  0  0  0  0  0  0
  -21.9780   -4.0850   23.7020 C   0  0  0  0  0  3  0  0  0  0  0  0
  -22.0810   -4.8890   22.5530 C   0  0  0  0  0  0  0  0  0  0  0  0
  -22.4740   -4.3340   21.3800 F   0  0  0  0  0  0  0  0  0  0  0  0
  -21.4350   -3.8800   26.0200 F   0  0  0  0  0  0  0  0  0  0  0  0
  -22.9380  -13.6310   21.1410 C   0  0  0  0  0  0  0  0  0  0  0  0
  -22.2400  -12.9280   22.0240 N   0  0  0  0  0  0  0  0  0  0  0  0
  -22.4920  -14.6700   20.6560 O   0  0  0  0  0  0  0  0  0  0  0  0
  -22.6300  -12.0900   22.4230 H   0  0  0  0  0  0  0  0  0  0  0  0
  -21.3170  -13.2250   22.3020 H   0  0  0  0  0  0  0  0  0  0  0  0
  -25.5600  -15.2800   20.2230 N   0  0  0  0  0  0  0  0  0  0  0  0
  -24.8060  -15.9500   20.3350 H   0  0  0  0  0  0  0  0  0  0  0  0
  -26.4020  -15.7010   19.8510 H   0  0  0  0  0  0  0  0  0  0  0  0
  1  2  1  0
  1  4  1  0
  2  5  1  0
  3  6  1  0
  4 52  1  0
  4  3  1  0
  5 10  1  0
  5  6  1  0
  6  7  1  0
  6  8  1  0
 10  9  1  0
 11 10  1  0
 12 23  2  0
 13 11  1  0
 13 18  1  0
 14 22  1  0
 14 24  1  0
 15 21  1  0
 15 17  1  0
 16 22  1  0
 17 18  2  0
 17 16  1  0
 19 13  2  0
 20 19  1  0
 20 15  2  0
 21 14  1  0
 22 12  1  0
 24 26  2  0
 25 24  1  0
 27 25  1  0
 28 37  2  0
 28 33  1  0
 29 25  1  0
 29 33  1  0
 30 29  1  0
 31 32  1  0
 31 30  1  0
 32 28  1  0
 33 34  2  0
 34 35  1  0
 36 35  2  0
 37 36  1  0
 38 12  1  0
 38 43  1  0
 38 39  1  0
 39 42  1  1
 39 40  1  0
 41 39  1  0
 43 46  1  0
 44 48  1  0
 44 43  1  0
 45 44  2  0
 48 47  1  0
 50 48  1  0
 50 51  1  0
 50 49  1  0
 52 54  1  0
 54 53  1  0
 55 54  1  0
 56 55  1  0
 57 62  1  0
 58 59  1  0
 58 57  1  0
 60 59  1  0
 60 67  1  0
 60 61  1  0
 62 56  1  0
 62 61  1  0
 63 56  2  0
 64 65  2  0
 65 84  1  0
 66 65  1  0
 66 69  1  0
 67 68  1  0
 67 64  1  0
 68 66  2  0
 69 70  1  0
 70 71  2  0
 72 75  1  0
 72 71  1  0
 73 72  2  0
 74 73  1  0
 74 69  2  0
 75 76  1  0
 76 77  1  0
 77 78  2  0
 79 78  1  0
 79 83  1  0
 80 79  2  0
 81 76  2  0
 81 80  1  0
 82 81  1  0
 84 85  1  0
 85 88  1  0
 85 87  1  0
 86 84  2  0
 89 90  1  0
 89 64  1  0
 91 89  1  0
M  ISO  4  10 101  11 101  55 100  56 100
M  END
>  <TORSDO>  (23) 
F 20

>  <SCORE>  (23) 
-13.545

>  <name>  (23) 
22

>  <ligand_id>  (23) 
22

>  <original_smiles>  (23) 
[H]c1c([H])c([H])c2c(c1[H])C([H])([H])C([H])([H])C([H])([H])C2([H])N([H])C(=O)C1([H])N(C(=O)C([H])(N([H])C(=O)C([H])(N([H])C([H])([H])[H])C([H])([H])[H])C(C([H])([H])[H])(C([H])([H])[H])C([H])([H])[H])C([H])([H])c2c([H])c(OC([H])(C([H])([H])[H])C3([H])C([H])([H])C([H])([H])C([H])(C([H])([H])C([H])(C([H])([H])[H])C([H])([H])C(=O)N4C([H])([H])C([H])([H])C([H])([H])C([H])(n5nc(-c6c([H])c([H])c(Oc7c([H])c([H])c(F)c([H])c7F)c([H])c6[H])c(C(=O)N([H])[H])c5N([H])[H])C4([H])[H])C([H])([H])[N+]3([H])[H])c([H])c([H])c2C1([H])[H]

>  <smiles>  (23) 
[H]c1c([H])c([H])c2c(c1[H])C([H])([H])C([H])([H])C([H])([H])C2([H])N([H])C(=O)C1([H])N(C(=O)C([H])(N([H])C(=O)C([H])(N([H])C([H])([H])[H])C([H])([H])[H])C(C([H])([H])[H])(C([H])([H])[H])C([H])([H])[H])C([H])([H])c2c([H])c(OC([H])(C([H])([H])[H])C3([H])C([H])([H])C([H])([H])C([H])(C([H])([H])C([H])(C([H])([H])[H])C([H])([H])C(=O)N4C([H])([H])C([H])([H])C([H])([H])C([H])(n5nc(-c6c([H])c([H])c(Oc7c([H])c([H])c(F)c([H])c7F)c([H])c6[H])c(C(=O)N([H])[H])c5N([H])[H])C4([H])[H])C([H])([H])[N+]3([H])[H])c([H])c([H])c2C1([H])[H]

$$$$
23:0:0
     RDKit          3D

 90 98  0  0  1  0  0  0  0  0999 V2000
  -28.7480  -20.7960   20.4980 N   0  0  0  0  0  4  0  0  0  0  0  0
  -28.8590  -20.7530   21.4970 H   0  0  0  0  0  0  0  0  0  0  0  0
  -27.7530  -20.7200   20.3620 H   0  0  0  0  0  0  0  0  0  0  0  0
  -30.4270  -15.4740   19.8890 C   0  0  0  0  0  0  0  0  0  0  0  0
  -30.3180  -13.0360   18.9280 C   0  0  0  0  0  2  0  0  0  0  0  0
  -29.3240  -12.7590   17.7740 C   0  0  0  0  0  2  0  0  0  0  0  0
  -27.9290  -12.4330   18.3280 C   0  0  0  0  0  2  0  0  0  0  0  0
  -27.5360  -13.3850   19.4830 C   0  0  0  0  0  3  0  0  0  0  0  0
  -28.6590  -13.6030   20.5200 C   0  0  0  0  0  2  0  0  0  0  0  0
  -29.7950  -14.1850   19.7770 N   0  0  0  0  0  0  0  0  0  0  0  0
  -31.6450  -15.3540   19.6770 O   0  0  0  0  0  0  0  0  0  0  0  0
  -28.5610  -17.7650   20.1140 C   0  0  0  0  0  2  0  0  0  0  0  0
  -30.5400  -18.2810   20.3390 C   0  0  0  0  0  3  0  0  0  0  0  0
  -29.2780  -19.2600   19.9070 C   0  0  0  0  0  3  0  0  0  0  0  0
  -29.8630  -16.8890   20.0260 N   0  0  0  0  0  0  0  0  0  0  0  0
  -25.2370  -13.8900   20.4410 C   0  0  0  0  0  0  0  0  0  0  0  0
  -24.2090  -13.0920   20.8580 C   0  0  0  0  0  0  0  0  0  0  0  0
  -24.6810  -11.7470   20.7510 C   0  0  0  0  0  0  0  0  0  0  0  0
  -26.2620  -13.0320   20.0920 N   0  0  0  0  0  0  0  0  0  0  0  0
  -25.9480  -11.7340   20.3470 N   0  0  0  0  0  0  0  0  0  0  0  0
  -23.9750  -10.4730   20.9510 C   0  0  0  0  0  0  0  0  0  0  0  0
  -24.4390   -9.5070   21.8690 C   0  0  0  0  0  3  0  0  0  0  0  0
  -23.7270   -8.3020   22.0600 C   0  0  0  0  0  3  0  0  0  0  0  0
  -22.5380   -8.0550   21.3320 C   0  0  0  0  0  0  0  0  0  0  0  0
  -22.0950   -9.0120   20.4030 C   0  0  0  0  0  3  0  0  0  0  0  0
  -22.8060  -10.2070   20.2100 C   0  0  0  0  0  3  0  0  0  0  0  0
  -21.7980   -6.9030   21.4340 O   0  0  0  0  0  0  0  0  0  0  0  0
  -21.7390   -6.1850   22.6010 C   0  0  0  0  0  0  0  0  0  0  0  0
  -21.2690   -6.7560   23.8040 C   0  0  0  0  0  3  0  0  0  0  0  0
  -21.1590   -5.9620   24.9630 C   0  0  0  0  0  3  0  0  0  0  0  0
  -21.5090   -4.5990   24.9210 C   0  0  0  0  0  0  0  0  0  0  0  0
  -21.9730   -4.0290   23.7230 C   0  0  0  0  0  3  0  0  0  0  0  0
  -22.0830   -4.8180   22.5660 C   0  0  0  0  0  0  0  0  0  0  0  0
  -22.5100   -4.2580   21.4090 F   0  0  0  0  0  0  0  0  0  0  0  0
  -21.3970   -3.8360   26.0330 F   0  0  0  0  0  0  0  0  0  0  0  0
  -22.8320  -13.5510   21.2360 C   0  0  0  0  0  0  0  0  0  0  0  0
  -22.1700  -12.8280   22.1310 N   0  0  0  0  0  0  0  0  0  0  0  0
  -22.3560  -14.5870   20.7730 O   0  0  0  0  0  0  0  0  0  0  0  0
  -22.5700  -11.9900   22.5250 H   0  0  0  0  0  0  0  0  0  0  0  0
  -21.2490  -13.1180   22.4290 H   0  0  0  0  0  0  0  0  0  0  0  0
  -25.3790  -15.2670   20.2970 N   0  0  0  0  0  0  0  0  0  0  0  0
  -24.6190  -15.9110   20.4880 H   0  0  0  0  0  0  0  0  0  0  0  0
  -26.2030  -15.7200   19.9240 H   0  0  0  0  0  0  0  0  0  0  0  0
  -30.9950  -18.3820   21.7950 C   0  0  0  0  0  0  0  0  0  0  0  0
  -32.1190  -19.3570   22.0600 C   0  0  0  0  0  1  0  0  0  0  0  0
  -30.4790  -17.6930   22.7230 N   0  0  0  0  0  0  0  0  0  0  0  0
  -29.7510  -17.0810   22.3720 H   0  0  0  0  0  0  0  0  0  0  0  0
  -28.9940  -22.4490   20.0980 C   0  0  0  0  0  3  0  0  0  0  0  0
  -28.0510  -24.0240   20.4640 C   0  0  0  0  0  3  0  0  0  0  0  0
  -28.2590  -25.7180   20.3710 O   0  0  0  0  0  0  0  0  0  0  0  0
  -24.6630  -31.8690   23.2110 C   0  0  0  0  0  0  0  0  0  0  0  0
  -27.2520  -26.8560   20.3250 C   0  0  0  0  0  0  0  0  0  0  0  0
  -23.4940  -30.4380   21.5890 C   0  0  0  0  0  3  0  0  0  0  0  0
  -24.9600  -28.7960   20.2140 C   0  0  0  0  0  0  0  0  0  0  0  0
  -26.0670  -30.6290   21.4710 C   0  0  0  0  0  2  0  0  0  0  0  0
  -26.1470  -29.1970   20.8420 C   0  0  0  0  0  0  0  0  0  0  0  0
  -27.2860  -28.2540   20.8610 C   0  0  0  0  0  3  0  0  0  0  0  0
  -26.0310  -26.6330   19.6440 C   0  0  0  0  0  3  0  0  0  0  0  0
  -24.9340  -27.5370   19.5920 C   0  0  0  0  0  3  0  0  0  0  0  0
  -23.7440  -29.7270   20.2300 C   0  0  0  0  0  2  0  0  0  0  0  0
  -24.7640  -31.0090   22.1430 N   0  0  0  0  0  0  0  0  0  0  0  0
  -23.5660  -32.1670   23.7120 O   0  0  0  0  0  0  0  0  0  0  0  0
  -22.7870  -29.4620   22.5680 C   0  0  0  0  0  0  0  0  0  0  0  0
  -21.4550  -29.3060   22.4460 N   0  0  0  0  0  0  0  0  0  0  0  0
  -23.4460  -28.8440   23.4080 O   0  0  0  0  0  0  0  0  0  0  0  0
  -20.9750  -29.8550   21.7460 H   0  0  0  0  0  0  0  0  0  0  0  0
  -18.0640  -28.1170   22.9730 C   0  0  0  0  0  0  0  0  0  0  0  0
  -20.6270  -28.3820   23.2290 C   0  0  0  0  0  3  0  0  0  0  0  0
  -20.7230  -26.9420   22.6720 C   0  0  0  0  0  2  0  0  0  0  0  0
  -19.6190  -26.6110   21.6630 C   0  0  0  0  0  2  0  0  0  0  0  0
  -18.2380  -26.7630   22.3070 C   0  0  0  0  0  2  0  0  0  0  0  0
  -19.1850  -28.8840   23.3900 C   0  0  0  0  0  0  0  0  0  0  0  0
  -18.9660  -30.1490   23.9780 C   0  0  0  0  0  3  0  0  0  0  0  0
  -17.6610  -30.6480   24.1480 C   0  0  0  0  0  3  0  0  0  0  0  0
  -16.5560  -29.8790   23.7440 C   0  0  0  0  0  3  0  0  0  0  0  0
  -16.7590  -28.6150   23.1630 C   0  0  0  0  0  3  0  0  0  0  0  0
  -25.9220  -32.5330   23.8470 C   0  0  0  0  0  3  0  0  0  0  0  0
  -26.4210  -31.7900   25.1480 C   0  0  1  0  0  0  0  0  0  0  0  0
  -25.3140  -31.5640   26.2040 C   0  0  0  0  0  1  0  0  0  0  0  0
  -27.0230  -30.4100   24.8000 C   0  0  0  0  0  1  0  0  0  0  0  0
  -27.5560  -32.6060   25.8130 C   0  0  0  0  0  1  0  0  0  0  0  0
  -25.5850  -33.9330   24.1670 N   0  0  0  0  0  0  0  0  0  0  0  0
  -25.9160  -34.9950   23.4190 C   0  0  0  0  0  0  0  0  0  0  0  0
  -26.5950  -34.9000   22.3940 O   0  0  0  0  0  0  0  0  0  0  0  0
  -24.9800  -34.0800   24.9620 H   0  0  0  0  0  0  0  0  0  0  0  0
  -24.1810  -36.7870   23.0600 C   0  0  0  0  0  1  0  0  0  0  0  0
  -25.4180  -36.3830   23.8780 C   0  0  0  0  0  3  0  0  0  0  0  0
  -27.5380  -37.2830   24.7320 C   0  0  0  0  0  1  0  0  0  0  0  0
  -26.4450  -37.4420   23.7770 N   0  0  0  0  0  0  0  0  0  0  0  0
  -26.0320  -38.3590   23.9170 H   0  0  0  0  0  0  0  0  0  0  0  0
  1  2  1  0
  3  1  1  0
  4 15  1  0
  5 10  1  0
  6  7  1  0
  6  5  1  0
  8  7  1  0
  8 19  1  0
  8  9  1  0
 10  4  1  0
 10  9  1  0
 11  4  2  0
 13 44  1  0
 14 12  1  0
 14 13  1  0
 14  1  1  0
 15 12  1  0
 15 13  1  0
 16 17  2  0
 17 36  1  0
 18 17  1  0
 18 21  1  0
 19 20  1  0
 19 16  1  0
 20 18  2  0
 21 22  1  0
 22 23  2  0
 24 27  1  0
 24 23  1  0
 25 24  2  0
 26 25  1  0
 26 21  2  0
 27 28  1  0
 28 29  1  0
 29 30  2  0
 31 30  1  0
 31 35  1  0
 32 31  2  0
 33 28  2  0
 33 32  1  0
 34 33  1  0
 36 37  1  0
 37 40  1  0
 37 39  1  0
 38 36  2  0
 41 16  1  0
 41 42  1  0
 43 41  1  0
 44 45  1  0
 44 46  2  0
 47 46  1  0
 48 49  2  0
 48  1  1  0
 50 49  1  0
 51 62  2  0
 52 50  1  0
 52 57  1  0
 53 61  1  0
 53 63  1  0
 54 60  1  0
 54 56  1  0
 55 61  1  0
 56 57  2  0
 56 55  1  0
 58 52  2  0
 59 58  1  0
 59 54  2  0
 60 53  1  0
 61 51  1  0
 63 65  2  0
 64 63  1  0
 66 64  1  0
 67 76  2  0
 67 72  1  0
 68 64  1  0
 68 72  1  0
 69 68  1  0
 70 71  1  0
 70 69  1  0
 71 67  1  0
 72 73  2  0
 73 74  1  0
 75 74  2  0
 76 75  1  0
 77 51  1  0
 77 82  1  0
 77 78  1  0
 78 81  1  1
 78 79  1  0
 80 78  1  0
 82 85  1  0
 83 87  1  0
 83 82  1  0
 84 83  2  0
 87 86  1  0
 89 87  1  0
 89 90  1  0
 89 88  1  0
M  ISO  4   4 100  15 100  49 101  50 101
M  END
>  <TORSDO>  (24) 
F 19

>  <SCORE>  (24) 
-16.337

>  <name>  (24) 
23

>  <ligand_id>  (24) 
23

>  <original_smiles>  (24) 
[H]N=C(C([H])([H])[H])C1([H])N(C(=O)N2C([H])([H])C([H])([H])C([H])([H])C([H])(n3nc(-c4c([H])c([H])c(Oc5c([H])c([H])c(F)c([H])c5F)c([H])c4[H])c(C(=O)N([H])[H])c3N([H])[H])C2([H])[H])C([H])([H])C1([H])[N+]([H])([H])C([H])([H])C([H])([H])Oc1c([H])c([H])c2c(c1[H])C([H])([H])N(C(=O)C([H])(N([H])C(=O)C([H])(N([H])C([H])([H])[H])C([H])([H])[H])C(C([H])([H])[H])(C([H])([H])[H])C([H])([H])[H])C([H])(C(=O)N([H])C1([H])c3c([H])c([H])c([H])c([H])c3C([H])([H])C([H])([H])C1([H])[H])C2([H])[H]

>  <smiles>  (24) 
[H]N=C(C([H])([H])[H])C1([H])N(C(=O)N2C([H])([H])C([H])([H])C([H])([H])C([H])(n3nc(-c4c([H])c([H])c(Oc5c([H])c([H])c(F)c([H])c5F)c([H])c4[H])c(C(=O)N([H])[H])c3N([H])[H])C2([H])[H])C([H])([H])C1([H])[N+]([H])([H])C([H])([H])C([H])([H])Oc1c([H])c([H])c2c(c1[H])C([H])([H])N(C(=O)C([H])(N([H])C(=O)C([H])(N([H])C([H])([H])[H])C([H])([H])[H])C(C([H])([H])[H])(C([H])([H])[H])C([H])([H])[H])C([H])(C(=O)N([H])C1([H])c3c([H])c([H])c([H])c([H])c3C([H])([H])C([H])([H])C1([H])[H])C2([H])[H]

$$$$
24:0:0
     RDKit          3D

 91 99  0  0  1  0  0  0  0  0999 V2000
  -28.9190  -21.1680   20.6130 N   0  0  0  0  0  4  0  0  0  0  0  0
  -29.7200  -21.2870   21.2120 H   0  0  0  0  0  0  0  0  0  0  0  0
  -28.1470  -21.0800   21.2550 H   0  0  0  0  0  0  0  0  0  0  0  0
  -30.3890  -15.4190   20.0450 C   0  0  0  0  0  0  0  0  0  0  0  0
  -30.3170  -12.9840   19.1140 C   0  0  0  0  0  2  0  0  0  0  0  0
  -29.3490  -12.7400   17.9300 C   0  0  0  0  0  2  0  0  0  0  0  0
  -27.9340  -12.4250   18.4430 C   0  0  0  0  0  2  0  0  0  0  0  0
  -27.5080  -13.3840   19.5790 C   0  0  0  0  0  3  0  0  0  0  0  0
  -28.6020  -13.5820   20.6490 C   0  0  0  0  0  2  0  0  0  0  0  0
  -29.7810  -14.1270   19.9490 N   0  0  0  0  0  0  0  0  0  0  0  0
  -31.6180  -15.3400   19.8930 O   0  0  0  0  0  0  0  0  0  0  0  0
  -27.8980  -18.6360   20.0240 C   0  0  0  0  0  2  0  0  0  0  0  0
  -28.3150  -17.0970   19.7640 C   0  0  0  0  0  2  0  0  0  0  0  0
  -30.1240  -18.2980   20.4910 C   0  0  0  0  0  3  0  0  0  0  0  0
  -29.1130  -19.6140   19.9750 C   0  0  0  0  0  3  0  0  0  0  0  0
  -29.7110  -16.7630   20.1470 N   0  0  0  0  0  0  0  0  0  0  0  0
  -25.1660  -13.8980   20.4440 C   0  0  0  0  0  0  0  0  0  0  0  0
  -24.1330  -13.1050   20.8510 C   0  0  0  0  0  0  0  0  0  0  0  0
  -24.6180  -11.7630   20.7860 C   0  0  0  0  0  0  0  0  0  0  0  0
  -26.2110  -13.0430   20.1490 N   0  0  0  0  0  0  0  0  0  0  0  0
  -25.8960  -11.7490   20.4210 N   0  0  0  0  0  0  0  0  0  0  0  0
  -23.9130  -10.4900   20.9870 C   0  0  0  0  0  0  0  0  0  0  0  0
  -24.3770   -9.5240   21.9080 C   0  0  0  0  0  3  0  0  0  0  0  0
  -23.6670   -8.3200   22.0990 C   0  0  0  0  0  3  0  0  0  0  0  0
  -22.4810   -8.0710   21.3690 C   0  0  0  0  0  0  0  0  0  0  0  0
  -22.0360   -9.0260   20.4380 C   0  0  0  0  0  3  0  0  0  0  0  0
  -22.7460  -10.2220   20.2440 C   0  0  0  0  0  3  0  0  0  0  0  0
  -21.7410   -6.9180   21.4700 O   0  0  0  0  0  0  0  0  0  0  0  0
  -21.7120   -6.1820   22.6280 C   0  0  0  0  0  0  0  0  0  0  0  0
  -21.2790   -6.7350   23.8520 C   0  0  0  0  0  3  0  0  0  0  0  0
  -21.1980   -5.9250   25.0010 C   0  0  0  0  0  3  0  0  0  0  0  0
  -21.5390   -4.5610   24.9270 C   0  0  0  0  0  0  0  0  0  0  0  0
  -21.9680   -4.0070   23.7080 C   0  0  0  0  0  3  0  0  0  0  0  0
  -22.0500   -4.8150   22.5610 C   0  0  0  0  0  0  0  0  0  0  0  0
  -22.4420   -4.2720   21.3830 F   0  0  0  0  0  0  0  0  0  0  0  0
  -21.4550   -3.7800   26.0290 F   0  0  0  0  0  0  0  0  0  0  0  0
  -22.7420  -13.5640   21.1740 C   0  0  0  0  0  0  0  0  0  0  0  0
  -22.0530  -12.8540   22.0590 N   0  0  0  0  0  0  0  0  0  0  0  0
  -22.2780  -14.5900   20.6800 O   0  0  0  0  0  0  0  0  0  0  0  0
  -22.4440  -12.0240   22.4810 H   0  0  0  0  0  0  0  0  0  0  0  0
  -21.1200  -13.1440   22.3160 H   0  0  0  0  0  0  0  0  0  0  0  0
  -25.2860  -15.2720   20.2630 N   0  0  0  0  0  0  0  0  0  0  0  0
  -24.4910  -15.8910   20.3780 H   0  0  0  0  0  0  0  0  0  0  0  0
  -26.0720  -15.7160   19.8090 H   0  0  0  0  0  0  0  0  0  0  0  0
  -31.5930  -18.5560   20.1810 C   0  0  0  0  0  0  0  0  0  0  0  0
  -32.5010  -18.6840   21.3850 C   0  0  0  0  0  1  0  0  0  0  0  0
  -32.0410  -18.6390   19.0010 N   0  0  0  0  0  0  0  0  0  0  0  0
  -31.3240  -18.5130   18.2940 H   0  0  0  0  0  0  0  0  0  0  0  0
  -28.7310  -22.6960   19.9250 C   0  0  0  0  0  2  0  0  0  0  0  0
  -28.0710  -24.2600   20.5940 C   0  0  0  0  0  2  0  0  0  0  0  0
  -28.2230  -25.8990   20.3070 O   0  0  0  0  0  0  0  0  0  0  0  0
  -24.6190  -31.9070   23.2620 C   0  0  0  0  0  0  0  0  0  0  0  0
  -27.1900  -26.9870   20.3080 C   0  0  0  0  0  0  0  0  0  0  0  0
  -23.4330  -30.4970   21.6320 C   0  0  0  0  0  3  0  0  0  0  0  0
  -24.8870  -28.8740   20.2350 C   0  0  0  0  0  0  0  0  0  0  0  0
  -26.0000  -30.7080   21.4880 C   0  0  0  0  0  2  0  0  0  0  0  0
  -26.0760  -29.2870   20.8500 C   0  0  0  0  0  0  0  0  0  0  0  0
  -27.2230  -28.3680   20.8530 C   0  0  0  0  0  3  0  0  0  0  0  0
  -25.9670  -26.7280   19.6480 C   0  0  0  0  0  3  0  0  0  0  0  0
  -24.8580  -27.6140   19.6130 C   0  0  0  0  0  3  0  0  0  0  0  0
  -23.6710  -29.8010   20.2630 C   0  0  0  0  0  2  0  0  0  0  0  0
  -24.7070  -31.0640   22.1810 N   0  0  0  0  0  0  0  0  0  0  0  0
  -23.5270  -32.1980   23.7760 O   0  0  0  0  0  0  0  0  0  0  0  0
  -22.7360  -29.5080   22.6030 C   0  0  0  0  0  0  0  0  0  0  0  0
  -21.4060  -29.3380   22.4730 N   0  0  0  0  0  0  0  0  0  0  0  0
  -23.3990  -28.8940   23.4430 O   0  0  0  0  0  0  0  0  0  0  0  0
  -20.9240  -29.8880   21.7760 H   0  0  0  0  0  0  0  0  0  0  0  0
  -18.0290  -28.1060   22.9680 C   0  0  0  0  0  0  0  0  0  0  0  0
  -20.5840  -28.4040   23.2500 C   0  0  0  0  0  3  0  0  0  0  0  0
  -20.7040  -26.9650   22.6970 C   0  0  0  0  0  2  0  0  0  0  0  0
  -19.6150  -26.6160   21.6770 C   0  0  0  0  0  2  0  0  0  0  0  0
  -18.2260  -26.7520   22.3080 C   0  0  0  0  0  2  0  0  0  0  0  0
  -19.1360  -28.8880   23.3970 C   0  0  0  0  0  0  0  0  0  0  0  0
  -18.8950  -30.1510   23.9790 C   0  0  0  0  0  3  0  0  0  0  0  0
  -17.5820  -30.6350   24.1330 C   0  0  0  0  0  3  0  0  0  0  0  0
  -16.4910  -29.8540   23.7170 C   0  0  0  0  0  3  0  0  0  0  0  0
  -16.7150  -28.5900   23.1410 C   0  0  0  0  0  3  0  0  0  0  0  0
  -25.8850  -32.5580   23.8950 C   0  0  0  0  0  3  0  0  0  0  0  0
  -26.3770  -31.8140   25.1990 C   0  0  1  0  0  0  0  0  0  0  0  0
  -25.2670  -31.6060   26.2570 C   0  0  0  0  0  1  0  0  0  0  0  0
  -26.9590  -30.4260   24.8540 C   0  0  0  0  0  1  0  0  0  0  0  0
  -27.5210  -32.6190   25.8600 C   0  0  0  0  0  1  0  0  0  0  0  0
  -25.5670  -33.9640   24.2060 N   0  0  0  0  0  0  0  0  0  0  0  0
  -25.9020  -35.0140   23.4450 C   0  0  0  0  0  0  0  0  0  0  0  0
  -26.5730  -34.9010   22.4170 O   0  0  0  0  0  0  0  0  0  0  0  0
  -24.9690  -34.1230   25.0030 H   0  0  0  0  0  0  0  0  0  0  0  0
  -24.1770  -36.8150   23.0840 C   0  0  0  0  0  1  0  0  0  0  0  0
  -25.4200  -36.4100   23.8930 C   0  0  0  0  0  3  0  0  0  0  0  0
  -27.5580  -37.3050   24.7080 C   0  0  0  0  0  1  0  0  0  0  0  0
  -26.4550  -37.4610   23.7650 N   0  0  0  0  0  0  0  0  0  0  0  0
  -26.0490  -38.3840   23.8990 H   0  0  0  0  0  0  0  0  0  0  0  0
  1  2  1  0
  1  3  1  0
  4 16  1  0
  5 10  1  0
  6  7  1  0
  6  5  1  0
  8  7  1  0
  8 20  1  0
  8  9  1  0
 10  4  1  0
 10  9  1  0
 11  4  2  0
 13 12  1  0
 13 16  1  0
 14 45  1  0
 15 12  1  0
 15 14  1  0
 15  1  1  0
 16 14  1  0
 17 18  2  0
 18 37  1  0
 19 18  1  0
 19 22  1  0
 20 21  1  0
 20 17  1  0
 21 19  2  0
 22 23  1  0
 23 24  2  0
 25 28  1  0
 25 24  1  0
 26 25  2  0
 27 26  1  0
 27 22  2  0
 28 29  1  0
 29 30  1  0
 30 31  2  0
 32 31  1  0
 32 36  1  0
 33 32  2  0
 34 29  2  0
 34 33  1  0
 35 34  1  0
 37 38  1  0
 38 41  1  0
 38 40  1  0
 39 37  2  0
 42 43  1  0
 42 17  1  0
 44 42  1  0
 45 46  1  0
 47 45  2  0
 48 47  1  0
 49 50  1  0
 49  1  1  0
 51 53  1  0
 51 50  1  0
 52 63  2  0
 53 58  1  0
 54 62  1  0
 54 64  1  0
 55 61  1  0
 55 57  1  0
 56 62  1  0
 57 58  2  0
 57 56  1  0
 59 53  2  0
 60 59  1  0
 60 55  2  0
 61 54  1  0
 62 52  1  0
 64 66  2  0
 65 64  1  0
 67 65  1  0
 68 77  2  0
 68 73  1  0
 69 65  1  0
 69 73  1  0
 70 69  1  0
 71 72  1  0
 71 70  1  0
 72 68  1  0
 73 74  2  0
 74 75  1  0
 76 75  2  0
 77 76  1  0
 78 52  1  0
 78 83  1  0
 78 79  1  0
 79 82  1  1
 79 80  1  0
 81 79  1  0
 83 86  1  0
 84 88  1  0
 84 83  1  0
 85 84  2  0
 88 87  1  0
 90 88  1  0
 90 91  1  0
 90 89  1  0
M  ISO  4   4 100  16 100  50 101  51 101
M  END
>  <TORSDO>  (25) 
F 19

>  <SCORE>  (25) 
-16.356

>  <name>  (25) 
24

>  <ligand_id>  (25) 
24

>  <original_smiles>  (25) 
[H]N=C(C([H])([H])[H])C1([H])N(C(=O)N2C([H])([H])C([H])([H])C([H])([H])C([H])(n3nc(-c4c([H])c([H])c(Oc5c([H])c([H])c(F)c([H])c5F)c([H])c4[H])c(C(=O)N([H])[H])c3N([H])[H])C2([H])[H])C([H])([H])C([H])([H])C1([H])[N+]([H])([H])C([H])([H])C([H])([H])Oc1c([H])c([H])c2c(c1[H])C([H])([H])N(C(=O)C([H])(N([H])C(=O)C([H])(N([H])C([H])([H])[H])C([H])([H])[H])C(C([H])([H])[H])(C([H])([H])[H])C([H])([H])[H])C([H])(C(=O)N([H])C1([H])c3c([H])c([H])c([H])c([H])c3C([H])([H])C([H])([H])C1([H])[H])C2([H])[H]

>  <smiles>  (25) 
[H]N=C(C([H])([H])[H])C1([H])N(C(=O)N2C([H])([H])C([H])([H])C([H])([H])C([H])(n3nc(-c4c([H])c([H])c(Oc5c([H])c([H])c(F)c([H])c5F)c([H])c4[H])c(C(=O)N([H])[H])c3N([H])[H])C2([H])[H])C([H])([H])C([H])([H])C1([H])[N+]([H])([H])C([H])([H])C([H])([H])Oc1c([H])c([H])c2c(c1[H])C([H])([H])N(C(=O)C([H])(N([H])C(=O)C([H])(N([H])C([H])([H])[H])C([H])([H])[H])C(C([H])([H])[H])(C([H])([H])[H])C([H])([H])[H])C([H])(C(=O)N([H])C1([H])c3c([H])c([H])c([H])c([H])c3C([H])([H])C([H])([H])C1([H])[H])C2([H])[H]

$$$$
25:0:0
     RDKit          3D

 88 95  0  0  1  0  0  0  0  0999 V2000
  -30.3680  -15.5870   20.3920 C   0  0  0  0  0  0  0  0  0  0  0  0
  -30.3930  -13.0760   19.5220 C   0  0  0  0  0  2  0  0  0  0  0  0
  -29.5240  -12.6810   18.3000 C   0  0  0  0  0  2  0  0  0  0  0  0
  -28.0940  -12.3400   18.7350 C   0  0  0  0  0  2  0  0  0  0  0  0
  -27.5710  -13.3510   19.7840 C   0  0  0  0  0  3  0  0  0  0  0  0
  -28.5870  -13.6630   20.9060 C   0  0  0  0  0  2  0  0  0  0  0  0
  -29.7590  -14.2750   20.2360 N   0  0  0  0  0  0  0  0  0  0  0  0
  -31.6010  -15.4010   20.3410 O   0  0  0  0  0  0  0  0  0  0  0  0
  -30.5780  -20.1360   19.0660 C   0  0  0  0  0  2  0  0  0  0  0  0
  -30.5530  -17.5790   18.8990 C   0  0  0  0  0  2  0  0  0  0  0  0
  -29.1340  -18.5260   20.6260 C   0  0  0  0  0  2  0  0  0  0  0  0
  -31.4260  -18.8280   19.2460 C   0  0  0  0  0  3  0  0  0  0  0  0
  -29.4800  -20.3370   20.1580 C   0  0  0  0  0  2  0  0  0  0  0  0
  -29.8350  -17.0250   20.0640 N   0  0  0  0  0  0  0  0  0  0  0  0
  -25.1980  -13.8760   20.5160 C   0  0  0  0  0  0  0  0  0  0  0  0
  -24.1360  -13.0900   20.8720 C   0  0  0  0  0  0  0  0  0  0  0  0
  -24.6170  -11.7450   20.8540 C   0  0  0  0  0  0  0  0  0  0  0  0
  -26.2500  -13.0090   20.2900 N   0  0  0  0  0  0  0  0  0  0  0  0
  -25.9140  -11.7210   20.5630 N   0  0  0  0  0  0  0  0  0  0  0  0
  -23.8920  -10.4790   21.0400 C   0  0  0  0  0  0  0  0  0  0  0  0
  -24.3150   -9.5160   21.9830 C   0  0  0  0  0  3  0  0  0  0  0  0
  -23.5900   -8.3180   22.1560 C   0  0  0  0  0  3  0  0  0  0  0  0
  -22.4260   -8.0740   21.3870 C   0  0  0  0  0  0  0  0  0  0  0  0
  -22.0220   -9.0240   20.4320 C   0  0  0  0  0  3  0  0  0  0  0  0
  -22.7480  -10.2150   20.2590 C   0  0  0  0  0  3  0  0  0  0  0  0
  -21.6740   -6.9270   21.4650 O   0  0  0  0  0  0  0  0  0  0  0  0
  -21.6100   -6.1870   22.6180 C   0  0  0  0  0  0  0  0  0  0  0  0
  -21.1680   -6.7460   23.8370 C   0  0  0  0  0  3  0  0  0  0  0  0
  -21.0550   -5.9330   24.9830 C   0  0  0  0  0  3  0  0  0  0  0  0
  -21.3700   -4.5630   24.9080 C   0  0  0  0  0  0  0  0  0  0  0  0
  -21.8040   -4.0040   23.6930 C   0  0  0  0  0  3  0  0  0  0  0  0
  -21.9210   -4.8140   22.5500 C   0  0  0  0  0  0  0  0  0  0  0  0
  -22.3220   -4.2670   21.3790 F   0  0  0  0  0  0  0  0  0  0  0  0
  -21.2550   -3.7800   26.0070 F   0  0  0  0  0  0  0  0  0  0  0  0
  -22.7340  -13.5620   21.1090 C   0  0  0  0  0  0  0  0  0  0  0  0
  -21.9970  -12.8750   21.9740 N   0  0  0  0  0  0  0  0  0  0  0  0
  -22.2950  -14.5710   20.5580 O   0  0  0  0  0  0  0  0  0  0  0  0
  -22.3690  -12.0640   22.4480 H   0  0  0  0  0  0  0  0  0  0  0  0
  -21.0460  -13.1640   22.1630 H   0  0  0  0  0  0  0  0  0  0  0  0
  -25.3560  -15.2460   20.3330 N   0  0  0  0  0  0  0  0  0  0  0  0
  -24.5930  -15.9060   20.4470 H   0  0  0  0  0  0  0  0  0  0  0  0
  -26.2200  -15.6760   20.0270 H   0  0  0  0  0  0  0  0  0  0  0  0
  -33.7160  -17.7060   18.6990 C   0  0  0  0  0  1  0  0  0  0  0  0
  -32.7380  -18.8690   18.4290 C   0  0  0  0  0  2  0  0  0  0  0  0
  -30.2850  -22.7740   21.3230 C   0  0  0  0  0  1  0  0  0  0  0  0
  -29.1590  -22.2690   20.3790 C   0  0  0  0  0  2  0  0  0  0  0  0
  -28.0300  -23.8220   20.2300 C   0  0  0  0  0  2  0  0  0  0  0  0
  -28.1750  -25.5700   20.2860 O   0  0  0  0  0  0  0  0  0  0  0  0
  -24.6470  -31.8410   23.1510 C   0  0  0  0  0  0  0  0  0  0  0  0
  -27.1840  -26.7580   20.2230 C   0  0  0  0  0  0  0  0  0  0  0  0
  -23.4640  -30.4380   21.5130 C   0  0  0  0  0  3  0  0  0  0  0  0
  -24.9150  -28.7730   20.1260 C   0  0  0  0  0  0  0  0  0  0  0  0
  -26.0370  -30.5740   21.4100 C   0  0  0  0  0  2  0  0  0  0  0  0
  -26.1030  -29.1380   20.7720 C   0  0  0  0  0  0  0  0  0  0  0  0
  -27.2150  -28.1500   20.8010 C   0  0  0  0  0  3  0  0  0  0  0  0
  -25.9630  -26.5920   19.5220 C   0  0  0  0  0  3  0  0  0  0  0  0
  -24.8780  -27.5210   19.4890 C   0  0  0  0  0  3  0  0  0  0  0  0
  -23.7110  -29.7270   20.1510 C   0  0  0  0  0  2  0  0  0  0  0  0
  -24.7390  -30.9860   22.0790 N   0  0  0  0  0  0  0  0  0  0  0  0
  -23.5530  -32.1470   23.6560 O   0  0  0  0  0  0  0  0  0  0  0  0
  -22.7410  -29.4680   22.4870 C   0  0  0  0  0  0  0  0  0  0  0  0
  -21.4060  -29.3330   22.3710 N   0  0  0  0  0  0  0  0  0  0  0  0
  -23.3940  -28.8350   23.3190 O   0  0  0  0  0  0  0  0  0  0  0  0
  -20.9270  -29.8950   21.6790 H   0  0  0  0  0  0  0  0  0  0  0  0
  -18.0080  -28.1720   22.9170 C   0  0  0  0  0  0  0  0  0  0  0  0
  -20.5740  -28.4040   23.1480 C   0  0  0  0  0  3  0  0  0  0  0  0
  -20.6490  -26.9740   22.5660 C   0  0  0  0  0  2  0  0  0  0  0  0
  -19.5300  -26.6730   21.5620 C   0  0  0  0  0  2  0  0  0  0  0  0
  -18.1590  -26.8300   22.2250 C   0  0  0  0  0  2  0  0  0  0  0  0
  -19.1420  -28.9200   23.3370 C   0  0  0  0  0  0  0  0  0  0  0  0
  -18.9440  -30.1750   23.9520 C   0  0  0  0  0  3  0  0  0  0  0  0
  -17.6480  -30.6850   24.1470 C   0  0  0  0  0  3  0  0  0  0  0  0
  -16.5300  -29.9390   23.7390 C   0  0  0  0  0  3  0  0  0  0  0  0
  -16.7100  -28.6840   23.1300 C   0  0  0  0  0  3  0  0  0  0  0  0
  -25.9110  -32.4890   23.7950 C   0  0  0  0  0  3  0  0  0  0  0  0
  -25.5860  -33.8870   24.1420 N   0  0  0  0  0  0  0  0  0  0  0  0
  -25.9110  -34.9600   23.4070 C   0  0  0  0  0  0  0  0  0  0  0  0
  -26.5740  -34.8790   22.3700 O   0  0  0  0  0  0  0  0  0  0  0  0
  -24.9930  -34.0220   24.9470 H   0  0  0  0  0  0  0  0  0  0  0  0
  -24.1710  -36.7610   23.1160 C   0  0  0  0  0  1  0  0  0  0  0  0
  -25.4270  -36.3420   23.8970 C   0  0  0  0  0  3  0  0  0  0  0  0
  -27.5720  -37.2310   24.7010 C   0  0  0  0  0  1  0  0  0  0  0  0
  -26.4520  -37.4040   23.7800 N   0  0  0  0  0  0  0  0  0  0  0  0
  -26.0410  -38.3190   23.9470 H   0  0  0  0  0  0  0  0  0  0  0  0
  -26.4130  -31.7230   25.0830 C   0  0  1  0  0  0  0  0  0  0  0  0
  -25.3080  -31.4980   26.1430 C   0  0  0  0  0  1  0  0  0  0  0  0
  -26.9970  -30.3410   24.7170 C   0  0  0  0  0  1  0  0  0  0  0  0
  -27.5600  -32.5170   25.7520 C   0  0  0  0  0  1  0  0  0  0  0  0
  2  7  1  0
  3  4  1  0
  3  2  1  0
  5  4  1  0
  5 18  1  0
  5  6  1  0
  7  1  1  0
  7  6  1  0
  8  1  2  0
  9 12  1  0
  9 13  1  0
 10 12  1  0
 10 14  1  0
 12 44  1  0
 13 11  1  0
 14  1  1  0
 14 11  1  0
 15 16  2  0
 16 35  1  0
 17 16  1  0
 17 20  1  0
 18 15  1  0
 18 19  1  0
 19 17  2  0
 20 21  1  0
 21 22  2  0
 23 26  1  0
 23 22  1  0
 24 23  2  0
 25 24  1  0
 25 20  2  0
 26 27  1  0
 27 28  1  0
 28 29  2  0
 30 29  1  0
 30 34  1  0
 31 30  2  0
 32 27  2  0
 32 31  1  0
 33 32  1  0
 35 36  1  0
 36 39  1  0
 36 38  1  0
 37 35  2  0
 40 41  1  0
 40 15  1  0
 42 40  1  0
 44 43  1  0
 46 45  1  0
 47 48  1  0
 47 46  1  0
 49 60  2  0
 50 48  1  0
 50 55  1  0
 51 59  1  0
 51 61  1  0
 52 58  1  0
 52 54  1  0
 53 59  1  0
 54 55  2  0
 54 53  1  0
 56 50  2  0
 57 56  1  0
 57 52  2  0
 58 51  1  0
 59 49  1  0
 61 63  2  0
 62 61  1  0
 64 62  1  0
 65 74  2  0
 65 70  1  0
 66 62  1  0
 66 70  1  0
 67 66  1  0
 68 69  1  0
 68 67  1  0
 69 65  1  0
 70 71  2  0
 71 72  1  0
 73 72  2  0
 74 73  1  0
 75 49  1  0
 75 76  1  0
 75 85  1  0
 76 79  1  0
 77 81  1  0
 77 76  1  0
 78 77  2  0
 81 80  1  0
 83 81  1  0
 83 84  1  0
 83 82  1  0
 85 88  1  1
 85 86  1  0
 87 85  1  0
M  ISO  4   1 100  14 100  47 101  48 101
M  END
>  <TORSDO>  (26) 
F 18

>  <SCORE>  (26) 
-16.044

>  <name>  (26) 
25

>  <ligand_id>  (26) 
25

>  <original_smiles>  (26) 
[H]c1c([H])c([H])c2c(c1[H])C([H])([H])C([H])([H])C([H])([H])C2([H])N([H])C(=O)C1([H])N(C(=O)C([H])(N([H])C(=O)C([H])(N([H])C([H])([H])[H])C([H])([H])[H])C(C([H])([H])[H])(C([H])([H])[H])C([H])([H])[H])C([H])([H])c2c([H])c(OC([H])([H])C([H])(C([H])([H])[H])C3([H])C([H])([H])N(C(=O)N4C([H])([H])C([H])([H])C([H])([H])C([H])(n5nc(-c6c([H])c([H])c(Oc7c([H])c([H])c(F)c([H])c7F)c([H])c6[H])c(C(=O)N([H])[H])c5N([H])[H])C4([H])[H])C([H])([H])C([H])(C([H])([H])C([H])([H])[H])C3([H])[H])c([H])c([H])c2C1([H])[H]

>  <smiles>  (26) 
[H]c1c([H])c([H])c2c(c1[H])C([H])([H])C([H])([H])C([H])([H])C2([H])N([H])C(=O)C1([H])N(C(=O)C([H])(N([H])C(=O)C([H])(N([H])C([H])([H])[H])C([H])([H])[H])C(C([H])([H])[H])(C([H])([H])[H])C([H])([H])[H])C([H])([H])c2c([H])c(OC([H])([H])C([H])(C([H])([H])[H])C3([H])C([H])([H])N(C(=O)N4C([H])([H])C([H])([H])C([H])([H])C([H])(n5nc(-c6c([H])c([H])c(Oc7c([H])c([H])c(F)c([H])c7F)c([H])c6[H])c(C(=O)N([H])[H])c5N([H])[H])C4([H])[H])C([H])([H])C([H])(C([H])([H])C([H])([H])[H])C3([H])[H])c([H])c([H])c2C1([H])[H]

$$$$
26:0:0
     RDKit          3D

 87 94  0  0  1  0  0  0  0  0999 V2000
  -29.5690  -20.8090   20.4240 C   0  0  0  0  0  0  0  0  0  0  0  0
  -28.7410  -21.9540   20.3320 N   0  0  0  0  0  0  0  0  0  0  0  0
  -30.7800  -20.9840   20.5510 O   0  0  0  0  0  0  0  0  0  0  0  0
  -27.7550  -21.7530   20.2280 H   0  0  0  0  0  0  0  0  0  0  0  0
  -28.0570  -19.0740   19.2470 C   0  0  0  0  0  1  0  0  0  0  0  0
  -29.0630  -19.2370   20.3990 C   0  0  0  0  0  3  0  0  0  0  0  0
  -30.1000  -17.9110   20.3880 C   0  0  0  0  0  3  0  0  0  0  0  0
  -29.6300  -16.3210   20.6630 C   0  0  0  0  0  3  0  0  0  0  0  0
  -30.4960  -14.9470   20.3500 C   0  0  0  0  0  0  0  0  0  0  0  0
  -30.3750  -12.6240   19.3510 C   0  0  0  0  0  2  0  0  0  0  0  0
  -29.4250  -12.6520   18.1310 C   0  0  0  0  0  2  0  0  0  0  0  0
  -27.9610  -12.4440   18.5680 C   0  0  0  0  0  2  0  0  0  0  0  0
  -27.5780  -13.3310   19.7810 C   0  0  0  0  0  3  0  0  0  0  0  0
  -28.6450  -13.2810   20.8930 C   0  0  0  0  0  2  0  0  0  0  0  0
  -29.9290  -13.6780   20.3020 N   0  0  0  0  0  0  0  0  0  0  0  0
  -31.6790  -15.0490   20.0090 O   0  0  0  0  0  0  0  0  0  0  0  0
  -25.2030  -13.9080   20.5500 C   0  0  0  0  0  0  0  0  0  0  0  0
  -24.1410  -13.1310   20.9210 C   0  0  0  0  0  0  0  0  0  0  0  0
  -24.6030  -11.7790   20.8700 C   0  0  0  0  0  0  0  0  0  0  0  0
  -26.2430  -13.0310   20.2880 N   0  0  0  0  0  0  0  0  0  0  0  0
  -25.8910  -11.7450   20.5450 N   0  0  0  0  0  0  0  0  0  0  0  0
  -23.8770  -10.5150   21.0530 C   0  0  0  0  0  0  0  0  0  0  0  0
  -24.3130   -9.5390   21.9760 C   0  0  0  0  0  3  0  0  0  0  0  0
  -23.5850   -8.3410   22.1480 C   0  0  0  0  0  3  0  0  0  0  0  0
  -22.4090   -8.1110   21.3960 C   0  0  0  0  0  0  0  0  0  0  0  0
  -21.9920   -9.0770   20.4620 C   0  0  0  0  0  3  0  0  0  0  0  0
  -22.7190  -10.2660   20.2890 C   0  0  0  0  0  3  0  0  0  0  0  0
  -21.6530   -6.9660   21.4770 O   0  0  0  0  0  0  0  0  0  0  0  0
  -21.6030   -6.2170   22.6250 C   0  0  0  0  0  0  0  0  0  0  0  0
  -21.1570   -6.7590   23.8500 C   0  0  0  0  0  3  0  0  0  0  0  0
  -21.0560   -5.9360   24.9890 C   0  0  0  0  0  3  0  0  0  0  0  0
  -21.3890   -4.5700   24.9040 C   0  0  0  0  0  0  0  0  0  0  0  0
  -21.8260   -4.0280   23.6840 C   0  0  0  0  0  3  0  0  0  0  0  0
  -21.9300   -4.8490   22.5460 C   0  0  0  0  0  0  0  0  0  0  0  0
  -22.3330   -4.3150   21.3680 F   0  0  0  0  0  0  0  0  0  0  0  0
  -21.2840   -3.7770   25.9960 F   0  0  0  0  0  0  0  0  0  0  0  0
  -22.7470  -13.6060   21.2100 C   0  0  0  0  0  0  0  0  0  0  0  0
  -22.0250  -12.9000   22.0740 N   0  0  0  0  0  0  0  0  0  0  0  0
  -22.3060  -14.6380   20.7070 O   0  0  0  0  0  0  0  0  0  0  0  0
  -22.3960  -12.0670   22.5060 H   0  0  0  0  0  0  0  0  0  0  0  0
  -21.0900  -13.2000   22.3090 H   0  0  0  0  0  0  0  0  0  0  0  0
  -25.3670  -15.2810   20.3890 N   0  0  0  0  0  0  0  0  0  0  0  0
  -24.6040  -15.9370   20.5240 H   0  0  0  0  0  0  0  0  0  0  0  0
  -26.2190  -15.7240   20.0710 H   0  0  0  0  0  0  0  0  0  0  0  0
  -29.0860  -23.4880   20.4040 C   0  0  0  0  0  3  0  0  0  0  0  0
  -27.9890  -24.7240   20.1440 C   0  0  0  0  0  3  0  0  0  0  0  0
  -28.2510  -26.2460   20.2720 O   0  0  0  0  0  0  0  0  0  0  0  0
  -24.6200  -31.8990   23.2520 C   0  0  0  0  0  0  0  0  0  0  0  0
  -27.1830  -27.2060   20.2090 C   0  0  0  0  0  0  0  0  0  0  0  0
  -23.4100  -30.5080   21.6150 C   0  0  0  0  0  3  0  0  0  0  0  0
  -24.8520  -28.9350   20.1840 C   0  0  0  0  0  0  0  0  0  0  0  0
  -25.9620  -30.7750   21.4390 C   0  0  0  0  0  2  0  0  0  0  0  0
  -26.0310  -29.3860   20.7870 C   0  0  0  0  0  0  0  0  0  0  0  0
  -27.1980  -28.5380   20.7820 C   0  0  0  0  0  3  0  0  0  0  0  0
  -25.9760  -26.8490   19.5680 C   0  0  0  0  0  3  0  0  0  0  0  0
  -24.8350  -27.6800   19.5580 C   0  0  0  0  0  3  0  0  0  0  0  0
  -23.6240  -29.8320   20.2340 C   0  0  0  0  0  2  0  0  0  0  0  0
  -24.6840  -31.0820   22.1580 N   0  0  0  0  0  0  0  0  0  0  0  0
  -23.5370  -32.1860   23.7840 O   0  0  0  0  0  0  0  0  0  0  0  0
  -22.7340  -29.5010   22.5770 C   0  0  0  0  0  0  0  0  0  0  0  0
  -21.4050  -29.3300   22.4510 N   0  0  0  0  0  0  0  0  0  0  0  0
  -23.4060  -28.8750   23.4010 O   0  0  0  0  0  0  0  0  0  0  0  0
  -20.9200  -29.8870   21.7620 H   0  0  0  0  0  0  0  0  0  0  0  0
  -18.0230  -28.1380   22.9580 C   0  0  0  0  0  0  0  0  0  0  0  0
  -20.5820  -28.3960   23.2240 C   0  0  0  0  0  3  0  0  0  0  0  0
  -20.6820  -26.9630   22.6520 C   0  0  0  0  0  2  0  0  0  0  0  0
  -19.5790  -26.6390   21.6390 C   0  0  0  0  0  2  0  0  0  0  0  0
  -18.1980  -26.7870   22.2820 C   0  0  0  0  0  2  0  0  0  0  0  0
  -19.1430  -28.9000   23.3850 C   0  0  0  0  0  0  0  0  0  0  0  0
  -18.9240  -30.1620   23.9790 C   0  0  0  0  0  3  0  0  0  0  0  0
  -17.6200  -30.6630   24.1460 C   0  0  0  0  0  3  0  0  0  0  0  0
  -16.5150  -29.8990   23.7340 C   0  0  0  0  0  3  0  0  0  0  0  0
  -16.7180  -28.6380   23.1460 C   0  0  0  0  0  3  0  0  0  0  0  0
  -25.9030  -32.5290   23.8750 C   0  0  0  0  0  3  0  0  0  0  0  0
  -25.5960  -33.9290   24.2110 N   0  0  0  0  0  0  0  0  0  0  0  0
  -25.9110  -34.9840   23.4470 C   0  0  0  0  0  0  0  0  0  0  0  0
  -26.5570  -34.8830   22.4020 O   0  0  0  0  0  0  0  0  0  0  0  0
  -25.0190  -34.0820   25.0250 H   0  0  0  0  0  0  0  0  0  0  0  0
  -24.1680  -36.7750   23.1450 C   0  0  0  0  0  1  0  0  0  0  0  0
  -25.4340  -36.3730   23.9180 C   0  0  0  0  0  3  0  0  0  0  0  0
  -27.5890  -37.2690   24.6850 C   0  0  0  0  0  1  0  0  0  0  0  0
  -26.4600  -37.4290   23.7710 N   0  0  0  0  0  0  0  0  0  0  0  0
  -26.0570  -38.3490   23.9240 H   0  0  0  0  0  0  0  0  0  0  0  0
  -26.4150  -31.7560   25.1520 C   0  0  1  0  0  0  0  0  0  0  0  0
  -25.3220  -31.5220   26.2200 C   0  0  0  0  0  1  0  0  0  0  0  0
  -26.9940  -30.3760   24.7650 C   0  0  0  0  0  1  0  0  0  0  0  0
  -27.5690  -32.5460   25.8150 C   0  0  0  0  0  1  0  0  0  0  0  0
  1  3  2  0
  2 45  1  0
  2  1  1  0
  4  2  1  0
  6  5  1  0
  6  1  1  0
  7  6  1  0
  7  8  2  0
  9  8  1  0
 10 15  1  0
 11 12  1  0
 11 10  1  0
 13 12  1  0
 13 20  1  0
 13 14  1  0
 15  9  1  0
 15 14  1  0
 16  9  2  0
 17 18  2  0
 18 37  1  0
 19 18  1  0
 19 22  1  0
 20 21  1  0
 20 17  1  0
 21 19  2  0
 22 23  1  0
 23 24  2  0
 25 28  1  0
 25 24  1  0
 26 25  2  0
 27 26  1  0
 27 22  2  0
 28 29  1  0
 29 30  1  0
 30 31  2  0
 32 31  1  0
 32 36  1  0
 33 32  2  0
 34 29  2  0
 34 33  1  0
 35 34  1  0
 37 38  1  0
 38 41  1  0
 38 40  1  0
 39 37  2  0
 42 43  1  0
 42 17  1  0
 44 42  1  0
 46 47  1  0
 46 45  2  0
 48 59  2  0
 49 47  1  0
 49 54  1  0
 50 58  1  0
 50 60  1  0
 51 57  1  0
 51 53  1  0
 52 58  1  0
 53 52  1  0
 54 53  2  0
 55 49  2  0
 56 55  1  0
 56 51  2  0
 57 50  1  0
 58 48  1  0
 60 62  2  0
 61 60  1  0
 63 61  1  0
 64 73  2  0
 64 69  1  0
 65 61  1  0
 65 69  1  0
 66 65  1  0
 67 68  1  0
 67 66  1  0
 68 64  1  0
 69 70  2  0
 70 71  1  0
 72 71  2  0
 73 72  1  0
 74 48  1  0
 74 75  1  0
 74 84  1  0
 75 78  1  0
 76 80  1  0
 76 75  1  0
 77 76  2  0
 80 79  1  0
 82 80  1  0
 82 83  1  0
 82 81  1  0
 84 87  1  1
 84 85  1  0
 86 84  1  0
M  ISO  4   8 100   9 100  46 101  47 101
M  END
>  <TORSDO>  (27) 
F 21

>  <SCORE>  (27) 
-13.395

>  <name>  (27) 
26

>  <ligand_id>  (27) 
26

>  <original_smiles>  (27) 
[H]c1c([H])c([H])c2c(c1[H])C([H])([H])C([H])([H])C([H])([H])C2([H])N([H])C(=O)C1([H])N(C(=O)C([H])(N([H])C(=O)C([H])(N([H])C([H])([H])[H])C([H])([H])[H])C(C([H])([H])[H])(C([H])([H])[H])C([H])([H])[H])C([H])([H])c2c([H])c(OC([H])([H])C([H])([H])N([H])C(=O)C([H])(C([H])([H])[H])C([H])([H])C([H])([H])C(=O)N3C([H])([H])C([H])([H])C([H])([H])C([H])(n4nc(-c5c([H])c([H])c(Oc6c([H])c([H])c(F)c([H])c6F)c([H])c5[H])c(C(=O)N([H])[H])c4N([H])[H])C3([H])[H])c([H])c([H])c2C1([H])[H]

>  <smiles>  (27) 
[H]c1c([H])c([H])c2c(c1[H])C([H])([H])C([H])([H])C([H])([H])C2([H])N([H])C(=O)C1([H])N(C(=O)C([H])(N([H])C(=O)C([H])(N([H])C([H])([H])[H])C([H])([H])[H])C(C([H])([H])[H])(C([H])([H])[H])C([H])([H])[H])C([H])([H])c2c([H])c(OC([H])([H])C([H])([H])N([H])C(=O)C([H])(C([H])([H])[H])C([H])([H])C([H])([H])C(=O)N3C([H])([H])C([H])([H])C([H])([H])C([H])(n4nc(-c5c([H])c([H])c(Oc6c([H])c([H])c(F)c([H])c6F)c([H])c5[H])c(C(=O)N([H])[H])c4N([H])[H])C3([H])[H])c([H])c([H])c2C1([H])[H]

$$$$
27:0:0
     RDKit          3D

 89 97  0  0  1  0  0  0  0  0999 V2000
  -30.4370  -15.8220   20.2140 C   0  0  0  0  0  0  0  0  0  0  0  0
  -30.4320  -13.2210   19.5350 C   0  0  0  0  0  2  0  0  0  0  0  0
  -29.6110  -12.7190   18.3160 C   0  0  0  0  0  2  0  0  0  0  0  0
  -28.1830  -12.3630   18.7380 C   0  0  0  0  0  2  0  0  0  0  0  0
  -27.6220  -13.4190   19.7180 C   0  0  0  0  0  3  0  0  0  0  0  0
  -28.6050  -13.8830   20.8320 C   0  0  0  0  0  2  0  0  0  0  0  0
  -29.7930  -14.4880   20.1680 N   0  0  0  0  0  0  0  0  0  0  0  0
  -31.6480  -15.5210   20.1020 O   0  0  0  0  0  0  0  0  0  0  0  0
  -29.3210  -20.6820   20.3680 C   0  0  0  0  0  0  0  0  0  0  0  0
  -28.9420  -22.2120   20.2380 C   0  0  0  0  0  0  0  0  0  0  0  0
  -29.1490  -18.8660   19.9240 C   0  0  0  0  0  2  0  0  0  0  0  0
  -31.5090  -19.5510   20.9030 C   0  0  0  0  0  2  0  0  0  0  0  0
  -31.2520  -18.0200   21.0420 C   0  0  0  0  0  2  0  0  0  0  0  0
  -30.4140  -20.5030   21.4300 C   0  0  0  0  0  3  0  0  0  0  0  0
  -30.0620  -17.3820   20.3850 N   0  0  0  0  0  0  0  0  0  0  0  0
  -25.2470  -13.9460   20.4290 C   0  0  0  0  0  0  0  0  0  0  0  0
  -24.1770  -13.1690   20.7740 C   0  0  0  0  0  0  0  0  0  0  0  0
  -24.6480  -11.8190   20.7680 C   0  0  0  0  0  0  0  0  0  0  0  0
  -26.2970  -13.0750   20.2200 N   0  0  0  0  0  0  0  0  0  0  0  0
  -25.9510  -11.7870   20.4930 N   0  0  0  0  0  0  0  0  0  0  0  0
  -23.9110  -10.5600   20.9510 C   0  0  0  0  0  0  0  0  0  0  0  0
  -24.3110   -9.5970   21.9020 C   0  0  0  0  0  3  0  0  0  0  0  0
  -23.5680   -8.4090   22.0770 C   0  0  0  0  0  3  0  0  0  0  0  0
  -22.4100   -8.1740   21.3000 C   0  0  0  0  0  0  0  0  0  0  0  0
  -22.0280   -9.1240   20.3380 C   0  0  0  0  0  3  0  0  0  0  0  0
  -22.7710  -10.3050   20.1610 C   0  0  0  0  0  3  0  0  0  0  0  0
  -21.6420   -7.0370   21.3840 O   0  0  0  0  0  0  0  0  0  0  0  0
  -21.5710   -6.2960   22.5370 C   0  0  0  0  0  0  0  0  0  0  0  0
  -21.1580   -6.8660   23.7610 C   0  0  0  0  0  3  0  0  0  0  0  0
  -21.0310   -6.0550   24.9070 C   0  0  0  0  0  3  0  0  0  0  0  0
  -21.3080   -4.6770   24.8300 C   0  0  0  0  0  0  0  0  0  0  0  0
  -21.7150   -4.1080   23.6120 C   0  0  0  0  0  3  0  0  0  0  0  0
  -21.8430   -4.9150   22.4680 C   0  0  0  0  0  0  0  0  0  0  0  0
  -22.2160   -4.3570   21.2890 F   0  0  0  0  0  0  0  0  0  0  0  0
  -21.1800   -3.8970   25.9290 F   0  0  0  0  0  0  0  0  0  0  0  0
  -22.7750  -13.6530   20.9880 C   0  0  0  0  0  0  0  0  0  0  0  0
  -22.0200  -12.9850   21.8540 N   0  0  0  0  0  0  0  0  0  0  0  0
  -22.3570  -14.6620   20.4230 O   0  0  0  0  0  0  0  0  0  0  0  0
  -22.3700  -12.1720   22.3370 H   0  0  0  0  0  0  0  0  0  0  0  0
  -21.0780  -13.2950   22.0410 H   0  0  0  0  0  0  0  0  0  0  0  0
  -25.4100  -15.3140   20.2430 N   0  0  0  0  0  0  0  0  0  0  0  0
  -24.6310  -15.9610   20.3260 H   0  0  0  0  0  0  0  0  0  0  0  0
  -26.2680  -15.7670   19.9590 H   0  0  0  0  0  0  0  0  0  0  0  0
  -28.0370  -23.7330   19.6270 C   0  0  0  0  0  3  0  0  0  0  0  0
  -28.1810  -25.5020   19.8320 O   0  0  0  0  0  0  0  0  0  0  0  0
  -24.5980  -31.6930   22.9390 C   0  0  0  0  0  0  0  0  0  0  0  0
  -27.1970  -26.7240   19.7920 C   0  0  0  0  0  0  0  0  0  0  0  0
  -23.4190  -30.3160   21.2820 C   0  0  0  0  0  3  0  0  0  0  0  0
  -24.8870  -28.7350   19.8030 C   0  0  0  0  0  0  0  0  0  0  0  0
  -25.9940  -30.5090   21.1370 C   0  0  0  0  0  2  0  0  0  0  0  0
  -26.0820  -29.0940   20.4380 C   0  0  0  0  0  0  0  0  0  0  0  0
  -27.2170  -28.1190   20.4000 C   0  0  0  0  0  3  0  0  0  0  0  0
  -25.9650  -26.5900   19.1000 C   0  0  0  0  0  3  0  0  0  0  0  0
  -24.8710  -27.5130   19.1090 C   0  0  0  0  0  3  0  0  0  0  0  0
  -23.6580  -29.6610   19.8890 C   0  0  0  0  0  2  0  0  0  0  0  0
  -24.6940  -30.8720   21.8380 N   0  0  0  0  0  0  0  0  0  0  0  0
  -23.5040  -31.9560   23.4710 O   0  0  0  0  0  0  0  0  0  0  0  0
  -22.7350  -29.2960   22.2340 C   0  0  0  0  0  0  0  0  0  0  0  0
  -21.4010  -29.1320   22.1380 N   0  0  0  0  0  0  0  0  0  0  0  0
  -23.4180  -28.6530   23.0350 O   0  0  0  0  0  0  0  0  0  0  0  0
  -20.8930  -29.7040   21.4760 H   0  0  0  0  0  0  0  0  0  0  0  0
  -18.0440  -27.8590   22.6940 C   0  0  0  0  0  0  0  0  0  0  0  0
  -20.6070  -28.1590   22.9000 C   0  0  0  0  0  3  0  0  0  0  0  0
  -20.7130  -26.7450   22.2780 C   0  0  0  0  0  2  0  0  0  0  0  0
  -19.5910  -26.4420   21.2800 C   0  0  0  0  0  2  0  0  0  0  0  0
  -18.2230  -26.5410   21.9610 C   0  0  0  0  0  2  0  0  0  0  0  0
  -19.1610  -28.6270   23.1210 C   0  0  0  0  0  0  0  0  0  0  0  0
  -18.9350  -29.8590   23.7710 C   0  0  0  0  0  3  0  0  0  0  0  0
  -17.6250  -30.3260   23.9950 C   0  0  0  0  0  3  0  0  0  0  0  0
  -16.5230  -29.5570   23.5800 C   0  0  0  0  0  3  0  0  0  0  0  0
  -16.7340  -28.3250   22.9370 C   0  0  0  0  0  3  0  0  0  0  0  0
  -25.8530  -32.3560   23.5830 C   0  0  0  0  0  3  0  0  0  0  0  0
  -26.4130  -31.5470   24.8200 C   0  0  1  0  0  0  0  0  0  0  0  0
  -25.3490  -31.2410   25.9020 C   0  0  0  0  0  1  0  0  0  0  0  0
  -27.0210  -30.1980   24.3750 C   0  0  0  0  0  1  0  0  0  0  0  0
  -27.5550  -32.3440   25.4910 C   0  0  0  0  0  1  0  0  0  0  0  0
  -25.4850  -33.7200   24.0090 N   0  0  0  0  0  0  0  0  0  0  0  0
  -25.7890  -34.8460   23.3500 C   0  0  0  0  0  0  0  0  0  0  0  0
  -26.4640  -34.8470   22.3170 O   0  0  0  0  0  0  0  0  0  0  0  0
  -24.8800  -33.7900   24.8140 H   0  0  0  0  0  0  0  0  0  0  0  0
  -24.0060  -36.6170   23.1570 C   0  0  0  0  0  1  0  0  0  0  0  0
  -25.2660  -36.1800   23.9220 C   0  0  0  0  0  3  0  0  0  0  0  0
  -27.3790  -37.0720   24.8020 C   0  0  0  0  0  1  0  0  0  0  0  0
  -26.2630  -37.2720   23.8830 N   0  0  0  0  0  0  0  0  0  0  0  0
  -25.8280  -38.1650   24.1020 H   0  0  0  0  0  0  0  0  0  0  0  0
  -29.8210  -20.0900   22.8040 C   0  0  0  0  0  2  0  0  0  0  0  0
  -30.7360  -20.3180   24.0310 C   0  0  0  0  0  2  0  0  0  0  0  0
  -32.0490  -21.9010   25.5040 C   0  0  0  0  0  1  0  0  0  0  0  0
  -30.8930  -21.7740   24.4980 C   0  0  0  0  0  2  0  0  0  0  0  0
  1 15  1  0
  2  7  1  0
  3  4  1  0
  3  2  1  0
  5  4  1  0
  5 19  1  0
  5  6  1  0
  7  1  1  0
  7  6  1  0
  8  1  2  0
  9 14  1  0
 10  9  2  0
 11  9  1  0
 11 15  1  0
 12 13  1  0
 12 14  1  0
 14 86  1  0
 15 13  1  0
 16 17  2  0
 17 36  1  0
 18 17  1  0
 18 21  1  0
 19 16  1  0
 19 20  1  0
 20 18  2  0
 21 22  1  0
 22 23  2  0
 24 27  1  0
 24 23  1  0
 25 24  2  0
 26 25  1  0
 26 21  2  0
 27 28  1  0
 28 29  1  0
 29 30  2  0
 31 30  1  0
 31 35  1  0
 32 31  2  0
 33 28  2  0
 33 32  1  0
 34 33  1  0
 36 37  1  0
 37 40  1  0
 37 39  1  0
 38 36  2  0
 41 42  1  0
 41 16  1  0
 43 41  1  0
 44 45  1  0
 44 10  2  0
 46 57  2  0
 47 45  1  0
 47 52  1  0
 48 56  1  0
 48 58  1  0
 49 55  1  0
 49 51  1  0
 50 56  1  0
 51 50  1  0
 52 51  2  0
 53 54  1  0
 53 47  2  0
 54 49  2  0
 55 48  1  0
 56 46  1  0
 58 60  2  0
 59 58  1  0
 61 59  1  0
 62 71  2  0
 62 67  1  0
 63 59  1  0
 63 67  1  0
 64 63  1  0
 65 66  1  0
 65 64  1  0
 66 62  1  0
 67 68  2  0
 68 69  1  0
 70 69  2  0
 71 70  1  0
 72 46  1  0
 72 77  1  0
 72 73  1  0
 73 76  1  1
 73 74  1  0
 75 73  1  0
 77 80  1  0
 78 82  1  0
 78 77  1  0
 79 78  2  0
 82 81  1  0
 84 82  1  0
 84 85  1  0
 84 83  1  0
 86 87  1  0
 87 89  1  0
 89 88  1  0
M  ISO  4   1 100  15 100  44 101  45 101
M  END
>  <TORSDO>  (28) 
F 19

>  <SCORE>  (28) 
-13.609

>  <name>  (28) 
27

>  <ligand_id>  (28) 
27

>  <original_smiles>  (28) 
[H]C(=C1C([H])([H])N(C(=O)N2C([H])([H])C([H])([H])C([H])([H])C([H])(n3nc(-c4c([H])c([H])c(Oc5c([H])c([H])c(F)c([H])c5F)c([H])c4[H])c(C(=O)N([H])[H])c3N([H])[H])C2([H])[H])C([H])([H])C([H])([H])C1([H])C([H])([H])C([H])([H])C([H])([H])C([H])([H])[H])C([H])([H])Oc1c([H])c([H])c2c(c1[H])C([H])([H])N(C(=O)C([H])(N([H])C(=O)C([H])(N([H])C([H])([H])[H])C([H])([H])[H])C(C([H])([H])[H])(C([H])([H])[H])C([H])([H])[H])C([H])(C(=O)N([H])C1([H])c3c([H])c([H])c([H])c([H])c3C([H])([H])C([H])([H])C1([H])[H])C2([H])[H]

>  <smiles>  (28) 
[H]C(=C1C([H])([H])N(C(=O)N2C([H])([H])C([H])([H])C([H])([H])C([H])(n3nc(-c4c([H])c([H])c(Oc5c([H])c([H])c(F)c([H])c5F)c([H])c4[H])c(C(=O)N([H])[H])c3N([H])[H])C2([H])[H])C([H])([H])C([H])([H])C1([H])C([H])([H])C([H])([H])C([H])([H])C([H])([H])[H])C([H])([H])Oc1c([H])c([H])c2c(c1[H])C([H])([H])N(C(=O)C([H])(N([H])C(=O)C([H])(N([H])C([H])([H])[H])C([H])([H])[H])C(C([H])([H])[H])(C([H])([H])[H])C([H])([H])[H])C([H])(C(=O)N([H])C1([H])c3c([H])c([H])c([H])c([H])c3C([H])([H])C([H])([H])C1([H])[H])C2([H])[H]

$$$$
28:0:0
     RDKit          3D

 90 98  0  0  1  0  0  0  0  0999 V2000
  -28.9480  -19.7480   20.0500 C   0  0  0  0  0  0  0  0  0  0  0  0
  -30.6660  -19.5550   21.6630 C   0  0  0  0  0  2  0  0  0  0  0  0
  -30.1410  -21.0140   21.5650 C   0  0  0  0  0  2  0  0  0  0  0  0
  -29.6560  -18.6490   20.9220 C   0  0  0  0  0  3  0  0  0  0  0  0
  -29.2000  -21.0350   20.4560 N   0  0  0  0  0  0  0  0  0  0  0  0
  -28.1980  -19.4520   19.1160 O   0  0  0  0  0  0  0  0  0  0  0  0
  -29.9590  -15.9780   20.7160 C   0  0  0  0  0  3  0  0  0  0  0  0
  -30.2770  -17.2880   20.3760 C   0  0  0  0  0  0  0  0  0  0  0  0
  -30.6800  -14.7350   20.2490 C   0  0  0  0  0  0  0  0  0  0  0  0
  -30.3820  -12.4950   19.1970 C   0  0  0  0  0  2  0  0  0  0  0  0
  -29.4270  -12.6430   17.9930 C   0  0  0  0  0  2  0  0  0  0  0  0
  -27.9610  -12.4940   18.4420 C   0  0  0  0  0  2  0  0  0  0  0  0
  -27.6350  -13.3490   19.6970 C   0  0  0  0  0  3  0  0  0  0  0  0
  -28.7130  -13.1910   20.7900 C   0  0  0  0  0  2  0  0  0  0  0  0
  -30.0110  -13.5300   20.1920 N   0  0  0  0  0  0  0  0  0  0  0  0
  -31.8390  -14.7770   19.8250 O   0  0  0  0  0  0  0  0  0  0  0  0
  -25.2620  -13.9510   20.4680 C   0  0  0  0  0  0  0  0  0  0  0  0
  -24.1980  -13.1840   20.8540 C   0  0  0  0  0  0  0  0  0  0  0  0
  -24.6510  -11.8290   20.8110 C   0  0  0  0  0  0  0  0  0  0  0  0
  -26.2960  -13.0670   20.2090 N   0  0  0  0  0  0  0  0  0  0  0  0
  -25.9360  -11.7850   20.4760 N   0  0  0  0  0  0  0  0  0  0  0  0
  -23.9200  -10.5710   21.0100 C   0  0  0  0  0  0  0  0  0  0  0  0
  -24.3630   -9.5950   21.9310 C   0  0  0  0  0  3  0  0  0  0  0  0
  -23.6320   -8.4030   22.1190 C   0  0  0  0  0  3  0  0  0  0  0  0
  -22.4420   -8.1770   21.3860 C   0  0  0  0  0  0  0  0  0  0  0  0
  -22.0160   -9.1410   20.4560 C   0  0  0  0  0  3  0  0  0  0  0  0
  -22.7500  -10.3240   20.2660 C   0  0  0  0  0  3  0  0  0  0  0  0
  -21.6800   -7.0380   21.4850 O   0  0  0  0  0  0  0  0  0  0  0  0
  -21.6480   -6.2910   22.6350 C   0  0  0  0  0  0  0  0  0  0  0  0
  -21.2370   -6.8410   23.8690 C   0  0  0  0  0  3  0  0  0  0  0  0
  -21.1510   -6.0200   25.0110 C   0  0  0  0  0  3  0  0  0  0  0  0
  -21.4660   -4.6510   24.9220 C   0  0  0  0  0  0  0  0  0  0  0  0
  -21.8690   -4.1010   23.6920 C   0  0  0  0  0  3  0  0  0  0  0  0
  -21.9560   -4.9190   22.5520 C   0  0  0  0  0  0  0  0  0  0  0  0
  -22.3260   -4.3790   21.3660 F   0  0  0  0  0  0  0  0  0  0  0  0
  -21.3740   -3.8610   26.0160 F   0  0  0  0  0  0  0  0  0  0  0  0
  -22.8080  -13.6690   21.1510 C   0  0  0  0  0  0  0  0  0  0  0  0
  -22.0910  -12.9770   22.0310 N   0  0  0  0  0  0  0  0  0  0  0  0
  -22.3690  -14.6970   20.6410 O   0  0  0  0  0  0  0  0  0  0  0  0
  -22.4610  -12.1470   22.4680 H   0  0  0  0  0  0  0  0  0  0  0  0
  -21.1600  -13.2850   22.2710 H   0  0  0  0  0  0  0  0  0  0  0  0
  -25.4310  -15.3220   20.2940 N   0  0  0  0  0  0  0  0  0  0  0  0
  -24.6700  -15.9800   20.4240 H   0  0  0  0  0  0  0  0  0  0  0  0
  -26.2780  -15.7590   19.9520 H   0  0  0  0  0  0  0  0  0  0  0  0
  -31.2490  -17.5800   19.4960 O   0  0  0  0  0  0  0  0  0  0  0  0
  -31.3320  -18.5240   19.4460 H   0  0  0  0  0  0  0  0  0  0  0  0
  -28.4990  -22.3030   19.9900 C   0  0  0  0  0  2  0  0  0  0  0  0
  -28.9740  -23.7740   20.4380 C   0  0  0  0  0  3  0  0  0  0  0  0
  -28.0150  -24.9790   19.9850 C   0  0  0  0  0  3  0  0  0  0  0  0
  -28.2760  -26.4250   20.2690 O   0  0  0  0  0  0  0  0  0  0  0  0
  -24.6030  -31.8960   23.2790 C   0  0  0  0  0  0  0  0  0  0  0  0
  -27.1830  -27.3180   20.1980 C   0  0  0  0  0  0  0  0  0  0  0  0
  -23.3910  -30.5050   21.6420 C   0  0  0  0  0  3  0  0  0  0  0  0
  -24.8310  -28.9610   20.2020 C   0  0  0  0  0  0  0  0  0  0  0  0
  -25.9330  -30.8110   21.4530 C   0  0  0  0  0  2  0  0  0  0  0  0
  -26.0060  -29.4340   20.8000 C   0  0  0  0  0  0  0  0  0  0  0  0
  -27.1850  -28.6220   20.7940 C   0  0  0  0  0  3  0  0  0  0  0  0
  -25.9870  -26.9210   19.5550 C   0  0  0  0  0  3  0  0  0  0  0  0
  -24.8240  -27.7120   19.5710 C   0  0  0  0  0  3  0  0  0  0  0  0
  -23.5980  -29.8390   20.2580 C   0  0  0  0  0  2  0  0  0  0  0  0
  -24.6610  -31.0880   22.1810 N   0  0  0  0  0  0  0  0  0  0  0  0
  -23.5220  -32.1750   23.8180 O   0  0  0  0  0  0  0  0  0  0  0  0
  -22.7310  -29.4850   22.6000 C   0  0  0  0  0  0  0  0  0  0  0  0
  -21.4060  -29.3000   22.4710 N   0  0  0  0  0  0  0  0  0  0  0  0
  -23.4100  -28.8620   23.4210 O   0  0  0  0  0  0  0  0  0  0  0  0
  -20.9160  -29.8530   21.7810 H   0  0  0  0  0  0  0  0  0  0  0  0
  -18.0340  -28.0850   22.9640 C   0  0  0  0  0  0  0  0  0  0  0  0
  -20.5900  -28.3630   23.2440 C   0  0  0  0  0  3  0  0  0  0  0  0
  -20.7040  -26.9290   22.6770 C   0  0  0  0  0  2  0  0  0  0  0  0
  -19.6080  -26.5930   21.6610 C   0  0  0  0  0  2  0  0  0  0  0  0
  -18.2220  -26.7330   22.2970 C   0  0  0  0  0  2  0  0  0  0  0  0
  -19.1460  -28.8570   23.3940 C   0  0  0  0  0  0  0  0  0  0  0  0
  -18.9160  -30.1210   23.9780 C   0  0  0  0  0  3  0  0  0  0  0  0
  -17.6070  -30.6150   24.1360 C   0  0  0  0  0  3  0  0  0  0  0  0
  -16.5100  -29.8410   23.7210 C   0  0  0  0  0  3  0  0  0  0  0  0
  -16.7240  -28.5780   23.1400 C   0  0  0  0  0  3  0  0  0  0  0  0
  -25.8900  -32.5250   23.8960 C   0  0  0  0  0  3  0  0  0  0  0  0
  -25.5870  -33.9270   24.2180 N   0  0  0  0  0  0  0  0  0  0  0  0
  -25.9160  -34.9740   23.4480 C   0  0  0  0  0  0  0  0  0  0  0  0
  -26.5740  -34.8600   22.4110 O   0  0  0  0  0  0  0  0  0  0  0  0
  -25.0010  -34.0900   25.0240 H   0  0  0  0  0  0  0  0  0  0  0  0
  -24.1900  -36.7700   23.0980 C   0  0  0  0  0  1  0  0  0  0  0  0
  -25.4370  -36.3670   23.9010 C   0  0  0  0  0  3  0  0  0  0  0  0
  -27.5800  -37.2530   24.7070 C   0  0  0  0  0  1  0  0  0  0  0  0
  -26.4720  -37.4150   23.7700 N   0  0  0  0  0  0  0  0  0  0  0  0
  -26.0690  -38.3390   23.9120 H   0  0  0  0  0  0  0  0  0  0  0  0
  -26.4020  -31.7590   25.1780 C   0  0  1  0  0  0  0  0  0  0  0  0
  -25.3070  -31.5350   26.2460 C   0  0  0  0  0  1  0  0  0  0  0  0
  -26.9790  -30.3760   24.7960 C   0  0  0  0  0  1  0  0  0  0  0  0
  -27.5560  -32.5530   25.8350 C   0  0  0  0  0  1  0  0  0  0  0  0
  1  5  1  0
  1  4  1  0
  3  2  1  0
  4  8  1  0
  4  2  1  0
  5  3  1  0
  6  1  2  0
  8  7  2  0
  9  7  1  0
 10 15  1  0
 11 12  1  0
 11 10  1  0
 13 12  1  0
 13 20  1  0
 13 14  1  0
 15  9  1  0
 15 14  1  0
 16  9  2  0
 17 18  2  0
 18 37  1  0
 19 18  1  0
 19 22  1  0
 20 17  1  0
 20 21  1  0
 21 19  2  0
 22 23  1  0
 23 24  2  0
 25 28  1  0
 25 24  1  0
 26 25  2  0
 27 26  1  0
 27 22  2  0
 28 29  1  0
 29 30  1  0
 30 31  2  0
 32 31  1  0
 32 36  1  0
 33 32  2  0
 34 29  2  0
 34 33  1  0
 35 34  1  0
 37 38  1  0
 38 41  1  0
 38 40  1  0
 39 37  2  0
 42 43  1  0
 42 17  1  0
 44 42  1  0
 45  8  1  0
 46 45  1  0
 47 48  1  0
 47  5  1  0
 49 50  1  0
 49 48  2  0
 51 62  2  0
 52 50  1  0
 52 57  1  0
 53 61  1  0
 53 63  1  0
 54 60  1  0
 54 56  1  0
 55 61  1  0
 56 55  1  0
 57 56  2  0
 58 59  1  0
 58 52  2  0
 59 54  2  0
 60 53  1  0
 61 51  1  0
 63 65  2  0
 64 63  1  0
 66 64  1  0
 67 76  2  0
 67 72  1  0
 68 64  1  0
 68 72  1  0
 69 68  1  0
 70 71  1  0
 70 69  1  0
 71 67  1  0
 72 73  2  0
 73 74  1  0
 75 74  2  0
 76 75  1  0
 77 51  1  0
 77 78  1  0
 77 87  1  0
 78 81  1  0
 79 83  1  0
 79 78  1  0
 80 79  2  0
 83 82  1  0
 85 83  1  0
 85 86  1  0
 85 84  1  0
 87 90  1  1
 87 88  1  0
 89 87  1  0
M  ISO  4   7 100   9 100  49 101  50 101
M  END
>  <TORSDO>  (29) 
F 21

>  <SCORE>  (29) 
-13.711

>  <name>  (29) 
28

>  <ligand_id>  (29) 
28

>  <original_smiles>  (29) 
[H]OC(=C([H])C(=O)N1C([H])([H])C([H])([H])C([H])([H])C([H])(n2nc(-c3c([H])c([H])c(Oc4c([H])c([H])c(F)c([H])c4F)c([H])c3[H])c(C(=O)N([H])[H])c2N([H])[H])C1([H])[H])C1([H])C(=O)N(C([H])([H])C([H])([H])C([H])([H])Oc2c([H])c([H])c3c(c2[H])C([H])([H])N(C(=O)C([H])(N([H])C(=O)C([H])(N([H])C([H])([H])[H])C([H])([H])[H])C(C([H])([H])[H])(C([H])([H])[H])C([H])([H])[H])C([H])(C(=O)N([H])C2([H])c4c([H])c([H])c([H])c([H])c4C([H])([H])C([H])([H])C2([H])[H])C3([H])[H])C([H])([H])C1([H])[H]

>  <smiles>  (29) 
[H]OC(=C([H])C(=O)N1C([H])([H])C([H])([H])C([H])([H])C([H])(n2nc(-c3c([H])c([H])c(Oc4c([H])c([H])c(F)c([H])c4F)c([H])c3[H])c(C(=O)N([H])[H])c2N([H])[H])C1([H])[H])C1([H])C(=O)N(C([H])([H])C([H])([H])C([H])([H])Oc2c([H])c([H])c3c(c2[H])C([H])([H])N(C(=O)C([H])(N([H])C(=O)C([H])(N([H])C([H])([H])[H])C([H])([H])[H])C(C([H])([H])[H])(C([H])([H])[H])C([H])([H])[H])C([H])(C(=O)N([H])C2([H])c4c([H])c([H])c([H])c([H])c4C([H])([H])C([H])([H])C2([H])[H])C3([H])[H])C([H])([H])C1([H])[H]

$$$$
29:0:0
     RDKit          3D

 91 99  0  0  1  0  0  0  0  0999 V2000
  -28.4130  -19.7950   21.2850 C   0  0  0  0  0  2  0  0  0  0  0  0
  -28.4910  -18.4350   19.3130 C   0  0  0  0  0  2  0  0  0  0  0  0
  -29.7370  -20.0760   20.5570 C   0  0  0  0  0  3  0  0  0  0  0  0
  -29.9320  -18.6710   19.7990 C   0  0  0  0  0  3  0  0  0  0  0  0
  -27.5960  -19.0070   20.3400 N   0  0  0  0  0  4  0  0  0  0  0  0
  -26.9240  -19.6090   19.8890 H   0  0  0  0  0  0  0  0  0  0  0  0
  -27.0920  -18.2860   20.8310 H   0  0  0  0  0  0  0  0  0  0  0  0
  -29.6230  -21.4440   19.7040 C   0  0  0  0  0  2  0  0  0  0  0  0
  -29.3500  -22.8130   20.4480 C   0  0  0  0  0  3  0  0  0  0  0  0
  -28.7440  -23.9630   19.9760 C   0  0  0  0  0  3  0  0  0  0  0  0
  -28.4030  -25.2710   20.7910 C   0  0  0  0  0  2  0  0  0  0  0  0
  -28.5790  -26.6230   20.1940 O   0  0  0  0  0  0  0  0  0  0  0  0
  -24.6570  -31.9120   23.2350 C   0  0  0  0  0  0  0  0  0  0  0  0
  -27.4540  -27.4630   20.1770 C   0  0  0  0  0  0  0  0  0  0  0  0
  -23.5300  -30.5090   21.5460 C   0  0  0  0  0  3  0  0  0  0  0  0
  -25.0530  -29.0150   20.1330 C   0  0  0  0  0  0  0  0  0  0  0  0
  -26.0640  -30.8920   21.4280 C   0  0  0  0  0  2  0  0  0  0  0  0
  -26.1940  -29.5260   20.7630 C   0  0  0  0  0  0  0  0  0  0  0  0
  -27.4030  -28.7630   20.7700 C   0  0  0  0  0  3  0  0  0  0  0  0
  -26.2890  -27.0000   19.5320 C   0  0  0  0  0  3  0  0  0  0  0  0
  -25.1020  -27.7580   19.5070 C   0  0  0  0  0  3  0  0  0  0  0  0
  -23.7940  -29.8600   20.1600 C   0  0  0  0  0  2  0  0  0  0  0  0
  -24.7670  -31.1220   22.1270 N   0  0  0  0  0  0  0  0  0  0  0  0
  -23.5540  -32.1540   23.7470 O   0  0  0  0  0  0  0  0  0  0  0  0
  -22.8710  -29.4600   22.4760 C   0  0  0  0  0  0  0  0  0  0  0  0
  -21.5470  -29.2730   22.3360 N   0  0  0  0  0  0  0  0  0  0  0  0
  -23.5510  -28.8200   23.2820 O   0  0  0  0  0  0  0  0  0  0  0  0
  -21.0580  -29.8420   21.6600 H   0  0  0  0  0  0  0  0  0  0  0  0
  -18.1680  -28.0830   22.8370 C   0  0  0  0  0  0  0  0  0  0  0  0
  -20.7320  -28.3090   23.0780 C   0  0  0  0  0  3  0  0  0  0  0  0
  -20.8120  -26.9040   22.4370 C   0  0  0  0  0  2  0  0  0  0  0  0
  -19.6920  -26.6370   21.4260 C   0  0  0  0  0  2  0  0  0  0  0  0
  -18.3220  -26.7650   22.0970 C   0  0  0  0  0  2  0  0  0  0  0  0
  -19.3000  -28.8160   23.2830 C   0  0  0  0  0  0  0  0  0  0  0  0
  -19.1000  -30.0520   23.9350 C   0  0  0  0  0  3  0  0  0  0  0  0
  -17.8030  -30.5550   24.1450 C   0  0  0  0  0  3  0  0  0  0  0  0
  -16.6860  -29.8180   23.7140 C   0  0  0  0  0  3  0  0  0  0  0  0
  -16.8700  -28.5840   23.0660 C   0  0  0  0  0  3  0  0  0  0  0  0
  -25.9080  -32.5670   23.8980 C   0  0  0  0  0  3  0  0  0  0  0  0
  -26.3800  -31.8190   25.2050 C   0  0  1  0  0  0  0  0  0  0  0  0
  -25.2450  -31.5860   26.2300 C   0  0  0  0  0  1  0  0  0  0  0  0
  -26.9940  -30.4430   24.8580 C   0  0  0  0  0  1  0  0  0  0  0  0
  -27.4930  -32.6360   25.9020 C   0  0  0  0  0  1  0  0  0  0  0  0
  -25.5690  -33.9670   24.1980 N   0  0  0  0  0  0  0  0  0  0  0  0
  -25.9190  -35.0130   23.4390 C   0  0  0  0  0  0  0  0  0  0  0  0
  -26.6290  -34.9050   22.4360 O   0  0  0  0  0  0  0  0  0  0  0  0
  -24.9440  -34.1230   24.9750 H   0  0  0  0  0  0  0  0  0  0  0  0
  -24.1850  -36.7800   23.0010 C   0  0  0  0  0  1  0  0  0  0  0  0
  -25.4010  -36.4020   23.8620 C   0  0  0  0  0  3  0  0  0  0  0  0
  -27.4900  -37.3260   24.7610 C   0  0  0  0  0  1  0  0  0  0  0  0
  -26.4260  -37.4650   23.7710 N   0  0  0  0  0  0  0  0  0  0  0  0
  -26.0040  -38.3830   23.8840 H   0  0  0  0  0  0  0  0  0  0  0  0
  -30.5370  -17.4280   20.6440 C   0  0  0  0  0  2  0  0  0  0  0  0
  -30.9310  -14.8960   20.0310 C   0  0  0  0  0  0  0  0  0  0  0  0
  -30.6450  -12.6690   18.9510 C   0  0  0  0  0  2  0  0  0  0  0  0
  -29.6520  -12.8330   17.7800 C   0  0  0  0  0  2  0  0  0  0  0  0
  -28.1990  -12.6750   18.2770 C   0  0  0  0  0  2  0  0  0  0  0  0
  -27.9080  -13.5230   19.5430 C   0  0  0  0  0  3  0  0  0  0  0  0
  -29.0140  -13.3480   20.6040 C   0  0  0  0  0  2  0  0  0  0  0  0
  -30.2910  -13.6840   19.9630 N   0  0  0  0  0  0  0  0  0  0  0  0
  -32.1000  -15.0200   19.6590 O   0  0  0  0  0  0  0  0  0  0  0  0
  -30.1540  -15.9890   20.3450 N   0  0  0  0  0  0  0  0  0  0  0  0
  -29.2030  -15.7400   20.5720 H   0  0  0  0  0  0  0  0  0  0  0  0
  -25.5670  -14.1510   20.3920 C   0  0  0  0  0  0  0  0  0  0  0  0
  -24.5070  -13.3940   20.8050 C   0  0  0  0  0  0  0  0  0  0  0  0
  -24.9380  -12.0360   20.7210 C   0  0  0  0  0  0  0  0  0  0  0  0
  -26.5800  -13.2560   20.0850 N   0  0  0  0  0  0  0  0  0  0  0  0
  -26.2110  -11.9760   20.3460 N   0  0  0  0  0  0  0  0  0  0  0  0
  -24.1960  -10.7830   20.9160 C   0  0  0  0  0  0  0  0  0  0  0  0
  -24.6170   -9.8150   21.8530 C   0  0  0  0  0  3  0  0  0  0  0  0
  -23.8760   -8.6290   22.0370 C   0  0  0  0  0  3  0  0  0  0  0  0
  -22.6990   -8.4030   21.2850 C   0  0  0  0  0  0  0  0  0  0  0  0
  -22.2990   -9.3600   20.3350 C   0  0  0  0  0  3  0  0  0  0  0  0
  -23.0410  -10.5370   20.1490 C   0  0  0  0  0  3  0  0  0  0  0  0
  -21.9320   -7.2680   21.3770 O   0  0  0  0  0  0  0  0  0  0  0  0
  -21.8310   -6.5610   22.5480 C   0  0  0  0  0  0  0  0  0  0  0  0
  -21.3280   -7.1440   23.7300 C   0  0  0  0  0  3  0  0  0  0  0  0
  -21.1760   -6.3610   24.8920 C   0  0  0  0  0  3  0  0  0  0  0  0
  -21.5190   -4.9960   24.8700 C   0  0  0  0  0  0  0  0  0  0  0  0
  -22.0150   -4.4120   23.6920 C   0  0  0  0  0  3  0  0  0  0  0  0
  -22.1670   -5.1930   22.5320 C   0  0  0  0  0  0  0  0  0  0  0  0
  -22.6250   -4.6200   21.3940 F   0  0  0  0  0  0  0  0  0  0  0  0
  -21.3650   -4.2410   25.9830 F   0  0  0  0  0  0  0  0  0  0  0  0
  -23.1320  -13.8940   21.1510 C   0  0  0  0  0  0  0  0  0  0  0  0
  -22.4300  -13.1990   22.0380 N   0  0  0  0  0  0  0  0  0  0  0  0
  -22.6940  -14.9370   20.6670 O   0  0  0  0  0  0  0  0  0  0  0  0
  -22.8010  -12.3590   22.4570 H   0  0  0  0  0  0  0  0  0  0  0  0
  -21.5110  -13.5180   22.3120 H   0  0  0  0  0  0  0  0  0  0  0  0
  -25.7480  -15.5220   20.2200 N   0  0  0  0  0  0  0  0  0  0  0  0
  -24.9180  -16.1060   20.2410 H   0  0  0  0  0  0  0  0  0  0  0  0
  -26.4360  -15.8460   19.5550 H   0  0  0  0  0  0  0  0  0  0  0  0
  2  4  1  0
  2  5  1  0
  3  8  1  0
  3  1  1  0
  4  3  1  0
  4 53  1  0
  5  7  1  0
  5  1  1  0
  6  5  1  0
  8  9  1  0
 10  9  2  0
 10 11  1  0
 12 11  1  0
 13 24  2  0
 14 12  1  0
 14 19  1  0
 15 23  1  0
 15 25  1  0
 16 22  1  0
 16 18  1  0
 17 23  1  0
 18 19  2  0
 18 17  1  0
 20 14  2  0
 21 20  1  0
 21 16  2  0
 22 15  1  0
 23 13  1  0
 25 27  2  0
 26 25  1  0
 28 26  1  0
 29 38  2  0
 29 34  1  0
 30 26  1  0
 30 34  1  0
 31 30  1  0
 32 33  1  0
 32 31  1  0
 33 29  1  0
 34 35  2  0
 35 36  1  0
 37 36  2  0
 38 37  1  0
 39 13  1  0
 39 44  1  0
 39 40  1  0
 40 43  1  1
 40 41  1  0
 42 40  1  0
 44 47  1  0
 45 49  1  0
 45 44  1  0
 46 45  2  0
 49 48  1  0
 51 49  1  0
 51 52  1  0
 51 50  1  0
 54 62  1  0
 55 60  1  0
 56 57  1  0
 56 55  1  0
 58 57  1  0
 58 67  1  0
 58 59  1  0
 60 54  1  0
 60 59  1  0
 61 54  2  0
 62 63  1  0
 62 53  1  0
 64 65  2  0
 65 84  1  0
 66 65  1  0
 66 69  1  0
 67 68  1  0
 67 64  1  0
 68 66  2  0
 69 70  1  0
 70 71  2  0
 72 75  1  0
 72 71  1  0
 73 72  2  0
 74 73  1  0
 74 69  2  0
 75 76  1  0
 76 77  1  0
 77 78  2  0
 79 78  1  0
 79 83  1  0
 80 79  2  0
 81 76  2  0
 81 80  1  0
 82 81  1  0
 84 85  1  0
 85 88  1  0
 85 87  1  0
 86 84  2  0
 89 90  1  0
 89 64  1  0
 91 89  1  0
M  ISO  4  11 101  12 101  54 100  62 100
M  END
>  <TORSDO>  (30) 
F 20

>  <SCORE>  (30) 
-12.974

>  <name>  (30) 
29

>  <ligand_id>  (30) 
29

>  <original_smiles>  (30) 
[H]C(=C([H])C([H])([H])C1([H])C([H])(C([H])([H])N([H])C(=O)N2C([H])([H])C([H])([H])C([H])([H])C([H])(n3nc(-c4c([H])c([H])c(Oc5c([H])c([H])c(F)c([H])c5F)c([H])c4[H])c(C(=O)N([H])[H])c3N([H])[H])C2([H])[H])C([H])([H])[N+]([H])([H])C1([H])[H])C([H])([H])Oc1c([H])c([H])c2c(c1[H])C([H])([H])N(C(=O)C([H])(N([H])C(=O)C([H])(N([H])C([H])([H])[H])C([H])([H])[H])C(C([H])([H])[H])(C([H])([H])[H])C([H])([H])[H])C([H])(C(=O)N([H])C1([H])c3c([H])c([H])c([H])c([H])c3C([H])([H])C([H])([H])C1([H])[H])C2([H])[H]

>  <smiles>  (30) 
[H]C(=C([H])C([H])([H])C1([H])C([H])(C([H])([H])N([H])C(=O)N2C([H])([H])C([H])([H])C([H])([H])C([H])(n3nc(-c4c([H])c([H])c(Oc5c([H])c([H])c(F)c([H])c5F)c([H])c4[H])c(C(=O)N([H])[H])c3N([H])[H])C2([H])[H])C([H])([H])[N+]([H])([H])C1([H])[H])C([H])([H])Oc1c([H])c([H])c2c(c1[H])C([H])([H])N(C(=O)C([H])(N([H])C(=O)C([H])(N([H])C([H])([H])[H])C([H])([H])[H])C(C([H])([H])[H])(C([H])([H])[H])C([H])([H])[H])C([H])(C(=O)N([H])C1([H])c3c([H])c([H])c([H])c([H])c3C([H])([H])C([H])([H])C1([H])[H])C2([H])[H]

$$$$
30:0:0
     RDKit          3D

 89 97  0  0  1  0  0  0  0  0999 V2000
  -29.2730  -21.5930   19.7240 N   0  0  0  0  0  4  0  0  0  0  0  0
  -29.1420  -21.7450   18.7350 H   0  0  0  0  0  0  0  0  0  0  0  0
  -30.2590  -21.7490   19.8700 H   0  0  0  0  0  0  0  0  0  0  0  0
  -30.5550  -15.1750   19.9570 C   0  0  0  0  0  0  0  0  0  0  0  0
  -30.4000  -12.7760   19.0500 C   0  0  0  0  0  2  0  0  0  0  0  0
  -29.4170  -12.6720   17.8580 C   0  0  0  0  0  2  0  0  0  0  0  0
  -27.9860  -12.4180   18.3730 C   0  0  0  0  0  2  0  0  0  0  0  0
  -27.6130  -13.3470   19.5560 C   0  0  0  0  0  3  0  0  0  0  0  0
  -28.7250  -13.4360   20.6230 C   0  0  0  0  0  2  0  0  0  0  0  0
  -29.9320  -13.9060   19.9260 N   0  0  0  0  0  0  0  0  0  0  0  0
  -31.7550  -15.1400   19.6480 O   0  0  0  0  0  0  0  0  0  0  0  0
  -29.5430  -19.0460   21.0670 C   0  0  0  0  0  2  0  0  0  0  0  0
  -29.3990  -17.3860   21.0700 C   0  0  0  0  0  2  0  0  0  0  0  0
  -29.7900  -17.4000   18.7090 C   0  0  0  0  0  2  0  0  0  0  0  0
  -29.8260  -19.0590   18.7310 C   0  0  0  0  0  3  0  0  0  0  0  0
  -29.0490  -19.9640   19.8320 C   0  0  0  0  0  3  0  0  0  0  0  0
  -29.5000  -19.5500   17.3050 C   0  0  0  0  0  1  0  0  0  0  0  0
  -29.8620  -16.4750   19.9270 N   0  0  0  0  0  0  0  0  0  0  0  0
  -25.2850  -13.8810   20.4640 C   0  0  0  0  0  0  0  0  0  0  0  0
  -24.2430  -13.0930   20.8720 C   0  0  0  0  0  0  0  0  0  0  0  0
  -24.7090  -11.7460   20.7770 C   0  0  0  0  0  0  0  0  0  0  0  0
  -26.3140  -13.0160   20.1390 N   0  0  0  0  0  0  0  0  0  0  0  0
  -25.9810  -11.7240   20.3920 N   0  0  0  0  0  0  0  0  0  0  0  0
  -23.9920  -10.4770   20.9710 C   0  0  0  0  0  0  0  0  0  0  0  0
  -24.4370   -9.5110   21.9010 C   0  0  0  0  0  3  0  0  0  0  0  0
  -23.7230   -8.3100   22.0850 C   0  0  0  0  0  3  0  0  0  0  0  0
  -22.5460   -8.0640   21.3370 C   0  0  0  0  0  0  0  0  0  0  0  0
  -22.1220   -9.0160   20.3960 C   0  0  0  0  0  3  0  0  0  0  0  0
  -22.8370  -10.2090   20.2090 C   0  0  0  0  0  3  0  0  0  0  0  0
  -21.7980   -6.9150   21.4290 O   0  0  0  0  0  0  0  0  0  0  0  0
  -21.7130   -6.2050   22.5990 C   0  0  0  0  0  0  0  0  0  0  0  0
  -21.2080   -6.7790   23.7860 C   0  0  0  0  0  3  0  0  0  0  0  0
  -21.0710   -5.9930   24.9480 C   0  0  0  0  0  3  0  0  0  0  0  0
  -21.4310   -4.6320   24.9240 C   0  0  0  0  0  0  0  0  0  0  0  0
  -21.9300   -4.0580   23.7420 C   0  0  0  0  0  3  0  0  0  0  0  0
  -22.0690   -4.8410   22.5830 C   0  0  0  0  0  0  0  0  0  0  0  0
  -22.5290   -4.2750   21.4420 F   0  0  0  0  0  0  0  0  0  0  0  0
  -21.2960   -3.8780   26.0400 F   0  0  0  0  0  0  0  0  0  0  0  0
  -22.8610  -13.5620   21.2240 C   0  0  0  0  0  0  0  0  0  0  0  0
  -22.1720  -12.8470   22.1050 N   0  0  0  0  0  0  0  0  0  0  0  0
  -22.3990  -14.5990   20.7510 O   0  0  0  0  0  0  0  0  0  0  0  0
  -22.5660  -12.0150   22.5190 H   0  0  0  0  0  0  0  0  0  0  0  0
  -21.2480  -13.1490   22.3810 H   0  0  0  0  0  0  0  0  0  0  0  0
  -25.4330  -15.2550   20.3060 N   0  0  0  0  0  0  0  0  0  0  0  0
  -24.6640  -15.9030   20.4350 H   0  0  0  0  0  0  0  0  0  0  0  0
  -26.2490  -15.6860   19.8910 H   0  0  0  0  0  0  0  0  0  0  0  0
  -28.5100  -22.8870   20.3790 C   0  0  0  0  0  2  0  0  0  0  0  0
  -28.3610  -24.5010   19.6830 C   0  0  0  0  0  2  0  0  0  0  0  0
  -28.2560  -26.0110   20.2660 O   0  0  0  0  0  0  0  0  0  0  0  0
  -24.6310  -31.8740   23.1700 C   0  0  0  0  0  0  0  0  0  0  0  0
  -27.2070  -27.0390   20.1560 C   0  0  0  0  0  0  0  0  0  0  0  0
  -23.4400  -30.4620   21.5410 C   0  0  0  0  0  3  0  0  0  0  0  0
  -24.8910  -28.8550   20.1320 C   0  0  0  0  0  0  0  0  0  0  0  0
  -26.0020  -30.6950   21.3880 C   0  0  0  0  0  2  0  0  0  0  0  0
  -26.0760  -29.2860   20.7410 C   0  0  0  0  0  0  0  0  0  0  0  0
  -27.2280  -28.3920   20.7300 C   0  0  0  0  0  3  0  0  0  0  0  0
  -25.9910  -26.7380   19.5050 C   0  0  0  0  0  3  0  0  0  0  0  0
  -24.8690  -27.6030   19.4990 C   0  0  0  0  0  3  0  0  0  0  0  0
  -23.6670  -29.7640   20.1730 C   0  0  0  0  0  2  0  0  0  0  0  0
  -24.7130  -31.0360   22.0890 N   0  0  0  0  0  0  0  0  0  0  0  0
  -23.5410  -32.1630   23.6910 O   0  0  0  0  0  0  0  0  0  0  0  0
  -22.7510  -29.4720   22.5160 C   0  0  0  0  0  0  0  0  0  0  0  0
  -21.4190  -29.3150   22.4020 N   0  0  0  0  0  0  0  0  0  0  0  0
  -23.4190  -28.8420   23.3390 O   0  0  0  0  0  0  0  0  0  0  0  0
  -20.9330  -29.8750   21.7140 H   0  0  0  0  0  0  0  0  0  0  0  0
  -18.0280  -28.1490   22.9480 C   0  0  0  0  0  0  0  0  0  0  0  0
  -20.5940  -28.3890   23.1820 C   0  0  0  0  0  3  0  0  0  0  0  0
  -20.6720  -26.9550   22.6080 C   0  0  0  0  0  2  0  0  0  0  0  0
  -19.5550  -26.6450   21.6050 C   0  0  0  0  0  2  0  0  0  0  0  0
  -18.1830  -26.8010   22.2670 C   0  0  0  0  0  2  0  0  0  0  0  0
  -19.1600  -28.9020   23.3650 C   0  0  0  0  0  0  0  0  0  0  0  0
  -18.9580  -30.1620   23.9680 C   0  0  0  0  0  3  0  0  0  0  0  0
  -17.6600  -30.6730   24.1560 C   0  0  0  0  0  3  0  0  0  0  0  0
  -16.5420  -29.9180   23.7530 C   0  0  0  0  0  3  0  0  0  0  0  0
  -16.7300  -28.6580   23.1580 C   0  0  0  0  0  3  0  0  0  0  0  0
  -25.8990  -32.5240   23.7990 C   0  0  0  0  0  3  0  0  0  0  0  0
  -25.5770  -33.9250   24.1220 N   0  0  0  0  0  0  0  0  0  0  0  0
  -25.9070  -34.9830   23.3710 C   0  0  0  0  0  0  0  0  0  0  0  0
  -26.5770  -34.8840   22.3400 O   0  0  0  0  0  0  0  0  0  0  0  0
  -24.9730  -34.0710   24.9200 H   0  0  0  0  0  0  0  0  0  0  0  0
  -24.1820  -36.7870   23.0210 C   0  0  0  0  0  1  0  0  0  0  0  0
  -25.4200  -36.3720   23.8340 C   0  0  0  0  0  3  0  0  0  0  0  0
  -27.5480  -37.2630   24.6760 C   0  0  0  0  0  1  0  0  0  0  0  0
  -26.4510  -37.4270   23.7270 N   0  0  0  0  0  0  0  0  0  0  0  0
  -26.0410  -38.3460   23.8720 H   0  0  0  0  0  0  0  0  0  0  0  0
  -26.4070  -31.7710   25.0920 C   0  0  1  0  0  0  0  0  0  0  0  0
  -25.3060  -31.5450   26.1560 C   0  0  0  0  0  1  0  0  0  0  0  0
  -26.9950  -30.3880   24.7300 C   0  0  0  0  0  1  0  0  0  0  0  0
  -27.5500  -32.5760   25.7560 C   0  0  0  0  0  1  0  0  0  0  0  0
  1  3  1  0
  1 47  1  0
  2  1  1  0
  5 10  1  0
  6  7  1  0
  6  5  1  0
  8  7  1  0
  8 22  1  0
  8  9  1  0
 10  4  1  0
 10  9  1  0
 11  4  2  0
 12 13  1  0
 14 15  1  0
 14 18  1  0
 15 17  1  0
 15 16  1  0
 16  1  1  0
 16 12  1  0
 18  4  1  0
 18 13  1  0
 19 20  2  0
 20 39  1  0
 21 20  1  0
 21 24  1  0
 22 23  1  0
 22 19  1  0
 23 21  2  0
 24 25  1  0
 25 26  2  0
 27 30  1  0
 27 26  1  0
 28 27  2  0
 29 28  1  0
 29 24  2  0
 30 31  1  0
 31 32  1  0
 32 33  2  0
 34 33  1  0
 34 38  1  0
 35 34  2  0
 36 31  2  0
 36 35  1  0
 37 36  1  0
 39 40  1  0
 40 43  1  0
 40 42  1  0
 41 39  2  0
 44 45  1  0
 44 19  1  0
 46 44  1  0
 48 49  1  0
 48 47  1  0
 50 61  2  0
 51 49  1  0
 51 56  1  0
 52 60  1  0
 52 62  1  0
 53 59  1  0
 53 55  1  0
 54 60  1  0
 55 54  1  0
 56 55  2  0
 57 51  2  0
 58 57  1  0
 58 53  2  0
 59 52  1  0
 60 50  1  0
 62 64  2  0
 63 62  1  0
 65 63  1  0
 66 75  2  0
 66 71  1  0
 67 63  1  0
 67 71  1  0
 68 67  1  0
 69 70  1  0
 69 68  1  0
 70 66  1  0
 71 72  2  0
 72 73  1  0
 74 73  2  0
 75 74  1  0
 76 50  1  0
 76 77  1  0
 76 86  1  0
 77 80  1  0
 78 82  1  0
 78 77  1  0
 79 78  2  0
 82 81  1  0
 84 82  1  0
 84 85  1  0
 84 83  1  0
 86 89  1  1
 86 87  1  0
 88 86  1  0
M  ISO  4   4 100  18 100  48 101  49 101
M  END
>  <TORSDO>  (31) 
F 18

>  <SCORE>  (31) 
-15.144

>  <name>  (31) 
30

>  <ligand_id>  (31) 
30

>  <original_smiles>  (31) 
[H]c1c([H])c([H])c2c(c1[H])C([H])([H])C([H])([H])C([H])([H])C2([H])N([H])C(=O)C1([H])N(C(=O)C([H])(N([H])C(=O)C([H])(N([H])C([H])([H])[H])C([H])([H])[H])C(C([H])([H])[H])(C([H])([H])[H])C([H])([H])[H])C([H])([H])c2c([H])c(OC([H])([H])C([H])([H])[N+]([H])([H])C3([H])C([H])([H])C([H])([H])N(C(=O)N4C([H])([H])C([H])([H])C([H])([H])C([H])(n5nc(-c6c([H])c([H])c(Oc7c([H])c([H])c(F)c([H])c7F)c([H])c6[H])c(C(=O)N([H])[H])c5N([H])[H])C4([H])[H])C([H])([H])C3([H])C([H])([H])[H])c([H])c([H])c2C1([H])[H]

>  <smiles>  (31) 
[H]c1c([H])c([H])c2c(c1[H])C([H])([H])C([H])([H])C([H])([H])C2([H])N([H])C(=O)C1([H])N(C(=O)C([H])(N([H])C(=O)C([H])(N([H])C([H])([H])[H])C([H])([H])[H])C(C([H])([H])[H])(C([H])([H])[H])C([H])([H])[H])C([H])([H])c2c([H])c(OC([H])([H])C([H])([H])[N+]([H])([H])C3([H])C([H])([H])C([H])([H])N(C(=O)N4C([H])([H])C([H])([H])C([H])([H])C([H])(n5nc(-c6c([H])c([H])c(Oc7c([H])c([H])c(F)c([H])c7F)c([H])c6[H])c(C(=O)N([H])[H])c5N([H])[H])C4([H])[H])C([H])([H])C3([H])C([H])([H])[H])c([H])c([H])c2C1([H])[H]

$$$$
31:0:0
     RDKit          3D

 90 98  0  0  1  0  0  0  0  0999 V2000
  -29.8250  -20.6240   19.2010 C   0  0  0  0  0  2  0  0  0  0  0  0
  -29.1320  -22.0900   18.9860 C   0  0  0  0  0  2  0  0  0  0  0  0
  -28.8220  -20.5240   21.3600 C   0  0  0  0  0  2  0  0  0  0  0  0
  -29.1740  -19.4950   20.1420 C   0  0  0  0  0  3  0  0  0  0  0  0
  -28.7720  -23.0160   20.2400 C   0  0  0  0  0  3  0  0  0  0  0  0
  -28.1290  -21.9100   21.1020 N   0  0  0  0  0  4  0  0  0  0  0  0
  -27.9600  -22.3120   22.0120 H   0  0  0  0  0  0  0  0  0  0  0  0
  -27.2190  -21.7120   20.7140 H   0  0  0  0  0  0  0  0  0  0  0  0
  -31.2120  -18.3230   21.3770 C   0  0  0  0  0  1  0  0  0  0  0  0
  -30.1250  -18.0260   20.3300 C   0  0  0  0  0  0  0  0  0  0  0  0
  -30.4630  -15.2060   20.2570 C   0  0  0  0  0  0  0  0  0  0  0  0
  -30.3580  -12.8180   19.3330 C   0  0  0  0  0  2  0  0  0  0  0  0
  -29.4110  -12.7160   18.1130 C   0  0  0  0  0  2  0  0  0  0  0  0
  -27.9640  -12.4700   18.5770 C   0  0  0  0  0  2  0  0  0  0  0  0
  -27.5580  -13.3980   19.7520 C   0  0  0  0  0  3  0  0  0  0  0  0
  -28.6330  -13.4680   20.8570 C   0  0  0  0  0  2  0  0  0  0  0  0
  -29.8680  -13.9310   20.2140 N   0  0  0  0  0  0  0  0  0  0  0  0
  -31.6640  -15.2240   19.9610 O   0  0  0  0  0  0  0  0  0  0  0  0
  -29.7250  -16.4490   20.4330 N   0  0  0  0  0  4  0  0  0  0  0  0
  -28.7480  -16.2910   20.6340 H   0  0  0  0  0  0  0  0  0  0  0  0
  -25.1990  -13.9450   20.5590 C   0  0  0  0  0  0  0  0  0  0  0  0
  -24.1470  -13.1600   20.9390 C   0  0  0  0  0  0  0  0  0  0  0  0
  -24.6170  -11.8120   20.8770 C   0  0  0  0  0  0  0  0  0  0  0  0
  -26.2390  -13.0770   20.2810 N   0  0  0  0  0  0  0  0  0  0  0  0
  -25.9010  -11.7860   20.5380 N   0  0  0  0  0  0  0  0  0  0  0  0
  -23.8970  -10.5450   21.0610 C   0  0  0  0  0  0  0  0  0  0  0  0
  -24.3450   -9.5660   21.9760 C   0  0  0  0  0  3  0  0  0  0  0  0
  -23.6230   -8.3650   22.1500 C   0  0  0  0  0  3  0  0  0  0  0  0
  -22.4380   -8.1360   21.4100 C   0  0  0  0  0  0  0  0  0  0  0  0
  -22.0100   -9.1030   20.4850 C   0  0  0  0  0  3  0  0  0  0  0  0
  -22.7320  -10.2950   20.3090 C   0  0  0  0  0  3  0  0  0  0  0  0
  -21.6860   -6.9890   21.4950 O   0  0  0  0  0  0  0  0  0  0  0  0
  -21.6470   -6.2380   22.6430 C   0  0  0  0  0  0  0  0  0  0  0  0
  -21.1930   -6.7730   23.8680 C   0  0  0  0  0  3  0  0  0  0  0  0
  -21.1040   -5.9470   25.0060 C   0  0  0  0  0  3  0  0  0  0  0  0
  -21.4540   -4.5870   24.9190 C   0  0  0  0  0  0  0  0  0  0  0  0
  -21.9020   -4.0510   23.6980 C   0  0  0  0  0  3  0  0  0  0  0  0
  -21.9940   -4.8740   22.5610 C   0  0  0  0  0  0  0  0  0  0  0  0
  -22.4040   -4.3480   21.3820 F   0  0  0  0  0  0  0  0  0  0  0  0
  -21.3620   -3.7900   26.0100 F   0  0  0  0  0  0  0  0  0  0  0  0
  -22.7550  -13.6290   21.2440 C   0  0  0  0  0  0  0  0  0  0  0  0
  -22.0490  -12.9210   22.1170 N   0  0  0  0  0  0  0  0  0  0  0  0
  -22.3060  -14.6600   20.7440 O   0  0  0  0  0  0  0  0  0  0  0  0
  -22.4270  -12.0860   22.5380 H   0  0  0  0  0  0  0  0  0  0  0  0
  -21.1150  -13.2160   22.3640 H   0  0  0  0  0  0  0  0  0  0  0  0
  -25.3530  -15.3190   20.3970 N   0  0  0  0  0  0  0  0  0  0  0  0
  -24.5800  -15.9630   20.5210 H   0  0  0  0  0  0  0  0  0  0  0  0
  -26.1800  -15.7620   20.0170 H   0  0  0  0  0  0  0  0  0  0  0  0
  -27.8940  -24.5210   19.9950 C   0  0  0  0  0  2  0  0  0  0  0  0
  -28.1960  -26.0850   20.1980 O   0  0  0  0  0  0  0  0  0  0  0  0
  -24.6400  -31.8970   23.2480 C   0  0  0  0  0  0  0  0  0  0  0  0
  -27.1690  -27.1340   20.1500 C   0  0  0  0  0  0  0  0  0  0  0  0
  -23.4290  -30.5200   21.6080 C   0  0  0  0  0  3  0  0  0  0  0  0
  -24.8610  -28.9510   20.1500 C   0  0  0  0  0  0  0  0  0  0  0  0
  -25.9880  -30.7610   21.4290 C   0  0  0  0  0  2  0  0  0  0  0  0
  -26.0520  -29.3680   20.7570 C   0  0  0  0  0  0  0  0  0  0  0  0
  -27.2050  -28.4780   20.7380 C   0  0  0  0  0  3  0  0  0  0  0  0
  -25.9500  -26.8450   19.4980 C   0  0  0  0  0  3  0  0  0  0  0  0
  -24.8290  -27.7060   19.5040 C   0  0  0  0  0  3  0  0  0  0  0  0
  -23.6390  -29.8580   20.2200 C   0  0  0  0  0  2  0  0  0  0  0  0
  -24.7080  -31.0840   22.1490 N   0  0  0  0  0  0  0  0  0  0  0  0
  -23.5560  -32.1760   23.7860 O   0  0  0  0  0  0  0  0  0  0  0  0
  -22.7520  -29.5070   22.5670 C   0  0  0  0  0  0  0  0  0  0  0  0
  -21.4240  -29.3290   22.4440 N   0  0  0  0  0  0  0  0  0  0  0  0
  -23.4290  -28.8820   23.3870 O   0  0  0  0  0  0  0  0  0  0  0  0
  -20.9320  -29.8880   21.7610 H   0  0  0  0  0  0  0  0  0  0  0  0
  -18.0530  -28.0920   22.9470 C   0  0  0  0  0  0  0  0  0  0  0  0
  -20.6100  -28.3820   23.2120 C   0  0  0  0  0  3  0  0  0  0  0  0
  -20.7270  -26.9520   22.6350 C   0  0  0  0  0  2  0  0  0  0  0  0
  -19.6280  -26.6210   21.6200 C   0  0  0  0  0  2  0  0  0  0  0  0
  -18.2440  -26.7490   22.2620 C   0  0  0  0  0  2  0  0  0  0  0  0
  -19.1640  -28.8660   23.3780 C   0  0  0  0  0  0  0  0  0  0  0  0
  -18.9290  -30.1220   23.9780 C   0  0  0  0  0  3  0  0  0  0  0  0
  -17.6180  -30.6050   24.1500 C   0  0  0  0  0  3  0  0  0  0  0  0
  -16.5220  -29.8290   23.7350 C   0  0  0  0  0  3  0  0  0  0  0  0
  -16.7400  -28.5740   23.1390 C   0  0  0  0  0  3  0  0  0  0  0  0
  -25.9200  -32.5330   23.8740 C   0  0  0  0  0  3  0  0  0  0  0  0
  -25.6140  -33.9350   24.2080 N   0  0  0  0  0  0  0  0  0  0  0  0
  -25.9260  -34.9920   23.4450 C   0  0  0  0  0  0  0  0  0  0  0  0
  -26.5710  -34.8890   22.3980 O   0  0  0  0  0  0  0  0  0  0  0  0
  -25.0470  -34.0900   25.0280 H   0  0  0  0  0  0  0  0  0  0  0  0
  -24.1870  -36.7840   23.1480 C   0  0  0  0  0  1  0  0  0  0  0  0
  -25.4550  -36.3820   23.9180 C   0  0  0  0  0  3  0  0  0  0  0  0
  -27.6110  -37.2750   24.6850 C   0  0  0  0  0  1  0  0  0  0  0  0
  -26.4820  -37.4360   23.7710 N   0  0  0  0  0  0  0  0  0  0  0  0
  -26.0780  -38.3570   23.9240 H   0  0  0  0  0  0  0  0  0  0  0  0
  -26.4280  -31.7680   25.1570 C   0  0  1  0  0  0  0  0  0  0  0  0
  -25.3290  -31.5460   26.2240 C   0  0  0  0  0  1  0  0  0  0  0  0
  -27.0030  -30.3830   24.7820 C   0  0  0  0  0  1  0  0  0  0  0  0
  -27.5840  -32.5570   25.8140 C   0  0  0  0  0  1  0  0  0  0  0  0
  1  4  1  0
  2  1  1  0
  2  5  1  0
  4 10  1  0
  4  3  1  0
  5 49  1  0
  5  6  1  0
  6  3  1  0
  6  7  1  0
  8  6  1  0
 10 19  2  0
 10  9  1  0
 11 19  1  0
 12 17  1  0
 13 14  1  0
 13 12  1  0
 15 14  1  0
 15 24  1  0
 15 16  1  0
 17 11  1  0
 17 16  1  0
 18 11  2  0
 19 20  1  0
 21 22  2  0
 22 41  1  0
 23 22  1  0
 23 26  1  0
 24 25  1  0
 24 21  1  0
 25 23  2  0
 26 27  1  0
 27 28  2  0
 29 32  1  0
 29 28  1  0
 30 29  2  0
 31 30  1  0
 31 26  2  0
 32 33  1  0
 33 34  1  0
 34 35  2  0
 36 35  1  0
 36 40  1  0
 37 36  2  0
 38 33  2  0
 38 37  1  0
 39 38  1  0
 41 42  1  0
 42 45  1  0
 42 44  1  0
 43 41  2  0
 46 47  1  0
 46 21  1  0
 48 46  1  0
 49 50  1  0
 51 62  2  0
 52 50  1  0
 52 57  1  0
 53 61  1  0
 53 63  1  0
 54 60  1  0
 54 56  1  0
 55 61  1  0
 56 55  1  0
 57 56  2  0
 58 59  1  0
 58 52  2  0
 59 54  2  0
 60 53  1  0
 61 51  1  0
 63 65  2  0
 64 63  1  0
 66 64  1  0
 67 76  2  0
 67 72  1  0
 68 64  1  0
 68 72  1  0
 69 68  1  0
 70 71  1  0
 70 69  1  0
 71 67  1  0
 72 73  2  0
 73 74  1  0
 75 74  2  0
 76 75  1  0
 77 51  1  0
 77 78  1  0
 77 87  1  0
 78 81  1  0
 79 83  1  0
 79 78  1  0
 80 79  2  0
 83 82  1  0
 85 83  1  0
 85 86  1  0
 85 84  1  0
 87 90  1  1
 87 88  1  0
 89 87  1  0
M  ISO  4  11 100  19 100  49 101  50 101
M  END
>  <TORSDO>  (32) 
F 18

>  <SCORE>  (32) 
-15.567

>  <name>  (32) 
31

>  <ligand_id>  (32) 
31

>  <original_smiles>  (32) 
[H]c1c([H])c([H])c2c(c1[H])C([H])([H])C([H])([H])C([H])([H])C2([H])N([H])C(=O)C1([H])N(C(=O)C([H])(N([H])C(=O)C([H])(N([H])C([H])([H])[H])C([H])([H])[H])C(C([H])([H])[H])(C([H])([H])[H])C([H])([H])[H])C([H])([H])c2c([H])c(OC([H])([H])C3([H])C([H])([H])C([H])([H])C([H])(C([H])(N([H])C(=O)N4C([H])([H])C([H])([H])C([H])([H])C([H])(n5nc(-c6c([H])c([H])c(Oc7c([H])c([H])c(F)c([H])c7F)c([H])c6[H])c(C(=O)N([H])[H])c5N([H])[H])C4([H])[H])C([H])([H])[H])C([H])([H])[N+]3([H])[H])c([H])c([H])c2C1([H])[H]

>  <smiles>  (32) 
[H]c1c([H])c([H])c2c(c1[H])C([H])([H])C([H])([H])C([H])([H])C2([H])N([H])C(=O)C1([H])N(C(=O)C([H])(N([H])C(=O)C([H])(N([H])C([H])([H])[H])C([H])([H])[H])C(C([H])([H])[H])(C([H])([H])[H])C([H])([H])[H])C([H])([H])c2c([H])c(OC([H])([H])C3([H])C([H])([H])C([H])([H])C([H])(C([H])(N([H])C(=O)N4C([H])([H])C([H])([H])C([H])([H])C([H])(n5nc(-c6c([H])c([H])c(Oc7c([H])c([H])c(F)c([H])c7F)c([H])c6[H])c(C(=O)N([H])[H])c5N([H])[H])C4([H])[H])C([H])([H])[H])C([H])([H])[N+]3([H])[H])c([H])c([H])c2C1([H])[H]

$$$$
32:0:0
     RDKit          3D

 90 98  0  0  1  0  0  0  0  0999 V2000
  -30.0490  -22.1110   21.9790 C   0  0  0  0  0  2  0  0  0  0  0  0
  -29.1660  -20.7090   20.1000 C   0  0  0  0  0  2  0  0  0  0  0  0
  -30.1640  -20.7900   22.7890 C   0  0  0  0  0  2  0  0  0  0  0  0
  -28.9220  -22.1040   20.9220 C   0  0  0  0  0  3  0  0  0  0  0  0
  -29.4780  -19.2920   20.8970 C   0  0  0  0  0  3  0  0  0  0  0  0
  -30.4820  -19.5990   21.9520 N   0  0  0  0  0  4  0  0  0  0  0  0
  -30.5700  -18.8030   22.5640 H   0  0  0  0  0  0  0  0  0  0  0  0
  -31.3880  -19.7430   21.5340 H   0  0  0  0  0  0  0  0  0  0  0  0
  -31.1350  -18.1790   19.2070 C   0  0  0  0  0  1  0  0  0  0  0  0
  -29.8660  -17.9110   20.0480 C   0  0  0  0  0  3  0  0  0  0  0  0
  -29.8630  -16.3350   20.6500 C   0  0  0  0  0  2  0  0  0  0  0  0
  -30.6460  -14.9260   20.2810 C   0  0  0  0  0  0  0  0  0  0  0  0
  -30.4880  -12.6080   19.2910 C   0  0  0  0  0  2  0  0  0  0  0  0
  -29.5540  -12.6440   18.0570 C   0  0  0  0  0  2  0  0  0  0  0  0
  -28.0820  -12.4660   18.4780 C   0  0  0  0  0  2  0  0  0  0  0  0
  -27.6940  -13.3520   19.6910 C   0  0  0  0  0  3  0  0  0  0  0  0
  -28.7530  -13.3030   20.8120 C   0  0  0  0  0  2  0  0  0  0  0  0
  -30.0460  -13.6730   20.2280 N   0  0  0  0  0  0  0  0  0  0  0  0
  -31.8250  -14.9870   19.9090 O   0  0  0  0  0  0  0  0  0  0  0  0
  -25.3040  -13.9200   20.4220 C   0  0  0  0  0  0  0  0  0  0  0  0
  -24.2460  -13.1400   20.7970 C   0  0  0  0  0  0  0  0  0  0  0  0
  -24.7180  -11.7920   20.7760 C   0  0  0  0  0  0  0  0  0  0  0  0
  -26.3530  -13.0470   20.1860 N   0  0  0  0  0  0  0  0  0  0  0  0
  -26.0080  -11.7620   20.4590 N   0  0  0  0  0  0  0  0  0  0  0  0
  -24.0020  -10.5240   20.9740 C   0  0  0  0  0  0  0  0  0  0  0  0
  -24.4390   -9.5690   21.9180 C   0  0  0  0  0  3  0  0  0  0  0  0
  -23.7200   -8.3660   22.1060 C   0  0  0  0  0  3  0  0  0  0  0  0
  -22.5510   -8.1090   21.3500 C   0  0  0  0  0  0  0  0  0  0  0  0
  -22.1350   -9.0540   20.3940 C   0  0  0  0  0  3  0  0  0  0  0  0
  -22.8530  -10.2480   20.2050 C   0  0  0  0  0  3  0  0  0  0  0  0
  -21.8080   -6.9590   21.4410 O   0  0  0  0  0  0  0  0  0  0  0  0
  -21.7510   -6.2300   22.6030 C   0  0  0  0  0  0  0  0  0  0  0  0
  -21.3070   -6.7940   23.8170 C   0  0  0  0  0  3  0  0  0  0  0  0
  -21.2040   -5.9920   24.9730 C   0  0  0  0  0  3  0  0  0  0  0  0
  -21.5290   -4.6240   24.9100 C   0  0  0  0  0  0  0  0  0  0  0  0
  -21.9660   -4.0590   23.6980 C   0  0  0  0  0  3  0  0  0  0  0  0
  -22.0730   -4.8590   22.5500 C   0  0  0  0  0  0  0  0  0  0  0  0
  -22.4740   -4.3040   21.3790 F   0  0  0  0  0  0  0  0  0  0  0  0
  -21.4210   -3.8480   26.0160 F   0  0  0  0  0  0  0  0  0  0  0  0
  -22.8430  -13.6060   21.0610 C   0  0  0  0  0  0  0  0  0  0  0  0
  -22.1180  -12.9120   21.9300 N   0  0  0  0  0  0  0  0  0  0  0  0
  -22.3960  -14.6240   20.5320 O   0  0  0  0  0  0  0  0  0  0  0  0
  -22.4860  -12.0920   22.3880 H   0  0  0  0  0  0  0  0  0  0  0  0
  -21.1740  -13.2080   22.1430 H   0  0  0  0  0  0  0  0  0  0  0  0
  -25.4610  -15.2910   20.2380 N   0  0  0  0  0  0  0  0  0  0  0  0
  -24.6950  -15.9500   20.3470 H   0  0  0  0  0  0  0  0  0  0  0  0
  -26.3180  -15.7290   19.9280 H   0  0  0  0  0  0  0  0  0  0  0  0
  -28.8220  -23.5760   20.1530 C   0  0  0  0  0  3  0  0  0  0  0  0
  -28.1280  -24.9320   20.7900 C   0  0  0  0  0  3  0  0  0  0  0  0
  -28.3250  -26.3540   20.2660 O   0  0  0  0  0  0  0  0  0  0  0  0
  -24.6000  -31.9030   23.2060 C   0  0  0  0  0  0  0  0  0  0  0  0
  -27.2360  -27.2690   20.2210 C   0  0  0  0  0  0  0  0  0  0  0  0
  -23.4130  -30.4930   21.5640 C   0  0  0  0  0  3  0  0  0  0  0  0
  -24.8820  -28.9330   20.1520 C   0  0  0  0  0  0  0  0  0  0  0  0
  -25.9540  -30.8090   21.3880 C   0  0  0  0  0  2  0  0  0  0  0  0
  -26.0510  -29.4180   20.7540 C   0  0  0  0  0  0  0  0  0  0  0  0
  -27.2320  -28.6010   20.7700 C   0  0  0  0  0  3  0  0  0  0  0  0
  -26.0490  -26.8630   19.5760 C   0  0  0  0  0  3  0  0  0  0  0  0
  -24.8910  -27.6670   19.5420 C   0  0  0  0  0  3  0  0  0  0  0  0
  -23.6420  -29.8100   20.1890 C   0  0  0  0  0  2  0  0  0  0  0  0
  -24.6760  -31.0870   22.1120 N   0  0  0  0  0  0  0  0  0  0  0  0
  -23.5120  -32.1770   23.7350 O   0  0  0  0  0  0  0  0  0  0  0  0
  -22.7450  -29.4800   22.5270 C   0  0  0  0  0  0  0  0  0  0  0  0
  -21.4180  -29.3020   22.4000 N   0  0  0  0  0  0  0  0  0  0  0  0
  -23.4220  -28.8540   23.3460 O   0  0  0  0  0  0  0  0  0  0  0  0
  -20.9290  -29.8590   21.7140 H   0  0  0  0  0  0  0  0  0  0  0  0
  -18.0420  -28.1030   22.9080 C   0  0  0  0  0  0  0  0  0  0  0  0
  -20.6020  -28.3620   23.1700 C   0  0  0  0  0  3  0  0  0  0  0  0
  -20.7030  -26.9330   22.5900 C   0  0  0  0  0  2  0  0  0  0  0  0
  -19.5980  -26.6120   21.5780 C   0  0  0  0  0  2  0  0  0  0  0  0
  -18.2180  -26.7560   22.2270 C   0  0  0  0  0  2  0  0  0  0  0  0
  -19.1620  -28.8620   23.3380 C   0  0  0  0  0  0  0  0  0  0  0  0
  -18.9450  -30.1230   23.9360 C   0  0  0  0  0  3  0  0  0  0  0  0
  -17.6410  -30.6240   24.1080 C   0  0  0  0  0  3  0  0  0  0  0  0
  -16.5360  -29.8610   23.6950 C   0  0  0  0  0  3  0  0  0  0  0  0
  -16.7370  -28.6010   23.1030 C   0  0  0  0  0  3  0  0  0  0  0  0
  -25.8750  -32.5470   23.8350 C   0  0  0  0  0  3  0  0  0  0  0  0
  -26.3860  -31.7820   25.1180 C   0  0  1  0  0  0  0  0  0  0  0  0
  -25.2860  -31.5460   26.1800 C   0  0  0  0  0  1  0  0  0  0  0  0
  -26.9750  -30.4060   24.7350 C   0  0  0  0  0  1  0  0  0  0  0  0
  -27.5280  -32.5830   25.7860 C   0  0  0  0  0  1  0  0  0  0  0  0
  -25.5550  -33.9440   24.1610 N   0  0  0  0  0  0  0  0  0  0  0  0
  -25.8910  -35.0010   23.4080 C   0  0  0  0  0  0  0  0  0  0  0  0
  -26.5740  -34.8980   22.3850 O   0  0  0  0  0  0  0  0  0  0  0  0
  -24.9490  -34.0950   24.9540 H   0  0  0  0  0  0  0  0  0  0  0  0
  -24.1660  -36.7940   23.0330 C   0  0  0  0  0  1  0  0  0  0  0  0
  -25.3950  -36.3870   23.8620 C   0  0  0  0  0  3  0  0  0  0  0  0
  -27.5160  -37.2740   24.7280 C   0  0  0  0  0  1  0  0  0  0  0  0
  -26.4280  -37.4420   23.7690 N   0  0  0  0  0  0  0  0  0  0  0  0
  -26.0200  -38.3610   23.9150 H   0  0  0  0  0  0  0  0  0  0  0  0
  1  3  1  0
  2  5  1  0
  2  4  1  0
  4 48  1  0
  4  1  1  0
  5 10  1  0
  5  6  1  0
  6  7  1  0
  6  3  1  0
  8  6  1  0
 10  9  1  0
 10 11  1  0
 12 11  1  0
 13 18  1  0
 14 15  1  0
 14 13  1  0
 16 15  1  0
 16 23  1  0
 16 17  1  0
 18 12  1  0
 18 17  1  0
 19 12  2  0
 20 21  2  0
 21 40  1  0
 22 21  1  0
 22 25  1  0
 23 20  1  0
 23 24  1  0
 24 22  2  0
 25 26  1  0
 26 27  2  0
 28 31  1  0
 28 27  1  0
 29 28  2  0
 30 29  1  0
 30 25  2  0
 31 32  1  0
 32 33  1  0
 33 34  2  0
 35 34  1  0
 35 39  1  0
 36 35  2  0
 37 32  2  0
 37 36  1  0
 38 37  1  0
 40 41  1  0
 41 44  1  0
 41 43  1  0
 42 40  2  0
 45 46  1  0
 45 20  1  0
 47 45  1  0
 48 49  2  0
 50 49  1  0
 51 62  2  0
 52 50  1  0
 52 57  1  0
 53 61  1  0
 53 63  1  0
 54 60  1  0
 54 56  1  0
 55 61  1  0
 56 57  2  0
 56 55  1  0
 58 52  2  0
 59 58  1  0
 59 54  2  0
 60 53  1  0
 61 51  1  0
 63 65  2  0
 64 63  1  0
 66 64  1  0
 67 76  2  0
 67 72  1  0
 68 64  1  0
 68 72  1  0
 69 68  1  0
 70 71  1  0
 70 69  1  0
 71 67  1  0
 72 73  2  0
 73 74  1  0
 75 74  2  0
 76 75  1  0
 77 51  1  0
 77 82  1  0
 77 78  1  0
 78 81  1  1
 78 79  1  0
 80 78  1  0
 82 85  1  0
 83 87  1  0
 83 82  1  0
 84 83  2  0
 87 86  1  0
 89 87  1  0
 89 90  1  0
 89 88  1  0
M  ISO  4  11 100  12 100  49 101  50 101
M  END
>  <TORSDO>  (33) 
F 20

>  <SCORE>  (33) 
-13.768

>  <name>  (33) 
32

>  <ligand_id>  (33) 
32

>  <original_smiles>  (33) 
[H]c1c([H])c([H])c2c(c1[H])C([H])([H])C([H])([H])C([H])([H])C2([H])N([H])C(=O)C1([H])N(C(=O)C([H])(N([H])C(=O)C([H])(N([H])C([H])([H])[H])C([H])([H])[H])C(C([H])([H])[H])(C([H])([H])[H])C([H])([H])[H])C([H])([H])c2c([H])c(OC([H])([H])C([H])([H])C3([H])C([H])([H])C([H])([H])[N+]([H])([H])C([H])(C([H])(C([H])([H])[H])C([H])([H])C(=O)N4C([H])([H])C([H])([H])C([H])([H])C([H])(n5nc(-c6c([H])c([H])c(Oc7c([H])c([H])c(F)c([H])c7F)c([H])c6[H])c(C(=O)N([H])[H])c5N([H])[H])C4([H])[H])C3([H])[H])c([H])c([H])c2C1([H])[H]

>  <smiles>  (33) 
[H]c1c([H])c([H])c2c(c1[H])C([H])([H])C([H])([H])C([H])([H])C2([H])N([H])C(=O)C1([H])N(C(=O)C([H])(N([H])C(=O)C([H])(N([H])C([H])([H])[H])C([H])([H])[H])C(C([H])([H])[H])(C([H])([H])[H])C([H])([H])[H])C([H])([H])c2c([H])c(OC([H])([H])C([H])([H])C3([H])C([H])([H])C([H])([H])[N+]([H])([H])C([H])(C([H])(C([H])([H])[H])C([H])([H])C(=O)N4C([H])([H])C([H])([H])C([H])([H])C([H])(n5nc(-c6c([H])c([H])c(Oc7c([H])c([H])c(F)c([H])c7F)c([H])c6[H])c(C(=O)N([H])[H])c5N([H])[H])C4([H])[H])C3([H])[H])c([H])c([H])c2C1([H])[H]

$$$$
33:0:0
     RDKit          3D

 87 95  0  0  1  0  0  0  0  0999 V2000
  -29.5510  -22.8250   21.6240 C   0  0  0  0  0  2  0  0  0  0  0  0
  -29.0850  -24.2850   21.6610 C   0  0  0  0  0  3  0  0  0  0  0  0
  -29.2680  -22.5990   20.1360 C   0  0  0  0  0  3  0  0  0  0  0  0
  -28.3380  -24.2370   20.3020 C   0  0  0  0  0  3  0  0  0  0  0  0
  -29.1730  -24.5850   24.2040 C   0  0  0  0  0  1  0  0  0  0  0  0
  -28.3700  -24.8010   22.9130 C   0  0  0  0  0  2  0  0  0  0  0  0
  -27.6530  -20.3990   20.4660 C   0  0  0  0  0  1  0  0  0  0  0  0
  -29.0110  -20.7550   19.8440 C   0  0  0  0  0  3  0  0  0  0  0  0
  -30.0380  -19.1910   20.0560 C   0  0  0  0  0  3  0  0  0  0  0  0
  -29.7450  -17.3320   20.1720 C   0  0  0  0  0  3  0  0  0  0  0  0
  -30.6510  -15.7470   20.0700 C   0  0  0  0  0  0  0  0  0  0  0  0
  -30.7710  -13.1990   19.3570 C   0  0  0  0  0  2  0  0  0  0  0  0
  -29.8680  -12.8490   18.1390 C   0  0  0  0  0  2  0  0  0  0  0  0
  -28.4290  -12.5380   18.5880 C   0  0  0  0  0  2  0  0  0  0  0  0
  -27.9400  -13.5550   19.6460 C   0  0  0  0  0  3  0  0  0  0  0  0
  -28.9710  -13.8310   20.7580 C   0  0  0  0  0  2  0  0  0  0  0  0
  -30.1800  -14.3800   20.1140 N   0  0  0  0  0  0  0  0  0  0  0  0
  -31.8700  -15.7430   19.8180 O   0  0  0  0  0  0  0  0  0  0  0  0
  -25.5990  -14.1220   20.4650 C   0  0  0  0  0  0  0  0  0  0  0  0
  -24.5330  -13.3530   20.8350 C   0  0  0  0  0  0  0  0  0  0  0  0
  -24.9760  -11.9970   20.7640 C   0  0  0  0  0  0  0  0  0  0  0  0
  -26.6210  -13.2370   20.1760 N   0  0  0  0  0  0  0  0  0  0  0  0
  -26.2630  -11.9490   20.4240 N   0  0  0  0  0  0  0  0  0  0  0  0
  -24.2300  -10.7440   20.9410 C   0  0  0  0  0  0  0  0  0  0  0  0
  -24.6090   -9.7860   21.9070 C   0  0  0  0  0  3  0  0  0  0  0  0
  -23.8610   -8.5990   22.0710 C   0  0  0  0  0  3  0  0  0  0  0  0
  -22.7180   -8.3640   21.2690 C   0  0  0  0  0  0  0  0  0  0  0  0
  -22.3600   -9.3100   20.2920 C   0  0  0  0  0  3  0  0  0  0  0  0
  -23.1090  -10.4880   20.1270 C   0  0  0  0  0  3  0  0  0  0  0  0
  -21.9460   -7.2300   21.3400 O   0  0  0  0  0  0  0  0  0  0  0  0
  -21.7660   -6.5550   22.5200 C   0  0  0  0  0  0  0  0  0  0  0  0
  -21.1920   -7.1740   23.6530 C   0  0  0  0  0  3  0  0  0  0  0  0
  -20.9600   -6.4260   24.8220 C   0  0  0  0  0  3  0  0  0  0  0  0
  -21.2900   -5.0570   24.8620 C   0  0  0  0  0  0  0  0  0  0  0  0
  -21.8570   -4.4370   23.7330 C   0  0  0  0  0  3  0  0  0  0  0  0
  -22.0890   -5.1830   22.5650 C   0  0  0  0  0  0  0  0  0  0  0  0
  -22.6160   -4.5760   21.4750 F   0  0  0  0  0  0  0  0  0  0  0  0
  -21.0610   -4.3350   25.9830 F   0  0  0  0  0  0  0  0  0  0  0  0
  -23.1490  -13.8470   21.1380 C   0  0  0  0  0  0  0  0  0  0  0  0
  -22.4270  -13.1530   22.0080 N   0  0  0  0  0  0  0  0  0  0  0  0
  -22.7190  -14.8870   20.6390 O   0  0  0  0  0  0  0  0  0  0  0  0
  -22.7920  -12.3130   22.4340 H   0  0  0  0  0  0  0  0  0  0  0  0
  -21.4960  -13.4610   22.2490 H   0  0  0  0  0  0  0  0  0  0  0  0
  -25.7840  -15.4940   20.3180 N   0  0  0  0  0  0  0  0  0  0  0  0
  -25.0340  -16.1610   20.4660 H   0  0  0  0  0  0  0  0  0  0  0  0
  -26.6390  -15.9260   19.9910 H   0  0  0  0  0  0  0  0  0  0  0  0
  -28.4410  -25.9360   20.1170 O   0  0  0  0  0  0  0  0  0  0  0  0
  -24.7490  -31.9060   23.2300 C   0  0  0  0  0  0  0  0  0  0  0  0
  -27.4070  -27.0520   20.1490 C   0  0  0  0  0  0  0  0  0  0  0  0
  -23.5980  -30.5360   21.5420 C   0  0  0  0  0  3  0  0  0  0  0  0
  -25.0900  -28.9680   20.1060 C   0  0  0  0  0  0  0  0  0  0  0  0
  -26.1700  -30.7630   21.4380 C   0  0  0  0  0  2  0  0  0  0  0  0
  -26.2690  -29.3580   20.7530 C   0  0  0  0  0  0  0  0  0  0  0  0
  -27.4220  -28.4300   20.7350 C   0  0  0  0  0  3  0  0  0  0  0  0
  -26.1890  -26.8380   19.4610 C   0  0  0  0  0  3  0  0  0  0  0  0
  -25.0810  -27.7310   19.4380 C   0  0  0  0  0  3  0  0  0  0  0  0
  -23.8610  -29.8840   20.1560 C   0  0  0  0  0  2  0  0  0  0  0  0
  -24.8610  -31.0960   22.1250 N   0  0  0  0  0  0  0  0  0  0  0  0
  -23.6480  -32.1690   23.7420 O   0  0  0  0  0  0  0  0  0  0  0  0
  -22.8970  -29.5140   22.4740 C   0  0  0  0  0  0  0  0  0  0  0  0
  -21.5670  -29.3470   22.3370 N   0  0  0  0  0  0  0  0  0  0  0  0
  -23.5590  -28.8690   23.2900 O   0  0  0  0  0  0  0  0  0  0  0  0
  -21.0850  -29.9200   21.6580 H   0  0  0  0  0  0  0  0  0  0  0  0
  -18.1830  -28.1280   22.8220 C   0  0  0  0  0  0  0  0  0  0  0  0
  -20.7470  -28.3790   23.0730 C   0  0  0  0  0  3  0  0  0  0  0  0
  -20.8380  -26.9730   22.4320 C   0  0  0  0  0  2  0  0  0  0  0  0
  -19.7260  -26.7000   21.4140 C   0  0  0  0  0  2  0  0  0  0  0  0
  -18.3510  -26.8140   22.0780 C   0  0  0  0  0  2  0  0  0  0  0  0
  -19.3070  -28.8700   23.2740 C   0  0  0  0  0  0  0  0  0  0  0  0
  -19.0910  -30.0990   23.9350 C   0  0  0  0  0  3  0  0  0  0  0  0
  -17.7880  -30.5870   24.1450 C   0  0  0  0  0  3  0  0  0  0  0  0
  -16.6790  -29.8410   23.7060 C   0  0  0  0  0  3  0  0  0  0  0  0
  -16.8780  -28.6130   23.0500 C   0  0  0  0  0  3  0  0  0  0  0  0
  -25.9990  -32.5520   23.9010 C   0  0  0  0  0  3  0  0  0  0  0  0
  -26.4680  -31.7840   25.1990 C   0  0  1  0  0  0  0  0  0  0  0  0
  -25.3350  -31.5480   26.2280 C   0  0  0  0  0  1  0  0  0  0  0  0
  -27.0650  -30.4040   24.8420 C   0  0  0  0  0  1  0  0  0  0  0  0
  -27.5930  -32.5800   25.9010 C   0  0  0  0  0  1  0  0  0  0  0  0
  -25.6700  -33.9510   24.2330 N   0  0  0  0  0  0  0  0  0  0  0  0
  -25.9870  -35.0140   23.4840 C   0  0  0  0  0  0  0  0  0  0  0  0
  -26.6500  -34.9230   22.4480 O   0  0  0  0  0  0  0  0  0  0  0  0
  -25.0800  -34.0940   25.0400 H   0  0  0  0  0  0  0  0  0  0  0  0
  -24.2230  -36.7890   23.1870 C   0  0  0  0  0  1  0  0  0  0  0  0
  -25.4960  -36.4000   23.9560 C   0  0  0  0  0  3  0  0  0  0  0  0
  -27.6380  -37.3320   24.7210 C   0  0  0  0  0  1  0  0  0  0  0  0
  -26.5080  -37.4690   23.8050 N   0  0  0  0  0  0  0  0  0  0  0  0
  -26.0910  -38.3840   23.9540 H   0  0  0  0  0  0  0  0  0  0  0  0
  1  2  1  0
  2  6  1  0
  3  8  1  0
  3  4  1  0
  3  1  1  0
  4 47  1  0
  4  2  1  0
  6  5  1  0
  8  9  1  0
  8  7  1  0
  9 10  2  0
 11 17  1  0
 11 10  1  0
 12 17  1  0
 13 14  1  0
 13 12  1  0
 15 14  1  0
 15 22  1  0
 15 16  1  0
 17 16  1  0
 18 11  2  0
 19 20  2  0
 20 39  1  0
 21 20  1  0
 21 24  1  0
 22 23  1  0
 22 19  1  0
 23 21  2  0
 24 25  1  0
 25 26  2  0
 27 30  1  0
 27 26  1  0
 28 27  2  0
 29 28  1  0
 29 24  2  0
 30 31  1  0
 31 36  2  0
 31 32  1  0
 32 33  2  0
 33 34  1  0
 34 38  1  0
 35 34  2  0
 36 35  1  0
 37 36  1  0
 39 40  1  0
 40 43  1  0
 40 42  1  0
 41 39  2  0
 44 19  1  0
 44 45  1  0
 46 44  1  0
 47 49  1  0
 48 59  2  0
 49 54  1  0
 50 58  1  0
 50 60  1  0
 51 57  1  0
 51 53  1  0
 52 58  1  0
 53 52  1  0
 54 53  2  0
 55 49  2  0
 56 55  1  0
 56 51  2  0
 57 50  1  0
 58 48  1  0
 60 62  2  0
 61 60  1  0
 63 61  1  0
 64 73  2  0
 64 69  1  0
 65 61  1  0
 65 69  1  0
 66 65  1  0
 67 68  1  0
 67 66  1  0
 68 64  1  0
 69 70  2  0
 70 71  1  0
 72 71  2  0
 73 72  1  0
 74 48  1  0
 74 79  1  0
 74 75  1  0
 75 78  1  1
 75 76  1  0
 77 75  1  0
 79 82  1  0
 80 84  1  0
 80 79  1  0
 81 80  2  0
 84 83  1  0
 86 87  1  0
 86 84  1  0
 86 85  1  0
M  ISO  4   4 101  10 100  11 100  47 101
M  END
>  <TORSDO>  (34) 
F 20

>  <SCORE>  (34) 
-14.683

>  <name>  (34) 
33

>  <ligand_id>  (34) 
33

>  <original_smiles>  (34) 
[H]c1c([H])c([H])c2c(c1[H])C([H])([H])C([H])([H])C([H])([H])C2([H])N([H])C(=O)C1([H])N(C(=O)C([H])(N([H])C(=O)C([H])(N([H])C([H])([H])[H])C([H])([H])[H])C(C([H])([H])[H])(C([H])([H])[H])C([H])([H])[H])C([H])([H])c2c([H])c(OC3([H])C([H])(C([H])([H])C([H])([H])[H])C([H])([H])C3([H])C([H])(C([H])([H])[H])C([H])([H])C([H])([H])C(=O)N3C([H])([H])C([H])([H])C([H])([H])C([H])(n4nc(-c5c([H])c([H])c(Oc6c([H])c([H])c(F)c([H])c6F)c([H])c5[H])c(C(=O)N([H])[H])c4N([H])[H])C3([H])[H])c([H])c([H])c2C1([H])[H]

>  <smiles>  (34) 
[H]c1c([H])c([H])c2c(c1[H])C([H])([H])C([H])([H])C([H])([H])C2([H])N([H])C(=O)C1([H])N(C(=O)C([H])(N([H])C(=O)C([H])(N([H])C([H])([H])[H])C([H])([H])[H])C(C([H])([H])[H])(C([H])([H])[H])C([H])([H])[H])C([H])([H])c2c([H])c(OC3([H])C([H])(C([H])([H])C([H])([H])[H])C([H])([H])C3([H])C([H])(C([H])([H])[H])C([H])([H])C([H])([H])C(=O)N3C([H])([H])C([H])([H])C([H])([H])C([H])(n4nc(-c5c([H])c([H])c(Oc6c([H])c([H])c(F)c([H])c6F)c([H])c5[H])c(C(=O)N([H])[H])c4N([H])[H])C3([H])[H])c([H])c([H])c2C1([H])[H]

$$$$
34:0:0
     RDKit          3D

 88 96  0  0  1  0  0  0  0  0999 V2000
  -29.5060  -23.2230   19.9420 C   0  0  0  0  0  2  0  0  0  0  0  0
  -27.6460  -22.9280   20.5230 C   0  0  0  0  0  2  0  0  0  0  0  0
  -28.6880  -21.7880   19.9040 C   0  0  0  0  0  3  0  0  0  0  0  0
  -28.2450  -24.2890   19.8310 C   0  0  0  0  0  3  0  0  0  0  0  0
  -28.2410  -25.8860   20.2670 O   0  0  0  0  0  0  0  0  0  0  0  0
  -24.6350  -31.8340   23.1510 C   0  0  0  0  0  0  0  0  0  0  0  0
  -27.2110  -26.9600   20.1550 C   0  0  0  0  0  0  0  0  0  0  0  0
  -23.4460  -30.4280   21.5170 C   0  0  0  0  0  3  0  0  0  0  0  0
  -24.9010  -28.8260   20.0930 C   0  0  0  0  0  0  0  0  0  0  0  0
  -26.0080  -30.6530   21.3660 C   0  0  0  0  0  2  0  0  0  0  0  0
  -26.0840  -29.2410   20.7150 C   0  0  0  0  0  0  0  0  0  0  0  0
  -27.2300  -28.3280   20.7210 C   0  0  0  0  0  3  0  0  0  0  0  0
  -26.0000  -26.6920   19.4790 C   0  0  0  0  0  3  0  0  0  0  0  0
  -24.8850  -27.5730   19.4540 C   0  0  0  0  0  3  0  0  0  0  0  0
  -23.6750  -29.7380   20.1410 C   0  0  0  0  0  2  0  0  0  0  0  0
  -24.7170  -31.0000   22.0640 N   0  0  0  0  0  0  0  0  0  0  0  0
  -23.5460  -32.1210   23.6730 O   0  0  0  0  0  0  0  0  0  0  0  0
  -22.7570  -29.4330   22.4870 C   0  0  0  0  0  0  0  0  0  0  0  0
  -21.4260  -29.2710   22.3720 N   0  0  0  0  0  0  0  0  0  0  0  0
  -23.4280  -28.8070   23.3110 O   0  0  0  0  0  0  0  0  0  0  0  0
  -20.9380  -29.8260   21.6830 H   0  0  0  0  0  0  0  0  0  0  0  0
  -18.0460  -28.0630   22.9010 C   0  0  0  0  0  0  0  0  0  0  0  0
  -20.6080  -28.3320   23.1490 C   0  0  0  0  0  3  0  0  0  0  0  0
  -20.7070  -26.9000   22.5750 C   0  0  0  0  0  2  0  0  0  0  0  0
  -19.5980  -26.5760   21.5670 C   0  0  0  0  0  2  0  0  0  0  0  0
  -18.2210  -26.7170   22.2200 C   0  0  0  0  0  2  0  0  0  0  0  0
  -19.1660  -28.8280   23.3230 C   0  0  0  0  0  0  0  0  0  0  0  0
  -18.9460  -30.0860   23.9250 C   0  0  0  0  0  3  0  0  0  0  0  0
  -17.6400  -30.5800   24.1050 C   0  0  0  0  0  3  0  0  0  0  0  0
  -16.5350  -29.8130   23.6970 C   0  0  0  0  0  3  0  0  0  0  0  0
  -16.7390  -28.5550   23.1010 C   0  0  0  0  0  3  0  0  0  0  0  0
  -25.9040  -32.4840   23.7810 C   0  0  0  0  0  3  0  0  0  0  0  0
  -26.4110  -31.7280   25.0720 C   0  0  1  0  0  0  0  0  0  0  0  0
  -25.3100  -31.5020   26.1360 C   0  0  0  0  0  1  0  0  0  0  0  0
  -26.9980  -30.3450   24.7070 C   0  0  0  0  0  1  0  0  0  0  0  0
  -27.5560  -32.5310   25.7320 C   0  0  0  0  0  1  0  0  0  0  0  0
  -25.5800  -33.8850   24.1120 N   0  0  0  0  0  0  0  0  0  0  0  0
  -25.9050  -34.9460   23.3600 C   0  0  0  0  0  0  0  0  0  0  0  0
  -26.5700  -34.8490   22.3270 O   0  0  0  0  0  0  0  0  0  0  0  0
  -24.9850  -34.0310   24.9130 H   0  0  0  0  0  0  0  0  0  0  0  0
  -24.1640  -36.7360   23.0360 C   0  0  0  0  0  1  0  0  0  0  0  0
  -25.4170  -36.3330   23.8280 C   0  0  0  0  0  3  0  0  0  0  0  0
  -27.5580  -37.2330   24.6300 C   0  0  0  0  0  1  0  0  0  0  0  0
  -26.4430  -37.3920   23.7010 N   0  0  0  0  0  0  0  0  0  0  0  0
  -26.0350  -38.3100   23.8510 H   0  0  0  0  0  0  0  0  0  0  0  0
  -29.0180  -20.1080   20.5280 C   0  0  0  0  0  3  0  0  0  0  0  0
  -27.7400  -19.7000   21.1310 N   0  0  0  0  0  4  0  0  0  0  0  0
  -27.8490  -18.8370   21.6320 H   0  0  0  0  0  0  0  0  0  0  0  0
  -27.0330  -19.5800   20.4270 H   0  0  0  0  0  0  0  0  0  0  0  0
  -27.4250  -20.3940   21.7850 H   0  0  0  0  0  0  0  0  0  0  0  0
  -29.6760  -18.5750   19.8170 C   0  0  0  0  0  3  0  0  0  0  0  0
  -29.6440  -16.8440   20.3710 C   0  0  0  0  0  3  0  0  0  0  0  0
  -30.4210  -15.3210   19.9240 C   0  0  0  0  0  0  0  0  0  0  0  0
  -30.3800  -12.8760   19.0210 C   0  0  0  0  0  2  0  0  0  0  0  0
  -29.3930  -12.7090   17.8360 C   0  0  0  0  0  2  0  0  0  0  0  0
  -27.9660  -12.4360   18.3370 C   0  0  0  0  0  2  0  0  0  0  0  0
  -27.5850  -13.3700   19.5110 C   0  0  0  0  0  3  0  0  0  0  0  0
  -28.6890  -13.4860   20.5820 C   0  0  0  0  0  2  0  0  0  0  0  0
  -29.8960  -13.9950   19.9140 N   0  0  0  0  0  0  0  0  0  0  0  0
  -31.5980  -15.3440   19.5330 O   0  0  0  0  0  0  0  0  0  0  0  0
  -25.2650  -13.9250   20.4080 C   0  0  0  0  0  0  0  0  0  0  0  0
  -24.2210  -13.1470   20.8210 C   0  0  0  0  0  0  0  0  0  0  0  0
  -24.6770  -11.7950   20.7370 C   0  0  0  0  0  0  0  0  0  0  0  0
  -26.2840  -13.0500   20.0860 N   0  0  0  0  0  0  0  0  0  0  0  0
  -25.9480  -11.7610   20.3530 N   0  0  0  0  0  0  0  0  0  0  0  0
  -23.9530  -10.5330   20.9430 C   0  0  0  0  0  0  0  0  0  0  0  0
  -24.4120   -9.5560   21.8520 C   0  0  0  0  0  3  0  0  0  0  0  0
  -23.6860   -8.3610   22.0500 C   0  0  0  0  0  3  0  0  0  0  0  0
  -22.4840   -8.1360   21.3360 C   0  0  0  0  0  0  0  0  0  0  0  0
  -22.0430   -9.1020   20.4150 C   0  0  0  0  0  3  0  0  0  0  0  0
  -22.7690  -10.2880   20.2170 C   0  0  0  0  0  3  0  0  0  0  0  0
  -21.7260   -6.9950   21.4430 O   0  0  0  0  0  0  0  0  0  0  0  0
  -21.6990   -6.2530   22.5970 C   0  0  0  0  0  0  0  0  0  0  0  0
  -21.3020   -6.8110   23.8320 C   0  0  0  0  0  3  0  0  0  0  0  0
  -21.2220   -5.9950   24.9790 C   0  0  0  0  0  3  0  0  0  0  0  0
  -21.5290   -4.6240   24.8920 C   0  0  0  0  0  0  0  0  0  0  0  0
  -21.9180   -4.0670   23.6610 C   0  0  0  0  0  3  0  0  0  0  0  0
  -22.0000   -4.8780   22.5170 C   0  0  0  0  0  0  0  0  0  0  0  0
  -22.3550   -4.3320   21.3290 F   0  0  0  0  0  0  0  0  0  0  0  0
  -21.4460   -3.8380   25.9910 F   0  0  0  0  0  0  0  0  0  0  0  0
  -22.8430  -13.6260   21.1760 C   0  0  0  0  0  0  0  0  0  0  0  0
  -22.1620  -12.9210   22.0720 N   0  0  0  0  0  0  0  0  0  0  0  0
  -22.3830  -14.6610   20.6930 O   0  0  0  0  0  0  0  0  0  0  0  0
  -22.5510  -12.0860   22.4830 H   0  0  0  0  0  0  0  0  0  0  0  0
  -21.2390  -13.2210   22.3500 H   0  0  0  0  0  0  0  0  0  0  0  0
  -25.4270  -15.2990   20.2500 N   0  0  0  0  0  0  0  0  0  0  0  0
  -24.6690  -15.9540   20.4060 H   0  0  0  0  0  0  0  0  0  0  0  0
  -26.2530  -15.7340   19.8570 H   0  0  0  0  0  0  0  0  0  0  0  0
  3  1  1  0
  3  2  1  0
  3 46  1  0
  4  1  1  0
  4  5  1  0
  4  2  1  0
  6 17  2  0
  7  5  1  0
  7 12  1  0
  8 16  1  0
  8 18  1  0
  9 15  1  0
  9 11  1  0
 10 16  1  0
 11 12  2  0
 11 10  1  0
 13  7  2  0
 14 13  1  0
 14  9  2  0
 15  8  1  0
 16  6  1  0
 18 20  2  0
 19 18  1  0
 21 19  1  0
 22 31  2  0
 22 27  1  0
 23 19  1  0
 23 27  1  0
 24 23  1  0
 25 26  1  0
 25 24  1  0
 26 22  1  0
 27 28  2  0
 28 29  1  0
 30 29  2  0
 31 30  1  0
 32  6  1  0
 32 37  1  0
 32 33  1  0
 33 36  1  1
 33 34  1  0
 35 33  1  0
 37 40  1  0
 38 42  1  0
 38 37  1  0
 39 38  2  0
 42 41  1  0
 44 42  1  0
 44 45  1  0
 44 43  1  0
 46 51  1  0
 46 47  1  0
 47 48  1  0
 47 50  1  0
 49 47  1  0
 51 52  2  0
 53 52  1  0
 54 59  1  0
 55 56  1  0
 55 54  1  0
 57 56  1  0
 57 64  1  0
 57 58  1  0
 59 53  1  0
 59 58  1  0
 60 53  2  0
 61 62  2  0
 62 81  1  0
 63 62  1  0
 63 66  1  0
 64 65  1  0
 64 61  1  0
 65 63  2  0
 66 67  1  0
 67 68  2  0
 69 72  1  0
 69 68  1  0
 70 69  2  0
 71 70  1  0
 71 66  2  0
 72 73  1  0
 73 74  1  0
 74 75  2  0
 76 75  1  0
 76 80  1  0
 77 76  2  0
 78 73  2  0
 78 77  1  0
 79 78  1  0
 81 82  1  0
 82 85  1  0
 82 84  1  0
 83 81  2  0
 86 87  1  0
 86 61  1  0
 88 86  1  0
M  ISO  4   4 101   5 101  52 100  53 100
M  END
>  <TORSDO>  (35) 
F 20

>  <SCORE>  (35) 
-16.155

>  <name>  (35) 
34

>  <ligand_id>  (35) 
34

>  <original_smiles>  (35) 
[H]c1c([H])c([H])c2c(c1[H])C([H])([H])C([H])([H])C([H])([H])C2([H])N([H])C(=O)C1([H])N(C(=O)C([H])(N([H])C(=O)C([H])(N([H])C([H])([H])[H])C([H])([H])[H])C(C([H])([H])[H])(C([H])([H])[H])C([H])([H])[H])C([H])([H])c2c([H])c(OC3([H])C([H])([H])C([H])(C([H])(C([H])([H])C([H])([H])C(=O)N4C([H])([H])C([H])([H])C([H])([H])C([H])(n5nc(-c6c([H])c([H])c(Oc7c([H])c([H])c(F)c([H])c7F)c([H])c6[H])c(C(=O)N([H])[H])c5N([H])[H])C4([H])[H])[N+]([H])([H])[H])C3([H])[H])c([H])c([H])c2C1([H])[H]

>  <smiles>  (35) 
[H]c1c([H])c([H])c2c(c1[H])C([H])([H])C([H])([H])C([H])([H])C2([H])N([H])C(=O)C1([H])N(C(=O)C([H])(N([H])C(=O)C([H])(N([H])C([H])([H])[H])C([H])([H])[H])C(C([H])([H])[H])(C([H])([H])[H])C([H])([H])[H])C([H])([H])c2c([H])c(OC3([H])C([H])([H])C([H])(C([H])(C([H])([H])C([H])([H])C(=O)N4C([H])([H])C([H])([H])C([H])([H])C([H])(n5nc(-c6c([H])c([H])c(Oc7c([H])c([H])c(F)c([H])c7F)c([H])c6[H])c(C(=O)N([H])[H])c5N([H])[H])C4([H])[H])[N+]([H])([H])[H])C3([H])[H])c([H])c([H])c2C1([H])[H]

$$$$
35:0:0
     RDKit          3D

 92100  0  0  1  0  0  0  0  0999 V2000
  -29.1950  -21.3550   22.7760 C   0  0  0  0  0  2  0  0  0  0  0  0
  -31.0290  -21.1980   20.9930 C   0  0  0  0  0  2  0  0  0  0  0  0
  -28.1890  -21.9330   21.7510 C   0  0  0  0  0  2  0  0  0  0  0  0
  -29.7920  -20.9310   20.0980 C   0  0  0  0  0  3  0  0  0  0  0  0
  -30.6690  -21.6570   22.4330 C   0  0  0  0  0  3  0  0  0  0  0  0
  -28.7470  -22.0860   20.3740 N   0  0  2  0  0  4  0  0  0  0  0  0
  -27.9790  -21.8740   19.7510 H   0  0  0  0  0  0  0  0  0  0  0  0
  -29.3130  -19.3150   20.2420 C   0  0  0  0  0  0  0  0  0  0  0  0
  -28.1170  -19.0540   20.3930 O   0  0  0  0  0  0  0  0  0  0  0  0
  -30.3090  -18.0080   20.1900 C   0  0  0  0  0  3  0  0  0  0  0  0
  -29.8040  -16.4540   20.5190 C   0  0  0  0  0  3  0  0  0  0  0  0
  -30.6640  -15.0790   20.2510 C   0  0  0  0  0  0  0  0  0  0  0  0
  -30.5570  -12.7210   19.3390 C   0  0  0  0  0  2  0  0  0  0  0  0
  -29.6030  -12.6960   18.1210 C   0  0  0  0  0  2  0  0  0  0  0  0
  -28.1420  -12.4970   18.5670 C   0  0  0  0  0  2  0  0  0  0  0  0
  -27.7540  -13.4200   19.7500 C   0  0  0  0  0  3  0  0  0  0  0  0
  -28.8250  -13.4300   20.8610 C   0  0  0  0  0  2  0  0  0  0  0  0
  -30.1050  -13.8070   20.2500 N   0  0  0  0  0  0  0  0  0  0  0  0
  -31.8430  -15.1820   19.9000 O   0  0  0  0  0  0  0  0  0  0  0  0
  -25.3880  -13.9970   20.5420 C   0  0  0  0  0  0  0  0  0  0  0  0
  -24.3270  -13.2200   20.9130 C   0  0  0  0  0  0  0  0  0  0  0  0
  -24.7850  -11.8660   20.8480 C   0  0  0  0  0  0  0  0  0  0  0  0
  -26.4230  -13.1200   20.2670 N   0  0  0  0  0  0  0  0  0  0  0  0
  -26.0710  -11.8310   20.5170 N   0  0  0  0  0  0  0  0  0  0  0  0
  -24.0550  -10.6030   21.0220 C   0  0  0  0  0  0  0  0  0  0  0  0
  -24.4640   -9.6360   21.9680 C   0  0  0  0  0  3  0  0  0  0  0  0
  -23.7320   -8.4410   22.1300 C   0  0  0  0  0  3  0  0  0  0  0  0
  -22.5790   -8.2000   21.3460 C   0  0  0  0  0  0  0  0  0  0  0  0
  -22.1900   -9.1560   20.3890 C   0  0  0  0  0  3  0  0  0  0  0  0
  -22.9230  -10.3440   20.2260 C   0  0  0  0  0  3  0  0  0  0  0  0
  -21.8200   -7.0580   21.4180 O   0  0  0  0  0  0  0  0  0  0  0  0
  -21.6980   -6.3460   22.5850 C   0  0  0  0  0  0  0  0  0  0  0  0
  -21.1600   -6.9240   23.7560 C   0  0  0  0  0  3  0  0  0  0  0  0
  -20.9880   -6.1380   24.9130 C   0  0  0  0  0  3  0  0  0  0  0  0
  -21.3430   -4.7750   24.8990 C   0  0  0  0  0  0  0  0  0  0  0  0
  -21.8720   -4.1970   23.7320 C   0  0  0  0  0  3  0  0  0  0  0  0
  -22.0460   -4.9800   22.5770 C   0  0  0  0  0  0  0  0  0  0  0  0
  -22.5370   -4.4130   21.4490 F   0  0  0  0  0  0  0  0  0  0  0  0
  -21.1700   -4.0180   26.0080 F   0  0  0  0  0  0  0  0  0  0  0  0
  -22.9350  -13.6940   21.2150 C   0  0  0  0  0  0  0  0  0  0  0  0
  -22.2170  -12.9810   22.0740 N   0  0  0  0  0  0  0  0  0  0  0  0
  -22.4950  -14.7340   20.7250 O   0  0  0  0  0  0  0  0  0  0  0  0
  -22.5860  -12.1400   22.4910 H   0  0  0  0  0  0  0  0  0  0  0  0
  -21.2830  -13.2800   22.3180 H   0  0  0  0  0  0  0  0  0  0  0  0
  -25.5610  -15.3710   20.3900 N   0  0  0  0  0  0  0  0  0  0  0  0
  -24.8070  -16.0360   20.5260 H   0  0  0  0  0  0  0  0  0  0  0  0
  -26.4200  -15.8060   20.0800 H   0  0  0  0  0  0  0  0  0  0  0  0
  -31.4940  -21.7830   24.8500 C   0  0  0  0  0  1  0  0  0  0  0  0
  -31.6400  -21.0910   23.4860 C   0  0  0  0  0  2  0  0  0  0  0  0
  -29.1170  -23.6090   20.0840 C   0  0  0  0  0  3  0  0  0  0  0  0
  -27.9930  -24.8510   20.0690 C   0  0  0  0  0  3  0  0  0  0  0  0
  -28.2800  -26.3740   20.0550 O   0  0  0  0  0  0  0  0  0  0  0  0
  -24.6410  -31.9120   23.2460 C   0  0  0  0  0  0  0  0  0  0  0  0
  -27.2070  -27.3310   20.0440 C   0  0  0  0  0  0  0  0  0  0  0  0
  -23.4280  -30.5560   21.5850 C   0  0  0  0  0  3  0  0  0  0  0  0
  -24.8680  -29.0480   20.0910 C   0  0  0  0  0  0  0  0  0  0  0  0
  -25.9780  -30.8510   21.3940 C   0  0  0  0  0  2  0  0  0  0  0  0
  -26.0530  -29.4840   20.7000 C   0  0  0  0  0  0  0  0  0  0  0  0
  -27.2240  -28.6440   20.6600 C   0  0  0  0  0  3  0  0  0  0  0  0
  -25.9960  -26.9930   19.3990 C   0  0  0  0  0  3  0  0  0  0  0  0
  -24.8550  -27.8190   19.4230 C   0  0  0  0  0  3  0  0  0  0  0  0
  -23.6340  -29.9280   20.1810 C   0  0  0  0  0  2  0  0  0  0  0  0
  -24.7020  -31.1240   22.1300 N   0  0  0  0  0  0  0  0  0  0  0  0
  -23.5610  -32.1750   23.7940 O   0  0  0  0  0  0  0  0  0  0  0  0
  -22.7720  -29.5120   22.5220 C   0  0  0  0  0  0  0  0  0  0  0  0
  -21.4500  -29.3100   22.3830 N   0  0  0  0  0  0  0  0  0  0  0  0
  -23.4540  -28.8860   23.3380 O   0  0  0  0  0  0  0  0  0  0  0  0
  -20.9580  -29.8650   21.6970 H   0  0  0  0  0  0  0  0  0  0  0  0
  -18.0950  -28.0230   22.8290 C   0  0  0  0  0  0  0  0  0  0  0  0
  -20.6430  -28.3450   23.1320 C   0  0  0  0  0  3  0  0  0  0  0  0
  -20.7900  -26.9230   22.5410 C   0  0  0  0  0  2  0  0  0  0  0  0
  -19.7090  -26.5850   21.5100 C   0  0  0  0  0  2  0  0  0  0  0  0
  -18.3160  -26.6870   22.1380 C   0  0  0  0  0  2  0  0  0  0  0  0
  -19.1890  -28.8080   23.2800 C   0  0  0  0  0  0  0  0  0  0  0  0
  -18.9320  -30.0570   23.8860 C   0  0  0  0  0  3  0  0  0  0  0  0
  -17.6120  -30.5220   24.0460 C   0  0  0  0  0  3  0  0  0  0  0  0
  -16.5330  -29.7330   23.6120 C   0  0  0  0  0  3  0  0  0  0  0  0
  -16.7750  -28.4860   23.0080 C   0  0  0  0  0  3  0  0  0  0  0  0
  -25.9260  -32.5350   23.8720 C   0  0  0  0  0  3  0  0  0  0  0  0
  -25.6220  -33.9350   24.2100 N   0  0  0  0  0  0  0  0  0  0  0  0
  -25.9380  -34.9900   23.4480 C   0  0  0  0  0  0  0  0  0  0  0  0
  -26.5790  -34.8880   22.3990 O   0  0  0  0  0  0  0  0  0  0  0  0
  -25.0480  -34.0910   25.0260 H   0  0  0  0  0  0  0  0  0  0  0  0
  -24.1940  -36.7800   23.1580 C   0  0  0  0  0  1  0  0  0  0  0  0
  -25.4660  -36.3790   23.9230 C   0  0  0  0  0  3  0  0  0  0  0  0
  -27.6220  -37.2720   24.6830 C   0  0  0  0  0  1  0  0  0  0  0  0
  -26.4930  -37.4340   23.7720 N   0  0  0  0  0  0  0  0  0  0  0  0
  -26.0890  -38.3530   23.9290 H   0  0  0  0  0  0  0  0  0  0  0  0
  -26.4350  -31.7560   25.1460 C   0  0  1  0  0  0  0  0  0  0  0  0
  -25.3320  -31.5130   26.2030 C   0  0  0  0  0  1  0  0  0  0  0  0
  -27.0190  -30.3790   24.7550 C   0  0  0  0  0  1  0  0  0  0  0  0
  -27.5890  -32.5420   25.8140 C   0  0  0  0  0  1  0  0  0  0  0  0
  2  5  1  0
  3  1  1  0
  4  8  1  0
  4  6  1  0
  4  2  1  0
  5  1  1  0
  5 49  1  0
  6  3  1  0
  6  7  1  6
  8  9  2  0
 10  8  1  0
 10 11  2  0
 12 11  1  0
 13 18  1  0
 14 15  1  0
 14 13  1  0
 16 15  1  0
 16 23  1  0
 16 17  1  0
 18 12  1  0
 18 17  1  0
 19 12  2  0
 20 21  2  0
 21 40  1  0
 22 21  1  0
 22 25  1  0
 23 24  1  0
 23 20  1  0
 24 22  2  0
 25 26  1  0
 26 27  2  0
 28 31  1  0
 28 27  1  0
 29 28  2  0
 30 29  1  0
 30 25  2  0
 31 32  1  0
 32 33  1  0
 33 34  2  0
 35 34  1  0
 35 39  1  0
 36 35  2  0
 37 32  2  0
 37 36  1  0
 38 37  1  0
 40 41  1  0
 41 44  1  0
 41 43  1  0
 42 40  2  0
 45 46  1  0
 45 20  1  0
 47 45  1  0
 49 48  1  0
 50  6  1  0
 51 50  2  0
 52 51  1  0
 53 64  2  0
 54 52  1  0
 54 59  1  0
 55 63  1  0
 55 65  1  0
 56 62  1  0
 56 58  1  0
 57 63  1  0
 58 57  1  0
 59 58  2  0
 60 61  1  0
 60 54  2  0
 61 56  2  0
 62 55  1  0
 63 53  1  0
 65 67  2  0
 66 65  1  0
 68 66  1  0
 69 78  2  0
 69 74  1  0
 70 66  1  0
 70 74  1  0
 71 70  1  0
 72 73  1  0
 72 71  1  0
 73 69  1  0
 74 75  2  0
 75 76  1  0
 77 76  2  0
 78 77  1  0
 79 53  1  0
 79 80  1  0
 79 89  1  0
 80 83  1  0
 81 85  1  0
 81 80  1  0
 82 81  2  0
 85 84  1  0
 87 85  1  0
 87 88  1  0
 87 86  1  0
 89 92  1  1
 89 90  1  0
 91 89  1  0
M  ISO  4  11 100  12 100  51 101  52 101
M  END
>  <TORSDO>  (36) 
F 22

>  <SCORE>  (36) 
-13.313

>  <name>  (36) 
35

>  <ligand_id>  (36) 
35

>  <original_smiles>  (36) 
[H]c1c([H])c([H])c2c(c1[H])C([H])([H])C([H])([H])C([H])([H])C2([H])N([H])C(=O)C1([H])N(C(=O)C([H])(N([H])C(=O)C([H])(N([H])C([H])([H])[H])C([H])([H])[H])C(C([H])([H])[H])(C([H])([H])[H])C([H])([H])[H])C([H])([H])c2c([H])c(OC([H])([H])C([H])([H])[N+]3([H])C([H])([H])C([H])([H])C([H])(C([H])([H])C([H])([H])[H])C([H])([H])C3([H])C(=O)C([H])([H])C([H])([H])C(=O)N3C([H])([H])C([H])([H])C([H])([H])C([H])(n4nc(-c5c([H])c([H])c(Oc6c([H])c([H])c(F)c([H])c6F)c([H])c5[H])c(C(=O)N([H])[H])c4N([H])[H])C3([H])[H])c([H])c([H])c2C1([H])[H]

>  <smiles>  (36) 
[H]c1c([H])c([H])c2c(c1[H])C([H])([H])C([H])([H])C([H])([H])C2([H])N([H])C(=O)C1([H])N(C(=O)C([H])(N([H])C(=O)C([H])(N([H])C([H])([H])[H])C([H])([H])[H])C(C([H])([H])[H])(C([H])([H])[H])C([H])([H])[H])C([H])([H])c2c([H])c(OC([H])([H])C([H])([H])[N+]3([H])C([H])([H])C([H])([H])C([H])(C([H])([H])C([H])([H])[H])C([H])([H])C3([H])C(=O)C([H])([H])C([H])([H])C(=O)N3C([H])([H])C([H])([H])C([H])([H])C([H])(n4nc(-c5c([H])c([H])c(Oc6c([H])c([H])c(F)c([H])c6F)c([H])c5[H])c(C(=O)N([H])[H])c4N([H])[H])C3([H])[H])c([H])c([H])c2C1([H])[H]

$$$$
36:0:0
     RDKit          3D

 91 98  0  0  1  0  0  0  0  0999 V2000
  -29.5220  -19.6330   20.6020 C   0  0  0  0  0  3  0  0  0  0  0  0
  -28.8400  -21.1810   20.0060 C   0  0  0  0  0  3  0  0  0  0  0  0
  -29.1620  -22.9380   22.0080 C   0  0  0  0  0  1  0  0  0  0  0  0
  -28.9930  -22.8950   20.4880 C   0  0  0  0  0  3  0  0  0  0  0  0
  -28.0350  -24.3400   20.0680 C   0  0  0  0  0  2  0  0  0  0  0  0
  -28.2290  -25.9410   20.3190 O   0  0  0  0  0  0  0  0  0  0  0  0
  -24.6330  -31.8540   23.2290 C   0  0  0  0  0  0  0  0  0  0  0  0
  -27.1980  -26.9990   20.2340 C   0  0  0  0  0  0  0  0  0  0  0  0
  -23.4350  -30.4490   21.5950 C   0  0  0  0  0  3  0  0  0  0  0  0
  -24.8840  -28.8380   20.1830 C   0  0  0  0  0  0  0  0  0  0  0  0
  -26.0010  -30.6680   21.4500 C   0  0  0  0  0  2  0  0  0  0  0  0
  -26.0700  -29.2610   20.7990 C   0  0  0  0  0  0  0  0  0  0  0  0
  -27.2190  -28.3590   20.8020 C   0  0  0  0  0  3  0  0  0  0  0  0
  -25.9830  -26.7160   19.5680 C   0  0  0  0  0  3  0  0  0  0  0  0
  -24.8620  -27.5840   19.5520 C   0  0  0  0  0  3  0  0  0  0  0  0
  -23.6640  -29.7540   20.2240 C   0  0  0  0  0  2  0  0  0  0  0  0
  -24.7100  -31.0170   22.1440 N   0  0  0  0  0  0  0  0  0  0  0  0
  -23.5450  -32.1430   23.7520 O   0  0  0  0  0  0  0  0  0  0  0  0
  -22.7410  -29.4600   22.5690 C   0  0  0  0  0  0  0  0  0  0  0  0
  -21.4100  -29.2980   22.4500 N   0  0  0  0  0  0  0  0  0  0  0  0
  -23.4070  -28.8390   23.4010 O   0  0  0  0  0  0  0  0  0  0  0  0
  -20.9240  -29.8520   21.7580 H   0  0  0  0  0  0  0  0  0  0  0  0
  -18.0280  -28.0940   22.9730 C   0  0  0  0  0  0  0  0  0  0  0  0
  -20.5880  -28.3670   23.2330 C   0  0  0  0  0  3  0  0  0  0  0  0
  -20.6900  -26.9270   22.6740 C   0  0  0  0  0  2  0  0  0  0  0  0
  -19.5900  -26.5920   21.6630 C   0  0  0  0  0  2  0  0  0  0  0  0
  -18.2080  -26.7400   22.3070 C   0  0  0  0  0  2  0  0  0  0  0  0
  -19.1450  -28.8640   23.3940 C   0  0  0  0  0  0  0  0  0  0  0  0
  -18.9220  -30.1270   23.9810 C   0  0  0  0  0  3  0  0  0  0  0  0
  -17.6150  -30.6220   24.1490 C   0  0  0  0  0  3  0  0  0  0  0  0
  -16.5120  -29.8500   23.7440 C   0  0  0  0  0  3  0  0  0  0  0  0
  -16.7210  -28.5880   23.1610 C   0  0  0  0  0  3  0  0  0  0  0  0
  -25.9040  -32.5000   23.8540 C   0  0  0  0  0  3  0  0  0  0  0  0
  -25.5860  -33.9030   24.1800 N   0  0  0  0  0  0  0  0  0  0  0  0
  -25.9160  -34.9600   23.4280 C   0  0  0  0  0  0  0  0  0  0  0  0
  -26.5830  -34.8590   22.3950 O   0  0  0  0  0  0  0  0  0  0  0  0
  -24.9930  -34.0520   24.9830 H   0  0  0  0  0  0  0  0  0  0  0  0
  -24.1850  -36.7600   23.0970 C   0  0  0  0  0  1  0  0  0  0  0  0
  -25.4350  -36.3500   23.8940 C   0  0  0  0  0  3  0  0  0  0  0  0
  -27.5770  -37.2390   24.7020 C   0  0  0  0  0  1  0  0  0  0  0  0
  -26.4660  -37.4040   23.7700 N   0  0  0  0  0  0  0  0  0  0  0  0
  -26.0600  -38.3260   23.9190 H   0  0  0  0  0  0  0  0  0  0  0  0
  -26.4130  -31.7440   25.1450 C   0  0  1  0  0  0  0  0  0  0  0  0
  -25.3180  -31.5230   26.2130 C   0  0  0  0  0  1  0  0  0  0  0  0
  -26.9960  -30.3590   24.7860 C   0  0  0  0  0  1  0  0  0  0  0  0
  -27.5620  -32.5470   25.8010 C   0  0  0  0  0  1  0  0  0  0  0  0
  -29.6280  -18.0200   19.8420 C   0  0  0  0  0  3  0  0  0  0  0  0
  -30.4980  -15.2270   20.2260 C   0  0  0  0  0  0  0  0  0  0  0  0
  -30.4290  -12.7900   19.3730 C   0  0  0  0  0  2  0  0  0  0  0  0
  -29.5120  -12.6820   18.1290 C   0  0  0  0  0  2  0  0  0  0  0  0
  -28.0550  -12.4360   18.5550 C   0  0  0  0  0  2  0  0  0  0  0  0
  -27.6240  -13.3620   19.7250 C   0  0  0  0  0  3  0  0  0  0  0  0
  -28.6820  -13.4510   20.8500 C   0  0  0  0  0  2  0  0  0  0  0  0
  -29.9320  -13.9230   20.2360 N   0  0  0  0  0  0  0  0  0  0  0  0
  -31.6810  -15.2500   19.8650 O   0  0  0  0  0  0  0  0  0  0  0  0
  -29.7440  -16.4710   20.4470 N   0  0  0  0  0  0  0  0  0  0  0  0
  -28.8790  -16.2360   20.9130 H   0  0  0  0  0  0  0  0  0  0  0  0
  -25.2380  -13.8970   20.4610 C   0  0  0  0  0  0  0  0  0  0  0  0
  -24.1800  -13.1170   20.8260 C   0  0  0  0  0  0  0  0  0  0  0  0
  -24.6590  -11.7730   20.8070 C   0  0  0  0  0  0  0  0  0  0  0  0
  -26.2940  -13.0350   20.2300 N   0  0  0  0  0  0  0  0  0  0  0  0
  -25.9550  -11.7460   20.5030 N   0  0  0  0  0  0  0  0  0  0  0  0
  -23.9360  -10.5110   21.0080 C   0  0  0  0  0  0  0  0  0  0  0  0
  -24.3750   -9.5490   21.9440 C   0  0  0  0  0  3  0  0  0  0  0  0
  -23.6460   -8.3540   22.1320 C   0  0  0  0  0  3  0  0  0  0  0  0
  -22.4650   -8.1180   21.3870 C   0  0  0  0  0  0  0  0  0  0  0  0
  -22.0480   -9.0680   20.4420 C   0  0  0  0  0  3  0  0  0  0  0  0
  -22.7760  -10.2540   20.2510 C   0  0  0  0  0  3  0  0  0  0  0  0
  -21.7080   -6.9760   21.4850 O   0  0  0  0  0  0  0  0  0  0  0  0
  -21.6740   -6.2320   22.6360 C   0  0  0  0  0  0  0  0  0  0  0  0
  -21.2770   -6.7880   23.8720 C   0  0  0  0  0  3  0  0  0  0  0  0
  -21.1910   -5.9700   25.0160 C   0  0  0  0  0  3  0  0  0  0  0  0
  -21.4920   -4.5970   24.9260 C   0  0  0  0  0  0  0  0  0  0  0  0
  -21.8790   -4.0420   23.6930 C   0  0  0  0  0  3  0  0  0  0  0  0
  -21.9690   -4.8570   22.5510 C   0  0  0  0  0  0  0  0  0  0  0  0
  -22.3250   -4.3120   21.3640 F   0  0  0  0  0  0  0  0  0  0  0  0
  -21.3990   -3.8090   26.0220 F   0  0  0  0  0  0  0  0  0  0  0  0
  -22.7820  -13.5960   21.0910 C   0  0  0  0  0  0  0  0  0  0  0  0
  -22.0520  -12.9120   21.9640 N   0  0  0  0  0  0  0  0  0  0  0  0
  -22.3480  -14.6190   20.5610 O   0  0  0  0  0  0  0  0  0  0  0  0
  -22.4100  -12.0800   22.4100 H   0  0  0  0  0  0  0  0  0  0  0  0
  -21.1190  -13.2260   22.1900 H   0  0  0  0  0  0  0  0  0  0  0  0
  -25.3630  -15.2660   20.2910 N   0  0  0  0  0  0  0  0  0  0  0  0
  -24.5650  -15.8630   20.4680 H   0  0  0  0  0  0  0  0  0  0  0  0
  -26.2250  -15.7970   20.2470 H   0  0  0  0  0  0  0  0  0  0  0  0
  -28.4210  -18.0030   18.8630 C   0  0  0  0  0  2  0  0  0  0  0  0
  -27.0580  -18.0560   19.5690 C   0  0  0  0  0  0  0  0  0  0  0  0
  -26.0500  -18.6710   18.9610 N   0  0  0  0  0  0  0  0  0  0  0  0
  -26.9070  -17.5420   20.6730 O   0  0  0  0  0  0  0  0  0  0  0  0
  -26.1630  -19.0940   18.0520 H   0  0  0  0  0  0  0  0  0  0  0  0
  -25.1500  -18.7330   19.4180 H   0  0  0  0  0  0  0  0  0  0  0  0
  2  4  1  0
  2  1  2  0
  4  3  1  0
  5  6  1  0
  5  4  1  0
  7 18  2  0
  8  6  1  0
  8 13  1  0
  9 17  1  0
  9 19  1  0
 10 16  1  0
 10 12  1  0
 11 17  1  0
 12 13  2  0
 12 11  1  0
 14  8  2  0
 15 14  1  0
 15 10  2  0
 16  9  1  0
 17  7  1  0
 19 21  2  0
 20 19  1  0
 22 20  1  0
 23 32  2  0
 23 28  1  0
 24 20  1  0
 24 28  1  0
 25 24  1  0
 26 27  1  0
 26 25  1  0
 27 23  1  0
 28 29  2  0
 29 30  1  0
 31 30  2  0
 32 31  1  0
 33  7  1  0
 33 34  1  0
 33 43  1  0
 34 37  1  0
 35 39  1  0
 35 34  1  0
 36 35  2  0
 39 38  1  0
 41 39  1  0
 41 42  1  0
 41 40  1  0
 43 46  1  1
 43 44  1  0
 45 43  1  0
 47 86  1  0
 47 56  1  0
 47  1  1  0
 48 54  1  0
 48 56  1  0
 49 54  1  0
 50 51  1  0
 50 49  1  0
 52 51  1  0
 52 61  1  0
 52 53  1  0
 54 53  1  0
 55 48  2  0
 56 57  1  0
 58 59  2  0
 59 78  1  0
 60 59  1  0
 60 63  1  0
 61 58  1  0
 61 62  1  0
 62 60  2  0
 63 64  1  0
 64 65  2  0
 66 69  1  0
 66 65  1  0
 67 66  2  0
 68 67  1  0
 68 63  2  0
 69 70  1  0
 70 71  1  0
 71 72  2  0
 73 72  1  0
 73 77  1  0
 74 73  2  0
 75 70  2  0
 75 74  1  0
 76 75  1  0
 78 79  1  0
 79 82  1  0
 79 81  1  0
 80 78  2  0
 83 58  1  0
 83 84  1  0
 85 83  1  0
 86 87  1  0
 87 89  2  0
 88 91  1  0
 88 87  1  0
 90 88  1  0
M  ISO  4   5 101   6 101  48 100  56 100
M  END
>  <TORSDO>  (37) 
F 22

>  <SCORE>  (37) 
-14.672

>  <name>  (37) 
36

>  <ligand_id>  (37) 
36

>  <original_smiles>  (37) 
[H]c1c([H])c([H])c2c(c1[H])C([H])([H])C([H])([H])C([H])([H])C2([H])N([H])C(=O)C1([H])N(C(=O)C([H])(N([H])C(=O)C([H])(N([H])C([H])([H])[H])C([H])([H])[H])C(C([H])([H])[H])(C([H])([H])[H])C([H])([H])[H])C([H])([H])c2c([H])c(OC([H])([H])C([H])(C([H])([H])[H])C([H])([H])C([H])([H])C([H])(N([H])C(=O)N3C([H])([H])C([H])([H])C([H])([H])C([H])(n4nc(-c5c([H])c([H])c(Oc6c([H])c([H])c(F)c([H])c6F)c([H])c5[H])c(C(=O)N([H])[H])c4N([H])[H])C3([H])[H])C([H])([H])C(=O)N([H])[H])c([H])c([H])c2C1([H])[H]

>  <smiles>  (37) 
[H]c1c([H])c([H])c2c(c1[H])C([H])([H])C([H])([H])C([H])([H])C2([H])N([H])C(=O)C1([H])N(C(=O)C([H])(N([H])C(=O)C([H])(N([H])C([H])([H])[H])C([H])([H])[H])C(C([H])([H])[H])(C([H])([H])[H])C([H])([H])[H])C([H])([H])c2c([H])c(OC([H])([H])C([H])(C([H])([H])[H])C([H])([H])C([H])([H])C([H])(N([H])C(=O)N3C([H])([H])C([H])([H])C([H])([H])C([H])(n4nc(-c5c([H])c([H])c(Oc6c([H])c([H])c(F)c([H])c6F)c([H])c5[H])c(C(=O)N([H])[H])c4N([H])[H])C3([H])[H])C([H])([H])C(=O)N([H])[H])c([H])c([H])c2C1([H])[H]

$$$$
37:0:0
     RDKit          3D

 92100  0  0  1  0  0  0  0  0999 V2000
  -30.4820  -15.3330   20.4020 C   0  0  0  0  0  0  0  0  0  0  0  0
  -30.3700  -12.9240   19.4400 C   0  0  0  0  0  2  0  0  0  0  0  0
  -29.4590  -12.6980   18.2140 C   0  0  0  0  0  2  0  0  0  0  0  0
  -28.0100  -12.4270   18.6520 C   0  0  0  0  0  2  0  0  0  0  0  0
  -27.5540  -13.3890   19.7770 C   0  0  0  0  0  3  0  0  0  0  0  0
  -28.6030  -13.5700   20.8930 C   0  0  0  0  0  2  0  0  0  0  0  0
  -29.8130  -14.0860   20.2320 N   0  0  0  0  0  0  0  0  0  0  0  0
  -31.7110  -15.1640   20.3390 O   0  0  0  0  0  0  0  0  0  0  0  0
  -30.9610  -19.8650   19.8520 C   0  0  0  0  0  2  0  0  0  0  0  0
  -30.7450  -17.3870   19.0230 C   0  0  0  0  0  2  0  0  0  0  0  0
  -29.2690  -18.0540   20.7580 C   0  0  0  0  0  2  0  0  0  0  0  0
  -31.6850  -18.4950   19.6060 C   0  0  0  0  0  3  0  0  0  0  0  0
  -29.4500  -19.7360   20.1620 C   0  0  0  0  0  3  0  0  0  0  0  0
  -29.9570  -16.7080   20.0770 N   0  0  0  0  0  0  0  0  0  0  0  0
  -25.1870  -13.9370   20.5310 C   0  0  0  0  0  0  0  0  0  0  0  0
  -24.1240  -13.1600   20.8930 C   0  0  0  0  0  0  0  0  0  0  0  0
  -24.5930  -11.8090   20.8670 C   0  0  0  0  0  0  0  0  0  0  0  0
  -26.2310  -13.0650   20.2930 N   0  0  0  0  0  0  0  0  0  0  0  0
  -25.8870  -11.7770   20.5630 N   0  0  0  0  0  0  0  0  0  0  0  0
  -23.8650  -10.5470   21.0510 C   0  0  0  0  0  0  0  0  0  0  0  0
  -24.2890   -9.5810   21.9900 C   0  0  0  0  0  3  0  0  0  0  0  0
  -23.5610   -8.3830   22.1630 C   0  0  0  0  0  3  0  0  0  0  0  0
  -22.3940   -8.1460   21.3990 C   0  0  0  0  0  0  0  0  0  0  0  0
  -21.9880   -9.1010   20.4500 C   0  0  0  0  0  3  0  0  0  0  0  0
  -22.7180  -10.2890   20.2750 C   0  0  0  0  0  3  0  0  0  0  0  0
  -21.6390   -7.0000   21.4810 O   0  0  0  0  0  0  0  0  0  0  0  0
  -21.5730   -6.2610   22.6340 C   0  0  0  0  0  0  0  0  0  0  0  0
  -21.1320   -6.8210   23.8530 C   0  0  0  0  0  3  0  0  0  0  0  0
  -21.0150   -6.0100   25.0000 C   0  0  0  0  0  3  0  0  0  0  0  0
  -21.3290   -4.6390   24.9290 C   0  0  0  0  0  0  0  0  0  0  0  0
  -21.7620   -4.0790   23.7150 C   0  0  0  0  0  3  0  0  0  0  0  0
  -21.8820   -4.8870   22.5710 C   0  0  0  0  0  0  0  0  0  0  0  0
  -22.2800   -4.3370   21.3990 F   0  0  0  0  0  0  0  0  0  0  0  0
  -21.2100   -3.8590   26.0290 F   0  0  0  0  0  0  0  0  0  0  0  0
  -22.7220  -13.6330   21.1470 C   0  0  0  0  0  0  0  0  0  0  0  0
  -21.9870  -12.9410   22.0100 N   0  0  0  0  0  0  0  0  0  0  0  0
  -22.2870  -14.6540   20.6140 O   0  0  0  0  0  0  0  0  0  0  0  0
  -22.3490  -12.1150   22.4660 H   0  0  0  0  0  0  0  0  0  0  0  0
  -21.0430  -13.2350   22.2160 H   0  0  0  0  0  0  0  0  0  0  0  0
  -25.3510  -15.3080   20.3530 N   0  0  0  0  0  0  0  0  0  0  0  0
  -24.5890  -15.9690   20.4590 H   0  0  0  0  0  0  0  0  0  0  0  0
  -26.2090  -15.7450   20.0420 H   0  0  0  0  0  0  0  0  0  0  0  0
  -28.7750  -21.1750   20.7050 N   0  0  0  0  0  4  0  0  0  0  0  0
  -28.9140  -21.1650   21.7020 H   0  0  0  0  0  0  0  0  0  0  0  0
  -27.7840  -21.0280   20.5910 H   0  0  0  0  0  0  0  0  0  0  0  0
  -29.0290  -22.7700   20.2500 C   0  0  0  0  0  3  0  0  0  0  0  0
  -28.0400  -24.2650   20.5250 C   0  0  0  0  0  3  0  0  0  0  0  0
  -28.2600  -25.9000   20.3390 O   0  0  0  0  0  0  0  0  0  0  0  0
  -24.6560  -31.8930   23.2420 C   0  0  0  0  0  0  0  0  0  0  0  0
  -27.2290  -26.9810   20.2960 C   0  0  0  0  0  0  0  0  0  0  0  0
  -23.4680  -30.4730   21.6220 C   0  0  0  0  0  3  0  0  0  0  0  0
  -24.9220  -28.8540   20.2230 C   0  0  0  0  0  0  0  0  0  0  0  0
  -26.0350  -30.6910   21.4700 C   0  0  0  0  0  2  0  0  0  0  0  0
  -26.1100  -29.2720   20.8360 C   0  0  0  0  0  0  0  0  0  0  0  0
  -27.2600  -28.3590   20.8420 C   0  0  0  0  0  3  0  0  0  0  0  0
  -26.0070  -26.7150   19.6340 C   0  0  0  0  0  3  0  0  0  0  0  0
  -24.8940  -27.5950   19.6020 C   0  0  0  0  0  3  0  0  0  0  0  0
  -23.7020  -29.7720   20.2550 C   0  0  0  0  0  2  0  0  0  0  0  0
  -24.7420  -31.0450   22.1660 N   0  0  0  0  0  0  0  0  0  0  0  0
  -23.5660  -32.1880   23.7590 O   0  0  0  0  0  0  0  0  0  0  0  0
  -22.7760  -29.4880   22.6000 C   0  0  0  0  0  0  0  0  0  0  0  0
  -21.4480  -29.3090   22.4690 N   0  0  0  0  0  0  0  0  0  0  0  0
  -23.4400  -28.8830   23.4450 O   0  0  0  0  0  0  0  0  0  0  0  0
  -20.9650  -29.8440   21.7600 H   0  0  0  0  0  0  0  0  0  0  0  0
  -18.0730  -28.0700   22.9710 C   0  0  0  0  0  0  0  0  0  0  0  0
  -20.6270  -28.3790   23.2510 C   0  0  0  0  0  3  0  0  0  0  0  0
  -20.7550  -26.9360   22.7070 C   0  0  0  0  0  2  0  0  0  0  0  0
  -19.6670  -26.5770   21.6910 C   0  0  0  0  0  2  0  0  0  0  0  0
  -18.2770  -26.7110   22.3190 C   0  0  0  0  0  2  0  0  0  0  0  0
  -19.1770  -28.8580   23.3940 C   0  0  0  0  0  0  0  0  0  0  0  0
  -18.9320  -30.1260   23.9670 C   0  0  0  0  0  3  0  0  0  0  0  0
  -17.6180  -30.6060   24.1170 C   0  0  0  0  0  3  0  0  0  0  0  0
  -16.5290  -29.8160   23.7110 C   0  0  0  0  0  3  0  0  0  0  0  0
  -16.7570  -28.5500   23.1440 C   0  0  0  0  0  3  0  0  0  0  0  0
  -25.9250  -32.5500   23.8660 C   0  0  0  0  0  3  0  0  0  0  0  0
  -26.4340  -31.8040   25.1610 C   0  0  1  0  0  0  0  0  0  0  0  0
  -25.3350  -31.5790   26.2270 C   0  0  0  0  0  1  0  0  0  0  0  0
  -27.0250  -30.4210   24.8050 C   0  0  0  0  0  1  0  0  0  0  0  0
  -27.5840  -32.6100   25.8130 C   0  0  0  0  0  1  0  0  0  0  0  0
  -25.6020  -33.9530   24.1850 N   0  0  0  0  0  0  0  0  0  0  0  0
  -25.9340  -35.0080   23.4300 C   0  0  0  0  0  0  0  0  0  0  0  0
  -26.6050  -34.9030   22.4000 O   0  0  0  0  0  0  0  0  0  0  0  0
  -25.0050  -34.1080   24.9840 H   0  0  0  0  0  0  0  0  0  0  0  0
  -24.2050  -36.8050   23.0700 C   0  0  0  0  0  1  0  0  0  0  0  0
  -25.4450  -36.4000   23.8840 C   0  0  0  0  0  3  0  0  0  0  0  0
  -27.5760  -37.2890   24.7190 C   0  0  0  0  0  1  0  0  0  0  0  0
  -26.4780  -37.4540   23.7710 N   0  0  0  0  0  0  0  0  0  0  0  0
  -26.0710  -38.3740   23.9140 H   0  0  0  0  0  0  0  0  0  0  0  0
  -32.9780  -18.6300   18.7700 C   0  0  0  0  0  2  0  0  0  0  0  0
  -34.4470  -19.2700   20.7880 C   0  0  0  0  0  1  0  0  0  0  0  0
  -35.3020  -19.5520   18.4360 C   0  0  0  0  0  1  0  0  0  0  0  0
  -34.0540  -19.5890   19.3320 C   0  0  0  0  0  3  0  0  0  0  0  0
  2  7  1  0
  3  4  1  0
  3  2  1  0
  5  4  1  0
  5 18  1  0
  5  6  1  0
  7  1  1  0
  7  6  1  0
  8  1  2  0
  9 13  1  0
 10 12  1  0
 10 14  1  0
 12 89  1  0
 12  9  1  0
 13 43  1  0
 13 11  1  0
 14  1  1  0
 14 11  1  0
 15 16  2  0
 16 35  1  0
 17 16  1  0
 17 20  1  0
 18 15  1  0
 18 19  1  0
 19 17  2  0
 20 21  1  0
 21 22  2  0
 23 26  1  0
 23 22  1  0
 24 23  2  0
 25 24  1  0
 25 20  2  0
 26 27  1  0
 27 28  1  0
 28 29  2  0
 30 29  1  0
 30 34  1  0
 31 30  2  0
 32 27  2  0
 32 31  1  0
 33 32  1  0
 35 36  1  0
 36 39  1  0
 36 38  1  0
 37 35  2  0
 40 41  1  0
 40 15  1  0
 42 40  1  0
 43 44  1  0
 45 43  1  0
 46 47  2  0
 46 43  1  0
 48 47  1  0
 49 60  2  0
 50 48  1  0
 50 55  1  0
 51 59  1  0
 51 61  1  0
 52 58  1  0
 52 54  1  0
 53 59  1  0
 54 55  2  0
 54 53  1  0
 56 50  2  0
 57 56  1  0
 57 52  2  0
 58 51  1  0
 59 49  1  0
 61 63  2  0
 62 61  1  0
 64 62  1  0
 65 74  2  0
 65 70  1  0
 66 62  1  0
 66 70  1  0
 67 66  1  0
 68 69  1  0
 68 67  1  0
 69 65  1  0
 70 71  2  0
 71 72  1  0
 73 72  2  0
 74 73  1  0
 75 49  1  0
 75 80  1  0
 75 76  1  0
 76 79  1  1
 76 77  1  0
 78 76  1  0
 80 83  1  0
 81 85  1  0
 81 80  1  0
 82 81  2  0
 85 84  1  0
 87 85  1  0
 87 88  1  0
 87 86  1  0
 89 92  1  0
 91 92  1  0
 92 90  1  0
M  ISO  4   1 100  14 100  47 101  48 101
M  END
>  <TORSDO>  (38) 
F 20

>  <SCORE>  (38) 
-15.720

>  <name>  (38) 
37

>  <ligand_id>  (38) 
37

>  <original_smiles>  (38) 
[H]c1c([H])c([H])c2c(c1[H])C([H])([H])C([H])([H])C([H])([H])C2([H])N([H])C(=O)C1([H])N(C(=O)C([H])(N([H])C(=O)C([H])(N([H])C([H])([H])[H])C([H])([H])[H])C(C([H])([H])[H])(C([H])([H])[H])C([H])([H])[H])C([H])([H])c2c([H])c(OC([H])([H])C([H])([H])[N+]([H])([H])C3([H])C([H])([H])N(C(=O)N4C([H])([H])C([H])([H])C([H])([H])C([H])(n5nc(-c6c([H])c([H])c(Oc7c([H])c([H])c(F)c([H])c7F)c([H])c6[H])c(C(=O)N([H])[H])c5N([H])[H])C4([H])[H])C([H])([H])C([H])(C([H])([H])C([H])(C([H])([H])[H])C([H])([H])[H])C3([H])[H])c([H])c([H])c2C1([H])[H]

>  <smiles>  (38) 
[H]c1c([H])c([H])c2c(c1[H])C([H])([H])C([H])([H])C([H])([H])C2([H])N([H])C(=O)C1([H])N(C(=O)C([H])(N([H])C(=O)C([H])(N([H])C([H])([H])[H])C([H])([H])[H])C(C([H])([H])[H])(C([H])([H])[H])C([H])([H])[H])C([H])([H])c2c([H])c(OC([H])([H])C([H])([H])[N+]([H])([H])C3([H])C([H])([H])N(C(=O)N4C([H])([H])C([H])([H])C([H])([H])C([H])(n5nc(-c6c([H])c([H])c(Oc7c([H])c([H])c(F)c([H])c7F)c([H])c6[H])c(C(=O)N([H])[H])c5N([H])[H])C4([H])[H])C([H])([H])C([H])(C([H])([H])C([H])(C([H])([H])[H])C([H])([H])[H])C3([H])[H])c([H])c([H])c2C1([H])[H]

$$$$
38:0:0
     RDKit          3D

 92100  0  0  1  0  0  0  0  0999 V2000
  -28.6510  -20.4570   21.1690 C   0  0  0  0  0  2  0  0  0  0  0  0
  -29.3200  -21.4160   19.1980 C   0  0  0  0  0  2  0  0  0  0  0  0
  -29.5850  -19.9400   20.0420 C   0  0  0  0  0  3  0  0  0  0  0  0
  -28.7460  -22.0540   21.3980 C   0  0  0  0  0  3  0  0  0  0  0  0
  -29.0850  -22.8740   20.0730 C   0  0  0  0  0  3  0  0  0  0  0  0
  -30.0060  -18.2290   18.0380 C   0  0  0  0  0  1  0  0  0  0  0  0
  -29.4560  -18.2410   19.4680 C   0  0  0  0  0  0  0  0  0  0  0  0
  -30.3710  -15.4370   19.9420 C   0  0  0  0  0  0  0  0  0  0  0  0
  -30.3760  -12.9480   19.2210 C   0  0  0  0  0  2  0  0  0  0  0  0
  -29.4420  -12.6680   18.0150 C   0  0  0  0  0  2  0  0  0  0  0  0
  -28.0170  -12.3710   18.5010 C   0  0  0  0  0  2  0  0  0  0  0  0
  -27.5600  -13.3720   19.5940 C   0  0  0  0  0  3  0  0  0  0  0  0
  -28.6250  -13.6240   20.6890 C   0  0  0  0  0  2  0  0  0  0  0  0
  -29.8400  -14.1170   20.0180 N   0  0  0  0  0  0  0  0  0  0  0  0
  -31.5510  -15.4500   19.5550 O   0  0  0  0  0  0  0  0  0  0  0  0
  -29.6110  -16.7010   20.1240 N   0  0  0  0  0  4  0  0  0  0  0  0
  -28.7700  -16.4860   20.6430 H   0  0  0  0  0  0  0  0  0  0  0  0
  -25.2120  -13.8980   20.4510 C   0  0  0  0  0  0  0  0  0  0  0  0
  -24.1740  -13.1080   20.8550 C   0  0  0  0  0  0  0  0  0  0  0  0
  -24.6490  -11.7600   20.7850 C   0  0  0  0  0  0  0  0  0  0  0  0
  -26.2530  -13.0360   20.1510 N   0  0  0  0  0  0  0  0  0  0  0  0
  -25.9280  -11.7430   20.4190 N   0  0  0  0  0  0  0  0  0  0  0  0
  -23.9390  -10.4890   20.9850 C   0  0  0  0  0  0  0  0  0  0  0  0
  -24.3960   -9.5230   21.9090 C   0  0  0  0  0  3  0  0  0  0  0  0
  -23.6790   -8.3230   22.1060 C   0  0  0  0  0  3  0  0  0  0  0  0
  -22.4920   -8.0790   21.3740 C   0  0  0  0  0  0  0  0  0  0  0  0
  -22.0520   -9.0340   20.4410 C   0  0  0  0  0  3  0  0  0  0  0  0
  -22.7710  -10.2250   20.2430 C   0  0  0  0  0  3  0  0  0  0  0  0
  -21.7440   -6.9290   21.4790 O   0  0  0  0  0  0  0  0  0  0  0  0
  -21.7150   -6.1920   22.6340 C   0  0  0  0  0  0  0  0  0  0  0  0
  -21.2610   -6.7400   23.8540 C   0  0  0  0  0  3  0  0  0  0  0  0
  -21.1770   -5.9280   25.0020 C   0  0  0  0  0  3  0  0  0  0  0  0
  -21.5400   -4.5670   24.9340 C   0  0  0  0  0  0  0  0  0  0  0  0
  -21.9880   -4.0220   23.7180 C   0  0  0  0  0  3  0  0  0  0  0  0
  -22.0700   -4.8310   22.5710 C   0  0  0  0  0  0  0  0  0  0  0  0
  -22.4810   -4.2910   21.3970 F   0  0  0  0  0  0  0  0  0  0  0  0
  -21.4550   -3.7870   26.0350 F   0  0  0  0  0  0  0  0  0  0  0  0
  -22.7850  -13.5710   21.1870 C   0  0  0  0  0  0  0  0  0  0  0  0
  -22.0940  -12.8640   22.0740 N   0  0  0  0  0  0  0  0  0  0  0  0
  -22.3220  -14.6010   20.6940 O   0  0  0  0  0  0  0  0  0  0  0  0
  -22.4820  -12.0400   22.5020 H   0  0  0  0  0  0  0  0  0  0  0  0
  -21.1630  -13.1600   22.3310 H   0  0  0  0  0  0  0  0  0  0  0  0
  -25.3500  -15.2710   20.2860 N   0  0  0  0  0  0  0  0  0  0  0  0
  -24.5770  -15.9110   20.4450 H   0  0  0  0  0  0  0  0  0  0  0  0
  -26.1650  -15.7250   19.8980 H   0  0  0  0  0  0  0  0  0  0  0  0
  -29.7590  -22.2960   22.5470 C   0  0  0  0  0  2  0  0  0  0  0  0
  -29.8190  -23.7000   22.9600 N   0  0  0  0  0  4  0  0  0  0  0  0
  -28.8930  -24.0800   23.0530 H   0  0  0  0  0  0  0  0  0  0  0  0
  -30.3440  -24.2500   22.3060 H   0  0  0  0  0  0  0  0  0  0  0  0
  -30.2700  -23.7550   23.8560 H   0  0  0  0  0  0  0  0  0  0  0  0
  -28.1730  -24.3920   19.6560 C   0  0  0  0  0  2  0  0  0  0  0  0
  -28.2470  -26.0100   19.9870 O   0  0  0  0  0  0  0  0  0  0  0  0
  -24.6230  -31.8020   23.1360 C   0  0  0  0  0  0  0  0  0  0  0  0
  -27.1980  -27.0730   19.9180 C   0  0  0  0  0  0  0  0  0  0  0  0
  -23.4110  -30.4560   21.4610 C   0  0  0  0  0  3  0  0  0  0  0  0
  -24.8550  -28.9100   19.9590 C   0  0  0  0  0  0  0  0  0  0  0  0
  -25.9690  -30.7030   21.2780 C   0  0  0  0  0  2  0  0  0  0  0  0
  -26.0460  -29.3170   20.5740 C   0  0  0  0  0  0  0  0  0  0  0  0
  -27.2030  -28.4210   20.5330 C   0  0  0  0  0  3  0  0  0  0  0  0
  -25.9800  -26.8210   19.2450 C   0  0  0  0  0  3  0  0  0  0  0  0
  -24.8490  -27.6850   19.2670 C   0  0  0  0  0  3  0  0  0  0  0  0
  -23.6250  -29.8120   20.0590 C   0  0  0  0  0  2  0  0  0  0  0  0
  -24.6900  -31.0120   22.0130 N   0  0  0  0  0  0  0  0  0  0  0  0
  -23.5430  -32.0630   23.6850 O   0  0  0  0  0  0  0  0  0  0  0  0
  -22.7360  -29.4270   22.4060 C   0  0  0  0  0  0  0  0  0  0  0  0
  -21.4120  -29.2330   22.2740 N   0  0  0  0  0  0  0  0  0  0  0  0
  -23.4130  -28.8000   23.2260 O   0  0  0  0  0  0  0  0  0  0  0  0
  -20.9160  -29.7940   21.5930 H   0  0  0  0  0  0  0  0  0  0  0  0
  -18.0640  -27.8930   22.7070 C   0  0  0  0  0  0  0  0  0  0  0  0
  -20.6080  -28.2570   23.0190 C   0  0  0  0  0  3  0  0  0  0  0  0
  -20.7760  -26.8360   22.4310 C   0  0  0  0  0  2  0  0  0  0  0  0
  -19.7070  -26.4810   21.3940 C   0  0  0  0  0  2  0  0  0  0  0  0
  -18.3100  -26.5610   22.0150 C   0  0  0  0  0  2  0  0  0  0  0  0
  -19.1460  -28.6970   23.1640 C   0  0  0  0  0  0  0  0  0  0  0  0
  -18.8620  -29.9370   23.7730 C   0  0  0  0  0  3  0  0  0  0  0  0
  -17.5350  -30.3770   23.9350 C   0  0  0  0  0  3  0  0  0  0  0  0
  -16.4700  -29.5720   23.4920 C   0  0  0  0  0  3  0  0  0  0  0  0
  -16.7370  -28.3330   22.8820 C   0  0  0  0  0  3  0  0  0  0  0  0
  -25.9030  -32.4260   23.7720 C   0  0  0  0  0  3  0  0  0  0  0  0
  -26.4160  -31.6350   25.0410 C   0  0  1  0  0  0  0  0  0  0  0  0
  -25.3250  -31.3950   26.1110 C   0  0  0  0  0  1  0  0  0  0  0  0
  -26.9880  -30.2560   24.6400 C   0  0  0  0  0  1  0  0  0  0  0  0
  -27.5740  -32.4150   25.7110 C   0  0  0  0  0  1  0  0  0  0  0  0
  -25.5950  -33.8210   24.1360 N   0  0  0  0  0  0  0  0  0  0  0  0
  -25.9160  -34.8940   23.4010 C   0  0  0  0  0  0  0  0  0  0  0  0
  -26.5620  -34.8160   22.3540 O   0  0  0  0  0  0  0  0  0  0  0  0
  -25.0210  -33.9550   24.9540 H   0  0  0  0  0  0  0  0  0  0  0  0
  -24.1810  -36.7050   23.1520 C   0  0  0  0  0  1  0  0  0  0  0  0
  -25.4500  -36.2770   23.9080 C   0  0  0  0  0  3  0  0  0  0  0  0
  -27.6090  -37.1530   24.6880 C   0  0  0  0  0  1  0  0  0  0  0  0
  -26.4800  -37.3310   23.7790 N   0  0  0  0  0  0  0  0  0  0  0  0
  -26.0800  -38.2510   23.9490 H   0  0  0  0  0  0  0  0  0  0  0  0
  1  4  1  0
  2  3  1  0
  2  5  1  0
  3  7  1  0
  3  1  1  0
  4 46  1  0
  5 51  1  0
  5  4  1  0
  6  7  1  0
  7 16  2  0
  8 14  1  0
  8 16  1  0
  9 14  1  0
 10 11  1  0
 10  9  1  0
 12 11  1  0
 12 21  1  0
 12 13  1  0
 14 13  1  0
 15  8  2  0
 16 17  1  0
 18 19  2  0
 19 38  1  0
 20 19  1  0
 20 23  1  0
 21 22  1  0
 21 18  1  0
 22 20  2  0
 23 24  1  0
 24 25  2  0
 26 29  1  0
 26 25  1  0
 27 26  2  0
 28 27  1  0
 28 23  2  0
 29 30  1  0
 30 31  1  0
 31 32  2  0
 33 32  1  0
 33 37  1  0
 34 33  2  0
 35 30  2  0
 35 34  1  0
 36 35  1  0
 38 39  1  0
 39 42  1  0
 39 41  1  0
 40 38  2  0
 43 44  1  0
 43 18  1  0
 45 43  1  0
 46 47  1  0
 47 48  1  0
 47 50  1  0
 49 47  1  0
 51 52  1  0
 53 64  2  0
 54 52  1  0
 54 59  1  0
 55 63  1  0
 55 65  1  0
 56 62  1  0
 56 58  1  0
 57 63  1  0
 58 57  1  0
 59 58  2  0
 60 61  1  0
 60 54  2  0
 61 56  2  0
 62 55  1  0
 63 53  1  0
 65 67  2  0
 66 65  1  0
 68 66  1  0
 69 78  2  0
 69 74  1  0
 70 66  1  0
 70 74  1  0
 71 70  1  0
 72 73  1  0
 72 71  1  0
 73 69  1  0
 74 75  2  0
 75 76  1  0
 77 76  2  0
 78 77  1  0
 79 53  1  0
 79 84  1  0
 79 80  1  0
 80 83  1  1
 80 81  1  0
 82 80  1  0
 84 87  1  0
 85 89  1  0
 85 84  1  0
 86 85  2  0
 89 88  1  0
 91 89  1  0
 91 92  1  0
 91 90  1  0
M  ISO  4   8 100  16 100  51 101  52 101
M  END
>  <TORSDO>  (39) 
F 20

>  <SCORE>  (39) 
-16.116

>  <name>  (39) 
38

>  <ligand_id>  (39) 
38

>  <original_smiles>  (39) 
[H]c1c([H])c([H])c2c(c1[H])C([H])([H])C([H])([H])C([H])([H])C2([H])N([H])C(=O)C1([H])N(C(=O)C([H])(N([H])C(=O)C([H])(N([H])C([H])([H])[H])C([H])([H])[H])C(C([H])([H])[H])(C([H])([H])[H])C([H])([H])[H])C([H])([H])c2c([H])c(OC([H])([H])C3([H])C([H])([H])C([H])(C([H])(N([H])C(=O)N4C([H])([H])C([H])([H])C([H])([H])C([H])(n5nc(-c6c([H])c([H])c(Oc7c([H])c([H])c(F)c([H])c7F)c([H])c6[H])c(C(=O)N([H])[H])c5N([H])[H])C4([H])[H])C([H])([H])[H])C([H])([H])C3([H])C([H])([H])[N+]([H])([H])[H])c([H])c([H])c2C1([H])[H]

>  <smiles>  (39) 
[H]c1c([H])c([H])c2c(c1[H])C([H])([H])C([H])([H])C([H])([H])C2([H])N([H])C(=O)C1([H])N(C(=O)C([H])(N([H])C(=O)C([H])(N([H])C([H])([H])[H])C([H])([H])[H])C(C([H])([H])[H])(C([H])([H])[H])C([H])([H])[H])C([H])([H])c2c([H])c(OC([H])([H])C3([H])C([H])([H])C([H])(C([H])(N([H])C(=O)N4C([H])([H])C([H])([H])C([H])([H])C([H])(n5nc(-c6c([H])c([H])c(Oc7c([H])c([H])c(F)c([H])c7F)c([H])c6[H])c(C(=O)N([H])[H])c5N([H])[H])C4([H])[H])C([H])([H])[H])C([H])([H])C3([H])C([H])([H])[N+]([H])([H])[H])c([H])c([H])c2C1([H])[H]

$$$$
39:0:0
     RDKit          3D

 89 97  0  0  1  0  0  0  0  0999 V2000
  -28.8940  -20.9460   19.7410 N   0  0  0  0  0  4  0  0  0  0  0  0
  -29.7200  -21.1050   19.1870 H   0  0  0  0  0  0  0  0  0  0  0  0
  -28.1500  -20.9180   19.0630 H   0  0  0  0  0  0  0  0  0  0  0  0
  -30.2880  -15.5670   19.8330 C   0  0  0  0  0  0  0  0  0  0  0  0
  -30.2240  -13.0950   18.9420 C   0  0  0  0  0  2  0  0  0  0  0  0
  -29.2320  -12.8230   17.7800 C   0  0  0  0  0  2  0  0  0  0  0  0
  -27.8330  -12.5060   18.3270 C   0  0  0  0  0  2  0  0  0  0  0  0
  -27.4390  -13.4640   19.4770 C   0  0  0  0  0  3  0  0  0  0  0  0
  -28.5580  -13.6810   20.5200 C   0  0  0  0  0  2  0  0  0  0  0  0
  -29.7100  -14.2460   19.7960 N   0  0  0  0  0  0  0  0  0  0  0  0
  -31.4890  -15.5040   19.5220 O   0  0  0  0  0  0  0  0  0  0  0  0
  -28.8980  -17.9710   19.1950 C   0  0  0  0  0  2  0  0  0  0  0  0
  -28.9780  -19.2830   20.2080 C   0  0  0  0  0  3  0  0  0  0  0  0
  -30.2580  -18.3100   20.5870 C   0  0  0  0  0  3  0  0  0  0  0  0
  -29.6340  -16.9230   20.1090 N   0  0  0  0  0  0  0  0  0  0  0  0
  -25.1400  -13.9780   20.4310 C   0  0  0  0  0  0  0  0  0  0  0  0
  -24.1110  -13.1850   20.8540 C   0  0  0  0  0  0  0  0  0  0  0  0
  -24.5810  -11.8380   20.7530 C   0  0  0  0  0  0  0  0  0  0  0  0
  -26.1630  -13.1170   20.0850 N   0  0  0  0  0  0  0  0  0  0  0  0
  -25.8470  -11.8210   20.3470 N   0  0  0  0  0  0  0  0  0  0  0  0
  -23.8720  -10.5680   20.9620 C   0  0  0  0  0  0  0  0  0  0  0  0
  -24.3430   -9.5990   21.8750 C   0  0  0  0  0  3  0  0  0  0  0  0
  -23.6300   -8.3980   22.0750 C   0  0  0  0  0  3  0  0  0  0  0  0
  -22.4310   -8.1570   21.3630 C   0  0  0  0  0  0  0  0  0  0  0  0
  -21.9770   -9.1140   20.4400 C   0  0  0  0  0  3  0  0  0  0  0  0
  -22.6920  -10.3070   20.2380 C   0  0  0  0  0  3  0  0  0  0  0  0
  -21.6860   -7.0060   21.4750 O   0  0  0  0  0  0  0  0  0  0  0  0
  -21.6710   -6.2660   22.6300 C   0  0  0  0  0  0  0  0  0  0  0  0
  -21.2270   -6.8070   23.8560 C   0  0  0  0  0  3  0  0  0  0  0  0
  -21.1630   -5.9910   25.0030 C   0  0  0  0  0  3  0  0  0  0  0  0
  -21.5330   -4.6350   24.9260 C   0  0  0  0  0  0  0  0  0  0  0  0
  -21.9710   -4.0940   23.7040 C   0  0  0  0  0  3  0  0  0  0  0  0
  -22.0360   -4.9060   22.5580 C   0  0  0  0  0  0  0  0  0  0  0  0
  -22.4380   -4.3750   21.3790 F   0  0  0  0  0  0  0  0  0  0  0  0
  -21.4660   -3.8490   26.0250 F   0  0  0  0  0  0  0  0  0  0  0  0
  -22.7360  -13.6500   21.2330 C   0  0  0  0  0  0  0  0  0  0  0  0
  -22.0690  -12.9240   22.1240 N   0  0  0  0  0  0  0  0  0  0  0  0
  -22.2660  -14.6910   20.7770 O   0  0  0  0  0  0  0  0  0  0  0  0
  -22.4660  -12.0810   22.5130 H   0  0  0  0  0  0  0  0  0  0  0  0
  -21.1490  -13.2150   22.4200 H   0  0  0  0  0  0  0  0  0  0  0  0
  -25.2850  -15.3540   20.2800 N   0  0  0  0  0  0  0  0  0  0  0  0
  -24.5310  -16.0030   20.4790 H   0  0  0  0  0  0  0  0  0  0  0  0
  -26.1210  -15.8080   19.9340 H   0  0  0  0  0  0  0  0  0  0  0  0
  -31.7070  -17.1270   22.3510 C   0  0  0  0  0  1  0  0  0  0  0  0
  -31.2310  -19.5900   22.5520 C   0  0  0  0  0  1  0  0  0  0  0  0
  -30.6840  -18.2400   22.0640 C   0  0  0  0  0  3  0  0  0  0  0  0
  -28.5810  -22.4580   20.4970 C   0  0  0  0  0  2  0  0  0  0  0  0
  -28.0090  -24.1330   19.8770 C   0  0  0  0  0  2  0  0  0  0  0  0
  -28.0480  -25.7820   20.3300 O   0  0  0  0  0  0  0  0  0  0  0  0
  -24.5720  -31.9260   23.2510 C   0  0  0  0  0  0  0  0  0  0  0  0
  -27.0640  -26.9390   20.2230 C   0  0  0  0  0  0  0  0  0  0  0  0
  -23.3610  -30.5340   21.6240 C   0  0  0  0  0  3  0  0  0  0  0  0
  -24.7890  -28.9040   20.1880 C   0  0  0  0  0  0  0  0  0  0  0  0
  -25.9330  -30.7000   21.4680 C   0  0  0  0  0  2  0  0  0  0  0  0
  -25.9850  -29.2800   20.8090 C   0  0  0  0  0  0  0  0  0  0  0  0
  -27.1100  -28.3190   20.8030 C   0  0  0  0  0  3  0  0  0  0  0  0
  -25.8400  -26.7470   19.5390 C   0  0  0  0  0  3  0  0  0  0  0  0
  -24.7480  -27.6620   19.5300 C   0  0  0  0  0  3  0  0  0  0  0  0
  -23.5790  -29.8440   20.2470 C   0  0  0  0  0  2  0  0  0  0  0  0
  -24.6450  -31.0830   22.1670 N   0  0  0  0  0  0  0  0  0  0  0  0
  -23.4880  -32.2260   23.7770 O   0  0  0  0  0  0  0  0  0  0  0  0
  -22.6600  -29.5500   22.5980 C   0  0  0  0  0  0  0  0  0  0  0  0
  -21.3310  -29.3790   22.4690 N   0  0  0  0  0  0  0  0  0  0  0  0
  -23.3230  -28.9400   23.4410 O   0  0  0  0  0  0  0  0  0  0  0  0
  -20.8460  -29.9220   21.7680 H   0  0  0  0  0  0  0  0  0  0  0  0
  -17.9570  -28.1340   22.9680 C   0  0  0  0  0  0  0  0  0  0  0  0
  -20.5110  -28.4430   23.2490 C   0  0  0  0  0  3  0  0  0  0  0  0
  -20.6380  -27.0030   22.6980 C   0  0  0  0  0  2  0  0  0  0  0  0
  -19.5500  -26.6490   21.6790 C   0  0  0  0  0  2  0  0  0  0  0  0
  -18.1610  -26.7800   22.3080 C   0  0  0  0  0  2  0  0  0  0  0  0
  -19.0600  -28.9210   23.3950 C   0  0  0  0  0  0  0  0  0  0  0  0
  -18.8130  -30.1840   23.9750 C   0  0  0  0  0  3  0  0  0  0  0  0
  -17.4970  -30.6610   24.1310 C   0  0  0  0  0  3  0  0  0  0  0  0
  -16.4100  -29.8710   23.7180 C   0  0  0  0  0  3  0  0  0  0  0  0
  -16.6400  -28.6100   23.1420 C   0  0  0  0  0  3  0  0  0  0  0  0
  -25.8490  -32.5670   23.8750 C   0  0  0  0  0  3  0  0  0  0  0  0
  -26.3390  -31.8240   25.1800 C   0  0  1  0  0  0  0  0  0  0  0  0
  -25.2290  -31.6270   26.2400 C   0  0  0  0  0  1  0  0  0  0  0  0
  -26.9120  -30.4300   24.8410 C   0  0  0  0  0  1  0  0  0  0  0  0
  -27.4890  -32.6240   25.8370 C   0  0  0  0  0  1  0  0  0  0  0  0
  -25.5480  -33.9770   24.1840 N   0  0  0  0  0  0  0  0  0  0  0  0
  -25.8870  -35.0240   23.4190 C   0  0  0  0  0  0  0  0  0  0  0  0
  -26.5460  -34.9030   22.3840 O   0  0  0  0  0  0  0  0  0  0  0  0
  -24.9610  -34.1450   24.9880 H   0  0  0  0  0  0  0  0  0  0  0  0
  -24.1810  -36.8460   23.0710 C   0  0  0  0  0  1  0  0  0  0  0  0
  -25.4250  -36.4250   23.8710 C   0  0  0  0  0  3  0  0  0  0  0  0
  -27.5730  -37.3010   24.6810 C   0  0  0  0  0  1  0  0  0  0  0  0
  -26.4710  -37.4640   23.7380 N   0  0  0  0  0  0  0  0  0  0  0  0
  -26.0760  -38.3910   23.8690 H   0  0  0  0  0  0  0  0  0  0  0  0
  1 47  1  0
  2  1  1  0
  3  1  1  0
  4 15  1  0
  5 10  1  0
  6  7  1  0
  6  5  1  0
  8  7  1  0
  8 19  1  0
  8  9  1  0
 10  4  1  0
 10  9  1  0
 11  4  2  0
 12 15  1  0
 12 13  1  0
 13  1  1  0
 13 14  1  0
 14 46  1  0
 15 14  1  0
 16 17  2  0
 17 36  1  0
 18 17  1  0
 18 21  1  0
 19 20  1  0
 19 16  1  0
 20 18  2  0
 21 22  1  0
 22 23  2  0
 24 27  1  0
 24 23  1  0
 25 24  2  0
 26 25  1  0
 26 21  2  0
 27 28  1  0
 28 29  1  0
 29 30  2  0
 31 30  1  0
 31 35  1  0
 32 31  2  0
 33 28  2  0
 33 32  1  0
 34 33  1  0
 36 37  1  0
 37 40  1  0
 37 39  1  0
 38 36  2  0
 41 16  1  0
 41 42  1  0
 43 41  1  0
 46 44  1  0
 46 45  1  0
 48 49  1  0
 48 47  1  0
 50 61  2  0
 51 49  1  0
 51 56  1  0
 52 60  1  0
 52 62  1  0
 53 59  1  0
 53 55  1  0
 54 60  1  0
 55 54  1  0
 56 55  2  0
 57 51  2  0
 58 57  1  0
 58 53  2  0
 59 52  1  0
 60 50  1  0
 62 64  2  0
 63 62  1  0
 65 63  1  0
 66 75  2  0
 66 71  1  0
 67 63  1  0
 67 71  1  0
 68 67  1  0
 69 70  1  0
 69 68  1  0
 70 66  1  0
 71 72  2  0
 72 73  1  0
 74 73  2  0
 75 74  1  0
 76 50  1  0
 76 81  1  0
 76 77  1  0
 77 80  1  1
 77 78  1  0
 79 77  1  0
 81 84  1  0
 82 86  1  0
 82 81  1  0
 83 82  2  0
 86 85  1  0
 88 89  1  0
 88 86  1  0
 88 87  1  0
M  ISO  4   4 100  15 100  48 101  49 101
M  END
>  <TORSDO>  (40) 
F 19

>  <SCORE>  (40) 
-14.968

>  <name>  (40) 
39

>  <ligand_id>  (40) 
39

>  <original_smiles>  (40) 
[H]c1c([H])c([H])c2c(c1[H])C([H])([H])C([H])([H])C([H])([H])C2([H])N([H])C(=O)C1([H])N(C(=O)C([H])(N([H])C(=O)C([H])(N([H])C([H])([H])[H])C([H])([H])[H])C(C([H])([H])[H])(C([H])([H])[H])C([H])([H])[H])C([H])([H])c2c([H])c(OC([H])([H])C([H])([H])[N+]([H])([H])C3([H])C([H])([H])N(C(=O)N4C([H])([H])C([H])([H])C([H])([H])C([H])(n5nc(-c6c([H])c([H])c(Oc7c([H])c([H])c(F)c([H])c7F)c([H])c6[H])c(C(=O)N([H])[H])c5N([H])[H])C4([H])[H])C3([H])C([H])(C([H])([H])[H])C([H])([H])[H])c([H])c([H])c2C1([H])[H]

>  <smiles>  (40) 
[H]c1c([H])c([H])c2c(c1[H])C([H])([H])C([H])([H])C([H])([H])C2([H])N([H])C(=O)C1([H])N(C(=O)C([H])(N([H])C(=O)C([H])(N([H])C([H])([H])[H])C([H])([H])[H])C(C([H])([H])[H])(C([H])([H])[H])C([H])([H])[H])C([H])([H])c2c([H])c(OC([H])([H])C([H])([H])[N+]([H])([H])C3([H])C([H])([H])N(C(=O)N4C([H])([H])C([H])([H])C([H])([H])C([H])(n5nc(-c6c([H])c([H])c(Oc7c([H])c([H])c(F)c([H])c7F)c([H])c6[H])c(C(=O)N([H])[H])c5N([H])[H])C4([H])[H])C3([H])C([H])(C([H])([H])[H])C([H])([H])[H])c([H])c([H])c2C1([H])[H]

$$$$
40:0:0
     RDKit          3D

 88 96  0  0  1  0  0  0  0  0999 V2000
  -29.6340  -22.7830   21.3880 C   0  0  0  0  0  2  0  0  0  0  0  0
  -29.5770  -24.3500   21.3280 C   0  0  0  0  0  2  0  0  0  0  0  0
  -28.4580  -23.4970   19.4350 C   0  0  0  0  0  2  0  0  0  0  0  0
  -29.3520  -22.2100   19.9790 C   0  0  0  0  0  3  0  0  0  0  0  0
  -28.3840  -24.7950   20.4470 C   0  0  0  0  0  3  0  0  0  0  0  0
  -27.9420  -20.1760   20.9920 C   0  0  0  0  0  1  0  0  0  0  0  0
  -28.9400  -20.5600   19.8920 C   0  0  0  0  0  3  0  0  0  0  0  0
  -29.9070  -19.2110   19.5130 C   0  0  0  0  0  2  0  0  0  0  0  0
  -30.2660  -17.8350   20.4290 C   0  0  0  0  0  2  0  0  0  0  0  0
  -30.8290  -15.1310   20.0050 C   0  0  0  0  0  0  0  0  0  0  0  0
  -30.6680  -12.7770   19.0690 C   0  0  0  0  0  2  0  0  0  0  0  0
  -29.7050  -12.7330   17.8600 C   0  0  0  0  0  2  0  0  0  0  0  0
  -28.2450  -12.5600   18.3240 C   0  0  0  0  0  2  0  0  0  0  0  0
  -27.8770  -13.5010   19.5010 C   0  0  0  0  0  3  0  0  0  0  0  0
  -28.9560  -13.4960   20.6020 C   0  0  0  0  0  2  0  0  0  0  0  0
  -30.2150  -13.8820   19.9550 N   0  0  0  0  0  0  0  0  0  0  0  0
  -32.0490  -15.1760   19.8130 O   0  0  0  0  0  0  0  0  0  0  0  0
  -30.0370  -16.3130   20.0530 N   0  0  0  0  0  0  0  0  0  0  0  0
  -29.0560  -16.0820   20.0030 H   0  0  0  0  0  0  0  0  0  0  0  0
  -25.5200  -14.1340   20.2710 C   0  0  0  0  0  0  0  0  0  0  0  0
  -24.4470  -13.3820   20.6620 C   0  0  0  0  0  0  0  0  0  0  0  0
  -24.8870  -12.0230   20.6390 C   0  0  0  0  0  0  0  0  0  0  0  0
  -26.5440  -13.2340   20.0260 N   0  0  0  0  0  0  0  0  0  0  0  0
  -26.1730  -11.9600   20.3160 N   0  0  0  0  0  0  0  0  0  0  0  0
  -24.1410  -10.7760   20.8470 C   0  0  0  0  0  0  0  0  0  0  0  0
  -24.5370   -9.8300   21.8180 C   0  0  0  0  0  3  0  0  0  0  0  0
  -23.7900   -8.6480   22.0140 C   0  0  0  0  0  3  0  0  0  0  0  0
  -22.6320   -8.4040   21.2380 C   0  0  0  0  0  0  0  0  0  0  0  0
  -22.2540   -9.3380   20.2570 C   0  0  0  0  0  3  0  0  0  0  0  0
  -23.0020  -10.5110   20.0600 C   0  0  0  0  0  3  0  0  0  0  0  0
  -21.8600   -7.2720   21.3400 O   0  0  0  0  0  0  0  0  0  0  0  0
  -21.7400   -6.5880   22.5220 C   0  0  0  0  0  0  0  0  0  0  0  0
  -21.2490   -7.2050   23.6940 C   0  0  0  0  0  3  0  0  0  0  0  0
  -21.0770   -6.4470   24.8690 C   0  0  0  0  0  3  0  0  0  0  0  0
  -21.3840   -5.0740   24.8730 C   0  0  0  0  0  0  0  0  0  0  0  0
  -21.8680   -4.4560   23.7070 C   0  0  0  0  0  3  0  0  0  0  0  0
  -22.0410   -5.2110   22.5340 C   0  0  0  0  0  0  0  0  0  0  0  0
  -22.4870   -4.6070   21.4070 F   0  0  0  0  0  0  0  0  0  0  0  0
  -21.2130   -4.3440   25.9990 F   0  0  0  0  0  0  0  0  0  0  0  0
  -23.0610  -13.8860   20.9410 C   0  0  0  0  0  0  0  0  0  0  0  0
  -22.3350  -13.2180   21.8310 N   0  0  0  0  0  0  0  0  0  0  0  0
  -22.6330  -14.9070   20.4040 O   0  0  0  0  0  0  0  0  0  0  0  0
  -22.6960  -12.3920   22.2840 H   0  0  0  0  0  0  0  0  0  0  0  0
  -21.4050  -13.5380   22.0630 H   0  0  0  0  0  0  0  0  0  0  0  0
  -25.7020  -15.5000   20.0750 N   0  0  0  0  0  0  0  0  0  0  0  0
  -24.9400  -16.1610   20.1830 H   0  0  0  0  0  0  0  0  0  0  0  0
  -26.5350  -15.9240   19.6900 H   0  0  0  0  0  0  0  0  0  0  0  0
  -28.4540  -26.3310   20.1710 O   0  0  0  0  0  0  0  0  0  0  0  0
  -24.6620  -31.8940   23.2400 C   0  0  0  0  0  0  0  0  0  0  0  0
  -27.3410  -27.2440   20.2010 C   0  0  0  0  0  0  0  0  0  0  0  0
  -23.4940  -30.4850   21.5890 C   0  0  0  0  0  3  0  0  0  0  0  0
  -24.9740  -28.9320   20.1730 C   0  0  0  0  0  0  0  0  0  0  0  0
  -26.0420  -30.8000   21.4310 C   0  0  0  0  0  2  0  0  0  0  0  0
  -26.1440  -29.4090   20.7780 C   0  0  0  0  0  0  0  0  0  0  0  0
  -27.3290  -28.5830   20.7670 C   0  0  0  0  0  3  0  0  0  0  0  0
  -26.1400  -26.8520   19.5790 C   0  0  0  0  0  3  0  0  0  0  0  0
  -24.9830  -27.6670   19.5620 C   0  0  0  0  0  3  0  0  0  0  0  0
  -23.7320  -29.8120   20.2110 C   0  0  0  0  0  2  0  0  0  0  0  0
  -24.7520  -31.0830   22.1420 N   0  0  0  0  0  0  0  0  0  0  0  0
  -23.5680  -32.1580   23.7630 O   0  0  0  0  0  0  0  0  0  0  0  0
  -22.8270  -29.4650   22.5440 C   0  0  0  0  0  0  0  0  0  0  0  0
  -21.5000  -29.2830   22.4180 N   0  0  0  0  0  0  0  0  0  0  0  0
  -23.5050  -28.8380   23.3620 O   0  0  0  0  0  0  0  0  0  0  0  0
  -21.0090  -29.8390   21.7330 H   0  0  0  0  0  0  0  0  0  0  0  0
  -18.1270  -28.0630   22.9250 C   0  0  0  0  0  0  0  0  0  0  0  0
  -20.6870  -28.3330   23.1800 C   0  0  0  0  0  3  0  0  0  0  0  0
  -20.7900  -26.9090   22.5830 C   0  0  0  0  0  2  0  0  0  0  0  0
  -19.6830  -26.5970   21.5720 C   0  0  0  0  0  2  0  0  0  0  0  0
  -18.3040  -26.7250   22.2270 C   0  0  0  0  0  2  0  0  0  0  0  0
  -19.2450  -28.8250   23.3570 C   0  0  0  0  0  0  0  0  0  0  0  0
  -19.0230  -30.0770   23.9710 C   0  0  0  0  0  3  0  0  0  0  0  0
  -17.7170  -30.5670   24.1570 C   0  0  0  0  0  3  0  0  0  0  0  0
  -16.6130  -29.8020   23.7390 C   0  0  0  0  0  3  0  0  0  0  0  0
  -16.8190  -28.5520   23.1280 C   0  0  0  0  0  3  0  0  0  0  0  0
  -25.9260  -32.5490   23.8790 C   0  0  0  0  0  3  0  0  0  0  0  0
  -26.4200  -31.8010   25.1780 C   0  0  1  0  0  0  0  0  0  0  0  0
  -25.3070  -31.5710   26.2290 C   0  0  0  0  0  1  0  0  0  0  0  0
  -27.0220  -30.4220   24.8230 C   0  0  0  0  0  1  0  0  0  0  0  0
  -27.5540  -32.6140   25.8490 C   0  0  0  0  0  1  0  0  0  0  0  0
  -25.5980  -33.9500   24.1890 N   0  0  0  0  0  0  0  0  0  0  0  0
  -25.9310  -35.0000   23.4260 C   0  0  0  0  0  0  0  0  0  0  0  0
  -26.6120  -34.8910   22.4020 O   0  0  0  0  0  0  0  0  0  0  0  0
  -24.9960  -34.1080   24.9830 H   0  0  0  0  0  0  0  0  0  0  0  0
  -24.1890  -36.7770   23.0430 C   0  0  0  0  0  1  0  0  0  0  0  0
  -25.4290  -36.3900   23.8650 C   0  0  0  0  0  3  0  0  0  0  0  0
  -27.5510  -37.3030   24.6980 C   0  0  0  0  0  1  0  0  0  0  0  0
  -26.4530  -37.4520   23.7470 N   0  0  0  0  0  0  0  0  0  0  0  0
  -26.0370  -38.3690   23.8840 H   0  0  0  0  0  0  0  0  0  0  0  0
  2  1  1  0
  3  4  1  0
  3  5  1  0
  4  7  1  0
  4  1  1  0
  5 48  1  0
  5  2  1  0
  7  6  1  0
  8  7  1  0
  8  9  1  0
 10 18  1  0
 11 16  1  0
 12 13  1  0
 12 11  1  0
 14 13  1  0
 14 23  1  0
 14 15  1  0
 16 10  1  0
 16 15  1  0
 17 10  2  0
 18  9  1  0
 19 18  1  0
 20 21  2  0
 21 40  1  0
 22 21  1  0
 22 25  1  0
 23 20  1  0
 23 24  1  0
 24 22  2  0
 25 26  1  0
 26 27  2  0
 28 31  1  0
 28 27  1  0
 29 28  2  0
 30 29  1  0
 30 25  2  0
 31 32  1  0
 32 37  2  0
 32 33  1  0
 33 34  2  0
 34 35  1  0
 35 39  1  0
 36 35  2  0
 37 36  1  0
 38 37  1  0
 40 41  1  0
 41 44  1  0
 41 43  1  0
 42 40  2  0
 45 46  1  0
 45 20  1  0
 47 45  1  0
 48 50  1  0
 49 60  2  0
 50 55  1  0
 51 59  1  0
 51 61  1  0
 52 58  1  0
 52 54  1  0
 53 59  1  0
 54 53  1  0
 55 54  2  0
 56 50  2  0
 57 56  1  0
 57 52  2  0
 58 51  1  0
 59 49  1  0
 61 63  2  0
 62 61  1  0
 64 62  1  0
 65 74  2  0
 65 70  1  0
 66 62  1  0
 66 70  1  0
 67 66  1  0
 68 69  1  0
 68 67  1  0
 69 65  1  0
 70 71  2  0
 71 72  1  0
 73 72  2  0
 74 73  1  0
 75 49  1  0
 75 80  1  0
 75 76  1  0
 76 79  1  1
 76 77  1  0
 78 76  1  0
 80 83  1  0
 81 85  1  0
 81 80  1  0
 82 81  2  0
 85 84  1  0
 87 85  1  0
 87 88  1  0
 87 86  1  0
M  ISO  4   5 101  10 100  18 100  48 101
M  END
>  <TORSDO>  (41) 
F 19

>  <SCORE>  (41) 
-14.275

>  <name>  (41) 
40

>  <ligand_id>  (41) 
40

>  <original_smiles>  (41) 
[H]c1c([H])c([H])c2c(c1[H])C([H])([H])C([H])([H])C([H])([H])C2([H])N([H])C(=O)C1([H])N(C(=O)C([H])(N([H])C(=O)C([H])(N([H])C([H])([H])[H])C([H])([H])[H])C(C([H])([H])[H])(C([H])([H])[H])C([H])([H])[H])C([H])([H])c2c([H])c(OC3([H])C([H])([H])C([H])([H])C([H])(C([H])(C([H])([H])[H])C([H])([H])C([H])([H])N([H])C(=O)N4C([H])([H])C([H])([H])C([H])([H])C([H])(n5nc(-c6c([H])c([H])c(Oc7c([H])c([H])c(F)c([H])c7F)c([H])c6[H])c(C(=O)N([H])[H])c5N([H])[H])C4([H])[H])C3([H])[H])c([H])c([H])c2C1([H])[H]

>  <smiles>  (41) 
[H]c1c([H])c([H])c2c(c1[H])C([H])([H])C([H])([H])C([H])([H])C2([H])N([H])C(=O)C1([H])N(C(=O)C([H])(N([H])C(=O)C([H])(N([H])C([H])([H])[H])C([H])([H])[H])C(C([H])([H])[H])(C([H])([H])[H])C([H])([H])[H])C([H])([H])c2c([H])c(OC3([H])C([H])([H])C([H])([H])C([H])(C([H])(C([H])([H])[H])C([H])([H])C([H])([H])N([H])C(=O)N4C([H])([H])C([H])([H])C([H])([H])C([H])(n5nc(-c6c([H])c([H])c(Oc7c([H])c([H])c(F)c([H])c7F)c([H])c6[H])c(C(=O)N([H])[H])c5N([H])[H])C4([H])[H])C3([H])[H])c([H])c([H])c2C1([H])[H]

$$$$
41:0:0
     RDKit          3D

 86 94  0  0  1  0  0  0  0  0999 V2000
  -28.3540  -21.3880   20.0860 C   0  0  0  0  0  2  0  0  0  0  0  0
  -30.5300  -17.8490   20.9910 C   0  0  0  0  0  3  0  0  0  0  0  0
  -28.8140  -17.2680   19.5410 C   0  0  0  0  0  3  0  0  0  0  0  0
  -30.1250  -19.2720   20.9430 C   0  0  0  0  0  3  0  0  0  0  0  0
  -28.4200  -18.6860   19.4850 C   0  0  0  0  0  3  0  0  0  0  0  0
  -29.8960  -16.7170   20.3240 C   0  0  0  0  0  0  0  0  0  0  0  0
  -29.0240  -19.8140   20.1740 C   0  0  0  0  0  0  0  0  0  0  0  0
  -30.5140  -15.1850   20.2380 C   0  0  0  0  0  0  0  0  0  0  0  0
  -30.3700  -12.7810   19.3740 C   0  0  0  0  0  2  0  0  0  0  0  0
  -29.4420  -12.6580   18.1430 C   0  0  0  0  0  2  0  0  0  0  0  0
  -27.9900  -12.4210   18.5880 C   0  0  0  0  0  2  0  0  0  0  0  0
  -27.5670  -13.3690   19.7390 C   0  0  0  0  0  3  0  0  0  0  0  0
  -28.6280  -13.4950   20.8510 C   0  0  0  0  0  2  0  0  0  0  0  0
  -29.8800  -13.9250   20.2150 N   0  0  0  0  0  0  0  0  0  0  0  0
  -31.7310  -15.1220   20.0210 O   0  0  0  0  0  0  0  0  0  0  0  0
  -25.2100  -13.9170   20.5480 C   0  0  0  0  0  0  0  0  0  0  0  0
  -24.1520  -13.1350   20.9210 C   0  0  0  0  0  0  0  0  0  0  0  0
  -24.6190  -11.7850   20.8630 C   0  0  0  0  0  0  0  0  0  0  0  0
  -26.2470  -13.0460   20.2700 N   0  0  0  0  0  0  0  0  0  0  0  0
  -25.9070  -11.7560   20.5320 N   0  0  0  0  0  0  0  0  0  0  0  0
  -23.8930  -10.5180   21.0440 C   0  0  0  0  0  0  0  0  0  0  0  0
  -24.3230   -9.5470   21.9760 C   0  0  0  0  0  3  0  0  0  0  0  0
  -23.5950   -8.3500   22.1480 C   0  0  0  0  0  3  0  0  0  0  0  0
  -22.4250   -8.1140   21.3870 C   0  0  0  0  0  0  0  0  0  0  0  0
  -22.0140   -9.0740   20.4460 C   0  0  0  0  0  3  0  0  0  0  0  0
  -22.7420  -10.2630   20.2710 C   0  0  0  0  0  3  0  0  0  0  0  0
  -21.6690   -6.9690   21.4690 O   0  0  0  0  0  0  0  0  0  0  0  0
  -21.5920   -6.2340   22.6250 C   0  0  0  0  0  0  0  0  0  0  0  0
  -21.1090   -6.7910   23.8290 C   0  0  0  0  0  3  0  0  0  0  0  0
  -20.9830   -5.9850   24.9780 C   0  0  0  0  0  3  0  0  0  0  0  0
  -21.3290   -4.6200   24.9230 C   0  0  0  0  0  0  0  0  0  0  0  0
  -21.8060   -4.0630   23.7240 C   0  0  0  0  0  3  0  0  0  0  0  0
  -21.9330   -4.8680   22.5770 C   0  0  0  0  0  0  0  0  0  0  0  0
  -22.3730   -4.3210   21.4180 F   0  0  0  0  0  0  0  0  0  0  0  0
  -21.2020   -3.8430   26.0230 F   0  0  0  0  0  0  0  0  0  0  0  0
  -22.7600  -13.6070   21.2170 C   0  0  0  0  0  0  0  0  0  0  0  0
  -22.0450  -12.9070   22.0900 N   0  0  0  0  0  0  0  0  0  0  0  0
  -22.3150  -14.6350   20.7080 O   0  0  0  0  0  0  0  0  0  0  0  0
  -22.4170  -12.0760   22.5250 H   0  0  0  0  0  0  0  0  0  0  0  0
  -21.1080  -13.2020   22.3230 H   0  0  0  0  0  0  0  0  0  0  0  0
  -25.3710  -15.2910   20.3950 N   0  0  0  0  0  0  0  0  0  0  0  0
  -24.6150  -15.9480   20.5520 H   0  0  0  0  0  0  0  0  0  0  0  0
  -26.2330  -15.7400   20.1140 H   0  0  0  0  0  0  0  0  0  0  0  0
  -28.8690  -23.0320   20.3380 C   0  0  0  0  0  3  0  0  0  0  0  0
  -27.9130  -24.4850   20.1320 C   0  0  0  0  0  3  0  0  0  0  0  0
  -28.1990  -26.0540   20.3210 O   0  0  0  0  0  0  0  0  0  0  0  0
  -24.6440  -31.9110   23.2900 C   0  0  0  0  0  0  0  0  0  0  0  0
  -27.1760  -27.1060   20.2570 C   0  0  0  0  0  0  0  0  0  0  0  0
  -23.4380  -30.5300   21.6480 C   0  0  0  0  0  3  0  0  0  0  0  0
  -24.8750  -28.9360   20.2180 C   0  0  0  0  0  0  0  0  0  0  0  0
  -26.0000  -30.7520   21.4890 C   0  0  0  0  0  2  0  0  0  0  0  0
  -26.0630  -29.3520   20.8330 C   0  0  0  0  0  0  0  0  0  0  0  0
  -27.2130  -28.4570   20.8280 C   0  0  0  0  0  3  0  0  0  0  0  0
  -25.9590  -26.8150   19.6010 C   0  0  0  0  0  3  0  0  0  0  0  0
  -24.8430  -27.6860   19.5810 C   0  0  0  0  0  3  0  0  0  0  0  0
  -23.6580  -29.8540   20.2670 C   0  0  0  0  0  2  0  0  0  0  0  0
  -24.7160  -31.0880   22.1970 N   0  0  0  0  0  0  0  0  0  0  0  0
  -23.5590  -32.2030   23.8160 O   0  0  0  0  0  0  0  0  0  0  0  0
  -22.7460  -29.5270   22.6090 C   0  0  0  0  0  0  0  0  0  0  0  0
  -21.4170  -29.3620   22.4770 N   0  0  0  0  0  0  0  0  0  0  0  0
  -23.4110  -28.9030   23.4380 O   0  0  0  0  0  0  0  0  0  0  0  0
  -20.9350  -29.9220   21.7870 H   0  0  0  0  0  0  0  0  0  0  0  0
  -18.0330  -28.1540   22.9630 C   0  0  0  0  0  0  0  0  0  0  0  0
  -20.5890  -28.4260   23.2450 C   0  0  0  0  0  3  0  0  0  0  0  0
  -20.6970  -26.9910   22.6790 C   0  0  0  0  0  2  0  0  0  0  0  0
  -19.6030  -26.6600   21.6580 C   0  0  0  0  0  2  0  0  0  0  0  0
  -18.2170  -26.8030   22.2920 C   0  0  0  0  0  2  0  0  0  0  0  0
  -19.1460  -28.9220   23.3970 C   0  0  0  0  0  0  0  0  0  0  0  0
  -18.9170  -30.1830   23.9900 C   0  0  0  0  0  3  0  0  0  0  0  0
  -17.6100  -30.6780   24.1480 C   0  0  0  0  0  3  0  0  0  0  0  0
  -16.5110  -29.9090   23.7270 C   0  0  0  0  0  3  0  0  0  0  0  0
  -16.7230  -28.6480   23.1430 C   0  0  0  0  0  3  0  0  0  0  0  0
  -25.9220  -32.5420   23.9220 C   0  0  0  0  0  3  0  0  0  0  0  0
  -26.4190  -31.7750   25.2100 C   0  0  1  0  0  0  0  0  0  0  0  0
  -25.3150  -31.5540   26.2700 C   0  0  0  0  0  1  0  0  0  0  0  0
  -26.9920  -30.3880   24.8380 C   0  0  0  0  0  1  0  0  0  0  0  0
  -27.5720  -32.5620   25.8770 C   0  0  0  0  0  1  0  0  0  0  0  0
  -25.6170  -33.9450   24.2490 N   0  0  0  0  0  0  0  0  0  0  0  0
  -25.9260  -34.9980   23.4800 C   0  0  0  0  0  0  0  0  0  0  0  0
  -26.5630  -34.8890   22.4280 O   0  0  0  0  0  0  0  0  0  0  0  0
  -25.0460  -34.1020   25.0680 H   0  0  0  0  0  0  0  0  0  0  0  0
  -24.1750  -36.7870   23.1980 C   0  0  0  0  0  1  0  0  0  0  0  0
  -25.4580  -36.3900   23.9480 C   0  0  0  0  0  3  0  0  0  0  0  0
  -27.6260  -37.2980   24.6630 C   0  0  0  0  0  1  0  0  0  0  0  0
  -26.4790  -37.4460   23.7720 N   0  0  0  0  0  0  0  0  0  0  0  0
  -26.0760  -38.3670   23.9230 H   0  0  0  0  0  0  0  0  0  0  0  0
  1  7  1  0
  1 44  1  0
  3  6  1  0
  4  2  1  0
  5  3  2  0
  5  7  1  0
  6  2  2  0
  7  4  2  0
  8  6  1  0
  9 14  1  0
 10 11  1  0
 10  9  1  0
 12 11  1  0
 12 19  1  0
 12 13  1  0
 14  8  1  0
 14 13  1  0
 15  8  2  0
 16 17  2  0
 17 36  1  0
 18 17  1  0
 18 21  1  0
 19 20  1  0
 19 16  1  0
 20 18  2  0
 21 22  1  0
 22 23  2  0
 24 27  1  0
 24 23  1  0
 25 24  2  0
 26 25  1  0
 26 21  2  0
 27 28  1  0
 28 29  1  0
 29 30  2  0
 31 30  1  0
 31 35  1  0
 32 31  2  0
 33 28  2  0
 33 32  1  0
 34 33  1  0
 36 37  1  0
 37 40  1  0
 37 39  1  0
 38 36  2  0
 41 16  1  0
 41 42  1  0
 43 41  1  0
 45 46  1  0
 45 44  2  0
 47 58  2  0
 48 46  1  0
 48 53  1  0
 49 57  1  0
 49 59  1  0
 50 56  1  0
 50 52  1  0
 51 57  1  0
 52 51  1  0
 53 52  2  0
 54 48  2  0
 55 54  1  0
 55 50  2  0
 56 49  1  0
 57 47  1  0
 59 61  2  0
 60 59  1  0
 62 60  1  0
 63 72  2  0
 63 68  1  0
 64 60  1  0
 64 68  1  0
 65 64  1  0
 66 67  1  0
 66 65  1  0
 67 63  1  0
 68 69  2  0
 69 70  1  0
 71 70  2  0
 72 71  1  0
 73 47  1  0
 73 78  1  0
 73 74  1  0
 74 77  1  1
 74 75  1  0
 76 74  1  0
 78 81  1  0
 79 83  1  0
 79 78  1  0
 80 79  2  0
 83 82  1  0
 85 86  1  0
 85 83  1  0
 85 84  1  0
M  ISO  4   6 100   8 100  45 101  46 101
M  END
>  <TORSDO>  (42) 
F 19

>  <SCORE>  (42) 
-15.722

>  <name>  (42) 
41

>  <ligand_id>  (42) 
41

>  <original_smiles>  (42) 
[H]c1c([H])c([H])c2c(c1[H])C([H])([H])C([H])([H])C([H])([H])C2([H])N([H])C(=O)C1([H])N(C(=O)C([H])(N([H])C(=O)C([H])(N([H])C([H])([H])[H])C([H])([H])[H])C(C([H])([H])[H])(C([H])([H])[H])C([H])([H])[H])C([H])([H])c2c([H])c(OC([H])([H])C([H])([H])C([H])([H])c3c([H])c([H])c(C(=O)N4C([H])([H])C([H])([H])C([H])([H])C([H])(n5nc(-c6c([H])c([H])c(Oc7c([H])c([H])c(F)c([H])c7F)c([H])c6[H])c(C(=O)N([H])[H])c5N([H])[H])C4([H])[H])c([H])c3[H])c([H])c([H])c2C1([H])[H]

>  <smiles>  (42) 
[H]c1c([H])c([H])c2c(c1[H])C([H])([H])C([H])([H])C([H])([H])C2([H])N([H])C(=O)C1([H])N(C(=O)C([H])(N([H])C(=O)C([H])(N([H])C([H])([H])[H])C([H])([H])[H])C(C([H])([H])[H])(C([H])([H])[H])C([H])([H])[H])C([H])([H])c2c([H])c(OC([H])([H])C([H])([H])C([H])([H])c3c([H])c([H])c(C(=O)N4C([H])([H])C([H])([H])C([H])([H])C([H])(n5nc(-c6c([H])c([H])c(Oc7c([H])c([H])c(F)c([H])c7F)c([H])c6[H])c(C(=O)N([H])[H])c5N([H])[H])C4([H])[H])c([H])c3[H])c([H])c([H])c2C1([H])[H]

$$$$
42:0:0
     RDKit          3D

 89 97  0  0  1  0  0  0  0  0999 V2000
  -30.3160  -21.9030   21.5020 C   0  0  0  0  0  1  0  0  0  0  0  0
  -29.0480  -21.3990   20.8020 C   0  0  0  0  0  3  0  0  0  0  0  0
  -30.4410  -15.4220   20.3110 C   0  0  0  0  0  0  0  0  0  0  0  0
  -30.4270  -12.9840   19.4560 C   0  0  0  0  0  2  0  0  0  0  0  0
  -29.5100  -12.7600   18.2320 C   0  0  0  0  0  2  0  0  0  0  0  0
  -28.0610  -12.4810   18.6780 C   0  0  0  0  0  2  0  0  0  0  0  0
  -27.6000  -13.4170   19.8240 C   0  0  0  0  0  3  0  0  0  0  0  0
  -28.6570  -13.6080   20.9270 C   0  0  0  0  0  2  0  0  0  0  0  0
  -29.8610  -14.1260   20.2470 N   0  0  0  0  0  0  0  0  0  0  0  0
  -31.6830  -15.3820   20.2780 O   0  0  0  0  0  0  0  0  0  0  0  0
  -28.8310  -19.5090   18.7420 C   0  0  0  0  0  2  0  0  0  0  0  0
  -29.5900  -18.1670   20.8090 C   0  0  0  0  0  2  0  0  0  0  0  0
  -29.4230  -19.7870   20.1110 C   0  0  0  0  0  3  0  0  0  0  0  0
  -29.7020  -18.4140   18.0500 C   0  0  0  0  0  3  0  0  0  0  0  0
  -29.4240  -16.9630   18.5870 C   0  0  0  0  0  3  0  0  0  0  0  0
  -29.6010  -18.5380   16.5140 C   0  0  0  0  0  1  0  0  0  0  0  0
  -27.9840  -16.5610   18.2220 C   0  0  0  0  0  1  0  0  0  0  0  0
  -29.7270  -16.7100   20.0430 N   0  0  0  0  0  0  0  0  0  0  0  0
  -25.2240  -13.9760   20.5630 C   0  0  0  0  0  0  0  0  0  0  0  0
  -24.1610  -13.1940   20.9130 C   0  0  0  0  0  0  0  0  0  0  0  0
  -24.6370  -11.8480   20.8850 C   0  0  0  0  0  0  0  0  0  0  0  0
  -26.2750  -13.1040   20.3310 N   0  0  0  0  0  0  0  0  0  0  0  0
  -25.9320  -11.8170   20.5900 N   0  0  0  0  0  0  0  0  0  0  0  0
  -23.9170  -10.5830   21.0680 C   0  0  0  0  0  0  0  0  0  0  0  0
  -24.3470   -9.6200   22.0080 C   0  0  0  0  0  3  0  0  0  0  0  0
  -23.6320   -8.4160   22.1770 C   0  0  0  0  0  3  0  0  0  0  0  0
  -22.4690   -8.1700   21.4080 C   0  0  0  0  0  0  0  0  0  0  0  0
  -22.0590   -9.1200   20.4560 C   0  0  0  0  0  3  0  0  0  0  0  0
  -22.7770  -10.3140   20.2840 C   0  0  0  0  0  3  0  0  0  0  0  0
  -21.7220   -7.0190   21.4910 O   0  0  0  0  0  0  0  0  0  0  0  0
  -21.6720   -6.2780   22.6440 C   0  0  0  0  0  0  0  0  0  0  0  0
  -21.2240   -6.8270   23.8650 C   0  0  0  0  0  3  0  0  0  0  0  0
  -21.1220   -6.0090   25.0090 C   0  0  0  0  0  3  0  0  0  0  0  0
  -21.4570   -4.6440   24.9320 C   0  0  0  0  0  0  0  0  0  0  0  0
  -21.8980   -4.0960   23.7150 C   0  0  0  0  0  3  0  0  0  0  0  0
  -22.0030   -4.9110   22.5740 C   0  0  0  0  0  0  0  0  0  0  0  0
  -22.4100   -4.3710   21.4000 F   0  0  0  0  0  0  0  0  0  0  0  0
  -21.3490   -3.8580   26.0280 F   0  0  0  0  0  0  0  0  0  0  0  0
  -22.7580  -13.6660   21.1640 C   0  0  0  0  0  0  0  0  0  0  0  0
  -22.0180  -12.9660   22.0160 N   0  0  0  0  0  0  0  0  0  0  0  0
  -22.3240  -14.6890   20.6340 O   0  0  0  0  0  0  0  0  0  0  0  0
  -22.3790  -12.1440   22.4740 H   0  0  0  0  0  0  0  0  0  0  0  0
  -21.0750  -13.2650   22.2220 H   0  0  0  0  0  0  0  0  0  0  0  0
  -25.3780  -15.3490   20.3970 N   0  0  0  0  0  0  0  0  0  0  0  0
  -24.6120  -16.0040   20.5160 H   0  0  0  0  0  0  0  0  0  0  0  0
  -26.2430  -15.7910   20.1210 H   0  0  0  0  0  0  0  0  0  0  0  0
  -28.1410  -22.8670   20.3320 C   0  0  0  0  0  2  0  0  0  0  0  0
  -28.4450  -24.5760   19.9220 C   0  0  0  0  0  2  0  0  0  0  0  0
  -28.2310  -26.0890   20.4930 O   0  0  0  0  0  0  0  0  0  0  0  0
  -24.6040  -32.0090   23.2630 C   0  0  0  0  0  0  0  0  0  0  0  0
  -27.1960  -27.1310   20.3200 C   0  0  0  0  0  0  0  0  0  0  0  0
  -23.4200  -30.5850   21.6350 C   0  0  0  0  0  3  0  0  0  0  0  0
  -24.8800  -28.9630   20.2410 C   0  0  0  0  0  0  0  0  0  0  0  0
  -25.9840  -30.8090   21.4990 C   0  0  0  0  0  2  0  0  0  0  0  0
  -26.0570  -29.3950   20.8630 C   0  0  0  0  0  0  0  0  0  0  0  0
  -27.2050  -28.4920   20.8830 C   0  0  0  0  0  3  0  0  0  0  0  0
  -25.9960  -26.8370   19.6390 C   0  0  0  0  0  3  0  0  0  0  0  0
  -24.8720  -27.7060   19.6100 C   0  0  0  0  0  3  0  0  0  0  0  0
  -23.6560  -29.8750   20.2710 C   0  0  0  0  0  2  0  0  0  0  0  0
  -24.6900  -31.1630   22.1860 N   0  0  0  0  0  0  0  0  0  0  0  0
  -23.5130  -32.3040   23.7760 O   0  0  0  0  0  0  0  0  0  0  0  0
  -22.7250  -29.6050   22.6150 C   0  0  0  0  0  0  0  0  0  0  0  0
  -21.3970  -29.4260   22.4770 N   0  0  0  0  0  0  0  0  0  0  0  0
  -23.3850  -29.0040   23.4650 O   0  0  0  0  0  0  0  0  0  0  0  0
  -20.9170  -29.9640   21.7690 H   0  0  0  0  0  0  0  0  0  0  0  0
  -18.0230  -28.1820   22.9490 C   0  0  0  0  0  0  0  0  0  0  0  0
  -20.5720  -28.4970   23.2570 C   0  0  0  0  0  3  0  0  0  0  0  0
  -20.7070  -27.0510   22.7270 C   0  0  0  0  0  2  0  0  0  0  0  0
  -19.6330  -26.6810   21.6970 C   0  0  0  0  0  2  0  0  0  0  0  0
  -18.2370  -26.8200   22.3100 C   0  0  0  0  0  2  0  0  0  0  0  0
  -19.1200  -28.9760   23.3780 C   0  0  0  0  0  0  0  0  0  0  0  0
  -18.8670  -30.2470   23.9370 C   0  0  0  0  0  3  0  0  0  0  0  0
  -17.5490  -30.7270   24.0690 C   0  0  0  0  0  3  0  0  0  0  0  0
  -16.4670  -29.9310   23.6530 C   0  0  0  0  0  3  0  0  0  0  0  0
  -16.7040  -28.6610   23.1010 C   0  0  0  0  0  3  0  0  0  0  0  0
  -25.8720  -32.6630   23.8930 C   0  0  0  0  0  3  0  0  0  0  0  0
  -25.5570  -34.0710   24.1930 N   0  0  0  0  0  0  0  0  0  0  0  0
  -25.8970  -35.1150   23.4260 C   0  0  0  0  0  0  0  0  0  0  0  0
  -26.5750  -34.9940   22.4020 O   0  0  0  0  0  0  0  0  0  0  0  0
  -24.9550  -34.2360   24.9870 H   0  0  0  0  0  0  0  0  0  0  0  0
  -24.1780  -36.9150   23.0390 C   0  0  0  0  0  1  0  0  0  0  0  0
  -25.4140  -36.5150   23.8600 C   0  0  0  0  0  3  0  0  0  0  0  0
  -27.5490  -37.4120   24.6840 C   0  0  0  0  0  1  0  0  0  0  0  0
  -26.4520  -37.5630   23.7320 N   0  0  0  0  0  0  0  0  0  0  0  0
  -26.0460  -38.4870   23.8590 H   0  0  0  0  0  0  0  0  0  0  0  0
  -26.3630  -31.9270   25.2020 C   0  0  1  0  0  0  0  0  0  0  0  0
  -25.2510  -31.7220   26.2590 C   0  0  0  0  0  1  0  0  0  0  0  0
  -26.9480  -30.5350   24.8690 C   0  0  0  0  0  1  0  0  0  0  0  0
  -27.5030  -32.7360   25.8630 C   0  0  0  0  0  1  0  0  0  0  0  0
  2  1  1  0
  4  9  1  0
  5  6  1  0
  5  4  1  0
  7  6  1  0
  7 22  1  0
  7  8  1  0
  9  3  1  0
  9  8  1  0
 10  3  2  0
 11 13  1  0
 13  2  1  0
 13 12  1  0
 14 16  1  0
 14 15  1  0
 14 11  1  0
 15 17  1  0
 15 18  1  0
 18  3  1  0
 18 12  1  0
 19 20  2  0
 20 39  1  0
 21 20  1  0
 21 24  1  0
 22 19  1  0
 22 23  1  0
 23 21  2  0
 24 25  1  0
 25 26  2  0
 27 30  1  0
 27 26  1  0
 28 27  2  0
 29 28  1  0
 29 24  2  0
 30 31  1  0
 31 32  1  0
 32 33  2  0
 34 33  1  0
 34 38  1  0
 35 34  2  0
 36 31  2  0
 36 35  1  0
 37 36  1  0
 39 40  1  0
 40 43  1  0
 40 42  1  0
 41 39  2  0
 44 45  1  0
 44 19  1  0
 46 44  1  0
 47  2  1  0
 48 47  1  0
 48 49  1  0
 50 61  2  0
 51 49  1  0
 51 56  1  0
 52 60  1  0
 52 62  1  0
 53 59  1  0
 53 55  1  0
 54 60  1  0
 55 56  2  0
 55 54  1  0
 57 51  2  0
 58 57  1  0
 58 53  2  0
 59 52  1  0
 60 50  1  0
 62 64  2  0
 63 62  1  0
 65 63  1  0
 66 75  2  0
 66 71  1  0
 67 63  1  0
 67 71  1  0
 68 67  1  0
 69 70  1  0
 69 68  1  0
 70 66  1  0
 71 72  2  0
 72 73  1  0
 74 73  2  0
 75 74  1  0
 76 50  1  0
 76 77  1  0
 76 86  1  0
 77 80  1  0
 78 82  1  0
 78 77  1  0
 79 78  2  0
 82 81  1  0
 84 85  1  0
 84 82  1  0
 84 83  1  0
 86 89  1  1
 86 87  1  0
 88 86  1  0
M  ISO  4   3 100  18 100  48 101  49 101
M  END
>  <TORSDO>  (43) 
F 18

>  <SCORE>  (43) 
-15.270

>  <name>  (43) 
42

>  <ligand_id>  (43) 
42

>  <original_smiles>  (43) 
[H]c1c([H])c([H])c2c(c1[H])C([H])([H])C([H])([H])C([H])([H])C2([H])N([H])C(=O)C1([H])N(C(=O)C([H])(N([H])C(=O)C([H])(N([H])C([H])([H])[H])C([H])([H])[H])C(C([H])([H])[H])(C([H])([H])[H])C([H])([H])[H])C([H])([H])c2c([H])c(OC([H])([H])C([H])([H])C([H])(C([H])([H])[H])C3([H])C([H])([H])N(C(=O)N4C([H])([H])C([H])([H])C([H])([H])C([H])(n5nc(-c6c([H])c([H])c(Oc7c([H])c([H])c(F)c([H])c7F)c([H])c6[H])c(C(=O)N([H])[H])c5N([H])[H])C4([H])[H])C([H])(C([H])([H])[H])C([H])(C([H])([H])[H])C3([H])[H])c([H])c([H])c2C1([H])[H]

>  <smiles>  (43) 
[H]c1c([H])c([H])c2c(c1[H])C([H])([H])C([H])([H])C([H])([H])C2([H])N([H])C(=O)C1([H])N(C(=O)C([H])(N([H])C(=O)C([H])(N([H])C([H])([H])[H])C([H])([H])[H])C(C([H])([H])[H])(C([H])([H])[H])C([H])([H])[H])C([H])([H])c2c([H])c(OC([H])([H])C([H])([H])C([H])(C([H])([H])[H])C3([H])C([H])([H])N(C(=O)N4C([H])([H])C([H])([H])C([H])([H])C([H])(n5nc(-c6c([H])c([H])c(Oc7c([H])c([H])c(F)c([H])c7F)c([H])c6[H])c(C(=O)N([H])[H])c5N([H])[H])C4([H])[H])C([H])(C([H])([H])[H])C([H])(C([H])([H])[H])C3([H])[H])c([H])c([H])c2C1([H])[H]

$$$$
43:0:0
     RDKit          3D

 94102  0  0  1  0  0  0  0  0999 V2000
  -28.8240  -21.6350   19.4600 C   0  0  0  0  0  3  0  0  0  0  0  0
  -29.8750  -22.5200   21.4390 C   0  0  0  0  0  3  0  0  0  0  0  0
  -28.4840  -22.9630   19.0720 C   0  0  0  0  0  3  0  0  0  0  0  0
  -29.5330  -23.8460   21.0520 C   0  0  0  0  0  3  0  0  0  0  0  0
  -29.5560  -21.3760   20.6490 C   0  0  0  0  0  0  0  0  0  0  0  0
  -28.8370  -24.0990   19.8500 C   0  0  0  0  0  0  0  0  0  0  0  0
  -29.9840  -19.9820   21.1400 C   0  0  0  0  0  0  0  0  0  0  0  0
  -30.4430  -19.8890   22.2840 O   0  0  0  0  0  0  0  0  0  0  0  0
  -29.8970  -18.6650   20.2470 C   0  0  0  0  0  3  0  0  0  0  0  0
  -30.8010  -18.8530   19.0960 N   0  0  0  0  0  4  0  0  0  0  0  0
  -31.7450  -18.9830   19.4160 H   0  0  0  0  0  0  0  0  0  0  0  0
  -30.5420  -19.6680   18.5690 H   0  0  0  0  0  0  0  0  0  0  0  0
  -30.7710  -18.0590   18.4850 H   0  0  0  0  0  0  0  0  0  0  0  0
  -31.6910  -17.1410   21.4680 C   0  0  0  0  0  1  0  0  0  0  0  0
  -30.2230  -17.2770   20.9900 C   0  0  0  0  0  3  0  0  0  0  0  0
  -29.6310  -15.9590   20.3080 C   0  0  0  0  0  2  0  0  0  0  0  0
  -30.4830  -14.6580   20.0170 C   0  0  0  0  0  0  0  0  0  0  0  0
  -30.2020  -12.4620   18.9110 C   0  0  0  0  0  2  0  0  0  0  0  0
  -29.1820  -12.6590   17.7660 C   0  0  0  0  0  2  0  0  0  0  0  0
  -27.7370  -12.4930   18.2790 C   0  0  0  0  0  2  0  0  0  0  0  0
  -27.4670  -13.3040   19.5750 C   0  0  0  0  0  3  0  0  0  0  0  0
  -28.5960  -13.0860   20.6080 C   0  0  0  0  0  2  0  0  0  0  0  0
  -29.8730  -13.4340   19.9690 N   0  0  0  0  0  0  0  0  0  0  0  0
  -31.6280  -14.8020   19.5790 O   0  0  0  0  0  0  0  0  0  0  0  0
  -25.1210  -13.8790   20.4550 C   0  0  0  0  0  0  0  0  0  0  0  0
  -24.0820  -13.0930   20.8760 C   0  0  0  0  0  0  0  0  0  0  0  0
  -24.5480  -11.7460   20.7870 C   0  0  0  0  0  0  0  0  0  0  0  0
  -26.1520  -13.0090   20.1380 N   0  0  0  0  0  0  0  0  0  0  0  0
  -25.8150  -11.7200   20.3960 N   0  0  0  0  0  0  0  0  0  0  0  0
  -23.8400  -10.4760   20.9960 C   0  0  0  0  0  0  0  0  0  0  0  0
  -24.3140   -9.5080   21.9100 C   0  0  0  0  0  3  0  0  0  0  0  0
  -23.6070   -8.3020   22.1060 C   0  0  0  0  0  3  0  0  0  0  0  0
  -22.4120   -8.0560   21.3890 C   0  0  0  0  0  0  0  0  0  0  0  0
  -21.9560   -9.0120   20.4640 C   0  0  0  0  0  3  0  0  0  0  0  0
  -22.6650  -10.2090   20.2670 C   0  0  0  0  0  3  0  0  0  0  0  0
  -21.6730   -6.9020   21.4950 O   0  0  0  0  0  0  0  0  0  0  0  0
  -21.6540   -6.1630   22.6510 C   0  0  0  0  0  0  0  0  0  0  0  0
  -21.2140   -6.7080   23.8770 C   0  0  0  0  0  3  0  0  0  0  0  0
  -21.1460   -5.8940   25.0250 C   0  0  0  0  0  3  0  0  0  0  0  0
  -21.5070   -4.5360   24.9480 C   0  0  0  0  0  0  0  0  0  0  0  0
  -21.9390   -3.9900   23.7280 C   0  0  0  0  0  3  0  0  0  0  0  0
  -22.0090   -4.8010   22.5810 C   0  0  0  0  0  0  0  0  0  0  0  0
  -22.4070   -4.2640   21.4020 F   0  0  0  0  0  0  0  0  0  0  0  0
  -21.4340   -3.7520   26.0490 F   0  0  0  0  0  0  0  0  0  0  0  0
  -22.7030  -13.5570   21.2490 C   0  0  0  0  0  0  0  0  0  0  0  0
  -22.0340  -12.8350   22.1400 N   0  0  0  0  0  0  0  0  0  0  0  0
  -22.2310  -14.5930   20.7840 O   0  0  0  0  0  0  0  0  0  0  0  0
  -22.4280  -11.9960   22.5360 H   0  0  0  0  0  0  0  0  0  0  0  0
  -21.1110  -13.1290   22.4310 H   0  0  0  0  0  0  0  0  0  0  0  0
  -25.2680  -15.2540   20.2970 N   0  0  0  0  0  0  0  0  0  0  0  0
  -24.5040  -15.9000   20.4710 H   0  0  0  0  0  0  0  0  0  0  0  0
  -26.0920  -15.7070   19.9220 H   0  0  0  0  0  0  0  0  0  0  0  0
  -28.5810  -25.5370   19.3020 C   0  0  0  0  0  2  0  0  0  0  0  0
  -28.3560  -26.6370   20.2380 O   0  0  0  0  0  0  0  0  0  0  0  0
  -24.6020  -31.9300   23.3020 C   0  0  0  0  0  0  0  0  0  0  0  0
  -27.1970  -27.4160   20.1930 C   0  0  0  0  0  0  0  0  0  0  0  0
  -23.3830  -30.5450   21.6600 C   0  0  0  0  0  3  0  0  0  0  0  0
  -24.8200  -28.9980   20.2190 C   0  0  0  0  0  0  0  0  0  0  0  0
  -25.9190  -30.8640   21.4620 C   0  0  0  0  0  2  0  0  0  0  0  0
  -25.9890  -29.4910   20.8110 C   0  0  0  0  0  0  0  0  0  0  0  0
  -27.1740  -28.7070   20.7980 C   0  0  0  0  0  3  0  0  0  0  0  0
  -25.9950  -26.9520   19.6090 C   0  0  0  0  0  3  0  0  0  0  0  0
  -24.8220  -27.7300   19.6170 C   0  0  0  0  0  3  0  0  0  0  0  0
  -23.5860  -29.8740   20.2750 C   0  0  0  0  0  2  0  0  0  0  0  0
  -24.6540  -31.1290   22.1990 N   0  0  0  0  0  0  0  0  0  0  0  0
  -23.5240  -32.2110   23.8430 O   0  0  0  0  0  0  0  0  0  0  0  0
  -22.7230  -29.5260   22.6170 C   0  0  0  0  0  0  0  0  0  0  0  0
  -21.3970  -29.3480   22.4860 N   0  0  0  0  0  0  0  0  0  0  0  0
  -23.4000  -28.8970   23.4340 O   0  0  0  0  0  0  0  0  0  0  0  0
  -20.9120  -29.9070   21.7980 H   0  0  0  0  0  0  0  0  0  0  0  0
  -18.0180  -28.1550   22.9660 C   0  0  0  0  0  0  0  0  0  0  0  0
  -20.5740  -28.4110   23.2520 C   0  0  0  0  0  3  0  0  0  0  0  0
  -20.6800  -26.9800   22.6790 C   0  0  0  0  0  2  0  0  0  0  0  0
  -19.5850  -26.6560   21.6580 C   0  0  0  0  0  2  0  0  0  0  0  0
  -18.1980  -26.8030   22.2920 C   0  0  0  0  0  2  0  0  0  0  0  0
  -19.1350  -28.9170   23.4010 C   0  0  0  0  0  0  0  0  0  0  0  0
  -18.9130  -30.1800   23.9900 C   0  0  0  0  0  3  0  0  0  0  0  0
  -17.6080  -30.6830   24.1470 C   0  0  0  0  0  3  0  0  0  0  0  0
  -16.5060  -29.9190   23.7280 C   0  0  0  0  0  3  0  0  0  0  0  0
  -16.7110  -28.6570   23.1430 C   0  0  0  0  0  3  0  0  0  0  0  0
  -25.8920  -32.5500   23.9220 C   0  0  0  0  0  3  0  0  0  0  0  0
  -25.6000  -33.9540   24.2400 N   0  0  0  0  0  0  0  0  0  0  0  0
  -25.9460  -34.9960   23.4720 C   0  0  0  0  0  0  0  0  0  0  0  0
  -26.6140  -34.8750   22.4420 O   0  0  0  0  0  0  0  0  0  0  0  0
  -25.0070  -34.1230   25.0390 H   0  0  0  0  0  0  0  0  0  0  0  0
  -24.2400  -36.8080   23.1000 C   0  0  0  0  0  1  0  0  0  0  0  0
  -25.4750  -36.3950   23.9170 C   0  0  0  0  0  3  0  0  0  0  0  0
  -27.6150  -37.2630   24.7510 C   0  0  0  0  0  1  0  0  0  0  0  0
  -26.5210  -37.4340   23.7980 N   0  0  0  0  0  0  0  0  0  0  0  0
  -26.1250  -38.3610   23.9340 H   0  0  0  0  0  0  0  0  0  0  0  0
  -26.3950  -31.7840   25.2070 C   0  0  1  0  0  0  0  0  0  0  0  0
  -25.2940  -31.5650   26.2710 C   0  0  0  0  0  1  0  0  0  0  0  0
  -26.9660  -30.3970   24.8270 C   0  0  0  0  0  1  0  0  0  0  0  0
  -27.5500  -32.5720   25.8690 C   0  0  0  0  0  1  0  0  0  0  0  0
  1  5  1  0
  3  1  2  0
  3  6  1  0
  4  2  1  0
  5  7  1  0
  5  2  2  0
  6  4  2  0
  7  8  2  0
  9 15  1  0
  9  7  1  0
 10 11  1  0
 10  9  1  0
 12 10  1  0
 13 10  1  0
 15 14  1  0
 16 15  1  0
 17 16  1  0
 18 23  1  0
 19 20  1  0
 19 18  1  0
 21 20  1  0
 21 28  1  0
 21 22  1  0
 23 17  1  0
 23 22  1  0
 24 17  2  0
 25 26  2  0
 26 45  1  0
 27 26  1  0
 27 30  1  0
 28 29  1  0
 28 25  1  0
 29 27  2  0
 30 31  1  0
 31 32  2  0
 33 36  1  0
 33 32  1  0
 34 33  2  0
 35 34  1  0
 35 30  2  0
 36 37  1  0
 37 38  1  0
 38 39  2  0
 40 39  1  0
 40 44  1  0
 41 40  2  0
 42 37  2  0
 42 41  1  0
 43 42  1  0
 45 46  1  0
 46 49  1  0
 46 48  1  0
 47 45  2  0
 50 25  1  0
 50 51  1  0
 52 50  1  0
 53  6  1  0
 53 54  1  0
 55 66  2  0
 56 54  1  0
 56 61  1  0
 57 65  1  0
 57 67  1  0
 58 64  1  0
 58 60  1  0
 59 65  1  0
 60 59  1  0
 61 60  2  0
 62 63  1  0
 62 56  2  0
 63 58  2  0
 64 57  1  0
 65 55  1  0
 67 69  2  0
 68 67  1  0
 70 68  1  0
 71 80  2  0
 71 76  1  0
 72 68  1  0
 72 76  1  0
 73 72  1  0
 74 75  1  0
 74 73  1  0
 75 71  1  0
 76 77  2  0
 77 78  1  0
 79 78  2  0
 80 79  1  0
 81 55  1  0
 81 82  1  0
 81 91  1  0
 82 85  1  0
 83 87  1  0
 83 82  1  0
 84 83  2  0
 87 86  1  0
 89 87  1  0
 89 90  1  0
 89 88  1  0
 91 94  1  1
 91 92  1  0
 93 91  1  0
M  ISO  4  16 100  17 100  53 101  54 101
M  END
>  <TORSDO>  (44) 
F 22

>  <SCORE>  (44) 
-13.021

>  <name>  (44) 
43

>  <ligand_id>  (44) 
43

>  <original_smiles>  (44) 
[H]c1c([H])c([H])c2c(c1[H])C([H])([H])C([H])([H])C([H])([H])C2([H])N([H])C(=O)C1([H])N(C(=O)C([H])(N([H])C(=O)C([H])(N([H])C([H])([H])[H])C([H])([H])[H])C(C([H])([H])[H])(C([H])([H])[H])C([H])([H])[H])C([H])([H])c2c([H])c(OC([H])([H])c3c([H])c([H])c(C(=O)C([H])(C([H])(C([H])([H])[H])C([H])([H])C(=O)N4C([H])([H])C([H])([H])C([H])([H])C([H])(n5nc(-c6c([H])c([H])c(Oc7c([H])c([H])c(F)c([H])c7F)c([H])c6[H])c(C(=O)N([H])[H])c5N([H])[H])C4([H])[H])[N+]([H])([H])[H])c([H])c3[H])c([H])c([H])c2C1([H])[H]

>  <smiles>  (44) 
[H]c1c([H])c([H])c2c(c1[H])C([H])([H])C([H])([H])C([H])([H])C2([H])N([H])C(=O)C1([H])N(C(=O)C([H])(N([H])C(=O)C([H])(N([H])C([H])([H])[H])C([H])([H])[H])C(C([H])([H])[H])(C([H])([H])[H])C([H])([H])[H])C([H])([H])c2c([H])c(OC([H])([H])c3c([H])c([H])c(C(=O)C([H])(C([H])(C([H])([H])[H])C([H])([H])C(=O)N4C([H])([H])C([H])([H])C([H])([H])C([H])(n5nc(-c6c([H])c([H])c(Oc7c([H])c([H])c(F)c([H])c7F)c([H])c6[H])c(C(=O)N([H])[H])c5N([H])[H])C4([H])[H])[N+]([H])([H])[H])c([H])c3[H])c([H])c([H])c2C1([H])[H]

$$$$
44:0:0
     RDKit          3D

 91 99  0  0  1  0  0  0  0  0999 V2000
  -28.7710  -19.6170   19.2570 C   0  0  0  0  0  2  0  0  0  0  0  0
  -28.9280  -21.2050   19.0910 C   0  0  0  0  0  2  0  0  0  0  0  0
  -29.8110  -19.9310   21.5870 C   0  0  0  0  0  2  0  0  0  0  0  0
  -29.3640  -18.8400   20.5110 C   0  0  0  0  0  3  0  0  0  0  0  0
  -28.9230  -22.0980   20.3800 C   0  0  0  0  0  3  0  0  0  0  0  0
  -29.9750  -21.3980   21.2010 N   0  0  0  0  0  4  0  0  0  0  0  0
  -30.8490  -21.4840   20.7070 H   0  0  0  0  0  0  0  0  0  0  0  0
  -30.0860  -21.9130   22.0600 H   0  0  0  0  0  0  0  0  0  0  0  0
  -30.7080  -15.0240   20.0740 C   0  0  0  0  0  0  0  0  0  0  0  0
  -30.4610  -12.7380   19.0520 C   0  0  0  0  0  2  0  0  0  0  0  0
  -29.4730  -12.7870   17.8650 C   0  0  0  0  0  2  0  0  0  0  0  0
  -28.0260  -12.5960   18.3570 C   0  0  0  0  0  2  0  0  0  0  0  0
  -27.6950  -13.4820   19.5870 C   0  0  0  0  0  3  0  0  0  0  0  0
  -28.8010  -13.4150   20.6610 C   0  0  0  0  0  2  0  0  0  0  0  0
  -30.0610  -13.7990   20.0150 N   0  0  0  0  0  0  0  0  0  0  0  0
  -31.8930  -15.0490   19.7270 O   0  0  0  0  0  0  0  0  0  0  0  0
  -30.3530  -17.5630   20.2470 C   0  0  0  0  0  0  0  0  0  0  0  0
  -29.9720  -16.2050   20.3190 N   0  0  0  0  0  0  0  0  0  0  0  0
  -31.5120  -17.8740   19.9660 O   0  0  0  0  0  0  0  0  0  0  0  0
  -29.0070  -16.0510   20.5550 H   0  0  0  0  0  0  0  0  0  0  0  0
  -25.3510  -14.0610   20.4420 C   0  0  0  0  0  0  0  0  0  0  0  0
  -24.2990  -13.2830   20.8420 C   0  0  0  0  0  0  0  0  0  0  0  0
  -24.7530  -11.9310   20.7600 C   0  0  0  0  0  0  0  0  0  0  0  0
  -26.3770  -13.1830   20.1370 N   0  0  0  0  0  0  0  0  0  0  0  0
  -26.0290  -11.8960   20.3940 N   0  0  0  0  0  0  0  0  0  0  0  0
  -24.0290  -10.6670   20.9540 C   0  0  0  0  0  0  0  0  0  0  0  0
  -24.4650   -9.7000   21.8870 C   0  0  0  0  0  3  0  0  0  0  0  0
  -23.7390   -8.5030   22.0690 C   0  0  0  0  0  3  0  0  0  0  0  0
  -22.5630   -8.2650   21.3200 C   0  0  0  0  0  0  0  0  0  0  0  0
  -22.1460   -9.2200   20.3760 C   0  0  0  0  0  3  0  0  0  0  0  0
  -22.8740  -10.4080   20.1910 C   0  0  0  0  0  3  0  0  0  0  0  0
  -21.8100   -7.1200   21.4110 O   0  0  0  0  0  0  0  0  0  0  0  0
  -21.7150   -6.4110   22.5820 C   0  0  0  0  0  0  0  0  0  0  0  0
  -21.1750   -6.9800   23.7550 C   0  0  0  0  0  3  0  0  0  0  0  0
  -21.0350   -6.1970   24.9180 C   0  0  0  0  0  3  0  0  0  0  0  0
  -21.4210   -4.8440   24.9060 C   0  0  0  0  0  0  0  0  0  0  0  0
  -21.9510   -4.2720   23.7360 C   0  0  0  0  0  3  0  0  0  0  0  0
  -22.0950   -5.0530   22.5770 C   0  0  0  0  0  0  0  0  0  0  0  0
  -22.5880   -4.4940   21.4450 F   0  0  0  0  0  0  0  0  0  0  0  0
  -21.2770   -4.0870   26.0200 F   0  0  0  0  0  0  0  0  0  0  0  0
  -22.9160  -13.7600   21.1820 C   0  0  0  0  0  0  0  0  0  0  0  0
  -22.2190  -13.0500   22.0630 N   0  0  0  0  0  0  0  0  0  0  0  0
  -22.4630  -14.7980   20.7000 O   0  0  0  0  0  0  0  0  0  0  0  0
  -22.5960  -12.2110   22.4770 H   0  0  0  0  0  0  0  0  0  0  0  0
  -21.2950  -13.3550   22.3310 H   0  0  0  0  0  0  0  0  0  0  0  0
  -25.5150  -15.4340   20.2850 N   0  0  0  0  0  0  0  0  0  0  0  0
  -24.7620  -16.0940   20.4540 H   0  0  0  0  0  0  0  0  0  0  0  0
  -26.3330  -15.8690   19.8820 H   0  0  0  0  0  0  0  0  0  0  0  0
  -29.1920  -23.7380   20.2190 C   0  0  0  0  0  3  0  0  0  0  0  0
  -28.0690  -24.9110   19.9510 C   0  0  0  0  0  3  0  0  0  0  0  0
  -28.3440  -26.4130   20.0890 O   0  0  0  0  0  0  0  0  0  0  0  0
  -24.6440  -31.8920   23.2090 C   0  0  0  0  0  0  0  0  0  0  0  0
  -27.2660  -27.3480   20.0390 C   0  0  0  0  0  0  0  0  0  0  0  0
  -23.4530  -30.5310   21.5320 C   0  0  0  0  0  3  0  0  0  0  0  0
  -24.9160  -29.0300   20.0540 C   0  0  0  0  0  0  0  0  0  0  0  0
  -26.0000  -30.8470   21.3690 C   0  0  0  0  0  2  0  0  0  0  0  0
  -26.0870  -29.4810   20.6760 C   0  0  0  0  0  0  0  0  0  0  0  0
  -27.2650  -28.6550   20.6550 C   0  0  0  0  0  3  0  0  0  0  0  0
  -26.0720  -26.9890   19.3770 C   0  0  0  0  0  3  0  0  0  0  0  0
  -24.9180  -27.7970   19.3870 C   0  0  0  0  0  3  0  0  0  0  0  0
  -23.6780  -29.9070   20.1300 C   0  0  0  0  0  2  0  0  0  0  0  0
  -24.7170  -31.1090   22.0920 N   0  0  0  0  0  0  0  0  0  0  0  0
  -23.5560  -32.1490   23.7490 O   0  0  0  0  0  0  0  0  0  0  0  0
  -22.7990  -29.4810   22.4620 C   0  0  0  0  0  0  0  0  0  0  0  0
  -21.4710  -29.3050   22.3450 N   0  0  0  0  0  0  0  0  0  0  0  0
  -23.4840  -28.8300   23.2550 O   0  0  0  0  0  0  0  0  0  0  0  0
  -20.9740  -29.8880   21.6870 H   0  0  0  0  0  0  0  0  0  0  0  0
  -18.0980  -28.0940   22.8580 C   0  0  0  0  0  0  0  0  0  0  0  0
  -20.6610  -28.3420   23.0950 C   0  0  0  0  0  3  0  0  0  0  0  0
  -20.7500  -26.9320   22.4670 C   0  0  0  0  0  2  0  0  0  0  0  0
  -19.6320  -26.6470   21.4590 C   0  0  0  0  0  2  0  0  0  0  0  0
  -18.2620  -26.7700   22.1300 C   0  0  0  0  0  2  0  0  0  0  0  0
  -19.2250  -28.8390   23.2980 C   0  0  0  0  0  0  0  0  0  0  0  0
  -19.0160  -30.0790   23.9420 C   0  0  0  0  0  3  0  0  0  0  0  0
  -17.7140  -30.5720   24.1470 C   0  0  0  0  0  3  0  0  0  0  0  0
  -16.6040  -29.8230   23.7210 C   0  0  0  0  0  3  0  0  0  0  0  0
  -16.7960  -28.5860   23.0820 C   0  0  0  0  0  3  0  0  0  0  0  0
  -25.9190  -32.5230   23.8470 C   0  0  0  0  0  3  0  0  0  0  0  0
  -25.6010  -33.9150   24.2030 N   0  0  0  0  0  0  0  0  0  0  0  0
  -25.8930  -34.9800   23.4460 C   0  0  0  0  0  0  0  0  0  0  0  0
  -26.5310  -34.8960   22.3920 O   0  0  0  0  0  0  0  0  0  0  0  0
  -25.0320  -34.0510   25.0250 H   0  0  0  0  0  0  0  0  0  0  0  0
  -24.1280  -36.7530   23.1690 C   0  0  0  0  0  1  0  0  0  0  0  0
  -25.4010  -36.3570   23.9330 C   0  0  0  0  0  3  0  0  0  0  0  0
  -27.5430  -37.2760   24.7110 C   0  0  0  0  0  1  0  0  0  0  0  0
  -26.4140  -37.4260   23.7960 N   0  0  0  0  0  0  0  0  0  0  0  0
  -25.9980  -38.3390   23.9560 H   0  0  0  0  0  0  0  0  0  0  0  0
  -26.4330  -31.7340   25.1150 C   0  0  1  0  0  0  0  0  0  0  0  0
  -25.3370  -31.4730   26.1740 C   0  0  0  0  0  1  0  0  0  0  0  0
  -27.0280  -30.3640   24.7100 C   0  0  0  0  0  1  0  0  0  0  0  0
  -27.5750  -32.5250   25.7970 C   0  0  0  0  0  1  0  0  0  0  0  0
  1  4  1  0
  2  1  1  0
  2  5  1  0
  4 17  1  0
  4  3  1  0
  5 49  1  0
  5  6  1  0
  6  3  1  0
  6  8  1  0
  7  6  1  0
  9 18  1  0
 10 15  1  0
 11 12  1  0
 11 10  1  0
 13 12  1  0
 13 24  1  0
 13 14  1  0
 15  9  1  0
 15 14  1  0
 16  9  2  0
 17 18  1  0
 18 20  1  0
 19 17  2  0
 21 22  2  0
 22 41  1  0
 23 22  1  0
 23 26  1  0
 24 25  1  0
 24 21  1  0
 25 23  2  0
 26 27  1  0
 27 28  2  0
 29 32  1  0
 29 28  1  0
 30 29  2  0
 31 30  1  0
 31 26  2  0
 32 33  1  0
 33 34  1  0
 34 35  2  0
 36 35  1  0
 36 40  1  0
 37 36  2  0
 38 33  2  0
 38 37  1  0
 39 38  1  0
 41 42  1  0
 42 45  1  0
 42 44  1  0
 43 41  2  0
 46 21  1  0
 46 47  1  0
 48 46  1  0
 50 51  1  0
 50 49  2  0
 52 63  2  0
 53 51  1  0
 53 58  1  0
 54 62  1  0
 54 64  1  0
 55 61  1  0
 55 57  1  0
 56 62  1  0
 57 56  1  0
 58 57  2  0
 59 60  1  0
 59 53  2  0
 60 55  2  0
 61 54  1  0
 62 52  1  0
 64 66  2  0
 65 64  1  0
 67 65  1  0
 68 77  2  0
 68 73  1  0
 69 65  1  0
 69 73  1  0
 70 69  1  0
 71 72  1  0
 71 70  1  0
 72 68  1  0
 73 74  2  0
 74 75  1  0
 76 75  2  0
 77 76  1  0
 78 52  1  0
 78 79  1  0
 78 88  1  0
 79 82  1  0
 80 84  1  0
 80 79  1  0
 81 80  2  0
 84 83  1  0
 86 84  1  0
 86 87  1  0
 86 85  1  0
 88 91  1  1
 88 89  1  0
 90 88  1  0
M  ISO  4   9 100  18 100  50 101  51 101
M  END
>  <TORSDO>  (45) 
F 18

>  <SCORE>  (45) 
-14.302

>  <name>  (45) 
44

>  <ligand_id>  (45) 
44

>  <original_smiles>  (45) 
[H]c1c([H])c([H])c2c(c1[H])C([H])([H])C([H])([H])C([H])([H])C2([H])N([H])C(=O)C1([H])N(C(=O)C([H])(N([H])C(=O)C([H])(N([H])C([H])([H])[H])C([H])([H])[H])C(C([H])([H])[H])(C([H])([H])[H])C([H])([H])[H])C([H])([H])c2c([H])c(OC([H])([H])C([H])([H])C3([H])C([H])([H])C([H])([H])C([H])(C(=O)N([H])C(=O)N4C([H])([H])C([H])([H])C([H])([H])C([H])(n5nc(-c6c([H])c([H])c(Oc7c([H])c([H])c(F)c([H])c7F)c([H])c6[H])c(C(=O)N([H])[H])c5N([H])[H])C4([H])[H])C([H])([H])[N+]3([H])[H])c([H])c([H])c2C1([H])[H]

>  <smiles>  (45) 
[H]c1c([H])c([H])c2c(c1[H])C([H])([H])C([H])([H])C([H])([H])C2([H])N([H])C(=O)C1([H])N(C(=O)C([H])(N([H])C(=O)C([H])(N([H])C([H])([H])[H])C([H])([H])[H])C(C([H])([H])[H])(C([H])([H])[H])C([H])([H])[H])C([H])([H])c2c([H])c(OC([H])([H])C([H])([H])C3([H])C([H])([H])C([H])([H])C([H])(C(=O)N([H])C(=O)N4C([H])([H])C([H])([H])C([H])([H])C([H])(n5nc(-c6c([H])c([H])c(Oc7c([H])c([H])c(F)c([H])c7F)c([H])c6[H])c(C(=O)N([H])[H])c5N([H])[H])C4([H])[H])C([H])([H])[N+]3([H])[H])c([H])c([H])c2C1([H])[H]

$$$$
45:0:0
     RDKit          3D

 90 98  0  0  1  0  0  0  0  0999 V2000
  -29.3060  -20.7910   19.4920 C   0  0  0  0  0  2  0  0  0  0  0  0
  -30.8010  -14.7690   19.1070 C   0  0  0  0  0  0  0  0  0  0  0  0
  -30.2030  -12.6050   17.9890 C   0  0  0  0  0  2  0  0  0  0  0  0
  -29.0340  -12.7430   16.9970 C   0  0  0  0  0  2  0  0  0  0  0  0
  -27.6970  -12.5280   17.7270 C   0  0  0  0  0  2  0  0  0  0  0  0
  -27.6070  -13.3350   19.0480 C   0  0  0  0  0  3  0  0  0  0  0  0
  -28.8880  -13.2150   19.9040 C   0  0  0  0  0  2  0  0  0  0  0  0
  -30.0070  -13.6320   19.0510 N   0  0  0  0  0  0  0  0  0  0  0  0
  -31.9140  -14.6670   18.5850 O   0  0  0  0  0  0  0  0  0  0  0  0
  -30.8220  -18.6670   18.9860 C   0  0  0  0  0  2  0  0  0  0  0  0
  -28.7030  -18.0960   19.9230 C   0  0  0  0  0  2  0  0  0  0  0  0
  -31.3460  -17.2160   19.3110 C   0  0  0  0  0  2  0  0  0  0  0  0
  -29.7560  -19.2720   19.9390 C   0  0  0  0  0  3  0  0  0  0  0  0
  -29.2050  -16.5970   20.2520 C   0  0  0  0  0  3  0  0  0  0  0  0
  -30.3630  -16.0820   19.4430 N   0  0  0  0  0  0  0  0  0  0  0  0
  -25.4860  -13.8660   20.3780 C   0  0  0  0  0  0  0  0  0  0  0  0
  -24.4950  -13.0710   20.8820 C   0  0  0  0  0  0  0  0  0  0  0  0
  -24.8750  -11.7270   20.5830 C   0  0  0  0  0  0  0  0  0  0  0  0
  -26.4060  -13.0060   19.8050 N   0  0  0  0  0  0  0  0  0  0  0  0
  -26.0640  -11.7050   19.9900 N   0  0  0  0  0  0  0  0  0  0  0  0
  -24.1470  -10.4660   20.7740 C   0  0  0  0  0  0  0  0  0  0  0  0
  -24.6880   -9.4080   21.5350 C   0  0  0  0  0  3  0  0  0  0  0  0
  -23.9590   -8.2130   21.7210 C   0  0  0  0  0  3  0  0  0  0  0  0
  -22.6740   -8.0700   21.1460 C   0  0  0  0  0  0  0  0  0  0  0  0
  -22.1500   -9.1170   20.3680 C   0  0  0  0  0  3  0  0  0  0  0  0
  -22.8790  -10.3040   20.1800 C   0  0  0  0  0  3  0  0  0  0  0  0
  -21.9040   -6.9370   21.2520 O   0  0  0  0  0  0  0  0  0  0  0  0
  -21.9510   -6.1370   22.3650 C   0  0  0  0  0  0  0  0  0  0  0  0
  -21.6690   -6.6370   23.6560 C   0  0  0  0  0  3  0  0  0  0  0  0
  -21.6610   -5.7660   24.7620 C   0  0  0  0  0  3  0  0  0  0  0  0
  -21.9230   -4.3950   24.5820 C   0  0  0  0  0  0  0  0  0  0  0  0
  -22.1990   -3.8940   23.2960 C   0  0  0  0  0  3  0  0  0  0  0  0
  -22.2100   -4.7630   22.1910 C   0  0  0  0  0  0  0  0  0  0  0  0
  -22.4550   -4.2710   20.9530 F   0  0  0  0  0  0  0  0  0  0  0  0
  -21.9080   -3.5550   25.6430 F   0  0  0  0  0  0  0  0  0  0  0  0
  -23.2170  -13.5390   21.5140 C   0  0  0  0  0  0  0  0  0  0  0  0
  -22.6760  -12.7640   22.4470 N   0  0  0  0  0  0  0  0  0  0  0  0
  -22.7160  -14.6220   21.2170 O   0  0  0  0  0  0  0  0  0  0  0  0
  -23.0980  -11.8850   22.7070 H   0  0  0  0  0  0  0  0  0  0  0  0
  -21.8280  -13.0550   22.9120 H   0  0  0  0  0  0  0  0  0  0  0  0
  -25.6650  -15.2450   20.3300 N   0  0  0  0  0  0  0  0  0  0  0  0
  -24.9750  -15.8890   20.7000 H   0  0  0  0  0  0  0  0  0  0  0  0
  -26.4440  -15.7130   19.8870 H   0  0  0  0  0  0  0  0  0  0  0  0
  -28.2940  -16.4900   22.6740 C   0  0  0  0  0  1  0  0  0  0  0  0
  -29.5220  -16.4190   21.7570 C   0  0  0  0  0  2  0  0  0  0  0  0
  -29.0630  -22.0550   20.4990 C   0  0  0  0  0  2  0  0  0  0  0  0
  -30.6460  -23.9680   19.7690 C   0  0  0  0  0  1  0  0  0  0  0  0
  -29.1670  -23.6110   19.9830 C   0  0  0  0  0  3  0  0  0  0  0  0
  -28.4730  -24.8160   20.8400 C   0  0  0  0  0  2  0  0  0  0  0  0
  -28.6850  -26.2870   20.5500 O   0  0  0  0  0  0  0  0  0  0  0  0
  -24.6960  -31.7090   23.3400 C   0  0  0  0  0  0  0  0  0  0  0  0
  -27.5700  -27.1530   20.4740 C   0  0  0  0  0  0  0  0  0  0  0  0
  -23.6170  -30.2660   21.6540 C   0  0  0  0  0  3  0  0  0  0  0  0
  -25.1790  -28.7410   20.3160 C   0  0  0  0  0  0  0  0  0  0  0  0
  -26.1570  -30.6420   21.5980 C   0  0  0  0  0  2  0  0  0  0  0  0
  -26.3070  -29.2560   20.9680 C   0  0  0  0  0  0  0  0  0  0  0  0
  -27.5080  -28.4770   21.0300 C   0  0  0  0  0  3  0  0  0  0  0  0
  -26.4220  -26.7050   19.7890 C   0  0  0  0  0  3  0  0  0  0  0  0
  -25.2430  -27.4740   19.7150 C   0  0  0  0  0  3  0  0  0  0  0  0
  -23.9210  -29.5870   20.2920 C   0  0  0  0  0  2  0  0  0  0  0  0
  -24.8400  -30.8920   22.2540 N   0  0  0  0  0  0  0  0  0  0  0  0
  -23.5790  -31.9600   23.8170 O   0  0  0  0  0  0  0  0  0  0  0  0
  -22.9320  -29.2390   22.5890 C   0  0  0  0  0  0  0  0  0  0  0  0
  -21.6180  -29.0320   22.4020 N   0  0  0  0  0  0  0  0  0  0  0  0
  -23.5850  -28.6340   23.4430 O   0  0  0  0  0  0  0  0  0  0  0  0
  -21.1490  -29.5720   21.6900 H   0  0  0  0  0  0  0  0  0  0  0  0
  -18.2500  -27.7500   22.7500 C   0  0  0  0  0  0  0  0  0  0  0  0
  -20.7860  -28.0780   23.1400 C   0  0  0  0  0  3  0  0  0  0  0  0
  -20.9520  -26.6460   22.5810 C   0  0  0  0  0  2  0  0  0  0  0  0
  -19.9090  -26.2890   21.5170 C   0  0  0  0  0  2  0  0  0  0  0  0
  -18.4940  -26.4020   22.0920 C   0  0  0  0  0  2  0  0  0  0  0  0
  -19.3260  -28.5430   23.2270 C   0  0  0  0  0  0  0  0  0  0  0  0
  -19.0470  -29.8030   23.8000 C   0  0  0  0  0  3  0  0  0  0  0  0
  -17.7230  -30.2700   23.9010 C   0  0  0  0  0  3  0  0  0  0  0  0
  -16.6600  -29.4740   23.4400 C   0  0  0  0  0  3  0  0  0  0  0  0
  -16.9250  -28.2150   22.8700 C   0  0  0  0  0  3  0  0  0  0  0  0
  -25.9260  -32.3840   24.0230 C   0  0  0  0  0  3  0  0  0  0  0  0
  -26.3810  -31.6510   25.3450 C   0  0  1  0  0  0  0  0  0  0  0  0
  -25.2300  -31.4060   26.3480 C   0  0  0  0  0  1  0  0  0  0  0  0
  -27.0220  -30.2830   25.0200 C   0  0  0  0  0  1  0  0  0  0  0  0
  -27.4690  -32.4890   26.0580 C   0  0  0  0  0  1  0  0  0  0  0  0
  -25.5660  -33.7820   24.3050 N   0  0  0  0  0  0  0  0  0  0  0  0
  -25.9080  -34.8260   23.5390 C   0  0  0  0  0  0  0  0  0  0  0  0
  -26.6260  -34.7170   22.5410 O   0  0  0  0  0  0  0  0  0  0  0  0
  -24.9340  -33.9400   25.0760 H   0  0  0  0  0  0  0  0  0  0  0  0
  -24.1520  -36.5670   23.0750 C   0  0  0  0  0  1  0  0  0  0  0  0
  -25.3700  -36.2130   23.9430 C   0  0  0  0  0  3  0  0  0  0  0  0
  -27.4470  -37.1710   24.8360 C   0  0  0  0  0  1  0  0  0  0  0  0
  -26.3790  -37.2890   23.8470 N   0  0  0  0  0  0  0  0  0  0  0  0
  -25.9450  -38.2020   23.9570 H   0  0  0  0  0  0  0  0  0  0  0  0
  1 46  1  0
  2 15  1  0
  3  8  1  0
  4  5  1  0
  4  3  1  0
  6  5  1  0
  6 19  1  0
  6  7  1  0
  8  2  1  0
  8  7  1  0
  9  2  2  0
 10 12  1  0
 10 13  1  0
 11 13  1  0
 11 14  1  0
 12 15  1  0
 13  1  1  0
 14 45  1  0
 15 14  1  0
 16 17  2  0
 17 36  1  0
 18 21  1  0
 18 17  1  0
 19 20  1  0
 19 16  1  0
 20 18  2  0
 21 22  1  0
 22 23  2  0
 24 27  1  0
 24 23  1  0
 25 24  2  0
 26 25  1  0
 26 21  2  0
 27 28  1  0
 28 29  1  0
 29 30  2  0
 31 30  1  0
 31 35  1  0
 32 31  2  0
 33 28  2  0
 33 32  1  0
 34 33  1  0
 36 37  1  0
 37 39  1  0
 37 40  1  0
 38 36  2  0
 41 16  1  0
 41 42  1  0
 43 41  1  0
 45 44  1  0
 48 47  1  0
 48 46  1  0
 48 49  1  0
 50 49  1  0
 51 62  2  0
 52 50  1  0
 52 57  1  0
 53 61  1  0
 53 63  1  0
 54 56  1  0
 55 61  1  0
 56 57  2  0
 56 55  1  0
 58 52  2  0
 59 58  1  0
 59 54  2  0
 60 54  1  0
 60 53  1  0
 61 51  1  0
 63 65  2  0
 64 63  1  0
 66 64  1  0
 67 76  2  0
 67 72  1  0
 68 64  1  0
 68 72  1  0
 69 68  1  0
 70 71  1  0
 70 69  1  0
 71 67  1  0
 72 73  2  0
 73 74  1  0
 75 74  2  0
 76 75  1  0
 77 51  1  0
 77 82  1  0
 77 78  1  0
 78 81  1  1
 78 79  1  0
 80 78  1  0
 82 85  1  0
 83 87  1  0
 83 82  1  0
 84 83  2  0
 87 86  1  0
 89 87  1  0
 89 90  1  0
 89 88  1  0
M  ISO  4   2 100  15 100  49 101  50 101
M  END
>  <TORSDO>  (46) 
F 20

>  <SCORE>  (46) 
-5.881

>  <name>  (46) 
45

>  <ligand_id>  (46) 
45

>  <original_smiles>  (46) 
[H]c1c([H])c([H])c2c(c1[H])C([H])([H])C([H])([H])C([H])([H])C2([H])N([H])C(=O)C1([H])N(C(=O)C([H])(N([H])C(=O)C([H])(N([H])C([H])([H])[H])C([H])([H])[H])C(C([H])([H])[H])(C([H])([H])[H])C([H])([H])[H])C([H])([H])c2c([H])c(OC([H])([H])C([H])(C([H])([H])[H])C([H])([H])C([H])([H])C3([H])C([H])([H])C([H])([H])N(C(=O)N4C([H])([H])C([H])([H])C([H])([H])C([H])(n5nc(-c6c([H])c([H])c(Oc7c([H])c([H])c(F)c([H])c7F)c([H])c6[H])c(C(=O)N([H])[H])c5N([H])[H])C4([H])[H])C([H])(C([H])([H])C([H])([H])[H])C3([H])[H])c([H])c([H])c2C1([H])[H]

>  <smiles>  (46) 
[H]c1c([H])c([H])c2c(c1[H])C([H])([H])C([H])([H])C([H])([H])C2([H])N([H])C(=O)C1([H])N(C(=O)C([H])(N([H])C(=O)C([H])(N([H])C([H])([H])[H])C([H])([H])[H])C(C([H])([H])[H])(C([H])([H])[H])C([H])([H])[H])C([H])([H])c2c([H])c(OC([H])([H])C([H])(C([H])([H])[H])C([H])([H])C([H])([H])C3([H])C([H])([H])C([H])([H])N(C(=O)N4C([H])([H])C([H])([H])C([H])([H])C([H])(n5nc(-c6c([H])c([H])c(Oc7c([H])c([H])c(F)c([H])c7F)c([H])c6[H])c(C(=O)N([H])[H])c5N([H])[H])C4([H])[H])C([H])(C([H])([H])C([H])([H])[H])C3([H])[H])c([H])c([H])c2C1([H])[H]

$$$$
46:0:0
     RDKit          3D

 97105  0  0  1  0  0  0  0  0999 V2000
  -29.5870  -18.5760   20.1690 C   0  0  0  0  0  0  0  0  0  0  0  0
  -30.3370  -15.4980   20.1770 C   0  0  0  0  0  0  0  0  0  0  0  0
  -30.3250  -13.0390   19.1760 C   0  0  0  0  0  2  0  0  0  0  0  0
  -29.3570  -12.8350   17.9750 C   0  0  0  0  0  2  0  0  0  0  0  0
  -27.9500  -12.4730   18.4750 C   0  0  0  0  0  2  0  0  0  0  0  0
  -27.5340  -13.3640   19.6690 C   0  0  0  0  0  3  0  0  0  0  0  0
  -28.6360  -13.5120   20.7460 C   0  0  0  0  0  2  0  0  0  0  0  0
  -29.8000  -14.1460   20.0900 N   0  0  0  0  0  0  0  0  0  0  0  0
  -31.5270  -15.4700   19.8210 O   0  0  0  0  0  0  0  0  0  0  0  0
  -29.6050  -16.8270   20.4700 N   0  0  0  0  0  4  0  0  0  0  0  0
  -28.7150  -16.5610   20.8650 H   0  0  0  0  0  0  0  0  0  0  0  0
  -25.1910  -13.8340   20.5440 C   0  0  0  0  0  0  0  0  0  0  0  0
  -24.1560  -13.0230   20.9230 C   0  0  0  0  0  0  0  0  0  0  0  0
  -24.6500  -11.6840   20.8270 C   0  0  0  0  0  0  0  0  0  0  0  0
  -26.2380  -12.9920   20.2260 N   0  0  0  0  0  0  0  0  0  0  0  0
  -25.9310  -11.6890   20.4660 N   0  0  0  0  0  0  0  0  0  0  0  0
  -23.9530  -10.4020   20.9930 C   0  0  0  0  0  0  0  0  0  0  0  0
  -24.3900   -9.4440   21.9350 C   0  0  0  0  0  3  0  0  0  0  0  0
  -23.6910   -8.2270   22.0960 C   0  0  0  0  0  3  0  0  0  0  0  0
  -22.5380   -7.9610   21.3180 C   0  0  0  0  0  0  0  0  0  0  0  0
  -22.1200   -8.9110   20.3680 C   0  0  0  0  0  3  0  0  0  0  0  0
  -22.8210  -10.1180   20.2020 C   0  0  0  0  0  3  0  0  0  0  0  0
  -21.8110   -6.7980   21.3880 O   0  0  0  0  0  0  0  0  0  0  0  0
  -21.6890   -6.0940   22.5630 C   0  0  0  0  0  0  0  0  0  0  0  0
  -21.1340   -6.6750   23.7220 C   0  0  0  0  0  3  0  0  0  0  0  0
  -20.9580   -5.8950   24.8860 C   0  0  0  0  0  3  0  0  0  0  0  0
  -21.3310   -4.5390   24.8870 C   0  0  0  0  0  0  0  0  0  0  0  0
  -21.8820   -3.9580   23.7320 C   0  0  0  0  0  3  0  0  0  0  0  0
  -22.0560   -4.7340   22.5710 C   0  0  0  0  0  0  0  0  0  0  0  0
  -22.5620   -4.1640   21.4520 F   0  0  0  0  0  0  0  0  0  0  0  0
  -21.1610   -3.7880   26.0020 F   0  0  0  0  0  0  0  0  0  0  0  0
  -22.7610  -13.4620   21.2570 C   0  0  0  0  0  0  0  0  0  0  0  0
  -22.0820  -12.7390   22.1410 N   0  0  0  0  0  0  0  0  0  0  0  0
  -22.2830  -14.4870   20.7730 O   0  0  0  0  0  0  0  0  0  0  0  0
  -22.4780  -11.9090   22.5570 H   0  0  0  0  0  0  0  0  0  0  0  0
  -21.1490  -13.0210   22.4070 H   0  0  0  0  0  0  0  0  0  0  0  0
  -25.3310  -15.2130   20.4110 N   0  0  0  0  0  0  0  0  0  0  0  0
  -24.5950  -15.8680   20.6520 H   0  0  0  0  0  0  0  0  0  0  0  0
  -26.1830  -15.6670   20.1060 H   0  0  0  0  0  0  0  0  0  0  0  0
  -30.5810  -18.8680   19.0110 C   0  0  0  0  0  3  0  0  0  0  0  0
  -30.3300  -20.0200   17.9740 C   0  0  0  0  0  3  0  0  0  0  0  0
  -29.1450  -21.9170   17.0680 C   0  0  0  0  0  2  0  0  0  0  0  0
  -27.8850  -20.4160   18.2670 C   0  0  0  0  0  2  0  0  0  0  0  0
  -27.7430  -22.5470   17.1370 C   0  0  0  0  0  3  0  0  0  0  0  0
  -27.0020  -21.6590   18.1500 C   0  0  0  0  0  3  0  0  0  0  0  0
  -29.2330  -20.9760   18.1950 N   0  0  0  0  0  0  0  0  0  0  0  0
  -25.6350  -21.3270   17.7280 N   0  0  0  0  0  4  0  0  0  0  0  0
  -25.6370  -20.7640   16.8960 H   0  0  0  0  0  0  0  0  0  0  0  0
  -25.1090  -22.1640   17.5570 H   0  0  0  0  0  0  0  0  0  0  0  0
  -25.1690  -20.8090   18.4500 H   0  0  0  0  0  0  0  0  0  0  0  0
  -28.1990  -25.0100   16.4370 C   0  0  0  0  0  1  0  0  0  0  0  0
  -27.7460  -24.0380   17.5400 C   0  0  0  0  0  2  0  0  0  0  0  0
  -29.0280  -20.1920   21.0470 C   0  0  0  0  0  2  0  0  0  0  0  0
  -30.6150  -22.4240   20.5150 C   0  0  0  0  0  1  0  0  0  0  0  0
  -29.2010  -22.1160   21.0130 C   0  0  0  0  0  3  0  0  0  0  0  0
  -28.1850  -23.7440   20.8340 C   0  0  0  0  0  2  0  0  0  0  0  0
  -28.3520  -25.4820   20.9510 O   0  0  0  0  0  0  0  0  0  0  0  0
  -24.7410  -31.8970   23.3480 C   0  0  0  0  0  0  0  0  0  0  0  0
  -27.3810  -26.6730   20.7770 C   0  0  0  0  0  0  0  0  0  0  0  0
  -23.6250  -30.4200   21.7250 C   0  0  0  0  0  3  0  0  0  0  0  0
  -25.1300  -28.6880   20.4850 C   0  0  0  0  0  0  0  0  0  0  0  0
  -26.2040  -30.5480   21.7270 C   0  0  0  0  0  2  0  0  0  0  0  0
  -26.2900  -29.0810   21.1610 C   0  0  0  0  0  0  0  0  0  0  0  0
  -27.4020  -28.0980   21.2790 C   0  0  0  0  0  3  0  0  0  0  0  0
  -26.1910  -26.4750   20.0360 C   0  0  0  0  0  3  0  0  0  0  0  0
  -25.1160  -27.4060   19.9030 C   0  0  0  0  0  3  0  0  0  0  0  0
  -23.9310  -29.6450   20.4090 C   0  0  0  0  0  2  0  0  0  0  0  0
  -24.8770  -30.9910   22.3190 N   0  0  0  0  0  0  0  0  0  0  0  0
  -23.6270  -32.2290   23.7860 O   0  0  0  0  0  0  0  0  0  0  0  0
  -22.8490  -29.5030   22.7110 C   0  0  0  0  0  0  0  0  0  0  0  0
  -21.5230  -29.3510   22.5260 N   0  0  0  0  0  0  0  0  0  0  0  0
  -23.4580  -28.9210   23.6120 O   0  0  0  0  0  0  0  0  0  0  0  0
  -21.0840  -29.8780   21.7840 H   0  0  0  0  0  0  0  0  0  0  0  0
  -18.0950  -28.2210   22.9590 C   0  0  0  0  0  0  0  0  0  0  0  0
  -20.6510  -28.4610   23.3030 C   0  0  0  0  0  3  0  0  0  0  0  0
  -20.7470  -27.0020   22.7950 C   0  0  0  0  0  2  0  0  0  0  0  0
  -19.6780  -26.6550   21.7520 C   0  0  0  0  0  2  0  0  0  0  0  0
  -18.2760  -26.8440   22.3380 C   0  0  0  0  0  2  0  0  0  0  0  0
  -19.2110  -28.9840   23.4000 C   0  0  0  0  0  0  0  0  0  0  0  0
  -18.9900  -30.2640   23.9470 C   0  0  0  0  0  3  0  0  0  0  0  0
  -17.6880  -30.7900   24.0470 C   0  0  0  0  0  3  0  0  0  0  0  0
  -16.5870  -30.0260   23.6220 C   0  0  0  0  0  3  0  0  0  0  0  0
  -16.7920  -28.7420   23.0870 C   0  0  0  0  0  3  0  0  0  0  0  0
  -25.9760  -32.5700   24.0190 C   0  0  0  0  0  3  0  0  0  0  0  0
  -26.4280  -31.8450   25.3490 C   0  0  1  0  0  0  0  0  0  0  0  0
  -25.2770  -31.6140   26.3570 C   0  0  0  0  0  1  0  0  0  0  0  0
  -27.0570  -30.4690   25.0400 C   0  0  0  0  0  1  0  0  0  0  0  0
  -27.5270  -32.6740   26.0500 C   0  0  0  0  0  1  0  0  0  0  0  0
  -25.6360  -33.9780   24.3090 N   0  0  0  0  0  0  0  0  0  0  0  0
  -25.9560  -35.0230   23.5340 C   0  0  0  0  0  0  0  0  0  0  0  0
  -26.6290  -34.9050   22.5070 O   0  0  0  0  0  0  0  0  0  0  0  0
  -25.0350  -34.1400   25.1040 H   0  0  0  0  0  0  0  0  0  0  0  0
  -24.1930  -36.7860   23.1740 C   0  0  0  0  0  1  0  0  0  0  0  0
  -25.4610  -36.4210   23.9640 C   0  0  0  0  0  3  0  0  0  0  0  0
  -27.5970  -37.3760   24.7120 C   0  0  0  0  0  1  0  0  0  0  0  0
  -26.4730  -37.4880   23.7870 N   0  0  0  0  0  0  0  0  0  0  0  0
  -26.0550  -38.4070   23.9050 H   0  0  0  0  0  0  0  0  0  0  0  0
  1 10  2  0
  1 53  1  0
  2 10  1  0
  3  8  1  0
  4  5  1  0
  4  3  1  0
  6  5  1  0
  6 15  1  0
  6  7  1  0
  8  2  1  0
  8  7  1  0
  9  2  2  0
 10 11  1  0
 12 13  2  0
 13 32  1  0
 14 13  1  0
 14 17  1  0
 15 16  1  0
 15 12  1  0
 16 14  2  0
 17 18  1  0
 18 19  2  0
 20 23  1  0
 20 19  1  0
 21 20  2  0
 22 21  1  0
 22 17  2  0
 23 24  1  0
 24 29  2  0
 24 25  1  0
 25 26  2  0
 26 27  1  0
 27 31  1  0
 28 27  2  0
 29 28  1  0
 30 29  1  0
 32 33  1  0
 33 36  1  0
 33 35  1  0
 34 32  2  0
 37 12  1  0
 37 38  1  0
 39 37  1  0
 40  1  1  0
 41 46  1  0
 41 40  2  0
 42 44  1  0
 42 46  1  0
 44 52  1  0
 44 45  1  0
 45 47  1  0
 45 43  1  0
 46 43  1  0
 47 50  1  0
 48 47  1  0
 49 47  1  0
 51 52  1  0
 55 54  1  0
 55 53  1  0
 56 57  1  0
 56 55  1  0
 58 69  2  0
 59 57  1  0
 59 64  1  0
 60 68  1  0
 60 70  1  0
 61 63  1  0
 62 68  1  0
 63 64  2  0
 63 62  1  0
 65 59  2  0
 66 65  1  0
 66 61  2  0
 67 61  1  0
 67 60  1  0
 68 58  1  0
 70 72  2  0
 71 70  1  0
 73 71  1  0
 74 83  2  0
 74 79  1  0
 75 71  1  0
 75 79  1  0
 76 75  1  0
 77 78  1  0
 77 76  1  0
 78 74  1  0
 79 80  2  0
 80 81  1  0
 82 81  2  0
 83 82  1  0
 84 58  1  0
 84 89  1  0
 84 85  1  0
 85 88  1  1
 85 86  1  0
 87 85  1  0
 89 92  1  0
 90 94  1  0
 90 89  1  0
 91 90  2  0
 94 93  1  0
 96 97  1  0
 96 94  1  0
 96 95  1  0
M  ISO  4   2 100  10 100  56 101  57 101
M  END
>  <TORSDO>  (47) 
F 24

>  <SCORE>  (47) 
-14.190

>  <name>  (47) 
46

>  <ligand_id>  (47) 
46

>  <original_smiles>  (47) 
[H]c1c([H])c([H])c2c(c1[H])C([H])([H])C([H])([H])C([H])([H])C2([H])N([H])C(=O)C1([H])N(C(=O)C([H])(N([H])C(=O)C([H])(N([H])C([H])([H])[H])C([H])([H])[H])C(C([H])([H])[H])(C([H])([H])[H])C([H])([H])[H])C([H])([H])c2c([H])c(OC([H])([H])C([H])(C([H])([H])[H])C([H])([H])C([H])(N([H])C(=O)N3C([H])([H])C([H])([H])C([H])([H])C([H])(n4nc(-c5c([H])c([H])c(Oc6c([H])c([H])c(F)c([H])c6F)c([H])c5[H])c(C(=O)N([H])[H])c4N([H])[H])C3([H])[H])C([H])([H])C([H])([H])N3C([H])([H])C([H])(C([H])([H])C([H])([H])[H])C([H])([N+]([H])([H])[H])C3([H])[H])c([H])c([H])c2C1([H])[H]

>  <smiles>  (47) 
[H]c1c([H])c([H])c2c(c1[H])C([H])([H])C([H])([H])C([H])([H])C2([H])N([H])C(=O)C1([H])N(C(=O)C([H])(N([H])C(=O)C([H])(N([H])C([H])([H])[H])C([H])([H])[H])C(C([H])([H])[H])(C([H])([H])[H])C([H])([H])[H])C([H])([H])c2c([H])c(OC([H])([H])C([H])(C([H])([H])[H])C([H])([H])C([H])(N([H])C(=O)N3C([H])([H])C([H])([H])C([H])([H])C([H])(n4nc(-c5c([H])c([H])c(Oc6c([H])c([H])c(F)c([H])c6F)c([H])c5[H])c(C(=O)N([H])[H])c4N([H])[H])C3([H])[H])C([H])([H])C([H])([H])N3C([H])([H])C([H])(C([H])([H])C([H])([H])[H])C([H])([N+]([H])([H])[H])C3([H])[H])c([H])c([H])c2C1([H])[H]

$$$$
47:0:0
     RDKit          3D

 91 99  0  0  1  0  0  0  0  0999 V2000
  -30.5320  -15.3430   20.2940 C   0  0  0  0  0  0  0  0  0  0  0  0
  -30.5080  -12.8540   19.5680 C   0  0  0  0  0  2  0  0  0  0  0  0
  -29.6390  -12.5620   18.3200 C   0  0  0  0  0  2  0  0  0  0  0  0
  -28.1740  -12.3230   18.7270 C   0  0  0  0  0  2  0  0  0  0  0  0
  -27.6850  -13.3570   19.7750 C   0  0  0  0  0  3  0  0  0  0  0  0
  -28.6920  -13.5930   20.9170 C   0  0  0  0  0  2  0  0  0  0  0  0
  -29.9270  -14.0570   20.2680 N   0  0  0  0  0  0  0  0  0  0  0  0
  -31.7680  -15.2590   20.1990 O   0  0  0  0  0  0  0  0  0  0  0  0
  -30.4420  -17.3810   18.7450 C   0  0  0  0  0  2  0  0  0  0  0  0
  -29.2510  -17.9610   20.5880 C   0  0  0  0  0  2  0  0  0  0  0  0
  -29.8950  -18.8720   18.5190 C   0  0  0  0  0  3  0  0  0  0  0  0
  -29.5080  -19.5210   19.8800 C   0  0  0  0  0  3  0  0  0  0  0  0
  -29.8820  -16.6390   19.9160 N   0  0  0  0  0  0  0  0  0  0  0  0
  -25.3160  -13.9630   20.4860 C   0  0  0  0  0  0  0  0  0  0  0  0
  -24.2320  -13.2070   20.8310 C   0  0  0  0  0  0  0  0  0  0  0  0
  -24.6780  -11.8490   20.8230 C   0  0  0  0  0  0  0  0  0  0  0  0
  -26.3460  -13.0690   20.2670 N   0  0  0  0  0  0  0  0  0  0  0  0
  -25.9770  -11.7920   20.5440 N   0  0  0  0  0  0  0  0  0  0  0  0
  -23.9280  -10.6000   21.0040 C   0  0  0  0  0  0  0  0  0  0  0  0
  -24.3270   -9.6240   21.9430 C   0  0  0  0  0  3  0  0  0  0  0  0
  -23.5730   -8.4420   22.1120 C   0  0  0  0  0  3  0  0  0  0  0  0
  -22.4060   -8.2270   21.3420 C   0  0  0  0  0  0  0  0  0  0  0  0
  -22.0250   -9.1940   20.3950 C   0  0  0  0  0  3  0  0  0  0  0  0
  -22.7800  -10.3660   20.2230 C   0  0  0  0  0  3  0  0  0  0  0  0
  -21.6260   -7.0990   21.4230 O   0  0  0  0  0  0  0  0  0  0  0  0
  -21.5580   -6.3480   22.5700 C   0  0  0  0  0  0  0  0  0  0  0  0
  -21.1370   -6.9040   23.7990 C   0  0  0  0  0  3  0  0  0  0  0  0
  -21.0130   -6.0820   24.9370 C   0  0  0  0  0  3  0  0  0  0  0  0
  -21.3000   -4.7070   24.8490 C   0  0  0  0  0  0  0  0  0  0  0  0
  -21.7150   -4.1510   23.6260 C   0  0  0  0  0  3  0  0  0  0  0  0
  -21.8400   -4.9700   22.4890 C   0  0  0  0  0  0  0  0  0  0  0  0
  -22.2170   -4.4250   21.3070 F   0  0  0  0  0  0  0  0  0  0  0  0
  -21.1760   -3.9170   25.9410 F   0  0  0  0  0  0  0  0  0  0  0  0
  -22.8380  -13.7090   21.0610 C   0  0  0  0  0  0  0  0  0  0  0  0
  -22.0790  -13.0420   21.9210 N   0  0  0  0  0  0  0  0  0  0  0  0
  -22.4300  -14.7300   20.5090 O   0  0  0  0  0  0  0  0  0  0  0  0
  -22.4260  -12.2190   22.3930 H   0  0  0  0  0  0  0  0  0  0  0  0
  -21.1380  -13.3570   22.1150 H   0  0  0  0  0  0  0  0  0  0  0  0
  -25.5090  -15.3310   20.3130 N   0  0  0  0  0  0  0  0  0  0  0  0
  -24.7600  -15.9990   20.4490 H   0  0  0  0  0  0  0  0  0  0  0  0
  -26.4010  -15.7580   20.1120 H   0  0  0  0  0  0  0  0  0  0  0  0
  -27.6310  -20.9890   21.0940 C   0  0  0  0  0  1  0  0  0  0  0  0
  -28.5740  -21.0740   19.8880 C   0  0  0  0  0  3  0  0  0  0  0  0
  -29.0080  -22.8150   19.7660 C   0  0  0  0  0  3  0  0  0  0  0  0
  -28.0450  -24.3200   19.5650 C   0  0  0  0  0  3  0  0  0  0  0  0
  -28.3160  -25.9270   19.7690 O   0  0  0  0  0  0  0  0  0  0  0  0
  -24.7030  -31.6730   23.0690 C   0  0  0  0  0  0  0  0  0  0  0  0
  -27.3000  -27.0110   19.7740 C   0  0  0  0  0  0  0  0  0  0  0  0
  -23.5260  -30.3630   21.3470 C   0  0  0  0  0  3  0  0  0  0  0  0
  -24.9880  -28.8560   19.8400 C   0  0  0  0  0  0  0  0  0  0  0  0
  -26.0900  -30.6060   21.2220 C   0  0  0  0  0  2  0  0  0  0  0  0
  -26.1700  -29.2390   20.4860 C   0  0  0  0  0  0  0  0  0  0  0  0
  -27.3220  -28.3350   20.4320 C   0  0  0  0  0  3  0  0  0  0  0  0
  -26.0880  -26.7790   19.0900 C   0  0  0  0  0  3  0  0  0  0  0  0
  -24.9690  -27.6480   19.1270 C   0  0  0  0  0  3  0  0  0  0  0  0
  -23.7630  -29.7620   19.9350 C   0  0  0  0  0  2  0  0  0  0  0  0
  -24.7940  -30.9060   21.9340 N   0  0  0  0  0  0  0  0  0  0  0  0
  -23.6090  -31.9210   23.6020 O   0  0  0  0  0  0  0  0  0  0  0  0
  -22.8370  -29.3100   22.2520 C   0  0  0  0  0  0  0  0  0  0  0  0
  -21.5020  -29.1700   22.1410 N   0  0  0  0  0  0  0  0  0  0  0  0
  -23.5090  -28.6180   23.0210 O   0  0  0  0  0  0  0  0  0  0  0  0
  -21.0140  -29.7800   21.5010 H   0  0  0  0  0  0  0  0  0  0  0  0
  -18.1100  -27.9970   22.6640 C   0  0  0  0  0  0  0  0  0  0  0  0
  -20.6830  -28.1880   22.8570 C   0  0  0  0  0  3  0  0  0  0  0  0
  -20.7310  -26.8090   22.1600 C   0  0  0  0  0  2  0  0  0  0  0  0
  -19.5880  -26.5980   21.1620 C   0  0  0  0  0  2  0  0  0  0  0  0
  -18.2330  -26.7110   21.8650 C   0  0  0  0  0  2  0  0  0  0  0  0
  -19.2590  -28.6990   23.1160 C   0  0  0  0  0  0  0  0  0  0  0  0
  -19.0880  -29.9040   23.8290 C   0  0  0  0  0  3  0  0  0  0  0  0
  -17.8000  -30.4100   24.0920 C   0  0  0  0  0  3  0  0  0  0  0  0
  -16.6660  -29.7060   23.6520 C   0  0  0  0  0  3  0  0  0  0  0  0
  -16.8220  -28.5010   22.9430 C   0  0  0  0  0  3  0  0  0  0  0  0
  -25.9660  -32.2880   23.7450 C   0  0  0  0  0  3  0  0  0  0  0  0
  -26.4850  -31.4420   24.9740 C   0  0  1  0  0  0  0  0  0  0  0  0
  -25.3920  -31.1340   26.0240 C   0  0  0  0  0  1  0  0  0  0  0  0
  -27.0790  -30.0950   24.5080 C   0  0  0  0  0  1  0  0  0  0  0  0
  -27.6270  -32.2050   25.6870 C   0  0  0  0  0  1  0  0  0  0  0  0
  -25.6280  -33.6550   24.1780 N   0  0  0  0  0  0  0  0  0  0  0  0
  -25.9100  -34.7710   23.4940 C   0  0  0  0  0  0  0  0  0  0  0  0
  -26.5490  -34.7590   22.4380 O   0  0  0  0  0  0  0  0  0  0  0  0
  -25.0540  -33.7340   25.0050 H   0  0  0  0  0  0  0  0  0  0  0  0
  -24.1190  -36.5380   23.3560 C   0  0  0  0  0  1  0  0  0  0  0  0
  -25.4120  -36.1130   24.0710 C   0  0  0  0  0  3  0  0  0  0  0  0
  -27.5620  -37.0120   24.8510 C   0  0  0  0  0  1  0  0  0  0  0  0
  -26.4080  -37.2030   23.9760 N   0  0  0  0  0  0  0  0  0  0  0  0
  -25.9840  -38.0990   24.2010 H   0  0  0  0  0  0  0  0  0  0  0  0
  -28.8420  -18.9860   17.3800 C   0  0  0  0  0  2  0  0  0  0  0  0
  -27.5620  -18.2980   17.6440 N   0  0  0  0  0  4  0  0  0  0  0  0
  -27.1450  -18.6110   18.5010 H   0  0  0  0  0  0  0  0  0  0  0  0
  -27.6820  -17.3030   17.6720 H   0  0  0  0  0  0  0  0  0  0  0  0
  -26.9200  -18.5090   16.9000 H   0  0  0  0  0  0  0  0  0  0  0  0
  2  7  1  0
  3  4  1  0
  3  2  1  0
  5  4  1  0
  5 17  1  0
  5  6  1  0
  7  1  1  0
  7  6  1  0
  8  1  2  0
  9 13  1  0
 11 87  1  0
 11  9  1  0
 11 12  1  0
 12 43  1  0
 12 10  1  0
 13  1  1  0
 13 10  1  0
 14 15  2  0
 15 34  1  0
 16 15  1  0
 16 19  1  0
 17 14  1  0
 17 18  1  0
 18 16  2  0
 19 20  1  0
 20 21  2  0
 22 25  1  0
 22 21  1  0
 23 22  2  0
 24 23  1  0
 24 19  2  0
 25 26  1  0
 26 27  1  0
 27 28  2  0
 29 28  1  0
 29 33  1  0
 30 29  2  0
 31 26  2  0
 31 30  1  0
 32 31  1  0
 34 35  1  0
 35 38  1  0
 35 37  1  0
 36 34  2  0
 39 40  1  0
 39 14  1  0
 41 39  1  0
 43 42  1  0
 44 43  1  0
 45 44  2  0
 45 46  1  0
 46 48  1  0
 47 58  2  0
 48 53  1  0
 49 57  1  0
 49 59  1  0
 50 56  1  0
 50 52  1  0
 51 57  1  0
 52 51  1  0
 53 52  2  0
 54 55  1  0
 54 48  2  0
 55 50  2  0
 56 49  1  0
 57 47  1  0
 59 61  2  0
 60 59  1  0
 62 60  1  0
 63 72  2  0
 63 68  1  0
 64 60  1  0
 64 68  1  0
 65 64  1  0
 66 67  1  0
 66 65  1  0
 67 63  1  0
 68 69  2  0
 69 70  1  0
 71 70  2  0
 72 71  1  0
 73 47  1  0
 73 78  1  0
 73 74  1  0
 74 77  1  1
 74 75  1  0
 76 74  1  0
 78 81  1  0
 79 83  1  0
 79 78  1  0
 80 79  2  0
 83 82  1  0
 85 83  1  0
 85 86  1  0
 85 84  1  0
 87 88  1  0
 88 90  1  0
 88 89  1  0
 91 88  1  0
M  ISO  4   1 100  13 100  45 101  46 101
M  END
>  <TORSDO>  (48) 
F 20

>  <SCORE>  (48) 
-14.401

>  <name>  (48) 
47

>  <ligand_id>  (48) 
47

>  <original_smiles>  (48) 
[H]c1c([H])c([H])c2c(c1[H])C([H])([H])C([H])([H])C([H])([H])C2([H])N([H])C(=O)C1([H])N(C(=O)C([H])(N([H])C(=O)C([H])(N([H])C([H])([H])[H])C([H])([H])[H])C(C([H])([H])[H])(C([H])([H])[H])C([H])([H])[H])C([H])([H])c2c([H])c(OC([H])([H])C([H])([H])C([H])(C([H])([H])[H])C3([H])C([H])([H])N(C(=O)N4C([H])([H])C([H])([H])C([H])([H])C([H])(n5nc(-c6c([H])c([H])c(Oc7c([H])c([H])c(F)c([H])c7F)c([H])c6[H])c(C(=O)N([H])[H])c5N([H])[H])C4([H])[H])C([H])([H])C3([H])C([H])([H])[N+]([H])([H])[H])c([H])c([H])c2C1([H])[H]

>  <smiles>  (48) 
[H]c1c([H])c([H])c2c(c1[H])C([H])([H])C([H])([H])C([H])([H])C2([H])N([H])C(=O)C1([H])N(C(=O)C([H])(N([H])C(=O)C([H])(N([H])C([H])([H])[H])C([H])([H])[H])C(C([H])([H])[H])(C([H])([H])[H])C([H])([H])[H])C([H])([H])c2c([H])c(OC([H])([H])C([H])([H])C([H])(C([H])([H])[H])C3([H])C([H])([H])N(C(=O)N4C([H])([H])C([H])([H])C([H])([H])C([H])(n5nc(-c6c([H])c([H])c(Oc7c([H])c([H])c(F)c([H])c7F)c([H])c6[H])c(C(=O)N([H])[H])c5N([H])[H])C4([H])[H])C([H])([H])C3([H])C([H])([H])[N+]([H])([H])[H])c([H])c([H])c2C1([H])[H]

$$$$
48:0:0
     RDKit          3D

 93101  0  0  1  0  0  0  0  0999 V2000
  -28.7020  -19.1710   20.9880 C   0  0  0  0  0  2  0  0  0  0  0  0
  -28.5780  -20.7390   21.0530 C   0  0  0  0  0  2  0  0  0  0  0  0
  -29.6430  -20.8010   18.8270 C   0  0  0  0  0  2  0  0  0  0  0  0
  -30.0400  -18.6910   20.3690 C   0  0  0  0  0  3  0  0  0  0  0  0
  -30.1820  -19.2990   18.9280 C   0  0  0  0  0  3  0  0  0  0  0  0
  -29.5250  -21.4720   20.1600 N   0  0  1  0  0  4  0  0  0  0  0  0
  -30.4320  -21.2490   20.5430 H   0  0  0  0  0  0  0  0  0  0  0  0
  -30.0590  -18.7640   16.4000 C   0  0  0  0  0  1  0  0  0  0  0  0
  -29.5980  -18.3880   17.8190 C   0  0  0  0  0  2  0  0  0  0  0  0
  -30.9130  -17.2180   22.2790 C   0  0  0  0  0  1  0  0  0  0  0  0
  -30.6490  -17.2480   20.7570 C   0  0  0  0  0  3  0  0  0  0  0  0
  -30.7070  -14.7920   20.0340 C   0  0  0  0  0  0  0  0  0  0  0  0
  -30.3890  -12.5870   18.9420 C   0  0  0  0  0  2  0  0  0  0  0  0
  -29.3870  -12.7280   17.7790 C   0  0  0  0  0  2  0  0  0  0  0  0
  -27.9400  -12.5650   18.2860 C   0  0  0  0  0  2  0  0  0  0  0  0
  -27.6490  -13.4080   19.5570 C   0  0  0  0  0  3  0  0  0  0  0  0
  -28.7680  -13.2610   20.6100 C   0  0  0  0  0  2  0  0  0  0  0  0
  -30.0330  -13.6070   19.9490 N   0  0  0  0  0  0  0  0  0  0  0  0
  -31.8750  -14.8770   19.6410 O   0  0  0  0  0  0  0  0  0  0  0  0
  -30.0160  -15.9260   20.3970 N   0  0  0  0  0  0  0  0  0  0  0  0
  -29.0360  -15.8100   20.6080 H   0  0  0  0  0  0  0  0  0  0  0  0
  -25.3000  -13.9870   20.4170 C   0  0  0  0  0  0  0  0  0  0  0  0
  -24.2550  -13.2030   20.8310 C   0  0  0  0  0  0  0  0  0  0  0  0
  -24.7200  -11.8540   20.7570 C   0  0  0  0  0  0  0  0  0  0  0  0
  -26.3320  -13.1130   20.1150 N   0  0  0  0  0  0  0  0  0  0  0  0
  -25.9930  -11.8240   20.3810 N   0  0  0  0  0  0  0  0  0  0  0  0
  -24.0060  -10.5870   20.9620 C   0  0  0  0  0  0  0  0  0  0  0  0
  -24.4620   -9.6240   21.8880 C   0  0  0  0  0  3  0  0  0  0  0  0
  -23.7490   -8.4220   22.0820 C   0  0  0  0  0  3  0  0  0  0  0  0
  -22.5640   -8.1740   21.3490 C   0  0  0  0  0  0  0  0  0  0  0  0
  -22.1260   -9.1250   20.4100 C   0  0  0  0  0  3  0  0  0  0  0  0
  -22.8410  -10.3190   20.2150 C   0  0  0  0  0  3  0  0  0  0  0  0
  -21.8180   -7.0230   21.4510 O   0  0  0  0  0  0  0  0  0  0  0  0
  -21.7670   -6.3010   22.6160 C   0  0  0  0  0  0  0  0  0  0  0  0
  -21.2880   -6.8630   23.8200 C   0  0  0  0  0  3  0  0  0  0  0  0
  -21.1860   -6.0660   24.9770 C   0  0  0  0  0  3  0  0  0  0  0  0
  -21.5530   -4.7070   24.9320 C   0  0  0  0  0  0  0  0  0  0  0  0
  -22.0260   -4.1440   23.7330 C   0  0  0  0  0  3  0  0  0  0  0  0
  -22.1290   -4.9390   22.5780 C   0  0  0  0  0  0  0  0  0  0  0  0
  -22.5630   -4.3890   21.4180 F   0  0  0  0  0  0  0  0  0  0  0  0
  -21.4490   -3.9380   26.0410 F   0  0  0  0  0  0  0  0  0  0  0  0
  -22.8730  -13.6750   21.1800 C   0  0  0  0  0  0  0  0  0  0  0  0
  -22.1860  -12.9580   22.0640 N   0  0  0  0  0  0  0  0  0  0  0  0
  -22.4110  -14.7090   20.7040 O   0  0  0  0  0  0  0  0  0  0  0  0
  -22.5730  -12.1200   22.4700 H   0  0  0  0  0  0  0  0  0  0  0  0
  -21.2620  -13.2570   22.3370 H   0  0  0  0  0  0  0  0  0  0  0  0
  -25.4540  -15.3590   20.2490 N   0  0  0  0  0  0  0  0  0  0  0  0
  -24.6860  -16.0080   20.3830 H   0  0  0  0  0  0  0  0  0  0  0  0
  -26.2740  -15.7950   19.8470 H   0  0  0  0  0  0  0  0  0  0  0  0
  -29.5530  -23.0000   20.2800 C   0  0  0  0  0  2  0  0  0  0  0  0
  -28.2170  -23.8580   20.1420 C   0  0  0  0  0  2  0  0  0  0  0  0
  -28.1290  -25.2870   20.8670 C   0  0  0  0  0  2  0  0  0  0  0  0
  -28.3810  -26.5880   20.2050 O   0  0  0  0  0  0  0  0  0  0  0  0
  -24.6050  -31.9470   23.2260 C   0  0  0  0  0  0  0  0  0  0  0  0
  -27.2820  -27.4500   20.1610 C   0  0  0  0  0  0  0  0  0  0  0  0
  -23.4260  -30.5270   21.5860 C   0  0  0  0  0  3  0  0  0  0  0  0
  -24.8990  -29.0110   20.1460 C   0  0  0  0  0  0  0  0  0  0  0  0
  -25.9520  -30.9000   21.3940 C   0  0  0  0  0  2  0  0  0  0  0  0
  -26.0610  -29.5270   20.7380 C   0  0  0  0  0  0  0  0  0  0  0  0
  -27.2620  -28.7570   20.7340 C   0  0  0  0  0  3  0  0  0  0  0  0
  -26.1040  -26.9820   19.5430 C   0  0  0  0  0  3  0  0  0  0  0  0
  -24.9200  -27.7430   19.5410 C   0  0  0  0  0  3  0  0  0  0  0  0
  -23.6470  -29.8600   20.2000 C   0  0  0  0  0  2  0  0  0  0  0  0
  -24.6800  -31.1370   22.1270 N   0  0  0  0  0  0  0  0  0  0  0  0
  -23.5190  -32.2090   23.7630 O   0  0  0  0  0  0  0  0  0  0  0  0
  -22.7810  -29.4970   22.5450 C   0  0  0  0  0  0  0  0  0  0  0  0
  -21.4590  -29.3040   22.4240 N   0  0  0  0  0  0  0  0  0  0  0  0
  -23.4730  -28.8790   23.3600 O   0  0  0  0  0  0  0  0  0  0  0  0
  -20.9610  -29.8620   21.7410 H   0  0  0  0  0  0  0  0  0  0  0  0
  -18.0940  -28.0840   22.9470 C   0  0  0  0  0  0  0  0  0  0  0  0
  -20.6550  -28.3530   23.1920 C   0  0  0  0  0  3  0  0  0  0  0  0
  -20.7550  -26.9290   22.6000 C   0  0  0  0  0  2  0  0  0  0  0  0
  -19.6430  -26.6110   21.5940 C   0  0  0  0  0  2  0  0  0  0  0  0
  -18.2680  -26.7410   22.2560 C   0  0  0  0  0  2  0  0  0  0  0  0
  -19.2160  -28.8470   23.3710 C   0  0  0  0  0  0  0  0  0  0  0  0
  -18.9970  -30.0990   23.9840 C   0  0  0  0  0  3  0  0  0  0  0  0
  -17.6940  -30.5950   24.1700 C   0  0  0  0  0  3  0  0  0  0  0  0
  -16.5870  -29.8270   23.7660 C   0  0  0  0  0  3  0  0  0  0  0  0
  -16.7900  -28.5730   23.1600 C   0  0  0  0  0  3  0  0  0  0  0  0
  -25.8810  -32.6000   23.8420 C   0  0  0  0  0  3  0  0  0  0  0  0
  -25.5520  -33.9970   24.1670 N   0  0  0  0  0  0  0  0  0  0  0  0
  -25.8800  -35.0510   23.4090 C   0  0  0  0  0  0  0  0  0  0  0  0
  -26.5630  -34.9520   22.3840 O   0  0  0  0  0  0  0  0  0  0  0  0
  -24.9510  -34.1480   24.9640 H   0  0  0  0  0  0  0  0  0  0  0  0
  -24.1510  -36.8340   23.0170 C   0  0  0  0  0  1  0  0  0  0  0  0
  -25.3730  -36.4360   23.8610 C   0  0  0  0  0  3  0  0  0  0  0  0
  -27.4750  -37.3320   24.7530 C   0  0  0  0  0  1  0  0  0  0  0  0
  -26.4010  -37.4960   23.7780 N   0  0  0  0  0  0  0  0  0  0  0  0
  -25.9840  -38.4130   23.9190 H   0  0  0  0  0  0  0  0  0  0  0  0
  -26.4060  -31.8430   25.1220 C   0  0  1  0  0  0  0  0  0  0  0  0
  -25.3110  -31.5840   26.1830 C   0  0  0  0  0  1  0  0  0  0  0  0
  -27.0220  -30.4800   24.7360 C   0  0  0  0  0  1  0  0  0  0  0  0
  -27.5340  -32.6630   25.7890 C   0  0  0  0  0  1  0  0  0  0  0  0
  1  2  1  0
  3  5  1  0
  3  6  1  0
  4 11  1  0
  4  1  1  0
  5  9  1  0
  5  4  1  0
  6 50  1  0
  6  7  1  1
  6  2  1  0
  8  9  1  0
 11 10  1  0
 12 20  1  0
 13 18  1  0
 14 15  1  0
 14 13  1  0
 16 15  1  0
 16 25  1  0
 16 17  1  0
 18 12  1  0
 18 17  1  0
 19 12  2  0
 20 21  1  0
 20 11  1  0
 22 23  2  0
 23 42  1  0
 24 23  1  0
 24 27  1  0
 25 26  1  0
 25 22  1  0
 26 24  2  0
 27 28  1  0
 28 29  2  0
 30 33  1  0
 30 29  1  0
 31 30  2  0
 32 31  1  0
 32 27  2  0
 33 34  1  0
 34 35  1  0
 35 36  2  0
 37 36  1  0
 37 41  1  0
 38 37  2  0
 39 34  2  0
 39 38  1  0
 40 39  1  0
 42 43  1  0
 43 46  1  0
 43 45  1  0
 44 42  2  0
 47 48  1  0
 47 22  1  0
 49 47  1  0
 51 50  1  0
 51 52  1  0
 53 52  1  0
 54 65  2  0
 55 53  1  0
 55 60  1  0
 56 64  1  0
 56 66  1  0
 57 63  1  0
 57 59  1  0
 58 64  1  0
 59 58  1  0
 60 59  2  0
 61 55  2  0
 62 61  1  0
 62 57  2  0
 63 56  1  0
 64 54  1  0
 66 68  2  0
 67 66  1  0
 69 67  1  0
 70 79  2  0
 70 75  1  0
 71 67  1  0
 71 75  1  0
 72 71  1  0
 73 74  1  0
 73 72  1  0
 74 70  1  0
 75 76  2  0
 76 77  1  0
 78 77  2  0
 79 78  1  0
 80 54  1  0
 80 81  1  0
 80 90  1  0
 81 84  1  0
 82 86  1  0
 82 81  1  0
 83 82  2  0
 86 85  1  0
 88 86  1  0
 88 89  1  0
 88 87  1  0
 90 93  1  1
 90 91  1  0
 92 90  1  0
M  ISO  4  12 100  20 100  52 101  53 101
M  END
>  <TORSDO>  (49) 
F 21

>  <SCORE>  (49) 
-13.186

>  <name>  (49) 
48

>  <ligand_id>  (49) 
48

>  <original_smiles>  (49) 
[H]c1c([H])c([H])c2c(c1[H])C([H])([H])C([H])([H])C([H])([H])C2([H])N([H])C(=O)C1([H])N(C(=O)C([H])(N([H])C(=O)C([H])(N([H])C([H])([H])[H])C([H])([H])[H])C(C([H])([H])[H])(C([H])([H])[H])C([H])([H])[H])C([H])([H])c2c([H])c(OC([H])([H])C([H])([H])C([H])([H])[N+]3([H])C([H])([H])C([H])([H])C([H])(C([H])(N([H])C(=O)N4C([H])([H])C([H])([H])C([H])([H])C([H])(n5nc(-c6c([H])c([H])c(Oc7c([H])c([H])c(F)c([H])c7F)c([H])c6[H])c(C(=O)N([H])[H])c5N([H])[H])C4([H])[H])C([H])([H])[H])C([H])(C([H])([H])C([H])([H])[H])C3([H])[H])c([H])c([H])c2C1([H])[H]

>  <smiles>  (49) 
[H]c1c([H])c([H])c2c(c1[H])C([H])([H])C([H])([H])C([H])([H])C2([H])N([H])C(=O)C1([H])N(C(=O)C([H])(N([H])C(=O)C([H])(N([H])C([H])([H])[H])C([H])([H])[H])C(C([H])([H])[H])(C([H])([H])[H])C([H])([H])[H])C([H])([H])c2c([H])c(OC([H])([H])C([H])([H])C([H])([H])[N+]3([H])C([H])([H])C([H])([H])C([H])(C([H])(N([H])C(=O)N4C([H])([H])C([H])([H])C([H])([H])C([H])(n5nc(-c6c([H])c([H])c(Oc7c([H])c([H])c(F)c([H])c7F)c([H])c6[H])c(C(=O)N([H])[H])c5N([H])[H])C4([H])[H])C([H])([H])[H])C([H])(C([H])([H])C([H])([H])[H])C3([H])[H])c([H])c([H])c2C1([H])[H]

$$$$
49:0:0
     RDKit          3D

 92100  0  0  1  0  0  0  0  0999 V2000
  -27.6910  -20.7920   20.5480 C   0  0  0  0  0  2  0  0  0  0  0  0
  -27.9740  -19.3360   20.1340 C   0  0  0  0  0  3  0  0  0  0  0  0
  -29.1530  -21.2010   20.6180 C   0  0  0  0  0  3  0  0  0  0  0  0
  -29.4920  -19.5590   20.0200 C   0  0  0  0  0  3  0  0  0  0  0  0
  -30.9370  -23.0290   20.2100 C   0  0  0  0  0  1  0  0  0  0  0  0
  -29.3960  -22.8790   20.1050 C   0  0  0  0  0  3  0  0  0  0  0  0
  -28.6150  -24.4100   20.6480 C   0  0  0  0  0  2  0  0  0  0  0  0
  -28.5740  -26.0230   20.5100 O   0  0  0  0  0  0  0  0  0  0  0  0
  -24.6170  -31.7950   23.2830 C   0  0  0  0  0  0  0  0  0  0  0  0
  -27.4720  -26.9970   20.4910 C   0  0  0  0  0  0  0  0  0  0  0  0
  -23.5540  -30.3580   21.5830 C   0  0  0  0  0  3  0  0  0  0  0  0
  -25.1190  -28.7690   20.2870 C   0  0  0  0  0  0  0  0  0  0  0  0
  -26.1120  -30.6440   21.5880 C   0  0  0  0  0  2  0  0  0  0  0  0
  -26.2540  -29.2300   20.9690 C   0  0  0  0  0  0  0  0  0  0  0  0
  -27.4260  -28.3630   21.0460 C   0  0  0  0  0  3  0  0  0  0  0  0
  -26.2980  -26.6570   19.7860 C   0  0  0  0  0  3  0  0  0  0  0  0
  -25.1620  -27.5030   19.6830 C   0  0  0  0  0  3  0  0  0  0  0  0
  -23.8830  -29.6640   20.2320 C   0  0  0  0  0  2  0  0  0  0  0  0
  -24.7780  -30.9610   22.2070 N   0  0  0  0  0  0  0  0  0  0  0  0
  -23.4930  -32.0630   23.7370 O   0  0  0  0  0  0  0  0  0  0  0  0
  -22.8260  -29.3550   22.5160 C   0  0  0  0  0  0  0  0  0  0  0  0
  -21.5040  -29.1790   22.3260 N   0  0  0  0  0  0  0  0  0  0  0  0
  -23.4570  -28.7380   23.3760 O   0  0  0  0  0  0  0  0  0  0  0  0
  -21.0490  -29.7320   21.6130 H   0  0  0  0  0  0  0  0  0  0  0  0
  -18.1060  -27.9810   22.7030 C   0  0  0  0  0  0  0  0  0  0  0  0
  -20.6570  -28.2340   23.0600 C   0  0  0  0  0  3  0  0  0  0  0  0
  -20.7750  -26.8090   22.4710 C   0  0  0  0  0  2  0  0  0  0  0  0
  -19.7080  -26.5050   21.4150 C   0  0  0  0  0  2  0  0  0  0  0  0
  -18.3040  -26.6430   22.0110 C   0  0  0  0  0  2  0  0  0  0  0  0
  -19.2110  -28.7340   23.1830 C   0  0  0  0  0  0  0  0  0  0  0  0
  -18.9690  -29.9880   23.7880 C   0  0  0  0  0  3  0  0  0  0  0  0
  -17.6610  -30.4880   23.9120 C   0  0  0  0  0  3  0  0  0  0  0  0
  -16.5690  -29.7320   23.4490 C   0  0  0  0  0  3  0  0  0  0  0  0
  -16.7960  -28.4810   22.8540 C   0  0  0  0  0  3  0  0  0  0  0  0
  -25.8350  -32.4650   23.9890 C   0  0  0  0  0  3  0  0  0  0  0  0
  -25.4910  -33.8790   24.2380 N   0  0  0  0  0  0  0  0  0  0  0  0
  -25.8780  -34.9080   23.4790 C   0  0  0  0  0  0  0  0  0  0  0  0
  -26.6300  -34.7760   22.5060 O   0  0  0  0  0  0  0  0  0  0  0  0
  -24.8340  -34.0550   24.9850 H   0  0  0  0  0  0  0  0  0  0  0  0
  -24.1830  -36.6850   22.9280 C   0  0  0  0  0  1  0  0  0  0  0  0
  -25.3560  -36.3130   23.8480 C   0  0  0  0  0  3  0  0  0  0  0  0
  -27.4140  -37.2350   24.8220 C   0  0  0  0  0  1  0  0  0  0  0  0
  -26.3920  -37.3650   23.7860 N   0  0  0  0  0  0  0  0  0  0  0  0
  -25.9740  -38.2900   23.8670 H   0  0  0  0  0  0  0  0  0  0  0  0
  -26.2390  -31.7580   25.3400 C   0  0  1  0  0  0  0  0  0  0  0  0
  -25.0560  -31.5630   26.3160 C   0  0  0  0  0  1  0  0  0  0  0  0
  -26.8530  -30.3660   25.0670 C   0  0  0  0  0  1  0  0  0  0  0  0
  -27.3200  -32.5920   26.0700 C   0  0  0  0  0  1  0  0  0  0  0  0
  -30.4080  -18.1230   20.5180 C   0  0  0  0  0  2  0  0  0  0  0  0
  -30.8330  -15.2410   20.2840 C   0  0  0  0  0  0  0  0  0  0  0  0
  -30.7480  -12.8180   19.3860 C   0  0  0  0  0  2  0  0  0  0  0  0
  -29.8090  -12.6500   18.1650 C   0  0  0  0  0  2  0  0  0  0  0  0
  -28.3580  -12.4110   18.6230 C   0  0  0  0  0  2  0  0  0  0  0  0
  -27.9360  -13.3770   19.7600 C   0  0  0  0  0  3  0  0  0  0  0  0
  -29.0010  -13.4870   20.8730 C   0  0  0  0  0  2  0  0  0  0  0  0
  -30.2380  -13.9580   20.2260 N   0  0  0  0  0  0  0  0  0  0  0  0
  -32.0510  -15.2350   20.0610 O   0  0  0  0  0  0  0  0  0  0  0  0
  -30.0840  -16.5040   20.3940 N   0  0  0  0  0  0  0  0  0  0  0  0
  -29.1010  -16.3120   20.5060 H   0  0  0  0  0  0  0  0  0  0  0  0
  -25.5840  -13.9660   20.5530 C   0  0  0  0  0  0  0  0  0  0  0  0
  -24.5100  -13.1970   20.9260 C   0  0  0  0  0  0  0  0  0  0  0  0
  -24.9520  -11.8450   20.8570 C   0  0  0  0  0  0  0  0  0  0  0  0
  -26.6090  -13.0760   20.2800 N   0  0  0  0  0  0  0  0  0  0  0  0
  -26.2420  -11.7940   20.5310 N   0  0  0  0  0  0  0  0  0  0  0  0
  -24.2050  -10.5900   21.0250 C   0  0  0  0  0  0  0  0  0  0  0  0
  -24.5950   -9.6160   21.9680 C   0  0  0  0  0  3  0  0  0  0  0  0
  -23.8420   -8.4320   22.1280 C   0  0  0  0  0  3  0  0  0  0  0  0
  -22.6850   -8.2150   21.3430 C   0  0  0  0  0  0  0  0  0  0  0  0
  -22.3130   -9.1790   20.3910 C   0  0  0  0  0  3  0  0  0  0  0  0
  -23.0670  -10.3550   20.2270 C   0  0  0  0  0  3  0  0  0  0  0  0
  -21.9080   -7.0830   21.4110 O   0  0  0  0  0  0  0  0  0  0  0  0
  -21.7710   -6.3750   22.5780 C   0  0  0  0  0  0  0  0  0  0  0  0
  -21.2370   -6.9580   23.7450 C   0  0  0  0  0  3  0  0  0  0  0  0
  -21.0490   -6.1750   24.9010 C   0  0  0  0  0  3  0  0  0  0  0  0
  -21.3860   -4.8090   24.8900 C   0  0  0  0  0  0  0  0  0  0  0  0
  -21.9130   -4.2240   23.7240 C   0  0  0  0  0  3  0  0  0  0  0  0
  -22.1030   -5.0040   22.5720 C   0  0  0  0  0  0  0  0  0  0  0  0
  -22.5920   -4.4310   21.4450 F   0  0  0  0  0  0  0  0  0  0  0  0
  -21.1990   -4.0520   25.9970 F   0  0  0  0  0  0  0  0  0  0  0  0
  -23.1260  -13.7010   21.2090 C   0  0  0  0  0  0  0  0  0  0  0  0
  -22.3910  -13.0110   22.0740 N   0  0  0  0  0  0  0  0  0  0  0  0
  -22.7060  -14.7370   20.6960 O   0  0  0  0  0  0  0  0  0  0  0  0
  -22.7420  -12.1710   22.5090 H   0  0  0  0  0  0  0  0  0  0  0  0
  -21.4610  -13.3300   22.3040 H   0  0  0  0  0  0  0  0  0  0  0  0
  -25.7450  -15.3310   20.3800 N   0  0  0  0  0  0  0  0  0  0  0  0
  -24.8420  -15.7840   20.2890 H   0  0  0  0  0  0  0  0  0  0  0  0
  -26.3850  -15.5950   19.6410 H   0  0  0  0  0  0  0  0  0  0  0  0
  -27.2170  -18.7720   18.9390 C   0  0  0  0  0  2  0  0  0  0  0  0
  -25.8450  -18.3850   19.3050 N   0  0  0  0  0  4  0  0  0  0  0  0
  -25.8590  -17.6490   19.9860 H   0  0  0  0  0  0  0  0  0  0  0  0
  -25.3500  -18.0630   18.4940 H   0  0  0  0  0  0  0  0  0  0  0  0
  -25.3530  -19.1740   19.6840 H   0  0  0  0  0  0  0  0  0  0  0  0
  1  3  1  0
  2 88  1  0
  2  1  1  0
  3  6  1  0
  4  2  1  0
  4 49  1  0
  4  3  1  0
  6  5  1  0
  6  7  1  0
  8  7  1  0
  9 20  2  0
 10  8  1  0
 10 15  1  0
 11 19  1  0
 11 21  1  0
 12 14  1  0
 13 19  1  0
 14 15  2  0
 14 13  1  0
 16 10  2  0
 17 16  1  0
 17 12  2  0
 18 12  1  0
 18 11  1  0
 19  9  1  0
 21 23  2  0
 22 21  1  0
 24 22  1  0
 25 34  2  0
 25 30  1  0
 26 22  1  0
 26 30  1  0
 27 26  1  0
 28 29  1  0
 28 27  1  0
 29 25  1  0
 30 31  2  0
 31 32  1  0
 33 32  2  0
 34 33  1  0
 35  9  1  0
 35 36  1  0
 35 45  1  0
 36 39  1  0
 37 41  1  0
 37 36  1  0
 38 37  2  0
 41 40  1  0
 43 41  1  0
 43 44  1  0
 43 42  1  0
 45 48  1  1
 45 46  1  0
 47 45  1  0
 50 58  1  0
 51 56  1  0
 52 53  1  0
 52 51  1  0
 54 53  1  0
 54 63  1  0
 54 55  1  0
 56 50  1  0
 56 55  1  0
 57 50  2  0
 58 59  1  0
 58 49  1  0
 60 61  2  0
 61 80  1  0
 62 61  1  0
 62 65  1  0
 63 64  1  0
 63 60  1  0
 64 62  2  0
 65 66  1  0
 66 67  2  0
 68 71  1  0
 68 67  1  0
 69 68  2  0
 70 69  1  0
 70 65  2  0
 71 72  1  0
 72 73  1  0
 73 74  2  0
 75 74  1  0
 75 79  1  0
 76 75  2  0
 77 72  2  0
 77 76  1  0
 78 77  1  0
 80 81  1  0
 81 84  1  0
 81 83  1  0
 82 80  2  0
 85 60  1  0
 86 85  1  0
 87 85  1  0
 88 89  1  0
 89 92  1  0
 89 90  1  0
 91 89  1  0
M  ISO  4   7 101   8 101  50 100  58 100
M  END
>  <TORSDO>  (50) 
F 21

>  <SCORE>  (50) 
-14.433

>  <name>  (50) 
49

>  <ligand_id>  (50) 
49

>  <original_smiles>  (50) 
[H]c1c([H])c([H])c2c(c1[H])C([H])([H])C([H])([H])C([H])([H])C2([H])N([H])C(=O)C1([H])N(C(=O)C([H])(N([H])C(=O)C([H])(N([H])C([H])([H])[H])C([H])([H])[H])C(C([H])([H])[H])(C([H])([H])[H])C([H])([H])[H])C([H])([H])c2c([H])c(OC([H])([H])C([H])(C([H])([H])[H])C3([H])C([H])([H])C([H])(C([H])([H])[N+]([H])([H])[H])C3([H])C([H])([H])N([H])C(=O)N3C([H])([H])C([H])([H])C([H])([H])C([H])(n4nc(-c5c([H])c([H])c(Oc6c([H])c([H])c(F)c([H])c6F)c([H])c5[H])c(C(=O)N([H])[H])c4N([H])[H])C3([H])[H])c([H])c([H])c2C1([H])[H]

>  <smiles>  (50) 
[H]c1c([H])c([H])c2c(c1[H])C([H])([H])C([H])([H])C([H])([H])C2([H])N([H])C(=O)C1([H])N(C(=O)C([H])(N([H])C(=O)C([H])(N([H])C([H])([H])[H])C([H])([H])[H])C(C([H])([H])[H])(C([H])([H])[H])C([H])([H])[H])C([H])([H])c2c([H])c(OC([H])([H])C([H])(C([H])([H])[H])C3([H])C([H])([H])C([H])(C([H])([H])[N+]([H])([H])[H])C3([H])C([H])([H])N([H])C(=O)N3C([H])([H])C([H])([H])C([H])([H])C([H])(n4nc(-c5c([H])c([H])c(Oc6c([H])c([H])c(F)c([H])c6F)c([H])c5[H])c(C(=O)N([H])[H])c4N([H])[H])C3([H])[H])c([H])c([H])c2C1([H])[H]

$$$$
50:0:0
     RDKit          3D

 90 98  0  0  1  0  0  0  0  0999 V2000
  -29.2790  -21.2080   20.3480 N   0  0  0  0  0  4  0  0  0  0  0  0
  -30.1610  -21.3230   19.8750 H   0  0  0  0  0  0  0  0  0  0  0  0
  -29.5000  -21.3730   21.3170 H   0  0  0  0  0  0  0  0  0  0  0  0
  -30.3580  -15.3860   19.8680 C   0  0  0  0  0  0  0  0  0  0  0  0
  -30.2390  -12.9620   18.9130 C   0  0  0  0  0  2  0  0  0  0  0  0
  -29.2300  -12.7470   17.7570 C   0  0  0  0  0  2  0  0  0  0  0  0
  -27.8280  -12.4470   18.3110 C   0  0  0  0  0  2  0  0  0  0  0  0
  -27.4550  -13.3920   19.4790 C   0  0  0  0  0  3  0  0  0  0  0  0
  -28.5860  -13.5540   20.5160 C   0  0  0  0  0  2  0  0  0  0  0  0
  -29.7460  -14.0960   19.7850 N   0  0  0  0  0  0  0  0  0  0  0  0
  -31.5790  -15.3140   19.6570 O   0  0  0  0  0  0  0  0  0  0  0  0
  -28.2930  -18.7820   19.1670 C   0  0  0  0  0  2  0  0  0  0  0  0
  -28.4150  -17.1780   19.3930 C   0  0  0  0  0  2  0  0  0  0  0  0
  -29.0120  -19.5370   20.3160 C   0  0  0  0  0  3  0  0  0  0  0  0
  -30.1630  -18.2430   20.3860 C   0  0  0  0  0  3  0  0  0  0  0  0
  -29.6890  -16.7310   20.0390 N   0  0  0  0  0  0  0  0  0  0  0  0
  -25.1560  -13.9190   20.4360 C   0  0  0  0  0  0  0  0  0  0  0  0
  -24.1250  -13.1300   20.8600 C   0  0  0  0  0  0  0  0  0  0  0  0
  -24.5890  -11.7830   20.7550 C   0  0  0  0  0  0  0  0  0  0  0  0
  -26.1760  -13.0550   20.0870 N   0  0  0  0  0  0  0  0  0  0  0  0
  -25.8550  -11.7600   20.3490 N   0  0  0  0  0  0  0  0  0  0  0  0
  -23.8770  -10.5150   20.9600 C   0  0  0  0  0  0  0  0  0  0  0  0
  -24.3470   -9.5390   21.8650 C   0  0  0  0  0  3  0  0  0  0  0  0
  -23.6300   -8.3390   22.0620 C   0  0  0  0  0  3  0  0  0  0  0  0
  -22.4290   -8.1050   21.3500 C   0  0  0  0  0  0  0  0  0  0  0  0
  -21.9770   -9.0690   20.4320 C   0  0  0  0  0  3  0  0  0  0  0  0
  -22.6950  -10.2610   20.2340 C   0  0  0  0  0  3  0  0  0  0  0  0
  -21.6800   -6.9590   21.4570 O   0  0  0  0  0  0  0  0  0  0  0  0
  -21.6440   -6.2290   22.6180 C   0  0  0  0  0  0  0  0  0  0  0  0
  -21.2350   -6.7980   23.8430 C   0  0  0  0  0  3  0  0  0  0  0  0
  -21.1460   -5.9940   24.9970 C   0  0  0  0  0  3  0  0  0  0  0  0
  -21.4540   -4.6230   24.9270 C   0  0  0  0  0  0  0  0  0  0  0  0
  -21.8570   -4.0530   23.7060 C   0  0  0  0  0  3  0  0  0  0  0  0
  -21.9480   -4.8540   22.5540 C   0  0  0  0  0  0  0  0  0  0  0  0
  -22.3150   -4.2960   21.3750 F   0  0  0  0  0  0  0  0  0  0  0  0
  -21.3610   -3.8490   26.0340 F   0  0  0  0  0  0  0  0  0  0  0  0
  -22.7520  -13.5990   21.2410 C   0  0  0  0  0  0  0  0  0  0  0  0
  -22.0920  -12.8850   22.1460 N   0  0  0  0  0  0  0  0  0  0  0  0
  -22.2780  -14.6330   20.7730 O   0  0  0  0  0  0  0  0  0  0  0  0
  -22.4910  -12.0490   22.5440 H   0  0  0  0  0  0  0  0  0  0  0  0
  -21.1730  -13.1800   22.4460 H   0  0  0  0  0  0  0  0  0  0  0  0
  -25.3000  -15.2950   20.2860 N   0  0  0  0  0  0  0  0  0  0  0  0
  -24.5340  -15.9360   20.4620 H   0  0  0  0  0  0  0  0  0  0  0  0
  -26.1120  -15.7430   19.8870 H   0  0  0  0  0  0  0  0  0  0  0  0
  -30.9970  -18.2790   21.6790 C   0  0  0  0  0  2  0  0  0  0  0  0
  -31.0880  -18.0250   24.2080 C   0  0  0  0  0  1  0  0  0  0  0  0
  -30.2550  -17.8060   22.9390 C   0  0  0  0  0  2  0  0  0  0  0  0
  -28.4150  -22.5910   19.9070 C   0  0  0  0  0  2  0  0  0  0  0  0
  -28.3110  -24.2680   20.6290 C   0  0  0  0  0  2  0  0  0  0  0  0
  -28.3080  -25.8840   20.1940 O   0  0  0  0  0  0  0  0  0  0  0  0
  -24.6810  -31.8660   23.2090 C   0  0  0  0  0  0  0  0  0  0  0  0
  -27.2610  -26.9530   20.2440 C   0  0  0  0  0  0  0  0  0  0  0  0
  -23.4980  -30.4550   21.5780 C   0  0  0  0  0  3  0  0  0  0  0  0
  -24.9540  -28.8360   20.1790 C   0  0  0  0  0  0  0  0  0  0  0  0
  -26.0640  -30.6710   21.4340 C   0  0  0  0  0  2  0  0  0  0  0  0
  -26.1420  -29.2500   20.7930 C   0  0  0  0  0  0  0  0  0  0  0  0
  -27.2920  -28.3340   20.7920 C   0  0  0  0  0  3  0  0  0  0  0  0
  -26.0350  -26.6920   19.5910 C   0  0  0  0  0  3  0  0  0  0  0  0
  -24.9250  -27.5770   19.5560 C   0  0  0  0  0  3  0  0  0  0  0  0
  -23.7350  -29.7600   20.2080 C   0  0  0  0  0  2  0  0  0  0  0  0
  -24.7710  -31.0260   22.1270 N   0  0  0  0  0  0  0  0  0  0  0  0
  -23.5900  -32.1530   23.7260 O   0  0  0  0  0  0  0  0  0  0  0  0
  -22.8070  -29.4630   22.5490 C   0  0  0  0  0  0  0  0  0  0  0  0
  -21.4760  -29.2940   22.4290 N   0  0  0  0  0  0  0  0  0  0  0  0
  -23.4760  -28.8430   23.3820 O   0  0  0  0  0  0  0  0  0  0  0  0
  -20.9870  -29.8440   21.7370 H   0  0  0  0  0  0  0  0  0  0  0  0
  -18.1010  -28.0710   22.9500 C   0  0  0  0  0  0  0  0  0  0  0  0
  -20.6600  -28.3560   23.2070 C   0  0  0  0  0  3  0  0  0  0  0  0
  -20.7700  -26.9210   22.6420 C   0  0  0  0  0  2  0  0  0  0  0  0
  -19.6690  -26.5860   21.6310 C   0  0  0  0  0  2  0  0  0  0  0  0
  -18.2870  -26.7220   22.2760 C   0  0  0  0  0  2  0  0  0  0  0  0
  -19.2140  -28.8450   23.3730 C   0  0  0  0  0  0  0  0  0  0  0  0
  -18.9840  -30.1060   23.9660 C   0  0  0  0  0  3  0  0  0  0  0  0
  -17.6750  -30.5930   24.1370 C   0  0  0  0  0  3  0  0  0  0  0  0
  -16.5760  -29.8170   23.7290 C   0  0  0  0  0  3  0  0  0  0  0  0
  -16.7900  -28.5580   23.1410 C   0  0  0  0  0  3  0  0  0  0  0  0
  -25.9470  -32.5230   23.8400 C   0  0  0  0  0  3  0  0  0  0  0  0
  -26.4590  -31.7660   25.1270 C   0  0  1  0  0  0  0  0  0  0  0  0
  -25.3620  -31.5340   26.1930 C   0  0  0  0  0  1  0  0  0  0  0  0
  -27.0520  -30.3860   24.7600 C   0  0  0  0  0  1  0  0  0  0  0  0
  -27.6030  -32.5720   25.7900 C   0  0  0  0  0  1  0  0  0  0  0  0
  -25.6170  -33.9200   24.1730 N   0  0  0  0  0  0  0  0  0  0  0  0
  -25.9320  -34.9850   23.4220 C   0  0  0  0  0  0  0  0  0  0  0  0
  -26.5930  -34.8930   22.3840 O   0  0  0  0  0  0  0  0  0  0  0  0
  -25.0290  -34.0640   24.9810 H   0  0  0  0  0  0  0  0  0  0  0  0
  -24.1770  -36.7640   23.1100 C   0  0  0  0  0  1  0  0  0  0  0  0
  -25.4390  -36.3670   23.8940 C   0  0  0  0  0  3  0  0  0  0  0  0
  -27.5790  -37.2780   24.6860 C   0  0  0  0  0  1  0  0  0  0  0  0
  -26.4560  -37.4340   23.7650 N   0  0  0  0  0  0  0  0  0  0  0  0
  -26.0410  -38.3480   23.9240 H   0  0  0  0  0  0  0  0  0  0  0  0
  1  3  1  0
  2  1  1  0
  4 16  1  0
  5 10  1  0
  6  7  1  0
  6  5  1  0
  8  7  1  0
  8 20  1  0
  8  9  1  0
 10  4  1  0
 10  9  1  0
 11  4  2  0
 12 13  1  0
 12 14  1  0
 13 16  1  0
 14  1  1  0
 14 15  1  0
 15 45  1  0
 16 15  1  0
 17 18  2  0
 18 37  1  0
 19 18  1  0
 19 22  1  0
 20 21  1  0
 20 17  1  0
 21 19  2  0
 22 23  1  0
 23 24  2  0
 25 28  1  0
 25 24  1  0
 26 25  2  0
 27 26  1  0
 27 22  2  0
 28 29  1  0
 29 30  1  0
 30 31  2  0
 32 31  1  0
 32 36  1  0
 33 32  2  0
 34 29  2  0
 34 33  1  0
 35 34  1  0
 37 38  1  0
 38 41  1  0
 38 40  1  0
 39 37  2  0
 42 17  1  0
 42 43  1  0
 44 42  1  0
 45 47  1  0
 47 46  1  0
 48  1  1  0
 48 49  1  0
 50 52  1  0
 50 49  1  0
 51 62  2  0
 52 57  1  0
 53 61  1  0
 53 63  1  0
 54 60  1  0
 54 56  1  0
 55 61  1  0
 56 55  1  0
 57 56  2  0
 58 52  2  0
 59 58  1  0
 59 54  2  0
 60 53  1  0
 61 51  1  0
 63 65  2  0
 64 63  1  0
 66 64  1  0
 67 76  2  0
 67 72  1  0
 68 64  1  0
 68 72  1  0
 69 68  1  0
 70 71  1  0
 70 69  1  0
 71 67  1  0
 72 73  2  0
 73 74  1  0
 75 74  2  0
 76 75  1  0
 77 51  1  0
 77 82  1  0
 77 78  1  0
 78 81  1  1
 78 79  1  0
 80 78  1  0
 82 85  1  0
 83 87  1  0
 83 82  1  0
 84 83  2  0
 87 86  1  0
 89 87  1  0
 89 90  1  0
 89 88  1  0
M  ISO  4   4 100  16 100  49 101  50 101
M  END
>  <TORSDO>  (51) 
F 20

>  <SCORE>  (51) 
-14.025

>  <name>  (51) 
50

>  <ligand_id>  (51) 
50

>  <original_smiles>  (51) 
[H]c1c([H])c([H])c2c(c1[H])C([H])([H])C([H])([H])C([H])([H])C2([H])N([H])C(=O)C1([H])N(C(=O)C([H])(N([H])C(=O)C([H])(N([H])C([H])([H])[H])C([H])([H])[H])C(C([H])([H])[H])(C([H])([H])[H])C([H])([H])[H])C([H])([H])c2c([H])c(OC([H])([H])C([H])([H])[N+]([H])([H])C3([H])C([H])([H])C([H])([H])N(C(=O)N4C([H])([H])C([H])([H])C([H])([H])C([H])(n5nc(-c6c([H])c([H])c(Oc7c([H])c([H])c(F)c([H])c7F)c([H])c6[H])c(C(=O)N([H])[H])c5N([H])[H])C4([H])[H])C3([H])C([H])([H])C([H])([H])C([H])([H])[H])c([H])c([H])c2C1([H])[H]

>  <smiles>  (51) 
[H]c1c([H])c([H])c2c(c1[H])C([H])([H])C([H])([H])C([H])([H])C2([H])N([H])C(=O)C1([H])N(C(=O)C([H])(N([H])C(=O)C([H])(N([H])C([H])([H])[H])C([H])([H])[H])C(C([H])([H])[H])(C([H])([H])[H])C([H])([H])[H])C([H])([H])c2c([H])c(OC([H])([H])C([H])([H])[N+]([H])([H])C3([H])C([H])([H])C([H])([H])N(C(=O)N4C([H])([H])C([H])([H])C([H])([H])C([H])(n5nc(-c6c([H])c([H])c(Oc7c([H])c([H])c(F)c([H])c7F)c([H])c6[H])c(C(=O)N([H])[H])c5N([H])[H])C4([H])[H])C3([H])C([H])([H])C([H])([H])C([H])([H])[H])c([H])c([H])c2C1([H])[H]

$$$$
51:0:0
     RDKit          3D

 90 98  0  0  1  0  0  0  0  0999 V2000
  -28.3560  -19.9900   20.5320 C   0  0  0  0  0  2  0  0  0  0  0  0
  -30.2330  -21.8830   19.6000 C   0  0  0  0  0  2  0  0  0  0  0  0
  -28.2140  -21.6520   20.7450 C   0  0  0  0  0  3  0  0  0  0  0  0
  -28.8210  -22.7850   19.7180 C   0  0  0  0  0  3  0  0  0  0  0  0
  -29.7580  -19.1850   20.3070 C   0  0  0  0  0  3  0  0  0  0  0  0
  -30.2930  -20.2870   19.3240 N   0  0  0  0  0  4  0  0  0  0  0  0
  -31.2640  -20.0690   19.1680 H   0  0  0  0  0  0  0  0  0  0  0  0
  -29.8390  -20.1380   18.4380 H   0  0  0  0  0  0  0  0  0  0  0  0
  -26.7520  -21.9660   21.0100 C   0  0  0  0  0  3  0  0  0  0  0  0
  -26.3570  -22.7880   21.8850 N   0  0  0  0  0  0  0  0  0  0  0  0
  -27.1280  -23.2140   22.3900 H   0  0  0  0  0  0  0  0  0  0  0  0
  -29.7010  -17.3410   20.0370 C   0  0  0  0  0  2  0  0  0  0  0  0
  -30.6510  -15.8180   20.1310 C   0  0  0  0  0  0  0  0  0  0  0  0
  -30.7600  -13.3050   19.3770 C   0  0  0  0  0  2  0  0  0  0  0  0
  -29.8590  -13.0050   18.1450 C   0  0  0  0  0  2  0  0  0  0  0  0
  -28.4090  -12.7140   18.5700 C   0  0  0  0  0  2  0  0  0  0  0  0
  -27.9180  -13.7120   19.6460 C   0  0  0  0  0  3  0  0  0  0  0  0
  -28.9450  -13.9320   20.7750 C   0  0  0  0  0  2  0  0  0  0  0  0
  -30.1730  -14.4630   20.1570 N   0  0  0  0  0  0  0  0  0  0  0  0
  -31.8820  -15.8360   19.9530 O   0  0  0  0  0  0  0  0  0  0  0  0
  -25.5490  -14.2670   20.3950 C   0  0  0  0  0  0  0  0  0  0  0  0
  -24.4860  -13.4910   20.7620 C   0  0  0  0  0  0  0  0  0  0  0  0
  -24.9540  -12.1400   20.7370 C   0  0  0  0  0  0  0  0  0  0  0  0
  -26.5910  -13.3920   20.1540 N   0  0  0  0  0  0  0  0  0  0  0  0
  -26.2460  -12.1070   20.4300 N   0  0  0  0  0  0  0  0  0  0  0  0
  -24.2250  -10.8800   20.9280 C   0  0  0  0  0  0  0  0  0  0  0  0
  -24.6230   -9.9340   21.8990 C   0  0  0  0  0  3  0  0  0  0  0  0
  -23.8910   -8.7400   22.0780 C   0  0  0  0  0  3  0  0  0  0  0  0
  -22.7480   -8.4820   21.2860 C   0  0  0  0  0  0  0  0  0  0  0  0
  -22.3690   -9.4150   20.3050 C   0  0  0  0  0  3  0  0  0  0  0  0
  -23.1000  -10.6010   20.1240 C   0  0  0  0  0  3  0  0  0  0  0  0
  -21.9920   -7.3380   21.3720 O   0  0  0  0  0  0  0  0  0  0  0  0
  -21.8730   -6.6400   22.5460 C   0  0  0  0  0  0  0  0  0  0  0  0
  -21.3430   -7.2330   23.7150 C   0  0  0  0  0  3  0  0  0  0  0  0
  -21.1740   -6.4600   24.8810 C   0  0  0  0  0  3  0  0  0  0  0  0
  -21.5220   -5.0970   24.8800 C   0  0  0  0  0  0  0  0  0  0  0  0
  -22.0430   -4.5040   23.7160 C   0  0  0  0  0  3  0  0  0  0  0  0
  -22.2140   -5.2720   22.5530 C   0  0  0  0  0  0  0  0  0  0  0  0
  -22.6970   -4.6910   21.4270 F   0  0  0  0  0  0  0  0  0  0  0  0
  -21.3520   -4.3520   25.9970 F   0  0  0  0  0  0  0  0  0  0  0  0
  -23.0870  -13.9690   21.0190 C   0  0  0  0  0  0  0  0  0  0  0  0
  -22.3530  -13.2780   21.8850 N   0  0  0  0  0  0  0  0  0  0  0  0
  -22.6550  -14.9910   20.4890 O   0  0  0  0  0  0  0  0  0  0  0  0
  -22.7180  -12.4520   22.3350 H   0  0  0  0  0  0  0  0  0  0  0  0
  -21.4140  -13.5800   22.1000 H   0  0  0  0  0  0  0  0  0  0  0  0
  -25.7120  -15.6380   20.2160 N   0  0  0  0  0  0  0  0  0  0  0  0
  -24.9470  -16.2920   20.3270 H   0  0  0  0  0  0  0  0  0  0  0  0
  -26.5620  -16.0740   19.8790 H   0  0  0  0  0  0  0  0  0  0  0  0
  -28.4830  -24.5890   20.0790 C   0  0  0  0  0  2  0  0  0  0  0  0
  -28.3930  -26.1530   19.4660 O   0  0  0  0  0  0  0  0  0  0  0  0
  -24.6760  -31.8210   23.0070 C   0  0  0  0  0  0  0  0  0  0  0  0
  -27.3250  -27.2110   19.6090 C   0  0  0  0  0  0  0  0  0  0  0  0
  -23.4840  -30.4730   21.3280 C   0  0  0  0  0  3  0  0  0  0  0  0
  -24.9460  -29.0170   19.7630 C   0  0  0  0  0  0  0  0  0  0  0  0
  -26.0350  -30.8010   21.1030 C   0  0  0  0  0  2  0  0  0  0  0  0
  -26.1430  -29.4320   20.3600 C   0  0  0  0  0  0  0  0  0  0  0  0
  -27.3250  -28.5570   20.2500 C   0  0  0  0  0  3  0  0  0  0  0  0
  -26.0830  -26.9610   18.9820 C   0  0  0  0  0  3  0  0  0  0  0  0
  -24.9420  -27.8050   19.0530 C   0  0  0  0  0  3  0  0  0  0  0  0
  -23.6920  -29.8830   19.9060 C   0  0  0  0  0  2  0  0  0  0  0  0
  -24.7550  -31.0580   21.8670 N   0  0  0  0  0  0  0  0  0  0  0  0
  -23.5960  -32.0270   23.5840 O   0  0  0  0  0  0  0  0  0  0  0  0
  -22.8700  -29.3920   22.2560 C   0  0  0  0  0  0  0  0  0  0  0  0
  -21.5490  -29.1520   22.1500 N   0  0  0  0  0  0  0  0  0  0  0  0
  -23.5890  -28.7710   23.0420 O   0  0  0  0  0  0  0  0  0  0  0  0
  -21.0150  -29.7070   21.4960 H   0  0  0  0  0  0  0  0  0  0  0  0
  -18.2590  -27.7090   22.6740 C   0  0  0  0  0  0  0  0  0  0  0  0
  -20.8040  -28.1260   22.8890 C   0  0  0  0  0  3  0  0  0  0  0  0
  -20.9770  -26.7350   22.2340 C   0  0  0  0  0  2  0  0  0  0  0  0
  -19.8700  -26.3980   21.2310 C   0  0  0  0  0  2  0  0  0  0  0  0
  -18.5010  -26.4160   21.9160 C   0  0  0  0  0  2  0  0  0  0  0  0
  -19.3390  -28.5200   23.1170 C   0  0  0  0  0  0  0  0  0  0  0  0
  -19.0560  -29.7270   23.7940 C   0  0  0  0  0  3  0  0  0  0  0  0
  -17.7260  -30.1270   24.0270 C   0  0  0  0  0  3  0  0  0  0  0  0
  -16.6620  -29.3160   23.5960 C   0  0  0  0  0  3  0  0  0  0  0  0
  -16.9290  -28.1080   22.9270 C   0  0  0  0  0  3  0  0  0  0  0  0
  -25.9400  -32.4850   23.6340 C   0  0  0  0  0  3  0  0  0  0  0  0
  -26.5370  -31.6620   24.8420 C   0  0  1  0  0  0  0  0  0  0  0  0
  -25.4970  -31.3130   25.9320 C   0  0  0  0  0  1  0  0  0  0  0  0
  -27.1630  -30.3360   24.3530 C   0  0  0  0  0  1  0  0  0  0  0  0
  -27.6770  -32.4650   25.5120 C   0  0  0  0  0  1  0  0  0  0  0  0
  -25.5670  -33.8400   24.0830 N   0  0  0  0  0  0  0  0  0  0  0  0
  -25.8090  -34.9690   23.4040 C   0  0  0  0  0  0  0  0  0  0  0  0
  -26.4310  -34.9840   22.3390 O   0  0  0  0  0  0  0  0  0  0  0  0
  -25.0060  -33.8970   24.9200 H   0  0  0  0  0  0  0  0  0  0  0  0
  -23.9700  -36.6880   23.3000 C   0  0  0  0  0  1  0  0  0  0  0  0
  -25.2810  -36.2920   23.9990 C   0  0  0  0  0  3  0  0  0  0  0  0
  -27.4100  -37.2410   24.7740 C   0  0  0  0  0  1  0  0  0  0  0  0
  -26.2470  -37.4080   23.9060 N   0  0  0  0  0  0  0  0  0  0  0  0
  -25.8000  -38.2900   24.1430 H   0  0  0  0  0  0  0  0  0  0  0  0
  1  3  1  0
  2  4  1  0
  3  9  1  0
  4 49  1  0
  4  3  1  0
  5 12  1  0
  5  1  1  0
  6  2  1  0
  6  5  1  0
  7  6  1  0
  8  6  1  0
  9 10  2  0
 10 11  1  0
 12 13  1  0
 13 19  1  0
 14 19  1  0
 15 16  1  0
 15 14  1  0
 17 16  1  0
 17 24  1  0
 17 18  1  0
 19 18  1  0
 20 13  2  0
 21 22  2  0
 22 41  1  0
 23 22  1  0
 23 26  1  0
 24 21  1  0
 24 25  1  0
 25 23  2  0
 26 27  1  0
 27 28  2  0
 29 32  1  0
 29 28  1  0
 30 29  2  0
 31 30  1  0
 31 26  2  0
 32 33  1  0
 33 38  2  0
 33 34  1  0
 34 35  2  0
 36 35  1  0
 36 40  1  0
 37 36  2  0
 38 37  1  0
 39 38  1  0
 41 42  1  0
 42 45  1  0
 42 44  1  0
 43 41  2  0
 46 47  1  0
 46 21  1  0
 48 46  1  0
 50 52  1  0
 50 49  1  0
 51 62  2  0
 52 57  1  0
 53 61  1  0
 53 63  1  0
 54 60  1  0
 54 56  1  0
 55 61  1  0
 56 55  1  0
 57 56  2  0
 58 59  1  0
 58 52  2  0
 59 54  2  0
 60 53  1  0
 61 51  1  0
 63 65  2  0
 64 63  1  0
 66 64  1  0
 67 76  2  0
 67 72  1  0
 68 64  1  0
 68 72  1  0
 69 68  1  0
 70 71  1  0
 70 69  1  0
 71 67  1  0
 72 73  2  0
 73 74  1  0
 75 74  2  0
 76 75  1  0
 77 51  1  0
 77 82  1  0
 77 78  1  0
 78 81  1  1
 78 79  1  0
 80 78  1  0
 82 85  1  0
 83 87  1  0
 83 82  1  0
 84 83  2  0
 87 86  1  0
 89 87  1  0
 89 90  1  0
 89 88  1  0
M  ISO  4  12 100  13 100  49 101  50 101
M  END
>  <TORSDO>  (52) 
F 19

>  <SCORE>  (52) 
-14.664

>  <name>  (52) 
51

>  <ligand_id>  (52) 
51

>  <original_smiles>  (52) 
[H]N=C([H])C1([H])C([H])([H])C([H])(C([H])([H])C(=O)N2C([H])([H])C([H])([H])C([H])([H])C([H])(n3nc(-c4c([H])c([H])c(Oc5c([H])c([H])c(F)c([H])c5F)c([H])c4[H])c(C(=O)N([H])[H])c3N([H])[H])C2([H])[H])[N+]([H])([H])C([H])([H])C1([H])C([H])([H])Oc1c([H])c([H])c2c(c1[H])C([H])([H])N(C(=O)C([H])(N([H])C(=O)C([H])(N([H])C([H])([H])[H])C([H])([H])[H])C(C([H])([H])[H])(C([H])([H])[H])C([H])([H])[H])C([H])(C(=O)N([H])C1([H])c3c([H])c([H])c([H])c([H])c3C([H])([H])C([H])([H])C1([H])[H])C2([H])[H]

>  <smiles>  (52) 
[H]N=C([H])C1([H])C([H])([H])C([H])(C([H])([H])C(=O)N2C([H])([H])C([H])([H])C([H])([H])C([H])(n3nc(-c4c([H])c([H])c(Oc5c([H])c([H])c(F)c([H])c5F)c([H])c4[H])c(C(=O)N([H])[H])c3N([H])[H])C2([H])[H])[N+]([H])([H])C([H])([H])C1([H])C([H])([H])Oc1c([H])c([H])c2c(c1[H])C([H])([H])N(C(=O)C([H])(N([H])C(=O)C([H])(N([H])C([H])([H])[H])C([H])([H])[H])C(C([H])([H])[H])(C([H])([H])[H])C([H])([H])[H])C([H])(C(=O)N([H])C1([H])c3c([H])c([H])c([H])c([H])c3C([H])([H])C([H])([H])C1([H])[H])C2([H])[H]

$$$$
52:0:0
     RDKit          3D

 90 98  0  0  1  0  0  0  0  0999 V2000
  -29.4610  -20.5960   21.4700 C   0  0  0  0  0  2  0  0  0  0  0  0
  -28.7600  -22.0900   21.4880 C   0  0  0  0  0  2  0  0  0  0  0  0
  -28.3280  -21.8090   19.1580 C   0  0  0  0  0  2  0  0  0  0  0  0
  -29.0540  -19.4970   20.3650 C   0  0  0  0  0  3  0  0  0  0  0  0
  -28.7320  -23.0160   20.1740 C   0  0  0  0  0  3  0  0  0  0  0  0
  -29.0840  -20.4370   19.1550 N   0  0  0  0  0  4  0  0  0  0  0  0
  -30.0540  -20.6210   18.9530 H   0  0  0  0  0  0  0  0  0  0  0  0
  -28.7340  -19.9100   18.3720 H   0  0  0  0  0  0  0  0  0  0  0  0
  -29.5700  -16.5950   20.4240 C   0  0  0  0  0  3  0  0  0  0  0  0
  -29.8920  -18.0070   20.2640 C   0  0  0  0  0  0  0  0  0  0  0  0
  -30.4240  -15.2530   20.2650 C   0  0  0  0  0  0  0  0  0  0  0  0
  -30.3830  -12.8380   19.3880 C   0  0  0  0  0  2  0  0  0  0  0  0
  -29.4510  -12.7040   18.1590 C   0  0  0  0  0  2  0  0  0  0  0  0
  -28.0010  -12.4380   18.6060 C   0  0  0  0  0  2  0  0  0  0  0  0
  -27.5640  -13.3830   19.7530 C   0  0  0  0  0  3  0  0  0  0  0  0
  -28.6220  -13.4800   20.8700 C   0  0  0  0  0  2  0  0  0  0  0  0
  -29.8700  -13.9520   20.2550 N   0  0  0  0  0  0  0  0  0  0  0  0
  -31.6320  -15.2750   19.9860 O   0  0  0  0  0  0  0  0  0  0  0  0
  -25.1980  -13.9230   20.5480 C   0  0  0  0  0  0  0  0  0  0  0  0
  -24.1450  -13.1360   20.9210 C   0  0  0  0  0  0  0  0  0  0  0  0
  -24.6160  -11.7890   20.8590 C   0  0  0  0  0  0  0  0  0  0  0  0
  -26.2410  -13.0570   20.2720 N   0  0  0  0  0  0  0  0  0  0  0  0
  -25.9030  -11.7660   20.5270 N   0  0  0  0  0  0  0  0  0  0  0  0
  -23.8950  -10.5210   21.0390 C   0  0  0  0  0  0  0  0  0  0  0  0
  -24.3240   -9.5550   21.9730 C   0  0  0  0  0  3  0  0  0  0  0  0
  -23.6040   -8.3510   22.1420 C   0  0  0  0  0  3  0  0  0  0  0  0
  -22.4390   -8.1090   21.3770 C   0  0  0  0  0  0  0  0  0  0  0  0
  -22.0280   -9.0650   20.4330 C   0  0  0  0  0  3  0  0  0  0  0  0
  -22.7480  -10.2580   20.2620 C   0  0  0  0  0  3  0  0  0  0  0  0
  -21.6900   -6.9600   21.4540 O   0  0  0  0  0  0  0  0  0  0  0  0
  -21.6080   -6.2310   22.6130 C   0  0  0  0  0  0  0  0  0  0  0  0
  -21.1020   -6.7880   23.8080 C   0  0  0  0  0  3  0  0  0  0  0  0
  -20.9710   -5.9830   24.9580 C   0  0  0  0  0  3  0  0  0  0  0  0
  -21.3340   -4.6240   24.9120 C   0  0  0  0  0  0  0  0  0  0  0  0
  -21.8310   -4.0680   23.7210 C   0  0  0  0  0  3  0  0  0  0  0  0
  -21.9670   -4.8700   22.5740 C   0  0  0  0  0  0  0  0  0  0  0  0
  -22.4280   -4.3230   21.4220 F   0  0  0  0  0  0  0  0  0  0  0  0
  -21.1990   -3.8500   26.0140 F   0  0  0  0  0  0  0  0  0  0  0  0
  -22.7500  -13.6040   21.2170 C   0  0  0  0  0  0  0  0  0  0  0  0
  -22.0340  -12.8960   22.0830 N   0  0  0  0  0  0  0  0  0  0  0  0
  -22.3040  -14.6360   20.7160 O   0  0  0  0  0  0  0  0  0  0  0  0
  -22.4110  -12.0650   22.5170 H   0  0  0  0  0  0  0  0  0  0  0  0
  -21.1000  -13.1970   22.3230 H   0  0  0  0  0  0  0  0  0  0  0  0
  -25.3490  -15.2980   20.3920 N   0  0  0  0  0  0  0  0  0  0  0  0
  -24.5640  -15.9310   20.5040 H   0  0  0  0  0  0  0  0  0  0  0  0
  -26.1680  -15.7490   20.0060 H   0  0  0  0  0  0  0  0  0  0  0  0
  -31.1480  -18.3390   19.9370 O   0  0  0  0  0  0  0  0  0  0  0  0
  -31.6560  -17.5360   19.8880 H   0  0  0  0  0  0  0  0  0  0  0  0
  -27.8310  -24.5250   20.1040 C   0  0  0  0  0  2  0  0  0  0  0  0
  -28.1460  -26.0870   20.2990 O   0  0  0  0  0  0  0  0  0  0  0  0
  -24.6090  -31.9570   23.2550 C   0  0  0  0  0  0  0  0  0  0  0  0
  -27.1310  -27.1440   20.2300 C   0  0  0  0  0  0  0  0  0  0  0  0
  -23.4010  -30.5730   21.6180 C   0  0  0  0  0  3  0  0  0  0  0  0
  -24.8340  -28.9770   20.1900 C   0  0  0  0  0  0  0  0  0  0  0  0
  -25.9620  -30.7930   21.4570 C   0  0  0  0  0  2  0  0  0  0  0  0
  -26.0220  -29.3920   20.8040 C   0  0  0  0  0  0  0  0  0  0  0  0
  -27.1690  -28.4950   20.8010 C   0  0  0  0  0  3  0  0  0  0  0  0
  -25.9140  -26.8580   19.5710 C   0  0  0  0  0  3  0  0  0  0  0  0
  -24.7990  -27.7270   19.5550 C   0  0  0  0  0  3  0  0  0  0  0  0
  -23.6190  -29.8960   20.2390 C   0  0  0  0  0  2  0  0  0  0  0  0
  -24.6780  -31.1330   22.1640 N   0  0  0  0  0  0  0  0  0  0  0  0
  -23.5250  -32.2510   23.7820 O   0  0  0  0  0  0  0  0  0  0  0  0
  -22.7100  -29.5730   22.5800 C   0  0  0  0  0  0  0  0  0  0  0  0
  -21.3810  -29.4050   22.4500 N   0  0  0  0  0  0  0  0  0  0  0  0
  -23.3730  -28.9480   23.4130 O   0  0  0  0  0  0  0  0  0  0  0  0
  -20.9000  -29.9580   21.7530 H   0  0  0  0  0  0  0  0  0  0  0  0
  -17.9920  -28.2200   22.9530 C   0  0  0  0  0  0  0  0  0  0  0  0
  -20.5530  -28.4740   23.2210 C   0  0  0  0  0  3  0  0  0  0  0  0
  -20.6470  -27.0390   22.6490 C   0  0  0  0  0  2  0  0  0  0  0  0
  -19.5450  -26.7200   21.6350 C   0  0  0  0  0  2  0  0  0  0  0  0
  -18.1640  -26.8700   22.2770 C   0  0  0  0  0  2  0  0  0  0  0  0
  -19.1130  -28.9800   23.3830 C   0  0  0  0  0  0  0  0  0  0  0  0
  -18.8960  -30.2410   23.9780 C   0  0  0  0  0  3  0  0  0  0  0  0
  -17.5930  -30.7440   24.1480 C   0  0  0  0  0  3  0  0  0  0  0  0
  -16.4870  -29.9820   23.7320 C   0  0  0  0  0  3  0  0  0  0  0  0
  -16.6870  -28.7230   23.1410 C   0  0  0  0  0  3  0  0  0  0  0  0
  -25.8890  -32.5890   23.8830 C   0  0  0  0  0  3  0  0  0  0  0  0
  -26.3910  -31.8200   25.1670 C   0  0  1  0  0  0  0  0  0  0  0  0
  -25.2890  -31.5920   26.2300 C   0  0  0  0  0  1  0  0  0  0  0  0
  -26.9670  -30.4360   24.7900 C   0  0  0  0  0  1  0  0  0  0  0  0
  -27.5430  -32.6090   25.8330 C   0  0  0  0  0  1  0  0  0  0  0  0
  -25.5820  -33.9910   24.2150 N   0  0  0  0  0  0  0  0  0  0  0  0
  -25.8970  -35.0450   23.4510 C   0  0  0  0  0  0  0  0  0  0  0  0
  -26.5390  -34.9400   22.4030 O   0  0  0  0  0  0  0  0  0  0  0  0
  -25.0050  -34.1440   25.0290 H   0  0  0  0  0  0  0  0  0  0  0  0
  -24.1540  -36.8390   23.1590 C   0  0  0  0  0  1  0  0  0  0  0  0
  -25.4250  -36.4360   23.9230 C   0  0  0  0  0  3  0  0  0  0  0  0
  -27.5860  -37.3320   24.6730 C   0  0  0  0  0  1  0  0  0  0  0  0
  -26.4510  -37.4910   23.7680 N   0  0  0  0  0  0  0  0  0  0  0  0
  -26.0470  -38.4110   23.9250 H   0  0  0  0  0  0  0  0  0  0  0  0
  1  2  1  0
  3  5  1  0
  4 10  1  0
  4  1  1  0
  5 49  1  0
  5  2  1  0
  6  3  1  0
  6  4  1  0
  7  6  1  0
  8  6  1  0
 10  9  2  0
 11  9  1  0
 12 17  1  0
 13 14  1  0
 13 12  1  0
 15 14  1  0
 15 22  1  0
 15 16  1  0
 17 11  1  0
 17 16  1  0
 18 11  2  0
 19 20  2  0
 20 39  1  0
 21 20  1  0
 21 24  1  0
 22 23  1  0
 22 19  1  0
 23 21  2  0
 24 25  1  0
 25 26  2  0
 27 30  1  0
 27 26  1  0
 28 27  2  0
 29 28  1  0
 29 24  2  0
 30 31  1  0
 31 32  1  0
 32 33  2  0
 34 33  1  0
 34 38  1  0
 35 34  2  0
 36 31  2  0
 36 35  1  0
 37 36  1  0
 39 40  1  0
 40 43  1  0
 40 42  1  0
 41 39  2  0
 44 45  1  0
 44 19  1  0
 46 44  1  0
 47 10  1  0
 48 47  1  0
 49 50  1  0
 51 62  2  0
 52 50  1  0
 52 57  1  0
 53 61  1  0
 53 63  1  0
 54 60  1  0
 54 56  1  0
 55 61  1  0
 56 55  1  0
 57 56  2  0
 58 52  2  0
 59 58  1  0
 59 54  2  0
 60 53  1  0
 61 51  1  0
 63 65  2  0
 64 63  1  0
 66 64  1  0
 67 76  2  0
 67 72  1  0
 68 64  1  0
 68 72  1  0
 69 68  1  0
 70 71  1  0
 70 69  1  0
 71 67  1  0
 72 73  2  0
 73 74  1  0
 75 74  2  0
 76 75  1  0
 77 51  1  0
 77 82  1  0
 77 78  1  0
 78 81  1  1
 78 79  1  0
 80 78  1  0
 82 85  1  0
 83 87  1  0
 83 82  1  0
 84 83  2  0
 87 86  1  0
 89 87  1  0
 89 90  1  0
 89 88  1  0
M  ISO  4   9 100  11 100  49 101  50 101
M  END
>  <TORSDO>  (53) 
F 19

>  <SCORE>  (53) 
-15.465

>  <name>  (53) 
52

>  <ligand_id>  (53) 
52

>  <original_smiles>  (53) 
[H]OC(=C([H])C(=O)N1C([H])([H])C([H])([H])C([H])([H])C([H])(n2nc(-c3c([H])c([H])c(Oc4c([H])c([H])c(F)c([H])c4F)c([H])c3[H])c(C(=O)N([H])[H])c2N([H])[H])C1([H])[H])C1([H])C([H])([H])C([H])([H])C([H])(C([H])([H])Oc2c([H])c([H])c3c(c2[H])C([H])([H])N(C(=O)C([H])(N([H])C(=O)C([H])(N([H])C([H])([H])[H])C([H])([H])[H])C(C([H])([H])[H])(C([H])([H])[H])C([H])([H])[H])C([H])(C(=O)N([H])C2([H])c4c([H])c([H])c([H])c([H])c4C([H])([H])C([H])([H])C2([H])[H])C3([H])[H])C([H])([H])[N+]1([H])[H]

>  <smiles>  (53) 
[H]OC(=C([H])C(=O)N1C([H])([H])C([H])([H])C([H])([H])C([H])(n2nc(-c3c([H])c([H])c(Oc4c([H])c([H])c(F)c([H])c4F)c([H])c3[H])c(C(=O)N([H])[H])c2N([H])[H])C1([H])[H])C1([H])C([H])([H])C([H])([H])C([H])(C([H])([H])Oc2c([H])c([H])c3c(c2[H])C([H])([H])N(C(=O)C([H])(N([H])C(=O)C([H])(N([H])C([H])([H])[H])C([H])([H])[H])C(C([H])([H])[H])(C([H])([H])[H])C([H])([H])[H])C([H])(C(=O)N([H])C2([H])c4c([H])c([H])c([H])c([H])c4C([H])([H])C([H])([H])C2([H])[H])C3([H])[H])C([H])([H])[N+]1([H])[H]

$$$$
53:0:0
     RDKit          3D

 85 92  0  0  1  0  0  0  0  0999 V2000
  -28.7620  -22.7880   20.5970 C   0  0  0  0  0  2  0  0  0  0  0  0
  -28.9600  -21.1980   19.9150 C   0  0  0  0  0  0  0  0  0  0  0  0
  -28.9380  -21.1750   18.6830 O   0  0  0  0  0  0  0  0  0  0  0  0
  -29.1860  -19.6300   20.6430 C   0  0  0  0  0  2  0  0  0  0  0  0
  -29.8830  -18.1020   20.0150 C   0  0  0  0  0  2  0  0  0  0  0  0
  -30.4300  -15.2340   20.2390 C   0  0  0  0  0  0  0  0  0  0  0  0
  -30.3650  -12.8030   19.3570 C   0  0  0  0  0  2  0  0  0  0  0  0
  -29.4320  -12.6430   18.1300 C   0  0  0  0  0  2  0  0  0  0  0  0
  -27.9840  -12.3900   18.5790 C   0  0  0  0  0  2  0  0  0  0  0  0
  -27.5570  -13.3410   19.7250 C   0  0  0  0  0  3  0  0  0  0  0  0
  -28.6160  -13.4540   20.8440 C   0  0  0  0  0  2  0  0  0  0  0  0
  -29.8530  -13.9360   20.2110 N   0  0  0  0  0  0  0  0  0  0  0  0
  -31.6310  -15.2420   19.9380 O   0  0  0  0  0  0  0  0  0  0  0  0
  -29.6780  -16.4950   20.3960 N   0  0  0  0  0  0  0  0  0  0  0  0
  -28.7280  -16.2970   20.6790 H   0  0  0  0  0  0  0  0  0  0  0  0
  -25.1900  -13.9060   20.4890 C   0  0  0  0  0  0  0  0  0  0  0  0
  -24.1310  -13.1300   20.8690 C   0  0  0  0  0  0  0  0  0  0  0  0
  -24.5970  -11.7790   20.8420 C   0  0  0  0  0  0  0  0  0  0  0  0
  -26.2310  -13.0290   20.2420 N   0  0  0  0  0  0  0  0  0  0  0  0
  -25.8860  -11.7440   20.5230 N   0  0  0  0  0  0  0  0  0  0  0  0
  -23.8710  -10.5180   21.0420 C   0  0  0  0  0  0  0  0  0  0  0  0
  -24.3180   -9.5450   21.9610 C   0  0  0  0  0  3  0  0  0  0  0  0
  -23.5890   -8.3500   22.1510 C   0  0  0  0  0  3  0  0  0  0  0  0
  -22.3990   -8.1210   21.4200 C   0  0  0  0  0  0  0  0  0  0  0  0
  -21.9710   -9.0830   20.4880 C   0  0  0  0  0  3  0  0  0  0  0  0
  -22.7000  -10.2680   20.2970 C   0  0  0  0  0  3  0  0  0  0  0  0
  -21.6410   -6.9800   21.5200 O   0  0  0  0  0  0  0  0  0  0  0  0
  -21.6270   -6.2220   22.6640 C   0  0  0  0  0  0  0  0  0  0  0  0
  -21.2630   -6.7670   23.9150 C   0  0  0  0  0  3  0  0  0  0  0  0
  -21.1950   -5.9360   25.0510 C   0  0  0  0  0  3  0  0  0  0  0  0
  -21.4810   -4.5630   24.9390 C   0  0  0  0  0  0  0  0  0  0  0  0
  -21.8390   -4.0180   23.6930 C   0  0  0  0  0  3  0  0  0  0  0  0
  -21.9080   -4.8450   22.5580 C   0  0  0  0  0  0  0  0  0  0  0  0
  -22.2320   -4.3100   21.3570 F   0  0  0  0  0  0  0  0  0  0  0  0
  -21.4100   -3.7630   26.0290 F   0  0  0  0  0  0  0  0  0  0  0  0
  -22.7340  -13.6080   21.1430 C   0  0  0  0  0  0  0  0  0  0  0  0
  -22.0110  -12.9200   22.0180 N   0  0  0  0  0  0  0  0  0  0  0  0
  -22.2950  -14.6290   20.6140 O   0  0  0  0  0  0  0  0  0  0  0  0
  -22.3810  -12.0950   22.4680 H   0  0  0  0  0  0  0  0  0  0  0  0
  -21.0740  -13.2230   22.2450 H   0  0  0  0  0  0  0  0  0  0  0  0
  -25.3480  -15.2750   20.3020 N   0  0  0  0  0  0  0  0  0  0  0  0
  -24.5760  -15.9250   20.4090 H   0  0  0  0  0  0  0  0  0  0  0  0
  -26.1800  -15.7100   19.9260 H   0  0  0  0  0  0  0  0  0  0  0  0
  -28.0590  -24.3070   19.9580 C   0  0  0  0  0  2  0  0  0  0  0  0
  -28.1940  -25.9030   20.3170 O   0  0  0  0  0  0  0  0  0  0  0  0
  -24.6280  -31.8490   23.2070 C   0  0  0  0  0  0  0  0  0  0  0  0
  -27.1760  -26.9790   20.2100 C   0  0  0  0  0  0  0  0  0  0  0  0
  -23.4260  -30.4410   21.5840 C   0  0  0  0  0  3  0  0  0  0  0  0
  -24.8690  -28.8330   20.1600 C   0  0  0  0  0  0  0  0  0  0  0  0
  -25.9880  -30.6620   21.4210 C   0  0  0  0  0  2  0  0  0  0  0  0
  -26.0560  -29.2510   20.7740 C   0  0  0  0  0  0  0  0  0  0  0  0
  -27.2020  -28.3420   20.7780 C   0  0  0  0  0  3  0  0  0  0  0  0
  -25.9620  -26.7090   19.5370 C   0  0  0  0  0  3  0  0  0  0  0  0
  -24.8450  -27.5830   19.5220 C   0  0  0  0  0  3  0  0  0  0  0  0
  -23.6460  -29.7490   20.2100 C   0  0  0  0  0  2  0  0  0  0  0  0
  -24.7030  -31.0120   22.1230 N   0  0  0  0  0  0  0  0  0  0  0  0
  -23.5420  -32.1410   23.7330 O   0  0  0  0  0  0  0  0  0  0  0  0
  -22.7400  -29.4500   22.5600 C   0  0  0  0  0  0  0  0  0  0  0  0
  -21.4090  -29.2850   22.4450 N   0  0  0  0  0  0  0  0  0  0  0  0
  -23.4110  -28.8310   23.3880 O   0  0  0  0  0  0  0  0  0  0  0  0
  -20.9200  -29.8370   21.7530 H   0  0  0  0  0  0  0  0  0  0  0  0
  -18.0320  -28.0720   22.9730 C   0  0  0  0  0  0  0  0  0  0  0  0
  -20.5910  -28.3540   23.2280 C   0  0  0  0  0  3  0  0  0  0  0  0
  -20.6980  -26.9150   22.6700 C   0  0  0  0  0  2  0  0  0  0  0  0
  -19.5950  -26.5760   21.6620 C   0  0  0  0  0  2  0  0  0  0  0  0
  -18.2140  -26.7180   22.3080 C   0  0  0  0  0  2  0  0  0  0  0  0
  -19.1470  -28.8470   23.3910 C   0  0  0  0  0  0  0  0  0  0  0  0
  -18.9190  -30.1110   23.9770 C   0  0  0  0  0  3  0  0  0  0  0  0
  -17.6110  -30.6020   24.1470 C   0  0  0  0  0  3  0  0  0  0  0  0
  -16.5120  -29.8250   23.7420 C   0  0  0  0  0  3  0  0  0  0  0  0
  -16.7220  -28.5630   23.1620 C   0  0  0  0  0  3  0  0  0  0  0  0
  -25.9030  -32.4970   23.8270 C   0  0  0  0  0  3  0  0  0  0  0  0
  -26.4240  -31.7340   25.1090 C   0  0  1  0  0  0  0  0  0  0  0  0
  -25.3340  -31.5040   26.1830 C   0  0  0  0  0  1  0  0  0  0  0  0
  -27.0060  -30.3530   24.7320 C   0  0  0  0  0  1  0  0  0  0  0  0
  -27.5760  -32.5330   25.7610 C   0  0  0  0  0  1  0  0  0  0  0  0
  -25.5820  -33.8940   24.1660 N   0  0  0  0  0  0  0  0  0  0  0  0
  -25.9000  -34.9590   23.4150 C   0  0  0  0  0  0  0  0  0  0  0  0
  -26.5550  -34.8670   22.3750 O   0  0  0  0  0  0  0  0  0  0  0  0
  -24.9970  -34.0390   24.9740 H   0  0  0  0  0  0  0  0  0  0  0  0
  -24.1520  -36.7470   23.1150 C   0  0  0  0  0  1  0  0  0  0  0  0
  -25.4150  -36.3430   23.8930 C   0  0  0  0  0  3  0  0  0  0  0  0
  -27.5640  -37.2390   24.6770 C   0  0  0  0  0  1  0  0  0  0  0  0
  -26.4380  -37.4050   23.7610 N   0  0  0  0  0  0  0  0  0  0  0  0
  -26.0290  -38.3210   23.9230 H   0  0  0  0  0  0  0  0  0  0  0  0
  2  1  1  0
  2  4  1  0
  3  2  2  0
  5 14  1  0
  5  4  1  0
  6 14  1  0
  7 12  1  0
  8  9  1  0
  8  7  1  0
 10  9  1  0
 10 19  1  0
 10 11  1  0
 12  6  1  0
 12 11  1  0
 13  6  2  0
 14 15  1  0
 16 17  2  0
 17 36  1  0
 18 17  1  0
 18 21  1  0
 19 16  1  0
 19 20  1  0
 20 18  2  0
 21 22  1  0
 22 23  2  0
 24 27  1  0
 24 23  1  0
 25 24  2  0
 26 25  1  0
 26 21  2  0
 27 28  1  0
 28 29  1  0
 29 30  2  0
 31 30  1  0
 31 35  1  0
 32 31  2  0
 33 28  2  0
 33 32  1  0
 34 33  1  0
 36 37  1  0
 37 40  1  0
 37 39  1  0
 38 36  2  0
 41 42  1  0
 41 16  1  0
 43 41  1  0
 44 45  1  0
 44  1  1  0
 46 57  2  0
 47 45  1  0
 47 52  1  0
 48 56  1  0
 48 58  1  0
 49 55  1  0
 49 51  1  0
 50 56  1  0
 51 52  2  0
 51 50  1  0
 53 47  2  0
 54 53  1  0
 54 49  2  0
 55 48  1  0
 56 46  1  0
 58 60  2  0
 59 58  1  0
 61 59  1  0
 62 71  2  0
 62 67  1  0
 63 59  1  0
 63 67  1  0
 64 63  1  0
 65 66  1  0
 65 64  1  0
 66 62  1  0
 67 68  2  0
 68 69  1  0
 70 69  2  0
 71 70  1  0
 72 46  1  0
 72 77  1  0
 72 73  1  0
 73 76  1  1
 73 74  1  0
 75 73  1  0
 77 80  1  0
 78 82  1  0
 78 77  1  0
 79 78  2  0
 82 81  1  0
 84 82  1  0
 84 85  1  0
 84 83  1  0
M  ISO  4   6 100  14 100  44 101  45 101
M  END
>  <TORSDO>  (54) 
F 20

>  <SCORE>  (54) 
-15.550

>  <name>  (54) 
53

>  <ligand_id>  (54) 
53

>  <original_smiles>  (54) 
[H]c1c([H])c([H])c2c(c1[H])C([H])([H])C([H])([H])C([H])([H])C2([H])N([H])C(=O)C1([H])N(C(=O)C([H])(N([H])C(=O)C([H])(N([H])C([H])([H])[H])C([H])([H])[H])C(C([H])([H])[H])(C([H])([H])[H])C([H])([H])[H])C([H])([H])c2c([H])c(OC([H])([H])C([H])([H])C(=O)C([H])([H])C([H])([H])N([H])C(=O)N3C([H])([H])C([H])([H])C([H])([H])C([H])(n4nc(-c5c([H])c([H])c(Oc6c([H])c([H])c(F)c([H])c6F)c([H])c5[H])c(C(=O)N([H])[H])c4N([H])[H])C3([H])[H])c([H])c([H])c2C1([H])[H]

>  <smiles>  (54) 
[H]c1c([H])c([H])c2c(c1[H])C([H])([H])C([H])([H])C([H])([H])C2([H])N([H])C(=O)C1([H])N(C(=O)C([H])(N([H])C(=O)C([H])(N([H])C([H])([H])[H])C([H])([H])[H])C(C([H])([H])[H])(C([H])([H])[H])C([H])([H])[H])C([H])([H])c2c([H])c(OC([H])([H])C([H])([H])C(=O)C([H])([H])C([H])([H])N([H])C(=O)N3C([H])([H])C([H])([H])C([H])([H])C([H])(n4nc(-c5c([H])c([H])c(Oc6c([H])c([H])c(F)c([H])c6F)c([H])c5[H])c(C(=O)N([H])[H])c4N([H])[H])C3([H])[H])c([H])c([H])c2C1([H])[H]

$$$$
54:0:0
     RDKit          3D

 88 96  0  0  1  0  0  0  0  0999 V2000
  -29.5600  -20.0940   20.0810 C   0  0  0  0  0  3  0  0  0  0  0  0
  -29.1970  -21.2990   19.2840 C   0  0  0  0  0  0  0  0  0  0  0  0
  -29.5610  -20.7180   21.4280 C   0  0  0  0  0  0  0  0  0  0  0  0
  -29.0770  -22.2320   21.4650 C   0  0  0  0  0  2  0  0  0  0  0  0
  -29.0870  -22.8540   20.0210 C   0  0  0  0  0  3  0  0  0  0  0  0
  -29.0720  -21.4210   18.0450 O   0  0  0  0  0  0  0  0  0  0  0  0
  -29.8940  -20.1270   22.4540 O   0  0  0  0  0  0  0  0  0  0  0  0
  -30.1690  -18.4670   19.7080 C   0  0  0  0  0  2  0  0  0  0  0  0
  -30.5710  -15.5410   19.9610 C   0  0  0  0  0  0  0  0  0  0  0  0
  -30.4900  -13.0680   19.1500 C   0  0  0  0  0  2  0  0  0  0  0  0
  -29.5450  -12.8400   17.9420 C   0  0  0  0  0  2  0  0  0  0  0  0
  -28.1050  -12.5930   18.4190 C   0  0  0  0  0  2  0  0  0  0  0  0
  -27.6890  -13.5860   19.5320 C   0  0  0  0  0  3  0  0  0  0  0  0
  -28.7610  -13.7560   20.6300 C   0  0  0  0  0  2  0  0  0  0  0  0
  -29.9800  -14.2390   19.9610 N   0  0  0  0  0  0  0  0  0  0  0  0
  -31.7770  -15.5010   19.6770 O   0  0  0  0  0  0  0  0  0  0  0  0
  -29.8530  -16.8510   20.0740 N   0  0  0  0  0  0  0  0  0  0  0  0
  -28.8860  -16.6960   20.3260 H   0  0  0  0  0  0  0  0  0  0  0  0
  -25.3680  -14.1930   20.3910 C   0  0  0  0  0  0  0  0  0  0  0  0
  -24.2920  -13.4400   20.7660 C   0  0  0  0  0  0  0  0  0  0  0  0
  -24.7090  -12.0780   20.6670 C   0  0  0  0  0  0  0  0  0  0  0  0
  -26.3690  -13.2940   20.0760 N   0  0  0  0  0  0  0  0  0  0  0  0
  -25.9870  -12.0110   20.3100 N   0  0  0  0  0  0  0  0  0  0  0  0
  -23.9420  -10.8350   20.8340 C   0  0  0  0  0  0  0  0  0  0  0  0
  -24.3620   -9.8190   21.7210 C   0  0  0  0  0  3  0  0  0  0  0  0
  -23.5940   -8.6440   21.8780 C   0  0  0  0  0  3  0  0  0  0  0  0
  -22.3910   -8.4780   21.1500 C   0  0  0  0  0  0  0  0  0  0  0  0
  -21.9910   -9.4830   20.2510 C   0  0  0  0  0  3  0  0  0  0  0  0
  -22.7590  -10.6480   20.0900 C   0  0  0  0  0  3  0  0  0  0  0  0
  -21.5950   -7.3610   21.2190 O   0  0  0  0  0  0  0  0  0  0  0  0
  -21.5460   -6.5820   22.3470 C   0  0  0  0  0  0  0  0  0  0  0  0
  -21.1340   -7.1010   23.5940 C   0  0  0  0  0  3  0  0  0  0  0  0
  -21.0310   -6.2490   24.7130 C   0  0  0  0  0  3  0  0  0  0  0  0
  -21.3290   -4.8800   24.5850 C   0  0  0  0  0  0  0  0  0  0  0  0
  -21.7350   -4.3600   23.3430 C   0  0  0  0  0  3  0  0  0  0  0  0
  -21.8400   -5.2090   22.2270 C   0  0  0  0  0  0  0  0  0  0  0  0
  -22.2100   -4.6980   21.0280 F   0  0  0  0  0  0  0  0  0  0  0  0
  -21.2240   -4.0590   25.6560 F   0  0  0  0  0  0  0  0  0  0  0  0
  -22.9240  -13.9560   21.0990 C   0  0  0  0  0  0  0  0  0  0  0  0
  -22.2030  -13.2630   21.9720 N   0  0  0  0  0  0  0  0  0  0  0  0
  -22.5050  -15.0090   20.6200 O   0  0  0  0  0  0  0  0  0  0  0  0
  -22.5550  -12.4110   22.3810 H   0  0  0  0  0  0  0  0  0  0  0  0
  -21.2840  -13.5900   22.2380 H   0  0  0  0  0  0  0  0  0  0  0  0
  -25.5720  -15.5640   20.2580 N   0  0  0  0  0  0  0  0  0  0  0  0
  -24.8290  -16.2360   20.4190 H   0  0  0  0  0  0  0  0  0  0  0  0
  -26.4130  -15.9880   19.8880 H   0  0  0  0  0  0  0  0  0  0  0  0
  -28.1130  -24.3620   19.6630 C   0  0  0  0  0  2  0  0  0  0  0  0
  -28.2510  -26.0050   19.9010 O   0  0  0  0  0  0  0  0  0  0  0  0
  -24.5640  -31.7950   23.0870 C   0  0  0  0  0  0  0  0  0  0  0  0
  -27.2050  -27.0790   19.8660 C   0  0  0  0  0  0  0  0  0  0  0  0
  -23.3750  -30.4020   21.4420 C   0  0  0  0  0  3  0  0  0  0  0  0
  -24.8400  -28.8890   19.9320 C   0  0  0  0  0  0  0  0  0  0  0  0
  -25.9280  -30.7050   21.2340 C   0  0  0  0  0  2  0  0  0  0  0  0
  -26.0300  -29.3150   20.5360 C   0  0  0  0  0  0  0  0  0  0  0  0
  -27.2020  -28.4320   20.4790 C   0  0  0  0  0  3  0  0  0  0  0  0
  -25.9800  -26.8120   19.2120 C   0  0  0  0  0  3  0  0  0  0  0  0
  -24.8410  -27.6600   19.2500 C   0  0  0  0  0  3  0  0  0  0  0  0
  -23.5910  -29.7640   20.0410 C   0  0  0  0  0  2  0  0  0  0  0  0
  -24.6450  -30.9950   21.9740 N   0  0  0  0  0  0  0  0  0  0  0  0
  -23.4800  -32.0310   23.6450 O   0  0  0  0  0  0  0  0  0  0  0  0
  -22.7430  -29.3580   22.3990 C   0  0  0  0  0  0  0  0  0  0  0  0
  -21.4250  -29.1110   22.2710 N   0  0  0  0  0  0  0  0  0  0  0  0
  -23.4450  -28.7690   23.2240 O   0  0  0  0  0  0  0  0  0  0  0  0
  -20.9080  -29.6400   21.5830 H   0  0  0  0  0  0  0  0  0  0  0  0
  -18.1360  -27.6490   22.7300 C   0  0  0  0  0  0  0  0  0  0  0  0
  -20.6630  -28.1160   23.0330 C   0  0  0  0  0  3  0  0  0  0  0  0
  -20.8850  -26.6930   22.4680 C   0  0  0  0  0  2  0  0  0  0  0  0
  -19.8280  -26.2820   21.4370 C   0  0  0  0  0  2  0  0  0  0  0  0
  -18.4290  -26.3180   22.0590 C   0  0  0  0  0  2  0  0  0  0  0  0
  -19.1840  -28.5000   23.1740 C   0  0  0  0  0  0  0  0  0  0  0  0
  -18.8540  -29.7390   23.7650 C   0  0  0  0  0  3  0  0  0  0  0  0
  -17.5100  -30.1310   23.9140 C   0  0  0  0  0  3  0  0  0  0  0  0
  -16.4780  -29.2790   23.4860 C   0  0  0  0  0  3  0  0  0  0  0  0
  -16.7910  -28.0410   22.8990 C   0  0  0  0  0  3  0  0  0  0  0  0
  -25.8280  -32.4670   23.7040 C   0  0  0  0  0  3  0  0  0  0  0  0
  -25.4810  -33.8590   24.0450 N   0  0  0  0  0  0  0  0  0  0  0  0
  -25.7800  -34.9310   23.2990 C   0  0  0  0  0  0  0  0  0  0  0  0
  -26.4380  -34.8530   22.2580 O   0  0  0  0  0  0  0  0  0  0  0  0
  -24.8930  -33.9910   24.8550 H   0  0  0  0  0  0  0  0  0  0  0  0
  -24.0010  -36.6900   23.0070 C   0  0  0  0  0  1  0  0  0  0  0  0
  -25.2730  -36.3060   23.7810 C   0  0  0  0  0  3  0  0  0  0  0  0
  -27.4000  -37.2490   24.5690 C   0  0  0  0  0  1  0  0  0  0  0  0
  -26.2760  -37.3850   23.6480 N   0  0  0  0  0  0  0  0  0  0  0  0
  -25.8490  -38.2950   23.8020 H   0  0  0  0  0  0  0  0  0  0  0  0
  -26.3660  -31.7150   24.9840 C   0  0  1  0  0  0  0  0  0  0  0  0
  -25.2840  -31.4620   26.0610 C   0  0  0  0  0  1  0  0  0  0  0  0
  -26.9760  -30.3460   24.6060 C   0  0  0  0  0  1  0  0  0  0  0  0
  -27.5030  -32.5370   25.6350 C   0  0  0  0  0  1  0  0  0  0  0  0
  1  8  1  0
  1  3  1  0
  2  5  1  0
  2  1  1  0
  3  4  1  0
  3  7  2  0
  5 47  1  0
  5  4  1  0
  6  2  2  0
  8 17  1  0
  9 17  1  0
 10 15  1  0
 11 12  1  0
 11 10  1  0
 13 12  1  0
 13 22  1  0
 13 14  1  0
 15  9  1  0
 15 14  1  0
 16  9  2  0
 17 18  1  0
 19 20  2  0
 20 39  1  0
 21 20  1  0
 21 24  1  0
 22 23  1  0
 22 19  1  0
 23 21  2  0
 24 25  1  0
 25 26  2  0
 27 30  1  0
 27 26  1  0
 28 27  2  0
 29 28  1  0
 29 24  2  0
 30 31  1  0
 31 32  1  0
 32 33  2  0
 34 33  1  0
 34 38  1  0
 35 34  2  0
 36 31  2  0
 36 35  1  0
 37 36  1  0
 39 40  1  0
 40 43  1  0
 40 42  1  0
 41 39  2  0
 44 19  1  0
 44 45  1  0
 46 44  1  0
 47 48  1  0
 49 60  2  0
 50 48  1  0
 50 55  1  0
 51 59  1  0
 51 61  1  0
 52 58  1  0
 52 54  1  0
 53 59  1  0
 54 53  1  0
 55 54  2  0
 56 57  1  0
 56 50  2  0
 57 52  2  0
 58 51  1  0
 59 49  1  0
 61 63  2  0
 62 61  1  0
 64 62  1  0
 65 74  2  0
 65 70  1  0
 66 62  1  0
 66 70  1  0
 67 66  1  0
 68 69  1  0
 68 67  1  0
 69 65  1  0
 70 71  2  0
 71 72  1  0
 73 72  2  0
 74 73  1  0
 75 49  1  0
 75 76  1  0
 75 85  1  0
 76 79  1  0
 77 81  1  0
 77 76  1  0
 78 77  2  0
 81 80  1  0
 83 81  1  0
 83 84  1  0
 83 82  1  0
 85 88  1  1
 85 86  1  0
 87 85  1  0
M  ISO  4   9 100  17 100  47 101  48 101
M  END
>  <TORSDO>  (55) 
F 18

>  <SCORE>  (55) 
-15.696

>  <name>  (55) 
54

>  <ligand_id>  (55) 
54

>  <original_smiles>  (55) 
[H]c1c([H])c([H])c2c(c1[H])C([H])([H])C([H])([H])C([H])([H])C2([H])N([H])C(=O)C1([H])N(C(=O)C([H])(N([H])C(=O)C([H])(N([H])C([H])([H])[H])C([H])([H])[H])C(C([H])([H])[H])(C([H])([H])[H])C([H])([H])[H])C([H])([H])c2c([H])c(OC([H])([H])C3([H])C([O-])=C(C([H])([H])N([H])C(=O)N4C([H])([H])C([H])([H])C([H])([H])C([H])(n5nc(-c6c([H])c([H])c(Oc7c([H])c([H])c(F)c([H])c7F)c([H])c6[H])c(C(=O)N([H])[H])c5N([H])[H])C4([H])[H])C(=O)C3([H])[H])c([H])c([H])c2C1([H])[H]

>  <smiles>  (55) 
[H]c1c([H])c([H])c2c(c1[H])C([H])([H])C([H])([H])C([H])([H])C2([H])N([H])C(=O)C1([H])N(C(=O)C([H])(N([H])C(=O)C([H])(N([H])C([H])([H])[H])C([H])([H])[H])C(C([H])([H])[H])(C([H])([H])[H])C([H])([H])[H])C([H])([H])c2c([H])c(OC([H])([H])C3([H])C([O-])=C(C([H])([H])N([H])C(=O)N4C([H])([H])C([H])([H])C([H])([H])C([H])(n5nc(-c6c([H])c([H])c(Oc7c([H])c([H])c(F)c([H])c7F)c([H])c6[H])c(C(=O)N([H])[H])c5N([H])[H])C4([H])[H])C(=O)C3([H])[H])c([H])c([H])c2C1([H])[H]

$$$$
55:0:0
     RDKit          3D

 87 94  0  0  1  0  0  0  0  0999 V2000
  -29.0630  -22.4400   20.2820 C   0  0  0  0  0  3  0  0  0  0  0  0
  -30.0960  -22.6020   19.2410 N   0  0  0  0  0  4  0  0  0  0  0  0
  -30.8370  -21.9330   19.3600 H   0  0  0  0  0  0  0  0  0  0  0  0
  -30.5000  -23.5220   19.2850 H   0  0  0  0  0  0  0  0  0  0  0  0
  -29.6970  -22.4800   18.3260 H   0  0  0  0  0  0  0  0  0  0  0  0
  -28.7400  -20.5650   20.2520 C   0  0  0  0  0  0  0  0  0  0  0  0
  -27.5440  -20.2790   20.1790 O   0  0  0  0  0  0  0  0  0  0  0  0
  -29.7500  -19.0420   20.2880 C   0  0  0  0  0  3  0  0  0  0  0  0
  -29.4450  -17.1770   20.3950 C   0  0  0  0  0  3  0  0  0  0  0  0
  -30.3190  -15.5770   20.1990 C   0  0  0  0  0  0  0  0  0  0  0  0
  -30.4050  -13.0690   19.3370 C   0  0  0  0  0  2  0  0  0  0  0  0
  -29.4870  -12.7760   18.1190 C   0  0  0  0  0  2  0  0  0  0  0  0
  -28.0560  -12.4410   18.5740 C   0  0  0  0  0  2  0  0  0  0  0  0
  -27.5780  -13.4010   19.6880 C   0  0  0  0  0  3  0  0  0  0  0  0
  -28.6260  -13.6340   20.7960 C   0  0  0  0  0  2  0  0  0  0  0  0
  -29.8280  -14.2130   20.1620 N   0  0  0  0  0  0  0  0  0  0  0  0
  -31.5380  -15.5640   19.9540 O   0  0  0  0  0  0  0  0  0  0  0  0
  -25.2140  -13.9090   20.4820 C   0  0  0  0  0  0  0  0  0  0  0  0
  -24.1650  -13.1170   20.8540 C   0  0  0  0  0  0  0  0  0  0  0  0
  -24.6480  -11.7720   20.8060 C   0  0  0  0  0  0  0  0  0  0  0  0
  -26.2640  -13.0510   20.2160 N   0  0  0  0  0  0  0  0  0  0  0  0
  -25.9390  -11.7580   20.4800 N   0  0  0  0  0  0  0  0  0  0  0  0
  -23.9350  -10.5020   20.9950 C   0  0  0  0  0  0  0  0  0  0  0  0
  -24.3680   -9.5410   21.9360 C   0  0  0  0  0  3  0  0  0  0  0  0
  -23.6520   -8.3390   22.1140 C   0  0  0  0  0  3  0  0  0  0  0  0
  -22.4870   -8.0850   21.3510 C   0  0  0  0  0  0  0  0  0  0  0  0
  -22.0720   -9.0340   20.4000 C   0  0  0  0  0  3  0  0  0  0  0  0
  -22.7900  -10.2300   20.2200 C   0  0  0  0  0  3  0  0  0  0  0  0
  -21.7430   -6.9330   21.4370 O   0  0  0  0  0  0  0  0  0  0  0  0
  -21.6690   -6.2070   22.5990 C   0  0  0  0  0  0  0  0  0  0  0  0
  -21.1750   -6.7690   23.7970 C   0  0  0  0  0  3  0  0  0  0  0  0
  -21.0520   -5.9680   24.9500 C   0  0  0  0  0  3  0  0  0  0  0  0
  -21.4110   -4.6080   24.9070 C   0  0  0  0  0  0  0  0  0  0  0  0
  -21.8980   -4.0470   23.7130 C   0  0  0  0  0  3  0  0  0  0  0  0
  -22.0240   -4.8430   22.5620 C   0  0  0  0  0  0  0  0  0  0  0  0
  -22.4730   -4.2920   21.4090 F   0  0  0  0  0  0  0  0  0  0  0  0
  -21.2860   -3.8370   26.0120 F   0  0  0  0  0  0  0  0  0  0  0  0
  -22.7650  -13.5780   21.1380 C   0  0  0  0  0  0  0  0  0  0  0  0
  -22.0540  -12.8780   22.0130 N   0  0  0  0  0  0  0  0  0  0  0  0
  -22.3140  -14.5970   20.6180 O   0  0  0  0  0  0  0  0  0  0  0  0
  -22.4330  -12.0540   22.4560 H   0  0  0  0  0  0  0  0  0  0  0  0
  -21.1150  -13.1710   22.2430 H   0  0  0  0  0  0  0  0  0  0  0  0
  -25.3570  -15.2850   20.3160 N   0  0  0  0  0  0  0  0  0  0  0  0
  -24.5820  -15.9240   20.4540 H   0  0  0  0  0  0  0  0  0  0  0  0
  -26.1970  -15.7430   19.9870 H   0  0  0  0  0  0  0  0  0  0  0  0
  -28.0080  -24.0040   20.1870 C   0  0  0  0  0  2  0  0  0  0  0  0
  -28.1970  -25.7130   20.3090 O   0  0  0  0  0  0  0  0  0  0  0  0
  -24.6670  -31.8740   23.2420 C   0  0  0  0  0  0  0  0  0  0  0  0
  -27.2020  -26.8730   20.2510 C   0  0  0  0  0  0  0  0  0  0  0  0
  -23.4730  -30.4800   21.6040 C   0  0  0  0  0  3  0  0  0  0  0  0
  -24.9200  -28.8450   20.1890 C   0  0  0  0  0  0  0  0  0  0  0  0
  -26.0470  -30.6460   21.4730 C   0  0  0  0  0  2  0  0  0  0  0  0
  -26.1120  -29.2220   20.8200 C   0  0  0  0  0  0  0  0  0  0  0  0
  -27.2400  -28.2610   20.8230 C   0  0  0  0  0  3  0  0  0  0  0  0
  -25.9790  -26.6840   19.5640 C   0  0  0  0  0  3  0  0  0  0  0  0
  -24.8880  -27.6010   19.5380 C   0  0  0  0  0  3  0  0  0  0  0  0
  -23.7080  -29.7840   20.2320 C   0  0  0  0  0  2  0  0  0  0  0  0
  -24.7520  -31.0300   22.1600 N   0  0  0  0  0  0  0  0  0  0  0  0
  -23.5770  -32.1720   23.7580 O   0  0  0  0  0  0  0  0  0  0  0  0
  -22.7630  -29.4980   22.5740 C   0  0  0  0  0  0  0  0  0  0  0  0
  -21.4320  -29.3420   22.4480 N   0  0  0  0  0  0  0  0  0  0  0  0
  -23.4220  -28.8740   23.4110 O   0  0  0  0  0  0  0  0  0  0  0  0
  -20.9510  -29.8960   21.7510 H   0  0  0  0  0  0  0  0  0  0  0  0
  -18.0460  -28.1350   22.9520 C   0  0  0  0  0  0  0  0  0  0  0  0
  -20.6040  -28.4080   23.2210 C   0  0  0  0  0  3  0  0  0  0  0  0
  -20.7090  -26.9730   22.6520 C   0  0  0  0  0  2  0  0  0  0  0  0
  -19.6110  -26.6470   21.6350 C   0  0  0  0  0  2  0  0  0  0  0  0
  -18.2260  -26.7880   22.2740 C   0  0  0  0  0  2  0  0  0  0  0  0
  -19.1610  -28.9040   23.3810 C   0  0  0  0  0  0  0  0  0  0  0  0
  -18.9340  -30.1620   23.9790 C   0  0  0  0  0  3  0  0  0  0  0  0
  -17.6270  -30.6550   24.1490 C   0  0  0  0  0  3  0  0  0  0  0  0
  -16.5260  -29.8850   23.7330 C   0  0  0  0  0  3  0  0  0  0  0  0
  -16.7360  -28.6280   23.1380 C   0  0  0  0  0  3  0  0  0  0  0  0
  -25.9370  -32.5170   23.8790 C   0  0  0  0  0  3  0  0  0  0  0  0
  -25.6220  -33.9190   24.2130 N   0  0  0  0  0  0  0  0  0  0  0  0
  -25.9320  -34.9800   23.4550 C   0  0  0  0  0  0  0  0  0  0  0  0
  -26.5720  -34.8810   22.4050 O   0  0  0  0  0  0  0  0  0  0  0  0
  -25.0490  -34.0690   25.0310 H   0  0  0  0  0  0  0  0  0  0  0  0
  -24.1810  -36.7720   23.1810 C   0  0  0  0  0  1  0  0  0  0  0  0
  -25.4610  -36.3690   23.9340 C   0  0  0  0  0  3  0  0  0  0  0  0
  -27.6230  -37.2760   24.6690 C   0  0  0  0  0  1  0  0  0  0  0  0
  -26.4810  -37.4290   23.7700 N   0  0  0  0  0  0  0  0  0  0  0  0
  -26.0760  -38.3480   23.9260 H   0  0  0  0  0  0  0  0  0  0  0  0
  -26.4340  -31.7550   25.1710 C   0  0  1  0  0  0  0  0  0  0  0  0
  -25.3270  -31.5350   26.2280 C   0  0  0  0  0  1  0  0  0  0  0  0
  -27.0120  -30.3690   24.8070 C   0  0  0  0  0  1  0  0  0  0  0  0
  -27.5840  -32.5460   25.8360 C   0  0  0  0  0  1  0  0  0  0  0  0
  1 46  1  0
  2  4  1  0
  2  3  1  0
  2  1  1  0
  5  2  1  0
  6  1  1  0
  6  8  1  0
  7  6  2  0
  8  9  2  0
 10  9  1  0
 11 16  1  0
 12 13  1  0
 12 11  1  0
 14 13  1  0
 14 21  1  0
 14 15  1  0
 16 10  1  0
 16 15  1  0
 17 10  2  0
 18 19  2  0
 19 38  1  0
 20 19  1  0
 20 23  1  0
 21 22  1  0
 21 18  1  0
 22 20  2  0
 23 24  1  0
 24 25  2  0
 26 29  1  0
 26 25  1  0
 27 26  2  0
 28 27  1  0
 28 23  2  0
 29 30  1  0
 30 31  1  0
 31 32  2  0
 33 32  1  0
 33 37  1  0
 34 33  2  0
 35 30  2  0
 35 34  1  0
 36 35  1  0
 38 39  1  0
 39 42  1  0
 39 41  1  0
 40 38  2  0
 43 44  1  0
 43 18  1  0
 45 43  1  0
 46 47  1  0
 48 59  2  0
 49 47  1  0
 49 54  1  0
 50 58  1  0
 50 60  1  0
 51 57  1  0
 51 53  1  0
 52 58  1  0
 53 54  2  0
 53 52  1  0
 55 49  2  0
 56 55  1  0
 56 51  2  0
 57 50  1  0
 58 48  1  0
 60 62  2  0
 61 60  1  0
 63 61  1  0
 64 73  2  0
 64 69  1  0
 65 61  1  0
 65 69  1  0
 66 65  1  0
 67 68  1  0
 67 66  1  0
 68 64  1  0
 69 70  2  0
 70 71  1  0
 72 71  2  0
 73 72  1  0
 74 48  1  0
 74 75  1  0
 74 84  1  0
 75 78  1  0
 76 80  1  0
 76 75  1  0
 77 76  2  0
 80 79  1  0
 82 83  1  0
 82 80  1  0
 82 81  1  0
 84 87  1  1
 84 85  1  0
 86 84  1  0
M  ISO  4   9 100  10 100  46 101  47 101
M  END
>  <TORSDO>  (56) 
F 21

>  <SCORE>  (56) 
-16.260

>  <name>  (56) 
55

>  <ligand_id>  (56) 
55

>  <original_smiles>  (56) 
[H]c1c([H])c([H])c2c(c1[H])C([H])([H])C([H])([H])C([H])([H])C2([H])N([H])C(=O)C1([H])N(C(=O)C([H])(N([H])C(=O)C([H])(N([H])C([H])([H])[H])C([H])([H])[H])C(C([H])([H])[H])(C([H])([H])[H])C([H])([H])[H])C([H])([H])c2c([H])c(OC([H])([H])C([H])(C(=O)C([H])([H])C([H])([H])C(=O)N3C([H])([H])C([H])([H])C([H])([H])C([H])(n4nc(-c5c([H])c([H])c(Oc6c([H])c([H])c(F)c([H])c6F)c([H])c5[H])c(C(=O)N([H])[H])c4N([H])[H])C3([H])[H])[N+]([H])([H])[H])c([H])c([H])c2C1([H])[H]

>  <smiles>  (56) 
[H]c1c([H])c([H])c2c(c1[H])C([H])([H])C([H])([H])C([H])([H])C2([H])N([H])C(=O)C1([H])N(C(=O)C([H])(N([H])C(=O)C([H])(N([H])C([H])([H])[H])C([H])([H])[H])C(C([H])([H])[H])(C([H])([H])[H])C([H])([H])[H])C([H])([H])c2c([H])c(OC([H])([H])C([H])(C(=O)C([H])([H])C([H])([H])C(=O)N3C([H])([H])C([H])([H])C([H])([H])C([H])(n4nc(-c5c([H])c([H])c(Oc6c([H])c([H])c(F)c([H])c6F)c([H])c5[H])c(C(=O)N([H])[H])c4N([H])[H])C3([H])[H])[N+]([H])([H])[H])c([H])c([H])c2C1([H])[H]

$$$$
56:0:0
     RDKit          3D

 92100  0  0  1  0  0  0  0  0999 V2000
  -30.5280  -21.5000   20.5520 C   0  0  0  0  0  2  0  0  0  0  0  0
  -30.7980  -19.9650   20.3390 C   0  0  0  0  0  3  0  0  0  0  0  0
  -29.0870  -21.7920   20.0710 C   0  0  0  0  0  3  0  0  0  0  0  0
  -29.4810  -19.2060   20.6600 C   0  0  0  0  0  3  0  0  0  0  0  0
  -28.4790  -20.3650   20.3050 N   0  0  0  0  0  4  0  0  0  0  0  0
  -27.9670  -20.1120   19.4770 H   0  0  0  0  0  0  0  0  0  0  0  0
  -27.8070  -20.4150   21.0540 H   0  0  0  0  0  0  0  0  0  0  0  0
  -33.3500  -19.9530   20.5240 C   0  0  0  0  0  1  0  0  0  0  0  0
  -32.0270  -19.4440   21.1090 C   0  0  0  0  0  2  0  0  0  0  0  0
  -26.9220  -23.0230   21.0010 C   0  0  0  0  0  1  0  0  0  0  0  0
  -28.3900  -23.2680   20.6170 C   0  0  0  0  0  3  0  0  0  0  0  0
  -28.4200  -24.7650   19.8060 C   0  0  0  0  0  2  0  0  0  0  0  0
  -28.3160  -26.2360   20.3440 O   0  0  0  0  0  0  0  0  0  0  0  0
  -24.6300  -31.9150   23.2350 C   0  0  0  0  0  0  0  0  0  0  0  0
  -27.2330  -27.1860   20.2260 C   0  0  0  0  0  0  0  0  0  0  0  0
  -23.4380  -30.5000   21.6040 C   0  0  0  0  0  3  0  0  0  0  0  0
  -24.8910  -28.9200   20.1870 C   0  0  0  0  0  0  0  0  0  0  0  0
  -25.9880  -30.7790   21.4350 C   0  0  0  0  0  2  0  0  0  0  0  0
  -26.0690  -29.3820   20.7880 C   0  0  0  0  0  0  0  0  0  0  0  0
  -27.2360  -28.5300   20.7880 C   0  0  0  0  0  3  0  0  0  0  0  0
  -26.0280  -26.8250   19.5890 C   0  0  0  0  0  3  0  0  0  0  0  0
  -24.8840  -27.6570   19.5730 C   0  0  0  0  0  3  0  0  0  0  0  0
  -23.6590  -29.8090   20.2330 C   0  0  0  0  0  2  0  0  0  0  0  0
  -24.7050  -31.0890   22.1460 N   0  0  0  0  0  0  0  0  0  0  0  0
  -23.5400  -32.1960   23.7620 O   0  0  0  0  0  0  0  0  0  0  0  0
  -22.7600  -29.5000   22.5750 C   0  0  0  0  0  0  0  0  0  0  0  0
  -21.4360  -29.3100   22.4390 N   0  0  0  0  0  0  0  0  0  0  0  0
  -23.4310  -28.8960   23.4160 O   0  0  0  0  0  0  0  0  0  0  0  0
  -20.9460  -29.8550   21.7430 H   0  0  0  0  0  0  0  0  0  0  0  0
  -18.0740  -28.0430   22.9070 C   0  0  0  0  0  0  0  0  0  0  0  0
  -20.6200  -28.3710   23.2140 C   0  0  0  0  0  3  0  0  0  0  0  0
  -20.7630  -26.9290   22.6770 C   0  0  0  0  0  2  0  0  0  0  0  0
  -19.6910  -26.5590   21.6470 C   0  0  0  0  0  2  0  0  0  0  0  0
  -18.2940  -26.6850   22.2610 C   0  0  0  0  0  2  0  0  0  0  0  0
  -19.1660  -28.8420   23.3390 C   0  0  0  0  0  0  0  0  0  0  0  0
  -18.9040  -30.1090   23.9030 C   0  0  0  0  0  3  0  0  0  0  0  0
  -17.5840  -30.5790   24.0380 C   0  0  0  0  0  3  0  0  0  0  0  0
  -16.5070  -29.7800   23.6180 C   0  0  0  0  0  3  0  0  0  0  0  0
  -16.7530  -28.5130   23.0590 C   0  0  0  0  0  3  0  0  0  0  0  0
  -25.9020  -32.5620   23.8610 C   0  0  0  0  0  3  0  0  0  0  0  0
  -26.4160  -31.8080   25.1500 C   0  0  1  0  0  0  0  0  0  0  0  0
  -25.3180  -31.5830   26.2180 C   0  0  0  0  0  1  0  0  0  0  0  0
  -27.0030  -30.4260   24.7820 C   0  0  0  0  0  1  0  0  0  0  0  0
  -27.5600  -32.6160   25.8070 C   0  0  0  0  0  1  0  0  0  0  0  0
  -25.5840  -33.9630   24.1830 N   0  0  0  0  0  0  0  0  0  0  0  0
  -25.9140  -35.0160   23.4240 C   0  0  0  0  0  0  0  0  0  0  0  0
  -26.5830  -34.9120   22.3940 O   0  0  0  0  0  0  0  0  0  0  0  0
  -24.9960  -34.1180   24.9880 H   0  0  0  0  0  0  0  0  0  0  0  0
  -24.1830  -36.8080   23.0670 C   0  0  0  0  0  1  0  0  0  0  0  0
  -25.4240  -36.4070   23.8800 C   0  0  0  0  0  3  0  0  0  0  0  0
  -27.5570  -37.2990   24.7110 C   0  0  0  0  0  1  0  0  0  0  0  0
  -26.4560  -37.4620   23.7650 N   0  0  0  0  0  0  0  0  0  0  0  0
  -26.0480  -38.3810   23.9110 H   0  0  0  0  0  0  0  0  0  0  0  0
  -29.3810  -17.6500   19.9550 C   0  0  0  0  0  2  0  0  0  0  0  0
  -30.4240  -15.0530   20.3000 C   0  0  0  0  0  0  0  0  0  0  0  0
  -30.3620  -12.6920   19.3750 C   0  0  0  0  0  2  0  0  0  0  0  0
  -29.4280  -12.6430   18.1420 C   0  0  0  0  0  2  0  0  0  0  0  0
  -27.9680  -12.4110   18.5770 C   0  0  0  0  0  2  0  0  0  0  0  0
  -27.5580  -13.3230   19.7640 C   0  0  0  0  0  3  0  0  0  0  0  0
  -28.6130  -13.3270   20.8930 C   0  0  0  0  0  2  0  0  0  0  0  0
  -29.8820  -13.7660   20.2960 N   0  0  0  0  0  0  0  0  0  0  0  0
  -31.5850  -15.1690   19.8950 O   0  0  0  0  0  0  0  0  0  0  0  0
  -29.6130  -16.1970   20.5830 N   0  0  0  0  0  0  0  0  0  0  0  0
  -28.7870  -15.9010   21.0850 H   0  0  0  0  0  0  0  0  0  0  0  0
  -25.1720  -13.8760   20.5110 C   0  0  0  0  0  0  0  0  0  0  0  0
  -24.1200  -13.0890   20.8890 C   0  0  0  0  0  0  0  0  0  0  0  0
  -24.5980  -11.7430   20.8540 C   0  0  0  0  0  0  0  0  0  0  0  0
  -26.2240  -13.0100   20.2630 N   0  0  0  0  0  0  0  0  0  0  0  0
  -25.8880  -11.7220   20.5350 N   0  0  0  0  0  0  0  0  0  0  0  0
  -23.8850  -10.4720   21.0440 C   0  0  0  0  0  0  0  0  0  0  0  0
  -24.3310   -9.5060   21.9740 C   0  0  0  0  0  3  0  0  0  0  0  0
  -23.6150   -8.3020   22.1530 C   0  0  0  0  0  3  0  0  0  0  0  0
  -22.4420   -8.0550   21.4010 C   0  0  0  0  0  0  0  0  0  0  0  0
  -22.0150   -9.0100   20.4600 C   0  0  0  0  0  3  0  0  0  0  0  0
  -22.7310  -10.2050   20.2800 C   0  0  0  0  0  3  0  0  0  0  0  0
  -21.6940   -6.9060   21.4940 O   0  0  0  0  0  0  0  0  0  0  0  0
  -21.6590   -6.1580   22.6440 C   0  0  0  0  0  0  0  0  0  0  0  0
  -21.2260   -6.7000   23.8740 C   0  0  0  0  0  3  0  0  0  0  0  0
  -21.1410   -5.8780   25.0150 C   0  0  0  0  0  3  0  0  0  0  0  0
  -21.4770   -4.5140   24.9270 C   0  0  0  0  0  0  0  0  0  0  0  0
  -21.9010   -3.9710   23.7020 C   0  0  0  0  0  3  0  0  0  0  0  0
  -21.9880   -4.7900   22.5640 C   0  0  0  0  0  0  0  0  0  0  0  0
  -22.3770   -4.2540   21.3820 F   0  0  0  0  0  0  0  0  0  0  0  0
  -21.3870   -3.7230   26.0210 F   0  0  0  0  0  0  0  0  0  0  0  0
  -22.7180  -13.5510   21.1680 C   0  0  0  0  0  0  0  0  0  0  0  0
  -22.0000  -12.8420   22.0290 N   0  0  0  0  0  0  0  0  0  0  0  0
  -22.2710  -14.5760   20.6540 O   0  0  0  0  0  0  0  0  0  0  0  0
  -22.3790  -12.0150   22.4680 H   0  0  0  0  0  0  0  0  0  0  0  0
  -21.0590  -13.1330   22.2580 H   0  0  0  0  0  0  0  0  0  0  0  0
  -25.3260  -15.2460   20.3360 N   0  0  0  0  0  0  0  0  0  0  0  0
  -24.5590  -15.9000   20.4560 H   0  0  0  0  0  0  0  0  0  0  0  0
  -26.1680  -15.6820   19.9850 H   0  0  0  0  0  0  0  0  0  0  0  0
  2  1  1  0
  2  4  1  0
  2  9  1  0
  3  5  1  0
  3  1  1  0
  3 11  1  0
  4 54  1  0
  5  4  1  0
  5  7  1  0
  6  5  1  0
  8  9  1  0
 11 10  1  0
 12 13  1  0
 12 11  1  0
 14 25  2  0
 15 13  1  0
 15 20  1  0
 16 24  1  0
 16 26  1  0
 17 23  1  0
 17 19  1  0
 18 24  1  0
 19 18  1  0
 20 19  2  0
 21 15  2  0
 22 21  1  0
 22 17  2  0
 23 16  1  0
 24 14  1  0
 26 28  2  0
 27 26  1  0
 29 27  1  0
 30 39  2  0
 30 35  1  0
 31 27  1  0
 31 35  1  0
 32 31  1  0
 33 34  1  0
 33 32  1  0
 34 30  1  0
 35 36  2  0
 36 37  1  0
 38 37  2  0
 39 38  1  0
 40 14  1  0
 40 45  1  0
 40 41  1  0
 41 44  1  1
 41 42  1  0
 43 41  1  0
 45 48  1  0
 46 50  1  0
 46 45  1  0
 47 46  2  0
 50 49  1  0
 52 50  1  0
 52 53  1  0
 52 51  1  0
 54 63  1  0
 55 63  1  0
 56 61  1  0
 57 58  1  0
 57 56  1  0
 59 58  1  0
 59 68  1  0
 59 60  1  0
 61 55  1  0
 61 60  1  0
 62 55  2  0
 63 64  1  0
 65 66  2  0
 66 85  1  0
 67 66  1  0
 67 70  1  0
 68 65  1  0
 68 69  1  0
 69 67  2  0
 70 71  1  0
 71 72  2  0
 73 76  1  0
 73 72  1  0
 74 73  2  0
 75 74  1  0
 75 70  2  0
 76 77  1  0
 77 78  1  0
 78 79  2  0
 80 79  1  0
 80 84  1  0
 81 80  2  0
 82 77  2  0
 82 81  1  0
 83 82  1  0
 85 86  1  0
 86 89  1  0
 86 88  1  0
 87 85  2  0
 90 91  1  0
 90 65  1  0
 92 90  1  0
M  ISO  4  12 101  13 101  55 100  63 100
M  END
>  <TORSDO>  (57) 
F 20

>  <SCORE>  (57) 
-15.708

>  <name>  (57) 
56

>  <ligand_id>  (57) 
56

>  <original_smiles>  (57) 
[H]c1c([H])c([H])c2c(c1[H])C([H])([H])C([H])([H])C([H])([H])C2([H])N([H])C(=O)C1([H])N(C(=O)C([H])(N([H])C(=O)C([H])(N([H])C([H])([H])[H])C([H])([H])[H])C(C([H])([H])[H])(C([H])([H])[H])C([H])([H])[H])C([H])([H])c2c([H])c(OC([H])([H])C([H])(C([H])([H])[H])C3([H])C([H])([H])C([H])(C([H])([H])C([H])([H])[H])C([H])(C([H])([H])N([H])C(=O)N4C([H])([H])C([H])([H])C([H])([H])C([H])(n5nc(-c6c([H])c([H])c(Oc7c([H])c([H])c(F)c([H])c7F)c([H])c6[H])c(C(=O)N([H])[H])c5N([H])[H])C4([H])[H])[N+]3([H])[H])c([H])c([H])c2C1([H])[H]

>  <smiles>  (57) 
[H]c1c([H])c([H])c2c(c1[H])C([H])([H])C([H])([H])C([H])([H])C2([H])N([H])C(=O)C1([H])N(C(=O)C([H])(N([H])C(=O)C([H])(N([H])C([H])([H])[H])C([H])([H])[H])C(C([H])([H])[H])(C([H])([H])[H])C([H])([H])[H])C([H])([H])c2c([H])c(OC([H])([H])C([H])(C([H])([H])[H])C3([H])C([H])([H])C([H])(C([H])([H])C([H])([H])[H])C([H])(C([H])([H])N([H])C(=O)N4C([H])([H])C([H])([H])C([H])([H])C([H])(n5nc(-c6c([H])c([H])c(Oc7c([H])c([H])c(F)c([H])c7F)c([H])c6[H])c(C(=O)N([H])[H])c5N([H])[H])C4([H])[H])[N+]3([H])[H])c([H])c([H])c2C1([H])[H]

$$$$
57:0:0
     RDKit          3D

 85 93  0  0  1  0  0  0  0  0999 V2000
  -28.8720  -22.5590   20.4180 C   0  0  0  0  0  3  0  0  0  0  0  0
  -28.7170  -20.8580   19.8810 C   0  0  0  0  0  0  0  0  0  0  0  0
  -27.9280  -20.7820   18.9350 O   0  0  0  0  0  0  0  0  0  0  0  0
  -30.4870  -15.4810   20.0530 C   0  0  0  0  0  0  0  0  0  0  0  0
  -30.3980  -13.0150   19.1830 C   0  0  0  0  0  2  0  0  0  0  0  0
  -29.4500  -12.7350   17.9930 C   0  0  0  0  0  2  0  0  0  0  0  0
  -28.0320  -12.4320   18.4980 C   0  0  0  0  0  2  0  0  0  0  0  0
  -27.6010  -13.4120   19.6160 C   0  0  0  0  0  3  0  0  0  0  0  0
  -28.6840  -13.6480   20.6920 C   0  0  0  0  0  2  0  0  0  0  0  0
  -29.8600  -14.1890   19.9870 N   0  0  0  0  0  0  0  0  0  0  0  0
  -31.7000  -15.3700   19.8100 O   0  0  0  0  0  0  0  0  0  0  0  0
  -28.6730  -17.7710   20.4300 C   0  0  0  0  0  2  0  0  0  0  0  0
  -30.4730  -18.2800   19.6360 C   0  0  0  0  0  2  0  0  0  0  0  0
  -29.4190  -19.2660   20.4280 C   0  0  0  0  0  3  0  0  0  0  0  0
  -29.9060  -16.8870   20.0710 N   0  0  0  0  0  0  0  0  0  0  0  0
  -25.2750  -13.9430   20.4940 C   0  0  0  0  0  0  0  0  0  0  0  0
  -24.2290  -13.1570   20.8890 C   0  0  0  0  0  0  0  0  0  0  0  0
  -24.6950  -11.8080   20.8090 C   0  0  0  0  0  0  0  0  0  0  0  0
  -26.3040  -13.0750   20.1860 N   0  0  0  0  0  0  0  0  0  0  0  0
  -25.9730  -11.7820   20.4440 N   0  0  0  0  0  0  0  0  0  0  0  0
  -23.9750  -10.5420   21.0020 C   0  0  0  0  0  0  0  0  0  0  0  0
  -24.4240   -9.5660   21.9180 C   0  0  0  0  0  3  0  0  0  0  0  0
  -23.7000   -8.3680   22.1010 C   0  0  0  0  0  3  0  0  0  0  0  0
  -22.5120   -8.1370   21.3660 C   0  0  0  0  0  0  0  0  0  0  0  0
  -22.0820   -9.1010   20.4370 C   0  0  0  0  0  3  0  0  0  0  0  0
  -22.8080  -10.2900   20.2530 C   0  0  0  0  0  3  0  0  0  0  0  0
  -21.7580   -6.9920   21.4600 O   0  0  0  0  0  0  0  0  0  0  0  0
  -21.7050   -6.2560   22.6170 C   0  0  0  0  0  0  0  0  0  0  0  0
  -21.2340   -6.8060   23.8280 C   0  0  0  0  0  3  0  0  0  0  0  0
  -21.1310   -5.9950   24.9760 C   0  0  0  0  0  3  0  0  0  0  0  0
  -21.4890   -4.6360   24.9140 C   0  0  0  0  0  0  0  0  0  0  0  0
  -21.9550   -4.0850   23.7060 C   0  0  0  0  0  3  0  0  0  0  0  0
  -22.0580   -4.8930   22.5610 C   0  0  0  0  0  0  0  0  0  0  0  0
  -22.4870   -4.3520   21.3950 F   0  0  0  0  0  0  0  0  0  0  0  0
  -21.3840   -3.8550   26.0150 F   0  0  0  0  0  0  0  0  0  0  0  0
  -22.8450  -13.6290   21.2210 C   0  0  0  0  0  0  0  0  0  0  0  0
  -22.1490  -12.9150   22.0990 N   0  0  0  0  0  0  0  0  0  0  0  0
  -22.3920  -14.6660   20.7380 O   0  0  0  0  0  0  0  0  0  0  0  0
  -22.5310  -12.0770   22.5100 H   0  0  0  0  0  0  0  0  0  0  0  0
  -21.2210  -13.2130   22.3630 H   0  0  0  0  0  0  0  0  0  0  0  0
  -25.4310  -15.3180   20.3390 N   0  0  0  0  0  0  0  0  0  0  0  0
  -24.6720  -15.9710   20.5000 H   0  0  0  0  0  0  0  0  0  0  0  0
  -26.2700  -15.7610   19.9860 H   0  0  0  0  0  0  0  0  0  0  0  0
  -27.9870  -24.1470   20.0460 C   0  0  0  0  0  3  0  0  0  0  0  0
  -28.1710  -25.8020   20.3340 O   0  0  0  0  0  0  0  0  0  0  0  0
  -24.6280  -31.8850   23.2390 C   0  0  0  0  0  0  0  0  0  0  0  0
  -27.1790  -26.9390   20.2470 C   0  0  0  0  0  0  0  0  0  0  0  0
  -23.4410  -30.4880   21.5970 C   0  0  0  0  0  3  0  0  0  0  0  0
  -24.8950  -28.8690   20.1810 C   0  0  0  0  0  0  0  0  0  0  0  0
  -26.0120  -30.6760   21.4690 C   0  0  0  0  0  2  0  0  0  0  0  0
  -26.0810  -29.2590   20.8130 C   0  0  0  0  0  0  0  0  0  0  0  0
  -27.2160  -28.3160   20.8180 C   0  0  0  0  0  3  0  0  0  0  0  0
  -25.9630  -26.7200   19.5610 C   0  0  0  0  0  3  0  0  0  0  0  0
  -24.8650  -27.6230   19.5330 C   0  0  0  0  0  3  0  0  0  0  0  0
  -23.6790  -29.7990   20.2240 C   0  0  0  0  0  2  0  0  0  0  0  0
  -24.7160  -31.0450   22.1550 N   0  0  0  0  0  0  0  0  0  0  0  0
  -23.5360  -32.1780   23.7530 O   0  0  0  0  0  0  0  0  0  0  0  0
  -22.7370  -29.4980   22.5630 C   0  0  0  0  0  0  0  0  0  0  0  0
  -21.4070  -29.3350   22.4310 N   0  0  0  0  0  0  0  0  0  0  0  0
  -23.3950  -28.8780   23.4010 O   0  0  0  0  0  0  0  0  0  0  0  0
  -20.9280  -29.8860   21.7320 H   0  0  0  0  0  0  0  0  0  0  0  0
  -18.0190  -28.1340   22.9380 C   0  0  0  0  0  0  0  0  0  0  0  0
  -20.5800  -28.3980   23.2000 C   0  0  0  0  0  3  0  0  0  0  0  0
  -20.6790  -26.9660   22.6230 C   0  0  0  0  0  2  0  0  0  0  0  0
  -19.5770  -26.6480   21.6090 C   0  0  0  0  0  2  0  0  0  0  0  0
  -18.1950  -26.7890   22.2540 C   0  0  0  0  0  2  0  0  0  0  0  0
  -19.1380  -28.8960   23.3680 C   0  0  0  0  0  0  0  0  0  0  0  0
  -18.9170  -30.1530   23.9730 C   0  0  0  0  0  3  0  0  0  0  0  0
  -17.6110  -30.6480   24.1480 C   0  0  0  0  0  3  0  0  0  0  0  0
  -16.5070  -29.8840   23.7320 C   0  0  0  0  0  3  0  0  0  0  0  0
  -16.7120  -28.6280   23.1330 C   0  0  0  0  0  3  0  0  0  0  0  0
  -25.8950  -32.5290   23.8790 C   0  0  0  0  0  3  0  0  0  0  0  0
  -25.5790  -33.9330   24.1990 N   0  0  0  0  0  0  0  0  0  0  0  0
  -25.9120  -34.9900   23.4450 C   0  0  0  0  0  0  0  0  0  0  0  0
  -26.5790  -34.8840   22.4130 O   0  0  0  0  0  0  0  0  0  0  0  0
  -24.9830  -34.0890   25.0010 H   0  0  0  0  0  0  0  0  0  0  0  0
  -24.1880  -36.7960   23.1050 C   0  0  0  0  0  1  0  0  0  0  0  0
  -25.4340  -36.3830   23.9060 C   0  0  0  0  0  3  0  0  0  0  0  0
  -27.5700  -37.2720   24.7310 C   0  0  0  0  0  1  0  0  0  0  0  0
  -26.4690  -37.4330   23.7850 N   0  0  0  0  0  0  0  0  0  0  0  0
  -26.0650  -38.3550   23.9230 H   0  0  0  0  0  0  0  0  0  0  0  0
  -26.3820  -31.7770   25.1800 C   0  0  1  0  0  0  0  0  0  0  0  0
  -25.2680  -31.5590   26.2300 C   0  0  0  0  0  1  0  0  0  0  0  0
  -26.9710  -30.3910   24.8300 C   0  0  0  0  0  1  0  0  0  0  0  0
  -27.5220  -32.5780   25.8520 C   0  0  0  0  0  1  0  0  0  0  0  0
  2  1  1  0
  3  2  2  0
  4 15  1  0
  5 10  1  0
  6  7  1  0
  6  5  1  0
  8  7  1  0
  8 19  1  0
  8  9  1  0
 10  4  1  0
 10  9  1  0
 11  4  2  0
 13 15  1  0
 13 14  1  0
 14  2  1  0
 14 12  1  0
 15 12  1  0
 16 17  2  0
 17 36  1  0
 18 17  1  0
 18 21  1  0
 19 20  1  0
 19 16  1  0
 20 18  2  0
 21 22  1  0
 22 23  2  0
 24 27  1  0
 24 23  1  0
 25 24  2  0
 26 25  1  0
 26 21  2  0
 27 28  1  0
 28 29  1  0
 29 30  2  0
 31 30  1  0
 31 35  1  0
 32 31  2  0
 33 28  2  0
 33 32  1  0
 34 33  1  0
 36 37  1  0
 37 40  1  0
 37 39  1  0
 38 36  2  0
 41 16  1  0
 41 42  1  0
 43 41  1  0
 44 45  1  0
 44  1  2  0
 46 57  2  0
 47 45  1  0
 47 52  1  0
 48 56  1  0
 48 58  1  0
 49 55  1  0
 49 51  1  0
 50 56  1  0
 51 52  2  0
 51 50  1  0
 53 47  2  0
 54 53  1  0
 54 49  2  0
 55 48  1  0
 56 46  1  0
 58 60  2  0
 59 58  1  0
 61 59  1  0
 62 71  2  0
 62 67  1  0
 63 59  1  0
 63 67  1  0
 64 63  1  0
 65 66  1  0
 65 64  1  0
 66 62  1  0
 67 68  2  0
 68 69  1  0
 70 69  2  0
 71 70  1  0
 72 46  1  0
 72 73  1  0
 72 82  1  0
 73 76  1  0
 74 78  1  0
 74 73  1  0
 75 74  2  0
 78 77  1  0
 80 78  1  0
 80 81  1  0
 80 79  1  0
 82 85  1  1
 82 83  1  0
 84 82  1  0
M  ISO  4   4 100  15 100  44 101  45 101
M  END
>  <TORSDO>  (58) 
F 18

>  <SCORE>  (58) 
-16.646

>  <name>  (58) 
57

>  <ligand_id>  (58) 
57

>  <original_smiles>  (58) 
[H]c1c([H])c([H])c2c(c1[H])C([H])([H])C([H])([H])C([H])([H])C2([H])N([H])C(=O)C1([H])N(C(=O)C([H])(N([H])C(=O)C([H])(N([H])C([H])([H])[H])C([H])([H])[H])C(C([H])([H])[H])(C([H])([H])[H])C([H])([H])[H])C([H])([H])c2c([H])c(OC([H])([H])C([H])([H])C(=O)C3([H])C([H])([H])N(C(=O)N4C([H])([H])C([H])([H])C([H])([H])C([H])(n5nc(-c6c([H])c([H])c(Oc7c([H])c([H])c(F)c([H])c7F)c([H])c6[H])c(C(=O)N([H])[H])c5N([H])[H])C4([H])[H])C3([H])[H])c([H])c([H])c2C1([H])[H]

>  <smiles>  (58) 
[H]c1c([H])c([H])c2c(c1[H])C([H])([H])C([H])([H])C([H])([H])C2([H])N([H])C(=O)C1([H])N(C(=O)C([H])(N([H])C(=O)C([H])(N([H])C([H])([H])[H])C([H])([H])[H])C(C([H])([H])[H])(C([H])([H])[H])C([H])([H])[H])C([H])([H])c2c([H])c(OC([H])([H])C([H])([H])C(=O)C3([H])C([H])([H])N(C(=O)N4C([H])([H])C([H])([H])C([H])([H])C([H])(n5nc(-c6c([H])c([H])c(Oc7c([H])c([H])c(F)c([H])c7F)c([H])c6[H])c(C(=O)N([H])[H])c5N([H])[H])C4([H])[H])C3([H])[H])c([H])c([H])c2C1([H])[H]

$$$$
58:0:0
     RDKit          3D

 88 96  0  0  1  0  0  0  0  0999 V2000
  -28.6120  -21.6890   20.3880 C   0  0  0  0  0  2  0  0  0  0  0  0
  -29.6490  -20.4830   20.2940 N   0  0  0  0  0  4  0  0  0  0  0  0
  -30.0660  -20.5330   19.3780 H   0  0  0  0  0  0  0  0  0  0  0  0
  -30.3850  -20.7200   20.9400 H   0  0  0  0  0  0  0  0  0  0  0  0
  -30.5480  -15.0480   20.2710 C   0  0  0  0  0  0  0  0  0  0  0  0
  -30.3740  -12.6970   19.3220 C   0  0  0  0  0  2  0  0  0  0  0  0
  -29.4260  -12.6140   18.1060 C   0  0  0  0  0  2  0  0  0  0  0  0
  -27.9800  -12.3640   18.5710 C   0  0  0  0  0  2  0  0  0  0  0  0
  -27.5680  -13.2980   19.7340 C   0  0  0  0  0  3  0  0  0  0  0  0
  -28.6440  -13.3870   20.8400 C   0  0  0  0  0  2  0  0  0  0  0  0
  -29.8940  -13.8120   20.1920 N   0  0  0  0  0  0  0  0  0  0  0  0
  -31.7700  -15.0210   20.0870 O   0  0  0  0  0  0  0  0  0  0  0  0
  -28.3490  -18.2100   19.6660 C   0  0  0  0  0  2  0  0  0  0  0  0
  -28.5190  -16.6590   19.9180 C   0  0  0  0  0  2  0  0  0  0  0  0
  -30.4650  -17.7520   20.5440 C   0  0  0  0  0  2  0  0  0  0  0  0
  -29.3330  -18.9440   20.5810 C   0  0  0  0  0  3  0  0  0  0  0  0
  -29.8820  -16.3230   20.3800 N   0  0  0  0  0  0  0  0  0  0  0  0
  -25.2000  -13.8710   20.5110 C   0  0  0  0  0  0  0  0  0  0  0  0
  -24.1450  -13.0920   20.8870 C   0  0  0  0  0  0  0  0  0  0  0  0
  -24.6130  -11.7430   20.8420 C   0  0  0  0  0  0  0  0  0  0  0  0
  -26.2440  -12.9960   20.2570 N   0  0  0  0  0  0  0  0  0  0  0  0
  -25.9020  -11.7120   20.5230 N   0  0  0  0  0  0  0  0  0  0  0  0
  -23.8940  -10.4790   21.0250 C   0  0  0  0  0  0  0  0  0  0  0  0
  -24.3200   -9.5160   21.9660 C   0  0  0  0  0  3  0  0  0  0  0  0
  -23.5980   -8.3160   22.1370 C   0  0  0  0  0  3  0  0  0  0  0  0
  -22.4370   -8.0700   21.3670 C   0  0  0  0  0  0  0  0  0  0  0  0
  -22.0310   -9.0210   20.4150 C   0  0  0  0  0  3  0  0  0  0  0  0
  -22.7530  -10.2130   20.2410 C   0  0  0  0  0  3  0  0  0  0  0  0
  -21.6890   -6.9210   21.4470 O   0  0  0  0  0  0  0  0  0  0  0  0
  -21.6050   -6.1990   22.6110 C   0  0  0  0  0  0  0  0  0  0  0  0
  -21.1140   -6.7670   23.8070 C   0  0  0  0  0  3  0  0  0  0  0  0
  -20.9790   -5.9700   24.9610 C   0  0  0  0  0  3  0  0  0  0  0  0
  -21.3240   -4.6060   24.9200 C   0  0  0  0  0  0  0  0  0  0  0  0
  -21.8090   -4.0380   23.7290 C   0  0  0  0  0  3  0  0  0  0  0  0
  -21.9460   -4.8310   22.5760 C   0  0  0  0  0  0  0  0  0  0  0  0
  -22.3930   -4.2740   21.4250 F   0  0  0  0  0  0  0  0  0  0  0  0
  -21.1870   -3.8370   26.0250 F   0  0  0  0  0  0  0  0  0  0  0  0
  -22.7490  -13.5640   21.1700 C   0  0  0  0  0  0  0  0  0  0  0  0
  -22.0300  -12.8600   22.0370 N   0  0  0  0  0  0  0  0  0  0  0  0
  -22.3060  -14.5920   20.6590 O   0  0  0  0  0  0  0  0  0  0  0  0
  -22.4020  -12.0290   22.4710 H   0  0  0  0  0  0  0  0  0  0  0  0
  -21.0930  -13.1590   22.2710 H   0  0  0  0  0  0  0  0  0  0  0  0
  -25.3470  -15.2430   20.3310 N   0  0  0  0  0  0  0  0  0  0  0  0
  -24.5640  -15.8790   20.4380 H   0  0  0  0  0  0  0  0  0  0  0  0
  -26.1700  -15.6850   19.9470 H   0  0  0  0  0  0  0  0  0  0  0  0
  -29.0320  -23.3370   20.2920 C   0  0  0  0  0  3  0  0  0  0  0  0
  -27.9540  -24.6450   20.2310 C   0  0  0  0  0  3  0  0  0  0  0  0
  -28.2370  -26.1870   20.2540 O   0  0  0  0  0  0  0  0  0  0  0  0
  -24.6210  -31.8990   23.2420 C   0  0  0  0  0  0  0  0  0  0  0  0
  -27.1770  -27.1720   20.2040 C   0  0  0  0  0  0  0  0  0  0  0  0
  -23.4110  -30.5070   21.6090 C   0  0  0  0  0  3  0  0  0  0  0  0
  -24.8500  -28.9270   20.1800 C   0  0  0  0  0  0  0  0  0  0  0  0
  -25.9650  -30.7640   21.4330 C   0  0  0  0  0  2  0  0  0  0  0  0
  -26.0340  -29.3710   20.7810 C   0  0  0  0  0  0  0  0  0  0  0  0
  -27.1990  -28.5120   20.7720 C   0  0  0  0  0  3  0  0  0  0  0  0
  -25.9620  -26.8320   19.5670 C   0  0  0  0  0  3  0  0  0  0  0  0
  -24.8280  -27.6710   19.5570 C   0  0  0  0  0  3  0  0  0  0  0  0
  -23.6250  -29.8270   20.2300 C   0  0  0  0  0  2  0  0  0  0  0  0
  -24.6860  -31.0780   22.1500 N   0  0  0  0  0  0  0  0  0  0  0  0
  -23.5370  -32.1860   23.7740 O   0  0  0  0  0  0  0  0  0  0  0  0
  -22.7320  -29.5010   22.5730 C   0  0  0  0  0  0  0  0  0  0  0  0
  -21.4030  -29.3330   22.4480 N   0  0  0  0  0  0  0  0  0  0  0  0
  -23.4030  -28.8750   23.3970 O   0  0  0  0  0  0  0  0  0  0  0  0
  -20.9180  -29.8870   21.7570 H   0  0  0  0  0  0  0  0  0  0  0  0
  -18.0200  -28.1410   22.9630 C   0  0  0  0  0  0  0  0  0  0  0  0
  -20.5800  -28.3980   23.2220 C   0  0  0  0  0  3  0  0  0  0  0  0
  -20.6770  -26.9650   22.6490 C   0  0  0  0  0  2  0  0  0  0  0  0
  -19.5720  -26.6430   21.6390 C   0  0  0  0  0  2  0  0  0  0  0  0
  -18.1940  -26.7900   22.2890 C   0  0  0  0  0  2  0  0  0  0  0  0
  -19.1410  -28.9020   23.3870 C   0  0  0  0  0  0  0  0  0  0  0  0
  -18.9240  -30.1650   23.9800 C   0  0  0  0  0  3  0  0  0  0  0  0
  -17.6210  -30.6650   24.1530 C   0  0  0  0  0  3  0  0  0  0  0  0
  -16.5140  -29.9020   23.7440 C   0  0  0  0  0  3  0  0  0  0  0  0
  -16.7150  -28.6400   23.1550 C   0  0  0  0  0  3  0  0  0  0  0  0
  -25.9020  -32.5320   23.8640 C   0  0  0  0  0  3  0  0  0  0  0  0
  -26.4180  -31.7590   25.1400 C   0  0  1  0  0  0  0  0  0  0  0  0
  -25.3250  -31.5230   26.2100 C   0  0  0  0  0  1  0  0  0  0  0  0
  -26.9990  -30.3810   24.7510 C   0  0  0  0  0  1  0  0  0  0  0  0
  -27.5700  -32.5510   25.8010 C   0  0  0  0  0  1  0  0  0  0  0  0
  -25.5920  -33.9290   24.2040 N   0  0  0  0  0  0  0  0  0  0  0  0
  -25.9030  -34.9880   23.4440 C   0  0  0  0  0  0  0  0  0  0  0  0
  -26.5460  -34.8900   22.3950 O   0  0  0  0  0  0  0  0  0  0  0  0
  -25.0180  -34.0790   25.0200 H   0  0  0  0  0  0  0  0  0  0  0  0
  -24.1540  -36.7750   23.1540 C   0  0  0  0  0  1  0  0  0  0  0  0
  -25.4260  -36.3740   23.9200 C   0  0  0  0  0  3  0  0  0  0  0  0
  -27.5810  -37.2750   24.6780 C   0  0  0  0  0  1  0  0  0  0  0  0
  -26.4480  -37.4340   23.7700 N   0  0  0  0  0  0  0  0  0  0  0  0
  -26.0420  -38.3520   23.9290 H   0  0  0  0  0  0  0  0  0  0  0  0
  2  1  1  0
  2  4  1  0
  3  2  1  0
  5 17  1  0
  6 11  1  0
  7  8  1  0
  7  6  1  0
  9  8  1  0
  9 21  1  0
  9 10  1  0
 11  5  1  0
 11 10  1  0
 12  5  2  0
 13 14  1  0
 13 16  1  0
 14 17  1  0
 15 16  1  0
 16  2  1  0
 17 15  1  0
 18 19  2  0
 19 38  1  0
 20 19  1  0
 20 23  1  0
 21 18  1  0
 21 22  1  0
 22 20  2  0
 23 24  1  0
 24 25  2  0
 26 29  1  0
 26 25  1  0
 27 26  2  0
 28 27  1  0
 28 23  2  0
 29 30  1  0
 30 31  1  0
 31 32  2  0
 33 32  1  0
 33 37  1  0
 34 33  2  0
 35 30  2  0
 35 34  1  0
 36 35  1  0
 38 39  1  0
 39 42  1  0
 39 41  1  0
 40 38  2  0
 43 44  1  0
 43 18  1  0
 45 43  1  0
 46  1  1  0
 47 48  1  0
 47 46  2  0
 49 60  2  0
 50 48  1  0
 50 55  1  0
 51 59  1  0
 51 61  1  0
 52 58  1  0
 52 54  1  0
 53 59  1  0
 54 53  1  0
 55 54  2  0
 56 50  2  0
 57 56  1  0
 57 52  2  0
 58 51  1  0
 59 49  1  0
 61 63  2  0
 62 61  1  0
 64 62  1  0
 65 74  2  0
 65 70  1  0
 66 62  1  0
 66 70  1  0
 67 66  1  0
 68 69  1  0
 68 67  1  0
 69 65  1  0
 70 71  2  0
 71 72  1  0
 73 72  2  0
 74 73  1  0
 75 49  1  0
 75 80  1  0
 75 76  1  0
 76 79  1  1
 76 77  1  0
 78 76  1  0
 80 83  1  0
 81 85  1  0
 81 80  1  0
 82 81  2  0
 85 84  1  0
 87 85  1  0
 87 88  1  0
 87 86  1  0
M  ISO  4   5 100  17 100  47 101  48 101
M  END
>  <TORSDO>  (59) 
F 19

>  <SCORE>  (59) 
-15.412

>  <name>  (59) 
58

>  <ligand_id>  (59) 
58

>  <original_smiles>  (59) 
[H]c1c([H])c([H])c2c(c1[H])C([H])([H])C([H])([H])C([H])([H])C2([H])N([H])C(=O)C1([H])N(C(=O)C([H])(N([H])C(=O)C([H])(N([H])C([H])([H])[H])C([H])([H])[H])C(C([H])([H])[H])(C([H])([H])[H])C([H])([H])[H])C([H])([H])c2c([H])c(OC([H])([H])C([H])([H])C([H])([H])[N+]([H])([H])C3([H])C([H])([H])N(C(=O)N4C([H])([H])C([H])([H])C([H])([H])C([H])(n5nc(-c6c([H])c([H])c(Oc7c([H])c([H])c(F)c([H])c7F)c([H])c6[H])c(C(=O)N([H])[H])c5N([H])[H])C4([H])[H])C([H])([H])C3([H])[H])c([H])c([H])c2C1([H])[H]

>  <smiles>  (59) 
[H]c1c([H])c([H])c2c(c1[H])C([H])([H])C([H])([H])C([H])([H])C2([H])N([H])C(=O)C1([H])N(C(=O)C([H])(N([H])C(=O)C([H])(N([H])C([H])([H])[H])C([H])([H])[H])C(C([H])([H])[H])(C([H])([H])[H])C([H])([H])[H])C([H])([H])c2c([H])c(OC([H])([H])C([H])([H])C([H])([H])[N+]([H])([H])C3([H])C([H])([H])N(C(=O)N4C([H])([H])C([H])([H])C([H])([H])C([H])(n5nc(-c6c([H])c([H])c(Oc7c([H])c([H])c(F)c([H])c7F)c([H])c6[H])c(C(=O)N([H])[H])c5N([H])[H])C4([H])[H])C([H])([H])C3([H])[H])c([H])c([H])c2C1([H])[H]

$$$$
59:0:0
     RDKit          3D

 91 98  0  0  1  0  0  0  0  0999 V2000
  -29.9320  -18.2290   20.5630 C   0  0  0  0  0  0  0  0  0  0  0  0
  -30.4650  -15.3690   20.3530 C   0  0  0  0  0  0  0  0  0  0  0  0
  -30.4730  -12.9220   19.5330 C   0  0  0  0  0  2  0  0  0  0  0  0
  -29.5680  -12.6710   18.3030 C   0  0  0  0  0  2  0  0  0  0  0  0
  -28.1210  -12.3930   18.7400 C   0  0  0  0  0  2  0  0  0  0  0  0
  -27.6350  -13.3940   19.8180 C   0  0  0  0  0  3  0  0  0  0  0  0
  -28.6660  -13.5940   20.9480 C   0  0  0  0  0  2  0  0  0  0  0  0
  -29.8970  -14.0750   20.3040 N   0  0  0  0  0  0  0  0  0  0  0  0
  -31.6960  -15.3790   20.2500 O   0  0  0  0  0  0  0  0  0  0  0  0
  -29.6860  -16.6160   20.3030 N   0  0  0  0  0  4  0  0  0  0  0  0
  -28.7040  -16.4090   20.2070 H   0  0  0  0  0  0  0  0  0  0  0  0
  -25.2590  -13.9310   20.5700 C   0  0  0  0  0  0  0  0  0  0  0  0
  -24.2010  -13.1440   20.9280 C   0  0  0  0  0  0  0  0  0  0  0  0
  -24.6800  -11.7970   20.8880 C   0  0  0  0  0  0  0  0  0  0  0  0
  -26.3090  -13.0660   20.3240 N   0  0  0  0  0  0  0  0  0  0  0  0
  -25.9730  -11.7750   20.5860 N   0  0  0  0  0  0  0  0  0  0  0  0
  -23.9630  -10.5270   21.0600 C   0  0  0  0  0  0  0  0  0  0  0  0
  -24.3810   -9.5620   22.0030 C   0  0  0  0  0  3  0  0  0  0  0  0
  -23.6600   -8.3590   22.1660 C   0  0  0  0  0  3  0  0  0  0  0  0
  -22.5050   -8.1130   21.3850 C   0  0  0  0  0  0  0  0  0  0  0  0
  -22.1050   -9.0680   20.4350 C   0  0  0  0  0  3  0  0  0  0  0  0
  -22.8260  -10.2630   20.2690 C   0  0  0  0  0  3  0  0  0  0  0  0
  -21.7570   -6.9630   21.4570 O   0  0  0  0  0  0  0  0  0  0  0  0
  -21.6720   -6.2310   22.6140 C   0  0  0  0  0  0  0  0  0  0  0  0
  -21.1650   -6.7850   23.8100 C   0  0  0  0  0  3  0  0  0  0  0  0
  -21.0300   -5.9780   24.9570 C   0  0  0  0  0  3  0  0  0  0  0  0
  -21.3890   -4.6180   24.9100 C   0  0  0  0  0  0  0  0  0  0  0  0
  -21.8880   -4.0640   23.7180 C   0  0  0  0  0  3  0  0  0  0  0  0
  -22.0250   -4.8670   22.5720 C   0  0  0  0  0  0  0  0  0  0  0  0
  -22.4870   -4.3240   21.4200 F   0  0  0  0  0  0  0  0  0  0  0  0
  -21.2510   -3.8400   26.0090 F   0  0  0  0  0  0  0  0  0  0  0  0
  -22.7980  -13.6060   21.1880 C   0  0  0  0  0  0  0  0  0  0  0  0
  -22.0690  -12.8990   22.0430 N   0  0  0  0  0  0  0  0  0  0  0  0
  -22.3570  -14.6310   20.6690 O   0  0  0  0  0  0  0  0  0  0  0  0
  -22.4390  -12.0700   22.4820 H   0  0  0  0  0  0  0  0  0  0  0  0
  -21.1280  -13.1920   22.2630 H   0  0  0  0  0  0  0  0  0  0  0  0
  -25.4100  -15.3040   20.4020 N   0  0  0  0  0  0  0  0  0  0  0  0
  -24.6340  -15.9490   20.5030 H   0  0  0  0  0  0  0  0  0  0  0  0
  -26.2470  -15.7450   20.0440 H   0  0  0  0  0  0  0  0  0  0  0  0
  -31.4320  -18.5600   20.4730 C   0  0  0  0  0  0  0  0  0  0  0  0
  -32.0930  -18.3330   19.4550 O   0  0  0  0  0  0  0  0  0  0  0  0
  -32.0780  -19.2230   21.6980 C   0  0  0  0  0  2  0  0  0  0  0  0
  -33.4920  -19.5150   21.4100 N   0  0  0  0  0  4  0  0  0  0  0  0
  -33.9710  -18.6620   21.1830 H   0  0  0  0  0  0  0  0  0  0  0  0
  -33.9300  -19.9390   22.2060 H   0  0  0  0  0  0  0  0  0  0  0  0
  -33.5600  -20.1340   20.6220 H   0  0  0  0  0  0  0  0  0  0  0  0
  -28.9880  -19.6370   20.0360 C   0  0  0  0  0  2  0  0  0  0  0  0
  -28.9620  -21.3050   20.6420 C   0  0  0  0  0  2  0  0  0  0  0  0
  -28.5590  -22.9210   19.9840 C   0  0  0  0  0  2  0  0  0  0  0  0
  -27.7080  -24.4700   20.2530 C   0  0  0  0  0  2  0  0  0  0  0  0
  -28.0230  -26.0620   20.1320 O   0  0  0  0  0  0  0  0  0  0  0  0
  -24.5560  -31.9790   23.2260 C   0  0  0  0  0  0  0  0  0  0  0  0
  -27.0060  -27.1380   20.1280 C   0  0  0  0  0  0  0  0  0  0  0  0
  -23.3120  -30.5960   21.6150 C   0  0  0  0  0  3  0  0  0  0  0  0
  -24.7140  -28.9960   20.1550 C   0  0  0  0  0  0  0  0  0  0  0  0
  -25.8740  -30.8040   21.4050 C   0  0  0  0  0  2  0  0  0  0  0  0
  -25.9180  -29.4020   20.7420 C   0  0  0  0  0  0  0  0  0  0  0  0
  -27.0630  -28.4910   20.7030 C   0  0  0  0  0  3  0  0  0  0  0  0
  -25.7700  -26.8770   19.4930 C   0  0  0  0  0  3  0  0  0  0  0  0
  -24.6600  -27.7530   19.5100 C   0  0  0  0  0  3  0  0  0  0  0  0
  -23.5040  -29.9230   20.2320 C   0  0  0  0  0  2  0  0  0  0  0  0
  -24.6040  -31.1520   22.1350 N   0  0  0  0  0  0  0  0  0  0  0  0
  -23.4820  -32.2740   23.7760 O   0  0  0  0  0  0  0  0  0  0  0  0
  -22.6400  -29.5970   22.5920 C   0  0  0  0  0  0  0  0  0  0  0  0
  -21.3120  -29.4120   22.4750 N   0  0  0  0  0  0  0  0  0  0  0  0
  -23.3210  -28.9870   23.4220 O   0  0  0  0  0  0  0  0  0  0  0  0
  -20.8170  -29.9550   21.7810 H   0  0  0  0  0  0  0  0  0  0  0  0
  -17.9560  -28.1320   22.9790 C   0  0  0  0  0  0  0  0  0  0  0  0
  -20.5050  -28.4690   23.2580 C   0  0  0  0  0  3  0  0  0  0  0  0
  -20.6500  -27.0280   22.7210 C   0  0  0  0  0  2  0  0  0  0  0  0
  -19.5660  -26.6510   21.7050 C   0  0  0  0  0  2  0  0  0  0  0  0
  -18.1740  -26.7730   22.3340 C   0  0  0  0  0  2  0  0  0  0  0  0
  -19.0500  -28.9350   23.3990 C   0  0  0  0  0  0  0  0  0  0  0  0
  -18.7920  -30.2020   23.9650 C   0  0  0  0  0  3  0  0  0  0  0  0
  -17.4720  -30.6680   24.1170 C   0  0  0  0  0  3  0  0  0  0  0  0
  -16.3930  -29.8640   23.7120 C   0  0  0  0  0  3  0  0  0  0  0  0
  -16.6350  -28.5990   23.1480 C   0  0  0  0  0  3  0  0  0  0  0  0
  -25.8470  -32.6110   23.8260 C   0  0  0  0  0  3  0  0  0  0  0  0
  -26.3730  -31.8470   25.1040 C   0  0  1  0  0  0  0  0  0  0  0  0
  -25.2910  -31.6240   26.1870 C   0  0  0  0  0  1  0  0  0  0  0  0
  -26.9470  -30.4620   24.7240 C   0  0  0  0  0  1  0  0  0  0  0  0
  -27.5360  -32.6430   25.7460 C   0  0  0  0  0  1  0  0  0  0  0  0
  -25.5500  -34.0150   24.1580 N   0  0  0  0  0  0  0  0  0  0  0  0
  -25.8860  -35.0700   23.4050 C   0  0  0  0  0  0  0  0  0  0  0  0
  -26.5400  -34.9630   22.3660 O   0  0  0  0  0  0  0  0  0  0  0  0
  -24.9680  -34.1700   24.9680 H   0  0  0  0  0  0  0  0  0  0  0  0
  -24.1850  -36.8990   23.0760 C   0  0  0  0  0  1  0  0  0  0  0  0
  -25.4220  -36.4630   23.8770 C   0  0  0  0  0  3  0  0  0  0  0  0
  -27.5720  -37.3170   24.7070 C   0  0  0  0  0  1  0  0  0  0  0  0
  -26.4710  -37.5010   23.7650 N   0  0  0  0  0  0  0  0  0  0  0  0
  -26.0790  -38.4260   23.9170 H   0  0  0  0  0  0  0  0  0  0  0  0
  3  8  1  0
  4  5  1  0
  4  3  1  0
  6  5  1  0
  6 15  1  0
  6  7  1  0
  8  2  1  0
  8  7  1  0
  9  2  2  0
 10  2  1  0
 10  1  2  0
 11 10  1  0
 12 13  2  0
 13 32  1  0
 14 13  1  0
 14 17  1  0
 15 12  1  0
 15 16  1  0
 16 14  2  0
 17 18  1  0
 18 19  2  0
 20 23  1  0
 20 19  1  0
 21 20  2  0
 22 21  1  0
 22 17  2  0
 23 24  1  0
 24 25  1  0
 25 26  2  0
 27 26  1  0
 27 31  1  0
 28 27  2  0
 29 24  2  0
 29 28  1  0
 30 29  1  0
 32 33  1  0
 33 36  1  0
 33 35  1  0
 34 32  2  0
 37 38  1  0
 37 12  1  0
 39 37  1  0
 40  1  1  0
 40 42  1  0
 41 40  2  0
 43 42  1  0
 43 45  1  0
 44 43  1  0
 46 43  1  0
 47  1  1  0
 47 48  1  0
 49 50  1  0
 49 48  1  0
 51 50  1  0
 52 63  2  0
 53 51  1  0
 53 58  1  0
 54 62  1  0
 54 64  1  0
 55 61  1  0
 55 57  1  0
 56 62  1  0
 57 56  1  0
 58 57  2  0
 59 60  1  0
 59 53  2  0
 60 55  2  0
 61 54  1  0
 62 52  1  0
 64 66  2  0
 65 64  1  0
 67 65  1  0
 68 77  2  0
 68 73  1  0
 69 65  1  0
 69 73  1  0
 70 69  1  0
 71 72  1  0
 71 70  1  0
 72 68  1  0
 73 74  2  0
 74 75  1  0
 76 75  2  0
 77 76  1  0
 78 52  1  0
 78 83  1  0
 78 79  1  0
 79 82  1  1
 79 80  1  0
 81 79  1  0
 83 86  1  0
 84 88  1  0
 84 83  1  0
 85 84  2  0
 88 87  1  0
 90 88  1  0
 90 91  1  0
 90 89  1  0
M  ISO  4   2 100  10 100  50 101  51 101
M  END
>  <TORSDO>  (60) 
F 23

>  <SCORE>  (60) 
-14.519

>  <name>  (60) 
59

>  <ligand_id>  (60) 
59

>  <original_smiles>  (60) 
[H]c1c([H])c([H])c2c(c1[H])C([H])([H])C([H])([H])C([H])([H])C2([H])N([H])C(=O)C1([H])N(C(=O)C([H])(N([H])C(=O)C([H])(N([H])C([H])([H])[H])C([H])([H])[H])C(C([H])([H])[H])(C([H])([H])[H])C([H])([H])[H])C([H])([H])c2c([H])c(OC([H])([H])C([H])([H])C([H])([H])C([H])([H])C([H])(C(=O)C([H])([H])[N+]([H])([H])[H])N([H])C(=O)N3C([H])([H])C([H])([H])C([H])([H])C([H])(n4nc(-c5c([H])c([H])c(Oc6c([H])c([H])c(F)c([H])c6F)c([H])c5[H])c(C(=O)N([H])[H])c4N([H])[H])C3([H])[H])c([H])c([H])c2C1([H])[H]

>  <smiles>  (60) 
[H]c1c([H])c([H])c2c(c1[H])C([H])([H])C([H])([H])C([H])([H])C2([H])N([H])C(=O)C1([H])N(C(=O)C([H])(N([H])C(=O)C([H])(N([H])C([H])([H])[H])C([H])([H])[H])C(C([H])([H])[H])(C([H])([H])[H])C([H])([H])[H])C([H])([H])c2c([H])c(OC([H])([H])C([H])([H])C([H])([H])C([H])([H])C([H])(C(=O)C([H])([H])[N+]([H])([H])[H])N([H])C(=O)N3C([H])([H])C([H])([H])C([H])([H])C([H])(n4nc(-c5c([H])c([H])c(Oc6c([H])c([H])c(F)c([H])c6F)c([H])c5[H])c(C(=O)N([H])[H])c4N([H])[H])C3([H])[H])c([H])c([H])c2C1([H])[H]

$$$$
60:0:0
     RDKit          3D

 93101  0  0  1  0  0  0  0  0999 V2000
  -28.8050  -19.1050   21.4170 C   0  0  0  0  0  2  0  0  0  0  0  0
  -29.3270  -20.5560   21.7160 C   0  0  0  0  0  2  0  0  0  0  0  0
  -29.7760  -21.0060   19.4010 C   0  0  0  0  0  2  0  0  0  0  0  0
  -29.1690  -19.6260   18.9660 C   0  0  0  0  0  3  0  0  0  0  0  0
  -29.1620  -18.4320   20.0300 C   0  0  2  0  0  0  0  0  0  0  0  0
  -29.6240  -19.2480   17.5400 C   0  0  0  0  0  1  0  0  0  0  0  0
  -27.9310  -17.5610   19.6820 C   0  0  0  0  0  1  0  0  0  0  0  0
  -29.0710  -21.5280   20.6030 N   0  0  2  0  0  4  0  0  0  0  0  0
  -28.0840  -21.4660   20.3990 H   0  0  0  0  0  0  0  0  0  0  0  0
  -31.5600  -17.9030   20.9850 C   0  0  0  0  0  1  0  0  0  0  0  0
  -30.4390  -17.4240   20.0440 C   0  0  0  0  0  3  0  0  0  0  0  0
  -30.9360  -14.8530   19.9280 C   0  0  0  0  0  0  0  0  0  0  0  0
  -30.6800  -12.5650   18.9800 C   0  0  0  0  0  2  0  0  0  0  0  0
  -29.6660  -12.6230   17.8170 C   0  0  0  0  0  2  0  0  0  0  0  0
  -28.2230  -12.4750   18.3400 C   0  0  0  0  0  2  0  0  0  0  0  0
  -27.9270  -13.3970   19.5550 C   0  0  0  0  0  3  0  0  0  0  0  0
  -29.0510  -13.3040   20.6120 C   0  0  0  0  0  2  0  0  0  0  0  0
  -30.3180  -13.6300   19.9410 N   0  0  0  0  0  0  0  0  0  0  0  0
  -32.0630  -14.9840   19.4430 O   0  0  0  0  0  0  0  0  0  0  0  0
  -30.1790  -15.9480   20.2870 N   0  0  0  0  0  0  0  0  0  0  0  0
  -29.2670  -15.7250   20.6570 H   0  0  0  0  0  0  0  0  0  0  0  0
  -25.6150  -14.0130   20.4860 C   0  0  0  0  0  0  0  0  0  0  0  0
  -24.5620  -13.2520   20.9080 C   0  0  0  0  0  0  0  0  0  0  0  0
  -24.9810  -11.8930   20.7750 C   0  0  0  0  0  0  0  0  0  0  0  0
  -26.6150  -13.1220   20.1320 N   0  0  0  0  0  0  0  0  0  0  0  0
  -26.2430  -11.8380   20.3620 N   0  0  0  0  0  0  0  0  0  0  0  0
  -24.2330  -10.6460   20.9560 C   0  0  0  0  0  0  0  0  0  0  0  0
  -24.6520   -9.6620   21.8790 C   0  0  0  0  0  3  0  0  0  0  0  0
  -23.9010   -8.4790   22.0530 C   0  0  0  0  0  3  0  0  0  0  0  0
  -22.7190   -8.2740   21.3040 C   0  0  0  0  0  0  0  0  0  0  0  0
  -22.3190   -9.2450   20.3710 C   0  0  0  0  0  3  0  0  0  0  0  0
  -23.0700  -10.4200   20.1940 C   0  0  0  0  0  3  0  0  0  0  0  0
  -21.9430   -7.1430   21.3860 O   0  0  0  0  0  0  0  0  0  0  0  0
  -21.8260   -6.4340   22.5530 C   0  0  0  0  0  0  0  0  0  0  0  0
  -21.2910   -7.0110   23.7270 C   0  0  0  0  0  3  0  0  0  0  0  0
  -21.1270   -6.2260   24.8850 C   0  0  0  0  0  3  0  0  0  0  0  0
  -21.4860   -4.8650   24.8690 C   0  0  0  0  0  0  0  0  0  0  0  0
  -22.0150   -4.2870   23.7020 C   0  0  0  0  0  3  0  0  0  0  0  0
  -22.1810   -5.0700   22.5470 C   0  0  0  0  0  0  0  0  0  0  0  0
  -22.6700   -4.5050   21.4160 F   0  0  0  0  0  0  0  0  0  0  0  0
  -21.3210   -4.1080   25.9800 F   0  0  0  0  0  0  0  0  0  0  0  0
  -23.2090  -13.7550   21.3150 C   0  0  0  0  0  0  0  0  0  0  0  0
  -22.5330  -13.0410   22.2070 N   0  0  0  0  0  0  0  0  0  0  0  0
  -22.7660  -14.8190   20.8830 O   0  0  0  0  0  0  0  0  0  0  0  0
  -22.9080  -12.1790   22.5740 H   0  0  0  0  0  0  0  0  0  0  0  0
  -21.6280  -13.3590   22.5250 H   0  0  0  0  0  0  0  0  0  0  0  0
  -25.7850  -15.3820   20.3550 N   0  0  0  0  0  0  0  0  0  0  0  0
  -25.0330  -16.0340   20.5530 H   0  0  0  0  0  0  0  0  0  0  0  0
  -26.6150  -15.8350   19.9950 H   0  0  0  0  0  0  0  0  0  0  0  0
  -29.2780  -22.9900   20.9850 C   0  0  0  0  0  2  0  0  0  0  0  0
  -28.9200  -24.1450   19.9460 C   0  0  0  0  0  3  0  0  0  0  0  0
  -28.5080  -25.5430   20.5780 C   0  0  0  0  0  3  0  0  0  0  0  0
  -28.4720  -26.7360   19.7220 O   0  0  0  0  0  0  0  0  0  0  0  0
  -24.6270  -31.7720   23.1120 C   0  0  0  0  0  0  0  0  0  0  0  0
  -27.3170  -27.5110   19.7810 C   0  0  0  0  0  0  0  0  0  0  0  0
  -23.4280  -30.4220   21.4240 C   0  0  0  0  0  3  0  0  0  0  0  0
  -24.8930  -28.9970   19.8890 C   0  0  0  0  0  0  0  0  0  0  0  0
  -25.9420  -30.8520   21.1930 C   0  0  0  0  0  2  0  0  0  0  0  0
  -26.0530  -29.5120   20.4810 C   0  0  0  0  0  0  0  0  0  0  0  0
  -27.2720  -28.7800   20.4170 C   0  0  0  0  0  3  0  0  0  0  0  0
  -26.1400  -27.0250   19.1740 C   0  0  0  0  0  3  0  0  0  0  0  0
  -24.9340  -27.7560   19.2280 C   0  0  0  0  0  3  0  0  0  0  0  0
  -23.6290  -29.8220   20.0070 C   0  0  0  0  0  2  0  0  0  0  0  0
  -24.6850  -31.0310   21.9680 N   0  0  0  0  0  0  0  0  0  0  0  0
  -23.5500  -31.9790   23.6900 O   0  0  0  0  0  0  0  0  0  0  0  0
  -22.8260  -29.3360   22.3460 C   0  0  0  0  0  0  0  0  0  0  0  0
  -21.5020  -29.1250   22.2460 N   0  0  0  0  0  0  0  0  0  0  0  0
  -23.5460  -28.6850   23.1070 O   0  0  0  0  0  0  0  0  0  0  0  0
  -20.9790  -29.7030   21.6030 H   0  0  0  0  0  0  0  0  0  0  0  0
  -18.1710  -27.8300   22.7980 C   0  0  0  0  0  0  0  0  0  0  0  0
  -20.7340  -28.1250   22.9870 C   0  0  0  0  0  3  0  0  0  0  0  0
  -20.8420  -26.7360   22.3170 C   0  0  0  0  0  2  0  0  0  0  0  0
  -19.7090  -26.4530   21.3280 C   0  0  0  0  0  2  0  0  0  0  0  0
  -18.3480  -26.5300   22.0280 C   0  0  0  0  0  2  0  0  0  0  0  0
  -19.2910  -28.5860   23.2320 C   0  0  0  0  0  0  0  0  0  0  0  0
  -19.0730  -29.8040   23.9110 C   0  0  0  0  0  3  0  0  0  0  0  0
  -17.7690  -30.2700   24.1560 C   0  0  0  0  0  3  0  0  0  0  0  0
  -16.6620  -29.5130   23.7350 C   0  0  0  0  0  3  0  0  0  0  0  0
  -16.8660  -28.2930   23.0630 C   0  0  0  0  0  3  0  0  0  0  0  0
  -25.9050  -32.4120   23.7370 C   0  0  0  0  0  3  0  0  0  0  0  0
  -26.4470  -31.6210   24.9910 C   0  0  1  0  0  0  0  0  0  0  0  0
  -25.3660  -31.3410   26.0610 C   0  0  0  0  0  1  0  0  0  0  0  0
  -27.0520  -30.2680   24.5550 C   0  0  0  0  0  1  0  0  0  0  0  0
  -27.5900  -32.4200   25.6600 C   0  0  0  0  0  1  0  0  0  0  0  0
  -25.5800  -33.7960   24.1050 N   0  0  0  0  0  0  0  0  0  0  0  0
  -25.9030  -34.8740   23.3770 C   0  0  0  0  0  0  0  0  0  0  0  0
  -26.5770  -34.8070   22.3450 O   0  0  0  0  0  0  0  0  0  0  0  0
  -24.9870  -33.9220   24.9120 H   0  0  0  0  0  0  0  0  0  0  0  0
  -24.1580  -36.6510   23.0550 C   0  0  0  0  0  1  0  0  0  0  0  0
  -25.3970  -36.2440   23.8700 C   0  0  0  0  0  3  0  0  0  0  0  0
  -27.5060  -37.1340   24.7530 C   0  0  0  0  0  1  0  0  0  0  0  0
  -26.4200  -37.3110   23.7960 N   0  0  0  0  0  0  0  0  0  0  0  0
  -26.0000  -38.2220   23.9530 H   0  0  0  0  0  0  0  0  0  0  0  0
  1  2  1  0
  3  8  1  0
  4  6  1  0
  4  3  1  0
  4  5  1  0
  5  7  1  6
  5 11  1  0
  5  1  1  0
  8 50  1  0
  8  2  1  0
  8  9  1  6
 11 20  1  0
 11 10  1  0
 12 18  1  0
 12 20  1  0
 13 18  1  0
 14 15  1  0
 14 13  1  0
 16 15  1  0
 16 25  1  0
 16 17  1  0
 18 17  1  0
 19 12  2  0
 20 21  1  0
 22 23  2  0
 23 42  1  0
 24 23  1  0
 24 27  1  0
 25 26  1  0
 25 22  1  0
 26 24  2  0
 27 28  1  0
 28 29  2  0
 30 33  1  0
 30 29  1  0
 31 30  2  0
 32 31  1  0
 32 27  2  0
 33 34  1  0
 34 35  1  0
 35 36  2  0
 37 36  1  0
 37 41  1  0
 38 37  2  0
 39 34  2  0
 39 38  1  0
 40 39  1  0
 42 43  1  0
 43 46  1  0
 43 45  1  0
 44 42  2  0
 47 22  1  0
 47 48  1  0
 49 47  1  0
 51 52  2  0
 51 50  1  0
 53 55  1  0
 53 52  1  0
 54 65  2  0
 55 60  1  0
 56 64  1  0
 56 66  1  0
 57 63  1  0
 57 59  1  0
 58 64  1  0
 59 58  1  0
 60 59  2  0
 61 62  1  0
 61 55  2  0
 62 57  2  0
 63 56  1  0
 64 54  1  0
 66 68  2  0
 67 66  1  0
 69 67  1  0
 70 79  2  0
 70 75  1  0
 71 67  1  0
 71 75  1  0
 72 71  1  0
 73 74  1  0
 73 72  1  0
 74 70  1  0
 75 76  2  0
 76 77  1  0
 78 77  2  0
 79 78  1  0
 80 54  1  0
 80 85  1  0
 80 81  1  0
 81 84  1  1
 81 82  1  0
 83 81  1  0
 85 88  1  0
 86 90  1  0
 86 85  1  0
 87 86  2  0
 90 89  1  0
 92 90  1  0
 92 93  1  0
 92 91  1  0
M  ISO  4  12 100  20 100  52 101  53 101
M  END
>  <TORSDO>  (61) 
F 20

>  <SCORE>  (61) 
-12.423

>  <name>  (61) 
60

>  <ligand_id>  (61) 
60

>  <original_smiles>  (61) 
[H]c1c([H])c([H])c2c(c1[H])C([H])([H])C([H])([H])C([H])([H])C2([H])N([H])C(=O)C1([H])N(C(=O)C([H])(N([H])C(=O)C([H])(N([H])C([H])([H])[H])C([H])([H])[H])C(C([H])([H])[H])(C([H])([H])[H])C([H])([H])[H])C([H])([H])c2c([H])c(OC([H])([H])C([H])([H])C([H])([H])[N+]3([H])C([H])([H])C([H])([H])C(C([H])([H])[H])(C([H])(N([H])C(=O)N4C([H])([H])C([H])([H])C([H])([H])C([H])(n5nc(-c6c([H])c([H])c(Oc7c([H])c([H])c(F)c([H])c7F)c([H])c6[H])c(C(=O)N([H])[H])c5N([H])[H])C4([H])[H])C([H])([H])[H])C([H])(C([H])([H])[H])C3([H])[H])c([H])c([H])c2C1([H])[H]

>  <smiles>  (61) 
[H]c1c([H])c([H])c2c(c1[H])C([H])([H])C([H])([H])C([H])([H])C2([H])N([H])C(=O)C1([H])N(C(=O)C([H])(N([H])C(=O)C([H])(N([H])C([H])([H])[H])C([H])([H])[H])C(C([H])([H])[H])(C([H])([H])[H])C([H])([H])[H])C([H])([H])c2c([H])c(OC([H])([H])C([H])([H])C([H])([H])[N+]3([H])C([H])([H])C([H])([H])C(C([H])([H])[H])(C([H])(N([H])C(=O)N4C([H])([H])C([H])([H])C([H])([H])C([H])(n5nc(-c6c([H])c([H])c(Oc7c([H])c([H])c(F)c([H])c7F)c([H])c6[H])c(C(=O)N([H])[H])c5N([H])[H])C4([H])[H])C([H])([H])[H])C([H])(C([H])([H])[H])C3([H])[H])c([H])c([H])c2C1([H])[H]

$$$$
61:0:0
     RDKit          3D

 92100  0  0  1  0  0  0  0  0999 V2000
  -30.8440  -15.8080   19.8270 C   0  0  0  0  0  0  0  0  0  0  0  0
  -30.8390  -13.2430   19.0590 C   0  0  0  0  0  2  0  0  0  0  0  0
  -29.9000  -12.8190   17.8940 C   0  0  0  0  0  2  0  0  0  0  0  0
  -28.4790  -12.5180   18.3940 C   0  0  0  0  0  2  0  0  0  0  0  0
  -28.0350  -13.5350   19.4680 C   0  0  0  0  0  3  0  0  0  0  0  0
  -29.1220  -13.8350   20.5350 C   0  0  0  0  0  2  0  0  0  0  0  0
  -30.2700  -14.4530   19.8200 N   0  0  0  0  0  0  0  0  0  0  0  0
  -32.0490  -15.6890   19.5290 O   0  0  0  0  0  0  0  0  0  0  0  0
  -28.9900  -17.4180   20.7860 C   0  0  0  0  0  2  0  0  0  0  0  0
  -30.5040  -18.8930   19.5180 C   0  0  0  0  0  2  0  0  0  0  0  0
  -27.9900  -18.6070   20.4510 C   0  0  0  0  0  3  0  0  0  0  0  0
  -29.7110  -20.5530   19.9760 C   0  0  0  0  0  3  0  0  0  0  0  0
  -28.4950  -20.0560   20.8100 C   0  0  0  0  0  3  0  0  0  0  0  0
  -27.3770  -21.1060   20.9430 C   0  0  0  0  0  1  0  0  0  0  0  0
  -30.1730  -17.2290   19.9140 N   0  0  0  0  0  0  0  0  0  0  0  0
  -25.7130  -14.1190   20.3350 C   0  0  0  0  0  0  0  0  0  0  0  0
  -24.6450  -13.3710   20.7310 C   0  0  0  0  0  0  0  0  0  0  0  0
  -25.0640  -12.0050   20.6390 C   0  0  0  0  0  0  0  0  0  0  0  0
  -26.7230  -13.2260   20.0290 N   0  0  0  0  0  0  0  0  0  0  0  0
  -26.3450  -11.9420   20.2740 N   0  0  0  0  0  0  0  0  0  0  0  0
  -24.2990  -10.7640   20.8220 C   0  0  0  0  0  0  0  0  0  0  0  0
  -24.6980   -9.7780   21.7510 C   0  0  0  0  0  3  0  0  0  0  0  0
  -23.9310   -8.6060   21.9300 C   0  0  0  0  0  3  0  0  0  0  0  0
  -22.7490   -8.4110   21.1780 C   0  0  0  0  0  0  0  0  0  0  0  0
  -22.3650   -9.3840   20.2370 C   0  0  0  0  0  3  0  0  0  0  0  0
  -23.1340  -10.5470   20.0580 C   0  0  0  0  0  3  0  0  0  0  0  0
  -21.9550   -7.2920   21.2650 O   0  0  0  0  0  0  0  0  0  0  0  0
  -21.8240   -6.5940   22.4380 C   0  0  0  0  0  0  0  0  0  0  0  0
  -21.3110   -7.1960   23.6070 C   0  0  0  0  0  3  0  0  0  0  0  0
  -21.1270   -6.4260   24.7730 C   0  0  0  0  0  3  0  0  0  0  0  0
  -21.4450   -5.0550   24.7690 C   0  0  0  0  0  0  0  0  0  0  0  0
  -21.9480   -4.4510   23.6030 C   0  0  0  0  0  3  0  0  0  0  0  0
  -22.1350   -5.2190   22.4390 C   0  0  0  0  0  0  0  0  0  0  0  0
  -22.6020   -4.6310   21.3130 F   0  0  0  0  0  0  0  0  0  0  0  0
  -21.2600   -4.3110   25.8850 F   0  0  0  0  0  0  0  0  0  0  0  0
  -23.2750  -13.8860   21.0630 C   0  0  0  0  0  0  0  0  0  0  0  0
  -22.5730  -13.2220   21.9720 N   0  0  0  0  0  0  0  0  0  0  0  0
  -22.8440  -14.9200   20.5500 O   0  0  0  0  0  0  0  0  0  0  0  0
  -22.9360  -12.3850   22.4020 H   0  0  0  0  0  0  0  0  0  0  0  0
  -21.6560  -13.5500   22.2360 H   0  0  0  0  0  0  0  0  0  0  0  0
  -25.9050  -15.4860   20.1650 N   0  0  0  0  0  0  0  0  0  0  0  0
  -25.0800  -16.0700   20.1400 H   0  0  0  0  0  0  0  0  0  0  0  0
  -26.6370  -15.7900   19.5390 H   0  0  0  0  0  0  0  0  0  0  0  0
  -31.0510  -22.8470   19.2350 C   0  0  0  0  0  1  0  0  0  0  0  0
  -29.5820  -22.3740   19.3080 C   0  0  0  0  0  3  0  0  0  0  0  0
  -28.5770  -24.0060   19.5690 C   0  0  0  0  0  2  0  0  0  0  0  0
  -28.4370  -25.6640   19.0240 O   0  0  0  0  0  0  0  0  0  0  0  0
  -24.8170  -31.4060   22.7840 C   0  0  0  0  0  0  0  0  0  0  0  0
  -27.3910  -26.7940   19.1860 C   0  0  0  0  0  0  0  0  0  0  0  0
  -23.6130  -30.1740   21.0280 C   0  0  0  0  0  3  0  0  0  0  0  0
  -25.0590  -28.7330   19.4110 C   0  0  0  0  0  0  0  0  0  0  0  0
  -26.1820  -30.4040   20.8580 C   0  0  0  0  0  2  0  0  0  0  0  0
  -26.2620  -29.0590   20.0460 C   0  0  0  0  0  0  0  0  0  0  0  0
  -27.4150  -28.1270   19.8930 C   0  0  0  0  0  3  0  0  0  0  0  0
  -26.1380  -26.6660   18.5290 C   0  0  0  0  0  3  0  0  0  0  0  0
  -25.0330  -27.5650   18.6290 C   0  0  0  0  0  3  0  0  0  0  0  0
  -23.8250  -29.6360   19.5850 C   0  0  0  0  0  2  0  0  0  0  0  0
  -24.8940  -30.6880   21.6110 N   0  0  0  0  0  0  0  0  0  0  0  0
  -23.7340  -31.6190   23.3530 O   0  0  0  0  0  0  0  0  0  0  0  0
  -22.9420  -29.0800   21.8990 C   0  0  0  0  0  0  0  0  0  0  0  0
  -21.6030  -28.9470   21.8300 N   0  0  0  0  0  0  0  0  0  0  0  0
  -23.6410  -28.3490   22.6050 O   0  0  0  0  0  0  0  0  0  0  0  0
  -21.0900  -29.5960   21.2510 H   0  0  0  0  0  0  0  0  0  0  0  0
  -18.2310  -27.7450   22.4490 C   0  0  0  0  0  0  0  0  0  0  0  0
  -20.8130  -27.9130   22.5140 C   0  0  0  0  0  3  0  0  0  0  0  0
  -20.8140  -26.5860   21.7140 C   0  0  0  0  0  2  0  0  0  0  0  0
  -19.6190  -26.4620   20.7610 C   0  0  0  0  0  2  0  0  0  0  0  0
  -18.2960  -26.5340   21.5320 C   0  0  0  0  0  2  0  0  0  0  0  0
  -19.4090  -28.4020   22.8930 C   0  0  0  0  0  0  0  0  0  0  0  0
  -19.2870  -29.5430   23.7160 C   0  0  0  0  0  3  0  0  0  0  0  0
  -18.0230  -30.0320   24.0910 C   0  0  0  0  0  3  0  0  0  0  0  0
  -16.8600  -29.3720   23.6580 C   0  0  0  0  0  3  0  0  0  0  0  0
  -16.9660  -28.2290   22.8470 C   0  0  0  0  0  3  0  0  0  0  0  0
  -26.0870  -32.0040   23.4660 C   0  0  0  0  0  3  0  0  0  0  0  0
  -26.6230  -31.1210   24.6600 C   0  0  1  0  0  0  0  0  0  0  0  0
  -25.5460  -30.7660   25.7120 C   0  0  0  0  0  1  0  0  0  0  0  0
  -27.2170  -29.7920   24.1460 C   0  0  0  0  0  1  0  0  0  0  0  0
  -27.7740  -31.8630   25.3830 C   0  0  0  0  0  1  0  0  0  0  0  0
  -25.7520  -33.3570   23.9550 N   0  0  0  0  0  0  0  0  0  0  0  0
  -26.0980  -34.5030   23.3520 C   0  0  0  0  0  0  0  0  0  0  0  0
  -26.7900  -34.5300   22.3300 O   0  0  0  0  0  0  0  0  0  0  0  0
  -25.1350  -33.4090   24.7520 H   0  0  0  0  0  0  0  0  0  0  0  0
  -24.4070  -36.3600   23.1690 C   0  0  0  0  0  1  0  0  0  0  0  0
  -25.6040  -35.8260   23.9730 C   0  0  0  0  0  3  0  0  0  0  0  0
  -27.6940  -36.5670   25.0290 C   0  0  0  0  0  1  0  0  0  0  0  0
  -26.6510  -36.8700   24.0530 N   0  0  0  0  0  0  0  0  0  0  0  0
  -26.2460  -37.7720   24.2920 H   0  0  0  0  0  0  0  0  0  0  0  0
  -27.4110  -18.5140   19.0190 C   0  0  0  0  0  2  0  0  0  0  0  0
  -26.0560  -19.0850   18.9240 N   0  0  0  0  0  4  0  0  0  0  0  0
  -26.0730  -20.0480   19.2130 H   0  0  0  0  0  0  0  0  0  0  0  0
  -25.4070  -18.5820   19.5030 H   0  0  0  0  0  0  0  0  0  0  0  0
  -25.7270  -19.0500   17.9750 H   0  0  0  0  0  0  0  0  0  0  0  0
  1 15  1  0
  2  7  1  0
  3  4  1  0
  3  2  1  0
  5  4  1  0
  5 19  1  0
  5  6  1  0
  7  1  1  0
  7  6  1  0
  8  1  2  0
 10 15  1  0
 10 12  1  0
 11 88  1  0
 11  9  1  0
 11 13  1  0
 12 45  1  0
 12 13  1  0
 13 14  1  0
 15  9  1  0
 16 17  2  0
 17 36  1  0
 18 17  1  0
 18 21  1  0
 19 20  1  0
 19 16  1  0
 20 18  2  0
 21 22  1  0
 22 23  2  0
 24 27  1  0
 24 23  1  0
 25 24  2  0
 26 25  1  0
 26 21  2  0
 27 28  1  0
 28 33  2  0
 28 29  1  0
 29 30  2  0
 31 30  1  0
 31 35  1  0
 32 31  2  0
 33 32  1  0
 34 33  1  0
 36 37  1  0
 37 40  1  0
 37 39  1  0
 38 36  2  0
 41 16  1  0
 42 41  1  0
 43 41  1  0
 45 44  1  0
 45 46  1  0
 47 49  1  0
 47 46  1  0
 48 59  2  0
 49 54  1  0
 50 58  1  0
 50 60  1  0
 51 57  1  0
 51 53  1  0
 52 58  1  0
 53 52  1  0
 54 53  2  0
 55 56  1  0
 55 49  2  0
 56 51  2  0
 57 50  1  0
 58 48  1  0
 60 62  2  0
 61 60  1  0
 63 61  1  0
 64 73  2  0
 64 69  1  0
 65 61  1  0
 65 69  1  0
 66 65  1  0
 67 68  1  0
 67 66  1  0
 68 64  1  0
 69 70  2  0
 70 71  1  0
 72 71  2  0
 73 72  1  0
 74 48  1  0
 74 79  1  0
 74 75  1  0
 75 78  1  1
 75 76  1  0
 77 75  1  0
 79 82  1  0
 80 79  1  0
 80 84  1  0
 81 80  2  0
 84 83  1  0
 84 86  1  0
 86 87  1  0
 86 85  1  0
 89 88  1  0
 89 90  1  0
 89 91  1  0
 92 89  1  0
M  ISO  4   1 100  15 100  46 101  47 101
M  END
>  <TORSDO>  (62) 
F 19

>  <SCORE>  (62) 
-13.258

>  <name>  (62) 
61

>  <ligand_id>  (62) 
61

>  <original_smiles>  (62) 
[H]c1c([H])c([H])c2c(c1[H])C([H])([H])C([H])([H])C([H])([H])C2([H])N([H])C(=O)C1([H])N(C(=O)C([H])(N([H])C(=O)C([H])(N([H])C([H])([H])[H])C([H])([H])[H])C(C([H])([H])[H])(C([H])([H])[H])C([H])([H])[H])C([H])([H])c2c([H])c(OC([H])([H])C([H])(C([H])([H])[H])C3([H])C([H])([H])N(C(=O)N4C([H])([H])C([H])([H])C([H])([H])C([H])(n5nc(-c6c([H])c([H])c(Oc7c([H])c([H])c(F)c([H])c7F)c([H])c6[H])c(C(=O)N([H])[H])c5N([H])[H])C4([H])[H])C([H])([H])C([H])(C([H])([H])[N+]([H])([H])[H])C3([H])C([H])([H])[H])c([H])c([H])c2C1([H])[H]

>  <smiles>  (62) 
[H]c1c([H])c([H])c2c(c1[H])C([H])([H])C([H])([H])C([H])([H])C2([H])N([H])C(=O)C1([H])N(C(=O)C([H])(N([H])C(=O)C([H])(N([H])C([H])([H])[H])C([H])([H])[H])C(C([H])([H])[H])(C([H])([H])[H])C([H])([H])[H])C([H])([H])c2c([H])c(OC([H])([H])C([H])(C([H])([H])[H])C3([H])C([H])([H])N(C(=O)N4C([H])([H])C([H])([H])C([H])([H])C([H])(n5nc(-c6c([H])c([H])c(Oc7c([H])c([H])c(F)c([H])c7F)c([H])c6[H])c(C(=O)N([H])[H])c5N([H])[H])C4([H])[H])C([H])([H])C([H])(C([H])([H])[N+]([H])([H])[H])C3([H])C([H])([H])[H])c([H])c([H])c2C1([H])[H]

$$$$
62:0:0
     RDKit          3D

 90 98  0  0  1  0  0  0  0  0999 V2000
  -29.6620  -21.3120   19.9510 C   0  0  0  0  0  2  0  0  0  0  0  0
  -27.4960  -21.5360   20.7090 C   0  0  0  0  0  2  0  0  0  0  0  0
  -28.4310  -22.5120   19.8900 C   0  0  0  0  0  3  0  0  0  0  0  0
  -29.2740  -19.6840   20.3780 C   0  0  0  0  0  3  0  0  0  0  0  0
  -27.7280  -19.9600   20.4470 C   0  0  0  0  0  3  0  0  0  0  0  0
  -27.5010  -18.8120   18.0960 C   0  0  0  0  0  1  0  0  0  0  0  0
  -26.8020  -19.5060   19.2750 C   0  0  0  0  0  3  0  0  0  0  0  0
  -24.4680  -18.4390   18.8520 C   0  0  0  0  0  1  0  0  0  0  0  0
  -25.6460  -18.6300   19.8210 C   0  0  0  0  0  2  0  0  0  0  0  0
  -30.0860  -18.1010   20.0160 C   0  0  0  0  0  2  0  0  0  0  0  0
  -30.6070  -15.2130   20.1500 C   0  0  0  0  0  0  0  0  0  0  0  0
  -30.5290  -12.7620   19.2790 C   0  0  0  0  0  2  0  0  0  0  0  0
  -29.6050  -12.6580   18.0430 C   0  0  0  0  0  2  0  0  0  0  0  0
  -28.1650  -12.3760   18.5010 C   0  0  0  0  0  2  0  0  0  0  0  0
  -27.7380  -13.3200   19.6560 C   0  0  0  0  0  3  0  0  0  0  0  0
  -28.8020  -13.4300   20.7740 C   0  0  0  0  0  2  0  0  0  0  0  0
  -30.0370  -13.9060   20.1370 N   0  0  0  0  0  0  0  0  0  0  0  0
  -31.7910  -15.2210   19.7880 O   0  0  0  0  0  0  0  0  0  0  0  0
  -29.8690  -16.4830   20.3790 N   0  0  0  0  0  0  0  0  0  0  0  0
  -28.9400  -16.3070   20.7360 H   0  0  0  0  0  0  0  0  0  0  0  0
  -25.3900  -13.8870   20.4740 C   0  0  0  0  0  0  0  0  0  0  0  0
  -24.3320  -13.1130   20.8640 C   0  0  0  0  0  0  0  0  0  0  0  0
  -24.7860  -11.7590   20.7960 C   0  0  0  0  0  0  0  0  0  0  0  0
  -26.4170  -13.0060   20.1860 N   0  0  0  0  0  0  0  0  0  0  0  0
  -26.0670  -11.7200   20.4490 N   0  0  0  0  0  0  0  0  0  0  0  0
  -24.0540  -10.4980   20.9910 C   0  0  0  0  0  0  0  0  0  0  0  0
  -24.4750   -9.5320   21.9320 C   0  0  0  0  0  3  0  0  0  0  0  0
  -23.7370   -8.3410   22.1120 C   0  0  0  0  0  3  0  0  0  0  0  0
  -22.5640   -8.1090   21.3520 C   0  0  0  0  0  0  0  0  0  0  0  0
  -22.1650   -9.0640   20.4040 C   0  0  0  0  0  3  0  0  0  0  0  0
  -22.9040  -10.2460   20.2220 C   0  0  0  0  0  3  0  0  0  0  0  0
  -21.8000   -6.9690   21.4410 O   0  0  0  0  0  0  0  0  0  0  0  0
  -21.6920   -6.2640   22.6140 C   0  0  0  0  0  0  0  0  0  0  0  0
  -21.2220   -6.8630   23.8030 C   0  0  0  0  0  3  0  0  0  0  0  0
  -21.0610   -6.0850   24.9670 C   0  0  0  0  0  3  0  0  0  0  0  0
  -21.3600   -4.7080   24.9430 C   0  0  0  0  0  0  0  0  0  0  0  0
  -21.8220   -4.1110   23.7580 C   0  0  0  0  0  3  0  0  0  0  0  0
  -21.9860   -4.8850   22.5970 C   0  0  0  0  0  0  0  0  0  0  0  0
  -22.4110   -4.2990   21.4510 F   0  0  0  0  0  0  0  0  0  0  0  0
  -21.2000   -3.9590   26.0580 F   0  0  0  0  0  0  0  0  0  0  0  0
  -22.9470  -13.5980   21.1820 C   0  0  0  0  0  0  0  0  0  0  0  0
  -22.2480  -12.9040   22.0740 N   0  0  0  0  0  0  0  0  0  0  0  0
  -22.4990  -14.6250   20.6790 O   0  0  0  0  0  0  0  0  0  0  0  0
  -22.6270  -12.0730   22.5030 H   0  0  0  0  0  0  0  0  0  0  0  0
  -21.3230  -13.2130   22.3360 H   0  0  0  0  0  0  0  0  0  0  0  0
  -25.5570  -15.2590   20.3140 N   0  0  0  0  0  0  0  0  0  0  0  0
  -24.7960  -15.9160   20.4500 H   0  0  0  0  0  0  0  0  0  0  0  0
  -26.3950  -15.7050   19.9620 H   0  0  0  0  0  0  0  0  0  0  0  0
  -28.1910  -24.2580   20.3490 C   0  0  0  0  0  2  0  0  0  0  0  0
  -28.1880  -25.8120   19.8000 O   0  0  0  0  0  0  0  0  0  0  0  0
  -24.4970  -31.6340   22.9700 C   0  0  0  0  0  0  0  0  0  0  0  0
  -27.1310  -26.8580   19.8760 C   0  0  0  0  0  0  0  0  0  0  0  0
  -23.3210  -30.2430   21.3170 C   0  0  0  0  0  3  0  0  0  0  0  0
  -24.7910  -28.6840   19.8680 C   0  0  0  0  0  0  0  0  0  0  0  0
  -25.8820  -30.5110   21.1540 C   0  0  0  0  0  2  0  0  0  0  0  0
  -25.9770  -29.1100   20.4810 C   0  0  0  0  0  0  0  0  0  0  0  0
  -27.1470  -28.2230   20.4490 C   0  0  0  0  0  3  0  0  0  0  0  0
  -25.9050  -26.5760   19.2320 C   0  0  0  0  0  3  0  0  0  0  0  0
  -24.7780  -27.4380   19.2230 C   0  0  0  0  0  3  0  0  0  0  0  0
  -23.5550  -29.5820   19.9320 C   0  0  0  0  0  2  0  0  0  0  0  0
  -24.5880  -30.8220   21.8690 N   0  0  0  0  0  0  0  0  0  0  0  0
  -23.4050  -31.8930   23.5010 O   0  0  0  0  0  0  0  0  0  0  0  0
  -22.6520  -29.2190   22.2700 C   0  0  0  0  0  0  0  0  0  0  0  0
  -21.3200  -29.0530   22.1680 N   0  0  0  0  0  0  0  0  0  0  0  0
  -23.3380  -28.5740   23.0650 O   0  0  0  0  0  0  0  0  0  0  0  0
  -20.8180  -29.6270   21.5070 H   0  0  0  0  0  0  0  0  0  0  0  0
  -17.9510  -27.8370   22.7420 C   0  0  0  0  0  0  0  0  0  0  0  0
  -20.5190  -28.0900   22.9300 C   0  0  0  0  0  3  0  0  0  0  0  0
  -20.5960  -26.6790   22.2990 C   0  0  0  0  0  2  0  0  0  0  0  0
  -19.4580  -26.3990   21.3110 C   0  0  0  0  0  2  0  0  0  0  0  0
  -18.1020  -26.5140   22.0090 C   0  0  0  0  0  2  0  0  0  0  0  0
  -19.0840  -28.5840   23.1600 C   0  0  0  0  0  0  0  0  0  0  0  0
  -18.8850  -29.8210   23.8120 C   0  0  0  0  0  3  0  0  0  0  0  0
  -17.5870  -30.3100   24.0460 C   0  0  0  0  0  3  0  0  0  0  0  0
  -16.4690  -29.5620   23.6400 C   0  0  0  0  0  3  0  0  0  0  0  0
  -16.6520  -28.3260   22.9940 C   0  0  0  0  0  3  0  0  0  0  0  0
  -25.7590  -32.2900   23.6070 C   0  0  0  0  0  3  0  0  0  0  0  0
  -26.3180  -31.4830   24.8460 C   0  0  1  0  0  0  0  0  0  0  0  0
  -25.2510  -31.1800   25.9230 C   0  0  0  0  0  1  0  0  0  0  0  0
  -26.9280  -30.1360   24.3970 C   0  0  0  0  0  1  0  0  0  0  0  0
  -27.4580  -32.2860   25.5180 C   0  0  0  0  0  1  0  0  0  0  0  0
  -25.3980  -33.6600   24.0150 N   0  0  0  0  0  0  0  0  0  0  0  0
  -25.6810  -34.7680   23.3190 C   0  0  0  0  0  0  0  0  0  0  0  0
  -26.3340  -34.7490   22.2710 O   0  0  0  0  0  0  0  0  0  0  0  0
  -24.8040  -33.7450   24.8280 H   0  0  0  0  0  0  0  0  0  0  0  0
  -23.8770  -36.5180   23.1270 C   0  0  0  0  0  1  0  0  0  0  0  0
  -25.1620  -36.1130   23.8690 C   0  0  0  0  0  3  0  0  0  0  0  0
  -27.2920  -37.0400   24.6720 C   0  0  0  0  0  1  0  0  0  0  0  0
  -26.1500  -37.2110   23.7760 N   0  0  0  0  0  0  0  0  0  0  0  0
  -25.7150  -38.1050   23.9830 H   0  0  0  0  0  0  0  0  0  0  0  0
  1  4  1  0
  3  1  1  0
  3 49  1  0
  3  2  1  0
  4 10  1  0
  4  5  1  0
  5  7  1  0
  5  2  1  0
  7  6  1  0
  7  9  1  0
  8  9  1  0
 10 19  1  0
 11 19  1  0
 12 17  1  0
 13 14  1  0
 13 12  1  0
 15 14  1  0
 15 24  1  0
 15 16  1  0
 17 11  1  0
 17 16  1  0
 18 11  2  0
 19 20  1  0
 21 22  2  0
 22 41  1  0
 23 22  1  0
 23 26  1  0
 24 25  1  0
 24 21  1  0
 25 23  2  0
 26 27  1  0
 27 28  2  0
 29 32  1  0
 29 28  1  0
 30 29  2  0
 31 30  1  0
 31 26  2  0
 32 33  1  0
 33 34  1  0
 34 35  2  0
 36 35  1  0
 36 40  1  0
 37 36  2  0
 38 33  2  0
 38 37  1  0
 39 38  1  0
 41 42  1  0
 42 45  1  0
 42 44  1  0
 43 41  2  0
 46 47  1  0
 46 21  1  0
 48 46  1  0
 50 52  1  0
 50 49  1  0
 51 62  2  0
 52 57  1  0
 53 61  1  0
 53 63  1  0
 54 60  1  0
 54 56  1  0
 55 61  1  0
 56 55  1  0
 57 56  2  0
 58 52  2  0
 59 58  1  0
 59 54  2  0
 60 53  1  0
 61 51  1  0
 63 65  2  0
 64 63  1  0
 66 64  1  0
 67 76  2  0
 67 72  1  0
 68 64  1  0
 68 72  1  0
 69 68  1  0
 70 71  1  0
 70 69  1  0
 71 67  1  0
 72 73  2  0
 73 74  1  0
 75 74  2  0
 76 75  1  0
 77 51  1  0
 77 82  1  0
 77 78  1  0
 78 81  1  1
 78 79  1  0
 80 78  1  0
 82 85  1  0
 83 87  1  0
 83 82  1  0
 84 83  2  0
 87 86  1  0
 89 87  1  0
 89 90  1  0
 89 88  1  0
M  ISO  4  11 100  19 100  49 101  50 101
M  END
>  <TORSDO>  (63) 
F 20

>  <SCORE>  (63) 
-12.164

>  <name>  (63) 
62

>  <ligand_id>  (63) 
62

>  <original_smiles>  (63) 
[H]c1c([H])c([H])c2c(c1[H])C([H])([H])C([H])([H])C([H])([H])C2([H])N([H])C(=O)C1([H])N(C(=O)C([H])(N([H])C(=O)C([H])(N([H])C([H])([H])[H])C([H])([H])[H])C(C([H])([H])[H])(C([H])([H])[H])C([H])([H])[H])C([H])([H])c2c([H])c(OC([H])([H])C3([H])C([H])([H])C([H])(C([H])([H])N([H])C(=O)N4C([H])([H])C([H])([H])C([H])([H])C([H])(n5nc(-c6c([H])c([H])c(Oc7c([H])c([H])c(F)c([H])c7F)c([H])c6[H])c(C(=O)N([H])[H])c5N([H])[H])C4([H])[H])C([H])(C([H])(C([H])([H])[H])C([H])([H])C([H])([H])[H])C3([H])[H])c([H])c([H])c2C1([H])[H]

>  <smiles>  (63) 
[H]c1c([H])c([H])c2c(c1[H])C([H])([H])C([H])([H])C([H])([H])C2([H])N([H])C(=O)C1([H])N(C(=O)C([H])(N([H])C(=O)C([H])(N([H])C([H])([H])[H])C([H])([H])[H])C(C([H])([H])[H])(C([H])([H])[H])C([H])([H])[H])C([H])([H])c2c([H])c(OC([H])([H])C3([H])C([H])([H])C([H])(C([H])([H])N([H])C(=O)N4C([H])([H])C([H])([H])C([H])([H])C([H])(n5nc(-c6c([H])c([H])c(Oc7c([H])c([H])c(F)c([H])c7F)c([H])c6[H])c(C(=O)N([H])[H])c5N([H])[H])C4([H])[H])C([H])(C([H])(C([H])([H])[H])C([H])([H])C([H])([H])[H])C3([H])[H])c([H])c([H])c2C1([H])[H]

$$$$
63:0:0
     RDKit          3D

 93101  0  0  1  0  0  0  0  0999 V2000
  -29.5700  -20.5410   19.5390 C   0  0  0  0  0  2  0  0  0  0  0  0
  -31.3210  -20.1530   21.0750 C   0  0  0  0  0  3  0  0  0  0  0  0
  -29.6480  -21.9790   20.3010 C   0  0  0  0  0  3  0  0  0  0  0  0
  -31.0770  -21.7250   20.8650 C   0  0  0  0  0  3  0  0  0  0  0  0
  -31.4050  -22.6670   22.0420 C   0  0  0  0  0  1  0  0  0  0  0  0
  -30.2550  -19.4080   20.3450 N   0  0  2  0  0  4  0  0  0  0  0  0
  -29.6110  -19.1900   21.0950 H   0  0  0  0  0  0  0  0  0  0  0  0
  -31.3270  -19.6820   22.5460 C   0  0  0  0  0  0  0  0  0  0  0  0
  -32.4990  -19.5020   23.1550 N   0  0  0  0  0  0  0  0  0  0  0  0
  -30.2670  -19.4430   23.1240 O   0  0  0  0  0  0  0  0  0  0  0  0
  -33.3700  -19.6570   22.6640 H   0  0  0  0  0  0  0  0  0  0  0  0
  -32.5450  -19.1840   24.1170 H   0  0  0  0  0  0  0  0  0  0  0  0
  -29.3900  -23.4790   19.5630 C   0  0  0  0  0  2  0  0  0  0  0  0
  -28.5090  -24.7720   20.1700 C   0  0  0  0  0  2  0  0  0  0  0  0
  -28.6540  -26.2750   19.8010 O   0  0  0  0  0  0  0  0  0  0  0  0
  -24.6390  -31.5590   22.9960 C   0  0  0  0  0  0  0  0  0  0  0  0
  -27.5240  -27.1640   19.7980 C   0  0  0  0  0  0  0  0  0  0  0  0
  -23.5320  -30.1370   21.3140 C   0  0  0  0  0  3  0  0  0  0  0  0
  -25.0780  -28.7280   19.8260 C   0  0  0  0  0  0  0  0  0  0  0  0
  -26.0560  -30.5950   21.1510 C   0  0  0  0  0  2  0  0  0  0  0  0
  -26.2250  -29.2360   20.4530 C   0  0  0  0  0  0  0  0  0  0  0  0
  -27.4460  -28.4680   20.4240 C   0  0  0  0  0  3  0  0  0  0  0  0
  -26.3510  -26.7600   19.1180 C   0  0  0  0  0  3  0  0  0  0  0  0
  -25.1560  -27.5060   19.1390 C   0  0  0  0  0  3  0  0  0  0  0  0
  -23.7880  -29.5280   19.9110 C   0  0  0  0  0  2  0  0  0  0  0  0
  -24.7600  -30.7860   21.8760 N   0  0  0  0  0  0  0  0  0  0  0  0
  -23.5390  -31.7440   23.5410 O   0  0  0  0  0  0  0  0  0  0  0  0
  -22.9400  -29.0460   22.2430 C   0  0  0  0  0  0  0  0  0  0  0  0
  -21.6430  -28.7310   22.0680 N   0  0  0  0  0  0  0  0  0  0  0  0
  -23.6490  -28.4880   23.0830 O   0  0  0  0  0  0  0  0  0  0  0  0
  -21.1200  -29.2440   21.3710 H   0  0  0  0  0  0  0  0  0  0  0  0
  -18.4320  -27.0780   22.3710 C   0  0  0  0  0  0  0  0  0  0  0  0
  -20.9050  -27.6990   22.8050 C   0  0  0  0  0  3  0  0  0  0  0  0
  -21.2430  -26.2850   22.2770 C   0  0  0  0  0  2  0  0  0  0  0  0
  -20.2720  -25.7970   21.1970 C   0  0  0  0  0  2  0  0  0  0  0  0
  -18.8410  -25.7570   21.7410 C   0  0  0  0  0  2  0  0  0  0  0  0
  -19.4040  -27.9950   22.8550 C   0  0  0  0  0  0  0  0  0  0  0  0
  -18.9700  -29.2210   23.4040 C   0  0  0  0  0  3  0  0  0  0  0  0
  -17.6000  -29.5370   23.4740 C   0  0  0  0  0  3  0  0  0  0  0  0
  -16.6430  -28.6210   23.0040 C   0  0  0  0  0  3  0  0  0  0  0  0
  -17.0600  -27.3940   22.4600 C   0  0  0  0  0  3  0  0  0  0  0  0
  -25.8700  -32.2660   23.6350 C   0  0  0  0  0  3  0  0  0  0  0  0
  -25.4600  -33.6250   24.0190 N   0  0  0  0  0  0  0  0  0  0  0  0
  -25.7210  -34.7320   23.3090 C   0  0  0  0  0  0  0  0  0  0  0  0
  -26.4060  -34.7220   22.2830 O   0  0  0  0  0  0  0  0  0  0  0  0
  -24.8500  -33.7020   24.8190 H   0  0  0  0  0  0  0  0  0  0  0  0
  -23.8690  -36.4180   23.0230 C   0  0  0  0  0  1  0  0  0  0  0  0
  -25.1340  -36.0650   23.8210 C   0  0  0  0  0  3  0  0  0  0  0  0
  -27.2000  -37.0630   24.6970 C   0  0  0  0  0  1  0  0  0  0  0  0
  -26.0910  -37.1930   23.7560 N   0  0  0  0  0  0  0  0  0  0  0  0
  -25.6210  -38.0750   23.9430 H   0  0  0  0  0  0  0  0  0  0  0  0
  -26.4500  -31.4940   24.8860 C   0  0  1  0  0  0  0  0  0  0  0  0
  -25.3840  -31.1490   25.9520 C   0  0  0  0  0  1  0  0  0  0  0  0
  -27.1250  -30.1720   24.4550 C   0  0  0  0  0  1  0  0  0  0  0  0
  -27.5470  -32.3500   25.5640 C   0  0  0  0  0  1  0  0  0  0  0  0
  -30.6410  -18.0100   19.6840 C   0  0  0  0  0  3  0  0  0  0  0  0
  -30.4620  -16.5230   20.4500 C   0  0  0  0  0  3  0  0  0  0  0  0
  -31.2040  -15.1030   20.0200 C   0  0  0  0  0  0  0  0  0  0  0  0
  -30.9720  -12.7880   19.0040 C   0  0  0  0  0  2  0  0  0  0  0  0
  -30.0140  -12.8540   17.7880 C   0  0  0  0  0  2  0  0  0  0  0  0
  -28.5480  -12.7030   18.2380 C   0  0  0  0  0  2  0  0  0  0  0  0
  -28.2120  -13.6020   19.4540 C   0  0  0  0  0  3  0  0  0  0  0  0
  -29.2840  -13.5100   20.5610 C   0  0  0  0  0  2  0  0  0  0  0  0
  -30.5750  -13.8610   19.9600 N   0  0  0  0  0  0  0  0  0  0  0  0
  -32.3790  -15.1400   19.6400 O   0  0  0  0  0  0  0  0  0  0  0  0
  -25.8640  -14.2750   20.2200 C   0  0  0  0  0  0  0  0  0  0  0  0
  -24.7780  -13.5440   20.6080 C   0  0  0  0  0  0  0  0  0  0  0  0
  -25.1890  -12.1760   20.5730 C   0  0  0  0  0  0  0  0  0  0  0  0
  -26.8700  -13.3580   19.9690 N   0  0  0  0  0  0  0  0  0  0  0  0
  -26.4730  -12.0880   20.2460 N   0  0  0  0  0  0  0  0  0  0  0  0
  -24.4160  -10.9450   20.7780 C   0  0  0  0  0  0  0  0  0  0  0  0
  -24.8010   -9.9810   21.7380 C   0  0  0  0  0  3  0  0  0  0  0  0
  -24.0340   -8.8120   21.9280 C   0  0  0  0  0  3  0  0  0  0  0  0
  -22.8650   -8.5990   21.1590 C   0  0  0  0  0  0  0  0  0  0  0  0
  -22.4980   -9.5490   20.1890 C   0  0  0  0  0  3  0  0  0  0  0  0
  -23.2670  -10.7100   19.9980 C   0  0  0  0  0  3  0  0  0  0  0  0
  -22.0670   -7.4840   21.2570 O   0  0  0  0  0  0  0  0  0  0  0  0
  -21.9330   -6.7960   22.4370 C   0  0  0  0  0  0  0  0  0  0  0  0
  -21.4740   -7.4240   23.6170 C   0  0  0  0  0  3  0  0  0  0  0  0
  -21.2880   -6.6640   24.7900 C   0  0  0  0  0  3  0  0  0  0  0  0
  -21.5470   -5.2810   24.7840 C   0  0  0  0  0  0  0  0  0  0  0  0
  -21.9990   -4.6550   23.6090 C   0  0  0  0  0  3  0  0  0  0  0  0
  -22.1900   -5.4100   22.4380 C   0  0  0  0  0  0  0  0  0  0  0  0
  -22.6040   -4.7980   21.3020 F   0  0  0  0  0  0  0  0  0  0  0  0
  -21.3610   -4.5480   25.9080 F   0  0  0  0  0  0  0  0  0  0  0  0
  -23.4020  -14.0740   20.8990 C   0  0  0  0  0  0  0  0  0  0  0  0
  -22.6670  -13.4150   21.7850 N   0  0  0  0  0  0  0  0  0  0  0  0
  -22.9910  -15.1090   20.3720 O   0  0  0  0  0  0  0  0  0  0  0  0
  -23.0130  -12.5780   22.2310 H   0  0  0  0  0  0  0  0  0  0  0  0
  -21.7420  -13.7460   22.0230 H   0  0  0  0  0  0  0  0  0  0  0  0
  -26.0790  -15.6410   20.0390 N   0  0  0  0  0  0  0  0  0  0  0  0
  -25.3400  -16.3260   20.1600 H   0  0  0  0  0  0  0  0  0  0  0  0
  -26.9440  -16.0410   19.6970 H   0  0  0  0  0  0  0  0  0  0  0  0
  1  3  1  0
  1  6  1  0
  2  8  1  0
  3 13  1  0
  3  4  1  0
  4  2  1  0
  4  5  1  0
  6  2  1  0
  6  7  1  1
  8 10  2  0
  8  9  1  0
  9 12  1  0
 11  9  1  0
 13 14  1  0
 15 14  1  0
 16 27  2  0
 17 15  1  0
 17 22  1  0
 18 26  1  0
 18 28  1  0
 19 25  1  0
 19 21  1  0
 20 26  1  0
 21 20  1  0
 22 21  2  0
 23 24  1  0
 23 17  2  0
 24 19  2  0
 25 18  1  0
 26 16  1  0
 28 30  2  0
 29 28  1  0
 31 29  1  0
 32 41  2  0
 32 37  1  0
 33 29  1  0
 33 37  1  0
 34 33  1  0
 35 36  1  0
 35 34  1  0
 36 32  1  0
 37 38  2  0
 38 39  1  0
 40 39  2  0
 41 40  1  0
 42 16  1  0
 42 43  1  0
 42 52  1  0
 43 46  1  0
 44 48  1  0
 44 43  1  0
 45 44  2  0
 48 47  1  0
 50 48  1  0
 50 51  1  0
 50 49  1  0
 52 55  1  1
 52 53  1  0
 54 52  1  0
 56  6  1  0
 56 57  2  0
 58 57  1  0
 59 64  1  0
 60 61  1  0
 60 59  1  0
 62 61  1  0
 62 69  1  0
 62 63  1  0
 64 58  1  0
 64 63  1  0
 65 58  2  0
 66 67  2  0
 67 86  1  0
 68 67  1  0
 68 71  1  0
 69 66  1  0
 69 70  1  0
 70 68  2  0
 71 72  1  0
 72 73  2  0
 74 77  1  0
 74 73  1  0
 75 74  2  0
 76 75  1  0
 76 71  2  0
 77 78  1  0
 78 83  2  0
 78 79  1  0
 79 80  2  0
 81 80  1  0
 81 85  1  0
 82 81  2  0
 83 82  1  0
 84 83  1  0
 86 87  1  0
 87 90  1  0
 87 89  1  0
 88 86  2  0
 91 92  1  0
 91 66  1  0
 93 91  1  0
M  ISO  4  14 101  15 101  57 100  58 100
M  END
>  <TORSDO>  (64) 
F 21

>  <SCORE>  (64) 
-10.924

>  <name>  (64) 
63

>  <ligand_id>  (64) 
63

>  <original_smiles>  (64) 
[H]c1c([H])c([H])c2c(c1[H])C([H])([H])C([H])([H])C([H])([H])C2([H])N([H])C(=O)C1([H])N(C(=O)C([H])(N([H])C(=O)C([H])(N([H])C([H])([H])[H])C([H])([H])[H])C(C([H])([H])[H])(C([H])([H])[H])C([H])([H])[H])C([H])([H])c2c([H])c(OC([H])([H])C([H])([H])C3([H])C([H])(C([H])([H])[H])C([H])(C(=O)N([H])[H])[N+]([H])(C([H])([H])C([H])([H])C(=O)N4C([H])([H])C([H])([H])C([H])([H])C([H])(n5nc(-c6c([H])c([H])c(Oc7c([H])c([H])c(F)c([H])c7F)c([H])c6[H])c(C(=O)N([H])[H])c5N([H])[H])C4([H])[H])C3([H])[H])c([H])c([H])c2C1([H])[H]

>  <smiles>  (64) 
[H]c1c([H])c([H])c2c(c1[H])C([H])([H])C([H])([H])C([H])([H])C2([H])N([H])C(=O)C1([H])N(C(=O)C([H])(N([H])C(=O)C([H])(N([H])C([H])([H])[H])C([H])([H])[H])C(C([H])([H])[H])(C([H])([H])[H])C([H])([H])[H])C([H])([H])c2c([H])c(OC([H])([H])C([H])([H])C3([H])C([H])(C([H])([H])[H])C([H])(C(=O)N([H])[H])[N+]([H])(C([H])([H])C([H])([H])C(=O)N4C([H])([H])C([H])([H])C([H])([H])C([H])(n5nc(-c6c([H])c([H])c(Oc7c([H])c([H])c(F)c([H])c7F)c([H])c6[H])c(C(=O)N([H])[H])c5N([H])[H])C4([H])[H])C3([H])[H])c([H])c([H])c2C1([H])[H]

$$$$
64:0:0
     RDKit          3D

 90 98  0  0  1  0  0  0  0  0999 V2000
  -28.9970  -21.1380   20.6050 N   0  0  0  0  0  4  0  0  0  0  0  0
  -29.8330  -21.2630   21.1530 H   0  0  0  0  0  0  0  0  0  0  0  0
  -28.2650  -21.0800   21.2940 H   0  0  0  0  0  0  0  0  0  0  0  0
  -30.4380  -15.3850   20.1480 C   0  0  0  0  0  0  0  0  0  0  0  0
  -30.3910  -12.9400   19.2440 C   0  0  0  0  0  2  0  0  0  0  0  0
  -29.4550  -12.6920   18.0350 C   0  0  0  0  0  2  0  0  0  0  0  0
  -28.0210  -12.4000   18.5060 C   0  0  0  0  0  2  0  0  0  0  0  0
  -27.5740  -13.3610   19.6340 C   0  0  0  0  0  3  0  0  0  0  0  0
  -28.6450  -13.5420   20.7330 C   0  0  0  0  0  2  0  0  0  0  0  0
  -29.8400  -14.0870   20.0620 N   0  0  0  0  0  0  0  0  0  0  0  0
  -31.6650  -15.3210   19.9790 O   0  0  0  0  0  0  0  0  0  0  0  0
  -27.9510  -18.5740   20.4070 C   0  0  0  0  0  2  0  0  0  0  0  0
  -28.3040  -17.0180   20.1720 C   0  0  0  0  0  2  0  0  0  0  0  0
  -30.2370  -18.2800   20.3660 C   0  0  0  0  0  3  0  0  0  0  0  0
  -29.1030  -19.5500   20.0210 C   0  0  0  0  0  3  0  0  0  0  0  0
  -29.7590  -16.7270   20.2450 N   0  0  0  0  0  0  0  0  0  0  0  0
  -25.2090  -13.8880   20.4200 C   0  0  0  0  0  0  0  0  0  0  0  0
  -24.1630  -13.1000   20.8070 C   0  0  0  0  0  0  0  0  0  0  0  0
  -24.6470  -11.7580   20.7750 C   0  0  0  0  0  0  0  0  0  0  0  0
  -26.2610  -13.0280   20.1690 N   0  0  0  0  0  0  0  0  0  0  0  0
  -25.9360  -11.7390   20.4500 N   0  0  0  0  0  0  0  0  0  0  0  0
  -23.9360  -10.4870   20.9740 C   0  0  0  0  0  0  0  0  0  0  0  0
  -24.3790   -9.5300   21.9110 C   0  0  0  0  0  3  0  0  0  0  0  0
  -23.6640   -8.3280   22.1000 C   0  0  0  0  0  3  0  0  0  0  0  0
  -22.4890   -8.0760   21.3520 C   0  0  0  0  0  0  0  0  0  0  0  0
  -22.0650   -9.0220   20.4030 C   0  0  0  0  0  3  0  0  0  0  0  0
  -22.7830  -10.2150   20.2120 C   0  0  0  0  0  3  0  0  0  0  0  0
  -21.7430   -6.9270   21.4510 O   0  0  0  0  0  0  0  0  0  0  0  0
  -21.6980   -6.1960   22.6120 C   0  0  0  0  0  0  0  0  0  0  0  0
  -21.2530   -6.7580   23.8280 C   0  0  0  0  0  3  0  0  0  0  0  0
  -21.1550   -5.9520   24.9800 C   0  0  0  0  0  3  0  0  0  0  0  0
  -21.4930   -4.5880   24.9170 C   0  0  0  0  0  0  0  0  0  0  0  0
  -21.9310   -4.0250   23.7050 C   0  0  0  0  0  3  0  0  0  0  0  0
  -22.0290   -4.8270   22.5540 C   0  0  0  0  0  0  0  0  0  0  0  0
  -22.4320   -4.2770   21.3830 F   0  0  0  0  0  0  0  0  0  0  0  0
  -21.3920   -3.8120   26.0220 F   0  0  0  0  0  0  0  0  0  0  0  0
  -22.7630  -13.5640   21.0850 C   0  0  0  0  0  0  0  0  0  0  0  0
  -22.0480  -12.8630   21.9580 N   0  0  0  0  0  0  0  0  0  0  0  0
  -22.3130  -14.5850   20.5650 O   0  0  0  0  0  0  0  0  0  0  0  0
  -22.4250  -12.0380   22.3990 H   0  0  0  0  0  0  0  0  0  0  0  0
  -21.1110  -13.1600   22.1910 H   0  0  0  0  0  0  0  0  0  0  0  0
  -25.3390  -15.2600   20.2270 N   0  0  0  0  0  0  0  0  0  0  0  0
  -24.5490  -15.8870   20.3270 H   0  0  0  0  0  0  0  0  0  0  0  0
  -26.1490  -15.7020   19.8160 H   0  0  0  0  0  0  0  0  0  0  0  0
  -31.5180  -18.4840   19.5440 C   0  0  0  0  0  0  0  0  0  0  0  0
  -32.7640  -18.9660   20.2730 C   0  0  0  0  0  1  0  0  0  0  0  0
  -31.5710  -18.2640   18.3300 O   0  0  0  0  0  0  0  0  0  0  0  0
  -28.7530  -22.6450   19.8850 C   0  0  0  0  0  2  0  0  0  0  0  0
  -28.1120  -24.2260   20.5450 C   0  0  0  0  0  2  0  0  0  0  0  0
  -28.2530  -25.8630   20.2360 O   0  0  0  0  0  0  0  0  0  0  0  0
  -24.6370  -31.8620   23.2150 C   0  0  0  0  0  0  0  0  0  0  0  0
  -27.2190  -26.9500   20.2450 C   0  0  0  0  0  0  0  0  0  0  0  0
  -23.4540  -30.4510   21.5830 C   0  0  0  0  0  3  0  0  0  0  0  0
  -24.9120  -28.8350   20.1800 C   0  0  0  0  0  0  0  0  0  0  0  0
  -26.0220  -30.6650   21.4430 C   0  0  0  0  0  2  0  0  0  0  0  0
  -26.1000  -29.2480   20.7980 C   0  0  0  0  0  0  0  0  0  0  0  0
  -27.2500  -28.3300   20.7960 C   0  0  0  0  0  3  0  0  0  0  0  0
  -25.9940  -26.6920   19.5900 C   0  0  0  0  0  3  0  0  0  0  0  0
  -24.8850  -27.5770   19.5570 C   0  0  0  0  0  3  0  0  0  0  0  0
  -23.6920  -29.7560   20.2130 C   0  0  0  0  0  2  0  0  0  0  0  0
  -24.7270  -31.0210   22.1330 N   0  0  0  0  0  0  0  0  0  0  0  0
  -23.5440  -32.1510   23.7300 O   0  0  0  0  0  0  0  0  0  0  0  0
  -22.7590  -29.4600   22.5530 C   0  0  0  0  0  0  0  0  0  0  0  0
  -21.4300  -29.2920   22.4270 N   0  0  0  0  0  0  0  0  0  0  0  0
  -23.4240  -28.8380   23.3870 O   0  0  0  0  0  0  0  0  0  0  0  0
  -20.9450  -29.8430   21.7320 H   0  0  0  0  0  0  0  0  0  0  0  0
  -18.0470  -28.0840   22.9490 C   0  0  0  0  0  0  0  0  0  0  0  0
  -20.6080  -28.3560   23.2030 C   0  0  0  0  0  3  0  0  0  0  0  0
  -20.7100  -26.9230   22.6320 C   0  0  0  0  0  2  0  0  0  0  0  0
  -19.6050  -26.5960   21.6220 C   0  0  0  0  0  2  0  0  0  0  0  0
  -18.2250  -26.7360   22.2700 C   0  0  0  0  0  2  0  0  0  0  0  0
  -19.1650  -28.8520   23.3720 C   0  0  0  0  0  0  0  0  0  0  0  0
  -18.9420  -30.1110   23.9710 C   0  0  0  0  0  3  0  0  0  0  0  0
  -17.6350  -30.6030   24.1470 C   0  0  0  0  0  3  0  0  0  0  0  0
  -16.5320  -29.8340   23.7370 C   0  0  0  0  0  3  0  0  0  0  0  0
  -16.7390  -28.5750   23.1450 C   0  0  0  0  0  3  0  0  0  0  0  0
  -25.9010  -32.5150   23.8500 C   0  0  0  0  0  3  0  0  0  0  0  0
  -26.4000  -31.7670   25.1480 C   0  0  1  0  0  0  0  0  0  0  0  0
  -25.2920  -31.5470   26.2060 C   0  0  0  0  0  1  0  0  0  0  0  0
  -26.9900  -30.3820   24.7970 C   0  0  0  0  0  1  0  0  0  0  0  0
  -27.5410  -32.5750   25.8110 C   0  0  0  0  0  1  0  0  0  0  0  0
  -25.5770  -33.9170   24.1690 N   0  0  0  0  0  0  0  0  0  0  0  0
  -25.9140  -34.9740   23.4180 C   0  0  0  0  0  0  0  0  0  0  0  0
  -26.5910  -34.8720   22.3920 O   0  0  0  0  0  0  0  0  0  0  0  0
  -24.9760  -34.0700   24.9650 H   0  0  0  0  0  0  0  0  0  0  0  0
  -24.1900  -36.7750   23.0550 C   0  0  0  0  0  1  0  0  0  0  0  0
  -25.4240  -36.3640   23.8740 C   0  0  0  0  0  3  0  0  0  0  0  0
  -27.5490  -37.2520   24.7270 C   0  0  0  0  0  1  0  0  0  0  0  0
  -26.4580  -37.4170   23.7710 N   0  0  0  0  0  0  0  0  0  0  0  0
  -26.0500  -38.3380   23.9130 H   0  0  0  0  0  0  0  0  0  0  0  0
  1  2  1  0
  1  3  1  0
  4 16  1  0
  5 10  1  0
  6  7  1  0
  6  5  1  0
  8  7  1  0
  8 20  1  0
  8  9  1  0
 10  4  1  0
 10  9  1  0
 11  4  2  0
 13 16  1  0
 13 12  1  0
 14 45  1  0
 15 14  1  0
 15 12  1  0
 15  1  1  0
 16 14  1  0
 17 18  2  0
 18 37  1  0
 19 18  1  0
 19 22  1  0
 20 17  1  0
 20 21  1  0
 21 19  2  0
 22 23  1  0
 23 24  2  0
 25 28  1  0
 25 24  1  0
 26 25  2  0
 27 26  1  0
 27 22  2  0
 28 29  1  0
 29 30  1  0
 30 31  2  0
 32 31  1  0
 32 36  1  0
 33 32  2  0
 34 29  2  0
 34 33  1  0
 35 34  1  0
 37 38  1  0
 38 41  1  0
 38 40  1  0
 39 37  2  0
 42 43  1  0
 42 17  1  0
 44 42  1  0
 45 46  1  0
 47 45  2  0
 48 49  1  0
 48  1  1  0
 50 52  1  0
 50 49  1  0
 51 62  2  0
 52 57  1  0
 53 61  1  0
 53 63  1  0
 54 60  1  0
 54 56  1  0
 55 61  1  0
 56 55  1  0
 57 56  2  0
 58 52  2  0
 59 58  1  0
 59 54  2  0
 60 53  1  0
 61 51  1  0
 63 65  2  0
 64 63  1  0
 66 64  1  0
 67 76  2  0
 67 72  1  0
 68 64  1  0
 68 72  1  0
 69 68  1  0
 70 71  1  0
 70 69  1  0
 71 67  1  0
 72 73  2  0
 73 74  1  0
 75 74  2  0
 76 75  1  0
 77 51  1  0
 77 82  1  0
 77 78  1  0
 78 81  1  1
 78 79  1  0
 80 78  1  0
 82 85  1  0
 83 87  1  0
 83 82  1  0
 84 83  2  0
 87 86  1  0
 89 87  1  0
 89 90  1  0
 89 88  1  0
M  ISO  4   4 100  16 100  49 101  50 101
M  END
>  <TORSDO>  (65) 
F 19

>  <SCORE>  (65) 
-16.351

>  <name>  (65) 
64

>  <ligand_id>  (65) 
64

>  <original_smiles>  (65) 
[H]c1c([H])c([H])c2c(c1[H])C([H])([H])C([H])([H])C([H])([H])C2([H])N([H])C(=O)C1([H])N(C(=O)C([H])(N([H])C(=O)C([H])(N([H])C([H])([H])[H])C([H])([H])[H])C(C([H])([H])[H])(C([H])([H])[H])C([H])([H])[H])C([H])([H])c2c([H])c(OC([H])([H])C([H])([H])[N+]([H])([H])C3([H])C([H])(C(=O)C([H])([H])[H])N(C(=O)N4C([H])([H])C([H])([H])C([H])([H])C([H])(n5nc(-c6c([H])c([H])c(Oc7c([H])c([H])c(F)c([H])c7F)c([H])c6[H])c(C(=O)N([H])[H])c5N([H])[H])C4([H])[H])C([H])([H])C3([H])[H])c([H])c([H])c2C1([H])[H]

>  <smiles>  (65) 
[H]c1c([H])c([H])c2c(c1[H])C([H])([H])C([H])([H])C([H])([H])C2([H])N([H])C(=O)C1([H])N(C(=O)C([H])(N([H])C(=O)C([H])(N([H])C([H])([H])[H])C([H])([H])[H])C(C([H])([H])[H])(C([H])([H])[H])C([H])([H])[H])C([H])([H])c2c([H])c(OC([H])([H])C([H])([H])[N+]([H])([H])C3([H])C([H])(C(=O)C([H])([H])[H])N(C(=O)N4C([H])([H])C([H])([H])C([H])([H])C([H])(n5nc(-c6c([H])c([H])c(Oc7c([H])c([H])c(F)c([H])c7F)c([H])c6[H])c(C(=O)N([H])[H])c5N([H])[H])C4([H])[H])C([H])([H])C3([H])[H])c([H])c([H])c2C1([H])[H]

$$$$
65:0:0
     RDKit          3D

 87 95  0  0  1  0  0  0  0  0999 V2000
  -30.1670  -15.9780   20.0740 C   0  0  0  0  0  0  0  0  0  0  0  0
  -30.1840  -13.3810   19.3430 C   0  0  0  0  0  2  0  0  0  0  0  0
  -29.3070  -12.8640   18.1700 C   0  0  0  0  0  2  0  0  0  0  0  0
  -27.9220  -12.4660   18.6760 C   0  0  0  0  0  2  0  0  0  0  0  0
  -27.3870  -13.5110   19.6790 C   0  0  0  0  0  3  0  0  0  0  0  0
  -28.4140  -13.9810   20.7480 C   0  0  0  0  0  2  0  0  0  0  0  0
  -29.5500  -14.6270   20.0280 N   0  0  0  0  0  0  0  0  0  0  0  0
  -31.3720  -15.7030   19.9180 O   0  0  0  0  0  0  0  0  0  0  0  0
  -29.0400  -20.6250   20.0980 C   0  0  0  0  0  0  0  0  0  0  0  0
  -28.7180  -22.1770   20.0750 C   0  0  0  0  0  0  0  0  0  0  0  0
  -30.3890  -20.1620   20.6560 C   0  0  0  0  0  2  0  0  0  0  0  0
  -28.7080  -18.8740   19.7900 C   0  0  0  0  0  2  0  0  0  0  0  0
  -30.6260  -18.5710   20.9400 C   0  0  0  0  0  3  0  0  0  0  0  0
  -29.7320  -17.5290   20.2340 N   0  0  0  0  0  0  0  0  0  0  0  0
  -25.0680  -14.0140   20.5540 C   0  0  0  0  0  0  0  0  0  0  0  0
  -24.0050  -13.2280   20.9010 C   0  0  0  0  0  0  0  0  0  0  0  0
  -24.4530  -11.8760   20.7740 C   0  0  0  0  0  0  0  0  0  0  0  0
  -26.0900  -13.1460   20.2300 N   0  0  0  0  0  0  0  0  0  0  0  0
  -25.7370  -11.8460   20.4220 N   0  0  0  0  0  0  0  0  0  0  0  0
  -23.7060  -10.6160   20.9070 C   0  0  0  0  0  0  0  0  0  0  0  0
  -24.1230   -9.5970   21.7910 C   0  0  0  0  0  3  0  0  0  0  0  0
  -23.3730   -8.4070   21.9180 C   0  0  0  0  0  3  0  0  0  0  0  0
  -22.1900   -8.2300   21.1640 C   0  0  0  0  0  0  0  0  0  0  0  0
  -21.7920   -9.2380   20.2660 C   0  0  0  0  0  3  0  0  0  0  0  0
  -22.5420  -10.4180   20.1360 C   0  0  0  0  0  3  0  0  0  0  0  0
  -21.4100   -7.0990   21.2050 O   0  0  0  0  0  0  0  0  0  0  0  0
  -21.3310   -6.3190   22.3320 C   0  0  0  0  0  0  0  0  0  0  0  0
  -20.8870   -6.8390   23.5680 C   0  0  0  0  0  3  0  0  0  0  0  0
  -20.7550   -5.9870   24.6830 C   0  0  0  0  0  3  0  0  0  0  0  0
  -21.0540   -4.6170   24.5620 C   0  0  0  0  0  0  0  0  0  0  0  0
  -21.4890   -4.0970   23.3310 C   0  0  0  0  0  3  0  0  0  0  0  0
  -21.6240   -4.9450   22.2180 C   0  0  0  0  0  0  0  0  0  0  0  0
  -22.0230   -4.4340   21.0290 F   0  0  0  0  0  0  0  0  0  0  0  0
  -20.9200   -3.7970   25.6310 F   0  0  0  0  0  0  0  0  0  0  0  0
  -22.6250  -13.7110   21.2290 C   0  0  0  0  0  0  0  0  0  0  0  0
  -21.9050  -12.9840   22.0760 N   0  0  0  0  0  0  0  0  0  0  0  0
  -22.1950  -14.7700   20.7720 O   0  0  0  0  0  0  0  0  0  0  0  0
  -22.2650  -12.1280   22.4720 H   0  0  0  0  0  0  0  0  0  0  0  0
  -20.9770  -13.2890   22.3320 H   0  0  0  0  0  0  0  0  0  0  0  0
  -25.2470  -15.3890   20.4510 N   0  0  0  0  0  0  0  0  0  0  0  0
  -24.4980  -16.0510   20.6180 H   0  0  0  0  0  0  0  0  0  0  0  0
  -26.1040  -15.8330   20.1460 H   0  0  0  0  0  0  0  0  0  0  0  0
  -32.6980  -17.3330   22.0080 C   0  0  0  0  0  1  0  0  0  0  0  0
  -32.9200  -18.4140   19.6450 C   0  0  0  0  0  1  0  0  0  0  0  0
  -32.1830  -18.3900   21.0060 C   0  0  0  0  0  3  0  0  0  0  0  0
  -27.6910  -23.7390   19.7410 C   0  0  0  0  0  3  0  0  0  0  0  0
  -27.8680  -25.5320   19.8820 O   0  0  0  0  0  0  0  0  0  0  0  0
  -24.4290  -31.8570   23.0190 C   0  0  0  0  0  0  0  0  0  0  0  0
  -26.8960  -26.7780   19.8750 C   0  0  0  0  0  0  0  0  0  0  0  0
  -23.1980  -30.4580   21.4170 C   0  0  0  0  0  3  0  0  0  0  0  0
  -24.6100  -28.8350   19.9310 C   0  0  0  0  0  0  0  0  0  0  0  0
  -25.7730  -30.6170   21.2030 C   0  0  0  0  0  2  0  0  0  0  0  0
  -25.8280  -29.1850   20.5240 C   0  0  0  0  0  0  0  0  0  0  0  0
  -26.9510  -28.1880   20.4610 C   0  0  0  0  0  3  0  0  0  0  0  0
  -25.6360  -26.6600   19.2290 C   0  0  0  0  0  3  0  0  0  0  0  0
  -24.5580  -27.6030   19.2560 C   0  0  0  0  0  3  0  0  0  0  0  0
  -23.3950  -29.7750   20.0320 C   0  0  0  0  0  2  0  0  0  0  0  0
  -24.4930  -31.0140   21.9290 N   0  0  0  0  0  0  0  0  0  0  0  0
  -23.3520  -32.1390   23.5720 O   0  0  0  0  0  0  0  0  0  0  0  0
  -22.5290  -29.4670   22.4080 C   0  0  0  0  0  0  0  0  0  0  0  0
  -21.1930  -29.3010   22.3350 N   0  0  0  0  0  0  0  0  0  0  0  0
  -23.2240  -28.8460   23.2140 O   0  0  0  0  0  0  0  0  0  0  0  0
  -20.6820  -29.8520   21.6590 H   0  0  0  0  0  0  0  0  0  0  0  0
  -17.8450  -28.0240   22.9600 C   0  0  0  0  0  0  0  0  0  0  0  0
  -20.4090  -28.3470   23.1300 C   0  0  0  0  0  3  0  0  0  0  0  0
  -20.5180  -26.9190   22.5450 C   0  0  0  0  0  2  0  0  0  0  0  0
  -19.3880  -26.5800   21.5670 C   0  0  0  0  0  2  0  0  0  0  0  0
  -18.0260  -26.6870   22.2600 C   0  0  0  0  0  2  0  0  0  0  0  0
  -18.9620  -28.8100   23.3520 C   0  0  0  0  0  0  0  0  0  0  0  0
  -18.7350  -30.0580   23.9730 C   0  0  0  0  0  3  0  0  0  0  0  0
  -17.4240  -30.5210   24.2020 C   0  0  0  0  0  3  0  0  0  0  0  0
  -16.3250  -29.7340   23.8190 C   0  0  0  0  0  3  0  0  0  0  0  0
  -16.5350  -28.4880   23.2060 C   0  0  0  0  0  3  0  0  0  0  0  0
  -25.7040  -32.5210   23.6230 C   0  0  0  0  0  3  0  0  0  0  0  0
  -25.3680  -33.9070   24.0070 N   0  0  0  0  0  0  0  0  0  0  0  0
  -25.6960  -35.0040   23.3100 C   0  0  0  0  0  0  0  0  0  0  0  0
  -26.3640  -34.9550   22.2760 O   0  0  0  0  0  0  0  0  0  0  0  0
  -24.7640  -34.0190   24.8100 H   0  0  0  0  0  0  0  0  0  0  0  0
  -23.9630  -36.8200   23.0520 C   0  0  0  0  0  1  0  0  0  0  0  0
  -25.2060  -36.3700   23.8390 C   0  0  0  0  0  3  0  0  0  0  0  0
  -27.3340  -37.2280   24.7200 C   0  0  0  0  0  1  0  0  0  0  0  0
  -26.2350  -37.4320   23.7800 N   0  0  0  0  0  0  0  0  0  0  0  0
  -25.8240  -38.3430   23.9650 H   0  0  0  0  0  0  0  0  0  0  0  0
  -26.2690  -31.7460   24.8780 C   0  0  1  0  0  0  0  0  0  0  0  0
  -25.2130  -31.4920   25.9810 C   0  0  0  0  0  1  0  0  0  0  0  0
  -26.8510  -30.3750   24.4720 C   0  0  0  0  0  1  0  0  0  0  0  0
  -27.4360  -32.5480   25.5040 C   0  0  0  0  0  1  0  0  0  0  0  0
  1 14  1  0
  2  7  1  0
  3  4  1  0
  3  2  1  0
  5  4  1  0
  5 18  1  0
  5  6  1  0
  7  1  1  0
  7  6  1  0
  8  1  2  0
  9 11  1  0
 10  9  2  0
 11 13  1  0
 12  9  1  0
 12 14  1  0
 13 45  1  0
 14 13  1  0
 15 16  2  0
 16 35  1  0
 17 16  1  0
 17 20  1  0
 18 19  1  0
 18 15  1  0
 19 17  2  0
 20 21  1  0
 21 22  2  0
 23 26  1  0
 23 22  1  0
 24 23  2  0
 25 24  1  0
 25 20  2  0
 26 27  1  0
 27 28  1  0
 28 29  2  0
 30 29  1  0
 30 34  1  0
 31 30  2  0
 32 27  2  0
 32 31  1  0
 33 32  1  0
 35 36  1  0
 36 39  1  0
 36 38  1  0
 37 35  2  0
 40 15  1  0
 40 41  1  0
 42 40  1  0
 44 45  1  0
 45 43  1  0
 46 47  1  0
 46 10  2  0
 48 59  2  0
 49 47  1  0
 49 54  1  0
 50 58  1  0
 50 60  1  0
 51 57  1  0
 51 53  1  0
 52 58  1  0
 53 52  1  0
 54 53  2  0
 55 56  1  0
 55 49  2  0
 56 51  2  0
 57 50  1  0
 58 48  1  0
 60 62  2  0
 61 60  1  0
 63 61  1  0
 64 73  2  0
 64 69  1  0
 65 61  1  0
 65 69  1  0
 66 65  1  0
 67 68  1  0
 67 66  1  0
 68 64  1  0
 69 70  2  0
 70 71  1  0
 72 71  2  0
 73 72  1  0
 74 48  1  0
 74 75  1  0
 74 84  1  0
 75 78  1  0
 76 80  1  0
 76 75  1  0
 77 76  2  0
 80 79  1  0
 82 80  1  0
 82 83  1  0
 82 81  1  0
 84 87  1  1
 84 85  1  0
 86 84  1  0
M  ISO  4   1 100  14 100  46 101  47 101
M  END
>  <TORSDO>  (66) 
F 17

>  <SCORE>  (66) 
-13.043

>  <name>  (66) 
65

>  <ligand_id>  (66) 
65

>  <original_smiles>  (66) 
[H]C(=C1C([H])([H])N(C(=O)N2C([H])([H])C([H])([H])C([H])([H])C([H])(n3nc(-c4c([H])c([H])c(Oc5c([H])c([H])c(F)c([H])c5F)c([H])c4[H])c(C(=O)N([H])[H])c3N([H])[H])C2([H])[H])C([H])(C([H])(C([H])([H])[H])C([H])([H])[H])C1([H])[H])C([H])([H])Oc1c([H])c([H])c2c(c1[H])C([H])([H])N(C(=O)C([H])(N([H])C(=O)C([H])(N([H])C([H])([H])[H])C([H])([H])[H])C(C([H])([H])[H])(C([H])([H])[H])C([H])([H])[H])C([H])(C(=O)N([H])C1([H])c3c([H])c([H])c([H])c([H])c3C([H])([H])C([H])([H])C1([H])[H])C2([H])[H]

>  <smiles>  (66) 
[H]C(=C1C([H])([H])N(C(=O)N2C([H])([H])C([H])([H])C([H])([H])C([H])(n3nc(-c4c([H])c([H])c(Oc5c([H])c([H])c(F)c([H])c5F)c([H])c4[H])c(C(=O)N([H])[H])c3N([H])[H])C2([H])[H])C([H])(C([H])(C([H])([H])[H])C([H])([H])[H])C1([H])[H])C([H])([H])Oc1c([H])c([H])c2c(c1[H])C([H])([H])N(C(=O)C([H])(N([H])C(=O)C([H])(N([H])C([H])([H])[H])C([H])([H])[H])C(C([H])([H])[H])(C([H])([H])[H])C([H])([H])[H])C([H])(C(=O)N([H])C1([H])c3c([H])c([H])c([H])c([H])c3C([H])([H])C([H])([H])C1([H])[H])C2([H])[H]

$$$$
66:0:0
     RDKit          3D

 90 97  0  0  1  0  0  0  0  0999 V2000
  -28.8680  -20.4130   20.0160 C   0  0  0  0  0  2  0  0  0  0  0  0
  -29.1730  -21.9860   20.5250 C   0  0  0  0  0  2  0  0  0  0  0  0
  -28.1630  -23.3370   20.4850 C   0  0  0  0  0  2  0  0  0  0  0  0
  -28.4400  -24.8250   19.7630 C   0  0  0  0  0  2  0  0  0  0  0  0
  -28.3030  -26.2620   20.3200 O   0  0  0  0  0  0  0  0  0  0  0  0
  -24.6070  -31.8750   23.1990 C   0  0  0  0  0  0  0  0  0  0  0  0
  -27.2100  -27.1820   20.1910 C   0  0  0  0  0  0  0  0  0  0  0  0
  -23.4130  -30.4720   21.5570 C   0  0  0  0  0  3  0  0  0  0  0  0
  -24.8680  -28.8940   20.1380 C   0  0  0  0  0  0  0  0  0  0  0  0
  -25.9620  -30.7490   21.3980 C   0  0  0  0  0  2  0  0  0  0  0  0
  -26.0380  -29.3570   20.7520 C   0  0  0  0  0  0  0  0  0  0  0  0
  -27.2050  -28.5130   20.7640 C   0  0  0  0  0  3  0  0  0  0  0  0
  -26.0170  -26.8050   19.5400 C   0  0  0  0  0  3  0  0  0  0  0  0
  -24.8690  -27.6320   19.5190 C   0  0  0  0  0  3  0  0  0  0  0  0
  -23.6370  -29.7860   20.1810 C   0  0  0  0  0  2  0  0  0  0  0  0
  -24.6800  -31.0550   22.1070 N   0  0  0  0  0  0  0  0  0  0  0  0
  -23.5190  -32.1590   23.7240 O   0  0  0  0  0  0  0  0  0  0  0  0
  -22.7340  -29.4690   22.5210 C   0  0  0  0  0  0  0  0  0  0  0  0
  -21.4050  -29.3040   22.3960 N   0  0  0  0  0  0  0  0  0  0  0  0
  -23.4040  -28.8410   23.3450 O   0  0  0  0  0  0  0  0  0  0  0  0
  -20.9210  -29.8620   21.7060 H   0  0  0  0  0  0  0  0  0  0  0  0
  -18.0180  -28.1300   22.9070 C   0  0  0  0  0  0  0  0  0  0  0  0
  -20.5800  -28.3720   23.1680 C   0  0  0  0  0  3  0  0  0  0  0  0
  -20.6680  -26.9400   22.5880 C   0  0  0  0  0  2  0  0  0  0  0  0
  -19.5610  -26.6280   21.5760 C   0  0  0  0  0  2  0  0  0  0  0  0
  -18.1820  -26.7810   22.2250 C   0  0  0  0  0  2  0  0  0  0  0  0
  -19.1440  -28.8820   23.3350 C   0  0  0  0  0  0  0  0  0  0  0  0
  -18.9340  -30.1430   23.9350 C   0  0  0  0  0  3  0  0  0  0  0  0
  -17.6330  -30.6510   24.1090 C   0  0  0  0  0  3  0  0  0  0  0  0
  -16.5220  -29.8960   23.6960 C   0  0  0  0  0  3  0  0  0  0  0  0
  -16.7160  -28.6370   23.1010 C   0  0  0  0  0  3  0  0  0  0  0  0
  -25.8830  -32.5120   23.8300 C   0  0  0  0  0  3  0  0  0  0  0  0
  -25.5680  -33.9110   24.1620 N   0  0  0  0  0  0  0  0  0  0  0  0
  -25.9060  -34.9690   23.4120 C   0  0  0  0  0  0  0  0  0  0  0  0
  -26.5810  -34.8700   22.3840 O   0  0  0  0  0  0  0  0  0  0  0  0
  -24.9680  -34.0610   24.9590 H   0  0  0  0  0  0  0  0  0  0  0  0
  -24.1830  -36.7700   23.0580 C   0  0  0  0  0  1  0  0  0  0  0  0
  -25.4180  -36.3560   23.8740 C   0  0  0  0  0  3  0  0  0  0  0  0
  -27.5490  -37.2360   24.7240 C   0  0  0  0  0  1  0  0  0  0  0  0
  -26.4540  -37.4080   23.7730 N   0  0  0  0  0  0  0  0  0  0  0  0
  -26.0470  -38.3290   23.9210 H   0  0  0  0  0  0  0  0  0  0  0  0
  -26.3900  -31.7450   25.1140 C   0  0  1  0  0  0  0  0  0  0  0  0
  -25.2910  -31.5130   26.1760 C   0  0  0  0  0  1  0  0  0  0  0  0
  -26.9740  -30.3640   24.7330 C   0  0  0  0  0  1  0  0  0  0  0  0
  -27.5370  -32.5400   25.7800 C   0  0  0  0  0  1  0  0  0  0  0  0
  -29.3280  -18.9700   20.7620 C   0  0  0  0  0  2  0  0  0  0  0  0
  -29.9570  -17.6130   19.9950 C   0  0  0  0  0  0  0  0  0  0  0  0
  -30.5460  -14.9290   20.2960 C   0  0  0  0  0  0  0  0  0  0  0  0
  -30.3750  -12.5960   19.3430 C   0  0  0  0  0  2  0  0  0  0  0  0
  -29.4450  -12.6060   18.1080 C   0  0  0  0  0  2  0  0  0  0  0  0
  -27.9790  -12.4120   18.5340 C   0  0  0  0  0  2  0  0  0  0  0  0
  -27.5900  -13.3160   19.7340 C   0  0  0  0  0  3  0  0  0  0  0  0
  -28.6460  -13.2910   20.8610 C   0  0  0  0  0  2  0  0  0  0  0  0
  -29.9260  -13.6820   20.2620 N   0  0  0  0  0  0  0  0  0  0  0  0
  -31.7300  -14.9590   19.9510 O   0  0  0  0  0  0  0  0  0  0  0  0
  -29.8000  -16.1230   20.5120 N   0  0  0  0  0  4  0  0  0  0  0  0
  -28.8770  -15.9310   20.8680 H   0  0  0  0  0  0  0  0  0  0  0  0
  -25.2070  -13.8980   20.4640 C   0  0  0  0  0  0  0  0  0  0  0  0
  -24.1420  -13.1250   20.8360 C   0  0  0  0  0  0  0  0  0  0  0  0
  -24.6060  -11.7740   20.8100 C   0  0  0  0  0  0  0  0  0  0  0  0
  -26.2500  -13.0200   20.2290 N   0  0  0  0  0  0  0  0  0  0  0  0
  -25.8980  -11.7370   20.5030 N   0  0  0  0  0  0  0  0  0  0  0  0
  -23.8790  -10.5120   21.0040 C   0  0  0  0  0  0  0  0  0  0  0  0
  -24.3050   -9.5510   21.9460 C   0  0  0  0  0  3  0  0  0  0  0  0
  -23.5760   -8.3550   22.1280 C   0  0  0  0  0  3  0  0  0  0  0  0
  -22.4080   -8.1130   21.3670 C   0  0  0  0  0  0  0  0  0  0  0  0
  -22.0020   -9.0640   20.4140 C   0  0  0  0  0  3  0  0  0  0  0  0
  -22.7310  -10.2510   20.2310 C   0  0  0  0  0  3  0  0  0  0  0  0
  -21.6510   -6.9700   21.4570 O   0  0  0  0  0  0  0  0  0  0  0  0
  -21.5910   -6.2360   22.6150 C   0  0  0  0  0  0  0  0  0  0  0  0
  -21.1520   -6.8010   23.8320 C   0  0  0  0  0  3  0  0  0  0  0  0
  -21.0390   -5.9940   24.9820 C   0  0  0  0  0  3  0  0  0  0  0  0
  -21.3530   -4.6240   24.9150 C   0  0  0  0  0  0  0  0  0  0  0  0
  -21.7840   -4.0590   23.7020 C   0  0  0  0  0  3  0  0  0  0  0  0
  -21.9000   -4.8620   22.5550 C   0  0  0  0  0  0  0  0  0  0  0  0
  -22.2950   -4.3080   21.3840 F   0  0  0  0  0  0  0  0  0  0  0  0
  -21.2370   -3.8470   26.0170 F   0  0  0  0  0  0  0  0  0  0  0  0
  -22.7450  -13.6040   21.1000 C   0  0  0  0  0  0  0  0  0  0  0  0
  -22.0140  -12.9100   21.9640 N   0  0  0  0  0  0  0  0  0  0  0  0
  -22.3100  -14.6280   20.5740 O   0  0  0  0  0  0  0  0  0  0  0  0
  -22.3790  -12.0830   22.4110 H   0  0  0  0  0  0  0  0  0  0  0  0
  -21.0740  -13.2120   22.1820 H   0  0  0  0  0  0  0  0  0  0  0  0
  -25.3710  -15.2690   20.2790 N   0  0  0  0  0  0  0  0  0  0  0  0
  -24.6030  -15.9230   20.3830 H   0  0  0  0  0  0  0  0  0  0  0  0
  -26.2090  -15.7030   19.9130 H   0  0  0  0  0  0  0  0  0  0  0  0
  -31.3850  -17.9110   19.5200 C   0  0  0  0  0  0  0  0  0  0  0  0
  -31.5910  -18.0630   18.2190 N   0  0  0  0  0  0  0  0  0  0  0  0
  -32.3010  -18.0270   20.3330 O   0  0  0  0  0  0  0  0  0  0  0  0
  -30.8270  -17.9740   17.5640 H   0  0  0  0  0  0  0  0  0  0  0  0
  -32.5180  -18.2610   17.8700 H   0  0  0  0  0  0  0  0  0  0  0  0
  1  2  1  0
  1 46  1  0
  3  2  1  0
  4  5  1  0
  4  3  1  0
  6 17  2  0
  7  5  1  0
  7 12  1  0
  8 16  1  0
  8 18  1  0
  9 15  1  0
  9 11  1  0
 10 16  1  0
 11 12  2  0
 11 10  1  0
 13  7  2  0
 14 13  1  0
 14  9  2  0
 15  8  1  0
 16  6  1  0
 18 20  2  0
 19 18  1  0
 21 19  1  0
 22 31  2  0
 22 27  1  0
 23 19  1  0
 23 27  1  0
 24 23  1  0
 25 26  1  0
 25 24  1  0
 26 22  1  0
 27 28  2  0
 28 29  1  0
 30 29  2  0
 31 30  1  0
 32  6  1  0
 32 33  1  0
 32 42  1  0
 33 36  1  0
 34 38  1  0
 34 33  1  0
 35 34  2  0
 38 37  1  0
 40 38  1  0
 40 41  1  0
 40 39  1  0
 42 45  1  1
 42 43  1  0
 44 42  1  0
 47 56  2  0
 47 46  1  0
 48 56  1  0
 49 54  1  0
 50 51  1  0
 50 49  1  0
 52 51  1  0
 52 61  1  0
 52 53  1  0
 54 48  1  0
 54 53  1  0
 55 48  2  0
 56 57  1  0
 58 59  2  0
 59 78  1  0
 60 59  1  0
 60 63  1  0
 61 58  1  0
 61 62  1  0
 62 60  2  0
 63 64  1  0
 64 65  2  0
 66 69  1  0
 66 65  1  0
 67 66  2  0
 68 67  1  0
 68 63  2  0
 69 70  1  0
 70 71  1  0
 71 72  2  0
 73 72  1  0
 73 77  1  0
 74 73  2  0
 75 70  2  0
 75 74  1  0
 76 75  1  0
 78 79  1  0
 79 82  1  0
 79 81  1  0
 80 78  2  0
 83 84  1  0
 83 58  1  0
 85 83  1  0
 86 47  1  0
 86 88  2  0
 87 86  1  0
 89 87  1  0
 90 87  1  0
M  ISO  4   4 101   5 101  48 100  56 100
M  END
>  <TORSDO>  (67) 
F 22

>  <SCORE>  (67) 
-12.975

>  <name>  (67) 
66

>  <ligand_id>  (67) 
66

>  <original_smiles>  (67) 
[H]c1c([H])c([H])c2c(c1[H])C([H])([H])C([H])([H])C([H])([H])C2([H])N([H])C(=O)C1([H])N(C(=O)C([H])(N([H])C(=O)C([H])(N([H])C([H])([H])[H])C([H])([H])[H])C(C([H])([H])[H])(C([H])([H])[H])C([H])([H])[H])C([H])([H])c2c([H])c(OC([H])([H])C([H])([H])C([H])([H])C([H])([H])C([H])([H])C([H])(C(=O)N([H])[H])N([H])C(=O)N3C([H])([H])C([H])([H])C([H])([H])C([H])(n4nc(-c5c([H])c([H])c(Oc6c([H])c([H])c(F)c([H])c6F)c([H])c5[H])c(C(=O)N([H])[H])c4N([H])[H])C3([H])[H])c([H])c([H])c2C1([H])[H]

>  <smiles>  (67) 
[H]c1c([H])c([H])c2c(c1[H])C([H])([H])C([H])([H])C([H])([H])C2([H])N([H])C(=O)C1([H])N(C(=O)C([H])(N([H])C(=O)C([H])(N([H])C([H])([H])[H])C([H])([H])[H])C(C([H])([H])[H])(C([H])([H])[H])C([H])([H])[H])C([H])([H])c2c([H])c(OC([H])([H])C([H])([H])C([H])([H])C([H])([H])C([H])([H])C([H])(C(=O)N([H])[H])N([H])C(=O)N3C([H])([H])C([H])([H])C([H])([H])C([H])(n4nc(-c5c([H])c([H])c(Oc6c([H])c([H])c(F)c([H])c6F)c([H])c5[H])c(C(=O)N([H])[H])c4N([H])[H])C3([H])[H])c([H])c([H])c2C1([H])[H]

$$$$
67:0:0
     RDKit          3D

 88 96  0  0  1  0  0  0  0  0999 V2000
  -30.2210  -20.7750   19.5140 C   0  0  0  0  0  2  0  0  0  0  0  0
  -29.4580  -19.3980   19.9450 C   0  0  0  0  0  3  0  0  0  0  0  0
  -29.0090  -21.7540   19.9190 C   0  0  0  0  0  3  0  0  0  0  0  0
  -28.2350  -20.3670   19.5350 C   0  0  0  0  0  3  0  0  0  0  0  0
  -26.8760  -20.0950   20.1680 C   0  0  0  0  0  1  0  0  0  0  0  0
  -30.6060  -15.3340   19.6830 C   0  0  0  0  0  0  0  0  0  0  0  0
  -30.5670  -12.8890   18.9550 C   0  0  0  0  0  2  0  0  0  0  0  0
  -29.5830  -12.7090   17.7760 C   0  0  0  0  0  2  0  0  0  0  0  0
  -28.1630  -12.4380   18.3030 C   0  0  0  0  0  2  0  0  0  0  0  0
  -27.7690  -13.4140   19.4410 C   0  0  0  0  0  3  0  0  0  0  0  0
  -28.8780  -13.5810   20.5030 C   0  0  0  0  0  2  0  0  0  0  0  0
  -30.0870  -14.0310   19.8040 N   0  0  0  0  0  0  0  0  0  0  0  0
  -31.7640  -15.3800   19.2520 O   0  0  0  0  0  0  0  0  0  0  0  0
  -29.9190  -17.8700   19.3420 C   0  0  0  0  0  0  0  0  0  0  0  0
  -29.8380  -16.5430   19.9160 N   0  0  0  0  0  0  0  0  0  0  0  0
  -30.4830  -17.9580   18.2480 O   0  0  0  0  0  0  0  0  0  0  0  0
  -29.0990  -16.4370   20.5940 H   0  0  0  0  0  0  0  0  0  0  0  0
  -25.4670  -13.9340   20.4180 C   0  0  0  0  0  0  0  0  0  0  0  0
  -24.4420  -13.1350   20.8430 C   0  0  0  0  0  0  0  0  0  0  0  0
  -24.9050  -11.7900   20.7050 C   0  0  0  0  0  0  0  0  0  0  0  0
  -26.4840  -13.0760   20.0410 N   0  0  0  0  0  0  0  0  0  0  0  0
  -26.1640  -11.7770   20.2800 N   0  0  0  0  0  0  0  0  0  0  0  0
  -24.2000  -10.5160   20.8990 C   0  0  0  0  0  0  0  0  0  0  0  0
  -24.6450   -9.5570   21.8340 C   0  0  0  0  0  3  0  0  0  0  0  0
  -23.9370   -8.3490   22.0140 C   0  0  0  0  0  3  0  0  0  0  0  0
  -22.7680   -8.0920   21.2600 C   0  0  0  0  0  0  0  0  0  0  0  0
  -22.3410   -9.0400   20.3130 C   0  0  0  0  0  3  0  0  0  0  0  0
  -23.0510  -10.2390   20.1300 C   0  0  0  0  0  3  0  0  0  0  0  0
  -22.0300   -6.9370   21.3500 O   0  0  0  0  0  0  0  0  0  0  0  0
  -21.8950   -6.2590   22.5340 C   0  0  0  0  0  0  0  0  0  0  0  0
  -21.2900   -6.8490   23.6650 C   0  0  0  0  0  3  0  0  0  0  0  0
  -21.1060   -6.0950   24.8400 C   0  0  0  0  0  3  0  0  0  0  0  0
  -21.5170   -4.7480   24.8860 C   0  0  0  0  0  0  0  0  0  0  0  0
  -22.1140   -4.1570   23.7590 C   0  0  0  0  0  3  0  0  0  0  0  0
  -22.2980   -4.9090   22.5860 C   0  0  0  0  0  0  0  0  0  0  0  0
  -22.8550   -4.3270   21.4960 F   0  0  0  0  0  0  0  0  0  0  0  0
  -21.3340   -4.0210   26.0120 F   0  0  0  0  0  0  0  0  0  0  0  0
  -23.0740  -13.5920   21.2560 C   0  0  0  0  0  0  0  0  0  0  0  0
  -22.4270  -12.8630   22.1590 N   0  0  0  0  0  0  0  0  0  0  0  0
  -22.5880  -14.6310   20.8110 O   0  0  0  0  0  0  0  0  0  0  0  0
  -22.8340  -12.0230   22.5430 H   0  0  0  0  0  0  0  0  0  0  0  0
  -21.5120  -13.1530   22.4740 H   0  0  0  0  0  0  0  0  0  0  0  0
  -25.6110  -15.3130   20.2930 N   0  0  0  0  0  0  0  0  0  0  0  0
  -24.8490  -15.9530   20.4910 H   0  0  0  0  0  0  0  0  0  0  0  0
  -26.4180  -15.7720   19.8890 H   0  0  0  0  0  0  0  0  0  0  0  0
  -28.4840  -23.3810   19.5390 C   0  0  0  0  0  2  0  0  0  0  0  0
  -29.2350  -24.9370   19.5070 C   0  0  0  0  0  2  0  0  0  0  0  0
  -28.9350  -26.3900   20.0970 O   0  0  0  0  0  0  0  0  0  0  0  0
  -24.9040  -31.7260   23.2320 C   0  0  0  0  0  0  0  0  0  0  0  0
  -27.8360  -27.3390   19.9660 C   0  0  0  0  0  0  0  0  0  0  0  0
  -23.8530  -30.4240   21.4180 C   0  0  0  0  0  3  0  0  0  0  0  0
  -25.4400  -29.0230   19.9420 C   0  0  0  0  0  0  0  0  0  0  0  0
  -26.3970  -30.7920   21.4160 C   0  0  0  0  0  2  0  0  0  0  0  0
  -26.5630  -29.4580   20.6540 C   0  0  0  0  0  0  0  0  0  0  0  0
  -27.7530  -28.6320   20.6490 C   0  0  0  0  0  3  0  0  0  0  0  0
  -26.6890  -27.0200   19.2130 C   0  0  0  0  0  3  0  0  0  0  0  0
  -25.5200  -27.8250   19.2080 C   0  0  0  0  0  3  0  0  0  0  0  0
  -24.1730  -29.8690   20.0030 C   0  0  0  0  0  2  0  0  0  0  0  0
  -25.0680  -31.0020   22.0810 N   0  0  0  0  0  0  0  0  0  0  0  0
  -23.7810  -31.9210   23.7230 O   0  0  0  0  0  0  0  0  0  0  0  0
  -23.1670  -29.3210   22.2630 C   0  0  0  0  0  0  0  0  0  0  0  0
  -21.8420  -29.1510   22.0980 N   0  0  0  0  0  0  0  0  0  0  0  0
  -23.8320  -28.6220   23.0310 O   0  0  0  0  0  0  0  0  0  0  0  0
  -21.3580  -29.7700   21.4620 H   0  0  0  0  0  0  0  0  0  0  0  0
  -18.4550  -27.9330   22.5170 C   0  0  0  0  0  0  0  0  0  0  0  0
  -21.0250  -28.1250   22.7520 C   0  0  0  0  0  3  0  0  0  0  0  0
  -21.0870  -26.7850   21.9810 C   0  0  0  0  0  2  0  0  0  0  0  0
  -19.9580  -26.6220   20.9590 C   0  0  0  0  0  2  0  0  0  0  0  0
  -18.5950  -26.6920   21.6530 C   0  0  0  0  0  2  0  0  0  0  0  0
  -19.5960  -28.6150   23.0210 C   0  0  0  0  0  0  0  0  0  0  0  0
  -19.4090  -29.7810   23.7940 C   0  0  0  0  0  3  0  0  0  0  0  0
  -18.1150  -30.2660   24.0660 C   0  0  0  0  0  3  0  0  0  0  0  0
  -16.9910  -29.5800   23.5770 C   0  0  0  0  0  3  0  0  0  0  0  0
  -17.1610  -28.4150   22.8080 C   0  0  0  0  0  3  0  0  0  0  0  0
  -26.1160  -32.3620   23.9790 C   0  0  0  0  0  3  0  0  0  0  0  0
  -25.7460  -33.7390   24.3480 N   0  0  0  0  0  0  0  0  0  0  0  0
  -26.0730  -34.8340   23.6480 C   0  0  0  0  0  0  0  0  0  0  0  0
  -26.7820  -34.7930   22.6390 O   0  0  0  0  0  0  0  0  0  0  0  0
  -25.1180  -33.8420   25.1300 H   0  0  0  0  0  0  0  0  0  0  0  0
  -24.2970  -36.5910   23.3240 C   0  0  0  0  0  1  0  0  0  0  0  0
  -25.5340  -36.1910   24.1460 C   0  0  0  0  0  3  0  0  0  0  0  0
  -27.6070  -37.1290   25.0740 C   0  0  0  0  0  1  0  0  0  0  0  0
  -26.5320  -37.2800   24.0950 N   0  0  0  0  0  0  0  0  0  0  0  0
  -26.0910  -38.1820   24.2480 H   0  0  0  0  0  0  0  0  0  0  0  0
  -26.5490  -31.5510   25.2640 C   0  0  1  0  0  0  0  0  0  0  0  0
  -25.3820  -31.2540   26.2340 C   0  0  0  0  0  1  0  0  0  0  0  0
  -27.1880  -30.1980   24.8740 C   0  0  0  0  0  1  0  0  0  0  0  0
  -27.6280  -32.3400   26.0440 C   0  0  0  0  0  1  0  0  0  0  0  0
  1  3  1  0
  1  2  1  0
  2 14  1  0
  3 46  1  0
  4  3  1  0
  4  2  1  0
  4  5  1  0
  6 12  1  0
  6 15  1  0
  7 12  1  0
  8  9  1  0
  8  7  1  0
 10  9  1  0
 10 21  1  0
 10 11  1  0
 12 11  1  0
 13  6  2  0
 14 15  1  0
 15 17  1  0
 16 14  2  0
 18 19  2  0
 19 38  1  0
 20 19  1  0
 20 23  1  0
 21 22  1  0
 21 18  1  0
 22 20  2  0
 23 24  1  0
 24 25  2  0
 26 29  1  0
 26 25  1  0
 27 26  2  0
 28 27  1  0
 28 23  2  0
 29 30  1  0
 30 35  2  0
 30 31  1  0
 31 32  2  0
 32 33  1  0
 33 37  1  0
 34 33  2  0
 35 34  1  0
 36 35  1  0
 38 39  1  0
 39 42  1  0
 39 41  1  0
 40 38  2  0
 43 18  1  0
 43 44  1  0
 45 43  1  0
 47 46  1  0
 47 48  1  0
 49 60  2  0
 50 48  1  0
 50 55  1  0
 51 59  1  0
 51 61  1  0
 52 58  1  0
 52 54  1  0
 53 59  1  0
 54 53  1  0
 55 54  2  0
 56 50  2  0
 57 56  1  0
 57 52  2  0
 58 51  1  0
 59 49  1  0
 61 63  2  0
 62 61  1  0
 64 62  1  0
 65 74  2  0
 65 70  1  0
 66 62  1  0
 66 70  1  0
 67 66  1  0
 68 69  1  0
 68 67  1  0
 69 65  1  0
 70 71  2  0
 71 72  1  0
 73 72  2  0
 74 73  1  0
 75 49  1  0
 75 76  1  0
 75 85  1  0
 76 79  1  0
 77 81  1  0
 77 76  1  0
 78 77  2  0
 81 80  1  0
 83 81  1  0
 83 84  1  0
 83 82  1  0
 85 88  1  1
 85 86  1  0
 87 85  1  0
M  ISO  4   6 100  15 100  47 101  48 101
M  END
>  <TORSDO>  (68) 
F 18

>  <SCORE>  (68) 
-14.048

>  <name>  (68) 
67

>  <ligand_id>  (68) 
67

>  <original_smiles>  (68) 
[H]c1c([H])c([H])c2c(c1[H])C([H])([H])C([H])([H])C([H])([H])C2([H])N([H])C(=O)C1([H])N(C(=O)C([H])(N([H])C(=O)C([H])(N([H])C([H])([H])[H])C([H])([H])[H])C(C([H])([H])[H])(C([H])([H])[H])C([H])([H])[H])C([H])([H])c2c([H])c(OC([H])([H])C([H])([H])C3([H])C([H])([H])C([H])(C(=O)N([H])C(=O)N4C([H])([H])C([H])([H])C([H])([H])C([H])(n5nc(-c6c([H])c([H])c(Oc7c([H])c([H])c(F)c([H])c7F)c([H])c6[H])c(C(=O)N([H])[H])c5N([H])[H])C4([H])[H])C3([H])C([H])([H])[H])c([H])c([H])c2C1([H])[H]

>  <smiles>  (68) 
[H]c1c([H])c([H])c2c(c1[H])C([H])([H])C([H])([H])C([H])([H])C2([H])N([H])C(=O)C1([H])N(C(=O)C([H])(N([H])C(=O)C([H])(N([H])C([H])([H])[H])C([H])([H])[H])C(C([H])([H])[H])(C([H])([H])[H])C([H])([H])[H])C([H])([H])c2c([H])c(OC([H])([H])C([H])([H])C3([H])C([H])([H])C([H])(C(=O)N([H])C(=O)N4C([H])([H])C([H])([H])C([H])([H])C([H])(n5nc(-c6c([H])c([H])c(Oc7c([H])c([H])c(F)c([H])c7F)c([H])c6[H])c(C(=O)N([H])[H])c5N([H])[H])C4([H])[H])C3([H])C([H])([H])[H])c([H])c([H])c2C1([H])[H]

$$$$
68:0:0
     RDKit          3D

 89 97  0  0  1  0  0  0  0  0999 V2000
  -29.3580  -23.1740   20.2580 C   0  0  0  0  0  2  0  0  0  0  0  0
  -27.0660  -23.4020   20.3320 C   0  0  0  0  0  2  0  0  0  0  0  0
  -28.8590  -21.6050   19.8740 C   0  0  0  0  0  3  0  0  0  0  0  0
  -28.2270  -24.3870   19.9070 C   0  0  2  0  0  0  0  0  0  0  0  0
  -28.2680  -24.5380   18.3720 C   0  0  0  0  0  1  0  0  0  0  0  0
  -27.4410  -21.9050   20.2510 N   0  0  0  0  0  4  0  0  0  0  0  0
  -26.8260  -21.4160   19.6230 H   0  0  0  0  0  0  0  0  0  0  0  0
  -27.3030  -21.5030   21.1650 H   0  0  0  0  0  0  0  0  0  0  0  0
  -29.4040  -20.0220   20.5290 C   0  0  0  0  0  0  0  0  0  0  0  0
  -29.5630  -19.9920   21.7520 O   0  0  0  0  0  0  0  0  0  0  0  0
  -29.7220  -18.4790   19.7890 C   0  0  0  0  0  2  0  0  0  0  0  0
  -29.7490  -16.8170   20.4510 C   0  0  0  0  0  2  0  0  0  0  0  0
  -30.5120  -15.3140   19.9960 C   0  0  0  0  0  0  0  0  0  0  0  0
  -30.4440  -12.8890   19.0720 C   0  0  0  0  0  2  0  0  0  0  0  0
  -29.4580  -12.7590   17.8820 C   0  0  0  0  0  2  0  0  0  0  0  0
  -28.0250  -12.4990   18.3800 C   0  0  0  0  0  2  0  0  0  0  0  0
  -27.6490  -13.4280   19.5610 C   0  0  0  0  0  3  0  0  0  0  0  0
  -28.7530  -13.5080   20.6360 C   0  0  0  0  0  2  0  0  0  0  0  0
  -29.9730  -13.9990   19.9770 N   0  0  0  0  0  0  0  0  0  0  0  0
  -31.6860  -15.3440   19.5980 O   0  0  0  0  0  0  0  0  0  0  0  0
  -25.3190  -13.9850   20.4410 C   0  0  0  0  0  0  0  0  0  0  0  0
  -24.2730  -13.2060   20.8480 C   0  0  0  0  0  0  0  0  0  0  0  0
  -24.7300  -11.8540   20.7680 C   0  0  0  0  0  0  0  0  0  0  0  0
  -26.3440  -13.1100   20.1270 N   0  0  0  0  0  0  0  0  0  0  0  0
  -26.0040  -11.8200   20.3900 N   0  0  0  0  0  0  0  0  0  0  0  0
  -24.0060  -10.5910   20.9700 C   0  0  0  0  0  0  0  0  0  0  0  0
  -24.4600   -9.6150   21.8830 C   0  0  0  0  0  3  0  0  0  0  0  0
  -23.7340   -8.4200   22.0750 C   0  0  0  0  0  3  0  0  0  0  0  0
  -22.5370   -8.1930   21.3530 C   0  0  0  0  0  0  0  0  0  0  0  0
  -22.1010   -9.1580   20.4280 C   0  0  0  0  0  3  0  0  0  0  0  0
  -22.8280  -10.3440   20.2350 C   0  0  0  0  0  3  0  0  0  0  0  0
  -21.7800   -7.0520   21.4550 O   0  0  0  0  0  0  0  0  0  0  0  0
  -21.7460   -6.3100   22.6100 C   0  0  0  0  0  0  0  0  0  0  0  0
  -21.3130   -6.8600   23.8360 C   0  0  0  0  0  3  0  0  0  0  0  0
  -21.2280   -6.0440   24.9830 C   0  0  0  0  0  3  0  0  0  0  0  0
  -21.5660   -4.6810   24.9030 C   0  0  0  0  0  0  0  0  0  0  0  0
  -21.9930   -4.1300   23.6820 C   0  0  0  0  0  3  0  0  0  0  0  0
  -22.0790   -4.9430   22.5380 C   0  0  0  0  0  0  0  0  0  0  0  0
  -22.4700   -4.4030   21.3590 F   0  0  0  0  0  0  0  0  0  0  0  0
  -21.4780   -3.8950   26.0030 F   0  0  0  0  0  0  0  0  0  0  0  0
  -22.8940  -13.6840   21.1960 C   0  0  0  0  0  0  0  0  0  0  0  0
  -22.2030  -12.9720   22.0790 N   0  0  0  0  0  0  0  0  0  0  0  0
  -22.4410  -14.7250   20.7210 O   0  0  0  0  0  0  0  0  0  0  0  0
  -22.5830  -12.1310   22.4840 H   0  0  0  0  0  0  0  0  0  0  0  0
  -21.2790  -13.2760   22.3550 H   0  0  0  0  0  0  0  0  0  0  0  0
  -25.4810  -15.3580   20.2840 N   0  0  0  0  0  0  0  0  0  0  0  0
  -24.7230  -16.0130   20.4470 H   0  0  0  0  0  0  0  0  0  0  0  0
  -26.3130  -15.8000   19.9160 H   0  0  0  0  0  0  0  0  0  0  0  0
  -28.2110  -25.9680   20.3620 O   0  0  0  0  0  0  0  0  0  0  0  0
  -24.6210  -31.9170   23.2090 C   0  0  0  0  0  0  0  0  0  0  0  0
  -27.1800  -27.0350   20.2370 C   0  0  0  0  0  0  0  0  0  0  0  0
  -23.4260  -30.5070   21.5830 C   0  0  0  0  0  3  0  0  0  0  0  0
  -24.8730  -28.8950   20.1720 C   0  0  0  0  0  0  0  0  0  0  0  0
  -25.9900  -30.7250   21.4320 C   0  0  0  0  0  2  0  0  0  0  0  0
  -26.0600  -29.3130   20.7880 C   0  0  0  0  0  0  0  0  0  0  0  0
  -27.2050  -28.4030   20.7960 C   0  0  0  0  0  3  0  0  0  0  0  0
  -25.9600  -26.7600   19.5800 C   0  0  0  0  0  3  0  0  0  0  0  0
  -24.8470  -27.6380   19.5490 C   0  0  0  0  0  3  0  0  0  0  0  0
  -23.6540  -29.8120   20.2130 C   0  0  0  0  0  2  0  0  0  0  0  0
  -24.7010  -31.0760   22.1290 N   0  0  0  0  0  0  0  0  0  0  0  0
  -23.5330  -32.2130   23.7280 O   0  0  0  0  0  0  0  0  0  0  0  0
  -22.7320  -29.5190   22.5570 C   0  0  0  0  0  0  0  0  0  0  0  0
  -21.4000  -29.3650   22.4410 N   0  0  0  0  0  0  0  0  0  0  0  0
  -23.3990  -28.8930   23.3850 O   0  0  0  0  0  0  0  0  0  0  0  0
  -20.9170  -29.9220   21.7510 H   0  0  0  0  0  0  0  0  0  0  0  0
  -18.0130  -28.1800   22.9710 C   0  0  0  0  0  0  0  0  0  0  0  0
  -20.5750  -28.4380   23.2220 C   0  0  0  0  0  3  0  0  0  0  0  0
  -20.6680  -27.0000   22.6580 C   0  0  0  0  0  2  0  0  0  0  0  0
  -19.5600  -26.6760   21.6500 C   0  0  0  0  0  2  0  0  0  0  0  0
  -18.1820  -26.8270   22.2990 C   0  0  0  0  0  2  0  0  0  0  0  0
  -19.1360  -28.9430   23.3890 C   0  0  0  0  0  0  0  0  0  0  0  0
  -18.9220  -30.2070   23.9800 C   0  0  0  0  0  3  0  0  0  0  0  0
  -17.6190  -30.7110   24.1530 C   0  0  0  0  0  3  0  0  0  0  0  0
  -16.5110  -29.9460   23.7490 C   0  0  0  0  0  3  0  0  0  0  0  0
  -16.7080  -28.6830   23.1630 C   0  0  0  0  0  3  0  0  0  0  0  0
  -25.8930  -32.5640   23.8370 C   0  0  0  0  0  3  0  0  0  0  0  0
  -26.3980  -31.8090   25.1300 C   0  0  1  0  0  0  0  0  0  0  0  0
  -25.2950  -31.5830   26.1900 C   0  0  0  0  0  1  0  0  0  0  0  0
  -26.9860  -30.4260   24.7680 C   0  0  0  0  0  1  0  0  0  0  0  0
  -27.5410  -32.6130   25.7910 C   0  0  0  0  0  1  0  0  0  0  0  0
  -25.5760  -33.9650   24.1600 N   0  0  0  0  0  0  0  0  0  0  0  0
  -25.9120  -35.0210   23.4070 C   0  0  0  0  0  0  0  0  0  0  0  0
  -26.5830  -34.9170   22.3770 O   0  0  0  0  0  0  0  0  0  0  0  0
  -24.9790  -34.1200   24.9590 H   0  0  0  0  0  0  0  0  0  0  0  0
  -24.1960  -36.8300   23.0490 C   0  0  0  0  0  1  0  0  0  0  0  0
  -25.4280  -36.4130   23.8670 C   0  0  0  0  0  3  0  0  0  0  0  0
  -27.5550  -37.2930   24.7240 C   0  0  0  0  0  1  0  0  0  0  0  0
  -26.4670  -37.4620   23.7650 N   0  0  0  0  0  0  0  0  0  0  0  0
  -26.0620  -38.3840   23.9040 H   0  0  0  0  0  0  0  0  0  0  0  0
  3  6  1  0
  3  1  1  0
  3  9  1  0
  4  5  1  6
  4  1  1  0
  4  2  1  0
  4 49  1  0
  6  2  1  0
  6  8  1  0
  7  6  1  0
  9 10  2  0
 11 12  1  0
 11  9  1  0
 13 12  1  0
 14 19  1  0
 15 16  1  0
 15 14  1  0
 17 16  1  0
 17 24  1  0
 17 18  1  0
 19 13  1  0
 19 18  1  0
 20 13  2  0
 21 22  2  0
 22 41  1  0
 23 22  1  0
 23 26  1  0
 24 25  1  0
 24 21  1  0
 25 23  2  0
 26 27  1  0
 27 28  2  0
 29 32  1  0
 29 28  1  0
 30 29  2  0
 31 30  1  0
 31 26  2  0
 32 33  1  0
 33 34  1  0
 34 35  2  0
 36 35  1  0
 36 40  1  0
 37 36  2  0
 38 33  2  0
 38 37  1  0
 39 38  1  0
 41 42  1  0
 42 45  1  0
 42 44  1  0
 43 41  2  0
 46 21  1  0
 46 47  1  0
 48 46  1  0
 50 61  2  0
 51 49  1  0
 51 56  1  0
 52 60  1  0
 52 62  1  0
 53 59  1  0
 53 55  1  0
 54 60  1  0
 55 56  2  0
 55 54  1  0
 57 51  2  0
 58 57  1  0
 58 53  2  0
 59 52  1  0
 60 50  1  0
 62 64  2  0
 63 62  1  0
 65 63  1  0
 66 75  2  0
 66 71  1  0
 67 63  1  0
 67 71  1  0
 68 67  1  0
 69 70  1  0
 69 68  1  0
 70 66  1  0
 71 72  2  0
 72 73  1  0
 74 73  2  0
 75 74  1  0
 76 50  1  0
 76 81  1  0
 76 77  1  0
 77 80  1  1
 77 78  1  0
 79 77  1  0
 81 84  1  0
 82 86  1  0
 82 81  1  0
 83 82  2  0
 86 85  1  0
 88 86  1  0
 88 89  1  0
 88 87  1  0
M  ISO  4   4 101  12 100  13 100  49 101
M  END
>  <TORSDO>  (69) 
F 19

>  <SCORE>  (69) 
-15.672

>  <name>  (69) 
68

>  <ligand_id>  (69) 
68

>  <original_smiles>  (69) 
[H]c1c([H])c([H])c2c(c1[H])C([H])([H])C([H])([H])C([H])([H])C2([H])N([H])C(=O)C1([H])N(C(=O)C([H])(N([H])C(=O)C([H])(N([H])C([H])([H])[H])C([H])([H])[H])C(C([H])([H])[H])(C([H])([H])[H])C([H])([H])[H])C([H])([H])c2c([H])c(OC3(C([H])([H])[H])C([H])([H])C([H])(C(=O)C([H])([H])C([H])([H])C(=O)N4C([H])([H])C([H])([H])C([H])([H])C([H])(n5nc(-c6c([H])c([H])c(Oc7c([H])c([H])c(F)c([H])c7F)c([H])c6[H])c(C(=O)N([H])[H])c5N([H])[H])C4([H])[H])[N+]([H])([H])C3([H])[H])c([H])c([H])c2C1([H])[H]

>  <smiles>  (69) 
[H]c1c([H])c([H])c2c(c1[H])C([H])([H])C([H])([H])C([H])([H])C2([H])N([H])C(=O)C1([H])N(C(=O)C([H])(N([H])C(=O)C([H])(N([H])C([H])([H])[H])C([H])([H])[H])C(C([H])([H])[H])(C([H])([H])[H])C([H])([H])[H])C([H])([H])c2c([H])c(OC3(C([H])([H])[H])C([H])([H])C([H])(C(=O)C([H])([H])C([H])([H])C(=O)N4C([H])([H])C([H])([H])C([H])([H])C([H])(n5nc(-c6c([H])c([H])c(Oc7c([H])c([H])c(F)c([H])c7F)c([H])c6[H])c(C(=O)N([H])[H])c5N([H])[H])C4([H])[H])[N+]([H])([H])C3([H])[H])c([H])c([H])c2C1([H])[H]

$$$$
69:0:0
     RDKit          3D

 90 98  0  0  1  0  0  0  0  0999 V2000
  -29.2250  -21.9660   20.7870 C   0  0  0  0  0  3  0  0  0  0  0  0
  -31.5400  -19.5920   18.6120 C   0  0  0  0  0  3  0  0  0  0  0  0
  -30.8840  -20.7050   19.1850 C   0  0  0  0  0  3  0  0  0  0  0  0
  -31.2370  -18.2500   18.9690 C   0  0  0  0  0  3  0  0  0  0  0  0
  -29.5650  -19.1290   20.4800 C   0  0  0  0  0  3  0  0  0  0  0  0
  -29.8570  -20.5630   20.1410 C   0  0  0  0  0  0  0  0  0  0  0  0
  -30.2480  -17.9180   19.9280 C   0  0  0  0  0  0  0  0  0  0  0  0
  -30.7090  -15.2010   20.0970 C   0  0  0  0  0  0  0  0  0  0  0  0
  -30.5710  -12.8050   19.2570 C   0  0  0  0  0  2  0  0  0  0  0  0
  -29.6430  -12.6780   18.0290 C   0  0  0  0  0  2  0  0  0  0  0  0
  -28.1880  -12.4620   18.4690 C   0  0  0  0  0  2  0  0  0  0  0  0
  -27.7660  -13.4420   19.5900 C   0  0  0  0  0  3  0  0  0  0  0  0
  -28.8180  -13.5630   20.7180 C   0  0  0  0  0  2  0  0  0  0  0  0
  -30.0900  -13.9450   20.0910 N   0  0  0  0  0  0  0  0  0  0  0  0
  -31.9130  -15.2080   19.8200 O   0  0  0  0  0  0  0  0  0  0  0  0
  -29.9660  -16.4220   20.2330 N   0  0  0  0  0  0  0  0  0  0  0  0
  -29.0150  -16.2430   20.5150 H   0  0  0  0  0  0  0  0  0  0  0  0
  -25.3980  -14.0270   20.3430 C   0  0  0  0  0  0  0  0  0  0  0  0
  -24.3280  -13.2540   20.7150 C   0  0  0  0  0  0  0  0  0  0  0  0
  -24.7910  -11.9030   20.6890 C   0  0  0  0  0  0  0  0  0  0  0  0
  -26.4360  -13.1420   20.1050 N   0  0  0  0  0  0  0  0  0  0  0  0
  -26.0810  -11.8600   20.3820 N   0  0  0  0  0  0  0  0  0  0  0  0
  -24.0620  -10.6420   20.8840 C   0  0  0  0  0  0  0  0  0  0  0  0
  -24.4580   -9.7030   21.8600 C   0  0  0  0  0  3  0  0  0  0  0  0
  -23.7290   -8.5080   22.0380 C   0  0  0  0  0  3  0  0  0  0  0  0
  -22.5920   -8.2410   21.2390 C   0  0  0  0  0  0  0  0  0  0  0  0
  -22.2150   -9.1700   20.2520 C   0  0  0  0  0  3  0  0  0  0  0  0
  -22.9450  -10.3580   20.0750 C   0  0  0  0  0  3  0  0  0  0  0  0
  -21.8360   -7.0980   21.3290 O   0  0  0  0  0  0  0  0  0  0  0  0
  -21.7110   -6.4040   22.5050 C   0  0  0  0  0  0  0  0  0  0  0  0
  -21.1690   -6.9960   23.6670 C   0  0  0  0  0  3  0  0  0  0  0  0
  -20.9990   -6.2270   24.8360 C   0  0  0  0  0  3  0  0  0  0  0  0
  -21.3560   -4.8650   24.8470 C   0  0  0  0  0  0  0  0  0  0  0  0
  -21.8880   -4.2720   23.6880 C   0  0  0  0  0  3  0  0  0  0  0  0
  -22.0640   -5.0380   22.5220 C   0  0  0  0  0  0  0  0  0  0  0  0
  -22.5600   -4.4560   21.4010 F   0  0  0  0  0  0  0  0  0  0  0  0
  -21.1840   -4.1230   25.9670 F   0  0  0  0  0  0  0  0  0  0  0  0
  -22.9320  -13.7360   20.9730 C   0  0  0  0  0  0  0  0  0  0  0  0
  -22.1940  -13.0470   21.8340 N   0  0  0  0  0  0  0  0  0  0  0  0
  -22.5080  -14.7610   20.4450 O   0  0  0  0  0  0  0  0  0  0  0  0
  -22.5450  -12.2150   22.2810 H   0  0  0  0  0  0  0  0  0  0  0  0
  -21.2560  -13.3620   22.0430 H   0  0  0  0  0  0  0  0  0  0  0  0
  -25.5720  -15.3950   20.1590 N   0  0  0  0  0  0  0  0  0  0  0  0
  -24.8160  -16.0660   20.2600 H   0  0  0  0  0  0  0  0  0  0  0  0
  -26.4220  -15.8160   19.8020 H   0  0  0  0  0  0  0  0  0  0  0  0
  -29.8720  -21.3690   23.2380 C   0  0  0  0  0  1  0  0  0  0  0  0
  -30.0530  -22.3300   22.0510 C   0  0  0  0  0  2  0  0  0  0  0  0
  -28.9930  -23.4290   19.9400 C   0  0  0  0  0  2  0  0  0  0  0  0
  -28.2040  -24.8260   20.5130 C   0  0  0  0  0  2  0  0  0  0  0  0
  -28.3570  -26.3230   20.0790 O   0  0  0  0  0  0  0  0  0  0  0  0
  -24.6110  -31.8480   23.2320 C   0  0  0  0  0  0  0  0  0  0  0  0
  -27.2640  -27.2690   20.0890 C   0  0  0  0  0  0  0  0  0  0  0  0
  -23.4180  -30.4690   21.5730 C   0  0  0  0  0  3  0  0  0  0  0  0
  -24.8890  -28.9590   20.0970 C   0  0  0  0  0  0  0  0  0  0  0  0
  -25.9590  -30.8040   21.3750 C   0  0  0  0  0  2  0  0  0  0  0  0
  -26.0630  -29.4220   20.7050 C   0  0  0  0  0  0  0  0  0  0  0  0
  -27.2500  -28.5960   20.6780 C   0  0  0  0  0  3  0  0  0  0  0  0
  -26.0620  -26.9060   19.4380 C   0  0  0  0  0  3  0  0  0  0  0  0
  -24.9050  -27.7190   19.4400 C   0  0  0  0  0  3  0  0  0  0  0  0
  -23.6380  -29.8240   20.1760 C   0  0  0  0  0  2  0  0  0  0  0  0
  -24.6840  -31.0600   22.1190 N   0  0  0  0  0  0  0  0  0  0  0  0
  -23.5250  -32.0960   23.7810 O   0  0  0  0  0  0  0  0  0  0  0  0
  -22.7710  -29.4260   22.5160 C   0  0  0  0  0  0  0  0  0  0  0  0
  -21.4490  -29.2070   22.3780 N   0  0  0  0  0  0  0  0  0  0  0  0
  -23.4600  -28.8160   23.3390 O   0  0  0  0  0  0  0  0  0  0  0  0
  -20.9460  -29.7460   21.6860 H   0  0  0  0  0  0  0  0  0  0  0  0
  -18.1300  -27.8320   22.7880 C   0  0  0  0  0  0  0  0  0  0  0  0
  -20.6620  -28.2320   23.1310 C   0  0  0  0  0  3  0  0  0  0  0  0
  -20.8600  -26.8060   22.5650 C   0  0  0  0  0  2  0  0  0  0  0  0
  -19.8090  -26.4220   21.5210 C   0  0  0  0  0  2  0  0  0  0  0  0
  -18.4000  -26.4920   22.1210 C   0  0  0  0  0  2  0  0  0  0  0  0
  -19.1920  -28.6550   23.2470 C   0  0  0  0  0  0  0  0  0  0  0  0
  -18.8850  -29.9060   23.8280 C   0  0  0  0  0  3  0  0  0  0  0  0
  -17.5490  -30.3340   23.9560 C   0  0  0  0  0  3  0  0  0  0  0  0
  -16.5010  -29.5090   23.5130 C   0  0  0  0  0  3  0  0  0  0  0  0
  -16.7930  -28.2600   22.9330 C   0  0  0  0  0  3  0  0  0  0  0  0
  -25.8840  -32.4930   23.8610 C   0  0  0  0  0  3  0  0  0  0  0  0
  -26.3980  -31.7230   25.1390 C   0  0  1  0  0  0  0  0  0  0  0  0
  -25.2990  -31.4810   26.2020 C   0  0  0  0  0  1  0  0  0  0  0  0
  -26.9800  -30.3430   24.7490 C   0  0  0  0  0  1  0  0  0  0  0  0
  -27.5430  -32.5210   25.8080 C   0  0  0  0  0  1  0  0  0  0  0  0
  -25.5620  -33.8900   24.1900 N   0  0  0  0  0  0  0  0  0  0  0  0
  -25.9070  -34.9500   23.4430 C   0  0  0  0  0  0  0  0  0  0  0  0
  -26.5910  -34.8540   22.4220 O   0  0  0  0  0  0  0  0  0  0  0  0
  -24.9500  -34.0420   24.9790 H   0  0  0  0  0  0  0  0  0  0  0  0
  -24.1820  -36.7480   23.0790 C   0  0  0  0  0  1  0  0  0  0  0  0
  -25.4120  -36.3370   23.9030 C   0  0  0  0  0  3  0  0  0  0  0  0
  -27.5340  -37.2240   24.7640 C   0  0  0  0  0  1  0  0  0  0  0  0
  -26.4430  -37.3950   23.8080 N   0  0  0  0  0  0  0  0  0  0  0  0
  -26.0270  -38.3080   23.9690 H   0  0  0  0  0  0  0  0  0  0  0  0
  1 48  1  0
  1 47  1  0
  2  4  2  0
  2  3  1  0
  3  6  2  0
  4  7  1  0
  6  5  1  0
  6  1  1  0
  7 16  1  0
  7  5  2  0
  8 16  1  0
  9 14  1  0
 10 11  1  0
 10  9  1  0
 12 11  1  0
 12 21  1  0
 12 13  1  0
 14  8  1  0
 14 13  1  0
 15  8  2  0
 16 17  1  0
 18 19  2  0
 19 38  1  0
 20 19  1  0
 20 23  1  0
 21 18  1  0
 21 22  1  0
 22 20  2  0
 23 24  1  0
 24 25  2  0
 26 29  1  0
 26 25  1  0
 27 26  2  0
 28 27  1  0
 28 23  2  0
 29 30  1  0
 30 35  2  0
 30 31  1  0
 31 32  2  0
 32 33  1  0
 33 37  1  0
 34 33  2  0
 35 34  1  0
 36 35  1  0
 38 39  1  0
 39 42  1  0
 39 41  1  0
 40 38  2  0
 43 44  1  0
 43 18  1  0
 45 43  1  0
 47 46  1  0
 48 49  1  0
 50 52  1  0
 50 49  1  0
 51 62  2  0
 52 57  1  0
 53 61  1  0
 53 63  1  0
 54 60  1  0
 54 56  1  0
 55 61  1  0
 56 55  1  0
 57 56  2  0
 58 59  1  0
 58 52  2  0
 59 54  2  0
 60 53  1  0
 61 51  1  0
 63 65  2  0
 64 63  1  0
 66 64  1  0
 67 76  2  0
 67 72  1  0
 68 64  1  0
 68 72  1  0
 69 68  1  0
 70 71  1  0
 70 69  1  0
 71 67  1  0
 72 73  2  0
 73 74  1  0
 75 74  2  0
 76 75  1  0
 77 51  1  0
 77 82  1  0
 77 78  1  0
 78 81  1  1
 78 79  1  0
 80 78  1  0
 82 85  1  0
 83 87  1  0
 83 82  1  0
 84 83  2  0
 87 86  1  0
 89 87  1  0
 89 90  1  0
 89 88  1  0
M  ISO  4   8 100  16 100  49 101  50 101
M  END
>  <TORSDO>  (70) 
F 20

>  <SCORE>  (70) 
-14.753

>  <name>  (70) 
69

>  <ligand_id>  (70) 
69

>  <original_smiles>  (70) 
[H]c1c([H])c([H])c2c(c1[H])C([H])([H])C([H])([H])C([H])([H])C2([H])N([H])C(=O)C1([H])N(C(=O)C([H])(N([H])C(=O)C([H])(N([H])C([H])([H])[H])C([H])([H])[H])C(C([H])([H])[H])(C([H])([H])[H])C([H])([H])[H])C([H])([H])c2c([H])c(OC([H])([H])C([H])([H])C([H])(c3c([H])c([H])c([H])c(N([H])C(=O)N4C([H])([H])C([H])([H])C([H])([H])C([H])(n5nc(-c6c([H])c([H])c(Oc7c([H])c([H])c(F)c([H])c7F)c([H])c6[H])c(C(=O)N([H])[H])c5N([H])[H])C4([H])[H])c3[H])C([H])([H])C([H])([H])[H])c([H])c([H])c2C1([H])[H]

>  <smiles>  (70) 
[H]c1c([H])c([H])c2c(c1[H])C([H])([H])C([H])([H])C([H])([H])C2([H])N([H])C(=O)C1([H])N(C(=O)C([H])(N([H])C(=O)C([H])(N([H])C([H])([H])[H])C([H])([H])[H])C(C([H])([H])[H])(C([H])([H])[H])C([H])([H])[H])C([H])([H])c2c([H])c(OC([H])([H])C([H])([H])C([H])(c3c([H])c([H])c([H])c(N([H])C(=O)N4C([H])([H])C([H])([H])C([H])([H])C([H])(n5nc(-c6c([H])c([H])c(Oc7c([H])c([H])c(F)c([H])c7F)c([H])c6[H])c(C(=O)N([H])[H])c5N([H])[H])C4([H])[H])c3[H])C([H])([H])C([H])([H])[H])c([H])c([H])c2C1([H])[H]

$$$$
70:0:0
     RDKit          3D

 89 97  0  0  1  0  0  0  0  0999 V2000
  -29.7720  -22.0170   21.5670 C   0  0  0  0  0  2  0  0  0  0  0  0
  -30.4110  -19.3350   21.5400 C   0  0  0  0  0  2  0  0  0  0  0  0
  -28.5980  -20.3410   20.0580 C   0  0  0  0  0  2  0  0  0  0  0  0
  -30.8660  -20.8590   21.5660 C   0  0  0  0  0  3  0  0  0  0  0  0
  -28.9090  -22.1840   20.2840 C   0  0  0  0  0  3  0  0  0  0  0  0
  -29.6860  -18.8230   20.2610 C   0  0  0  0  0  3  0  0  0  0  0  0
  -30.2810  -15.6980   20.1820 C   0  0  0  0  0  0  0  0  0  0  0  0
  -30.3680  -13.1690   19.3390 C   0  0  0  0  0  2  0  0  0  0  0  0
  -29.4520  -12.7830   18.1440 C   0  0  0  0  0  2  0  0  0  0  0  0
  -28.0400  -12.4210   18.6260 C   0  0  0  0  0  2  0  0  0  0  0  0
  -27.5500  -13.4070   19.7120 C   0  0  0  0  0  3  0  0  0  0  0  0
  -28.6030  -13.7100   20.8030 C   0  0  0  0  0  2  0  0  0  0  0  0
  -29.7590  -14.3360   20.1200 N   0  0  0  0  0  0  0  0  0  0  0  0
  -31.5090  -15.6480   19.9830 O   0  0  0  0  0  0  0  0  0  0  0  0
  -29.5170  -17.0520   20.2750 N   0  0  0  0  0  0  0  0  0  0  0  0
  -28.5380  -16.8240   20.3750 H   0  0  0  0  0  0  0  0  0  0  0  0
  -25.2070  -13.9080   20.5530 C   0  0  0  0  0  0  0  0  0  0  0  0
  -24.1620  -13.1120   20.9290 C   0  0  0  0  0  0  0  0  0  0  0  0
  -24.6400  -11.7670   20.8540 C   0  0  0  0  0  0  0  0  0  0  0  0
  -26.2490  -13.0500   20.2600 N   0  0  0  0  0  0  0  0  0  0  0  0
  -25.9240  -11.7530   20.5080 N   0  0  0  0  0  0  0  0  0  0  0  0
  -23.9250  -10.4970   21.0320 C   0  0  0  0  0  0  0  0  0  0  0  0
  -24.3550   -9.5290   21.9660 C   0  0  0  0  0  3  0  0  0  0  0  0
  -23.6350   -8.3260   22.1350 C   0  0  0  0  0  3  0  0  0  0  0  0
  -22.4710   -8.0820   21.3680 C   0  0  0  0  0  0  0  0  0  0  0  0
  -22.0610   -9.0370   20.4220 C   0  0  0  0  0  3  0  0  0  0  0  0
  -22.7800  -10.2310   20.2520 C   0  0  0  0  0  3  0  0  0  0  0  0
  -21.7250   -6.9310   21.4450 O   0  0  0  0  0  0  0  0  0  0  0  0
  -21.6310   -6.2100   22.6090 C   0  0  0  0  0  0  0  0  0  0  0  0
  -21.1170   -6.7750   23.7960 C   0  0  0  0  0  3  0  0  0  0  0  0
  -20.9730   -5.9790   24.9500 C   0  0  0  0  0  3  0  0  0  0  0  0
  -21.3340   -4.6190   24.9180 C   0  0  0  0  0  0  0  0  0  0  0  0
  -21.8410   -4.0530   23.7350 C   0  0  0  0  0  3  0  0  0  0  0  0
  -21.9860   -4.8460   22.5830 C   0  0  0  0  0  0  0  0  0  0  0  0
  -22.4550   -4.2900   21.4400 F   0  0  0  0  0  0  0  0  0  0  0  0
  -21.1890   -3.8520   26.0230 F   0  0  0  0  0  0  0  0  0  0  0  0
  -22.7690  -13.5730   21.2390 C   0  0  0  0  0  0  0  0  0  0  0  0
  -22.0660  -12.8570   22.1070 N   0  0  0  0  0  0  0  0  0  0  0  0
  -22.3150  -14.6050   20.7470 O   0  0  0  0  0  0  0  0  0  0  0  0
  -22.4480  -12.0220   22.5280 H   0  0  0  0  0  0  0  0  0  0  0  0
  -21.1310  -13.1460   22.3580 H   0  0  0  0  0  0  0  0  0  0  0  0
  -25.3520  -15.2840   20.4020 N   0  0  0  0  0  0  0  0  0  0  0  0
  -24.5790  -15.9260   20.5420 H   0  0  0  0  0  0  0  0  0  0  0  0
  -26.1770  -15.7340   20.0290 H   0  0  0  0  0  0  0  0  0  0  0  0
  -31.9850  -21.1360   20.5690 C   0  0  0  0  0  3  0  0  0  0  0  0
  -32.8280  -22.0700   20.7080 N   0  0  0  0  0  0  0  0  0  0  0  0
  -32.6620  -22.6030   21.5550 H   0  0  0  0  0  0  0  0  0  0  0  0
  -27.9330  -23.8630   20.2690 C   0  0  0  0  0  2  0  0  0  0  0  0
  -28.1310  -25.6070   20.3530 O   0  0  0  0  0  0  0  0  0  0  0  0
  -24.6380  -31.8970   23.2550 C   0  0  0  0  0  0  0  0  0  0  0  0
  -27.1540  -26.8100   20.2970 C   0  0  0  0  0  0  0  0  0  0  0  0
  -23.4470  -30.4970   21.6230 C   0  0  0  0  0  3  0  0  0  0  0  0
  -24.8900  -28.8390   20.2230 C   0  0  0  0  0  0  0  0  0  0  0  0
  -26.0260  -30.6350   21.5040 C   0  0  0  0  0  2  0  0  0  0  0  0
  -26.0860  -29.2000   20.8550 C   0  0  0  0  0  0  0  0  0  0  0  0
  -27.2040  -28.2140   20.8580 C   0  0  0  0  0  3  0  0  0  0  0  0
  -25.9240  -26.6530   19.6110 C   0  0  0  0  0  3  0  0  0  0  0  0
  -24.8480  -27.5910   19.5760 C   0  0  0  0  0  3  0  0  0  0  0  0
  -23.6870  -29.7920   20.2570 C   0  0  0  0  0  2  0  0  0  0  0  0
  -24.7280  -31.0420   22.1800 N   0  0  0  0  0  0  0  0  0  0  0  0
  -23.5450  -32.2040   23.7620 O   0  0  0  0  0  0  0  0  0  0  0  0
  -22.7260  -29.5260   22.5980 C   0  0  0  0  0  0  0  0  0  0  0  0
  -21.3960  -29.3630   22.4590 N   0  0  0  0  0  0  0  0  0  0  0  0
  -23.3760  -28.9170   23.4510 O   0  0  0  0  0  0  0  0  0  0  0  0
  -20.9220  -29.9040   21.7490 H   0  0  0  0  0  0  0  0  0  0  0  0
  -18.0110  -28.1320   22.9370 C   0  0  0  0  0  0  0  0  0  0  0  0
  -20.5650  -28.4320   23.2320 C   0  0  0  0  0  3  0  0  0  0  0  0
  -20.6890  -26.9910   22.6850 C   0  0  0  0  0  2  0  0  0  0  0  0
  -19.6060  -26.6400   21.6600 C   0  0  0  0  0  2  0  0  0  0  0  0
  -18.2130  -26.7770   22.2810 C   0  0  0  0  0  2  0  0  0  0  0  0
  -19.1140  -28.9150   23.3700 C   0  0  0  0  0  0  0  0  0  0  0  0
  -18.8690  -30.1800   23.9500 C   0  0  0  0  0  3  0  0  0  0  0  0
  -17.5540  -30.6610   24.0970 C   0  0  0  0  0  3  0  0  0  0  0  0
  -16.4660  -29.8760   23.6780 C   0  0  0  0  0  3  0  0  0  0  0  0
  -16.6960  -28.6130   23.1050 C   0  0  0  0  0  3  0  0  0  0  0  0
  -25.9020  -32.5450   23.8960 C   0  0  0  0  0  3  0  0  0  0  0  0
  -25.5850  -33.9490   24.2250 N   0  0  0  0  0  0  0  0  0  0  0  0
  -25.8910  -35.0090   23.4640 C   0  0  0  0  0  0  0  0  0  0  0  0
  -26.5290  -34.9080   22.4130 O   0  0  0  0  0  0  0  0  0  0  0  0
  -25.0120  -34.0990   25.0420 H   0  0  0  0  0  0  0  0  0  0  0  0
  -24.1320  -36.7950   23.2000 C   0  0  0  0  0  1  0  0  0  0  0  0
  -25.4200  -36.4000   23.9410 C   0  0  0  0  0  3  0  0  0  0  0  0
  -27.5850  -37.3180   24.6530 C   0  0  0  0  0  1  0  0  0  0  0  0
  -26.4360  -37.4620   23.7640 N   0  0  0  0  0  0  0  0  0  0  0  0
  -26.0280  -38.3810   23.9180 H   0  0  0  0  0  0  0  0  0  0  0  0
  -26.3940  -31.7910   25.1940 C   0  0  1  0  0  0  0  0  0  0  0  0
  -25.2820  -31.5750   26.2490 C   0  0  0  0  0  1  0  0  0  0  0  0
  -26.9760  -30.4030   24.8430 C   0  0  0  0  0  1  0  0  0  0  0  0
  -27.5380  -32.5890   25.8620 C   0  0  0  0  0  1  0  0  0  0  0  0
  2  4  1  0
  3  6  1  0
  3  5  1  0
  4 45  1  0
  4  1  1  0
  5 48  1  0
  5  1  1  0
  6 15  1  0
  6  2  1  0
  7 15  1  0
  8 13  1  0
  9 10  1  0
  9  8  1  0
 11 10  1  0
 11 20  1  0
 11 12  1  0
 13  7  1  0
 13 12  1  0
 14  7  2  0
 15 16  1  0
 17 18  2  0
 18 37  1  0
 19 18  1  0
 19 22  1  0
 20 21  1  0
 20 17  1  0
 21 19  2  0
 22 23  1  0
 23 24  2  0
 25 28  1  0
 25 24  1  0
 26 25  2  0
 27 26  1  0
 27 22  2  0
 28 29  1  0
 29 30  1  0
 30 31  2  0
 32 31  1  0
 32 36  1  0
 33 32  2  0
 34 29  2  0
 34 33  1  0
 35 34  1  0
 37 38  1  0
 38 41  1  0
 38 40  1  0
 39 37  2  0
 42 43  1  0
 42 17  1  0
 44 42  1  0
 45 46  2  0
 46 47  1  0
 48 49  1  0
 50 61  2  0
 51 49  1  0
 51 56  1  0
 52 60  1  0
 52 62  1  0
 53 59  1  0
 53 55  1  0
 54 60  1  0
 55 56  2  0
 55 54  1  0
 57 51  2  0
 58 57  1  0
 58 53  2  0
 59 52  1  0
 60 50  1  0
 62 64  2  0
 63 62  1  0
 65 63  1  0
 66 75  2  0
 66 71  1  0
 67 63  1  0
 67 71  1  0
 68 67  1  0
 69 70  1  0
 69 68  1  0
 70 66  1  0
 71 72  2  0
 72 73  1  0
 74 73  2  0
 75 74  1  0
 76 50  1  0
 76 77  1  0
 76 86  1  0
 77 80  1  0
 78 82  1  0
 78 77  1  0
 79 78  2  0
 82 81  1  0
 84 85  1  0
 84 82  1  0
 84 83  1  0
 86 89  1  1
 86 87  1  0
 88 86  1  0
M  ISO  4   7 100  15 100  48 101  49 101
M  END
>  <TORSDO>  (71) 
F 18

>  <SCORE>  (71) 
-16.261

>  <name>  (71) 
70

>  <ligand_id>  (71) 
70

>  <original_smiles>  (71) 
[H]N=C([H])C1([H])C([H])([H])C([H])(N([H])C(=O)N2C([H])([H])C([H])([H])C([H])([H])C([H])(n3nc(-c4c([H])c([H])c(Oc5c([H])c([H])c(F)c([H])c5F)c([H])c4[H])c(C(=O)N([H])[H])c3N([H])[H])C2([H])[H])C([H])([H])C([H])(C([H])([H])Oc2c([H])c([H])c3c(c2[H])C([H])([H])N(C(=O)C([H])(N([H])C(=O)C([H])(N([H])C([H])([H])[H])C([H])([H])[H])C(C([H])([H])[H])(C([H])([H])[H])C([H])([H])[H])C([H])(C(=O)N([H])C2([H])c4c([H])c([H])c([H])c([H])c4C([H])([H])C([H])([H])C2([H])[H])C3([H])[H])C1([H])[H]

>  <smiles>  (71) 
[H]N=C([H])C1([H])C([H])([H])C([H])(N([H])C(=O)N2C([H])([H])C([H])([H])C([H])([H])C([H])(n3nc(-c4c([H])c([H])c(Oc5c([H])c([H])c(F)c([H])c5F)c([H])c4[H])c(C(=O)N([H])[H])c3N([H])[H])C2([H])[H])C([H])([H])C([H])(C([H])([H])Oc2c([H])c([H])c3c(c2[H])C([H])([H])N(C(=O)C([H])(N([H])C(=O)C([H])(N([H])C([H])([H])[H])C([H])([H])[H])C(C([H])([H])[H])(C([H])([H])[H])C([H])([H])[H])C([H])(C(=O)N([H])C2([H])c4c([H])c([H])c([H])c([H])c4C([H])([H])C([H])([H])C2([H])[H])C3([H])[H])C1([H])[H]

$$$$
71:0:0
     RDKit          3D

 85 92  0  0  1  0  0  0  0  0999 V2000
  -29.0280  -22.4070   20.2720 C   0  0  0  0  0  3  0  0  0  0  0  0
  -28.7210  -20.5640   20.2750 C   0  0  0  0  0  0  0  0  0  0  0  0
  -27.4930  -20.2770   20.3290 N   0  0  0  0  0  0  0  0  0  0  0  0
  -26.9090  -21.1070   20.3620 H   0  0  0  0  0  0  0  0  0  0  0  0
  -30.6420  -19.1900   18.9540 C   0  0  0  0  0  1  0  0  0  0  0  0
  -29.7760  -19.0270   20.2090 C   0  0  0  0  0  3  0  0  0  0  0  0
  -29.4490  -17.1690   20.3430 C   0  0  0  0  0  2  0  0  0  0  0  0
  -30.3270  -15.5700   20.1530 C   0  0  0  0  0  0  0  0  0  0  0  0
  -30.4120  -13.0650   19.2940 C   0  0  0  0  0  2  0  0  0  0  0  0
  -29.4800  -12.7760   18.0830 C   0  0  0  0  0  2  0  0  0  0  0  0
  -28.0520  -12.4440   18.5480 C   0  0  0  0  0  2  0  0  0  0  0  0
  -27.5860  -13.4040   19.6680 C   0  0  0  0  0  3  0  0  0  0  0  0
  -28.6470  -13.6220   20.7680 C   0  0  0  0  0  2  0  0  0  0  0  0
  -29.8420  -14.2040   20.1260 N   0  0  0  0  0  0  0  0  0  0  0  0
  -31.5430  -15.5610   19.8940 O   0  0  0  0  0  0  0  0  0  0  0  0
  -25.2350  -13.9140   20.4940 C   0  0  0  0  0  0  0  0  0  0  0  0
  -24.1910  -13.1210   20.8740 C   0  0  0  0  0  0  0  0  0  0  0  0
  -24.6710  -11.7750   20.8140 C   0  0  0  0  0  0  0  0  0  0  0  0
  -26.2800  -13.0550   20.2090 N   0  0  0  0  0  0  0  0  0  0  0  0
  -25.9560  -11.7600   20.4710 N   0  0  0  0  0  0  0  0  0  0  0  0
  -23.9580  -10.5040   21.0020 C   0  0  0  0  0  0  0  0  0  0  0  0
  -24.4000   -9.5390   21.9350 C   0  0  0  0  0  3  0  0  0  0  0  0
  -23.6830   -8.3350   22.1130 C   0  0  0  0  0  3  0  0  0  0  0  0
  -22.5110   -8.0880   21.3600 C   0  0  0  0  0  0  0  0  0  0  0  0
  -22.0890   -9.0420   20.4160 C   0  0  0  0  0  3  0  0  0  0  0  0
  -22.8060  -10.2360   20.2370 C   0  0  0  0  0  3  0  0  0  0  0  0
  -21.7660   -6.9370   21.4460 O   0  0  0  0  0  0  0  0  0  0  0  0
  -21.6980   -6.2090   22.6080 C   0  0  0  0  0  0  0  0  0  0  0  0
  -21.2190   -6.7710   23.8110 C   0  0  0  0  0  3  0  0  0  0  0  0
  -21.1000   -5.9690   24.9640 C   0  0  0  0  0  3  0  0  0  0  0  0
  -21.4490   -4.6070   24.9140 C   0  0  0  0  0  0  0  0  0  0  0  0
  -21.9220   -4.0440   23.7150 C   0  0  0  0  0  3  0  0  0  0  0  0
  -22.0420   -4.8430   22.5650 C   0  0  0  0  0  0  0  0  0  0  0  0
  -22.4770   -4.2910   21.4070 F   0  0  0  0  0  0  0  0  0  0  0  0
  -21.3290   -3.8340   26.0190 F   0  0  0  0  0  0  0  0  0  0  0  0
  -22.7950  -13.5810   21.1780 C   0  0  0  0  0  0  0  0  0  0  0  0
  -22.0940  -12.8740   22.0570 N   0  0  0  0  0  0  0  0  0  0  0  0
  -22.3360  -14.6040   20.6710 O   0  0  0  0  0  0  0  0  0  0  0  0
  -22.4790  -12.0460   22.4880 H   0  0  0  0  0  0  0  0  0  0  0  0
  -21.1580  -13.1650   22.3030 H   0  0  0  0  0  0  0  0  0  0  0  0
  -25.3810  -15.2890   20.3360 N   0  0  0  0  0  0  0  0  0  0  0  0
  -24.6130  -15.9350   20.4860 H   0  0  0  0  0  0  0  0  0  0  0  0
  -26.2230  -15.7460   20.0100 H   0  0  0  0  0  0  0  0  0  0  0  0
  -28.0020  -23.9990   20.1980 C   0  0  0  0  0  3  0  0  0  0  0  0
  -28.2060  -25.7070   20.2860 O   0  0  0  0  0  0  0  0  0  0  0  0
  -24.6640  -31.8720   23.2100 C   0  0  0  0  0  0  0  0  0  0  0  0
  -27.2150  -26.8710   20.2280 C   0  0  0  0  0  0  0  0  0  0  0  0
  -23.4840  -30.4820   21.5600 C   0  0  0  0  0  3  0  0  0  0  0  0
  -24.9390  -28.8470   20.1550 C   0  0  0  0  0  0  0  0  0  0  0  0
  -26.0590  -30.6450   21.4500 C   0  0  0  0  0  2  0  0  0  0  0  0
  -26.1270  -29.2220   20.7930 C   0  0  0  0  0  0  0  0  0  0  0  0
  -27.2550  -28.2600   20.7970 C   0  0  0  0  0  3  0  0  0  0  0  0
  -25.9920  -26.6810   19.5400 C   0  0  0  0  0  3  0  0  0  0  0  0
  -24.9040  -27.6020   19.5060 C   0  0  0  0  0  3  0  0  0  0  0  0
  -23.7290  -29.7900   20.1890 C   0  0  0  0  0  2  0  0  0  0  0  0
  -24.7580  -31.0300   22.1260 N   0  0  0  0  0  0  0  0  0  0  0  0
  -23.5690  -32.1710   23.7160 O   0  0  0  0  0  0  0  0  0  0  0  0
  -22.7640  -29.4980   22.5220 C   0  0  0  0  0  0  0  0  0  0  0  0
  -21.4320  -29.3530   22.3930 N   0  0  0  0  0  0  0  0  0  0  0  0
  -23.4150  -28.8630   23.3560 O   0  0  0  0  0  0  0  0  0  0  0  0
  -20.9570  -29.9160   21.7000 H   0  0  0  0  0  0  0  0  0  0  0  0
  -18.0300  -28.1820   22.8990 C   0  0  0  0  0  0  0  0  0  0  0  0
  -20.5940  -28.4200   23.1580 C   0  0  0  0  0  3  0  0  0  0  0  0
  -20.6780  -26.9920   22.5720 C   0  0  0  0  0  2  0  0  0  0  0  0
  -19.5720  -26.6890   21.5570 C   0  0  0  0  0  2  0  0  0  0  0  0
  -18.1930  -26.8400   22.2050 C   0  0  0  0  0  2  0  0  0  0  0  0
  -19.1580  -28.9310   23.3310 C   0  0  0  0  0  0  0  0  0  0  0  0
  -18.9490  -30.1850   23.9460 C   0  0  0  0  0  3  0  0  0  0  0  0
  -17.6480  -30.6910   24.1270 C   0  0  0  0  0  3  0  0  0  0  0  0
  -16.5360  -29.9410   23.7070 C   0  0  0  0  0  3  0  0  0  0  0  0
  -16.7280  -28.6870   23.1000 C   0  0  0  0  0  3  0  0  0  0  0  0
  -25.9270  -32.5140   23.8610 C   0  0  0  0  0  3  0  0  0  0  0  0
  -26.4110  -31.7500   25.1550 C   0  0  1  0  0  0  0  0  0  0  0  0
  -25.2960  -31.5280   26.2030 C   0  0  0  0  0  1  0  0  0  0  0  0
  -26.9940  -30.3650   24.7950 C   0  0  0  0  0  1  0  0  0  0  0  0
  -27.5540  -32.5430   25.8340 C   0  0  0  0  0  1  0  0  0  0  0  0
  -25.6070  -33.9150   24.1960 N   0  0  0  0  0  0  0  0  0  0  0  0
  -25.9220  -34.9790   23.4450 C   0  0  0  0  0  0  0  0  0  0  0  0
  -26.5720  -34.8850   22.4010 O   0  0  0  0  0  0  0  0  0  0  0  0
  -25.0250  -34.0610   25.0080 H   0  0  0  0  0  0  0  0  0  0  0  0
  -24.1700  -36.7690   23.1660 C   0  0  0  0  0  1  0  0  0  0  0  0
  -25.4440  -36.3670   23.9260 C   0  0  0  0  0  3  0  0  0  0  0  0
  -27.6010  -37.2730   24.6790 C   0  0  0  0  0  1  0  0  0  0  0  0
  -26.4640  -37.4280   23.7740 N   0  0  0  0  0  0  0  0  0  0  0  0
  -26.0570  -38.3460   23.9320 H   0  0  0  0  0  0  0  0  0  0  0  0
  1  2  1  0
  2  3  2  0
  3  4  1  0
  6  5  1  0
  6  2  1  0
  6  7  1  0
  8  7  1  0
  9 14  1  0
 10 11  1  0
 10  9  1  0
 12 11  1  0
 12 19  1  0
 12 13  1  0
 14  8  1  0
 14 13  1  0
 15  8  2  0
 16 17  2  0
 17 36  1  0
 18 17  1  0
 18 21  1  0
 19 20  1  0
 19 16  1  0
 20 18  2  0
 21 22  1  0
 22 23  2  0
 24 27  1  0
 24 23  1  0
 25 24  2  0
 26 25  1  0
 26 21  2  0
 27 28  1  0
 28 29  1  0
 29 30  2  0
 31 30  1  0
 31 35  1  0
 32 31  2  0
 33 28  2  0
 33 32  1  0
 34 33  1  0
 36 37  1  0
 37 40  1  0
 37 39  1  0
 38 36  2  0
 41 42  1  0
 41 16  1  0
 43 41  1  0
 44  1  2  0
 44 45  1  0
 46 57  2  0
 47 45  1  0
 47 52  1  0
 48 56  1  0
 48 58  1  0
 49 55  1  0
 49 51  1  0
 50 56  1  0
 51 52  2  0
 51 50  1  0
 53 47  2  0
 54 53  1  0
 54 49  2  0
 55 48  1  0
 56 46  1  0
 58 60  2  0
 59 58  1  0
 61 59  1  0
 62 71  2  0
 62 67  1  0
 63 59  1  0
 63 67  1  0
 64 63  1  0
 65 66  1  0
 65 64  1  0
 66 62  1  0
 67 68  2  0
 68 69  1  0
 70 69  2  0
 71 70  1  0
 72 46  1  0
 72 77  1  0
 72 73  1  0
 73 76  1  1
 73 74  1  0
 75 73  1  0
 77 80  1  0
 78 82  1  0
 78 77  1  0
 79 78  2  0
 82 81  1  0
 84 82  1  0
 84 85  1  0
 84 83  1  0
M  ISO  4   7 100   8 100  44 101  45 101
M  END
>  <TORSDO>  (72) 
F 20

>  <SCORE>  (72) 
-16.560

>  <name>  (72) 
71

>  <ligand_id>  (72) 
71

>  <original_smiles>  (72) 
[H]N=C(C([H])([H])C([H])([H])Oc1c([H])c([H])c2c(c1[H])C([H])([H])N(C(=O)C([H])(N([H])C(=O)C([H])(N([H])C([H])([H])[H])C([H])([H])[H])C(C([H])([H])[H])(C([H])([H])[H])C([H])([H])[H])C([H])(C(=O)N([H])C1([H])c3c([H])c([H])c([H])c([H])c3C([H])([H])C([H])([H])C1([H])[H])C2([H])[H])C([H])(C([H])([H])[H])C([H])([H])C(=O)N1C([H])([H])C([H])([H])C([H])([H])C([H])(n2nc(-c3c([H])c([H])c(Oc4c([H])c([H])c(F)c([H])c4F)c([H])c3[H])c(C(=O)N([H])[H])c2N([H])[H])C1([H])[H]

>  <smiles>  (72) 
[H]N=C(C([H])([H])C([H])([H])Oc1c([H])c([H])c2c(c1[H])C([H])([H])N(C(=O)C([H])(N([H])C(=O)C([H])(N([H])C([H])([H])[H])C([H])([H])[H])C(C([H])([H])[H])(C([H])([H])[H])C([H])([H])[H])C([H])(C(=O)N([H])C1([H])c3c([H])c([H])c([H])c([H])c3C([H])([H])C([H])([H])C1([H])[H])C2([H])[H])C([H])(C([H])([H])[H])C([H])([H])C(=O)N1C([H])([H])C([H])([H])C([H])([H])C([H])(n2nc(-c3c([H])c([H])c(Oc4c([H])c([H])c(F)c([H])c4F)c([H])c3[H])c(C(=O)N([H])[H])c2N([H])[H])C1([H])[H]

$$$$
72:0:0
     RDKit          3D

 91 99  0  0  1  0  0  0  0  0999 V2000
  -27.8890  -21.7040   18.9100 C   0  0  0  0  0  3  0  0  0  0  0  0
  -29.4790  -21.9270   20.6950 C   0  0  0  0  0  3  0  0  0  0  0  0
  -27.7800  -23.1150   18.8090 C   0  0  0  0  0  3  0  0  0  0  0  0
  -29.3820  -23.3540   20.5850 C   0  0  0  0  0  3  0  0  0  0  0  0
  -28.7610  -21.0560   19.8250 C   0  0  0  0  0  0  0  0  0  0  0  0
  -28.5460  -23.9840   19.6180 C   0  0  0  0  0  0  0  0  0  0  0  0
  -28.8700  -19.4820   19.6870 C   0  0  0  0  0  2  0  0  0  0  0  0
  -29.6790  -18.4230   20.5810 C   0  0  0  0  0  3  0  0  0  0  0  0
  -31.9810  -19.4520   19.9330 C   0  0  0  0  0  1  0  0  0  0  0  0
  -31.0810  -18.8860   21.0500 C   0  0  0  0  0  2  0  0  0  0  0  0
  -29.7970  -16.9990   19.8500 C   0  0  0  0  0  2  0  0  0  0  0  0
  -30.5830  -14.6170   20.3930 C   0  0  0  0  0  0  0  0  0  0  0  0
  -30.3590  -12.3650   19.3730 C   0  0  0  0  0  2  0  0  0  0  0  0
  -29.4320  -12.5090   18.1440 C   0  0  0  0  0  2  0  0  0  0  0  0
  -27.9530  -12.3810   18.5610 C   0  0  0  0  0  2  0  0  0  0  0  0
  -27.5990  -13.2410   19.8040 C   0  0  0  0  0  3  0  0  0  0  0  0
  -28.6480  -13.0820   20.9280 C   0  0  0  0  0  2  0  0  0  0  0  0
  -29.9610  -13.3990   20.3550 N   0  0  0  0  0  0  0  0  0  0  0  0
  -31.7440  -14.7560   19.9960 O   0  0  0  0  0  0  0  0  0  0  0  0
  -29.7840  -15.7070   20.6280 N   0  0  0  0  0  0  0  0  0  0  0  0
  -28.8860  -15.4760   21.0280 H   0  0  0  0  0  0  0  0  0  0  0  0
  -25.2030  -13.8550   20.4960 C   0  0  0  0  0  0  0  0  0  0  0  0
  -24.1300  -13.0860   20.8580 C   0  0  0  0  0  0  0  0  0  0  0  0
  -24.5890  -11.7320   20.8400 C   0  0  0  0  0  0  0  0  0  0  0  0
  -26.2450  -12.9680   20.2770 N   0  0  0  0  0  0  0  0  0  0  0  0
  -25.8810  -11.6880   20.5430 N   0  0  0  0  0  0  0  0  0  0  0  0
  -23.8570  -10.4750   21.0330 C   0  0  0  0  0  0  0  0  0  0  0  0
  -24.2830   -9.5100   21.9720 C   0  0  0  0  0  3  0  0  0  0  0  0
  -23.5550   -8.3130   22.1520 C   0  0  0  0  0  3  0  0  0  0  0  0
  -22.3830   -8.0780   21.3910 C   0  0  0  0  0  0  0  0  0  0  0  0
  -21.9770   -9.0290   20.4400 C   0  0  0  0  0  3  0  0  0  0  0  0
  -22.7080  -10.2160   20.2590 C   0  0  0  0  0  3  0  0  0  0  0  0
  -21.6220   -6.9380   21.4830 O   0  0  0  0  0  0  0  0  0  0  0  0
  -21.5660   -6.1990   22.6360 C   0  0  0  0  0  0  0  0  0  0  0  0
  -21.1490   -6.7600   23.8630 C   0  0  0  0  0  3  0  0  0  0  0  0
  -21.0430   -5.9480   25.0090 C   0  0  0  0  0  3  0  0  0  0  0  0
  -21.3420   -4.5760   24.9300 C   0  0  0  0  0  0  0  0  0  0  0  0
  -21.7520   -4.0130   23.7080 C   0  0  0  0  0  3  0  0  0  0  0  0
  -21.8610   -4.8220   22.5650 C   0  0  0  0  0  0  0  0  0  0  0  0
  -22.2390   -4.2720   21.3850 F   0  0  0  0  0  0  0  0  0  0  0  0
  -21.2330   -3.7920   26.0270 F   0  0  0  0  0  0  0  0  0  0  0  0
  -22.7330  -13.5660   21.1160 C   0  0  0  0  0  0  0  0  0  0  0  0
  -21.9970  -12.8720   21.9760 N   0  0  0  0  0  0  0  0  0  0  0  0
  -22.2980  -14.5890   20.5890 O   0  0  0  0  0  0  0  0  0  0  0  0
  -22.3590  -12.0390   22.4160 H   0  0  0  0  0  0  0  0  0  0  0  0
  -21.0570  -13.1730   22.1890 H   0  0  0  0  0  0  0  0  0  0  0  0
  -25.3760  -15.2240   20.3110 N   0  0  0  0  0  0  0  0  0  0  0  0
  -24.6130  -15.8880   20.4030 H   0  0  0  0  0  0  0  0  0  0  0  0
  -26.2180  -15.6440   19.9440 H   0  0  0  0  0  0  0  0  0  0  0  0
  -28.6220  -25.5080   19.2470 C   0  0  0  0  0  2  0  0  0  0  0  0
  -28.3650  -26.5540   20.2330 O   0  0  0  0  0  0  0  0  0  0  0  0
  -24.5910  -31.8690   23.2390 C   0  0  0  0  0  0  0  0  0  0  0  0
  -27.2140  -27.3440   20.1720 C   0  0  0  0  0  0  0  0  0  0  0  0
  -23.3810  -30.4650   21.6040 C   0  0  0  0  0  3  0  0  0  0  0  0
  -24.8300  -28.9150   20.1780 C   0  0  0  0  0  0  0  0  0  0  0  0
  -25.9120  -30.8000   21.4030 C   0  0  0  0  0  2  0  0  0  0  0  0
  -25.9950  -29.4180   20.7680 C   0  0  0  0  0  0  0  0  0  0  0  0
  -27.1840  -28.6400   20.7650 C   0  0  0  0  0  3  0  0  0  0  0  0
  -26.0220  -26.8700   19.5790 C   0  0  0  0  0  3  0  0  0  0  0  0
  -24.8420  -27.6410   19.5820 C   0  0  0  0  0  3  0  0  0  0  0  0
  -23.5910  -29.7860   20.2250 C   0  0  0  0  0  2  0  0  0  0  0  0
  -24.6480  -31.0610   22.1410 N   0  0  0  0  0  0  0  0  0  0  0  0
  -23.5090  -32.1470   23.7770 O   0  0  0  0  0  0  0  0  0  0  0  0
  -22.7220  -29.4500   22.5670 C   0  0  0  0  0  0  0  0  0  0  0  0
  -21.3970  -29.2750   22.4440 N   0  0  0  0  0  0  0  0  0  0  0  0
  -23.4020  -28.8250   23.3860 O   0  0  0  0  0  0  0  0  0  0  0  0
  -20.9070  -29.8320   21.7560 H   0  0  0  0  0  0  0  0  0  0  0  0
  -18.0200  -28.0810   22.9460 C   0  0  0  0  0  0  0  0  0  0  0  0
  -20.5790  -28.3410   23.2190 C   0  0  0  0  0  3  0  0  0  0  0  0
  -20.6820  -26.9070   22.6510 C   0  0  0  0  0  2  0  0  0  0  0  0
  -19.5810  -26.5790   21.6380 C   0  0  0  0  0  2  0  0  0  0  0  0
  -18.1980  -26.7270   22.2780 C   0  0  0  0  0  2  0  0  0  0  0  0
  -19.1380  -28.8440   23.3730 C   0  0  0  0  0  0  0  0  0  0  0  0
  -18.9180  -30.1100   23.9580 C   0  0  0  0  0  3  0  0  0  0  0  0
  -17.6130  -30.6120   24.1180 C   0  0  0  0  0  3  0  0  0  0  0  0
  -16.5090  -29.8460   23.7060 C   0  0  0  0  0  3  0  0  0  0  0  0
  -16.7140  -28.5820   23.1240 C   0  0  0  0  0  3  0  0  0  0  0  0
  -25.8750  -32.5020   23.8560 C   0  0  0  0  0  3  0  0  0  0  0  0
  -25.5680  -33.9020   24.1820 N   0  0  0  0  0  0  0  0  0  0  0  0
  -25.9030  -34.9520   23.4210 C   0  0  0  0  0  0  0  0  0  0  0  0
  -26.5760  -34.8450   22.3920 O   0  0  0  0  0  0  0  0  0  0  0  0
  -24.9650  -34.0580   24.9780 H   0  0  0  0  0  0  0  0  0  0  0  0
  -24.1780  -36.7480   23.0580 C   0  0  0  0  0  1  0  0  0  0  0  0
  -25.4170  -36.3420   23.8740 C   0  0  0  0  0  3  0  0  0  0  0  0
  -27.5560  -37.2200   24.7020 C   0  0  0  0  0  1  0  0  0  0  0  0
  -26.4500  -37.3960   23.7650 N   0  0  0  0  0  0  0  0  0  0  0  0
  -26.0430  -38.3140   23.9260 H   0  0  0  0  0  0  0  0  0  0  0  0
  -26.3930  -31.7330   25.1320 C   0  0  1  0  0  0  0  0  0  0  0  0
  -25.3020  -31.4960   26.2020 C   0  0  0  0  0  1  0  0  0  0  0  0
  -26.9750  -30.3530   24.7390 C   0  0  0  0  0  1  0  0  0  0  0  0
  -27.5490  -32.5240   25.7910 C   0  0  0  0  0  1  0  0  0  0  0  0
  1  5  1  0
  3  1  2  0
  3  6  1  0
  4  2  1  0
  5  2  2  0
  6  4  2  0
  7  5  1  0
  8  7  1  0
  8 10  1  0
  9 10  1  0
 11  8  1  0
 11 20  1  0
 12 20  1  0
 13 18  1  0
 14 15  1  0
 14 13  1  0
 16 15  1  0
 16 25  1  0
 16 17  1  0
 18 12  1  0
 18 17  1  0
 19 12  2  0
 20 21  1  0
 22 23  2  0
 23 42  1  0
 24 23  1  0
 24 27  1  0
 25 22  1  0
 25 26  1  0
 26 24  2  0
 27 28  1  0
 28 29  2  0
 30 33  1  0
 30 29  1  0
 31 30  2  0
 32 31  1  0
 32 27  2  0
 33 34  1  0
 34 35  1  0
 35 36  2  0
 37 36  1  0
 37 41  1  0
 38 37  2  0
 39 34  2  0
 39 38  1  0
 40 39  1  0
 42 43  1  0
 43 46  1  0
 43 45  1  0
 44 42  2  0
 47 48  1  0
 47 22  1  0
 49 47  1  0
 50  6  1  0
 50 51  1  0
 52 63  2  0
 53 51  1  0
 53 58  1  0
 54 62  1  0
 54 64  1  0
 55 61  1  0
 55 57  1  0
 56 62  1  0
 57 56  1  0
 58 57  2  0
 59 60  1  0
 59 53  2  0
 60 55  2  0
 61 54  1  0
 62 52  1  0
 64 66  2  0
 65 64  1  0
 67 65  1  0
 68 77  2  0
 68 73  1  0
 69 65  1  0
 69 73  1  0
 70 69  1  0
 71 72  1  0
 71 70  1  0
 72 68  1  0
 73 74  2  0
 74 75  1  0
 76 75  2  0
 77 76  1  0
 78 52  1  0
 78 79  1  0
 78 88  1  0
 79 82  1  0
 80 84  1  0
 80 79  1  0
 81 80  2  0
 84 83  1  0
 86 84  1  0
 86 87  1  0
 86 85  1  0
 88 91  1  1
 88 89  1  0
 90 88  1  0
M  ISO  4  12 100  20 100  50 101  51 101
M  END
>  <TORSDO>  (73) 
F 21

>  <SCORE>  (73) 
-13.532

>  <name>  (73) 
72

>  <ligand_id>  (73) 
72

>  <original_smiles>  (73) 
[H]c1c([H])c([H])c2c(c1[H])C([H])([H])C([H])([H])C([H])([H])C2([H])N([H])C(=O)C1([H])N(C(=O)C([H])(N([H])C(=O)C([H])(N([H])C([H])([H])[H])C([H])([H])[H])C(C([H])([H])[H])(C([H])([H])[H])C([H])([H])[H])C([H])([H])c2c([H])c(OC([H])([H])c3c([H])c([H])c(C([H])([H])C([H])(C([H])([H])N([H])C(=O)N4C([H])([H])C([H])([H])C([H])([H])C([H])(n5nc(-c6c([H])c([H])c(Oc7c([H])c([H])c(F)c([H])c7F)c([H])c6[H])c(C(=O)N([H])[H])c5N([H])[H])C4([H])[H])C([H])([H])C([H])([H])[H])c([H])c3[H])c([H])c([H])c2C1([H])[H]

>  <smiles>  (73) 
[H]c1c([H])c([H])c2c(c1[H])C([H])([H])C([H])([H])C([H])([H])C2([H])N([H])C(=O)C1([H])N(C(=O)C([H])(N([H])C(=O)C([H])(N([H])C([H])([H])[H])C([H])([H])[H])C(C([H])([H])[H])(C([H])([H])[H])C([H])([H])[H])C([H])([H])c2c([H])c(OC([H])([H])c3c([H])c([H])c(C([H])([H])C([H])(C([H])([H])N([H])C(=O)N4C([H])([H])C([H])([H])C([H])([H])C([H])(n5nc(-c6c([H])c([H])c(Oc7c([H])c([H])c(F)c([H])c7F)c([H])c6[H])c(C(=O)N([H])[H])c5N([H])[H])C4([H])[H])C([H])([H])C([H])([H])[H])c([H])c3[H])c([H])c([H])c2C1([H])[H]

$$$$
73:0:0
     RDKit          3D

 90 98  0  0  1  0  0  0  0  0999 V2000
  -28.6900  -21.0060   20.1280 N   0  0  0  0  0  4  0  0  0  0  0  0
  -27.7420  -20.8740   20.4440 H   0  0  0  0  0  0  0  0  0  0  0  0
  -28.6140  -20.9930   19.1240 H   0  0  0  0  0  0  0  0  0  0  0  0
  -30.5340  -15.7130   20.3470 C   0  0  0  0  0  0  0  0  0  0  0  0
  -30.5530  -13.2430   19.4620 C   0  0  0  0  0  2  0  0  0  0  0  0
  -29.6790  -12.9380   18.2210 C   0  0  0  0  0  2  0  0  0  0  0  0
  -28.2430  -12.6010   18.6470 C   0  0  0  0  0  2  0  0  0  0  0  0
  -27.7290  -13.5680   19.7410 C   0  0  0  0  0  3  0  0  0  0  0  0
  -28.7480  -13.8270   20.8750 C   0  0  0  0  0  2  0  0  0  0  0  0
  -29.9440  -14.4030   20.2360 N   0  0  0  0  0  0  0  0  0  0  0  0
  -31.7600  -15.6220   20.1650 O   0  0  0  0  0  0  0  0  0  0  0  0
  -28.7270  -18.0080   20.7990 C   0  0  0  0  0  2  0  0  0  0  0  0
  -29.4310  -19.4960   20.5340 C   0  0  0  0  0  3  0  0  0  0  0  0
  -30.3350  -18.4680   19.6020 C   0  0  0  0  0  3  0  0  0  0  0  0
  -29.9040  -17.1070   20.2790 N   0  0  0  0  0  0  0  0  0  0  0  0
  -25.3440  -14.0550   20.4660 C   0  0  0  0  0  0  0  0  0  0  0  0
  -24.2950  -13.2510   20.8130 C   0  0  0  0  0  0  0  0  0  0  0  0
  -24.7970  -11.9120   20.7890 C   0  0  0  0  0  0  0  0  0  0  0  0
  -26.4100  -13.2070   20.2380 N   0  0  0  0  0  0  0  0  0  0  0  0
  -26.0960  -11.9110   20.5030 N   0  0  0  0  0  0  0  0  0  0  0  0
  -24.0970  -10.6320   20.9660 C   0  0  0  0  0  0  0  0  0  0  0  0
  -24.5160   -9.6840   21.9240 C   0  0  0  0  0  3  0  0  0  0  0  0
  -23.8120   -8.4720   22.0890 C   0  0  0  0  0  3  0  0  0  0  0  0
  -22.6720   -8.2000   21.2940 C   0  0  0  0  0  0  0  0  0  0  0  0
  -22.2720   -9.1370   20.3260 C   0  0  0  0  0  3  0  0  0  0  0  0
  -22.9780  -10.3410   20.1600 C   0  0  0  0  0  3  0  0  0  0  0  0
  -21.9420   -7.0380   21.3660 O   0  0  0  0  0  0  0  0  0  0  0  0
  -21.8400   -6.3220   22.5320 C   0  0  0  0  0  0  0  0  0  0  0  0
  -21.3280   -6.8940   23.7170 C   0  0  0  0  0  3  0  0  0  0  0  0
  -21.1780   -6.1040   24.8740 C   0  0  0  0  0  3  0  0  0  0  0  0
  -21.5300   -4.7410   24.8460 C   0  0  0  0  0  0  0  0  0  0  0  0
  -22.0350   -4.1680   23.6660 C   0  0  0  0  0  3  0  0  0  0  0  0
  -22.1860   -4.9550   22.5110 C   0  0  0  0  0  0  0  0  0  0  0  0
  -22.6540   -4.3940   21.3700 F   0  0  0  0  0  0  0  0  0  0  0  0
  -21.3780   -3.9780   25.9540 F   0  0  0  0  0  0  0  0  0  0  0  0
  -22.8820  -13.6940   21.0510 C   0  0  0  0  0  0  0  0  0  0  0  0
  -22.1580  -12.9940   21.9160 N   0  0  0  0  0  0  0  0  0  0  0  0
  -22.4280  -14.6990   20.5040 O   0  0  0  0  0  0  0  0  0  0  0  0
  -22.5390  -12.1820   22.3780 H   0  0  0  0  0  0  0  0  0  0  0  0
  -21.2080  -13.2740   22.1180 H   0  0  0  0  0  0  0  0  0  0  0  0
  -25.4800  -15.4290   20.2910 N   0  0  0  0  0  0  0  0  0  0  0  0
  -24.7000  -16.0700   20.3860 H   0  0  0  0  0  0  0  0  0  0  0  0
  -26.3280  -15.8800   19.9740 H   0  0  0  0  0  0  0  0  0  0  0  0
  -30.9880  -17.2310   17.4690 C   0  0  0  0  0  1  0  0  0  0  0  0
  -30.1560  -18.3830   18.0650 C   0  0  0  0  0  3  0  0  0  0  0  0
  -28.4640  -18.4860   16.0960 C   0  0  0  0  0  1  0  0  0  0  0  0
  -28.6770  -18.2980   17.6060 C   0  0  0  0  0  2  0  0  0  0  0  0
  -28.9560  -22.6580   20.5170 C   0  0  0  0  0  3  0  0  0  0  0  0
  -28.0210  -24.2480   20.1740 C   0  0  0  0  0  3  0  0  0  0  0  0
  -28.2060  -25.9300   20.4180 O   0  0  0  0  0  0  0  0  0  0  0  0
  -24.6660  -32.0580   23.3360 C   0  0  0  0  0  0  0  0  0  0  0  0
  -27.2150  -27.0830   20.3400 C   0  0  0  0  0  0  0  0  0  0  0  0
  -23.4800  -30.6580   21.6970 C   0  0  0  0  0  3  0  0  0  0  0  0
  -24.9320  -29.0330   20.2820 C   0  0  0  0  0  0  0  0  0  0  0  0
  -26.0540  -30.8390   21.5680 C   0  0  0  0  0  2  0  0  0  0  0  0
  -26.1230  -29.4180   20.9120 C   0  0  0  0  0  0  0  0  0  0  0  0
  -27.2550  -28.4670   20.9120 C   0  0  0  0  0  3  0  0  0  0  0  0
  -25.9940  -26.8790   19.6580 C   0  0  0  0  0  3  0  0  0  0  0  0
  -24.9000  -27.7890   19.6310 C   0  0  0  0  0  3  0  0  0  0  0  0
  -23.7180  -29.9680   20.3240 C   0  0  0  0  0  2  0  0  0  0  0  0
  -24.7570  -31.2150   22.2540 N   0  0  0  0  0  0  0  0  0  0  0  0
  -23.5730  -32.3540   23.8470 O   0  0  0  0  0  0  0  0  0  0  0  0
  -22.7730  -29.6720   22.6660 C   0  0  0  0  0  0  0  0  0  0  0  0
  -21.4460  -29.4970   22.5240 N   0  0  0  0  0  0  0  0  0  0  0  0
  -23.4300  -29.0610   23.5130 O   0  0  0  0  0  0  0  0  0  0  0  0
  -20.9680  -30.0410   21.8180 H   0  0  0  0  0  0  0  0  0  0  0  0
  -18.0710  -28.2380   22.9860 C   0  0  0  0  0  0  0  0  0  0  0  0
  -20.6210  -28.5570   23.2930 C   0  0  0  0  0  3  0  0  0  0  0  0
  -20.7570  -27.1170   22.7430 C   0  0  0  0  0  2  0  0  0  0  0  0
  -19.6820  -26.7600   21.7130 C   0  0  0  0  0  2  0  0  0  0  0  0
  -18.2850  -26.8860   22.3280 C   0  0  0  0  0  2  0  0  0  0  0  0
  -19.1670  -29.0310   23.4240 C   0  0  0  0  0  0  0  0  0  0  0  0
  -18.9090  -30.2920   24.0020 C   0  0  0  0  0  3  0  0  0  0  0  0
  -17.5900  -30.7650   24.1420 C   0  0  0  0  0  3  0  0  0  0  0  0
  -16.5100  -29.9720   23.7150 C   0  0  0  0  0  3  0  0  0  0  0  0
  -16.7510  -28.7100   23.1450 C   0  0  0  0  0  3  0  0  0  0  0  0
  -25.9300  -32.7050   23.9770 C   0  0  0  0  0  3  0  0  0  0  0  0
  -26.4160  -31.9550   25.2810 C   0  0  1  0  0  0  0  0  0  0  0  0
  -25.2970  -31.7310   26.3260 C   0  0  0  0  0  1  0  0  0  0  0  0
  -27.0120  -30.5730   24.9330 C   0  0  0  0  0  1  0  0  0  0  0  0
  -27.5490  -32.7630   25.9570 C   0  0  0  0  0  1  0  0  0  0  0  0
  -25.6130  -34.1100   24.2970 N   0  0  0  0  0  0  0  0  0  0  0  0
  -25.9320  -35.1640   23.5330 C   0  0  0  0  0  0  0  0  0  0  0  0
  -26.5840  -35.0560   22.4930 O   0  0  0  0  0  0  0  0  0  0  0  0
  -25.0290  -34.2660   25.1040 H   0  0  0  0  0  0  0  0  0  0  0  0
  -24.1790  -36.9500   23.2310 C   0  0  0  0  0  1  0  0  0  0  0  0
  -25.4540  -36.5590   23.9940 C   0  0  0  0  0  3  0  0  0  0  0  0
  -27.6110  -37.4760   24.7310 C   0  0  0  0  0  1  0  0  0  0  0  0
  -26.4740  -37.6170   23.8250 N   0  0  0  0  0  0  0  0  0  0  0  0
  -26.0660  -38.5370   23.9680 H   0  0  0  0  0  0  0  0  0  0  0  0
  1  2  1  0
  1 48  1  0
  3  1  1  0
  5 10  1  0
  6  7  1  0
  6  5  1  0
  8  7  1  0
  8 19  1  0
  8  9  1  0
 10  4  1  0
 10  9  1  0
 11  4  2  0
 13  1  1  0
 13 12  1  0
 14 45  1  0
 14 15  1  0
 14 13  1  0
 15  4  1  0
 15 12  1  0
 16 17  2  0
 17 36  1  0
 18 17  1  0
 18 21  1  0
 19 16  1  0
 19 20  1  0
 20 18  2  0
 21 22  1  0
 22 23  2  0
 24 27  1  0
 24 23  1  0
 25 24  2  0
 26 25  1  0
 26 21  2  0
 27 28  1  0
 28 29  1  0
 29 30  2  0
 31 30  1  0
 31 35  1  0
 32 31  2  0
 33 28  2  0
 33 32  1  0
 34 33  1  0
 36 37  1  0
 37 40  1  0
 37 39  1  0
 38 36  2  0
 41 42  1  0
 41 16  1  0
 43 41  1  0
 45 44  1  0
 46 47  1  0
 47 45  1  0
 49 50  1  0
 49 48  2  0
 51 62  2  0
 52 50  1  0
 52 57  1  0
 53 61  1  0
 53 63  1  0
 54 60  1  0
 54 56  1  0
 55 61  1  0
 56 55  1  0
 57 56  2  0
 58 52  2  0
 59 58  1  0
 59 54  2  0
 60 53  1  0
 61 51  1  0
 63 65  2  0
 64 63  1  0
 66 64  1  0
 67 76  2  0
 67 72  1  0
 68 64  1  0
 68 72  1  0
 69 68  1  0
 70 71  1  0
 70 69  1  0
 71 67  1  0
 72 73  2  0
 73 74  1  0
 75 74  2  0
 76 75  1  0
 77 51  1  0
 77 82  1  0
 77 78  1  0
 78 81  1  1
 78 79  1  0
 80 78  1  0
 82 85  1  0
 83 87  1  0
 83 82  1  0
 84 83  2  0
 87 86  1  0
 89 90  1  0
 89 87  1  0
 89 88  1  0
M  ISO  4   4 100  15 100  49 101  50 101
M  END
>  <TORSDO>  (74) 
F 20

>  <SCORE>  (74) 
-15.133

>  <name>  (74) 
73

>  <ligand_id>  (74) 
73

>  <original_smiles>  (74) 
[H]c1c([H])c([H])c2c(c1[H])C([H])([H])C([H])([H])C([H])([H])C2([H])N([H])C(=O)C1([H])N(C(=O)C([H])(N([H])C(=O)C([H])(N([H])C([H])([H])[H])C([H])([H])[H])C(C([H])([H])[H])(C([H])([H])[H])C([H])([H])[H])C([H])([H])c2c([H])c(OC([H])([H])C([H])([H])[N+]([H])([H])C3([H])C([H])([H])N(C(=O)N4C([H])([H])C([H])([H])C([H])([H])C([H])(n5nc(-c6c([H])c([H])c(Oc7c([H])c([H])c(F)c([H])c7F)c([H])c6[H])c(C(=O)N([H])[H])c5N([H])[H])C4([H])[H])C3([H])C([H])(C([H])([H])[H])C([H])([H])C([H])([H])[H])c([H])c([H])c2C1([H])[H]

>  <smiles>  (74) 
[H]c1c([H])c([H])c2c(c1[H])C([H])([H])C([H])([H])C([H])([H])C2([H])N([H])C(=O)C1([H])N(C(=O)C([H])(N([H])C(=O)C([H])(N([H])C([H])([H])[H])C([H])([H])[H])C(C([H])([H])[H])(C([H])([H])[H])C([H])([H])[H])C([H])([H])c2c([H])c(OC([H])([H])C([H])([H])[N+]([H])([H])C3([H])C([H])([H])N(C(=O)N4C([H])([H])C([H])([H])C([H])([H])C([H])(n5nc(-c6c([H])c([H])c(Oc7c([H])c([H])c(F)c([H])c7F)c([H])c6[H])c(C(=O)N([H])[H])c5N([H])[H])C4([H])[H])C3([H])C([H])(C([H])([H])[H])C([H])([H])C([H])([H])[H])c([H])c([H])c2C1([H])[H]

$$$$
74:0:0
     RDKit          3D

 90 98  0  0  1  0  0  0  0  0999 V2000
  -28.7240  -20.5770   21.2970 C   0  0  0  0  0  2  0  0  0  0  0  0
  -28.7530  -20.5960   19.7760 C   0  0  0  0  0  3  0  0  0  0  0  0
  -29.8360  -19.0120   19.6470 C   0  0  0  0  0  3  0  0  0  0  0  0
  -30.6730  -19.2050   20.9440 C   0  0  0  0  0  3  0  0  0  0  0  0
  -30.1280  -20.3630   21.6830 N   0  0  0  0  0  4  0  0  0  0  0  0
  -30.2010  -20.2140   22.6760 H   0  0  0  0  0  0  0  0  0  0  0  0
  -30.6550  -21.1870   21.4480 H   0  0  0  0  0  0  0  0  0  0  0  0
  -30.4790  -15.9320   19.6180 C   0  0  0  0  0  0  0  0  0  0  0  0
  -30.6060  -13.3690   18.9280 C   0  0  0  0  0  2  0  0  0  0  0  0
  -29.6580  -12.8870   17.7960 C   0  0  0  0  0  2  0  0  0  0  0  0
  -28.2690  -12.5310   18.3520 C   0  0  0  0  0  2  0  0  0  0  0  0
  -27.7920  -13.5730   19.3900 C   0  0  0  0  0  3  0  0  0  0  0  0
  -28.8760  -13.9620   20.4190 C   0  0  0  0  0  2  0  0  0  0  0  0
  -29.9890  -14.5630   19.6530 N   0  0  0  0  0  0  0  0  0  0  0  0
  -31.7060  -15.9110   19.4140 O   0  0  0  0  0  0  0  0  0  0  0  0
  -29.6760  -17.2530   19.6180 N   0  0  0  0  0  0  0  0  0  0  0  0
  -28.6970  -17.0110   19.6760 H   0  0  0  0  0  0  0  0  0  0  0  0
  -25.5000  -14.0840   20.3590 C   0  0  0  0  0  0  0  0  0  0  0  0
  -24.4710  -13.2920   20.7850 C   0  0  0  0  0  0  0  0  0  0  0  0
  -24.9350  -11.9450   20.6730 C   0  0  0  0  0  0  0  0  0  0  0  0
  -26.5190  -13.2210   20.0030 N   0  0  0  0  0  0  0  0  0  0  0  0
  -26.2000  -11.9250   20.2600 N   0  0  0  0  0  0  0  0  0  0  0  0
  -24.2230  -10.6760   20.8780 C   0  0  0  0  0  0  0  0  0  0  0  0
  -24.6620   -9.7250   21.8260 C   0  0  0  0  0  3  0  0  0  0  0  0
  -23.9450   -8.5250   22.0220 C   0  0  0  0  0  3  0  0  0  0  0  0
  -22.7750   -8.2660   21.2670 C   0  0  0  0  0  0  0  0  0  0  0  0
  -22.3560   -9.2040   20.3090 C   0  0  0  0  0  3  0  0  0  0  0  0
  -23.0740  -10.3970   20.1120 C   0  0  0  0  0  3  0  0  0  0  0  0
  -22.0300   -7.1160   21.3710 O   0  0  0  0  0  0  0  0  0  0  0  0
  -21.9240   -6.4310   22.5550 C   0  0  0  0  0  0  0  0  0  0  0  0
  -21.3720   -7.0240   23.7110 C   0  0  0  0  0  3  0  0  0  0  0  0
  -21.2170   -6.2620   24.8870 C   0  0  0  0  0  3  0  0  0  0  0  0
  -21.6030   -4.9080   24.9060 C   0  0  0  0  0  0  0  0  0  0  0  0
  -22.1470   -4.3150   23.7540 C   0  0  0  0  0  3  0  0  0  0  0  0
  -22.3030   -5.0740   22.5800 C   0  0  0  0  0  0  0  0  0  0  0  0
  -22.8080   -4.4900   21.4670 F   0  0  0  0  0  0  0  0  0  0  0  0
  -21.4480   -4.1750   26.0330 F   0  0  0  0  0  0  0  0  0  0  0  0
  -23.0990  -13.7580   21.1720 C   0  0  0  0  0  0  0  0  0  0  0  0
  -22.4400  -13.0440   22.0760 N   0  0  0  0  0  0  0  0  0  0  0  0
  -22.6230  -14.7930   20.7050 O   0  0  0  0  0  0  0  0  0  0  0  0
  -22.8410  -12.2080   22.4740 H   0  0  0  0  0  0  0  0  0  0  0  0
  -21.5210  -13.3380   22.3760 H   0  0  0  0  0  0  0  0  0  0  0  0
  -25.6430  -15.4600   20.2100 N   0  0  0  0  0  0  0  0  0  0  0  0
  -24.8780  -16.1010   20.3890 H   0  0  0  0  0  0  0  0  0  0  0  0
  -26.4420  -15.9080   19.7820 H   0  0  0  0  0  0  0  0  0  0  0  0
  -33.0090  -19.6570   21.9400 C   0  0  0  0  0  1  0  0  0  0  0  0
  -32.1860  -19.3470   20.6790 C   0  0  0  0  0  2  0  0  0  0  0  0
  -28.8510  -22.4940   19.4530 C   0  0  0  0  0  3  0  0  0  0  0  0
  -27.8400  -24.1100   19.7100 C   0  0  0  0  0  3  0  0  0  0  0  0
  -27.9970  -25.8480   19.6870 O   0  0  0  0  0  0  0  0  0  0  0  0
  -24.5360  -31.8700   23.0960 C   0  0  0  0  0  0  0  0  0  0  0  0
  -26.9820  -27.0070   19.7600 C   0  0  0  0  0  0  0  0  0  0  0  0
  -23.2750  -30.5040   21.4870 C   0  0  0  0  0  3  0  0  0  0  0  0
  -24.6640  -28.9520   19.9250 C   0  0  0  0  0  0  0  0  0  0  0  0
  -25.8340  -30.7290   21.2020 C   0  0  0  0  0  2  0  0  0  0  0  0
  -25.8890  -29.3270   20.4890 C   0  0  0  0  0  0  0  0  0  0  0  0
  -27.0330  -28.3830   20.3750 C   0  0  0  0  0  3  0  0  0  0  0  0
  -25.7140  -26.8300   19.1540 C   0  0  0  0  0  3  0  0  0  0  0  0
  -24.6110  -27.7300   19.2320 C   0  0  0  0  0  3  0  0  0  0  0  0
  -23.4400  -29.8650   20.0780 C   0  0  0  0  0  2  0  0  0  0  0  0
  -24.5750  -31.0650   21.9800 N   0  0  0  0  0  0  0  0  0  0  0  0
  -23.4720  -32.1210   23.6890 O   0  0  0  0  0  0  0  0  0  0  0  0
  -22.6500  -29.4720   22.4630 C   0  0  0  0  0  0  0  0  0  0  0  0
  -21.3400  -29.1890   22.3280 N   0  0  0  0  0  0  0  0  0  0  0  0
  -23.3540  -28.9220   23.3130 O   0  0  0  0  0  0  0  0  0  0  0  0
  -20.8160  -29.6860   21.6220 H   0  0  0  0  0  0  0  0  0  0  0  0
  -18.1210  -27.5470   22.7130 C   0  0  0  0  0  0  0  0  0  0  0  0
  -20.5980  -28.1870   23.1050 C   0  0  0  0  0  3  0  0  0  0  0  0
  -20.9310  -26.7540   22.6270 C   0  0  0  0  0  2  0  0  0  0  0  0
  -19.9530  -26.2280   21.5710 C   0  0  0  0  0  2  0  0  0  0  0  0
  -18.5270  -26.2060   22.1250 C   0  0  0  0  0  2  0  0  0  0  0  0
  -19.0930  -28.4830   23.1580 C   0  0  0  0  0  0  0  0  0  0  0  0
  -18.6600  -29.7250   23.6710 C   0  0  0  0  0  3  0  0  0  0  0  0
  -17.2890  -30.0370   23.7400 C   0  0  0  0  0  3  0  0  0  0  0  0
  -16.3320  -29.1030   23.3080 C   0  0  0  0  0  3  0  0  0  0  0  0
  -16.7480  -27.8600   22.8010 C   0  0  0  0  0  3  0  0  0  0  0  0
  -25.8230  -32.5270   23.6790 C   0  0  0  0  0  3  0  0  0  0  0  0
  -26.4050  -31.7490   24.9250 C   0  0  1  0  0  0  0  0  0  0  0  0
  -25.3580  -31.4630   26.0290 C   0  0  0  0  0  1  0  0  0  0  0  0
  -27.0110  -30.3930   24.4990 C   0  0  0  0  0  1  0  0  0  0  0  0
  -27.5580  -32.5630   25.5590 C   0  0  0  0  0  1  0  0  0  0  0  0
  -25.4980  -33.9140   24.0640 N   0  0  0  0  0  0  0  0  0  0  0  0
  -25.8290  -35.0080   23.3640 C   0  0  0  0  0  0  0  0  0  0  0  0
  -26.4980  -34.9550   22.3300 O   0  0  0  0  0  0  0  0  0  0  0  0
  -24.8990  -34.0270   24.8700 H   0  0  0  0  0  0  0  0  0  0  0  0
  -24.1130  -36.8340   23.0940 C   0  0  0  0  0  1  0  0  0  0  0  0
  -25.3450  -36.3760   23.8920 C   0  0  0  0  0  3  0  0  0  0  0  0
  -27.4740  -37.2130   24.7890 C   0  0  0  0  0  1  0  0  0  0  0  0
  -26.3840  -37.4300   23.8410 N   0  0  0  0  0  0  0  0  0  0  0  0
  -25.9800  -38.3440   24.0260 H   0  0  0  0  0  0  0  0  0  0  0  0
  1  5  1  0
  2 48  1  0
  2  1  1  0
  3 16  1  0
  3  2  1  0
  3  4  1  0
  4 47  1  0
  4  5  1  0
  5  6  1  0
  7  5  1  0
  8 14  1  0
  9 14  1  0
 10 11  1  0
 10  9  1  0
 12 11  1  0
 12 21  1  0
 12 13  1  0
 14 13  1  0
 15  8  2  0
 16  8  1  0
 16 17  1  0
 18 19  2  0
 19 38  1  0
 20 19  1  0
 20 23  1  0
 21 22  1  0
 21 18  1  0
 22 20  2  0
 23 24  1  0
 24 25  2  0
 26 29  1  0
 26 25  1  0
 27 26  2  0
 28 27  1  0
 28 23  2  0
 29 30  1  0
 30 35  2  0
 30 31  1  0
 31 32  2  0
 32 33  1  0
 33 37  1  0
 34 33  2  0
 35 34  1  0
 36 35  1  0
 38 39  1  0
 39 42  1  0
 39 41  1  0
 40 38  2  0
 43 18  1  0
 43 44  1  0
 45 43  1  0
 47 46  1  0
 48 49  2  0
 50 49  1  0
 50 52  1  0
 51 62  2  0
 52 57  1  0
 53 61  1  0
 53 63  1  0
 54 60  1  0
 54 56  1  0
 55 61  1  0
 56 55  1  0
 57 56  2  0
 58 59  1  0
 58 52  2  0
 59 54  2  0
 60 53  1  0
 61 51  1  0
 63 65  2  0
 64 63  1  0
 66 64  1  0
 67 76  2  0
 67 72  1  0
 68 64  1  0
 68 72  1  0
 69 68  1  0
 70 71  1  0
 70 69  1  0
 71 67  1  0
 72 73  2  0
 73 74  1  0
 75 74  2  0
 76 75  1  0
 77 51  1  0
 77 82  1  0
 77 78  1  0
 78 81  1  1
 78 79  1  0
 80 78  1  0
 82 85  1  0
 83 87  1  0
 83 82  1  0
 84 83  2  0
 87 86  1  0
 89 87  1  0
 89 90  1  0
 89 88  1  0
M  ISO  4   8 100  16 100  49 101  50 101
M  END
>  <TORSDO>  (75) 
F 19

>  <SCORE>  (75) 
-15.543

>  <name>  (75) 
74

>  <ligand_id>  (75) 
74

>  <original_smiles>  (75) 
[H]c1c([H])c([H])c2c(c1[H])C([H])([H])C([H])([H])C([H])([H])C2([H])N([H])C(=O)C1([H])N(C(=O)C([H])(N([H])C(=O)C([H])(N([H])C([H])([H])[H])C([H])([H])[H])C(C([H])([H])[H])(C([H])([H])[H])C([H])([H])[H])C([H])([H])c2c([H])c(OC([H])([H])C([H])([H])C3([H])C([H])(N([H])C(=O)N4C([H])([H])C([H])([H])C([H])([H])C([H])(n5nc(-c6c([H])c([H])c(Oc7c([H])c([H])c(F)c([H])c7F)c([H])c6[H])c(C(=O)N([H])[H])c5N([H])[H])C4([H])[H])C([H])(C([H])([H])C([H])([H])[H])[N+]([H])([H])C3([H])[H])c([H])c([H])c2C1([H])[H]

>  <smiles>  (75) 
[H]c1c([H])c([H])c2c(c1[H])C([H])([H])C([H])([H])C([H])([H])C2([H])N([H])C(=O)C1([H])N(C(=O)C([H])(N([H])C(=O)C([H])(N([H])C([H])([H])[H])C([H])([H])[H])C(C([H])([H])[H])(C([H])([H])[H])C([H])([H])[H])C([H])([H])c2c([H])c(OC([H])([H])C([H])([H])C3([H])C([H])(N([H])C(=O)N4C([H])([H])C([H])([H])C([H])([H])C([H])(n5nc(-c6c([H])c([H])c(Oc7c([H])c([H])c(F)c([H])c7F)c([H])c6[H])c(C(=O)N([H])[H])c5N([H])[H])C4([H])[H])C([H])(C([H])([H])C([H])([H])[H])[N+]([H])([H])C3([H])[H])c([H])c([H])c2C1([H])[H]

$$$$
75:0:0
     RDKit          3D

 91 99  0  0  1  0  0  0  0  0999 V2000
  -29.0750  -21.1760   19.4650 C   0  0  0  0  0  2  0  0  0  0  0  0
  -29.4490  -22.2590   21.4820 C   0  0  0  0  0  2  0  0  0  0  0  0
  -29.5160  -19.8020   20.4380 C   0  0  0  0  0  3  0  0  0  0  0  0
  -29.2030  -22.8140   20.0420 C   0  0  0  0  0  3  0  0  0  0  0  0
  -30.1540  -20.8030   21.4870 C   0  0  0  0  0  3  0  0  0  0  0  0
  -30.7790  -15.5510   19.9460 C   0  0  0  0  0  0  0  0  0  0  0  0
  -30.6540  -13.1260   19.0010 C   0  0  0  0  0  2  0  0  0  0  0  0
  -29.6710  -12.9710   17.8130 C   0  0  0  0  0  2  0  0  0  0  0  0
  -28.2440  -12.7070   18.3200 C   0  0  0  0  0  2  0  0  0  0  0  0
  -27.8690  -13.6370   19.5000 C   0  0  0  0  0  3  0  0  0  0  0  0
  -28.9770  -13.7410   20.5710 C   0  0  0  0  0  2  0  0  0  0  0  0
  -30.1780  -14.2550   19.8920 N   0  0  0  0  0  0  0  0  0  0  0  0
  -31.9800  -15.5010   19.6400 O   0  0  0  0  0  0  0  0  0  0  0  0
  -30.3970  -18.3040   20.0590 C   0  0  0  0  0  0  0  0  0  0  0  0
  -30.0640  -16.8490   20.1640 N   0  0  0  0  0  0  0  0  0  0  0  0
  -31.5250  -18.5520   19.6280 O   0  0  0  0  0  0  0  0  0  0  0  0
  -29.1070  -16.7030   20.4390 H   0  0  0  0  0  0  0  0  0  0  0  0
  -25.5530  -14.2060   20.3930 C   0  0  0  0  0  0  0  0  0  0  0  0
  -24.4990  -13.4350   20.7940 C   0  0  0  0  0  0  0  0  0  0  0  0
  -24.9410  -12.0790   20.6980 C   0  0  0  0  0  0  0  0  0  0  0  0
  -26.5660  -13.3230   20.0690 N   0  0  0  0  0  0  0  0  0  0  0  0
  -26.2150  -12.0350   20.3190 N   0  0  0  0  0  0  0  0  0  0  0  0
  -24.2020  -10.8230   20.8850 C   0  0  0  0  0  0  0  0  0  0  0  0
  -24.6270   -9.8440   21.8080 C   0  0  0  0  0  3  0  0  0  0  0  0
  -23.8860   -8.6560   21.9860 C   0  0  0  0  0  3  0  0  0  0  0  0
  -22.7030   -8.4380   21.2410 C   0  0  0  0  0  0  0  0  0  0  0  0
  -22.2960   -9.4060   20.3050 C   0  0  0  0  0  3  0  0  0  0  0  0
  -23.0380  -10.5850   20.1250 C   0  0  0  0  0  3  0  0  0  0  0  0
  -21.9330   -7.3040   21.3280 O   0  0  0  0  0  0  0  0  0  0  0  0
  -21.8270   -6.5950   22.4970 C   0  0  0  0  0  0  0  0  0  0  0  0
  -21.3440   -7.1850   23.6850 C   0  0  0  0  0  3  0  0  0  0  0  0
  -21.1850   -6.4020   24.8470 C   0  0  0  0  0  3  0  0  0  0  0  0
  -21.4980   -5.0310   24.8200 C   0  0  0  0  0  0  0  0  0  0  0  0
  -21.9740   -4.4400   23.6360 C   0  0  0  0  0  3  0  0  0  0  0  0
  -22.1340   -5.2200   22.4770 C   0  0  0  0  0  0  0  0  0  0  0  0
  -22.5730   -4.6400   21.3330 F   0  0  0  0  0  0  0  0  0  0  0  0
  -21.3390   -4.2760   25.9330 F   0  0  0  0  0  0  0  0  0  0  0  0
  -23.1250  -13.9270   21.1440 C   0  0  0  0  0  0  0  0  0  0  0  0
  -22.4310  -13.2230   22.0320 N   0  0  0  0  0  0  0  0  0  0  0  0
  -22.6790  -14.9690   20.6660 O   0  0  0  0  0  0  0  0  0  0  0  0
  -22.8060  -12.3800   22.4390 H   0  0  0  0  0  0  0  0  0  0  0  0
  -21.5110  -13.5350   22.3090 H   0  0  0  0  0  0  0  0  0  0  0  0
  -25.7270  -15.5790   20.2460 N   0  0  0  0  0  0  0  0  0  0  0  0
  -24.9660  -16.2320   20.3970 H   0  0  0  0  0  0  0  0  0  0  0  0
  -26.5360  -16.0080   19.8170 H   0  0  0  0  0  0  0  0  0  0  0  0
  -30.2030  -20.2560   22.8590 N   0  0  0  0  0  4  0  0  0  0  0  0
  -29.2820  -20.0680   23.2150 H   0  0  0  0  0  0  0  0  0  0  0  0
  -30.6410  -20.9180   23.4750 H   0  0  0  0  0  0  0  0  0  0  0  0
  -30.7430  -19.4110   22.9030 H   0  0  0  0  0  0  0  0  0  0  0  0
  -28.2010  -24.3280   19.8020 C   0  0  0  0  0  2  0  0  0  0  0  0
  -28.3690  -25.9750   19.9820 O   0  0  0  0  0  0  0  0  0  0  0  0
  -24.6160  -31.7800   23.0700 C   0  0  0  0  0  0  0  0  0  0  0  0
  -27.3260  -27.0500   19.9270 C   0  0  0  0  0  0  0  0  0  0  0  0
  -23.4640  -30.3810   21.4050 C   0  0  0  0  0  3  0  0  0  0  0  0
  -24.9610  -28.8610   19.9350 C   0  0  0  0  0  0  0  0  0  0  0  0
  -26.0210  -30.6820   21.2520 C   0  0  0  0  0  2  0  0  0  0  0  0
  -26.1380  -29.2890   20.5610 C   0  0  0  0  0  0  0  0  0  0  0  0
  -27.3110  -28.4060   20.5330 C   0  0  0  0  0  3  0  0  0  0  0  0
  -26.1150  -26.7810   19.2500 C   0  0  0  0  0  3  0  0  0  0  0  0
  -24.9750  -27.6310   19.2590 C   0  0  0  0  0  3  0  0  0  0  0  0
  -23.7110  -29.7370   20.0110 C   0  0  0  0  0  2  0  0  0  0  0  0
  -24.7210  -30.9750   21.9640 N   0  0  0  0  0  0  0  0  0  0  0  0
  -23.5190  -32.0190   23.6030 O   0  0  0  0  0  0  0  0  0  0  0  0
  -22.8100  -29.3400   22.3510 C   0  0  0  0  0  0  0  0  0  0  0  0
  -21.4850  -29.1300   22.2280 N   0  0  0  0  0  0  0  0  0  0  0  0
  -23.5010  -28.7220   23.1640 O   0  0  0  0  0  0  0  0  0  0  0  0
  -20.9780  -29.6810   21.5500 H   0  0  0  0  0  0  0  0  0  0  0  0
  -18.1570  -27.7650   22.7070 C   0  0  0  0  0  0  0  0  0  0  0  0
  -20.7020  -28.1450   22.9820 C   0  0  0  0  0  3  0  0  0  0  0  0
  -20.8690  -26.7280   22.3850 C   0  0  0  0  0  2  0  0  0  0  0  0
  -19.7850  -26.3710   21.3620 C   0  0  0  0  0  2  0  0  0  0  0  0
  -18.3980  -26.4390   22.0050 C   0  0  0  0  0  2  0  0  0  0  0  0
  -19.2390  -28.5730   23.1510 C   0  0  0  0  0  0  0  0  0  0  0  0
  -18.9580  -29.8090   23.7720 C   0  0  0  0  0  3  0  0  0  0  0  0
  -17.6290  -30.2420   23.9480 C   0  0  0  0  0  3  0  0  0  0  0  0
  -16.5640  -29.4330   23.5180 C   0  0  0  0  0  3  0  0  0  0  0  0
  -16.8290  -28.1970   22.9030 C   0  0  0  0  0  3  0  0  0  0  0  0
  -25.8660  -32.4550   23.7120 C   0  0  0  0  0  3  0  0  0  0  0  0
  -26.3980  -31.6860   24.9860 C   0  0  1  0  0  0  0  0  0  0  0  0
  -25.3080  -31.4060   26.0470 C   0  0  0  0  0  1  0  0  0  0  0  0
  -27.0240  -30.3280   24.5900 C   0  0  0  0  0  1  0  0  0  0  0  0
  -27.5220  -32.5060   25.6600 C   0  0  0  0  0  1  0  0  0  0  0  0
  -25.5000  -33.8370   24.0750 N   0  0  0  0  0  0  0  0  0  0  0  0
  -25.7990  -34.9250   23.3520 C   0  0  0  0  0  0  0  0  0  0  0  0
  -26.4720  -34.8730   22.3190 O   0  0  0  0  0  0  0  0  0  0  0  0
  -24.8980  -33.9470   24.8770 H   0  0  0  0  0  0  0  0  0  0  0  0
  -24.0130  -36.6770   23.0590 C   0  0  0  0  0  1  0  0  0  0  0  0
  -25.2720  -36.2860   23.8520 C   0  0  0  0  0  3  0  0  0  0  0  0
  -27.3790  -37.2210   24.7000 C   0  0  0  0  0  1  0  0  0  0  0  0
  -26.2690  -37.3750   23.7630 N   0  0  0  0  0  0  0  0  0  0  0  0
  -25.8330  -38.2770   23.9340 H   0  0  0  0  0  0  0  0  0  0  0  0
  1  4  1  0
  1  3  1  0
  2  5  1  0
  3 14  1  0
  3  5  1  0
  4 50  1  0
  4  2  1  0
  5 46  1  0
  6 15  1  0
  7 12  1  0
  8  9  1  0
  8  7  1  0
 10  9  1  0
 10 21  1  0
 10 11  1  0
 12  6  1  0
 12 11  1  0
 13  6  2  0
 14 15  1  0
 15 17  1  0
 16 14  2  0
 18 19  2  0
 19 38  1  0
 20 19  1  0
 20 23  1  0
 21 22  1  0
 21 18  1  0
 22 20  2  0
 23 24  1  0
 24 25  2  0
 26 29  1  0
 26 25  1  0
 27 26  2  0
 28 27  1  0
 28 23  2  0
 29 30  1  0
 30 31  1  0
 31 32  2  0
 33 32  1  0
 33 37  1  0
 34 33  2  0
 35 30  2  0
 35 34  1  0
 36 35  1  0
 38 39  1  0
 39 42  1  0
 39 41  1  0
 40 38  2  0
 43 18  1  0
 43 44  1  0
 45 43  1  0
 46 49  1  0
 46 47  1  0
 46 48  1  0
 50 51  1  0
 52 63  2  0
 53 51  1  0
 53 58  1  0
 54 62  1  0
 54 64  1  0
 55 61  1  0
 55 57  1  0
 56 62  1  0
 57 56  1  0
 58 57  2  0
 59 60  1  0
 59 53  2  0
 60 55  2  0
 61 54  1  0
 62 52  1  0
 64 66  2  0
 65 64  1  0
 67 65  1  0
 68 77  2  0
 68 73  1  0
 69 65  1  0
 69 73  1  0
 70 69  1  0
 71 72  1  0
 71 70  1  0
 72 68  1  0
 73 74  2  0
 74 75  1  0
 76 75  2  0
 77 76  1  0
 78 52  1  0
 78 83  1  0
 78 79  1  0
 79 82  1  1
 79 80  1  0
 81 79  1  0
 83 86  1  0
 84 88  1  0
 84 83  1  0
 85 84  2  0
 88 87  1  0
 90 88  1  0
 90 91  1  0
 90 89  1  0
M  ISO  4   6 100  15 100  50 101  51 101
M  END
>  <TORSDO>  (76) 
F 18

>  <SCORE>  (76) 
-15.857

>  <name>  (76) 
75

>  <ligand_id>  (76) 
75

>  <original_smiles>  (76) 
[H]c1c([H])c([H])c2c(c1[H])C([H])([H])C([H])([H])C([H])([H])C2([H])N([H])C(=O)C1([H])N(C(=O)C([H])(N([H])C(=O)C([H])(N([H])C([H])([H])[H])C([H])([H])[H])C(C([H])([H])[H])(C([H])([H])[H])C([H])([H])[H])C([H])([H])c2c([H])c(OC([H])([H])C3([H])C([H])([H])C([H])(C(=O)N([H])C(=O)N4C([H])([H])C([H])([H])C([H])([H])C([H])(n5nc(-c6c([H])c([H])c(Oc7c([H])c([H])c(F)c([H])c7F)c([H])c6[H])c(C(=O)N([H])[H])c5N([H])[H])C4([H])[H])C([H])([N+]([H])([H])[H])C3([H])[H])c([H])c([H])c2C1([H])[H]

>  <smiles>  (76) 
[H]c1c([H])c([H])c2c(c1[H])C([H])([H])C([H])([H])C([H])([H])C2([H])N([H])C(=O)C1([H])N(C(=O)C([H])(N([H])C(=O)C([H])(N([H])C([H])([H])[H])C([H])([H])[H])C(C([H])([H])[H])(C([H])([H])[H])C([H])([H])[H])C([H])([H])c2c([H])c(OC([H])([H])C3([H])C([H])([H])C([H])(C(=O)N([H])C(=O)N4C([H])([H])C([H])([H])C([H])([H])C([H])(n5nc(-c6c([H])c([H])c(Oc7c([H])c([H])c(F)c([H])c7F)c([H])c6[H])c(C(=O)N([H])[H])c5N([H])[H])C4([H])[H])C([H])([N+]([H])([H])[H])C3([H])[H])c([H])c([H])c2C1([H])[H]

$$$$
76:0:0
     RDKit          3D

 88 96  0  0  1  0  0  0  0  0999 V2000
  -30.9820  -21.5230   20.3510 C   0  0  0  0  0  1  0  0  0  0  0  0
  -29.4740  -21.3350   20.5650 C   0  0  0  0  0  3  0  0  0  0  0  0
  -28.9190  -18.8910   21.7050 C   0  0  0  0  0  2  0  0  0  0  0  0
  -30.3820  -18.3790   21.6850 C   0  0  0  0  0  3  0  0  0  0  0  0
  -29.1550  -19.5870   20.3470 C   0  0  0  0  0  3  0  0  0  0  0  0
  -30.1940  -18.1490   20.1720 C   0  0  0  0  0  3  0  0  0  0  0  0
  -30.8320  -17.2530   22.6120 C   0  0  0  0  0  1  0  0  0  0  0  0
  -30.5840  -15.2880   19.7750 C   0  0  0  0  0  0  0  0  0  0  0  0
  -30.4580  -12.8800   18.8460 C   0  0  0  0  0  2  0  0  0  0  0  0
  -29.4430  -12.7040   17.6890 C   0  0  0  0  0  2  0  0  0  0  0  0
  -28.0260  -12.4470   18.2320 C   0  0  0  0  0  2  0  0  0  0  0  0
  -27.6730  -13.3970   19.4030 C   0  0  0  0  0  3  0  0  0  0  0  0
  -28.8040  -13.5140   20.4460 C   0  0  0  0  0  2  0  0  0  0  0  0
  -29.9900  -14.0030   19.7300 N   0  0  0  0  0  0  0  0  0  0  0  0
  -31.7840  -15.2920   19.4700 O   0  0  0  0  0  0  0  0  0  0  0  0
  -29.8410  -16.5440   19.9710 N   0  0  0  0  0  0  0  0  0  0  0  0
  -28.8550  -16.3610   20.0800 H   0  0  0  0  0  0  0  0  0  0  0  0
  -25.3740  -13.9570   20.3530 C   0  0  0  0  0  0  0  0  0  0  0  0
  -24.3420  -13.1800   20.7940 C   0  0  0  0  0  0  0  0  0  0  0  0
  -24.7970  -11.8280   20.7030 C   0  0  0  0  0  0  0  0  0  0  0  0
  -26.3880  -13.0820   20.0110 N   0  0  0  0  0  0  0  0  0  0  0  0
  -26.0590  -11.7930   20.2890 N   0  0  0  0  0  0  0  0  0  0  0  0
  -24.0790  -10.5660   20.9300 C   0  0  0  0  0  0  0  0  0  0  0  0
  -24.5280   -9.6220   21.8800 C   0  0  0  0  0  3  0  0  0  0  0  0
  -23.8100   -8.4270   22.0970 C   0  0  0  0  0  3  0  0  0  0  0  0
  -22.6290   -8.1660   21.3620 C   0  0  0  0  0  0  0  0  0  0  0  0
  -22.1970   -9.0980   20.4030 C   0  0  0  0  0  3  0  0  0  0  0  0
  -22.9160  -10.2850   20.1850 C   0  0  0  0  0  3  0  0  0  0  0  0
  -21.8800   -7.0190   21.4870 O   0  0  0  0  0  0  0  0  0  0  0  0
  -21.7750   -6.3540   22.6810 C   0  0  0  0  0  0  0  0  0  0  0  0
  -21.2740   -6.9830   23.8420 C   0  0  0  0  0  3  0  0  0  0  0  0
  -21.1180   -6.2440   25.0320 C   0  0  0  0  0  3  0  0  0  0  0  0
  -21.4520   -4.8760   25.0610 C   0  0  0  0  0  0  0  0  0  0  0  0
  -21.9460   -4.2470   23.9040 C   0  0  0  0  0  3  0  0  0  0  0  0
  -22.1050   -4.9840   22.7170 C   0  0  0  0  0  0  0  0  0  0  0  0
  -22.5600   -4.3680   21.6000 F   0  0  0  0  0  0  0  0  0  0  0  0
  -21.2940   -4.1630   26.2000 F   0  0  0  0  0  0  0  0  0  0  0  0
  -22.9740  -13.6580   21.1820 C   0  0  0  0  0  0  0  0  0  0  0  0
  -22.3240  -12.9660   22.1100 N   0  0  0  0  0  0  0  0  0  0  0  0
  -22.4950  -14.6830   20.6960 O   0  0  0  0  0  0  0  0  0  0  0  0
  -22.7260  -12.1360   22.5210 H   0  0  0  0  0  0  0  0  0  0  0  0
  -21.4100  -13.2680   22.4170 H   0  0  0  0  0  0  0  0  0  0  0  0
  -25.5280  -15.3320   20.1870 N   0  0  0  0  0  0  0  0  0  0  0  0
  -24.7720  -15.9810   20.3730 H   0  0  0  0  0  0  0  0  0  0  0  0
  -26.3370  -15.7740   19.7720 H   0  0  0  0  0  0  0  0  0  0  0  0
  -28.6800  -22.8070   19.9350 C   0  0  0  0  0  2  0  0  0  0  0  0
  -28.4390  -24.4520   20.5960 C   0  0  0  0  0  2  0  0  0  0  0  0
  -28.4150  -25.9970   20.0610 O   0  0  0  0  0  0  0  0  0  0  0  0
  -24.5480  -31.7340   23.0610 C   0  0  0  0  0  0  0  0  0  0  0  0
  -27.3310  -27.0000   20.0810 C   0  0  0  0  0  0  0  0  0  0  0  0
  -23.4370  -30.3190   21.3800 C   0  0  0  0  0  3  0  0  0  0  0  0
  -24.9700  -28.7740   19.9860 C   0  0  0  0  0  0  0  0  0  0  0  0
  -25.9930  -30.6250   21.2930 C   0  0  0  0  0  2  0  0  0  0  0  0
  -26.1250  -29.2230   20.6360 C   0  0  0  0  0  0  0  0  0  0  0  0
  -27.3060  -28.3590   20.6530 C   0  0  0  0  0  3  0  0  0  0  0  0
  -26.1410  -26.6860   19.3890 C   0  0  0  0  0  3  0  0  0  0  0  0
  -24.9980  -27.5260   19.3420 C   0  0  0  0  0  3  0  0  0  0  0  0
  -23.7230  -29.6560   20.0030 C   0  0  0  0  0  2  0  0  0  0  0  0
  -24.6790  -30.9180   21.9660 N   0  0  0  0  0  0  0  0  0  0  0  0
  -23.4380  -31.9840   23.5580 O   0  0  0  0  0  0  0  0  0  0  0  0
  -22.7510  -29.2910   22.3160 C   0  0  0  0  0  0  0  0  0  0  0  0
  -21.4290  -29.0970   22.1620 N   0  0  0  0  0  0  0  0  0  0  0  0
  -23.4160  -28.6690   23.1480 O   0  0  0  0  0  0  0  0  0  0  0  0
  -20.9440  -29.6520   21.4700 H   0  0  0  0  0  0  0  0  0  0  0  0
  -18.0610  -27.8200   22.6120 C   0  0  0  0  0  0  0  0  0  0  0  0
  -20.6130  -28.1270   22.9010 C   0  0  0  0  0  3  0  0  0  0  0  0
  -20.7450  -26.7120   22.2900 C   0  0  0  0  0  2  0  0  0  0  0  0
  -19.6580  -26.3960   21.2580 C   0  0  0  0  0  2  0  0  0  0  0  0
  -18.2680  -26.4960   21.8950 C   0  0  0  0  0  2  0  0  0  0  0  0
  -19.1620  -28.5940   23.0670 C   0  0  0  0  0  0  0  0  0  0  0  0
  -18.9140  -29.8320   23.6970 C   0  0  0  0  0  3  0  0  0  0  0  0
  -17.5980  -30.3010   23.8720 C   0  0  0  0  0  3  0  0  0  0  0  0
  -16.5110  -29.5260   23.4290 C   0  0  0  0  0  3  0  0  0  0  0  0
  -16.7440  -28.2870   22.8060 C   0  0  0  0  0  3  0  0  0  0  0  0
  -25.7830  -32.4070   23.7320 C   0  0  0  0  0  3  0  0  0  0  0  0
  -26.2920  -31.6300   25.0090 C   0  0  1  0  0  0  0  0  0  0  0  0
  -25.1780  -31.3290   26.0430 C   0  0  0  0  0  1  0  0  0  0  0  0
  -26.9340  -30.2820   24.6130 C   0  0  0  0  0  1  0  0  0  0  0  0
  -27.3930  -32.4540   25.7180 C   0  0  0  0  0  1  0  0  0  0  0  0
  -25.4080  -33.7850   24.0950 N   0  0  0  0  0  0  0  0  0  0  0  0
  -25.7130  -34.8780   23.3810 C   0  0  0  0  0  0  0  0  0  0  0  0
  -26.4050  -34.8320   22.3600 O   0  0  0  0  0  0  0  0  0  0  0  0
  -24.7890  -33.8890   24.8860 H   0  0  0  0  0  0  0  0  0  0  0  0
  -23.9250  -36.6210   23.0660 C   0  0  0  0  0  1  0  0  0  0  0  0
  -25.1710  -36.2340   23.8760 C   0  0  0  0  0  3  0  0  0  0  0  0
  -27.2610  -37.1730   24.7620 C   0  0  0  0  0  1  0  0  0  0  0  0
  -26.1660  -37.3280   23.8080 N   0  0  0  0  0  0  0  0  0  0  0  0
  -25.7240  -38.2260   23.9790 H   0  0  0  0  0  0  0  0  0  0  0  0
  2  1  1  0
  4  3  1  0
  4  7  1  0
  5  2  1  0
  5  3  1  0
  6 16  1  0
  6  5  1  0
  6  4  1  0
  8 16  1  0
  9 14  1  0
 10 11  1  0
 10  9  1  0
 12 11  1  0
 12 21  1  0
 12 13  1  0
 14  8  1  0
 14 13  1  0
 15  8  2  0
 16 17  1  0
 18 19  2  0
 19 38  1  0
 20 19  1  0
 20 23  1  0
 21 22  1  0
 21 18  1  0
 22 20  2  0
 23 24  1  0
 24 25  2  0
 26 29  1  0
 26 25  1  0
 27 26  2  0
 28 27  1  0
 28 23  2  0
 29 30  1  0
 30 35  2  0
 30 31  1  0
 31 32  2  0
 32 33  1  0
 33 37  1  0
 34 33  2  0
 35 34  1  0
 36 35  1  0
 38 39  1  0
 39 42  1  0
 39 41  1  0
 40 38  2  0
 43 18  1  0
 43 44  1  0
 45 43  1  0
 46  2  1  0
 46 47  1  0
 48 50  1  0
 48 47  1  0
 49 60  2  0
 50 55  1  0
 51 59  1  0
 51 61  1  0
 52 58  1  0
 52 54  1  0
 53 59  1  0
 54 55  2  0
 54 53  1  0
 56 50  2  0
 57 56  1  0
 57 52  2  0
 58 51  1  0
 59 49  1  0
 61 63  2  0
 62 61  1  0
 64 62  1  0
 65 74  2  0
 65 70  1  0
 66 62  1  0
 66 70  1  0
 67 66  1  0
 68 69  1  0
 68 67  1  0
 69 65  1  0
 70 71  2  0
 71 72  1  0
 73 72  2  0
 74 73  1  0
 75 49  1  0
 75 80  1  0
 75 76  1  0
 76 79  1  1
 76 77  1  0
 78 76  1  0
 80 83  1  0
 81 85  1  0
 81 80  1  0
 82 81  2  0
 85 84  1  0
 87 85  1  0
 87 88  1  0
 87 86  1  0
M  ISO  4   8 100  16 100  47 101  48 101
M  END
>  <TORSDO>  (77) 
F 19

>  <SCORE>  (77) 
-13.590

>  <name>  (77) 
76

>  <ligand_id>  (77) 
76

>  <original_smiles>  (77) 
[H]c1c([H])c([H])c2c(c1[H])C([H])([H])C([H])([H])C([H])([H])C2([H])N([H])C(=O)C1([H])N(C(=O)C([H])(N([H])C(=O)C([H])(N([H])C([H])([H])[H])C([H])([H])[H])C(C([H])([H])[H])(C([H])([H])[H])C([H])([H])[H])C([H])([H])c2c([H])c(OC([H])([H])C([H])([H])C([H])(C([H])([H])[H])C3([H])C([H])([H])C([H])(C([H])([H])[H])C3([H])N([H])C(=O)N3C([H])([H])C([H])([H])C([H])([H])C([H])(n4nc(-c5c([H])c([H])c(Oc6c([H])c([H])c(F)c([H])c6F)c([H])c5[H])c(C(=O)N([H])[H])c4N([H])[H])C3([H])[H])c([H])c([H])c2C1([H])[H]

>  <smiles>  (77) 
[H]c1c([H])c([H])c2c(c1[H])C([H])([H])C([H])([H])C([H])([H])C2([H])N([H])C(=O)C1([H])N(C(=O)C([H])(N([H])C(=O)C([H])(N([H])C([H])([H])[H])C([H])([H])[H])C(C([H])([H])[H])(C([H])([H])[H])C([H])([H])[H])C([H])([H])c2c([H])c(OC([H])([H])C([H])([H])C([H])(C([H])([H])[H])C3([H])C([H])([H])C([H])(C([H])([H])[H])C3([H])N([H])C(=O)N3C([H])([H])C([H])([H])C([H])([H])C([H])(n4nc(-c5c([H])c([H])c(Oc6c([H])c([H])c(F)c([H])c6F)c([H])c5[H])c(C(=O)N([H])[H])c4N([H])[H])C3([H])[H])c([H])c([H])c2C1([H])[H]

$$$$
77:0:0
     RDKit          3D

 91 99  0  0  1  0  0  0  0  0999 V2000
  -28.5460  -20.4520   21.2230 C   0  0  0  0  0  2  0  0  0  0  0  0
  -27.9080  -21.9110   20.8550 C   0  0  0  0  0  2  0  0  0  0  0  0
  -30.3730  -20.9450   19.7790 C   0  0  0  0  0  2  0  0  0  0  0  0
  -29.4230  -19.6980   20.1320 C   0  0  0  0  0  3  0  0  0  0  0  0
  -28.8200  -23.1870   20.5000 C   0  0  0  0  0  3  0  0  0  0  0  0
  -29.8310  -22.4720   19.4700 C   0  0  0  0  0  3  0  0  0  0  0  0
  -30.2110  -18.1850   20.4000 C   0  0  0  0  0  2  0  0  0  0  0  0
  -29.6570  -16.5730   20.5380 C   0  0  0  0  0  2  0  0  0  0  0  0
  -30.5100  -15.1420   20.2770 C   0  0  0  0  0  0  0  0  0  0  0  0
  -30.4300  -12.7780   19.3170 C   0  0  0  0  0  2  0  0  0  0  0  0
  -29.4790  -12.7190   18.0950 C   0  0  0  0  0  2  0  0  0  0  0  0
  -28.0220  -12.4920   18.5470 C   0  0  0  0  0  2  0  0  0  0  0  0
  -27.6210  -13.4220   19.7200 C   0  0  0  0  0  3  0  0  0  0  0  0
  -28.6840  -13.4310   20.8350 C   0  0  0  0  0  2  0  0  0  0  0  0
  -29.9530  -13.8580   20.2340 N   0  0  0  0  0  0  0  0  0  0  0  0
  -31.7030  -15.2160   19.9570 O   0  0  0  0  0  0  0  0  0  0  0  0
  -25.2500  -14.0000   20.4890 C   0  0  0  0  0  0  0  0  0  0  0  0
  -24.1870  -13.2240   20.8630 C   0  0  0  0  0  0  0  0  0  0  0  0
  -24.6490  -11.8730   20.8170 C   0  0  0  0  0  0  0  0  0  0  0  0
  -26.2870  -13.1200   20.2300 N   0  0  0  0  0  0  0  0  0  0  0  0
  -25.9360  -11.8350   20.4940 N   0  0  0  0  0  0  0  0  0  0  0  0
  -23.9210  -10.6110   21.0020 C   0  0  0  0  0  0  0  0  0  0  0  0
  -24.3440   -9.6430   21.9400 C   0  0  0  0  0  3  0  0  0  0  0  0
  -23.6130   -8.4470   22.1150 C   0  0  0  0  0  3  0  0  0  0  0  0
  -22.4450   -8.2110   21.3510 C   0  0  0  0  0  0  0  0  0  0  0  0
  -22.0400   -9.1690   20.4050 C   0  0  0  0  0  3  0  0  0  0  0  0
  -22.7710  -10.3550   20.2290 C   0  0  0  0  0  3  0  0  0  0  0  0
  -21.6870   -7.0690   21.4340 O   0  0  0  0  0  0  0  0  0  0  0  0
  -21.6110   -6.3380   22.5940 C   0  0  0  0  0  0  0  0  0  0  0  0
  -21.1240   -6.8980   23.7960 C   0  0  0  0  0  3  0  0  0  0  0  0
  -20.9970   -6.0940   24.9470 C   0  0  0  0  0  3  0  0  0  0  0  0
  -21.3450   -4.7310   24.8960 C   0  0  0  0  0  0  0  0  0  0  0  0
  -21.8250   -4.1710   23.6980 C   0  0  0  0  0  3  0  0  0  0  0  0
  -21.9540   -4.9720   22.5510 C   0  0  0  0  0  0  0  0  0  0  0  0
  -22.3960   -4.4210   21.3930 F   0  0  0  0  0  0  0  0  0  0  0  0
  -21.2160   -3.9570   25.9990 F   0  0  0  0  0  0  0  0  0  0  0  0
  -22.7940  -13.7040   21.1500 C   0  0  0  0  0  0  0  0  0  0  0  0
  -22.0710  -13.0060   22.0180 N   0  0  0  0  0  0  0  0  0  0  0  0
  -22.3560  -14.7330   20.6400 O   0  0  0  0  0  0  0  0  0  0  0  0
  -22.4340  -12.1690   22.4510 H   0  0  0  0  0  0  0  0  0  0  0  0
  -21.1400  -13.3140   22.2560 H   0  0  0  0  0  0  0  0  0  0  0  0
  -25.4160  -15.3720   20.3230 N   0  0  0  0  0  0  0  0  0  0  0  0
  -24.6550  -16.0300   20.4660 H   0  0  0  0  0  0  0  0  0  0  0  0
  -26.2670  -15.8140   20.0000 H   0  0  0  0  0  0  0  0  0  0  0  0
  -31.0410  -23.4280   19.2620 C   0  0  0  0  0  2  0  0  0  0  0  0
  -31.9920  -23.0080   18.2140 N   0  0  0  0  0  4  0  0  0  0  0  0
  -32.3980  -22.1160   18.4250 H   0  0  0  0  0  0  0  0  0  0  0  0
  -32.7480  -23.6700   18.1600 H   0  0  0  0  0  0  0  0  0  0  0  0
  -31.5520  -22.9640   17.3130 H   0  0  0  0  0  0  0  0  0  0  0  0
  -27.9780  -24.6450   20.1040 C   0  0  0  0  0  2  0  0  0  0  0  0
  -28.2710  -26.1900   20.2660 O   0  0  0  0  0  0  0  0  0  0  0  0
  -24.6570  -31.9300   23.2420 C   0  0  0  0  0  0  0  0  0  0  0  0
  -27.2240  -27.1990   20.1870 C   0  0  0  0  0  0  0  0  0  0  0  0
  -23.4500  -30.5350   21.6070 C   0  0  0  0  0  3  0  0  0  0  0  0
  -24.8920  -28.9680   20.1590 C   0  0  0  0  0  0  0  0  0  0  0  0
  -25.9990  -30.8040   21.4220 C   0  0  0  0  0  2  0  0  0  0  0  0
  -26.0770  -29.4090   20.7660 C   0  0  0  0  0  0  0  0  0  0  0  0
  -27.2400  -28.5430   20.7610 C   0  0  0  0  0  3  0  0  0  0  0  0
  -26.0070  -26.8700   19.5420 C   0  0  0  0  0  3  0  0  0  0  0  0
  -24.8720  -27.7140   19.5300 C   0  0  0  0  0  3  0  0  0  0  0  0
  -23.6640  -29.8660   20.2230 C   0  0  0  0  0  2  0  0  0  0  0  0
  -24.7220  -31.1130   22.1460 N   0  0  0  0  0  0  0  0  0  0  0  0
  -23.5740  -32.2120   23.7800 O   0  0  0  0  0  0  0  0  0  0  0  0
  -22.7770  -29.5260   22.5710 C   0  0  0  0  0  0  0  0  0  0  0  0
  -21.4500  -29.3450   22.4460 N   0  0  0  0  0  0  0  0  0  0  0  0
  -23.4560  -28.9040   23.3920 O   0  0  0  0  0  0  0  0  0  0  0  0
  -20.9600  -29.9040   21.7630 H   0  0  0  0  0  0  0  0  0  0  0  0
  -18.0800  -28.1090   22.9460 C   0  0  0  0  0  0  0  0  0  0  0  0
  -20.6360  -28.3970   23.2140 C   0  0  0  0  0  3  0  0  0  0  0  0
  -20.7490  -26.9660   22.6400 C   0  0  0  0  0  2  0  0  0  0  0  0
  -19.6520  -26.6350   21.6240 C   0  0  0  0  0  2  0  0  0  0  0  0
  -18.2690  -26.7630   22.2690 C   0  0  0  0  0  2  0  0  0  0  0  0
  -19.1900  -28.8850   23.3760 C   0  0  0  0  0  0  0  0  0  0  0  0
  -18.9590  -30.1440   23.9700 C   0  0  0  0  0  3  0  0  0  0  0  0
  -17.6470  -30.6270   24.1450 C   0  0  0  0  0  3  0  0  0  0  0  0
  -16.5510  -29.8500   23.7330 C   0  0  0  0  0  3  0  0  0  0  0  0
  -16.7690  -28.5930   23.1390 C   0  0  0  0  0  3  0  0  0  0  0  0
  -25.9380  -32.5690   23.8620 C   0  0  0  0  0  3  0  0  0  0  0  0
  -25.6250  -33.9650   24.2060 N   0  0  0  0  0  0  0  0  0  0  0  0
  -25.9230  -35.0260   23.4450 C   0  0  0  0  0  0  0  0  0  0  0  0
  -26.5640  -34.9330   22.3950 O   0  0  0  0  0  0  0  0  0  0  0  0
  -25.0570  -34.1100   25.0280 H   0  0  0  0  0  0  0  0  0  0  0  0
  -24.1720  -36.8110   23.1610 C   0  0  0  0  0  1  0  0  0  0  0  0
  -25.4440  -36.4110   23.9250 C   0  0  0  0  0  3  0  0  0  0  0  0
  -27.5960  -37.3180   24.6850 C   0  0  0  0  0  1  0  0  0  0  0  0
  -26.4640  -37.4720   23.7750 N   0  0  0  0  0  0  0  0  0  0  0  0
  -26.0570  -38.3900   23.9360 H   0  0  0  0  0  0  0  0  0  0  0  0
  -26.4590  -31.7980   25.1380 C   0  0  1  0  0  0  0  0  0  0  0  0
  -25.3710  -31.5500   26.2110 C   0  0  0  0  0  1  0  0  0  0  0  0
  -27.0510  -30.4250   24.7430 C   0  0  0  0  0  1  0  0  0  0  0  0
  -27.6090  -32.5950   25.7990 C   0  0  0  0  0  1  0  0  0  0  0  0
  2  1  1  0
  3  4  1  0
  4  7  1  0
  4  1  1  0
  5 50  1  0
  5  2  1  0
  6 45  1  0
  6  3  1  0
  6  5  1  0
  7  8  1  0
  9  8  1  0
 10 15  1  0
 11 12  1  0
 11 10  1  0
 13 12  1  0
 13 20  1  0
 13 14  1  0
 15  9  1  0
 15 14  1  0
 16  9  2  0
 17 18  2  0
 18 37  1  0
 19 18  1  0
 19 22  1  0
 20 17  1  0
 20 21  1  0
 21 19  2  0
 22 23  1  0
 23 24  2  0
 25 28  1  0
 25 24  1  0
 26 25  2  0
 27 26  1  0
 27 22  2  0
 28 29  1  0
 29 30  1  0
 30 31  2  0
 32 31  1  0
 32 36  1  0
 33 32  2  0
 34 29  2  0
 34 33  1  0
 35 34  1  0
 37 38  1  0
 38 41  1  0
 38 40  1  0
 39 37  2  0
 42 43  1  0
 42 17  1  0
 44 42  1  0
 46 47  1  0
 46 45  1  0
 48 46  1  0
 49 46  1  0
 50 51  1  0
 52 63  2  0
 53 51  1  0
 53 58  1  0
 54 62  1  0
 54 64  1  0
 55 61  1  0
 55 57  1  0
 56 62  1  0
 57 56  1  0
 58 57  2  0
 59 53  2  0
 60 59  1  0
 60 55  2  0
 61 54  1  0
 62 52  1  0
 64 66  2  0
 65 64  1  0
 67 65  1  0
 68 77  2  0
 68 73  1  0
 69 65  1  0
 69 73  1  0
 70 69  1  0
 71 72  1  0
 71 70  1  0
 72 68  1  0
 73 74  2  0
 74 75  1  0
 76 75  2  0
 77 76  1  0
 78 52  1  0
 78 79  1  0
 78 88  1  0
 79 82  1  0
 80 84  1  0
 80 79  1  0
 81 80  2  0
 84 83  1  0
 86 84  1  0
 86 87  1  0
 86 85  1  0
 88 91  1  1
 88 89  1  0
 90 88  1  0
M  ISO  4   8 100   9 100  50 101  51 101
M  END
>  <TORSDO>  (78) 
F 21

>  <SCORE>  (78) 
-14.944

>  <name>  (78) 
77

>  <ligand_id>  (78) 
77

>  <original_smiles>  (78) 
[H]c1c([H])c([H])c2c(c1[H])C([H])([H])C([H])([H])C([H])([H])C2([H])N([H])C(=O)C1([H])N(C(=O)C([H])(N([H])C(=O)C([H])(N([H])C([H])([H])[H])C([H])([H])[H])C(C([H])([H])[H])(C([H])([H])[H])C([H])([H])[H])C([H])([H])c2c([H])c(OC([H])([H])C3([H])C([H])([H])C([H])([H])C([H])(C([H])([H])C([H])([H])C(=O)N4C([H])([H])C([H])([H])C([H])([H])C([H])(n5nc(-c6c([H])c([H])c(Oc7c([H])c([H])c(F)c([H])c7F)c([H])c6[H])c(C(=O)N([H])[H])c5N([H])[H])C4([H])[H])C([H])([H])C3([H])C([H])([H])[N+]([H])([H])[H])c([H])c([H])c2C1([H])[H]

>  <smiles>  (78) 
[H]c1c([H])c([H])c2c(c1[H])C([H])([H])C([H])([H])C([H])([H])C2([H])N([H])C(=O)C1([H])N(C(=O)C([H])(N([H])C(=O)C([H])(N([H])C([H])([H])[H])C([H])([H])[H])C(C([H])([H])[H])(C([H])([H])[H])C([H])([H])[H])C([H])([H])c2c([H])c(OC([H])([H])C3([H])C([H])([H])C([H])([H])C([H])(C([H])([H])C([H])([H])C(=O)N4C([H])([H])C([H])([H])C([H])([H])C([H])(n5nc(-c6c([H])c([H])c(Oc7c([H])c([H])c(F)c([H])c7F)c([H])c6[H])c(C(=O)N([H])[H])c5N([H])[H])C4([H])[H])C([H])([H])C3([H])C([H])([H])[N+]([H])([H])[H])c([H])c([H])c2C1([H])[H]

$$$$
78:0:0
     RDKit          3D

 92100  0  0  1  0  0  0  0  0999 V2000
  -29.6850  -18.5680   21.4070 C   0  0  0  0  0  2  0  0  0  0  0  0
  -29.2680  -18.1580   19.0750 C   0  0  0  0  0  2  0  0  0  0  0  0
  -29.8610  -20.1410   21.1050 C   0  0  0  0  0  2  0  0  0  0  0  0
  -29.3670  -19.7340   18.7800 C   0  0  0  0  0  3  0  0  0  0  0  0
  -30.0820  -17.5490   20.2640 C   0  0  0  0  0  3  0  0  0  0  0  0
  -29.0780  -20.6980   19.9350 N   0  0  2  0  0  4  0  0  0  0  0  0
  -28.1010  -20.5830   20.1540 H   0  0  0  0  0  0  0  0  0  0  0  0
  -30.6020  -14.8800   20.3000 C   0  0  0  0  0  0  0  0  0  0  0  0
  -30.4210  -12.5760   19.3140 C   0  0  0  0  0  2  0  0  0  0  0  0
  -29.4810  -12.6160   18.0870 C   0  0  0  0  0  2  0  0  0  0  0  0
  -28.0180  -12.4220   18.5280 C   0  0  0  0  0  2  0  0  0  0  0  0
  -27.6350  -13.3200   19.7310 C   0  0  0  0  0  3  0  0  0  0  0  0
  -28.6950  -13.2680   20.8530 C   0  0  0  0  0  2  0  0  0  0  0  0
  -29.9850  -13.6420   20.2520 N   0  0  0  0  0  0  0  0  0  0  0  0
  -31.7860  -14.9710   19.9640 O   0  0  0  0  0  0  0  0  0  0  0  0
  -29.8260  -16.0290   20.5130 N   0  0  0  0  0  0  0  0  0  0  0  0
  -28.8860  -15.8080   20.8050 H   0  0  0  0  0  0  0  0  0  0  0  0
  -25.2460  -13.9020   20.4560 C   0  0  0  0  0  0  0  0  0  0  0  0
  -24.1810  -13.1250   20.8270 C   0  0  0  0  0  0  0  0  0  0  0  0
  -24.6480  -11.7760   20.8040 C   0  0  0  0  0  0  0  0  0  0  0  0
  -26.2920  -13.0250   20.2250 N   0  0  0  0  0  0  0  0  0  0  0  0
  -25.9400  -11.7410   20.4970 N   0  0  0  0  0  0  0  0  0  0  0  0
  -23.9240  -10.5110   20.9950 C   0  0  0  0  0  0  0  0  0  0  0  0
  -24.3500   -9.5520   21.9380 C   0  0  0  0  0  3  0  0  0  0  0  0
  -23.6260   -8.3540   22.1180 C   0  0  0  0  0  3  0  0  0  0  0  0
  -22.4610   -8.1080   21.3530 C   0  0  0  0  0  0  0  0  0  0  0  0
  -22.0530   -9.0570   20.4000 C   0  0  0  0  0  3  0  0  0  0  0  0
  -22.7790  -10.2460   20.2190 C   0  0  0  0  0  3  0  0  0  0  0  0
  -21.7100   -6.9620   21.4420 O   0  0  0  0  0  0  0  0  0  0  0  0
  -21.6440   -6.2300   22.6020 C   0  0  0  0  0  0  0  0  0  0  0  0
  -21.1880   -6.7950   23.8130 C   0  0  0  0  0  3  0  0  0  0  0  0
  -21.0730   -5.9910   24.9650 C   0  0  0  0  0  3  0  0  0  0  0  0
  -21.4010   -4.6220   24.9040 C   0  0  0  0  0  0  0  0  0  0  0  0
  -21.8520   -4.0590   23.6980 C   0  0  0  0  0  3  0  0  0  0  0  0
  -21.9690   -4.8600   22.5490 C   0  0  0  0  0  0  0  0  0  0  0  0
  -22.3820   -4.3070   21.3820 F   0  0  0  0  0  0  0  0  0  0  0  0
  -21.2840   -3.8470   26.0080 F   0  0  0  0  0  0  0  0  0  0  0  0
  -22.7820  -13.6000   21.0920 C   0  0  0  0  0  0  0  0  0  0  0  0
  -22.0510  -12.9020   21.9530 N   0  0  0  0  0  0  0  0  0  0  0  0
  -22.3470  -14.6280   20.5730 O   0  0  0  0  0  0  0  0  0  0  0  0
  -22.4150  -12.0690   22.3910 H   0  0  0  0  0  0  0  0  0  0  0  0
  -21.1120  -13.2040   22.1750 H   0  0  0  0  0  0  0  0  0  0  0  0
  -25.4080  -15.2720   20.2700 N   0  0  0  0  0  0  0  0  0  0  0  0
  -24.6330  -15.9200   20.3450 H   0  0  0  0  0  0  0  0  0  0  0  0
  -26.2440  -15.6940   19.8870 H   0  0  0  0  0  0  0  0  0  0  0  0
  -28.4730  -20.0150   17.5720 C   0  0  0  0  0  3  0  0  0  0  0  0
  -28.8940  -20.4010   16.4400 N   0  0  0  0  0  0  0  0  0  0  0  0
  -29.9030  -20.5020   16.4100 H   0  0  0  0  0  0  0  0  0  0  0  0
  -29.2550  -22.2340   19.5900 C   0  0  0  0  0  2  0  0  0  0  0  0
  -28.6080  -23.5180   20.4060 C   0  0  0  0  0  2  0  0  0  0  0  0
  -28.4670  -24.9830   19.6490 C   0  0  0  0  0  2  0  0  0  0  0  0
  -28.3420  -26.3680   20.2870 O   0  0  0  0  0  0  0  0  0  0  0  0
  -24.6160  -31.9020   23.2310 C   0  0  0  0  0  0  0  0  0  0  0  0
  -27.2270  -27.2530   20.1950 C   0  0  0  0  0  0  0  0  0  0  0  0
  -23.4170  -30.4950   21.5970 C   0  0  0  0  0  3  0  0  0  0  0  0
  -24.8690  -28.9330   20.1730 C   0  0  0  0  0  0  0  0  0  0  0  0
  -25.9640  -30.7920   21.4200 C   0  0  0  0  0  2  0  0  0  0  0  0
  -26.0420  -29.4050   20.7710 C   0  0  0  0  0  0  0  0  0  0  0  0
  -27.2170  -28.5780   20.7720 C   0  0  0  0  0  3  0  0  0  0  0  0
  -26.0220  -26.8510   19.5810 C   0  0  0  0  0  3  0  0  0  0  0  0
  -24.8670  -27.6640   19.5720 C   0  0  0  0  0  3  0  0  0  0  0  0
  -23.6350  -29.8170   20.2180 C   0  0  0  0  0  2  0  0  0  0  0  0
  -24.6860  -31.0840   22.1380 N   0  0  0  0  0  0  0  0  0  0  0  0
  -23.5300  -32.1790   23.7610 O   0  0  0  0  0  0  0  0  0  0  0  0
  -22.7510  -29.4850   22.5640 C   0  0  0  0  0  0  0  0  0  0  0  0
  -21.4240  -29.3060   22.4450 N   0  0  0  0  0  0  0  0  0  0  0  0
  -23.4320  -28.8650   23.3860 O   0  0  0  0  0  0  0  0  0  0  0  0
  -20.9310  -29.8580   21.7580 H   0  0  0  0  0  0  0  0  0  0  0  0
  -18.0510  -28.1050   22.9680 C   0  0  0  0  0  0  0  0  0  0  0  0
  -20.6100  -28.3670   23.2220 C   0  0  0  0  0  3  0  0  0  0  0  0
  -20.7110  -26.9360   22.6470 C   0  0  0  0  0  2  0  0  0  0  0  0
  -19.6030  -26.6110   21.6410 C   0  0  0  0  0  2  0  0  0  0  0  0
  -18.2240  -26.7560   22.2900 C   0  0  0  0  0  2  0  0  0  0  0  0
  -19.1700  -28.8690   23.3910 C   0  0  0  0  0  0  0  0  0  0  0  0
  -18.9520  -30.1320   23.9830 C   0  0  0  0  0  3  0  0  0  0  0  0
  -17.6480  -30.6310   24.1570 C   0  0  0  0  0  3  0  0  0  0  0  0
  -16.5420  -29.8650   23.7490 C   0  0  0  0  0  3  0  0  0  0  0  0
  -16.7440  -28.6040   23.1610 C   0  0  0  0  0  3  0  0  0  0  0  0
  -25.8920  -32.5460   23.8520 C   0  0  0  0  0  3  0  0  0  0  0  0
  -26.4070  -31.7890   25.1390 C   0  0  1  0  0  0  0  0  0  0  0  0
  -25.3130  -31.5610   26.2080 C   0  0  0  0  0  1  0  0  0  0  0  0
  -26.9960  -30.4090   24.7640 C   0  0  0  0  0  1  0  0  0  0  0  0
  -27.5530  -32.5940   25.7960 C   0  0  0  0  0  1  0  0  0  0  0  0
  -25.5790  -33.9470   24.1730 N   0  0  0  0  0  0  0  0  0  0  0  0
  -25.9080  -34.9990   23.4120 C   0  0  0  0  0  0  0  0  0  0  0  0
  -26.5800  -34.8940   22.3800 O   0  0  0  0  0  0  0  0  0  0  0  0
  -24.9870  -34.1050   24.9750 H   0  0  0  0  0  0  0  0  0  0  0  0
  -24.1820  -36.7920   23.0480 C   0  0  0  0  0  1  0  0  0  0  0  0
  -25.4200  -36.3890   23.8650 C   0  0  0  0  0  3  0  0  0  0  0  0
  -27.5520  -37.2780   24.6990 C   0  0  0  0  0  1  0  0  0  0  0  0
  -26.4520  -37.4420   23.7520 N   0  0  0  0  0  0  0  0  0  0  0  0
  -26.0460  -38.3620   23.8950 H   0  0  0  0  0  0  0  0  0  0  0  0
  2  5  1  0
  3  1  1  0
  4 46  1  0
  4  2  1  0
  4  6  1  0
  5 16  1  0
  5  1  1  0
  6  7  1  1
  6  3  1  0
  8 16  1  0
  9 14  1  0
 10 11  1  0
 10  9  1  0
 12 11  1  0
 12 21  1  0
 12 13  1  0
 14  8  1  0
 14 13  1  0
 15  8  2  0
 16 17  1  0
 18 19  2  0
 19 38  1  0
 20 19  1  0
 20 23  1  0
 21 18  1  0
 21 22  1  0
 22 20  2  0
 23 24  1  0
 24 25  2  0
 26 29  1  0
 26 25  1  0
 27 26  2  0
 28 27  1  0
 28 23  2  0
 29 30  1  0
 30 31  1  0
 31 32  2  0
 33 32  1  0
 33 37  1  0
 34 33  2  0
 35 30  2  0
 35 34  1  0
 36 35  1  0
 38 39  1  0
 39 42  1  0
 39 41  1  0
 40 38  2  0
 43 44  1  0
 43 18  1  0
 45 43  1  0
 47 46  2  0
 48 47  1  0
 49  6  1  0
 49 50  1  0
 51 52  1  0
 51 50  1  0
 53 64  2  0
 54 52  1  0
 54 59  1  0
 55 63  1  0
 55 65  1  0
 56 62  1  0
 56 58  1  0
 57 63  1  0
 58 59  2  0
 58 57  1  0
 60 54  2  0
 61 60  1  0
 61 56  2  0
 62 55  1  0
 63 53  1  0
 65 67  2  0
 66 65  1  0
 68 66  1  0
 69 78  2  0
 69 74  1  0
 70 66  1  0
 70 74  1  0
 71 70  1  0
 72 73  1  0
 72 71  1  0
 73 69  1  0
 74 75  2  0
 75 76  1  0
 77 76  2  0
 78 77  1  0
 79 53  1  0
 79 84  1  0
 79 80  1  0
 80 83  1  1
 80 81  1  0
 82 80  1  0
 84 87  1  0
 85 89  1  0
 85 84  1  0
 86 85  2  0
 89 88  1  0
 91 89  1  0
 91 92  1  0
 91 90  1  0
M  ISO  4   8 100  16 100  51 101  52 101
M  END
>  <TORSDO>  (79) 
F 20

>  <SCORE>  (79) 
-13.635

>  <name>  (79) 
78

>  <ligand_id>  (79) 
78

>  <original_smiles>  (79) 
[H]N=C([H])C1([H])C([H])([H])C([H])(N([H])C(=O)N2C([H])([H])C([H])([H])C([H])([H])C([H])(n3nc(-c4c([H])c([H])c(Oc5c([H])c([H])c(F)c([H])c5F)c([H])c4[H])c(C(=O)N([H])[H])c3N([H])[H])C2([H])[H])C([H])([H])C([H])([H])[N+]1([H])C([H])([H])C([H])([H])C([H])([H])Oc1c([H])c([H])c2c(c1[H])C([H])([H])N(C(=O)C([H])(N([H])C(=O)C([H])(N([H])C([H])([H])[H])C([H])([H])[H])C(C([H])([H])[H])(C([H])([H])[H])C([H])([H])[H])C([H])(C(=O)N([H])C1([H])c3c([H])c([H])c([H])c([H])c3C([H])([H])C([H])([H])C1([H])[H])C2([H])[H]

>  <smiles>  (79) 
[H]N=C([H])C1([H])C([H])([H])C([H])(N([H])C(=O)N2C([H])([H])C([H])([H])C([H])([H])C([H])(n3nc(-c4c([H])c([H])c(Oc5c([H])c([H])c(F)c([H])c5F)c([H])c4[H])c(C(=O)N([H])[H])c3N([H])[H])C2([H])[H])C([H])([H])C([H])([H])[N+]1([H])C([H])([H])C([H])([H])C([H])([H])Oc1c([H])c([H])c2c(c1[H])C([H])([H])N(C(=O)C([H])(N([H])C(=O)C([H])(N([H])C([H])([H])[H])C([H])([H])[H])C(C([H])([H])[H])(C([H])([H])[H])C([H])([H])[H])C([H])(C(=O)N([H])C1([H])c3c([H])c([H])c([H])c([H])c3C([H])([H])C([H])([H])C1([H])[H])C2([H])[H]

$$$$
79:0:0
     RDKit          3D

 90 98  0  0  1  0  0  0  0  0999 V2000
  -30.4230  -19.4220   20.1100 C   0  0  0  0  0  2  0  0  0  0  0  0
  -28.0590  -18.8340   20.3310 C   0  0  0  0  0  2  0  0  0  0  0  0
  -30.0550  -20.8940   19.7370 C   0  0  0  0  0  2  0  0  0  0  0  0
  -27.6470  -20.3010   19.9650 C   0  0  0  0  0  2  0  0  0  0  0  0
  -29.3510  -18.4340   19.6010 C   0  0  0  0  0  3  0  0  0  0  0  0
  -28.6970  -21.3590   20.1750 N   0  0  2  0  0  4  0  0  0  0  0  0
  -28.7410  -21.5060   21.1720 H   0  0  0  0  0  0  0  0  0  0  0  0
  -30.8420  -16.8000   18.3730 C   0  0  0  0  0  1  0  0  0  0  0  0
  -29.7250  -16.8940   19.4390 C   0  0  0  0  0  3  0  0  0  0  0  0
  -29.9690  -15.9630   20.7060 C   0  0  0  0  0  2  0  0  0  0  0  0
  -30.6740  -14.5760   20.4320 C   0  0  0  0  0  0  0  0  0  0  0  0
  -30.3880  -12.3580   19.3890 C   0  0  0  0  0  2  0  0  0  0  0  0
  -29.4840  -12.5460   18.1520 C   0  0  0  0  0  2  0  0  0  0  0  0
  -27.9970  -12.4340   18.5440 C   0  0  0  0  0  2  0  0  0  0  0  0
  -27.6380  -13.2900   19.7890 C   0  0  0  0  0  3  0  0  0  0  0  0
  -28.6710  -13.1120   20.9200 C   0  0  0  0  0  2  0  0  0  0  0  0
  -30.0000  -13.3900   20.3700 N   0  0  0  0  0  0  0  0  0  0  0  0
  -31.8670  -14.6240   20.1210 O   0  0  0  0  0  0  0  0  0  0  0  0
  -25.2370  -13.9160   20.4530 C   0  0  0  0  0  0  0  0  0  0  0  0
  -24.1570  -13.1570   20.8130 C   0  0  0  0  0  0  0  0  0  0  0  0
  -24.6070  -11.8010   20.8110 C   0  0  0  0  0  0  0  0  0  0  0  0
  -26.2780  -13.0240   20.2520 N   0  0  0  0  0  0  0  0  0  0  0  0
  -25.9040  -11.7470   20.5280 N   0  0  0  0  0  0  0  0  0  0  0  0
  -23.8650  -10.5480   21.0070 C   0  0  0  0  0  0  0  0  0  0  0  0
  -24.2810   -9.5810   21.9490 C   0  0  0  0  0  3  0  0  0  0  0  0
  -23.5400   -8.3940   22.1320 C   0  0  0  0  0  3  0  0  0  0  0  0
  -22.3690   -8.1640   21.3730 C   0  0  0  0  0  0  0  0  0  0  0  0
  -21.9710   -9.1200   20.4210 C   0  0  0  0  0  3  0  0  0  0  0  0
  -22.7130  -10.2990   20.2360 C   0  0  0  0  0  3  0  0  0  0  0  0
  -21.6000   -7.0290   21.4640 O   0  0  0  0  0  0  0  0  0  0  0  0
  -21.5480   -6.2850   22.6160 C   0  0  0  0  0  0  0  0  0  0  0  0
  -21.1520   -6.8470   23.8480 C   0  0  0  0  0  3  0  0  0  0  0  0
  -21.0440   -6.0310   24.9920 C   0  0  0  0  0  3  0  0  0  0  0  0
  -21.3220   -4.6550   24.9040 C   0  0  0  0  0  0  0  0  0  0  0  0
  -21.7120   -4.0920   23.6760 C   0  0  0  0  0  3  0  0  0  0  0  0
  -21.8210   -4.9050   22.5350 C   0  0  0  0  0  0  0  0  0  0  0  0
  -22.1760   -4.3530   21.3490 F   0  0  0  0  0  0  0  0  0  0  0  0
  -21.2130   -3.8690   26.0020 F   0  0  0  0  0  0  0  0  0  0  0  0
  -22.7590  -13.6500   21.0500 C   0  0  0  0  0  0  0  0  0  0  0  0
  -22.0080  -12.9750   21.9130 N   0  0  0  0  0  0  0  0  0  0  0  0
  -22.3400  -14.6700   20.5050 O   0  0  0  0  0  0  0  0  0  0  0  0
  -22.3600  -12.1510   22.3770 H   0  0  0  0  0  0  0  0  0  0  0  0
  -21.0690  -13.2870   22.1140 H   0  0  0  0  0  0  0  0  0  0  0  0
  -25.4190  -15.2830   20.2600 N   0  0  0  0  0  0  0  0  0  0  0  0
  -24.6600  -15.9480   20.3460 H   0  0  0  0  0  0  0  0  0  0  0  0
  -26.2870  -15.7070   19.9580 H   0  0  0  0  0  0  0  0  0  0  0  0
  -28.3090  -22.6840   19.5360 C   0  0  0  0  0  2  0  0  0  0  0  0
  -28.5140  -24.0110   20.3630 C   0  0  0  0  0  2  0  0  0  0  0  0
  -28.5280  -25.3230   19.4890 C   0  0  0  0  0  2  0  0  0  0  0  0
  -28.4100  -26.6110   20.1720 O   0  0  0  0  0  0  0  0  0  0  0  0
  -24.6030  -31.8680   23.2220 C   0  0  0  0  0  0  0  0  0  0  0  0
  -27.2350  -27.3630   20.1400 C   0  0  0  0  0  0  0  0  0  0  0  0
  -23.4000  -30.4720   21.5750 C   0  0  0  0  0  3  0  0  0  0  0  0
  -24.8520  -28.9280   20.1510 C   0  0  0  0  0  0  0  0  0  0  0  0
  -25.9370  -30.8050   21.3940 C   0  0  0  0  0  2  0  0  0  0  0  0
  -26.0160  -29.4330   20.7430 C   0  0  0  0  0  0  0  0  0  0  0  0
  -27.2070  -28.6590   20.7290 C   0  0  0  0  0  3  0  0  0  0  0  0
  -26.0370  -26.8840   19.5620 C   0  0  0  0  0  3  0  0  0  0  0  0
  -24.8610  -27.6580   19.5580 C   0  0  0  0  0  3  0  0  0  0  0  0
  -23.6150  -29.7990   20.1940 C   0  0  0  0  0  2  0  0  0  0  0  0
  -24.6650  -31.0650   22.1210 N   0  0  0  0  0  0  0  0  0  0  0  0
  -23.5180  -32.1420   23.7560 O   0  0  0  0  0  0  0  0  0  0  0  0
  -22.7430  -29.4500   22.5320 C   0  0  0  0  0  0  0  0  0  0  0  0
  -21.4190  -29.2660   22.3980 N   0  0  0  0  0  0  0  0  0  0  0  0
  -23.4210  -28.8250   23.3520 O   0  0  0  0  0  0  0  0  0  0  0  0
  -20.9340  -29.8220   21.7090 H   0  0  0  0  0  0  0  0  0  0  0  0
  -18.0450  -28.0530   22.8710 C   0  0  0  0  0  0  0  0  0  0  0  0
  -20.5980  -28.3270   23.1650 C   0  0  0  0  0  3  0  0  0  0  0  0
  -20.7140  -26.8940   22.5950 C   0  0  0  0  0  2  0  0  0  0  0  0
  -19.6230  -26.5610   21.5720 C   0  0  0  0  0  2  0  0  0  0  0  0
  -18.2340  -26.7020   22.2030 C   0  0  0  0  0  2  0  0  0  0  0  0
  -19.1560  -28.8230   23.3080 C   0  0  0  0  0  0  0  0  0  0  0  0
  -18.9250  -30.0870   23.8940 C   0  0  0  0  0  3  0  0  0  0  0  0
  -17.6160  -30.5820   24.0460 C   0  0  0  0  0  3  0  0  0  0  0  0
  -16.5190  -29.8110   23.6240 C   0  0  0  0  0  3  0  0  0  0  0  0
  -16.7340  -28.5480   23.0430 C   0  0  0  0  0  3  0  0  0  0  0  0
  -25.8860  -32.4980   23.8460 C   0  0  0  0  0  3  0  0  0  0  0  0
  -25.5770  -33.8980   24.1750 N   0  0  0  0  0  0  0  0  0  0  0  0
  -25.9150  -34.9490   23.4180 C   0  0  0  0  0  0  0  0  0  0  0  0
  -26.5900  -34.8440   22.3890 O   0  0  0  0  0  0  0  0  0  0  0  0
  -24.9800  -34.0530   24.9740 H   0  0  0  0  0  0  0  0  0  0  0  0
  -24.1930  -36.7470   23.0480 C   0  0  0  0  0  1  0  0  0  0  0  0
  -25.4270  -36.3390   23.8710 C   0  0  0  0  0  3  0  0  0  0  0  0
  -27.5570  -37.2160   24.7200 C   0  0  0  0  0  1  0  0  0  0  0  0
  -26.4630  -37.3890   23.7690 N   0  0  0  0  0  0  0  0  0  0  0  0
  -26.0580  -38.3110   23.9140 H   0  0  0  0  0  0  0  0  0  0  0  0
  -26.3980  -31.7280   25.1250 C   0  0  1  0  0  0  0  0  0  0  0  0
  -25.3010  -31.4940   26.1900 C   0  0  0  0  0  1  0  0  0  0  0  0
  -26.9790  -30.3480   24.7360 C   0  0  0  0  0  1  0  0  0  0  0  0
  -27.5480  -32.5210   25.7880 C   0  0  0  0  0  1  0  0  0  0  0  0
  3  1  1  0
  3  6  1  0
  4  6  1  0
  4  2  1  0
  5  9  1  0
  5  1  1  0
  5  2  1  0
  6  7  1  1
  9  8  1  0
  9 10  1  0
 11 10  1  0
 12 17  1  0
 13 14  1  0
 13 12  1  0
 15 14  1  0
 15 22  1  0
 15 16  1  0
 17 11  1  0
 17 16  1  0
 18 11  2  0
 19 20  2  0
 20 39  1  0
 21 20  1  0
 21 24  1  0
 22 19  1  0
 22 23  1  0
 23 21  2  0
 24 25  1  0
 25 26  2  0
 27 30  1  0
 27 26  1  0
 28 27  2  0
 29 28  1  0
 29 24  2  0
 30 31  1  0
 31 32  1  0
 32 33  2  0
 34 33  1  0
 34 38  1  0
 35 34  2  0
 36 31  2  0
 36 35  1  0
 37 36  1  0
 39 40  1  0
 40 43  1  0
 40 42  1  0
 41 39  2  0
 44 45  1  0
 44 19  1  0
 46 44  1  0
 47  6  1  0
 47 48  1  0
 49 50  1  0
 49 48  1  0
 51 62  2  0
 52 50  1  0
 52 57  1  0
 53 61  1  0
 53 63  1  0
 54 60  1  0
 54 56  1  0
 55 61  1  0
 56 55  1  0
 57 56  2  0
 58 52  2  0
 59 58  1  0
 59 54  2  0
 60 53  1  0
 61 51  1  0
 63 65  2  0
 64 63  1  0
 66 64  1  0
 67 76  2  0
 67 72  1  0
 68 64  1  0
 68 72  1  0
 69 68  1  0
 70 71  1  0
 70 69  1  0
 71 67  1  0
 72 73  2  0
 73 74  1  0
 75 74  2  0
 76 75  1  0
 77 51  1  0
 77 78  1  0
 77 87  1  0
 78 81  1  0
 79 83  1  0
 79 78  1  0
 80 79  2  0
 83 82  1  0
 85 83  1  0
 85 86  1  0
 85 84  1  0
 87 90  1  1
 87 88  1  0
 89 87  1  0
M  ISO  4  10 100  11 100  49 101  50 101
M  END
>  <TORSDO>  (80) 
F 21

>  <SCORE>  (80) 
-13.234

>  <name>  (80) 
79

>  <ligand_id>  (80) 
79

>  <original_smiles>  (80) 
[H]c1c([H])c([H])c2c(c1[H])C([H])([H])C([H])([H])C([H])([H])C2([H])N([H])C(=O)C1([H])N(C(=O)C([H])(N([H])C(=O)C([H])(N([H])C([H])([H])[H])C([H])([H])[H])C(C([H])([H])[H])(C([H])([H])[H])C([H])([H])[H])C([H])([H])c2c([H])c(OC([H])([H])C([H])([H])C([H])([H])[N+]3([H])C([H])([H])C([H])([H])C([H])(C([H])(C([H])([H])[H])C([H])([H])C(=O)N4C([H])([H])C([H])([H])C([H])([H])C([H])(n5nc(-c6c([H])c([H])c(Oc7c([H])c([H])c(F)c([H])c7F)c([H])c6[H])c(C(=O)N([H])[H])c5N([H])[H])C4([H])[H])C([H])([H])C3([H])[H])c([H])c([H])c2C1([H])[H]

>  <smiles>  (80) 
[H]c1c([H])c([H])c2c(c1[H])C([H])([H])C([H])([H])C([H])([H])C2([H])N([H])C(=O)C1([H])N(C(=O)C([H])(N([H])C(=O)C([H])(N([H])C([H])([H])[H])C([H])([H])[H])C(C([H])([H])[H])(C([H])([H])[H])C([H])([H])[H])C([H])([H])c2c([H])c(OC([H])([H])C([H])([H])C([H])([H])[N+]3([H])C([H])([H])C([H])([H])C([H])(C([H])(C([H])([H])[H])C([H])([H])C(=O)N4C([H])([H])C([H])([H])C([H])([H])C([H])(n5nc(-c6c([H])c([H])c(Oc7c([H])c([H])c(F)c([H])c7F)c([H])c6[H])c(C(=O)N([H])[H])c5N([H])[H])C4([H])[H])C([H])([H])C3([H])[H])c([H])c([H])c2C1([H])[H]

$$$$
80:0:0
     RDKit          3D

 93101  0  0  1  0  0  0  0  0999 V2000
  -30.7850  -20.3740   19.2830 C   0  0  0  0  0  2  0  0  0  0  0  0
  -29.0550  -20.1390   20.9870 C   0  0  0  0  0  2  0  0  0  0  0  0
  -29.8800  -21.6070   18.7900 C   0  0  0  0  0  2  0  0  0  0  0  0
  -30.2100  -19.3000   20.3140 C   0  0  0  0  0  3  0  0  0  0  0  0
  -29.2930  -21.7290   21.1530 C   0  0  0  0  0  3  0  0  0  0  0  0
  -29.2660  -22.5040   19.8460 N   0  0  1  0  0  4  0  0  0  0  0  0
  -28.2920  -22.5220   19.5840 H   0  0  0  0  0  0  0  0  0  0  0  0
  -28.8460  -22.4040   23.6000 C   0  0  0  0  0  1  0  0  0  0  0  0
  -28.2900  -22.3220   22.1690 C   0  0  0  0  0  2  0  0  0  0  0  0
  -29.6910  -24.0230   19.8530 C   0  0  0  0  0  3  0  0  0  0  0  0
  -28.6090  -25.2360   19.5690 C   0  0  0  0  0  3  0  0  0  0  0  0
  -28.8170  -26.7030   19.9600 O   0  0  0  0  0  0  0  0  0  0  0  0
  -24.8560  -31.5490   23.7400 C   0  0  0  0  0  0  0  0  0  0  0  0
  -27.7130  -27.6080   20.0110 C   0  0  0  0  0  0  0  0  0  0  0  0
  -23.7660  -30.4490   21.8210 C   0  0  0  0  0  3  0  0  0  0  0  0
  -25.3190  -29.2160   20.1950 C   0  0  0  0  0  0  0  0  0  0  0  0
  -26.3090  -30.8270   21.8170 C   0  0  0  0  0  2  0  0  0  0  0  0
  -26.4550  -29.5880   20.9260 C   0  0  0  0  0  0  0  0  0  0  0  0
  -27.6530  -28.8000   20.8230 C   0  0  0  0  0  3  0  0  0  0  0  0
  -26.5510  -27.3270   19.2570 C   0  0  0  0  0  3  0  0  0  0  0  0
  -25.3760  -28.0990   19.3500 C   0  0  0  0  0  3  0  0  0  0  0  0
  -24.0590  -30.0480   20.3520 C   0  0  0  0  0  2  0  0  0  0  0  0
  -24.9930  -30.9510   22.5190 N   0  0  0  0  0  0  0  0  0  0  0  0
  -23.7420  -31.7010   24.2650 O   0  0  0  0  0  0  0  0  0  0  0  0
  -23.0930  -29.2590   22.5500 C   0  0  0  0  0  0  0  0  0  0  0  0
  -21.7810  -29.0690   22.3230 N   0  0  0  0  0  0  0  0  0  0  0  0
  -23.7530  -28.5170   23.2820 O   0  0  0  0  0  0  0  0  0  0  0  0
  -21.3050  -29.7260   21.7190 H   0  0  0  0  0  0  0  0  0  0  0  0
  -18.4360  -27.6810   22.4010 C   0  0  0  0  0  0  0  0  0  0  0  0
  -20.9620  -27.9840   22.8690 C   0  0  0  0  0  3  0  0  0  0  0  0
  -21.1620  -26.6770   22.0670 C   0  0  0  0  0  2  0  0  0  0  0  0
  -20.1330  -26.4950   20.9460 C   0  0  0  0  0  2  0  0  0  0  0  0
  -18.7130  -26.4770   21.5170 C   0  0  0  0  0  2  0  0  0  0  0  0
  -19.4930  -28.3970   23.0240 C   0  0  0  0  0  0  0  0  0  0  0  0
  -19.1830  -29.5290   23.8090 C   0  0  0  0  0  3  0  0  0  0  0  0
  -17.8490  -29.9460   23.9750 C   0  0  0  0  0  3  0  0  0  0  0  0
  -16.8060  -29.2250   23.3690 C   0  0  0  0  0  3  0  0  0  0  0  0
  -17.1000  -28.0930   22.5880 C   0  0  0  0  0  3  0  0  0  0  0  0
  -26.0880  -32.0870   24.5270 C   0  0  0  0  0  3  0  0  0  0  0  0
  -25.7630  -33.4440   24.9920 N   0  0  0  0  0  0  0  0  0  0  0  0
  -26.1410  -34.5730   24.3760 C   0  0  0  0  0  0  0  0  0  0  0  0
  -26.8690  -34.5780   23.3800 O   0  0  0  0  0  0  0  0  0  0  0  0
  -25.1220  -33.5150   25.7680 H   0  0  0  0  0  0  0  0  0  0  0  0
  -24.4360  -36.4070   24.1350 C   0  0  0  0  0  1  0  0  0  0  0  0
  -25.6350  -35.9080   24.9580 C   0  0  0  0  0  3  0  0  0  0  0  0
  -27.7240  -36.6850   25.9880 C   0  0  0  0  0  1  0  0  0  0  0  0
  -26.6740  -36.9590   25.0100 N   0  0  0  0  0  0  0  0  0  0  0  0
  -26.2620  -37.8630   25.2310 H   0  0  0  0  0  0  0  0  0  0  0  0
  -26.4960  -31.1710   25.7460 C   0  0  1  0  0  0  0  0  0  0  0  0
  -25.3220  -30.8440   26.6990 C   0  0  0  0  0  1  0  0  0  0  0  0
  -27.0840  -29.8300   25.2500 C   0  0  0  0  0  1  0  0  0  0  0  0
  -27.6070  -31.8620   26.5710 C   0  0  0  0  0  1  0  0  0  0  0  0
  -29.8990  -17.7240   19.8440 C   0  0  0  0  0  0  0  0  0  0  0  0
  -30.8240  -15.3510   20.8360 C   0  0  0  0  0  0  0  0  0  0  0  0
  -30.8440  -12.9310   20.1690 C   0  0  0  0  0  2  0  0  0  0  0  0
  -30.0620  -12.7850   18.8450 C   0  0  0  0  0  2  0  0  0  0  0  0
  -28.5580  -12.5970   19.1170 C   0  0  0  0  0  2  0  0  0  0  0  0
  -28.0110  -13.6070   20.1610 C   0  0  0  0  0  3  0  0  0  0  0  0
  -28.9300  -13.7260   21.3970 C   0  0  0  0  0  2  0  0  0  0  0  0
  -30.2700  -14.0830   20.9140 N   0  0  0  0  0  0  0  0  0  0  0  0
  -32.0320  -15.4530   20.6040 O   0  0  0  0  0  0  0  0  0  0  0  0
  -29.9730  -16.4680   20.7740 N   0  0  0  0  0  4  0  0  0  0  0  0
  -29.0680  -16.2470   21.1640 H   0  0  0  0  0  0  0  0  0  0  0  0
  -25.5660  -14.1970   20.6500 C   0  0  0  0  0  0  0  0  0  0  0  0
  -24.4700  -13.4260   20.9230 C   0  0  0  0  0  0  0  0  0  0  0  0
  -24.9330  -12.0750   20.9480 C   0  0  0  0  0  0  0  0  0  0  0  0
  -26.6280  -13.3170   20.5250 N   0  0  0  0  0  0  0  0  0  0  0  0
  -26.2490  -12.0350   20.7670 N   0  0  0  0  0  0  0  0  0  0  0  0
  -24.1900  -10.8140   21.0730 C   0  0  0  0  0  0  0  0  0  0  0  0
  -24.5440   -9.8420   22.0330 C   0  0  0  0  0  3  0  0  0  0  0  0
  -23.8000   -8.6480   22.1530 C   0  0  0  0  0  3  0  0  0  0  0  0
  -22.6870   -8.4180   21.3100 C   0  0  0  0  0  0  0  0  0  0  0  0
  -22.3510   -9.3800   20.3400 C   0  0  0  0  0  3  0  0  0  0  0  0
  -23.0960  -10.5650   20.2210 C   0  0  0  0  0  3  0  0  0  0  0  0
  -21.9220   -7.2760   21.3360 O   0  0  0  0  0  0  0  0  0  0  0  0
  -21.7850   -6.5280   22.4780 C   0  0  0  0  0  0  0  0  0  0  0  0
  -21.2560   -7.0740   23.6680 C   0  0  0  0  0  3  0  0  0  0  0  0
  -21.0670   -6.2510   24.7960 C   0  0  0  0  0  3  0  0  0  0  0  0
  -21.3960   -4.8830   24.7350 C   0  0  0  0  0  0  0  0  0  0  0  0
  -21.9180   -4.3370   23.5500 C   0  0  0  0  0  3  0  0  0  0  0  0
  -22.1080   -5.1560   22.4230 C   0  0  0  0  0  0  0  0  0  0  0  0
  -22.5900   -4.6200   21.2750 F   0  0  0  0  0  0  0  0  0  0  0  0
  -21.2070   -4.0920   25.8170 F   0  0  0  0  0  0  0  0  0  0  0  0
  -23.0540  -13.9080   21.0510 C   0  0  0  0  0  0  0  0  0  0  0  0
  -22.2460  -13.2300   21.8590 N   0  0  0  0  0  0  0  0  0  0  0  0
  -22.6700  -14.9200   20.4680 O   0  0  0  0  0  0  0  0  0  0  0  0
  -22.5670  -12.4100   22.3530 H   0  0  0  0  0  0  0  0  0  0  0  0
  -21.2930  -13.5390   21.9920 H   0  0  0  0  0  0  0  0  0  0  0  0
  -25.7470  -15.5640   20.4720 N   0  0  0  0  0  0  0  0  0  0  0  0
  -24.9720  -16.2180   20.5010 H   0  0  0  0  0  0  0  0  0  0  0  0
  -26.6160  -15.9970   20.1880 H   0  0  0  0  0  0  0  0  0  0  0  0
  -29.6020  -18.0350   17.2820 C   0  0  0  0  0  1  0  0  0  0  0  0
  -30.3990  -17.3660   18.4170 C   0  0  0  0  0  2  0  0  0  0  0  0
  1  4  1  0
  2  5  1  0
  3  1  1  0
  3  6  1  0
  4 53  1  0
  4  2  1  0
  5  9  1  0
  6 10  1  0
  6  5  1  0
  6  7  1  6
  9  8  1  0
 11 10  2  0
 11 12  1  0
 12 14  1  0
 13 24  2  0
 14 19  1  0
 15 23  1  0
 15 25  1  0
 16 22  1  0
 16 18  1  0
 17 23  1  0
 18 17  1  0
 19 18  2  0
 20 21  1  0
 20 14  2  0
 21 16  2  0
 22 15  1  0
 23 13  1  0
 25 27  2  0
 26 25  1  0
 28 26  1  0
 29 38  2  0
 29 34  1  0
 30 26  1  0
 30 34  1  0
 31 30  1  0
 32 33  1  0
 32 31  1  0
 33 29  1  0
 34 35  2  0
 35 36  1  0
 37 36  2  0
 38 37  1  0
 39 13  1  0
 39 40  1  0
 39 49  1  0
 40 43  1  0
 41 45  1  0
 41 40  1  0
 42 41  2  0
 45 44  1  0
 45 47  1  0
 47 48  1  0
 47 46  1  0
 49 52  1  1
 49 50  1  0
 51 49  1  0
 53 62  2  3
 54 60  1  0
 55 60  1  0
 56 57  1  0
 56 55  1  0
 58 57  1  0
 58 67  1  0
 58 59  1  0
 60 59  1  0
 61 54  2  0
 62 54  1  0
 62 63  1  0
 64 65  2  0
 65 66  1  0
 65 84  1  0
 66 69  1  0
 67 64  1  0
 67 68  1  0
 68 66  2  0
 69 70  1  0
 70 71  2  0
 72 75  1  0
 72 71  1  0
 73 72  2  0
 74 73  1  0
 74 69  2  0
 75 76  1  0
 76 77  1  0
 77 78  2  0
 79 78  1  0
 79 83  1  0
 80 79  2  0
 81 76  2  0
 81 80  1  0
 82 81  1  0
 84 85  1  0
 85 88  1  0
 85 87  1  0
 86 84  2  0
 89 90  1  0
 89 64  1  0
 91 89  1  0
 92 93  1  0
 93 53  1  0
M  ISO  4  11 101  12 101  54 100  62 100
M  END
>  <TORSDO>  (81) 
F 21

>  <SCORE>  (81) 
-10.335

>  <name>  (81) 
80

>  <ligand_id>  (81) 
80

>  <original_smiles>  (81) 
[H]c1c([H])c([H])c2c(c1[H])C([H])([H])C([H])([H])C([H])([H])C2([H])N([H])C(=O)C1([H])N(C(=O)C([H])(N([H])C(=O)C([H])(N([H])C([H])([H])[H])C([H])([H])[H])C(C([H])([H])[H])(C([H])([H])[H])C([H])([H])[H])C([H])([H])c2c([H])c(OC([H])([H])C([H])([H])[N+]3([H])C([H])([H])C([H])([H])C([H])(C([H])(N([H])C(=O)N4C([H])([H])C([H])([H])C([H])([H])C([H])(n5nc(-c6c([H])c([H])c(Oc7c([H])c([H])c(F)c([H])c7F)c([H])c6[H])c(C(=O)N([H])[H])c5N([H])[H])C4([H])[H])C([H])([H])C([H])([H])[H])C([H])([H])C3([H])C([H])([H])C([H])([H])[H])c([H])c([H])c2C1([H])[H]

>  <smiles>  (81) 
[H]c1c([H])c([H])c2c(c1[H])C([H])([H])C([H])([H])C([H])([H])C2([H])N([H])C(=O)C1([H])N(C(=O)C([H])(N([H])C(=O)C([H])(N([H])C([H])([H])[H])C([H])([H])[H])C(C([H])([H])[H])(C([H])([H])[H])C([H])([H])[H])C([H])([H])c2c([H])c(OC([H])([H])C([H])([H])[N+]3([H])C([H])([H])C([H])([H])C([H])(C([H])(N([H])C(=O)N4C([H])([H])C([H])([H])C([H])([H])C([H])(n5nc(-c6c([H])c([H])c(Oc7c([H])c([H])c(F)c([H])c7F)c([H])c6[H])c(C(=O)N([H])[H])c5N([H])[H])C4([H])[H])C([H])([H])C([H])([H])[H])C([H])([H])C3([H])C([H])([H])C([H])([H])[H])c([H])c([H])c2C1([H])[H]

$$$$
81:0:0
     RDKit          3D

 92100  0  0  1  0  0  0  0  0999 V2000
  -29.2650  -20.3930   19.0560 C   0  0  0  0  0  2  0  0  0  0  0  0
  -28.3970  -21.7900   19.0960 C   0  0  0  0  0  2  0  0  0  0  0  0
  -29.1920  -20.4670   21.4550 C   0  0  0  0  0  2  0  0  0  0  0  0
  -29.1630  -19.3470   20.2690 C   0  0  0  0  0  3  0  0  0  0  0  0
  -28.8640  -23.0260   20.0160 C   0  0  0  0  0  3  0  0  0  0  0  0
  -29.3690  -22.1290   21.2880 C   0  0  0  0  0  3  0  0  0  0  0  0
  -30.5400  -15.2760   20.2560 C   0  0  0  0  0  0  0  0  0  0  0  0
  -30.4660  -12.8650   19.3680 C   0  0  0  0  0  2  0  0  0  0  0  0
  -29.5340  -12.7070   18.1460 C   0  0  0  0  0  2  0  0  0  0  0  0
  -28.0850  -12.4530   18.5980 C   0  0  0  0  0  2  0  0  0  0  0  0
  -27.6520  -13.4080   19.7390 C   0  0  0  0  0  3  0  0  0  0  0  0
  -28.7130  -13.5270   20.8540 C   0  0  0  0  0  2  0  0  0  0  0  0
  -29.9490  -13.9950   20.2130 N   0  0  0  0  0  0  0  0  0  0  0  0
  -31.7560  -15.2670   20.0280 O   0  0  0  0  0  0  0  0  0  0  0  0
  -30.1360  -17.9330   20.3050 C   0  0  0  0  0  0  0  0  0  0  0  0
  -29.7770  -16.5200   20.3440 N   0  0  0  0  0  0  0  0  0  0  0  0
  -31.3390  -18.2050   20.2810 O   0  0  0  0  0  0  0  0  0  0  0  0
  -28.7840  -16.3700   20.4210 H   0  0  0  0  0  0  0  0  0  0  0  0
  -25.2870  -13.9570   20.5330 C   0  0  0  0  0  0  0  0  0  0  0  0
  -24.2320  -13.1710   20.9030 C   0  0  0  0  0  0  0  0  0  0  0  0
  -24.7010  -11.8230   20.8430 C   0  0  0  0  0  0  0  0  0  0  0  0
  -26.3290  -13.0870   20.2600 N   0  0  0  0  0  0  0  0  0  0  0  0
  -25.9880  -11.7970   20.5160 N   0  0  0  0  0  0  0  0  0  0  0  0
  -23.9790  -10.5550   21.0200 C   0  0  0  0  0  0  0  0  0  0  0  0
  -24.3980   -9.5900   21.9620 C   0  0  0  0  0  3  0  0  0  0  0  0
  -23.6730   -8.3900   22.1290 C   0  0  0  0  0  3  0  0  0  0  0  0
  -22.5150   -8.1460   21.3530 C   0  0  0  0  0  0  0  0  0  0  0  0
  -22.1160   -9.1000   20.4000 C   0  0  0  0  0  3  0  0  0  0  0  0
  -22.8410  -10.2910   20.2320 C   0  0  0  0  0  3  0  0  0  0  0  0
  -21.7650   -6.9970   21.4270 O   0  0  0  0  0  0  0  0  0  0  0  0
  -21.6600   -6.2800   22.5930 C   0  0  0  0  0  0  0  0  0  0  0  0
  -21.1200   -6.8440   23.7680 C   0  0  0  0  0  3  0  0  0  0  0  0
  -20.9660   -6.0530   24.9230 C   0  0  0  0  0  3  0  0  0  0  0  0
  -21.3420   -4.6960   24.9020 C   0  0  0  0  0  0  0  0  0  0  0  0
  -21.8750   -4.1310   23.7300 C   0  0  0  0  0  3  0  0  0  0  0  0
  -22.0310   -4.9210   22.5780 C   0  0  0  0  0  0  0  0  0  0  0  0
  -22.5250   -4.3660   21.4450 F   0  0  0  0  0  0  0  0  0  0  0  0
  -21.1880   -3.9330   26.0100 F   0  0  0  0  0  0  0  0  0  0  0  0
  -22.8370  -13.6400   21.1940 C   0  0  0  0  0  0  0  0  0  0  0  0
  -22.1220  -12.9380   22.0640 N   0  0  0  0  0  0  0  0  0  0  0  0
  -22.3900  -14.6680   20.6840 O   0  0  0  0  0  0  0  0  0  0  0  0
  -22.4950  -12.1060   22.4970 H   0  0  0  0  0  0  0  0  0  0  0  0
  -21.1860  -13.2350   22.3010 H   0  0  0  0  0  0  0  0  0  0  0  0
  -25.4440  -15.3310   20.3730 N   0  0  0  0  0  0  0  0  0  0  0  0
  -24.6730  -15.9770   20.5030 H   0  0  0  0  0  0  0  0  0  0  0  0
  -26.2680  -15.7740   19.9880 H   0  0  0  0  0  0  0  0  0  0  0  0
  -29.0410  -22.8060   22.5560 N   0  0  0  0  0  4  0  0  0  0  0  0
  -28.0540  -22.7770   22.7430 H   0  0  0  0  0  0  0  0  0  0  0  0
  -29.3360  -23.7660   22.5310 H   0  0  0  0  0  0  0  0  0  0  0  0
  -29.5180  -22.3630   23.3210 H   0  0  0  0  0  0  0  0  0  0  0  0
  -27.9330  -24.5270   20.0450 C   0  0  0  0  0  2  0  0  0  0  0  0
  -28.2440  -26.1020   20.1610 O   0  0  0  0  0  0  0  0  0  0  0  0
  -24.7030  -31.8940   23.3020 C   0  0  0  0  0  0  0  0  0  0  0  0
  -27.2190  -27.1580   20.1340 C   0  0  0  0  0  0  0  0  0  0  0  0
  -23.4840  -30.5430   21.6420 C   0  0  0  0  0  3  0  0  0  0  0  0
  -24.9110  -28.9870   20.1620 C   0  0  0  0  0  0  0  0  0  0  0  0
  -26.0440  -30.7770   21.4640 C   0  0  0  0  0  2  0  0  0  0  0  0
  -26.1050  -29.3910   20.7770 C   0  0  0  0  0  0  0  0  0  0  0  0
  -27.2560  -28.4970   20.7390 C   0  0  0  0  0  3  0  0  0  0  0  0
  -25.9960  -26.8870   19.4800 C   0  0  0  0  0  3  0  0  0  0  0  0
  -24.8770  -27.7540   19.4950 C   0  0  0  0  0  3  0  0  0  0  0  0
  -23.6930  -29.8990   20.2460 C   0  0  0  0  0  2  0  0  0  0  0  0
  -24.7650  -31.0940   22.1910 N   0  0  0  0  0  0  0  0  0  0  0  0
  -23.6220  -32.1700   23.8450 O   0  0  0  0  0  0  0  0  0  0  0  0
  -22.8050  -29.5190   22.5880 C   0  0  0  0  0  0  0  0  0  0  0  0
  -21.4790  -29.3330   22.4500 N   0  0  0  0  0  0  0  0  0  0  0  0
  -23.4760  -28.8930   23.4120 O   0  0  0  0  0  0  0  0  0  0  0  0
  -20.9910  -29.8920   21.7630 H   0  0  0  0  0  0  0  0  0  0  0  0
  -18.1130  -28.0640   22.9050 C   0  0  0  0  0  0  0  0  0  0  0  0
  -20.6640  -28.3760   23.2030 C   0  0  0  0  0  3  0  0  0  0  0  0
  -20.8000  -26.9500   22.6210 C   0  0  0  0  0  2  0  0  0  0  0  0
  -19.7160  -26.6140   21.5900 C   0  0  0  0  0  2  0  0  0  0  0  0
  -18.3250  -26.7260   22.2180 C   0  0  0  0  0  2  0  0  0  0  0  0
  -19.2110  -28.8460   23.3540 C   0  0  0  0  0  0  0  0  0  0  0  0
  -18.9580  -30.0970   23.9580 C   0  0  0  0  0  3  0  0  0  0  0  0
  -17.6400  -30.5670   24.1150 C   0  0  0  0  0  3  0  0  0  0  0  0
  -16.5580  -29.7830   23.6810 C   0  0  0  0  0  3  0  0  0  0  0  0
  -16.7950  -28.5340   23.0810 C   0  0  0  0  0  3  0  0  0  0  0  0
  -25.9860  -32.5140   23.9330 C   0  0  0  0  0  3  0  0  0  0  0  0
  -26.4840  -31.7330   25.2120 C   0  0  1  0  0  0  0  0  0  0  0  0
  -25.3820  -31.5090   26.2750 C   0  0  0  0  0  1  0  0  0  0  0  0
  -27.0490  -30.3480   24.8240 C   0  0  0  0  0  1  0  0  0  0  0  0
  -27.6430  -32.5080   25.8800 C   0  0  0  0  0  1  0  0  0  0  0  0
  -25.6880  -33.9150   24.2770 N   0  0  0  0  0  0  0  0  0  0  0  0
  -25.9890  -34.9720   23.5110 C   0  0  0  0  0  0  0  0  0  0  0  0
  -26.6130  -34.8690   22.4520 O   0  0  0  0  0  0  0  0  0  0  0  0
  -25.1300  -34.0670   25.1040 H   0  0  0  0  0  0  0  0  0  0  0  0
  -24.2410  -36.7660   23.2600 C   0  0  0  0  0  1  0  0  0  0  0  0
  -25.5300  -36.3630   23.9950 C   0  0  0  0  0  3  0  0  0  0  0  0
  -27.7040  -37.2610   24.7010 C   0  0  0  0  0  1  0  0  0  0  0  0
  -26.5510  -37.4170   23.8170 N   0  0  0  0  0  0  0  0  0  0  0  0
  -26.1510  -38.3380   23.9770 H   0  0  0  0  0  0  0  0  0  0  0  0
  1  2  1  0
  1  4  1  0
  2  5  1  0
  4 15  1  0
  4  3  1  0
  5 51  1  0
  5  6  1  0
  6  3  1  0
  6 47  1  0
  7 16  1  0
  8 13  1  0
  9 10  1  0
  9  8  1  0
 11 10  1  0
 11 22  1  0
 11 12  1  0
 13  7  1  0
 13 12  1  0
 14  7  2  0
 15 16  1  0
 16 18  1  0
 17 15  2  0
 19 20  2  0
 20 39  1  0
 21 20  1  0
 21 24  1  0
 22 23  1  0
 22 19  1  0
 23 21  2  0
 24 25  1  0
 25 26  2  0
 27 30  1  0
 27 26  1  0
 28 27  2  0
 29 28  1  0
 29 24  2  0
 30 31  1  0
 31 32  1  0
 32 33  2  0
 34 33  1  0
 34 38  1  0
 35 34  2  0
 36 31  2  0
 36 35  1  0
 37 36  1  0
 39 40  1  0
 40 43  1  0
 40 42  1  0
 41 39  2  0
 44 45  1  0
 44 19  1  0
 46 44  1  0
 47 48  1  0
 47 50  1  0
 49 47  1  0
 51 52  1  0
 53 64  2  0
 54 52  1  0
 54 59  1  0
 55 63  1  0
 55 65  1  0
 56 62  1  0
 56 58  1  0
 57 63  1  0
 58 57  1  0
 59 58  2  0
 60 61  1  0
 60 54  2  0
 61 56  2  0
 62 55  1  0
 63 53  1  0
 65 67  2  0
 66 65  1  0
 68 66  1  0
 69 78  2  0
 69 74  1  0
 70 66  1  0
 70 74  1  0
 71 70  1  0
 72 73  1  0
 72 71  1  0
 73 69  1  0
 74 75  2  0
 75 76  1  0
 77 76  2  0
 78 77  1  0
 79 53  1  0
 79 84  1  0
 79 80  1  0
 80 83  1  1
 80 81  1  0
 82 80  1  0
 84 87  1  0
 85 89  1  0
 85 84  1  0
 86 85  2  0
 89 88  1  0
 91 92  1  0
 91 89  1  0
 91 90  1  0
M  ISO  4   7 100  16 100  51 101  52 101
M  END
>  <TORSDO>  (82) 
F 18

>  <SCORE>  (82) 
-15.969

>  <name>  (82) 
81

>  <ligand_id>  (82) 
81

>  <original_smiles>  (82) 
[H]c1c([H])c([H])c2c(c1[H])C([H])([H])C([H])([H])C([H])([H])C2([H])N([H])C(=O)C1([H])N(C(=O)C([H])(N([H])C(=O)C([H])(N([H])C([H])([H])[H])C([H])([H])[H])C(C([H])([H])[H])(C([H])([H])[H])C([H])([H])[H])C([H])([H])c2c([H])c(OC([H])([H])C3([H])C([H])([H])C([H])([H])C([H])(C(=O)N([H])C(=O)N4C([H])([H])C([H])([H])C([H])([H])C([H])(n5nc(-c6c([H])c([H])c(Oc7c([H])c([H])c(F)c([H])c7F)c([H])c6[H])c(C(=O)N([H])[H])c5N([H])[H])C4([H])[H])C([H])([H])C3([H])[N+]([H])([H])[H])c([H])c([H])c2C1([H])[H]

>  <smiles>  (82) 
[H]c1c([H])c([H])c2c(c1[H])C([H])([H])C([H])([H])C([H])([H])C2([H])N([H])C(=O)C1([H])N(C(=O)C([H])(N([H])C(=O)C([H])(N([H])C([H])([H])[H])C([H])([H])[H])C(C([H])([H])[H])(C([H])([H])[H])C([H])([H])[H])C([H])([H])c2c([H])c(OC([H])([H])C3([H])C([H])([H])C([H])([H])C([H])(C(=O)N([H])C(=O)N4C([H])([H])C([H])([H])C([H])([H])C([H])(n5nc(-c6c([H])c([H])c(Oc7c([H])c([H])c(F)c([H])c7F)c([H])c6[H])c(C(=O)N([H])[H])c5N([H])[H])C4([H])[H])C([H])([H])C3([H])[N+]([H])([H])[H])c([H])c([H])c2C1([H])[H]

$$$$
82:0:0
     RDKit          3D

 88 96  0  0  1  0  0  0  0  0999 V2000
  -28.7490  -20.4240   20.1580 C   0  0  0  0  0  0  0  0  0  0  0  0
  -29.0990  -21.7980   20.3810 N   0  0  0  0  0  0  0  0  0  0  0  0
  -27.5970  -20.2040   19.7840 O   0  0  0  0  0  0  0  0  0  0  0  0
  -30.0270  -21.8960   20.7720 H   0  0  0  0  0  0  0  0  0  0  0  0
  -30.5180  -15.0550   20.3200 C   0  0  0  0  0  0  0  0  0  0  0  0
  -30.4040  -12.6900   19.3840 C   0  0  0  0  0  2  0  0  0  0  0  0
  -29.4820  -12.6060   18.1480 C   0  0  0  0  0  2  0  0  0  0  0  0
  -28.0190  -12.3860   18.5770 C   0  0  0  0  0  2  0  0  0  0  0  0
  -27.5960  -13.3200   19.7410 C   0  0  0  0  0  3  0  0  0  0  0  0
  -28.6450  -13.3760   20.8690 C   0  0  0  0  0  2  0  0  0  0  0  0
  -29.9000  -13.8020   20.2430 N   0  0  0  0  0  0  0  0  0  0  0  0
  -31.7470  -15.0510   20.1590 O   0  0  0  0  0  0  0  0  0  0  0  0
  -30.0530  -18.4830   18.8310 C   0  0  0  0  0  2  0  0  0  0  0  0
  -29.8720  -16.9200   18.7750 C   0  0  0  0  0  2  0  0  0  0  0  0
  -29.4960  -17.5790   20.9460 C   0  0  0  0  0  2  0  0  0  0  0  0
  -29.7510  -19.0680   20.2310 C   0  0  0  0  0  3  0  0  0  0  0  0
  -29.7860  -16.2870   20.1070 N   0  0  0  0  0  0  0  0  0  0  0  0
  -25.2120  -13.8840   20.4650 C   0  0  0  0  0  0  0  0  0  0  0  0
  -24.1500  -13.1050   20.8290 C   0  0  0  0  0  0  0  0  0  0  0  0
  -24.6240  -11.7570   20.8150 C   0  0  0  0  0  0  0  0  0  0  0  0
  -26.2620  -13.0110   20.2400 N   0  0  0  0  0  0  0  0  0  0  0  0
  -25.9190  -11.7270   20.5190 N   0  0  0  0  0  0  0  0  0  0  0  0
  -23.9030  -10.4920   21.0090 C   0  0  0  0  0  0  0  0  0  0  0  0
  -24.3300   -9.5340   21.9550 C   0  0  0  0  0  3  0  0  0  0  0  0
  -23.6070   -8.3350   22.1360 C   0  0  0  0  0  3  0  0  0  0  0  0
  -22.4430   -8.0850   21.3700 C   0  0  0  0  0  0  0  0  0  0  0  0
  -22.0360   -9.0320   20.4150 C   0  0  0  0  0  3  0  0  0  0  0  0
  -22.7590  -10.2220   20.2320 C   0  0  0  0  0  3  0  0  0  0  0  0
  -21.6930   -6.9370   21.4610 O   0  0  0  0  0  0  0  0  0  0  0  0
  -21.6350   -6.2040   22.6180 C   0  0  0  0  0  0  0  0  0  0  0  0
  -21.1870   -6.7660   23.8340 C   0  0  0  0  0  3  0  0  0  0  0  0
  -21.0770   -5.9580   24.9840 C   0  0  0  0  0  3  0  0  0  0  0  0
  -21.4030   -4.5910   24.9190 C   0  0  0  0  0  0  0  0  0  0  0  0
  -21.8440   -4.0290   23.7070 C   0  0  0  0  0  3  0  0  0  0  0  0
  -21.9560   -4.8330   22.5600 C   0  0  0  0  0  0  0  0  0  0  0  0
  -22.3610   -4.2820   21.3910 F   0  0  0  0  0  0  0  0  0  0  0  0
  -21.2910   -3.8130   26.0210 F   0  0  0  0  0  0  0  0  0  0  0  0
  -22.7480  -13.5760   21.0780 C   0  0  0  0  0  0  0  0  0  0  0  0
  -22.0120  -12.8840   21.9400 N   0  0  0  0  0  0  0  0  0  0  0  0
  -22.3100  -14.5940   20.5410 O   0  0  0  0  0  0  0  0  0  0  0  0
  -22.3790  -12.0610   22.3950 H   0  0  0  0  0  0  0  0  0  0  0  0
  -21.0700  -13.1820   22.1500 H   0  0  0  0  0  0  0  0  0  0  0  0
  -25.3720  -15.2540   20.2800 N   0  0  0  0  0  0  0  0  0  0  0  0
  -24.6060  -15.9100   20.3850 H   0  0  0  0  0  0  0  0  0  0  0  0
  -26.2310  -15.6950   19.9750 H   0  0  0  0  0  0  0  0  0  0  0  0
  -28.5230  -23.2010   19.8440 C   0  0  0  0  0  2  0  0  0  0  0  0
  -28.2020  -24.6510   20.6950 C   0  0  0  0  0  2  0  0  0  0  0  0
  -28.3100  -26.1630   20.2570 O   0  0  0  0  0  0  0  0  0  0  0  0
  -24.6240  -31.8770   23.2540 C   0  0  0  0  0  0  0  0  0  0  0  0
  -27.2320  -27.1320   20.2700 C   0  0  0  0  0  0  0  0  0  0  0  0
  -23.4390  -30.4690   21.6140 C   0  0  0  0  0  3  0  0  0  0  0  0
  -24.9000  -28.8820   20.2110 C   0  0  0  0  0  0  0  0  0  0  0  0
  -25.9940  -30.7390   21.4610 C   0  0  0  0  0  2  0  0  0  0  0  0
  -26.0770  -29.3380   20.8190 C   0  0  0  0  0  0  0  0  0  0  0  0
  -27.2460  -28.4810   20.8210 C   0  0  0  0  0  3  0  0  0  0  0  0
  -26.0260  -26.7770   19.6330 C   0  0  0  0  0  3  0  0  0  0  0  0
  -24.8890  -27.6180   19.6010 C   0  0  0  0  0  3  0  0  0  0  0  0
  -23.6710  -29.7810   20.2430 C   0  0  0  0  0  2  0  0  0  0  0  0
  -24.7060  -31.0520   22.1650 N   0  0  0  0  0  0  0  0  0  0  0  0
  -23.5340  -32.1600   23.7740 O   0  0  0  0  0  0  0  0  0  0  0  0
  -22.7570  -29.4660   22.5790 C   0  0  0  0  0  0  0  0  0  0  0  0
  -21.4290  -29.2960   22.4500 N   0  0  0  0  0  0  0  0  0  0  0  0
  -23.4270  -28.8440   23.4070 O   0  0  0  0  0  0  0  0  0  0  0  0
  -20.9450  -29.8480   21.7570 H   0  0  0  0  0  0  0  0  0  0  0  0
  -18.0470  -28.0970   22.9550 C   0  0  0  0  0  0  0  0  0  0  0  0
  -20.6070  -28.3600   23.2210 C   0  0  0  0  0  3  0  0  0  0  0  0
  -20.7080  -26.9270   22.6480 C   0  0  0  0  0  2  0  0  0  0  0  0
  -19.6050  -26.6040   21.6330 C   0  0  0  0  0  2  0  0  0  0  0  0
  -18.2250  -26.7490   22.2770 C   0  0  0  0  0  2  0  0  0  0  0  0
  -19.1660  -28.8600   23.3840 C   0  0  0  0  0  0  0  0  0  0  0  0
  -18.9450  -30.1210   23.9790 C   0  0  0  0  0  3  0  0  0  0  0  0
  -17.6390  -30.6200   24.1490 C   0  0  0  0  0  3  0  0  0  0  0  0
  -16.5350  -29.8540   23.7340 C   0  0  0  0  0  3  0  0  0  0  0  0
  -16.7410  -28.5940   23.1440 C   0  0  0  0  0  3  0  0  0  0  0  0
  -25.8950  -32.5220   23.8860 C   0  0  0  0  0  3  0  0  0  0  0  0
  -25.5770  -33.9250   24.2020 N   0  0  0  0  0  0  0  0  0  0  0  0
  -25.9170  -34.9760   23.4450 C   0  0  0  0  0  0  0  0  0  0  0  0
  -26.5950  -34.8670   22.4190 O   0  0  0  0  0  0  0  0  0  0  0  0
  -24.9750  -34.0820   24.9970 H   0  0  0  0  0  0  0  0  0  0  0  0
  -24.1940  -36.7720   23.0710 C   0  0  0  0  0  1  0  0  0  0  0  0
  -25.4280  -36.3680   23.8920 C   0  0  0  0  0  3  0  0  0  0  0  0
  -27.5570  -37.2570   24.7370 C   0  0  0  0  0  1  0  0  0  0  0  0
  -26.4630  -37.4200   23.7830 N   0  0  0  0  0  0  0  0  0  0  0  0
  -26.0560  -38.3410   23.9210 H   0  0  0  0  0  0  0  0  0  0  0  0
  -26.3930  -31.7680   25.1810 C   0  0  1  0  0  0  0  0  0  0  0  0
  -25.2860  -31.5470   26.2380 C   0  0  0  0  0  1  0  0  0  0  0  0
  -26.9800  -30.3840   24.8210 C   0  0  0  0  0  1  0  0  0  0  0  0
  -27.5370  -32.5700   25.8460 C   0  0  0  0  0  1  0  0  0  0  0  0
  1  2  1  0
  2  4  1  0
  3  1  2  0
  6 11  1  0
  7  8  1  0
  7  6  1  0
  9  8  1  0
  9 21  1  0
  9 10  1  0
 11  5  1  0
 11 10  1  0
 12  5  2  0
 13 16  1  0
 14 13  1  0
 14 17  1  0
 16  1  1  0
 16 15  1  0
 17  5  1  0
 17 15  1  0
 18 19  2  0
 19 38  1  0
 20 19  1  0
 20 23  1  0
 21 18  1  0
 21 22  1  0
 22 20  2  0
 23 24  1  0
 24 25  2  0
 26 29  1  0
 26 25  1  0
 27 26  2  0
 28 27  1  0
 28 23  2  0
 29 30  1  0
 30 31  1  0
 31 32  2  0
 33 32  1  0
 33 37  1  0
 34 33  2  0
 35 30  2  0
 35 34  1  0
 36 35  1  0
 38 39  1  0
 39 42  1  0
 39 41  1  0
 40 38  2  0
 43 44  1  0
 43 18  1  0
 45 43  1  0
 46  2  1  0
 46 47  1  0
 48 50  1  0
 48 47  1  0
 49 60  2  0
 50 55  1  0
 51 59  1  0
 51 61  1  0
 52 58  1  0
 52 54  1  0
 53 59  1  0
 54 55  2  0
 54 53  1  0
 56 50  2  0
 57 56  1  0
 57 52  2  0
 58 51  1  0
 59 49  1  0
 61 63  2  0
 62 61  1  0
 64 62  1  0
 65 74  2  0
 65 70  1  0
 66 62  1  0
 66 70  1  0
 67 66  1  0
 68 69  1  0
 68 67  1  0
 69 65  1  0
 70 71  2  0
 71 72  1  0
 73 72  2  0
 74 73  1  0
 75 49  1  0
 75 76  1  0
 75 85  1  0
 76 79  1  0
 77 81  1  0
 77 76  1  0
 78 77  2  0
 81 80  1  0
 83 81  1  0
 83 84  1  0
 83 82  1  0
 85 88  1  1
 85 86  1  0
 87 85  1  0
M  ISO  4   5 100  17 100  47 101  48 101
M  END
>  <TORSDO>  (83) 
F 18

>  <SCORE>  (83) 
-15.253

>  <name>  (83) 
82

>  <ligand_id>  (83) 
82

>  <original_smiles>  (83) 
[H]c1c([H])c([H])c2c(c1[H])C([H])([H])C([H])([H])C([H])([H])C2([H])N([H])C(=O)C1([H])N(C(=O)C([H])(N([H])C(=O)C([H])(N([H])C([H])([H])[H])C([H])([H])[H])C(C([H])([H])[H])(C([H])([H])[H])C([H])([H])[H])C([H])([H])c2c([H])c(OC([H])([H])C([H])([H])N([H])C(=O)C3([H])C([H])([H])N(C(=O)N4C([H])([H])C([H])([H])C([H])([H])C([H])(n5nc(-c6c([H])c([H])c(Oc7c([H])c([H])c(F)c([H])c7F)c([H])c6[H])c(C(=O)N([H])[H])c5N([H])[H])C4([H])[H])C([H])([H])C3([H])[H])c([H])c([H])c2C1([H])[H]

>  <smiles>  (83) 
[H]c1c([H])c([H])c2c(c1[H])C([H])([H])C([H])([H])C([H])([H])C2([H])N([H])C(=O)C1([H])N(C(=O)C([H])(N([H])C(=O)C([H])(N([H])C([H])([H])[H])C([H])([H])[H])C(C([H])([H])[H])(C([H])([H])[H])C([H])([H])[H])C([H])([H])c2c([H])c(OC([H])([H])C([H])([H])N([H])C(=O)C3([H])C([H])([H])N(C(=O)N4C([H])([H])C([H])([H])C([H])([H])C([H])(n5nc(-c6c([H])c([H])c(Oc7c([H])c([H])c(F)c([H])c7F)c([H])c6[H])c(C(=O)N([H])[H])c5N([H])[H])C4([H])[H])C([H])([H])C3([H])[H])c([H])c([H])c2C1([H])[H]

$$$$
83:0:0
     RDKit          3D

 89 97  0  0  1  0  0  0  0  0999 V2000
  -29.0630  -19.7280   21.5200 C   0  0  0  0  0  2  0  0  0  0  0  0
  -28.8630  -21.3030   21.4830 C   0  0  0  0  0  2  0  0  0  0  0  0
  -29.2820  -19.1290   20.1010 C   0  0  0  0  0  3  0  0  0  0  0  0
  -28.7520  -21.8340   20.0300 C   0  0  0  0  0  3  0  0  0  0  0  0
  -29.5890  -20.5790   19.3750 C   0  0  0  0  0  3  0  0  0  0  0  0
  -29.3920  -20.5060   17.8550 C   0  0  0  0  0  1  0  0  0  0  0  0
  -30.6780  -15.2070   19.9110 C   0  0  0  0  0  0  0  0  0  0  0  0
  -30.5120  -12.8400   18.9960 C   0  0  0  0  0  2  0  0  0  0  0  0
  -29.5190  -12.7670   17.8140 C   0  0  0  0  0  2  0  0  0  0  0  0
  -28.0880  -12.5290   18.3320 C   0  0  0  0  0  2  0  0  0  0  0  0
  -27.7290  -13.4640   19.5170 C   0  0  0  0  0  3  0  0  0  0  0  0
  -28.8450  -13.5240   20.5820 C   0  0  0  0  0  2  0  0  0  0  0  0
  -30.0700  -13.9480   19.8950 N   0  0  0  0  0  0  0  0  0  0  0  0
  -31.8710  -15.2250   19.5850 O   0  0  0  0  0  0  0  0  0  0  0  0
  -30.2870  -17.7940   20.0170 C   0  0  0  0  0  0  0  0  0  0  0  0
  -29.9210  -16.4110   20.0800 N   0  0  0  0  0  0  0  0  0  0  0  0
  -31.4770  -18.0900   19.8810 O   0  0  0  0  0  0  0  0  0  0  0  0
  -28.9410  -16.2580   20.2570 H   0  0  0  0  0  0  0  0  0  0  0  0
  -25.4080  -14.0100   20.4410 C   0  0  0  0  0  0  0  0  0  0  0  0
  -24.3690  -13.2200   20.8480 C   0  0  0  0  0  0  0  0  0  0  0  0
  -24.8260  -11.8710   20.7310 C   0  0  0  0  0  0  0  0  0  0  0  0
  -26.4300  -13.1430   20.0960 N   0  0  0  0  0  0  0  0  0  0  0  0
  -26.0950  -11.8480   20.3380 N   0  0  0  0  0  0  0  0  0  0  0  0
  -24.1100  -10.6020   20.9160 C   0  0  0  0  0  0  0  0  0  0  0  0
  -24.5250   -9.6530   21.8760 C   0  0  0  0  0  3  0  0  0  0  0  0
  -23.8060   -8.4500   22.0500 C   0  0  0  0  0  3  0  0  0  0  0  0
  -22.6610   -8.1880   21.2640 C   0  0  0  0  0  0  0  0  0  0  0  0
  -22.2650   -9.1260   20.2930 C   0  0  0  0  0  3  0  0  0  0  0  0
  -22.9840  -10.3200   20.1180 C   0  0  0  0  0  3  0  0  0  0  0  0
  -21.9170   -7.0350   21.3440 O   0  0  0  0  0  0  0  0  0  0  0  0
  -21.7360   -6.3770   22.5340 C   0  0  0  0  0  0  0  0  0  0  0  0
  -21.0760   -6.9790   23.6260 C   0  0  0  0  0  3  0  0  0  0  0  0
  -20.8510   -6.2420   24.8070 C   0  0  0  0  0  3  0  0  0  0  0  0
  -21.2790   -4.9020   24.8920 C   0  0  0  0  0  0  0  0  0  0  0  0
  -21.9320   -4.3000   23.8030 C   0  0  0  0  0  3  0  0  0  0  0  0
  -22.1580   -5.0350   22.6260 C   0  0  0  0  0  0  0  0  0  0  0  0
  -22.7690   -4.4430   21.5720 F   0  0  0  0  0  0  0  0  0  0  0  0
  -21.0570   -4.1920   26.0230 F   0  0  0  0  0  0  0  0  0  0  0  0
  -22.9930  -13.6860   21.2260 C   0  0  0  0  0  0  0  0  0  0  0  0
  -22.3220  -12.9570   22.1100 N   0  0  0  0  0  0  0  0  0  0  0  0
  -22.5260  -14.7310   20.7740 O   0  0  0  0  0  0  0  0  0  0  0  0
  -22.7180  -12.1110   22.4940 H   0  0  0  0  0  0  0  0  0  0  0  0
  -21.4030  -13.2480   22.4100 H   0  0  0  0  0  0  0  0  0  0  0  0
  -25.5620  -15.3870   20.3100 N   0  0  0  0  0  0  0  0  0  0  0  0
  -24.7950  -16.0280   20.4830 H   0  0  0  0  0  0  0  0  0  0  0  0
  -26.3660  -15.8350   19.8930 H   0  0  0  0  0  0  0  0  0  0  0  0
  -29.0620  -23.4950   19.7940 C   0  0  0  0  0  3  0  0  0  0  0  0
  -27.9860  -24.7940   19.9700 C   0  0  0  0  0  3  0  0  0  0  0  0
  -28.2540  -26.3370   19.8590 O   0  0  0  0  0  0  0  0  0  0  0  0
  -24.6810  -31.8820   23.2130 C   0  0  0  0  0  0  0  0  0  0  0  0
  -27.1890  -27.3190   19.8900 C   0  0  0  0  0  0  0  0  0  0  0  0
  -23.4430  -30.5590   21.5420 C   0  0  0  0  0  3  0  0  0  0  0  0
  -24.8560  -29.0600   20.0060 C   0  0  0  0  0  0  0  0  0  0  0  0
  -25.9900  -30.8430   21.3220 C   0  0  0  0  0  2  0  0  0  0  0  0
  -26.0520  -29.4810   20.6020 C   0  0  0  0  0  0  0  0  0  0  0  0
  -27.2200  -28.6290   20.5230 C   0  0  0  0  0  3  0  0  0  0  0  0
  -25.9650  -27.0090   19.2560 C   0  0  0  0  0  3  0  0  0  0  0  0
  -24.8260  -27.8410   19.3160 C   0  0  0  0  0  3  0  0  0  0  0  0
  -23.6280  -29.9460   20.1290 C   0  0  0  0  0  2  0  0  0  0  0  0
  -24.7270  -31.1140   22.0800 N   0  0  0  0  0  0  0  0  0  0  0  0
  -23.6080  -32.1350   23.7830 O   0  0  0  0  0  0  0  0  0  0  0  0
  -22.7940  -29.5040   22.4760 C   0  0  0  0  0  0  0  0  0  0  0  0
  -21.4690  -29.3080   22.3530 N   0  0  0  0  0  0  0  0  0  0  0  0
  -23.4860  -28.8660   23.2730 O   0  0  0  0  0  0  0  0  0  0  0  0
  -20.9670  -29.8740   21.6840 H   0  0  0  0  0  0  0  0  0  0  0  0
  -18.1180  -28.0290   22.8600 C   0  0  0  0  0  0  0  0  0  0  0  0
  -20.6750  -28.3260   23.0990 C   0  0  0  0  0  3  0  0  0  0  0  0
  -20.7930  -26.9190   22.4650 C   0  0  0  0  0  2  0  0  0  0  0  0
  -19.6800  -26.6190   21.4540 C   0  0  0  0  0  2  0  0  0  0  0  0
  -18.3070  -26.7120   22.1270 C   0  0  0  0  0  2  0  0  0  0  0  0
  -19.2300  -28.7940   23.3030 C   0  0  0  0  0  0  0  0  0  0  0  0
  -18.9970  -30.0260   23.9510 C   0  0  0  0  0  3  0  0  0  0  0  0
  -17.6860  -30.4930   24.1630 C   0  0  0  0  0  3  0  0  0  0  0  0
  -16.5890  -29.7250   23.7350 C   0  0  0  0  0  3  0  0  0  0  0  0
  -16.8060  -28.4950   23.0890 C   0  0  0  0  0  3  0  0  0  0  0  0
  -25.9720  -32.4950   23.8340 C   0  0  0  0  0  3  0  0  0  0  0  0
  -25.6740  -33.8880   24.2060 N   0  0  0  0  0  0  0  0  0  0  0  0
  -25.9530  -34.9580   23.4500 C   0  0  0  0  0  0  0  0  0  0  0  0
  -26.5570  -34.8770   22.3770 O   0  0  0  0  0  0  0  0  0  0  0  0
  -25.1290  -34.0220   25.0450 H   0  0  0  0  0  0  0  0  0  0  0  0
  -24.1840  -36.7400   23.2670 C   0  0  0  0  0  1  0  0  0  0  0  0
  -25.4930  -36.3360   23.9660 C   0  0  0  0  0  3  0  0  0  0  0  0
  -27.6690  -37.2500   24.6450 C   0  0  0  0  0  1  0  0  0  0  0  0
  -26.5020  -37.4020   23.7810 N   0  0  0  0  0  0  0  0  0  0  0  0
  -26.0960  -38.3180   23.9540 H   0  0  0  0  0  0  0  0  0  0  0  0
  -26.4970  -31.6930   25.0880 C   0  0  1  0  0  0  0  0  0  0  0  0
  -25.4100  -31.4190   26.1530 C   0  0  0  0  0  1  0  0  0  0  0  0
  -27.0880  -30.3300   24.6630 C   0  0  0  0  0  1  0  0  0  0  0  0
  -27.6450  -32.4780   25.7670 C   0  0  0  0  0  1  0  0  0  0  0  0
  2  1  1  0
  3 15  1  0
  3  1  1  0
  4 47  1  0
  4  2  1  0
  5  6  1  0
  5  4  1  0
  5  3  1  0
  7 16  1  0
  8 13  1  0
  9 10  1  0
  9  8  1  0
 11 10  1  0
 11 22  1  0
 11 12  1  0
 13  7  1  0
 13 12  1  0
 14  7  2  0
 15 16  1  0
 16 18  1  0
 17 15  2  0
 19 20  2  0
 20 39  1  0
 21 20  1  0
 21 24  1  0
 22 23  1  0
 22 19  1  0
 23 21  2  0
 24 25  1  0
 25 26  2  0
 27 30  1  0
 27 26  1  0
 28 27  2  0
 29 28  1  0
 29 24  2  0
 30 31  1  0
 31 36  2  0
 31 32  1  0
 32 33  2  0
 33 34  1  0
 34 38  1  0
 35 34  2  0
 36 35  1  0
 37 36  1  0
 39 40  1  0
 40 43  1  0
 40 42  1  0
 41 39  2  0
 44 19  1  0
 44 45  1  0
 46 44  1  0
 47 48  2  0
 49 51  1  0
 49 48  1  0
 50 61  2  0
 51 56  1  0
 52 60  1  0
 52 62  1  0
 53 59  1  0
 53 55  1  0
 54 60  1  0
 55 54  1  0
 56 55  2  0
 57 58  1  0
 57 51  2  0
 58 53  2  0
 59 52  1  0
 60 50  1  0
 62 64  2  0
 63 62  1  0
 65 63  1  0
 66 75  2  0
 66 71  1  0
 67 63  1  0
 67 71  1  0
 68 67  1  0
 69 70  1  0
 69 68  1  0
 70 66  1  0
 71 72  2  0
 72 73  1  0
 74 73  2  0
 75 74  1  0
 76 50  1  0
 76 77  1  0
 76 86  1  0
 77 80  1  0
 78 82  1  0
 78 77  1  0
 79 78  2  0
 82 81  1  0
 84 85  1  0
 84 82  1  0
 84 83  1  0
 86 89  1  1
 86 87  1  0
 88 86  1  0
M  ISO  4   7 100  16 100  48 101  49 101
M  END
>  <TORSDO>  (84) 
F 18

>  <SCORE>  (84) 
-14.675

>  <name>  (84) 
83

>  <ligand_id>  (84) 
83

>  <original_smiles>  (84) 
[H]c1c([H])c([H])c2c(c1[H])C([H])([H])C([H])([H])C([H])([H])C2([H])N([H])C(=O)C1([H])N(C(=O)C([H])(N([H])C(=O)C([H])(N([H])C([H])([H])[H])C([H])([H])[H])C(C([H])([H])[H])(C([H])([H])[H])C([H])([H])[H])C([H])([H])c2c([H])c(OC([H])([H])C([H])([H])C3([H])C([H])([H])C([H])([H])C([H])(C(=O)N([H])C(=O)N4C([H])([H])C([H])([H])C([H])([H])C([H])(n5nc(-c6c([H])c([H])c(Oc7c([H])c([H])c(F)c([H])c7F)c([H])c6[H])c(C(=O)N([H])[H])c5N([H])[H])C4([H])[H])C3([H])C([H])([H])[H])c([H])c([H])c2C1([H])[H]

>  <smiles>  (84) 
[H]c1c([H])c([H])c2c(c1[H])C([H])([H])C([H])([H])C([H])([H])C2([H])N([H])C(=O)C1([H])N(C(=O)C([H])(N([H])C(=O)C([H])(N([H])C([H])([H])[H])C([H])([H])[H])C(C([H])([H])[H])(C([H])([H])[H])C([H])([H])[H])C([H])([H])c2c([H])c(OC([H])([H])C([H])([H])C3([H])C([H])([H])C([H])([H])C([H])(C(=O)N([H])C(=O)N4C([H])([H])C([H])([H])C([H])([H])C([H])(n5nc(-c6c([H])c([H])c(Oc7c([H])c([H])c(F)c([H])c7F)c([H])c6[H])c(C(=O)N([H])[H])c5N([H])[H])C4([H])[H])C3([H])C([H])([H])[H])c([H])c([H])c2C1([H])[H]

$$$$
84:0:0
     RDKit          3D

 90 98  0  0  1  0  0  0  0  0999 V2000
  -30.0130  -21.3610   21.6250 C   0  0  0  0  0  2  0  0  0  0  0  0
  -29.9300  -19.7800   21.7790 C   0  0  0  0  0  2  0  0  0  0  0  0
  -28.7830  -21.2260   19.4850 C   0  0  0  0  0  2  0  0  0  0  0  0
  -28.9180  -22.1310   20.7770 C   0  0  0  0  0  3  0  0  0  0  0  0
  -29.9540  -19.0080   20.4270 C   0  0  0  0  0  3  0  0  0  0  0  0
  -28.7400  -19.6190   19.6330 C   0  0  0  0  0  3  0  0  0  0  0  0
  -28.6130  -18.9760   18.2470 C   0  0  0  0  0  1  0  0  0  0  0  0
  -29.8840  -24.3430   21.8340 C   0  0  0  0  0  1  0  0  0  0  0  0
  -29.1880  -23.7700   20.5830 C   0  0  0  0  0  3  0  0  0  0  0  0
  -28.0340  -24.8700   20.1930 C   0  0  0  0  0  2  0  0  0  0  0  0
  -28.2760  -26.3750   20.2720 O   0  0  0  0  0  0  0  0  0  0  0  0
  -24.6040  -31.9340   23.2360 C   0  0  0  0  0  0  0  0  0  0  0  0
  -27.1860  -27.2870   20.2070 C   0  0  0  0  0  0  0  0  0  0  0  0
  -23.3980  -30.5330   21.6030 C   0  0  0  0  0  3  0  0  0  0  0  0
  -24.8410  -28.9660   20.1790 C   0  0  0  0  0  0  0  0  0  0  0  0
  -25.9440  -30.8260   21.4190 C   0  0  0  0  0  2  0  0  0  0  0  0
  -26.0180  -29.4390   20.7740 C   0  0  0  0  0  0  0  0  0  0  0  0
  -27.1940  -28.6140   20.7700 C   0  0  0  0  0  3  0  0  0  0  0  0
  -25.9850  -26.8910   19.5820 C   0  0  0  0  0  3  0  0  0  0  0  0
  -24.8320  -27.7020   19.5700 C   0  0  0  0  0  3  0  0  0  0  0  0
  -23.6110  -29.8530   20.2260 C   0  0  0  0  0  2  0  0  0  0  0  0
  -24.6680  -31.1180   22.1420 N   0  0  0  0  0  0  0  0  0  0  0  0
  -23.5190  -32.2180   23.7680 O   0  0  0  0  0  0  0  0  0  0  0  0
  -22.7280  -29.5250   22.5690 C   0  0  0  0  0  0  0  0  0  0  0  0
  -21.4010  -29.3440   22.4370 N   0  0  0  0  0  0  0  0  0  0  0  0
  -23.4020  -28.9070   23.3970 O   0  0  0  0  0  0  0  0  0  0  0  0
  -20.9150  -29.8920   21.7410 H   0  0  0  0  0  0  0  0  0  0  0  0
  -18.0220  -28.1500   22.9480 C   0  0  0  0  0  0  0  0  0  0  0  0
  -20.5810  -28.4080   23.2110 C   0  0  0  0  0  3  0  0  0  0  0  0
  -20.6810  -26.9750   22.6380 C   0  0  0  0  0  2  0  0  0  0  0  0
  -19.5770  -26.6530   21.6270 C   0  0  0  0  0  2  0  0  0  0  0  0
  -18.1960  -26.8000   22.2720 C   0  0  0  0  0  2  0  0  0  0  0  0
  -19.1420  -28.9130   23.3740 C   0  0  0  0  0  0  0  0  0  0  0  0
  -18.9240  -30.1760   23.9660 C   0  0  0  0  0  3  0  0  0  0  0  0
  -17.6200  -30.6770   24.1360 C   0  0  0  0  0  3  0  0  0  0  0  0
  -16.5140  -29.9110   23.7250 C   0  0  0  0  0  3  0  0  0  0  0  0
  -16.7160  -28.6500   23.1370 C   0  0  0  0  0  3  0  0  0  0  0  0
  -25.8860  -32.5680   23.8570 C   0  0  0  0  0  3  0  0  0  0  0  0
  -26.3930  -31.8080   25.1430 C   0  0  1  0  0  0  0  0  0  0  0  0
  -25.2920  -31.5840   26.2060 C   0  0  0  0  0  1  0  0  0  0  0  0
  -26.9760  -30.4260   24.7700 C   0  0  0  0  0  1  0  0  0  0  0  0
  -27.5420  -32.6050   25.8040 C   0  0  0  0  0  1  0  0  0  0  0  0
  -25.5800  -33.9720   24.1740 N   0  0  0  0  0  0  0  0  0  0  0  0
  -25.9090  -35.0180   23.4060 C   0  0  0  0  0  0  0  0  0  0  0  0
  -26.5710  -34.9040   22.3710 O   0  0  0  0  0  0  0  0  0  0  0  0
  -24.9940  -34.1330   24.9800 H   0  0  0  0  0  0  0  0  0  0  0  0
  -24.1850  -36.8150   23.0490 C   0  0  0  0  0  1  0  0  0  0  0  0
  -25.4300  -36.4140   23.8550 C   0  0  0  0  0  3  0  0  0  0  0  0
  -27.5690  -37.3010   24.6690 C   0  0  0  0  0  1  0  0  0  0  0  0
  -26.4650  -37.4620   23.7260 N   0  0  0  0  0  0  0  0  0  0  0  0
  -26.0630  -38.3850   23.8640 H   0  0  0  0  0  0  0  0  0  0  0  0
  -30.5470  -17.4590   20.3200 C   0  0  0  0  0  2  0  0  0  0  0  0
  -30.5960  -14.8650   20.2890 C   0  0  0  0  0  0  0  0  0  0  0  0
  -30.3590  -12.5830   19.2760 C   0  0  0  0  0  2  0  0  0  0  0  0
  -29.4100  -12.6450   18.0590 C   0  0  0  0  0  2  0  0  0  0  0  0
  -27.9500  -12.4580   18.5090 C   0  0  0  0  0  2  0  0  0  0  0  0
  -27.5870  -13.3410   19.7340 C   0  0  0  0  0  3  0  0  0  0  0  0
  -28.6620  -13.2810   20.8390 C   0  0  0  0  0  2  0  0  0  0  0  0
  -29.9390  -13.6520   20.2210 N   0  0  0  0  0  0  0  0  0  0  0  0
  -31.7800  -14.9090   19.9450 O   0  0  0  0  0  0  0  0  0  0  0  0
  -29.9110  -16.0680   20.5220 N   0  0  0  0  0  0  0  0  0  0  0  0
  -28.9320  -16.0170   20.7640 H   0  0  0  0  0  0  0  0  0  0  0  0
  -25.2140  -13.9080   20.5090 C   0  0  0  0  0  0  0  0  0  0  0  0
  -24.1570  -13.1250   20.8860 C   0  0  0  0  0  0  0  0  0  0  0  0
  -24.6240  -11.7760   20.8320 C   0  0  0  0  0  0  0  0  0  0  0  0
  -26.2550  -13.0350   20.2450 N   0  0  0  0  0  0  0  0  0  0  0  0
  -25.9110  -11.7470   20.5010 N   0  0  0  0  0  0  0  0  0  0  0  0
  -23.9040  -10.5080   21.0170 C   0  0  0  0  0  0  0  0  0  0  0  0
  -24.3330   -9.5460   21.9560 C   0  0  0  0  0  3  0  0  0  0  0  0
  -23.6130   -8.3440   22.1310 C   0  0  0  0  0  3  0  0  0  0  0  0
  -22.4500   -8.0960   21.3650 C   0  0  0  0  0  0  0  0  0  0  0  0
  -22.0390   -9.0480   20.4140 C   0  0  0  0  0  3  0  0  0  0  0  0
  -22.7590  -10.2420   20.2380 C   0  0  0  0  0  3  0  0  0  0  0  0
  -21.7020   -6.9460   21.4460 O   0  0  0  0  0  0  0  0  0  0  0  0
  -21.6170   -6.2250   22.6090 C   0  0  0  0  0  0  0  0  0  0  0  0
  -21.1080   -6.7880   23.8000 C   0  0  0  0  0  3  0  0  0  0  0  0
  -20.9750   -5.9910   24.9540 C   0  0  0  0  0  3  0  0  0  0  0  0
  -21.3370   -4.6320   24.9180 C   0  0  0  0  0  0  0  0  0  0  0  0
  -21.8350   -4.0670   23.7320 C   0  0  0  0  0  3  0  0  0  0  0  0
  -21.9730   -4.8620   22.5810 C   0  0  0  0  0  0  0  0  0  0  0  0
  -22.4350   -4.3070   21.4340 F   0  0  0  0  0  0  0  0  0  0  0  0
  -21.2000   -3.8640   26.0250 F   0  0  0  0  0  0  0  0  0  0  0  0
  -22.7640  -13.5940   21.1860 C   0  0  0  0  0  0  0  0  0  0  0  0
  -22.0510  -12.8810   22.0510 N   0  0  0  0  0  0  0  0  0  0  0  0
  -22.3150  -14.6260   20.6890 O   0  0  0  0  0  0  0  0  0  0  0  0
  -22.4290  -12.0450   22.4730 H   0  0  0  0  0  0  0  0  0  0  0  0
  -21.1150  -13.1730   22.2930 H   0  0  0  0  0  0  0  0  0  0  0  0
  -25.3720  -15.2820   20.3430 N   0  0  0  0  0  0  0  0  0  0  0  0
  -24.6060  -15.9340   20.4710 H   0  0  0  0  0  0  0  0  0  0  0  0
  -26.2100  -15.7240   19.9900 H   0  0  0  0  0  0  0  0  0  0  0  0
  1  2  1  0
  3  6  1  0
  3  4  1  0
  4  9  1  0
  4  1  1  0
  5 52  1  0
  5  2  1  0
  6  7  1  0
  6  5  1  0
  9  8  1  0
 10 11  1  0
 10  9  1  0
 12 23  2  0
 13 11  1  0
 13 18  1  0
 14 22  1  0
 14 24  1  0
 15 21  1  0
 15 17  1  0
 16 22  1  0
 17 16  1  0
 18 17  2  0
 19 13  2  0
 20 19  1  0
 20 15  2  0
 21 14  1  0
 22 12  1  0
 24 26  2  0
 25 24  1  0
 27 25  1  0
 28 37  2  0
 28 33  1  0
 29 25  1  0
 29 33  1  0
 30 29  1  0
 31 32  1  0
 31 30  1  0
 32 28  1  0
 33 34  2  0
 34 35  1  0
 36 35  2  0
 37 36  1  0
 38 12  1  0
 38 43  1  0
 38 39  1  0
 39 42  1  1
 39 40  1  0
 41 39  1  0
 43 46  1  0
 44 48  1  0
 44 43  1  0
 45 44  2  0
 48 47  1  0
 50 48  1  0
 50 51  1  0
 50 49  1  0
 52 61  1  0
 53 61  1  0
 54 59  1  0
 55 56  1  0
 55 54  1  0
 57 56  1  0
 57 66  1  0
 57 58  1  0
 59 53  1  0
 59 58  1  0
 60 53  2  0
 61 62  1  0
 63 64  2  0
 64 83  1  0
 65 64  1  0
 65 68  1  0
 66 67  1  0
 66 63  1  0
 67 65  2  0
 68 69  1  0
 69 70  2  0
 71 74  1  0
 71 70  1  0
 72 71  2  0
 73 72  1  0
 73 68  2  0
 74 75  1  0
 75 76  1  0
 76 77  2  0
 78 77  1  0
 78 82  1  0
 79 78  2  0
 80 75  2  0
 80 79  1  0
 81 80  1  0
 83 84  1  0
 84 87  1  0
 84 86  1  0
 85 83  2  0
 88 89  1  0
 88 63  1  0
 90 88  1  0
M  ISO  4  10 101  11 101  53 100  61 100
M  END
>  <TORSDO>  (85) 
F 19

>  <SCORE>  (85) 
-14.104

>  <name>  (85) 
84

>  <ligand_id>  (85) 
84

>  <original_smiles>  (85) 
[H]c1c([H])c([H])c2c(c1[H])C([H])([H])C([H])([H])C([H])([H])C2([H])N([H])C(=O)C1([H])N(C(=O)C([H])(N([H])C(=O)C([H])(N([H])C([H])([H])[H])C([H])([H])[H])C(C([H])([H])[H])(C([H])([H])[H])C([H])([H])[H])C([H])([H])c2c([H])c(OC([H])([H])C([H])(C([H])([H])[H])C3([H])C([H])([H])C([H])([H])C([H])(C([H])([H])N([H])C(=O)N4C([H])([H])C([H])([H])C([H])([H])C([H])(n5nc(-c6c([H])c([H])c(Oc7c([H])c([H])c(F)c([H])c7F)c([H])c6[H])c(C(=O)N([H])[H])c5N([H])[H])C4([H])[H])C([H])(C([H])([H])[H])C3([H])[H])c([H])c([H])c2C1([H])[H]

>  <smiles>  (85) 
[H]c1c([H])c([H])c2c(c1[H])C([H])([H])C([H])([H])C([H])([H])C2([H])N([H])C(=O)C1([H])N(C(=O)C([H])(N([H])C(=O)C([H])(N([H])C([H])([H])[H])C([H])([H])[H])C(C([H])([H])[H])(C([H])([H])[H])C([H])([H])[H])C([H])([H])c2c([H])c(OC([H])([H])C([H])(C([H])([H])[H])C3([H])C([H])([H])C([H])([H])C([H])(C([H])([H])N([H])C(=O)N4C([H])([H])C([H])([H])C([H])([H])C([H])(n5nc(-c6c([H])c([H])c(Oc7c([H])c([H])c(F)c([H])c7F)c([H])c6[H])c(C(=O)N([H])[H])c5N([H])[H])C4([H])[H])C([H])(C([H])([H])[H])C3([H])[H])c([H])c([H])c2C1([H])[H]

$$$$
85:0:0
     RDKit          3D

 94102  0  0  1  0  0  0  0  0999 V2000
  -29.5310  -20.5630   21.4750 C   0  0  0  0  0  2  0  0  0  0  0  0
  -28.3290  -21.7660   19.1950 C   0  0  0  0  0  2  0  0  0  0  0  0
  -29.0830  -19.4610   20.3900 C   0  0  0  0  0  3  0  0  0  0  0  0
  -28.7680  -22.9810   20.1940 C   0  0  0  0  0  3  0  0  0  0  0  0
  -28.8290  -22.0650   21.5260 C   0  0  0  0  0  3  0  0  0  0  0  0
  -29.0710  -20.3870   19.1730 N   0  0  0  0  0  4  0  0  0  0  0  0
  -30.0320  -20.5440   18.9100 H   0  0  0  0  0  0  0  0  0  0  0  0
  -28.6730  -19.8510   18.4170 H   0  0  0  0  0  0  0  0  0  0  0  0
  -29.4170  -22.8440   22.6360 N   0  0  0  0  0  4  0  0  0  0  0  0
  -30.3820  -23.0630   22.4630 H   0  0  0  0  0  0  0  0  0  0  0  0
  -29.3640  -22.3310   23.4990 H   0  0  0  0  0  0  0  0  0  0  0  0
  -28.9210  -23.7070   22.7730 H   0  0  0  0  0  0  0  0  0  0  0  0
  -29.5840  -16.5650   20.4610 C   0  0  0  0  0  3  0  0  0  0  0  0
  -29.9050  -17.9680   20.2600 C   0  0  0  0  0  0  0  0  0  0  0  0
  -30.4260  -15.2200   20.2810 C   0  0  0  0  0  0  0  0  0  0  0  0
  -30.3750  -12.8080   19.4070 C   0  0  0  0  0  2  0  0  0  0  0  0
  -29.4530  -12.6860   18.1680 C   0  0  0  0  0  2  0  0  0  0  0  0
  -27.9950  -12.4380   18.5960 C   0  0  0  0  0  2  0  0  0  0  0  0
  -27.5580  -13.3770   19.7490 C   0  0  0  0  0  3  0  0  0  0  0  0
  -28.6070  -13.4640   20.8770 C   0  0  0  0  0  2  0  0  0  0  0  0
  -29.8640  -13.9250   20.2710 N   0  0  0  0  0  0  0  0  0  0  0  0
  -31.6320  -15.2400   19.9980 O   0  0  0  0  0  0  0  0  0  0  0  0
  -25.1820  -13.9220   20.5080 C   0  0  0  0  0  0  0  0  0  0  0  0
  -24.1250  -13.1370   20.8770 C   0  0  0  0  0  0  0  0  0  0  0  0
  -24.6010  -11.7900   20.8380 C   0  0  0  0  0  0  0  0  0  0  0  0
  -26.2290  -13.0550   20.2550 N   0  0  0  0  0  0  0  0  0  0  0  0
  -25.8910  -11.7660   20.5220 N   0  0  0  0  0  0  0  0  0  0  0  0
  -23.8820  -10.5220   21.0220 C   0  0  0  0  0  0  0  0  0  0  0  0
  -24.3070   -9.5600   21.9650 C   0  0  0  0  0  3  0  0  0  0  0  0
  -23.5850   -8.3600   22.1380 C   0  0  0  0  0  3  0  0  0  0  0  0
  -22.4240   -8.1120   21.3690 C   0  0  0  0  0  0  0  0  0  0  0  0
  -22.0180   -9.0610   20.4150 C   0  0  0  0  0  3  0  0  0  0  0  0
  -22.7410  -10.2540   20.2390 C   0  0  0  0  0  3  0  0  0  0  0  0
  -21.6750   -6.9620   21.4500 O   0  0  0  0  0  0  0  0  0  0  0  0
  -21.5970   -6.2350   22.6110 C   0  0  0  0  0  0  0  0  0  0  0  0
  -21.0980   -6.7920   23.8080 C   0  0  0  0  0  3  0  0  0  0  0  0
  -20.9700   -5.9900   24.9590 C   0  0  0  0  0  3  0  0  0  0  0  0
  -21.3320   -4.6300   24.9130 C   0  0  0  0  0  0  0  0  0  0  0  0
  -21.8230   -4.0710   23.7210 C   0  0  0  0  0  3  0  0  0  0  0  0
  -21.9520   -4.8710   22.5720 C   0  0  0  0  0  0  0  0  0  0  0  0
  -22.4070   -4.3220   21.4200 F   0  0  0  0  0  0  0  0  0  0  0  0
  -21.2020   -3.8570   26.0170 F   0  0  0  0  0  0  0  0  0  0  0  0
  -22.7260  -13.6040   21.1500 C   0  0  0  0  0  0  0  0  0  0  0  0
  -22.0040  -12.9020   22.0150 N   0  0  0  0  0  0  0  0  0  0  0  0
  -22.2820  -14.6270   20.6320 O   0  0  0  0  0  0  0  0  0  0  0  0
  -22.3770  -12.0750   22.4570 H   0  0  0  0  0  0  0  0  0  0  0  0
  -21.0640  -13.1970   22.2420 H   0  0  0  0  0  0  0  0  0  0  0  0
  -25.3360  -15.2950   20.3380 N   0  0  0  0  0  0  0  0  0  0  0  0
  -24.5610  -15.9420   20.4510 H   0  0  0  0  0  0  0  0  0  0  0  0
  -26.1720  -15.7400   19.9830 H   0  0  0  0  0  0  0  0  0  0  0  0
  -31.1400  -18.2860   19.8410 O   0  0  0  0  0  0  0  0  0  0  0  0
  -31.6350  -17.4780   19.7620 H   0  0  0  0  0  0  0  0  0  0  0  0
  -27.8670  -24.4990   20.1010 C   0  0  0  0  0  2  0  0  0  0  0  0
  -28.1700  -26.0660   20.3080 O   0  0  0  0  0  0  0  0  0  0  0  0
  -24.6380  -31.9530   23.2610 C   0  0  0  0  0  0  0  0  0  0  0  0
  -27.1530  -27.1280   20.2350 C   0  0  0  0  0  0  0  0  0  0  0  0
  -23.4240  -30.5670   21.6280 C   0  0  0  0  0  3  0  0  0  0  0  0
  -24.8550  -28.9650   20.2000 C   0  0  0  0  0  0  0  0  0  0  0  0
  -25.9860  -30.7830   21.4640 C   0  0  0  0  0  2  0  0  0  0  0  0
  -26.0450  -29.3800   20.8100 C   0  0  0  0  0  0  0  0  0  0  0  0
  -27.1920  -28.4810   20.8070 C   0  0  0  0  0  3  0  0  0  0  0  0
  -25.9340  -26.8440   19.5790 C   0  0  0  0  0  3  0  0  0  0  0  0
  -24.8190  -27.7150   19.5650 C   0  0  0  0  0  3  0  0  0  0  0  0
  -23.6390  -29.8840   20.2500 C   0  0  0  0  0  2  0  0  0  0  0  0
  -24.7040  -31.1250   22.1720 N   0  0  0  0  0  0  0  0  0  0  0  0
  -23.5550  -32.2500   23.7890 O   0  0  0  0  0  0  0  0  0  0  0  0
  -22.7330  -29.5710   22.5960 C   0  0  0  0  0  0  0  0  0  0  0  0
  -21.4040  -29.4050   22.4670 N   0  0  0  0  0  0  0  0  0  0  0  0
  -23.3990  -28.9500   23.4290 O   0  0  0  0  0  0  0  0  0  0  0  0
  -20.9230  -29.9570   21.7710 H   0  0  0  0  0  0  0  0  0  0  0  0
  -18.0180  -28.2060   22.9680 C   0  0  0  0  0  0  0  0  0  0  0  0
  -20.5770  -28.4730   23.2410 C   0  0  0  0  0  3  0  0  0  0  0  0
  -20.6810  -27.0370   22.6770 C   0  0  0  0  0  2  0  0  0  0  0  0
  -19.5830  -26.7070   21.6610 C   0  0  0  0  0  2  0  0  0  0  0  0
  -18.1990  -26.8540   22.2990 C   0  0  0  0  0  2  0  0  0  0  0  0
  -19.1350  -28.9730   23.3960 C   0  0  0  0  0  0  0  0  0  0  0  0
  -18.9110  -30.2370   23.9840 C   0  0  0  0  0  3  0  0  0  0  0  0
  -17.6050  -30.7350   24.1460 C   0  0  0  0  0  3  0  0  0  0  0  0
  -16.5030  -29.9660   23.7330 C   0  0  0  0  0  3  0  0  0  0  0  0
  -16.7110  -28.7040   23.1500 C   0  0  0  0  0  3  0  0  0  0  0  0
  -25.9200  -32.5840   23.8860 C   0  0  0  0  0  3  0  0  0  0  0  0
  -26.4290  -31.8120   25.1670 C   0  0  1  0  0  0  0  0  0  0  0  0
  -25.3310  -31.5840   26.2330 C   0  0  0  0  0  1  0  0  0  0  0  0
  -27.0050  -30.4300   24.7860 C   0  0  0  0  0  1  0  0  0  0  0  0
  -27.5810  -32.6010   25.8300 C   0  0  0  0  0  1  0  0  0  0  0  0
  -25.6150  -33.9850   24.2240 N   0  0  0  0  0  0  0  0  0  0  0  0
  -25.9230  -35.0420   23.4600 C   0  0  0  0  0  0  0  0  0  0  0  0
  -26.5590  -34.9400   22.4080 O   0  0  0  0  0  0  0  0  0  0  0  0
  -25.0460  -34.1370   25.0430 H   0  0  0  0  0  0  0  0  0  0  0  0
  -24.1750  -36.8330   23.1890 C   0  0  0  0  0  1  0  0  0  0  0  0
  -25.4550  -36.4310   23.9390 C   0  0  0  0  0  3  0  0  0  0  0  0
  -27.6190  -37.3320   24.6720 C   0  0  0  0  0  1  0  0  0  0  0  0
  -26.4770  -37.4870   23.7740 N   0  0  0  0  0  0  0  0  0  0  0  0
  -26.0740  -38.4070   23.9300 H   0  0  0  0  0  0  0  0  0  0  0  0
  1  5  1  0
  2  4  1  0
  3 14  1  0
  3  1  1  0
  4 53  1  0
  4  5  1  0
  5  9  1  0
  6  2  1  0
  6  3  1  0
  7  6  1  0
  8  6  1  0
  9 12  1  0
  9 11  1  0
 10  9  1  0
 14 13  2  0
 15 13  1  0
 16 21  1  0
 17 18  1  0
 17 16  1  0
 19 18  1  0
 19 26  1  0
 19 20  1  0
 21 15  1  0
 21 20  1  0
 22 15  2  0
 23 24  2  0
 24 43  1  0
 25 24  1  0
 25 28  1  0
 26 23  1  0
 26 27  1  0
 27 25  2  0
 28 29  1  0
 29 30  2  0
 31 34  1  0
 31 30  1  0
 32 31  2  0
 33 32  1  0
 33 28  2  0
 34 35  1  0
 35 36  1  0
 36 37  2  0
 38 37  1  0
 38 42  1  0
 39 38  2  0
 40 35  2  0
 40 39  1  0
 41 40  1  0
 43 44  1  0
 44 47  1  0
 44 46  1  0
 45 43  2  0
 48 49  1  0
 48 23  1  0
 50 48  1  0
 51 14  1  0
 52 51  1  0
 53 54  1  0
 55 66  2  0
 56 54  1  0
 56 61  1  0
 57 65  1  0
 57 67  1  0
 58 64  1  0
 58 60  1  0
 59 65  1  0
 60 59  1  0
 61 60  2  0
 62 56  2  0
 63 62  1  0
 63 58  2  0
 64 57  1  0
 65 55  1  0
 67 69  2  0
 68 67  1  0
 70 68  1  0
 71 80  2  0
 71 76  1  0
 72 68  1  0
 72 76  1  0
 73 72  1  0
 74 75  1  0
 74 73  1  0
 75 71  1  0
 76 77  2  0
 77 78  1  0
 79 78  2  0
 80 79  1  0
 81 55  1  0
 81 86  1  0
 81 82  1  0
 82 85  1  1
 82 83  1  0
 84 82  1  0
 86 89  1  0
 87 91  1  0
 87 86  1  0
 88 87  2  0
 91 90  1  0
 93 94  1  0
 93 91  1  0
 93 92  1  0
M  ISO  4  13 100  15 100  53 101  54 101
M  END
>  <TORSDO>  (86) 
F 20

>  <SCORE>  (86) 
-15.418

>  <name>  (86) 
85

>  <ligand_id>  (86) 
85

>  <original_smiles>  (86) 
[H]OC(=C([H])C(=O)N1C([H])([H])C([H])([H])C([H])([H])C([H])(n2nc(-c3c([H])c([H])c(Oc4c([H])c([H])c(F)c([H])c4F)c([H])c3[H])c(C(=O)N([H])[H])c2N([H])[H])C1([H])[H])C1([H])C([H])([H])C([H])([N+]([H])([H])[H])C([H])(C([H])([H])Oc2c([H])c([H])c3c(c2[H])C([H])([H])N(C(=O)C([H])(N([H])C(=O)C([H])(N([H])C([H])([H])[H])C([H])([H])[H])C(C([H])([H])[H])(C([H])([H])[H])C([H])([H])[H])C([H])(C(=O)N([H])C2([H])c4c([H])c([H])c([H])c([H])c4C([H])([H])C([H])([H])C2([H])[H])C3([H])[H])C([H])([H])[N+]1([H])[H]

>  <smiles>  (86) 
[H]OC(=C([H])C(=O)N1C([H])([H])C([H])([H])C([H])([H])C([H])(n2nc(-c3c([H])c([H])c(Oc4c([H])c([H])c(F)c([H])c4F)c([H])c3[H])c(C(=O)N([H])[H])c2N([H])[H])C1([H])[H])C1([H])C([H])([H])C([H])([N+]([H])([H])[H])C([H])(C([H])([H])Oc2c([H])c([H])c3c(c2[H])C([H])([H])N(C(=O)C([H])(N([H])C(=O)C([H])(N([H])C([H])([H])[H])C([H])([H])[H])C(C([H])([H])[H])(C([H])([H])[H])C([H])([H])[H])C([H])(C(=O)N([H])C2([H])c4c([H])c([H])c([H])c([H])c4C([H])([H])C([H])([H])C2([H])[H])C3([H])[H])C([H])([H])[N+]1([H])[H]

$$$$
86:0:0
     RDKit          3D

 91 99  0  0  1  0  0  0  0  0999 V2000
  -30.5770  -15.2610   20.2030 C   0  0  0  0  0  0  0  0  0  0  0  0
  -30.4850  -12.7870   19.4300 C   0  0  0  0  0  2  0  0  0  0  0  0
  -29.5780  -12.5500   18.1970 C   0  0  0  0  0  2  0  0  0  0  0  0
  -28.1210  -12.3250   18.6330 C   0  0  0  0  0  2  0  0  0  0  0  0
  -27.6770  -13.3360   19.7210 C   0  0  0  0  0  3  0  0  0  0  0  0
  -28.7190  -13.5090   20.8470 C   0  0  0  0  0  2  0  0  0  0  0  0
  -29.9570  -13.9770   20.2000 N   0  0  0  0  0  0  0  0  0  0  0  0
  -31.7840  -15.1800   19.9310 O   0  0  0  0  0  0  0  0  0  0  0  0
  -28.3540  -18.5590   20.8450 C   0  0  0  0  0  2  0  0  0  0  0  0
  -28.8150  -17.0460   21.1030 C   0  0  0  0  0  2  0  0  0  0  0  0
  -29.4890  -19.4590   20.2740 C   0  0  0  0  0  3  0  0  0  0  0  0
  -30.2090  -18.0620   19.5750 C   0  0  0  0  0  3  0  0  0  0  0  0
  -29.9040  -16.6000   20.1990 N   0  0  0  0  0  0  0  0  0  0  0  0
  -25.3190  -13.9550   20.4650 C   0  0  0  0  0  0  0  0  0  0  0  0
  -24.2400  -13.2060   20.8370 C   0  0  0  0  0  0  0  0  0  0  0  0
  -24.6740  -11.8450   20.8120 C   0  0  0  0  0  0  0  0  0  0  0  0
  -26.3430  -13.0540   20.2300 N   0  0  0  0  0  0  0  0  0  0  0  0
  -25.9660  -11.7790   20.5050 N   0  0  0  0  0  0  0  0  0  0  0  0
  -23.9150  -10.6020   21.0050 C   0  0  0  0  0  0  0  0  0  0  0  0
  -24.3390   -9.6090   21.9140 C   0  0  0  0  0  3  0  0  0  0  0  0
  -23.5780   -8.4340   22.0980 C   0  0  0  0  0  3  0  0  0  0  0  0
  -22.3790   -8.2430   21.3720 C   0  0  0  0  0  0  0  0  0  0  0  0
  -21.9730   -9.2240   20.4500 C   0  0  0  0  0  3  0  0  0  0  0  0
  -22.7340  -10.3900   20.2650 C   0  0  0  0  0  3  0  0  0  0  0  0
  -21.5890   -7.1220   21.4650 O   0  0  0  0  0  0  0  0  0  0  0  0
  -21.5730   -6.3460   22.5970 C   0  0  0  0  0  0  0  0  0  0  0  0
  -21.2320   -6.8780   23.8600 C   0  0  0  0  0  3  0  0  0  0  0  0
  -21.1610   -6.0300   24.9830 C   0  0  0  0  0  3  0  0  0  0  0  0
  -21.4170   -4.6540   24.8460 C   0  0  0  0  0  0  0  0  0  0  0  0
  -21.7510   -4.1220   23.5870 C   0  0  0  0  0  3  0  0  0  0  0  0
  -21.8250   -4.9660   22.4660 C   0  0  0  0  0  0  0  0  0  0  0  0
  -22.1250   -4.4440   21.2520 F   0  0  0  0  0  0  0  0  0  0  0  0
  -21.3410   -3.8380   25.9230 F   0  0  0  0  0  0  0  0  0  0  0  0
  -22.8540  -13.7200   21.0990 C   0  0  0  0  0  0  0  0  0  0  0  0
  -22.1170  -13.0650   21.9870 N   0  0  0  0  0  0  0  0  0  0  0  0
  -22.4380  -14.7390   20.5510 O   0  0  0  0  0  0  0  0  0  0  0  0
  -22.4690  -12.2420   22.4540 H   0  0  0  0  0  0  0  0  0  0  0  0
  -21.1870  -13.3920   22.2060 H   0  0  0  0  0  0  0  0  0  0  0  0
  -25.5110  -15.3200   20.2740 N   0  0  0  0  0  0  0  0  0  0  0  0
  -24.7540  -15.9870   20.3730 H   0  0  0  0  0  0  0  0  0  0  0  0
  -26.3600  -15.7360   19.9120 H   0  0  0  0  0  0  0  0  0  0  0  0
  -29.0030  -21.0540   19.5760 C   0  0  0  0  0  2  0  0  0  0  0  0
  -29.0260  -22.7740   20.1070 C   0  0  0  0  0  3  0  0  0  0  0  0
  -28.2120  -24.2740   19.5340 C   0  0  0  0  0  3  0  0  0  0  0  0
  -28.3580  -25.8850   19.8340 O   0  0  0  0  0  0  0  0  0  0  0  0
  -24.6310  -31.6220   22.9750 C   0  0  0  0  0  0  0  0  0  0  0  0
  -27.3150  -26.9450   19.7780 C   0  0  0  0  0  0  0  0  0  0  0  0
  -23.4690  -30.2480   21.2930 C   0  0  0  0  0  3  0  0  0  0  0  0
  -24.9580  -28.7420   19.8060 C   0  0  0  0  0  0  0  0  0  0  0  0
  -26.0260  -30.5460   21.1440 C   0  0  0  0  0  2  0  0  0  0  0  0
  -26.1330  -29.1650   20.4380 C   0  0  0  0  0  0  0  0  0  0  0  0
  -27.3050  -28.2860   20.4020 C   0  0  0  0  0  3  0  0  0  0  0  0
  -26.1070  -26.6740   19.0960 C   0  0  0  0  0  3  0  0  0  0  0  0
  -24.9680  -27.5190   19.1160 C   0  0  0  0  0  3  0  0  0  0  0  0
  -23.7110  -29.6210   19.8920 C   0  0  0  0  0  2  0  0  0  0  0  0
  -24.7300  -30.8310   21.8580 N   0  0  0  0  0  0  0  0  0  0  0  0
  -23.5360  -31.8610   23.5110 O   0  0  0  0  0  0  0  0  0  0  0  0
  -22.8120  -29.1980   22.2270 C   0  0  0  0  0  0  0  0  0  0  0  0
  -21.4810  -29.0260   22.1280 N   0  0  0  0  0  0  0  0  0  0  0  0
  -23.5040  -28.5420   23.0080 O   0  0  0  0  0  0  0  0  0  0  0  0
  -20.9730  -29.6090   21.4760 H   0  0  0  0  0  0  0  0  0  0  0  0
  -18.1210  -27.7720   22.6790 C   0  0  0  0  0  0  0  0  0  0  0  0
  -20.6860  -28.0440   22.8730 C   0  0  0  0  0  3  0  0  0  0  0  0
  -20.7780  -26.6440   22.2200 C   0  0  0  0  0  2  0  0  0  0  0  0
  -19.6450  -26.3680   21.2260 C   0  0  0  0  0  2  0  0  0  0  0  0
  -18.2840  -26.4650   21.9210 C   0  0  0  0  0  2  0  0  0  0  0  0
  -19.2480  -28.5210   23.1120 C   0  0  0  0  0  0  0  0  0  0  0  0
  -19.0380  -29.7440   23.7850 C   0  0  0  0  0  3  0  0  0  0  0  0
  -17.7360  -30.2200   24.0260 C   0  0  0  0  0  3  0  0  0  0  0  0
  -16.6240  -29.4680   23.6050 C   0  0  0  0  0  3  0  0  0  0  0  0
  -16.8180  -28.2460   22.9380 C   0  0  0  0  0  3  0  0  0  0  0  0
  -25.8860  -32.2790   23.6240 C   0  0  0  0  0  3  0  0  0  0  0  0
  -25.5190  -33.6460   24.0380 N   0  0  0  0  0  0  0  0  0  0  0  0
  -25.8230  -34.7600   23.3600 C   0  0  0  0  0  0  0  0  0  0  0  0
  -26.5040  -34.7490   22.3320 O   0  0  0  0  0  0  0  0  0  0  0  0
  -24.9110  -33.7250   24.8390 H   0  0  0  0  0  0  0  0  0  0  0  0
  -24.0430  -36.5260   23.1170 C   0  0  0  0  0  1  0  0  0  0  0  0
  -25.2900  -36.1010   23.9080 C   0  0  0  0  0  3  0  0  0  0  0  0
  -27.3880  -36.9960   24.8220 C   0  0  0  0  0  1  0  0  0  0  0  0
  -26.2910  -37.1910   23.8780 N   0  0  0  0  0  0  0  0  0  0  0  0
  -25.8540  -38.0870   24.0780 H   0  0  0  0  0  0  0  0  0  0  0  0
  -26.4390  -31.4690   24.8620 C   0  0  1  0  0  0  0  0  0  0  0  0
  -25.3660  -31.1520   25.9300 C   0  0  0  0  0  1  0  0  0  0  0  0
  -27.0580  -30.1260   24.4110 C   0  0  0  0  0  1  0  0  0  0  0  0
  -27.5740  -32.2680   25.5460 C   0  0  0  0  0  1  0  0  0  0  0  0
  -31.7220  -18.2590   19.3370 C   0  0  0  0  0  2  0  0  0  0  0  0
  -32.0800  -19.5240   18.5300 C   0  0  0  0  0  2  0  0  0  0  0  0
  -33.5160  -19.5890   18.2090 N   0  0  0  0  0  4  0  0  0  0  0  0
  -34.0730  -19.6170   19.0450 H   0  0  0  0  0  0  0  0  0  0  0  0
  -33.7110  -20.4200   17.6790 H   0  0  0  0  0  0  0  0  0  0  0  0
  -33.7980  -18.7970   17.6580 H   0  0  0  0  0  0  0  0  0  0  0  0
  2  7  1  0
  3  4  1  0
  3  2  1  0
  5  4  1  0
  5 17  1  0
  5  6  1  0
  7  1  1  0
  7  6  1  0
  8  1  2  0
  9 10  1  0
 11 42  1  0
 11  9  1  0
 12 86  1  0
 12 13  1  0
 12 11  1  0
 13  1  1  0
 13 10  1  0
 14 15  2  0
 15 34  1  0
 16 15  1  0
 16 19  1  0
 17 14  1  0
 17 18  1  0
 18 16  2  0
 19 20  1  0
 20 21  2  0
 22 25  1  0
 22 21  1  0
 23 22  2  0
 24 23  1  0
 24 19  2  0
 25 26  1  0
 26 27  1  0
 27 28  2  0
 29 28  1  0
 29 33  1  0
 30 29  2  0
 31 26  2  0
 31 30  1  0
 32 31  1  0
 34 35  1  0
 35 38  1  0
 35 37  1  0
 36 34  2  0
 39 40  1  0
 39 14  1  0
 41 39  1  0
 42 43  1  0
 44 45  1  0
 44 43  2  0
 46 57  2  0
 47 45  1  0
 47 52  1  0
 48 56  1  0
 48 58  1  0
 49 55  1  0
 49 51  1  0
 50 56  1  0
 51 50  1  0
 52 51  2  0
 53 54  1  0
 53 47  2  0
 54 49  2  0
 55 48  1  0
 56 46  1  0
 58 60  2  0
 59 58  1  0
 61 59  1  0
 62 71  2  0
 62 67  1  0
 63 59  1  0
 63 67  1  0
 64 63  1  0
 65 66  1  0
 65 64  1  0
 66 62  1  0
 67 68  2  0
 68 69  1  0
 70 69  2  0
 71 70  1  0
 72 46  1  0
 72 73  1  0
 72 82  1  0
 73 76  1  0
 74 78  1  0
 74 73  1  0
 75 74  2  0
 78 77  1  0
 80 78  1  0
 80 81  1  0
 80 79  1  0
 82 85  1  1
 82 83  1  0
 84 82  1  0
 87 86  1  0
 88 87  1  0
 88 89  1  0
 90 88  1  0
 91 88  1  0
M  ISO  4   1 100  13 100  44 101  45 101
M  END
>  <TORSDO>  (87) 
F 21

>  <SCORE>  (87) 
-14.010

>  <name>  (87) 
86

>  <ligand_id>  (87) 
86

>  <original_smiles>  (87) 
[H]c1c([H])c([H])c2c(c1[H])C([H])([H])C([H])([H])C([H])([H])C2([H])N([H])C(=O)C1([H])N(C(=O)C([H])(N([H])C(=O)C([H])(N([H])C([H])([H])[H])C([H])([H])[H])C(C([H])([H])[H])(C([H])([H])[H])C([H])([H])[H])C([H])([H])c2c([H])c(OC([H])([H])C([H])([H])C([H])([H])C3([H])C([H])([H])C([H])([H])N(C(=O)N4C([H])([H])C([H])([H])C([H])([H])C([H])(n5nc(-c6c([H])c([H])c(Oc7c([H])c([H])c(F)c([H])c7F)c([H])c6[H])c(C(=O)N([H])[H])c5N([H])[H])C4([H])[H])C3([H])C([H])([H])C([H])([H])[N+]([H])([H])[H])c([H])c([H])c2C1([H])[H]

>  <smiles>  (87) 
[H]c1c([H])c([H])c2c(c1[H])C([H])([H])C([H])([H])C([H])([H])C2([H])N([H])C(=O)C1([H])N(C(=O)C([H])(N([H])C(=O)C([H])(N([H])C([H])([H])[H])C([H])([H])[H])C(C([H])([H])[H])(C([H])([H])[H])C([H])([H])[H])C([H])([H])c2c([H])c(OC([H])([H])C([H])([H])C([H])([H])C3([H])C([H])([H])C([H])([H])N(C(=O)N4C([H])([H])C([H])([H])C([H])([H])C([H])(n5nc(-c6c([H])c([H])c(Oc7c([H])c([H])c(F)c([H])c7F)c([H])c6[H])c(C(=O)N([H])[H])c5N([H])[H])C4([H])[H])C3([H])C([H])([H])C([H])([H])[N+]([H])([H])[H])c([H])c([H])c2C1([H])[H]

$$$$
87:0:0
     RDKit          3D

 89 97  0  0  1  0  0  0  0  0999 V2000
  -29.1430  -22.1510   20.8480 C   0  0  0  0  0  2  0  0  0  0  0  0
  -28.3130  -19.6310   20.5620 C   0  0  0  0  0  3  0  0  0  0  0  0
  -30.6450  -19.9010   20.2570 C   0  0  0  0  0  3  0  0  0  0  0  0
  -28.4780  -18.2000   20.5350 C   0  0  0  0  0  3  0  0  0  0  0  0
  -30.8100  -18.4500   20.2120 C   0  0  0  0  0  3  0  0  0  0  0  0
  -29.3810  -20.5740   20.4490 C   0  0  0  0  0  0  0  0  0  0  0  0
  -29.7260  -17.5200   20.3690 C   0  0  0  0  0  0  0  0  0  0  0  0
  -30.5790  -14.9260   20.0810 C   0  0  0  0  0  0  0  0  0  0  0  0
  -30.4240  -12.6370   19.0290 C   0  0  0  0  0  2  0  0  0  0  0  0
  -29.4260  -12.6920   17.8490 C   0  0  0  0  0  2  0  0  0  0  0  0
  -27.9750  -12.4880   18.3330 C   0  0  0  0  0  2  0  0  0  0  0  0
  -27.6460  -13.3370   19.5900 C   0  0  0  0  0  3  0  0  0  0  0  0
  -28.7550  -13.2350   20.6580 C   0  0  0  0  0  2  0  0  0  0  0  0
  -30.0110  -13.6630   20.0230 N   0  0  0  0  0  0  0  0  0  0  0  0
  -31.7430  -15.0790   19.6920 O   0  0  0  0  0  0  0  0  0  0  0  0
  -29.7370  -16.0010   20.4130 N   0  0  0  0  0  0  0  0  0  0  0  0
  -28.8460  -15.6200   20.7000 H   0  0  0  0  0  0  0  0  0  0  0  0
  -25.2850  -13.9040   20.4100 C   0  0  0  0  0  0  0  0  0  0  0  0
  -24.2390  -13.1210   20.8160 C   0  0  0  0  0  0  0  0  0  0  0  0
  -24.7090  -11.7730   20.7550 C   0  0  0  0  0  0  0  0  0  0  0  0
  -26.3250  -13.0330   20.1300 N   0  0  0  0  0  0  0  0  0  0  0  0
  -25.9890  -11.7460   20.3990 N   0  0  0  0  0  0  0  0  0  0  0  0
  -23.9970  -10.5040   20.9600 C   0  0  0  0  0  0  0  0  0  0  0  0
  -24.4470   -9.5480   21.8960 C   0  0  0  0  0  3  0  0  0  0  0  0
  -23.7380   -8.3430   22.0910 C   0  0  0  0  0  3  0  0  0  0  0  0
  -22.5610   -8.0860   21.3470 C   0  0  0  0  0  0  0  0  0  0  0  0
  -22.1280   -9.0300   20.3990 C   0  0  0  0  0  3  0  0  0  0  0  0
  -22.8400  -10.2270   20.2040 C   0  0  0  0  0  3  0  0  0  0  0  0
  -21.8210   -6.9320   21.4460 O   0  0  0  0  0  0  0  0  0  0  0  0
  -21.7630   -6.2130   22.6150 C   0  0  0  0  0  0  0  0  0  0  0  0
  -21.2840   -6.7810   23.8160 C   0  0  0  0  0  3  0  0  0  0  0  0
  -21.1770   -5.9890   24.9780 C   0  0  0  0  0  3  0  0  0  0  0  0
  -21.5390   -4.6290   24.9370 C   0  0  0  0  0  0  0  0  0  0  0  0
  -22.0110   -4.0590   23.7410 C   0  0  0  0  0  3  0  0  0  0  0  0
  -22.1190   -4.8500   22.5830 C   0  0  0  0  0  0  0  0  0  0  0  0
  -22.5550   -4.2940   21.4260 F   0  0  0  0  0  0  0  0  0  0  0  0
  -21.4310   -3.8620   26.0470 F   0  0  0  0  0  0  0  0  0  0  0  0
  -22.8480  -13.5850   21.1390 C   0  0  0  0  0  0  0  0  0  0  0  0
  -22.1520  -12.8750   22.0190 N   0  0  0  0  0  0  0  0  0  0  0  0
  -22.3850  -14.6130   20.6430 O   0  0  0  0  0  0  0  0  0  0  0  0
  -22.5430  -12.0480   22.4440 H   0  0  0  0  0  0  0  0  0  0  0  0
  -21.2160  -13.1650   22.2700 H   0  0  0  0  0  0  0  0  0  0  0  0
  -25.4330  -15.2770   20.2280 N   0  0  0  0  0  0  0  0  0  0  0  0
  -24.6540  -15.9140   20.3490 H   0  0  0  0  0  0  0  0  0  0  0  0
  -26.2190  -15.6980   19.7530 H   0  0  0  0  0  0  0  0  0  0  0  0
  -30.4350  -23.9170   19.3830 C   0  0  0  0  0  1  0  0  0  0  0  0
  -29.0480  -23.5400   19.9340 C   0  0  0  0  0  3  0  0  0  0  0  0
  -28.3170  -24.8870   20.6030 C   0  0  0  0  0  2  0  0  0  0  0  0
  -28.4050  -26.3620   20.1740 O   0  0  0  0  0  0  0  0  0  0  0  0
  -24.6130  -31.8900   23.2250 C   0  0  0  0  0  0  0  0  0  0  0  0
  -27.2820  -27.2500   20.2060 C   0  0  0  0  0  0  0  0  0  0  0  0
  -23.4310  -30.4800   21.5850 C   0  0  0  0  0  3  0  0  0  0  0  0
  -24.9020  -28.9090   20.1840 C   0  0  0  0  0  0  0  0  0  0  0  0
  -25.9780  -30.7840   21.4220 C   0  0  0  0  0  2  0  0  0  0  0  0
  -26.0730  -29.3940   20.7810 C   0  0  0  0  0  0  0  0  0  0  0  0
  -27.2610  -28.5810   20.7710 C   0  0  0  0  0  3  0  0  0  0  0  0
  -26.0780  -26.8390   19.5910 C   0  0  0  0  0  3  0  0  0  0  0  0
  -24.9140  -27.6410   19.5830 C   0  0  0  0  0  3  0  0  0  0  0  0
  -23.6650  -29.7920   20.2150 C   0  0  0  0  0  2  0  0  0  0  0  0
  -24.6940  -31.0730   22.1350 N   0  0  0  0  0  0  0  0  0  0  0  0
  -23.5260  -32.1630   23.7570 O   0  0  0  0  0  0  0  0  0  0  0  0
  -22.7620  -29.4700   22.5500 C   0  0  0  0  0  0  0  0  0  0  0  0
  -21.4340  -29.2960   22.4290 N   0  0  0  0  0  0  0  0  0  0  0  0
  -23.4390  -28.8480   23.3720 O   0  0  0  0  0  0  0  0  0  0  0  0
  -20.9420  -29.8560   21.7460 H   0  0  0  0  0  0  0  0  0  0  0  0
  -18.0560  -28.0940   22.9480 C   0  0  0  0  0  0  0  0  0  0  0  0
  -20.6180  -28.3550   23.2020 C   0  0  0  0  0  3  0  0  0  0  0  0
  -20.7170  -26.9230   22.6250 C   0  0  0  0  0  2  0  0  0  0  0  0
  -19.6070  -26.6060   21.6170 C   0  0  0  0  0  2  0  0  0  0  0  0
  -18.2280  -26.7490   22.2650 C   0  0  0  0  0  2  0  0  0  0  0  0
  -19.1780  -28.8550   23.3740 C   0  0  0  0  0  0  0  0  0  0  0  0
  -18.9600  -30.1140   23.9730 C   0  0  0  0  0  3  0  0  0  0  0  0
  -17.6550  -30.6140   24.1490 C   0  0  0  0  0  3  0  0  0  0  0  0
  -16.5490  -29.8500   23.7400 C   0  0  0  0  0  3  0  0  0  0  0  0
  -16.7510  -28.5930   23.1440 C   0  0  0  0  0  3  0  0  0  0  0  0
  -25.8830  -32.5400   23.8530 C   0  0  0  0  0  3  0  0  0  0  0  0
  -26.3940  -31.7840   25.1420 C   0  0  1  0  0  0  0  0  0  0  0  0
  -25.2930  -31.5480   26.2040 C   0  0  0  0  0  1  0  0  0  0  0  0
  -26.9870  -30.4060   24.7710 C   0  0  0  0  0  1  0  0  0  0  0  0
  -27.5360  -32.5890   25.8060 C   0  0  0  0  0  1  0  0  0  0  0  0
  -25.5620  -33.9390   24.1770 N   0  0  0  0  0  0  0  0  0  0  0  0
  -25.8990  -34.9950   23.4240 C   0  0  0  0  0  0  0  0  0  0  0  0
  -26.5790  -34.8920   22.3990 O   0  0  0  0  0  0  0  0  0  0  0  0
  -24.9660  -34.0940   24.9790 H   0  0  0  0  0  0  0  0  0  0  0  0
  -24.1760  -36.7910   23.0460 C   0  0  0  0  0  1  0  0  0  0  0  0
  -25.4050  -36.3840   23.8760 C   0  0  0  0  0  3  0  0  0  0  0  0
  -27.5230  -37.2710   24.7460 C   0  0  0  0  0  1  0  0  0  0  0  0
  -26.4390  -37.4400   23.7850 N   0  0  0  0  0  0  0  0  0  0  0  0
  -26.0280  -38.3580   23.9350 H   0  0  0  0  0  0  0  0  0  0  0  0
  3  6  1  0
  4  2  1  0
  5  3  2  0
  5  7  1  0
  6  2  2  0
  6  1  1  0
  7 16  1  0
  7  4  2  0
  8 16  1  0
  9 14  1  0
 10 11  1  0
 10  9  1  0
 12 11  1  0
 12 21  1  0
 12 13  1  0
 14  8  1  0
 14 13  1  0
 15  8  2  0
 16 17  1  0
 18 19  2  0
 19 38  1  0
 20 19  1  0
 20 23  1  0
 21 22  1  0
 21 18  1  0
 22 20  2  0
 23 24  1  0
 24 25  2  0
 26 29  1  0
 26 25  1  0
 27 26  2  0
 28 27  1  0
 28 23  2  0
 29 30  1  0
 30 31  1  0
 31 32  2  0
 33 32  1  0
 33 37  1  0
 34 33  2  0
 35 30  2  0
 35 34  1  0
 36 35  1  0
 38 39  1  0
 39 42  1  0
 39 41  1  0
 40 38  2  0
 43 44  1  0
 43 18  1  0
 45 43  1  0
 47 46  1  0
 47 48  1  0
 47  1  1  0
 49 51  1  0
 49 48  1  0
 50 61  2  0
 51 56  1  0
 52 60  1  0
 52 62  1  0
 53 59  1  0
 53 55  1  0
 54 60  1  0
 55 54  1  0
 56 55  2  0
 57 51  2  0
 58 57  1  0
 58 53  2  0
 59 52  1  0
 60 50  1  0
 62 64  2  0
 63 62  1  0
 65 63  1  0
 66 75  2  0
 66 71  1  0
 67 63  1  0
 67 71  1  0
 68 67  1  0
 69 70  1  0
 69 68  1  0
 70 66  1  0
 71 72  2  0
 72 73  1  0
 74 73  2  0
 75 74  1  0
 76 50  1  0
 76 81  1  0
 76 77  1  0
 77 80  1  1
 77 78  1  0
 79 77  1  0
 81 84  1  0
 82 86  1  0
 82 81  1  0
 83 82  2  0
 86 85  1  0
 88 86  1  0
 88 89  1  0
 88 87  1  0
M  ISO  4   8 100  16 100  48 101  49 101
M  END
>  <TORSDO>  (88) 
F 19

>  <SCORE>  (88) 
-14.153

>  <name>  (88) 
87

>  <ligand_id>  (88) 
87

>  <original_smiles>  (88) 
[H]c1c([H])c([H])c2c(c1[H])C([H])([H])C([H])([H])C([H])([H])C2([H])N([H])C(=O)C1([H])N(C(=O)C([H])(N([H])C(=O)C([H])(N([H])C([H])([H])[H])C([H])([H])[H])C(C([H])([H])[H])(C([H])([H])[H])C([H])([H])[H])C([H])([H])c2c([H])c(OC([H])([H])C([H])(C([H])([H])[H])C([H])([H])c3c([H])c([H])c(N([H])C(=O)N4C([H])([H])C([H])([H])C([H])([H])C([H])(n5nc(-c6c([H])c([H])c(Oc7c([H])c([H])c(F)c([H])c7F)c([H])c6[H])c(C(=O)N([H])[H])c5N([H])[H])C4([H])[H])c([H])c3[H])c([H])c([H])c2C1([H])[H]

>  <smiles>  (88) 
[H]c1c([H])c([H])c2c(c1[H])C([H])([H])C([H])([H])C([H])([H])C2([H])N([H])C(=O)C1([H])N(C(=O)C([H])(N([H])C(=O)C([H])(N([H])C([H])([H])[H])C([H])([H])[H])C(C([H])([H])[H])(C([H])([H])[H])C([H])([H])[H])C([H])([H])c2c([H])c(OC([H])([H])C([H])(C([H])([H])[H])C([H])([H])c3c([H])c([H])c(N([H])C(=O)N4C([H])([H])C([H])([H])C([H])([H])C([H])(n5nc(-c6c([H])c([H])c(Oc7c([H])c([H])c(F)c([H])c7F)c([H])c6[H])c(C(=O)N([H])[H])c5N([H])[H])C4([H])[H])c([H])c3[H])c([H])c([H])c2C1([H])[H]

$$$$
88:0:0
     RDKit          3D

 92100  0  0  1  0  0  0  0  0999 V2000
  -30.5270  -15.3780   20.2470 C   0  0  0  0  0  0  0  0  0  0  0  0
  -30.4610  -12.8910   19.4630 C   0  0  0  0  0  2  0  0  0  0  0  0
  -29.5750  -12.6320   18.2190 C   0  0  0  0  0  2  0  0  0  0  0  0
  -28.1210  -12.3780   18.6420 C   0  0  0  0  0  2  0  0  0  0  0  0
  -27.6500  -13.3900   19.7150 C   0  0  0  0  0  3  0  0  0  0  0  0
  -28.6730  -13.6000   20.8560 C   0  0  0  0  0  2  0  0  0  0  0  0
  -29.9130  -14.0840   20.2250 N   0  0  0  0  0  0  0  0  0  0  0  0
  -31.7320  -15.3000   19.9620 O   0  0  0  0  0  0  0  0  0  0  0  0
  -28.7590  -18.8500   21.3660 C   0  0  0  0  0  2  0  0  0  0  0  0
  -28.8550  -17.2280   21.2880 C   0  0  0  0  0  2  0  0  0  0  0  0
  -30.2640  -18.1950   19.7350 C   0  0  0  0  0  3  0  0  0  0  0  0
  -29.1730  -19.5130   20.0250 C   0  0  0  0  0  3  0  0  0  0  0  0
  -29.8860  -16.7370   20.3210 N   0  0  0  0  0  0  0  0  0  0  0  0
  -25.2780  -13.9870   20.4230 C   0  0  0  0  0  0  0  0  0  0  0  0
  -24.2010  -13.2310   20.7890 C   0  0  0  0  0  0  0  0  0  0  0  0
  -24.6500  -11.8750   20.7890 C   0  0  0  0  0  0  0  0  0  0  0  0
  -26.3130  -13.0950   20.2100 N   0  0  0  0  0  0  0  0  0  0  0  0
  -25.9470  -11.8180   20.5000 N   0  0  0  0  0  0  0  0  0  0  0  0
  -23.9010  -10.6260   20.9880 C   0  0  0  0  0  0  0  0  0  0  0  0
  -24.3100   -9.6600   21.9330 C   0  0  0  0  0  3  0  0  0  0  0  0
  -23.5580   -8.4800   22.1220 C   0  0  0  0  0  3  0  0  0  0  0  0
  -22.3840   -8.2560   21.3650 C   0  0  0  0  0  0  0  0  0  0  0  0
  -21.9940   -9.2100   20.4080 C   0  0  0  0  0  3  0  0  0  0  0  0
  -22.7460  -10.3820   20.2170 C   0  0  0  0  0  3  0  0  0  0  0  0
  -21.6070   -7.1270   21.4610 O   0  0  0  0  0  0  0  0  0  0  0  0
  -21.5470   -6.3900   22.6170 C   0  0  0  0  0  0  0  0  0  0  0  0
  -21.1440   -6.9620   23.8440 C   0  0  0  0  0  3  0  0  0  0  0  0
  -21.0290   -6.1540   24.9920 C   0  0  0  0  0  3  0  0  0  0  0  0
  -21.3080   -4.7760   24.9160 C   0  0  0  0  0  0  0  0  0  0  0  0
  -21.7050   -4.2040   23.6940 C   0  0  0  0  0  3  0  0  0  0  0  0
  -21.8210   -5.0100   22.5470 C   0  0  0  0  0  0  0  0  0  0  0  0
  -22.1830   -4.4510   21.3680 F   0  0  0  0  0  0  0  0  0  0  0  0
  -21.1920   -3.9980   26.0180 F   0  0  0  0  0  0  0  0  0  0  0  0
  -22.8060  -13.7330   21.0210 C   0  0  0  0  0  0  0  0  0  0  0  0
  -22.0580  -13.0750   21.8970 N   0  0  0  0  0  0  0  0  0  0  0  0
  -22.3920  -14.7470   20.4600 O   0  0  0  0  0  0  0  0  0  0  0  0
  -22.4060  -12.2580   22.3750 H   0  0  0  0  0  0  0  0  0  0  0  0
  -21.1200  -13.3950   22.0970 H   0  0  0  0  0  0  0  0  0  0  0  0
  -25.4610  -15.3520   20.2200 N   0  0  0  0  0  0  0  0  0  0  0  0
  -24.6940  -16.0110   20.2930 H   0  0  0  0  0  0  0  0  0  0  0  0
  -26.3050  -15.7650   19.8450 H   0  0  0  0  0  0  0  0  0  0  0  0
  -30.5250  -18.0240   18.2330 C   0  0  0  0  0  0  0  0  0  0  0  0
  -31.6560  -18.5090   17.7310 N   0  0  0  0  0  0  0  0  0  0  0  0
  -29.7080  -17.4480   17.5170 O   0  0  0  0  0  0  0  0  0  0  0  0
  -32.3440  -18.9500   18.3260 H   0  0  0  0  0  0  0  0  0  0  0  0
  -31.8600  -18.4000   16.7480 H   0  0  0  0  0  0  0  0  0  0  0  0
  -29.4310  -21.1810   19.8340 N   0  0  0  0  0  4  0  0  0  0  0  0
  -29.4770  -21.2810   18.8320 H   0  0  0  0  0  0  0  0  0  0  0  0
  -30.3820  -21.3200   20.1370 H   0  0  0  0  0  0  0  0  0  0  0  0
  -28.6500  -22.5970   20.3260 C   0  0  0  0  0  2  0  0  0  0  0  0
  -28.5270  -24.2620   19.5700 C   0  0  0  0  0  2  0  0  0  0  0  0
  -28.4060  -25.8710   20.0220 O   0  0  0  0  0  0  0  0  0  0  0  0
  -24.5720  -31.6620   23.0100 C   0  0  0  0  0  0  0  0  0  0  0  0
  -27.3490  -26.9320   19.9060 C   0  0  0  0  0  0  0  0  0  0  0  0
  -23.4490  -30.2500   21.3340 C   0  0  0  0  0  3  0  0  0  0  0  0
  -24.9730  -28.7350   19.8810 C   0  0  0  0  0  0  0  0  0  0  0  0
  -26.0050  -30.5640   21.2130 C   0  0  0  0  0  2  0  0  0  0  0  0
  -26.1370  -29.1700   20.5260 C   0  0  0  0  0  0  0  0  0  0  0  0
  -27.3120  -28.2880   20.5170 C   0  0  0  0  0  3  0  0  0  0  0  0
  -26.1520  -26.6610   19.2050 C   0  0  0  0  0  3  0  0  0  0  0  0
  -25.0070  -27.5050   19.2020 C   0  0  0  0  0  3  0  0  0  0  0  0
  -23.7160  -29.6050   19.9440 C   0  0  0  0  0  2  0  0  0  0  0  0
  -24.6950  -30.8550   21.9060 N   0  0  0  0  0  0  0  0  0  0  0  0
  -23.4690  -31.8960   23.5290 O   0  0  0  0  0  0  0  0  0  0  0  0
  -22.7900  -29.2090   22.2770 C   0  0  0  0  0  0  0  0  0  0  0  0
  -21.4640  -29.0130   22.1600 N   0  0  0  0  0  0  0  0  0  0  0  0
  -23.4800  -28.5800   23.0810 O   0  0  0  0  0  0  0  0  0  0  0  0
  -20.9570  -29.5750   21.4900 H   0  0  0  0  0  0  0  0  0  0  0  0
  -18.1160  -27.7110   22.6830 C   0  0  0  0  0  0  0  0  0  0  0  0
  -20.6740  -28.0280   22.9100 C   0  0  0  0  0  3  0  0  0  0  0  0
  -20.7980  -26.6210   22.2790 C   0  0  0  0  0  2  0  0  0  0  0  0
  -19.6840  -26.3110   21.2730 C   0  0  0  0  0  2  0  0  0  0  0  0
  -18.3130  -26.3950   21.9480 C   0  0  0  0  0  2  0  0  0  0  0  0
  -19.2250  -28.4850   23.1210 C   0  0  0  0  0  0  0  0  0  0  0  0
  -18.9850  -29.7130   23.7730 C   0  0  0  0  0  3  0  0  0  0  0  0
  -17.6700  -30.1700   23.9900 C   0  0  0  0  0  3  0  0  0  0  0  0
  -16.5780  -29.3940   23.5650 C   0  0  0  0  0  3  0  0  0  0  0  0
  -16.8010  -28.1660   22.9190 C   0  0  0  0  0  3  0  0  0  0  0  0
  -25.8100  -32.3460   23.6660 C   0  0  0  0  0  3  0  0  0  0  0  0
  -26.3690  -31.5520   24.9110 C   0  0  1  0  0  0  0  0  0  0  0  0
  -25.2940  -31.2180   25.9730 C   0  0  0  0  0  1  0  0  0  0  0  0
  -27.0190  -30.2200   24.4720 C   0  0  0  0  0  1  0  0  0  0  0  0
  -27.4820  -32.3760   25.6020 C   0  0  0  0  0  1  0  0  0  0  0  0
  -25.4150  -33.7070   24.0730 N   0  0  0  0  0  0  0  0  0  0  0  0
  -25.6840  -34.8240   23.3840 C   0  0  0  0  0  0  0  0  0  0  0  0
  -26.3510  -34.8210   22.3460 O   0  0  0  0  0  0  0  0  0  0  0  0
  -24.8150  -33.7770   24.8810 H   0  0  0  0  0  0  0  0  0  0  0  0
  -23.8590  -36.5470   23.1530 C   0  0  0  0  0  1  0  0  0  0  0  0
  -25.1280  -36.1570   23.9290 C   0  0  0  0  0  3  0  0  0  0  0  0
  -27.2160  -37.1090   24.8040 C   0  0  0  0  0  1  0  0  0  0  0  0
  -26.1010  -37.2690   23.8740 N   0  0  0  0  0  0  0  0  0  0  0  0
  -25.6470  -38.1570   24.0730 H   0  0  0  0  0  0  0  0  0  0  0  0
  1 13  1  0
  2  7  1  0
  3  4  1  0
  3  2  1  0
  5  4  1  0
  5 17  1  0
  5  6  1  0
  7  1  1  0
  7  6  1  0
  8  1  2  0
 10  9  1  0
 11 42  1  0
 11 12  1  0
 11 13  1  0
 12 47  1  0
 12  9  1  0
 13 10  1  0
 14 15  2  0
 15 34  1  0
 16 15  1  0
 16 19  1  0
 17 14  1  0
 17 18  1  0
 18 16  2  0
 19 20  1  0
 20 21  2  0
 22 25  1  0
 22 21  1  0
 23 22  2  0
 24 23  1  0
 24 19  2  0
 25 26  1  0
 26 27  1  0
 27 28  2  0
 29 28  1  0
 29 33  1  0
 30 29  2  0
 31 26  2  0
 31 30  1  0
 32 31  1  0
 34 35  1  0
 35 38  1  0
 35 37  1  0
 36 34  2  0
 39 40  1  0
 39 14  1  0
 41 39  1  0
 43 42  1  0
 43 45  1  0
 44 42  2  0
 46 43  1  0
 47 49  1  0
 47 50  1  0
 48 47  1  0
 51 52  1  0
 51 50  1  0
 53 64  2  0
 54 52  1  0
 54 59  1  0
 55 63  1  0
 55 65  1  0
 56 62  1  0
 56 58  1  0
 57 63  1  0
 58 57  1  0
 59 58  2  0
 60 54  2  0
 61 60  1  0
 61 56  2  0
 62 55  1  0
 63 53  1  0
 65 67  2  0
 66 65  1  0
 68 66  1  0
 69 78  2  0
 69 74  1  0
 70 66  1  0
 70 74  1  0
 71 70  1  0
 72 73  1  0
 72 71  1  0
 73 69  1  0
 74 75  2  0
 75 76  1  0
 77 76  2  0
 78 77  1  0
 79 53  1  0
 79 84  1  0
 79 80  1  0
 80 83  1  1
 80 81  1  0
 82 80  1  0
 84 87  1  0
 85 89  1  0
 85 84  1  0
 86 85  2  0
 89 88  1  0
 91 89  1  0
 91 92  1  0
 91 90  1  0
M  ISO  4   1 100  13 100  51 101  52 101
M  END
>  <TORSDO>  (89) 
F 19

>  <SCORE>  (89) 
-14.094

>  <name>  (89) 
88

>  <ligand_id>  (89) 
88

>  <original_smiles>  (89) 
[H]c1c([H])c([H])c2c(c1[H])C([H])([H])C([H])([H])C([H])([H])C2([H])N([H])C(=O)C1([H])N(C(=O)C([H])(N([H])C(=O)C([H])(N([H])C([H])([H])[H])C([H])([H])[H])C(C([H])([H])[H])(C([H])([H])[H])C([H])([H])[H])C([H])([H])c2c([H])c(OC([H])([H])C([H])([H])[N+]([H])([H])C3([H])C([H])(C(=O)N([H])[H])N(C(=O)N4C([H])([H])C([H])([H])C([H])([H])C([H])(n5nc(-c6c([H])c([H])c(Oc7c([H])c([H])c(F)c([H])c7F)c([H])c6[H])c(C(=O)N([H])[H])c5N([H])[H])C4([H])[H])C([H])([H])C3([H])[H])c([H])c([H])c2C1([H])[H]

>  <smiles>  (89) 
[H]c1c([H])c([H])c2c(c1[H])C([H])([H])C([H])([H])C([H])([H])C2([H])N([H])C(=O)C1([H])N(C(=O)C([H])(N([H])C(=O)C([H])(N([H])C([H])([H])[H])C([H])([H])[H])C(C([H])([H])[H])(C([H])([H])[H])C([H])([H])[H])C([H])([H])c2c([H])c(OC([H])([H])C([H])([H])[N+]([H])([H])C3([H])C([H])(C(=O)N([H])[H])N(C(=O)N4C([H])([H])C([H])([H])C([H])([H])C([H])(n5nc(-c6c([H])c([H])c(Oc7c([H])c([H])c(F)c([H])c7F)c([H])c6[H])c(C(=O)N([H])[H])c5N([H])[H])C4([H])[H])C([H])([H])C3([H])[H])c([H])c([H])c2C1([H])[H]

$$$$
89:0:0
     RDKit          3D

 90 97  0  0  1  0  0  0  0  0999 V2000
  -29.3810  -22.8610   20.1390 C   0  0  0  0  0  0  0  0  0  0  0  0
  -29.5870  -22.4710   18.9540 N   0  0  0  0  0  0  0  0  0  0  0  0
  -29.5410  -21.4590   18.8880 H   0  0  0  0  0  0  0  0  0  0  0  0
  -29.0970  -21.8560   21.2730 C   0  0  0  0  0  2  0  0  0  0  0  0
  -29.7560  -20.4330   21.1890 C   0  0  0  0  0  2  0  0  0  0  0  0
  -29.0920  -19.3780   20.2550 C   0  0  0  0  0  2  0  0  0  0  0  0
  -29.0140  -17.8920   20.7510 C   0  0  0  0  0  2  0  0  0  0  0  0
  -31.3250  -17.3860   21.7400 C   0  0  0  0  0  1  0  0  0  0  0  0
  -30.2860  -16.9900   20.6770 C   0  0  0  0  0  3  0  0  0  0  0  0
  -30.6460  -14.5020   20.3340 C   0  0  0  0  0  0  0  0  0  0  0  0
  -30.3340  -12.3200   19.2250 C   0  0  0  0  0  2  0  0  0  0  0  0
  -29.3800  -12.5180   18.0290 C   0  0  0  0  0  2  0  0  0  0  0  0
  -27.9110  -12.3780   18.4780 C   0  0  0  0  0  2  0  0  0  0  0  0
  -27.5900  -13.2250   19.7390 C   0  0  0  0  0  3  0  0  0  0  0  0
  -28.6620  -13.0200   20.8350 C   0  0  0  0  0  2  0  0  0  0  0  0
  -29.9760  -13.3170   20.2450 N   0  0  0  0  0  0  0  0  0  0  0  0
  -31.7690  -14.6630   19.8510 O   0  0  0  0  0  0  0  0  0  0  0  0
  -29.9380  -15.5520   20.8130 N   0  0  0  0  0  0  0  0  0  0  0  0
  -29.0220  -15.3340   21.1740 H   0  0  0  0  0  0  0  0  0  0  0  0
  -25.2040  -13.8380   20.4780 C   0  0  0  0  0  0  0  0  0  0  0  0
  -24.1400  -13.0690   20.8660 C   0  0  0  0  0  0  0  0  0  0  0  0
  -24.5980  -11.7160   20.8350 C   0  0  0  0  0  0  0  0  0  0  0  0
  -26.2440  -12.9520   20.2370 N   0  0  0  0  0  0  0  0  0  0  0  0
  -25.8840  -11.6720   20.5090 N   0  0  0  0  0  0  0  0  0  0  0  0
  -23.8710  -10.4560   21.0390 C   0  0  0  0  0  0  0  0  0  0  0  0
  -24.3220   -9.4850   21.9610 C   0  0  0  0  0  3  0  0  0  0  0  0
  -23.5960   -8.2900   22.1520 C   0  0  0  0  0  3  0  0  0  0  0  0
  -22.4050   -8.0570   21.4240 C   0  0  0  0  0  0  0  0  0  0  0  0
  -21.9740   -9.0160   20.4920 C   0  0  0  0  0  3  0  0  0  0  0  0
  -22.7000  -10.2040   20.2970 C   0  0  0  0  0  3  0  0  0  0  0  0
  -21.6490   -6.9150   21.5280 O   0  0  0  0  0  0  0  0  0  0  0  0
  -21.6350   -6.1610   22.6740 C   0  0  0  0  0  0  0  0  0  0  0  0
  -21.2710   -6.7100   23.9230 C   0  0  0  0  0  3  0  0  0  0  0  0
  -21.2050   -5.8840   25.0630 C   0  0  0  0  0  3  0  0  0  0  0  0
  -21.4910   -4.5100   24.9540 C   0  0  0  0  0  0  0  0  0  0  0  0
  -21.8480   -3.9610   23.7110 C   0  0  0  0  0  3  0  0  0  0  0  0
  -21.9170   -4.7830   22.5740 C   0  0  0  0  0  0  0  0  0  0  0  0
  -22.2410   -4.2450   21.3740 F   0  0  0  0  0  0  0  0  0  0  0  0
  -21.4180   -3.7150   26.0470 F   0  0  0  0  0  0  0  0  0  0  0  0
  -22.7470  -13.5500   21.1540 C   0  0  0  0  0  0  0  0  0  0  0  0
  -22.0290  -12.8610   22.0340 N   0  0  0  0  0  0  0  0  0  0  0  0
  -22.3050  -14.5740   20.6340 O   0  0  0  0  0  0  0  0  0  0  0  0
  -22.3980  -12.0330   22.4770 H   0  0  0  0  0  0  0  0  0  0  0  0
  -21.0960  -13.1670   22.2670 H   0  0  0  0  0  0  0  0  0  0  0  0
  -25.3710  -15.2060   20.2900 N   0  0  0  0  0  0  0  0  0  0  0  0
  -24.6060  -15.8630   20.4020 H   0  0  0  0  0  0  0  0  0  0  0  0
  -26.2120  -15.6380   19.9330 H   0  0  0  0  0  0  0  0  0  0  0  0
  -29.4110  -24.3670   20.5000 C   0  0  0  0  0  2  0  0  0  0  0  0
  -28.2230  -25.2060   19.9440 C   0  0  0  0  0  2  0  0  0  0  0  0
  -28.3400  -26.6310   20.1930 O   0  0  0  0  0  0  0  0  0  0  0  0
  -24.5580  -31.8720   23.2330 C   0  0  0  0  0  0  0  0  0  0  0  0
  -27.1800  -27.3940   20.1480 C   0  0  0  0  0  0  0  0  0  0  0  0
  -23.3470  -30.4760   21.5910 C   0  0  0  0  0  3  0  0  0  0  0  0
  -24.7940  -28.9400   20.1590 C   0  0  0  0  0  0  0  0  0  0  0  0
  -25.8770  -30.8210   21.3910 C   0  0  0  0  0  2  0  0  0  0  0  0
  -25.9570  -29.4490   20.7490 C   0  0  0  0  0  0  0  0  0  0  0  0
  -27.1520  -28.6840   20.7390 C   0  0  0  0  0  3  0  0  0  0  0  0
  -25.9950  -26.9200   19.5360 C   0  0  0  0  0  3  0  0  0  0  0  0
  -24.8100  -27.6760   19.5480 C   0  0  0  0  0  3  0  0  0  0  0  0
  -23.5530  -29.8030   20.2090 C   0  0  0  0  0  2  0  0  0  0  0  0
  -24.6130  -31.0720   22.1300 N   0  0  0  0  0  0  0  0  0  0  0  0
  -23.4780  -32.1450   23.7740 O   0  0  0  0  0  0  0  0  0  0  0  0
  -22.6940  -29.4550   22.5500 C   0  0  0  0  0  0  0  0  0  0  0  0
  -21.3690  -29.2760   22.4260 N   0  0  0  0  0  0  0  0  0  0  0  0
  -23.3780  -28.8250   23.3630 O   0  0  0  0  0  0  0  0  0  0  0  0
  -20.8780  -29.8360   21.7440 H   0  0  0  0  0  0  0  0  0  0  0  0
  -17.9940  -28.0820   22.9210 C   0  0  0  0  0  0  0  0  0  0  0  0
  -20.5510  -28.3390   23.1970 C   0  0  0  0  0  3  0  0  0  0  0  0
  -20.6540  -26.9080   22.6220 C   0  0  0  0  0  2  0  0  0  0  0  0
  -19.5540  -26.5840   21.6070 C   0  0  0  0  0  2  0  0  0  0  0  0
  -18.1710  -26.7310   22.2470 C   0  0  0  0  0  2  0  0  0  0  0  0
  -19.1120  -28.8440   23.3520 C   0  0  0  0  0  0  0  0  0  0  0  0
  -18.8930  -30.1090   23.9400 C   0  0  0  0  0  3  0  0  0  0  0  0
  -17.5880  -30.6120   24.1000 C   0  0  0  0  0  3  0  0  0  0  0  0
  -16.4840  -29.8470   23.6850 C   0  0  0  0  0  3  0  0  0  0  0  0
  -16.6880  -28.5840   23.1020 C   0  0  0  0  0  3  0  0  0  0  0  0
  -25.8460  -32.5000   23.8510 C   0  0  0  0  0  3  0  0  0  0  0  0
  -25.5360  -33.8940   24.1970 N   0  0  0  0  0  0  0  0  0  0  0  0
  -25.8560  -34.9540   23.4440 C   0  0  0  0  0  0  0  0  0  0  0  0
  -26.5160  -34.8620   22.4050 O   0  0  0  0  0  0  0  0  0  0  0  0
  -24.9490  -34.0400   25.0060 H   0  0  0  0  0  0  0  0  0  0  0  0
  -24.1120  -36.7380   23.1270 C   0  0  0  0  0  1  0  0  0  0  0  0
  -25.3680  -36.3370   23.9180 C   0  0  0  0  0  3  0  0  0  0  0  0
  -27.5120  -37.2240   24.7200 C   0  0  0  0  0  1  0  0  0  0  0  0
  -26.3930  -37.3960   23.7980 N   0  0  0  0  0  0  0  0  0  0  0  0
  -25.9840  -38.3120   23.9620 H   0  0  0  0  0  0  0  0  0  0  0  0
  -26.3760  -31.7160   25.1140 C   0  0  1  0  0  0  0  0  0  0  0  0
  -25.2920  -31.4650   26.1890 C   0  0  0  0  0  1  0  0  0  0  0  0
  -26.9570  -30.3450   24.7000 C   0  0  0  0  0  1  0  0  0  0  0  0
  -27.5300  -32.5050   25.7760 C   0  0  0  0  0  1  0  0  0  0  0  0
  1 48  1  0
  1  4  1  0
  2  1  2  0
  3  2  1  0
  5  4  1  0
  6  7  1  0
  6  5  1  0
  9  7  1  0
  9 18  1  0
  9  8  1  0
 10 18  1  0
 11 16  1  0
 12 13  1  0
 12 11  1  0
 14 13  1  0
 14 23  1  0
 14 15  1  0
 16 10  1  0
 16 15  1  0
 17 10  2  0
 18 19  1  0
 20 21  2  0
 21 40  1  0
 22 21  1  0
 22 25  1  0
 23 20  1  0
 23 24  1  0
 24 22  2  0
 25 26  1  0
 26 27  2  0
 28 31  1  0
 28 27  1  0
 29 28  2  0
 30 29  1  0
 30 25  2  0
 31 32  1  0
 32 33  1  0
 33 34  2  0
 35 34  1  0
 35 39  1  0
 36 35  2  0
 37 32  2  0
 37 36  1  0
 38 37  1  0
 40 41  1  0
 41 44  1  0
 41 43  1  0
 42 40  2  0
 45 46  1  0
 45 20  1  0
 47 45  1  0
 49 50  1  0
 49 48  1  0
 51 62  2  0
 52 50  1  0
 52 57  1  0
 53 61  1  0
 53 63  1  0
 54 60  1  0
 54 56  1  0
 55 61  1  0
 56 55  1  0
 57 56  2  0
 58 59  1  0
 58 52  2  0
 59 54  2  0
 60 53  1  0
 61 51  1  0
 63 65  2  0
 64 63  1  0
 66 64  1  0
 67 76  2  0
 67 72  1  0
 68 64  1  0
 68 72  1  0
 69 68  1  0
 70 71  1  0
 70 69  1  0
 71 67  1  0
 72 73  2  0
 73 74  1  0
 75 74  2  0
 76 75  1  0
 77 51  1  0
 77 78  1  0
 77 87  1  0
 78 81  1  0
 79 83  1  0
 79 78  1  0
 80 79  2  0
 83 82  1  0
 85 83  1  0
 85 86  1  0
 85 84  1  0
 87 90  1  1
 87 88  1  0
 89 87  1  0
M  ISO  4  10 100  18 100  49 101  50 101
M  END
>  <TORSDO>  (90) 
F 23

>  <SCORE>  (90) 
-12.723

>  <name>  (90) 
89

>  <ligand_id>  (90) 
89

>  <original_smiles>  (90) 
[H]N=C(C([H])([H])C([H])([H])Oc1c([H])c([H])c2c(c1[H])C([H])([H])N(C(=O)C([H])(N([H])C(=O)C([H])(N([H])C([H])([H])[H])C([H])([H])[H])C(C([H])([H])[H])(C([H])([H])[H])C([H])([H])[H])C([H])(C(=O)N([H])C1([H])c3c([H])c([H])c([H])c([H])c3C([H])([H])C([H])([H])C1([H])[H])C2([H])[H])C([H])([H])C([H])([H])C([H])([H])C([H])([H])C([H])(N([H])C(=O)N1C([H])([H])C([H])([H])C([H])([H])C([H])(n2nc(-c3c([H])c([H])c(Oc4c([H])c([H])c(F)c([H])c4F)c([H])c3[H])c(C(=O)N([H])[H])c2N([H])[H])C1([H])[H])C([H])([H])[H]

>  <smiles>  (90) 
[H]N=C(C([H])([H])C([H])([H])Oc1c([H])c([H])c2c(c1[H])C([H])([H])N(C(=O)C([H])(N([H])C(=O)C([H])(N([H])C([H])([H])[H])C([H])([H])[H])C(C([H])([H])[H])(C([H])([H])[H])C([H])([H])[H])C([H])(C(=O)N([H])C1([H])c3c([H])c([H])c([H])c([H])c3C([H])([H])C([H])([H])C1([H])[H])C2([H])[H])C([H])([H])C([H])([H])C([H])([H])C([H])([H])C([H])(N([H])C(=O)N1C([H])([H])C([H])([H])C([H])([H])C([H])(n2nc(-c3c([H])c([H])c(Oc4c([H])c([H])c(F)c([H])c4F)c([H])c3[H])c(C(=O)N([H])[H])c2N([H])[H])C1([H])[H])C([H])([H])[H]

$$$$
90:0:0
     RDKit          3D

 89 97  0  0  1  0  0  0  0  0999 V2000
  -28.2550  -21.9320   19.0650 C   0  0  0  0  0  2  0  0  0  0  0  0
  -28.9780  -20.4840   18.9680 C   0  0  0  0  0  2  0  0  0  0  0  0
  -28.8290  -22.0110   21.3790 C   0  0  0  0  0  2  0  0  0  0  0  0
  -28.7520  -23.0280   20.1180 C   0  0  0  0  0  3  0  0  0  0  0  0
  -29.1360  -19.5750   20.2660 C   0  0  0  0  0  3  0  0  0  0  0  0
  -29.5910  -20.6530   21.2530 N   0  0  0  0  0  4  0  0  0  0  0  0
  -29.5830  -20.2230   22.1630 H   0  0  0  0  0  0  0  0  0  0  0  0
  -30.5530  -20.8720   21.0530 H   0  0  0  0  0  0  0  0  0  0  0  0
  -31.5300  -18.4190   20.2750 C   0  0  0  0  0  1  0  0  0  0  0  0
  -30.0340  -18.1020   20.0870 C   0  0  0  0  0  3  0  0  0  0  0  0
  -29.7020  -16.5180   20.6740 C   0  0  0  0  0  2  0  0  0  0  0  0
  -30.4790  -15.0540   20.3260 C   0  0  0  0  0  0  0  0  0  0  0  0
  -30.3730  -12.6820   19.3850 C   0  0  0  0  0  2  0  0  0  0  0  0
  -29.4440  -12.6390   18.1470 C   0  0  0  0  0  2  0  0  0  0  0  0
  -27.9810  -12.4190   18.5740 C   0  0  0  0  0  2  0  0  0  0  0  0
  -27.5700  -13.3400   19.7520 C   0  0  0  0  0  3  0  0  0  0  0  0
  -28.6230  -13.3620   20.8810 C   0  0  0  0  0  2  0  0  0  0  0  0
  -29.8990  -13.7770   20.2870 N   0  0  0  0  0  0  0  0  0  0  0  0
  -31.6700  -15.0860   19.9950 O   0  0  0  0  0  0  0  0  0  0  0  0
  -25.1850  -13.9140   20.4740 C   0  0  0  0  0  0  0  0  0  0  0  0
  -24.1200  -13.1410   20.8420 C   0  0  0  0  0  0  0  0  0  0  0  0
  -24.5880  -11.7910   20.8270 C   0  0  0  0  0  0  0  0  0  0  0  0
  -26.2320  -13.0380   20.2470 N   0  0  0  0  0  0  0  0  0  0  0  0
  -25.8810  -11.7540   20.5240 N   0  0  0  0  0  0  0  0  0  0  0  0
  -23.8600  -10.5290   21.0200 C   0  0  0  0  0  0  0  0  0  0  0  0
  -24.2880   -9.5660   21.9600 C   0  0  0  0  0  3  0  0  0  0  0  0
  -23.5610   -8.3710   22.1420 C   0  0  0  0  0  3  0  0  0  0  0  0
  -22.3910   -8.1290   21.3840 C   0  0  0  0  0  0  0  0  0  0  0  0
  -21.9820   -9.0800   20.4320 C   0  0  0  0  0  3  0  0  0  0  0  0
  -22.7100  -10.2670   20.2480 C   0  0  0  0  0  3  0  0  0  0  0  0
  -21.6350   -6.9850   21.4740 O   0  0  0  0  0  0  0  0  0  0  0  0
  -21.5810   -6.2470   22.6300 C   0  0  0  0  0  0  0  0  0  0  0  0
  -21.1570   -6.8070   23.8540 C   0  0  0  0  0  3  0  0  0  0  0  0
  -21.0500   -5.9970   25.0010 C   0  0  0  0  0  3  0  0  0  0  0  0
  -21.3590   -4.6260   24.9260 C   0  0  0  0  0  0  0  0  0  0  0  0
  -21.7760   -4.0630   23.7070 C   0  0  0  0  0  3  0  0  0  0  0  0
  -21.8850   -4.8720   22.5610 C   0  0  0  0  0  0  0  0  0  0  0  0
  -22.2660   -4.3200   21.3850 F   0  0  0  0  0  0  0  0  0  0  0  0
  -21.2480   -3.8440   26.0260 F   0  0  0  0  0  0  0  0  0  0  0  0
  -22.7190  -13.6170   21.0970 C   0  0  0  0  0  0  0  0  0  0  0  0
  -21.9840  -12.9290   21.9610 N   0  0  0  0  0  0  0  0  0  0  0  0
  -22.2870  -14.6390   20.5640 O   0  0  0  0  0  0  0  0  0  0  0  0
  -22.3460  -12.1020   22.4130 H   0  0  0  0  0  0  0  0  0  0  0  0
  -21.0450  -13.2310   22.1740 H   0  0  0  0  0  0  0  0  0  0  0  0
  -25.3480  -15.2850   20.2860 N   0  0  0  0  0  0  0  0  0  0  0  0
  -24.5790  -15.9380   20.3840 H   0  0  0  0  0  0  0  0  0  0  0  0
  -26.1950  -15.7200   19.9450 H   0  0  0  0  0  0  0  0  0  0  0  0
  -27.8440  -24.5070   20.1270 C   0  0  0  0  0  2  0  0  0  0  0  0
  -28.1800  -26.0530   20.2590 O   0  0  0  0  0  0  0  0  0  0  0  0
  -24.6010  -31.8720   23.2100 C   0  0  0  0  0  0  0  0  0  0  0  0
  -27.1530  -27.0880   20.1930 C   0  0  0  0  0  0  0  0  0  0  0  0
  -23.4000  -30.4700   21.5830 C   0  0  0  0  0  3  0  0  0  0  0  0
  -24.8420  -28.8870   20.1560 C   0  0  0  0  0  0  0  0  0  0  0  0
  -25.9570  -30.7100   21.4250 C   0  0  0  0  0  2  0  0  0  0  0  0
  -26.0270  -29.3130   20.7720 C   0  0  0  0  0  0  0  0  0  0  0  0
  -27.1800  -28.4280   20.7750 C   0  0  0  0  0  3  0  0  0  0  0  0
  -25.9420  -26.7890   19.5280 C   0  0  0  0  0  3  0  0  0  0  0  0
  -24.8200  -27.6420   19.5140 C   0  0  0  0  0  3  0  0  0  0  0  0
  -23.6210  -29.7920   20.2040 C   0  0  0  0  0  2  0  0  0  0  0  0
  -24.6730  -31.0420   22.1250 N   0  0  0  0  0  0  0  0  0  0  0  0
  -23.5160  -32.1620   23.7380 O   0  0  0  0  0  0  0  0  0  0  0  0
  -22.7200  -29.4680   22.5500 C   0  0  0  0  0  0  0  0  0  0  0  0
  -21.3910  -29.3030   22.4310 N   0  0  0  0  0  0  0  0  0  0  0  0
  -23.3930  -28.8440   23.3760 O   0  0  0  0  0  0  0  0  0  0  0  0
  -20.9030  -29.8560   21.7410 H   0  0  0  0  0  0  0  0  0  0  0  0
  -18.0090  -28.1050   22.9610 C   0  0  0  0  0  0  0  0  0  0  0  0
  -20.5700  -28.3720   23.2130 C   0  0  0  0  0  3  0  0  0  0  0  0
  -20.6700  -26.9350   22.6490 C   0  0  0  0  0  2  0  0  0  0  0  0
  -19.5640  -26.6040   21.6420 C   0  0  0  0  0  2  0  0  0  0  0  0
  -18.1850  -26.7520   22.2910 C   0  0  0  0  0  2  0  0  0  0  0  0
  -19.1290  -28.8720   23.3790 C   0  0  0  0  0  0  0  0  0  0  0  0
  -18.9110  -30.1350   23.9690 C   0  0  0  0  0  3  0  0  0  0  0  0
  -17.6050  -30.6340   24.1410 C   0  0  0  0  0  3  0  0  0  0  0  0
  -16.5010  -29.8650   23.7370 C   0  0  0  0  0  3  0  0  0  0  0  0
  -16.7040  -28.6020   23.1520 C   0  0  0  0  0  3  0  0  0  0  0  0
  -25.8800  -32.5140   23.8300 C   0  0  0  0  0  3  0  0  0  0  0  0
  -26.4040  -31.7460   25.1060 C   0  0  1  0  0  0  0  0  0  0  0  0
  -25.3160  -31.5020   26.1810 C   0  0  0  0  0  1  0  0  0  0  0  0
  -26.9920  -30.3690   24.7230 C   0  0  0  0  0  1  0  0  0  0  0  0
  -27.5570  -32.5440   25.7590 C   0  0  0  0  0  1  0  0  0  0  0  0
  -25.5630  -33.9110   24.1690 N   0  0  0  0  0  0  0  0  0  0  0  0
  -25.8800  -34.9730   23.4180 C   0  0  0  0  0  0  0  0  0  0  0  0
  -26.5360  -34.8810   22.3760 O   0  0  0  0  0  0  0  0  0  0  0  0
  -24.9780  -34.0520   24.9800 H   0  0  0  0  0  0  0  0  0  0  0  0
  -24.1400  -36.7660   23.1020 C   0  0  0  0  0  1  0  0  0  0  0  0
  -25.3950  -36.3570   23.8920 C   0  0  0  0  0  3  0  0  0  0  0  0
  -27.5380  -37.2440   24.6990 C   0  0  0  0  0  1  0  0  0  0  0  0
  -26.4230  -37.4150   23.7730 N   0  0  0  0  0  0  0  0  0  0  0  0
  -26.0160  -38.3320   23.9350 H   0  0  0  0  0  0  0  0  0  0  0  0
  1  4  1  0
  2  1  1  0
  2  5  1  0
  4 48  1  0
  4  3  1  0
  5 10  1  0
  5  6  1  0
  6  3  1  0
  6  7  1  0
  8  6  1  0
 10  9  1  0
 10 11  1  0
 12 11  1  0
 13 18  1  0
 14 15  1  0
 14 13  1  0
 16 15  1  0
 16 23  1  0
 16 17  1  0
 18 12  1  0
 18 17  1  0
 19 12  2  0
 20 21  2  0
 21 40  1  0
 22 21  1  0
 22 25  1  0
 23 20  1  0
 23 24  1  0
 24 22  2  0
 25 26  1  0
 26 27  2  0
 28 31  1  0
 28 27  1  0
 29 28  2  0
 30 29  1  0
 30 25  2  0
 31 32  1  0
 32 33  1  0
 33 34  2  0
 35 34  1  0
 35 39  1  0
 36 35  2  0
 37 32  2  0
 37 36  1  0
 38 37  1  0
 40 41  1  0
 41 44  1  0
 41 43  1  0
 42 40  2  0
 45 46  1  0
 45 20  1  0
 47 45  1  0
 48 49  1  0
 50 61  2  0
 51 49  1  0
 51 56  1  0
 52 60  1  0
 52 62  1  0
 53 59  1  0
 53 55  1  0
 54 60  1  0
 55 56  2  0
 55 54  1  0
 57 51  2  0
 58 57  1  0
 58 53  2  0
 59 52  1  0
 60 50  1  0
 62 64  2  0
 63 62  1  0
 65 63  1  0
 66 75  2  0
 66 71  1  0
 67 63  1  0
 67 71  1  0
 68 67  1  0
 69 70  1  0
 69 68  1  0
 70 66  1  0
 71 72  2  0
 72 73  1  0
 74 73  2  0
 75 74  1  0
 76 50  1  0
 76 81  1  0
 76 77  1  0
 77 80  1  1
 77 78  1  0
 79 77  1  0
 81 84  1  0
 82 86  1  0
 82 81  1  0
 83 82  2  0
 86 85  1  0
 88 86  1  0
 88 89  1  0
 88 87  1  0
M  ISO  4  11 100  12 100  48 101  49 101
M  END
>  <TORSDO>  (91) 
F 19

>  <SCORE>  (91) 
-16.108

>  <name>  (91) 
90

>  <ligand_id>  (91) 
90

>  <original_smiles>  (91) 
[H]c1c([H])c([H])c2c(c1[H])C([H])([H])C([H])([H])C([H])([H])C2([H])N([H])C(=O)C1([H])N(C(=O)C([H])(N([H])C(=O)C([H])(N([H])C([H])([H])[H])C([H])([H])[H])C(C([H])([H])[H])(C([H])([H])[H])C([H])([H])[H])C([H])([H])c2c([H])c(OC([H])([H])C3([H])C([H])([H])C([H])([H])C([H])(C([H])(C([H])([H])[H])C([H])([H])C(=O)N4C([H])([H])C([H])([H])C([H])([H])C([H])(n5nc(-c6c([H])c([H])c(Oc7c([H])c([H])c(F)c([H])c7F)c([H])c6[H])c(C(=O)N([H])[H])c5N([H])[H])C4([H])[H])[N+]([H])([H])C3([H])[H])c([H])c([H])c2C1([H])[H]

>  <smiles>  (91) 
[H]c1c([H])c([H])c2c(c1[H])C([H])([H])C([H])([H])C([H])([H])C2([H])N([H])C(=O)C1([H])N(C(=O)C([H])(N([H])C(=O)C([H])(N([H])C([H])([H])[H])C([H])([H])[H])C(C([H])([H])[H])(C([H])([H])[H])C([H])([H])[H])C([H])([H])c2c([H])c(OC([H])([H])C3([H])C([H])([H])C([H])([H])C([H])(C([H])(C([H])([H])[H])C([H])([H])C(=O)N4C([H])([H])C([H])([H])C([H])([H])C([H])(n5nc(-c6c([H])c([H])c(Oc7c([H])c([H])c(F)c([H])c7F)c([H])c6[H])c(C(=O)N([H])[H])c5N([H])[H])C4([H])[H])[N+]([H])([H])C3([H])[H])c([H])c([H])c2C1([H])[H]

$$$$
91:0:0
     RDKit          3D

 89 96  0  0  1  0  0  0  0  0999 V2000
  -29.3800  -19.8130   20.5700 C   0  0  0  0  0  3  0  0  0  0  0  0
  -28.7920  -21.3220   19.8850 C   0  0  0  0  0  3  0  0  0  0  0  0
  -28.7180  -22.9450   20.5410 C   0  0  0  0  0  3  0  0  0  0  0  0
  -27.9800  -24.4090   19.9270 C   0  0  0  0  0  3  0  0  0  0  0  0
  -28.1620  -25.9660   20.2860 O   0  0  0  0  0  0  0  0  0  0  0  0
  -24.6510  -31.8750   23.1740 C   0  0  0  0  0  0  0  0  0  0  0  0
  -27.1410  -27.0170   20.1850 C   0  0  0  0  0  0  0  0  0  0  0  0
  -23.4250  -30.4680   21.5740 C   0  0  0  0  0  3  0  0  0  0  0  0
  -24.8390  -28.8500   20.1470 C   0  0  0  0  0  0  0  0  0  0  0  0
  -25.9830  -30.6780   21.3830 C   0  0  0  0  0  2  0  0  0  0  0  0
  -26.0320  -29.2700   20.7470 C   0  0  0  0  0  0  0  0  0  0  0  0
  -27.1770  -28.3700   20.7540 C   0  0  0  0  0  3  0  0  0  0  0  0
  -25.9250  -26.7300   19.5270 C   0  0  0  0  0  3  0  0  0  0  0  0
  -24.8030  -27.5920   19.5220 C   0  0  0  0  0  3  0  0  0  0  0  0
  -23.6240  -29.7710   20.2030 C   0  0  0  0  0  2  0  0  0  0  0  0
  -24.7090  -31.0310   22.0970 N   0  0  0  0  0  0  0  0  0  0  0  0
  -23.5740  -32.1790   23.7070 O   0  0  0  0  0  0  0  0  0  0  0  0
  -22.7430  -29.4840   22.5590 C   0  0  0  0  0  0  0  0  0  0  0  0
  -21.4120  -29.3200   22.4480 N   0  0  0  0  0  0  0  0  0  0  0  0
  -23.4140  -28.8700   23.3940 O   0  0  0  0  0  0  0  0  0  0  0  0
  -20.9200  -29.8710   21.7580 H   0  0  0  0  0  0  0  0  0  0  0  0
  -18.0380  -28.1100   22.9840 C   0  0  0  0  0  0  0  0  0  0  0  0
  -20.5970  -28.3970   23.2420 C   0  0  0  0  0  3  0  0  0  0  0  0
  -20.7040  -26.9520   22.6990 C   0  0  0  0  0  2  0  0  0  0  0  0
  -19.6060  -26.6020   21.6940 C   0  0  0  0  0  2  0  0  0  0  0  0
  -18.2230  -26.7500   22.3340 C   0  0  0  0  0  2  0  0  0  0  0  0
  -19.1520  -28.8910   23.3940 C   0  0  0  0  0  0  0  0  0  0  0  0
  -18.9260  -30.1600   23.9660 C   0  0  0  0  0  3  0  0  0  0  0  0
  -17.6210  -30.6600   24.1240 C   0  0  0  0  0  3  0  0  0  0  0  0
  -16.5210  -29.8800   23.7280 C   0  0  0  0  0  3  0  0  0  0  0  0
  -16.7280  -28.6040   23.1680 C   0  0  0  0  0  3  0  0  0  0  0  0
  -25.9380  -32.5160   23.7770 C   0  0  0  0  0  3  0  0  0  0  0  0
  -26.4730  -31.7420   25.0470 C   0  0  1  0  0  0  0  0  0  0  0  0
  -25.3940  -31.5080   26.1310 C   0  0  0  0  0  1  0  0  0  0  0  0
  -27.0580  -30.3660   24.6540 C   0  0  0  0  0  1  0  0  0  0  0  0
  -27.6310  -32.5380   25.6940 C   0  0  0  0  0  1  0  0  0  0  0  0
  -25.6270  -33.9120   24.1280 N   0  0  0  0  0  0  0  0  0  0  0  0
  -25.9380  -34.9790   23.3770 C   0  0  0  0  0  0  0  0  0  0  0  0
  -26.5840  -34.8880   22.3310 O   0  0  0  0  0  0  0  0  0  0  0  0
  -25.0560  -34.0540   24.9480 H   0  0  0  0  0  0  0  0  0  0  0  0
  -24.2000  -36.7760   23.0880 C   0  0  0  0  0  1  0  0  0  0  0  0
  -25.4620  -36.3620   23.8650 C   0  0  0  0  0  3  0  0  0  0  0  0
  -27.6140  -37.2440   24.6510 C   0  0  0  0  0  1  0  0  0  0  0  0
  -26.4880  -37.4190   23.7360 N   0  0  0  0  0  0  0  0  0  0  0  0
  -26.0850  -38.3360   23.9010 H   0  0  0  0  0  0  0  0  0  0  0  0
  -29.7370  -18.2460   19.8490 C   0  0  0  0  0  3  0  0  0  0  0  0
  -30.6040  -18.5020   18.6840 N   0  0  0  0  0  4  0  0  0  0  0  0
  -31.5290  -18.7630   18.9730 H   0  0  0  0  0  0  0  0  0  0  0  0
  -30.2190  -19.2510   18.1370 H   0  0  0  0  0  0  0  0  0  0  0  0
  -30.6690  -17.6920   18.0940 H   0  0  0  0  0  0  0  0  0  0  0  0
  -30.2310  -16.7350   20.6270 C   0  0  0  0  0  3  0  0  0  0  0  0
  -30.8460  -15.2450   20.0000 C   0  0  0  0  0  0  0  0  0  0  0  0
  -30.6620  -12.8890   18.9740 C   0  0  0  0  0  2  0  0  0  0  0  0
  -29.6720  -12.8670   17.7810 C   0  0  0  0  0  2  0  0  0  0  0  0
  -28.2380  -12.6300   18.2810 C   0  0  0  0  0  2  0  0  0  0  0  0
  -27.8950  -13.5210   19.5040 C   0  0  0  0  0  3  0  0  0  0  0  0
  -29.0050  -13.5160   20.5770 C   0  0  0  0  0  2  0  0  0  0  0  0
  -30.2430  -13.9690   19.9290 N   0  0  0  0  0  0  0  0  0  0  0  0
  -32.0000  -15.2530   19.5490 O   0  0  0  0  0  0  0  0  0  0  0  0
  -25.5670  -14.1000   20.3800 C   0  0  0  0  0  0  0  0  0  0  0  0
  -24.5110  -13.3300   20.7820 C   0  0  0  0  0  0  0  0  0  0  0  0
  -24.9570  -11.9760   20.6990 C   0  0  0  0  0  0  0  0  0  0  0  0
  -26.5850  -13.2180   20.0630 N   0  0  0  0  0  0  0  0  0  0  0  0
  -26.2330  -11.9320   20.3260 N   0  0  0  0  0  0  0  0  0  0  0  0
  -24.2200  -10.7200   20.8980 C   0  0  0  0  0  0  0  0  0  0  0  0
  -24.6490   -9.7530   21.8330 C   0  0  0  0  0  3  0  0  0  0  0  0
  -23.9080   -8.5660   22.0250 C   0  0  0  0  0  3  0  0  0  0  0  0
  -22.7290   -8.3370   21.2790 C   0  0  0  0  0  0  0  0  0  0  0  0
  -22.3180   -9.2940   20.3350 C   0  0  0  0  0  3  0  0  0  0  0  0
  -23.0550  -10.4720   20.1410 C   0  0  0  0  0  3  0  0  0  0  0  0
  -21.9640   -7.1990   21.3770 O   0  0  0  0  0  0  0  0  0  0  0  0
  -21.8690   -6.4910   22.5470 C   0  0  0  0  0  0  0  0  0  0  0  0
  -21.4120   -7.0880   23.7420 C   0  0  0  0  0  3  0  0  0  0  0  0
  -21.2620   -6.3090   24.9070 C   0  0  0  0  0  3  0  0  0  0  0  0
  -21.5600   -4.9330   24.8780 C   0  0  0  0  0  0  0  0  0  0  0  0
  -22.0090   -4.3350   23.6890 C   0  0  0  0  0  3  0  0  0  0  0  0
  -22.1600   -5.1110   22.5260 C   0  0  0  0  0  0  0  0  0  0  0  0
  -22.5740   -4.5250   21.3780 F   0  0  0  0  0  0  0  0  0  0  0  0
  -21.4080   -4.1840   25.9960 F   0  0  0  0  0  0  0  0  0  0  0  0
  -23.1360  -13.8220   21.1260 C   0  0  0  0  0  0  0  0  0  0  0  0
  -22.4440  -13.1320   22.0240 N   0  0  0  0  0  0  0  0  0  0  0  0
  -22.6880  -14.8570   20.6330 O   0  0  0  0  0  0  0  0  0  0  0  0
  -22.8200  -12.2950   22.4460 H   0  0  0  0  0  0  0  0  0  0  0  0
  -21.5260  -13.4520   22.2970 H   0  0  0  0  0  0  0  0  0  0  0  0
  -25.7370  -15.4720   20.2310 N   0  0  0  0  0  0  0  0  0  0  0  0
  -24.9850  -16.1190   20.4490 H   0  0  0  0  0  0  0  0  0  0  0  0
  -26.5620  -15.9290   19.8640 H   0  0  0  0  0  0  0  0  0  0  0  0
  -30.5560  -17.3850   23.1160 C   0  0  0  0  0  1  0  0  0  0  0  0
  -31.2190  -17.1510   21.7500 C   0  0  0  0  0  2  0  0  0  0  0  0
  2  3  1  0
  2  1  2  0
  4  5  1  0
  4  3  2  0
  6 17  2  0
  7  5  1  0
  7 12  1  0
  8 16  1  0
  8 18  1  0
  9 15  1  0
  9 11  1  0
 10 16  1  0
 11 12  2  0
 11 10  1  0
 13  7  2  0
 14 13  1  0
 14  9  2  0
 15  8  1  0
 16  6  1  0
 18 20  2  0
 19 18  1  0
 21 19  1  0
 22 31  2  0
 22 27  1  0
 23 19  1  0
 23 27  1  0
 24 23  1  0
 25 26  1  0
 25 24  1  0
 26 22  1  0
 27 28  2  0
 28 29  1  0
 30 29  2  0
 31 30  1  0
 32  6  1  0
 32 37  1  0
 32 33  1  0
 33 36  1  1
 33 34  1  0
 35 33  1  0
 37 40  1  0
 38 42  1  0
 38 37  1  0
 39 38  2  0
 42 41  1  0
 44 42  1  0
 44 45  1  0
 44 43  1  0
 46  1  1  0
 46 51  1  0
 47 48  1  0
 47 46  1  0
 49 47  1  0
 50 47  1  0
 51 89  1  0
 52 51  1  0
 53 58  1  0
 54 55  1  0
 54 53  1  0
 56 55  1  0
 56 63  1  0
 56 57  1  0
 58 52  1  0
 58 57  1  0
 59 52  2  0
 60 61  2  0
 61 80  1  0
 62 61  1  0
 62 65  1  0
 63 64  1  0
 63 60  1  0
 64 62  2  0
 65 66  1  0
 66 67  2  0
 68 71  1  0
 68 67  1  0
 69 68  2  0
 70 69  1  0
 70 65  2  0
 71 72  1  0
 72 73  1  0
 73 74  2  0
 75 74  1  0
 75 79  1  0
 76 75  2  0
 77 72  2  0
 77 76  1  0
 78 77  1  0
 80 81  1  0
 81 84  1  0
 81 83  1  0
 82 80  2  0
 85 60  1  0
 85 86  1  0
 87 85  1  0
 89 88  1  0
M  ISO  4   4 101   5 101  51 100  52 100
M  END
>  <TORSDO>  (92) 
F 23

>  <SCORE>  (92) 
-15.028

>  <name>  (92) 
91

>  <ligand_id>  (92) 
91

>  <original_smiles>  (92) 
[H]c1c([H])c([H])c2c(c1[H])C([H])([H])C([H])([H])C([H])([H])C2([H])N([H])C(=O)C1([H])N(C(=O)C([H])(N([H])C(=O)C([H])(N([H])C([H])([H])[H])C([H])([H])[H])C(C([H])([H])[H])(C([H])([H])[H])C([H])([H])[H])C([H])([H])c2c([H])c(OC([H])([H])C([H])([H])C([H])([H])C([H])([H])C([H])(C([H])(C(=O)N3C([H])([H])C([H])([H])C([H])([H])C([H])(n4nc(-c5c([H])c([H])c(Oc6c([H])c([H])c(F)c([H])c6F)c([H])c5[H])c(C(=O)N([H])[H])c4N([H])[H])C3([H])[H])C([H])([H])C([H])([H])[H])[N+]([H])([H])[H])c([H])c([H])c2C1([H])[H]

>  <smiles>  (92) 
[H]c1c([H])c([H])c2c(c1[H])C([H])([H])C([H])([H])C([H])([H])C2([H])N([H])C(=O)C1([H])N(C(=O)C([H])(N([H])C(=O)C([H])(N([H])C([H])([H])[H])C([H])([H])[H])C(C([H])([H])[H])(C([H])([H])[H])C([H])([H])[H])C([H])([H])c2c([H])c(OC([H])([H])C([H])([H])C([H])([H])C([H])([H])C([H])(C([H])(C(=O)N3C([H])([H])C([H])([H])C([H])([H])C([H])(n4nc(-c5c([H])c([H])c(Oc6c([H])c([H])c(F)c([H])c6F)c([H])c5[H])c(C(=O)N([H])[H])c4N([H])[H])C3([H])[H])C([H])([H])C([H])([H])[H])[N+]([H])([H])[H])c([H])c([H])c2C1([H])[H]

$$$$
92:0:0
     RDKit          3D

 90 98  0  0  1  0  0  0  0  0999 V2000
  -28.3130  -21.3400   19.1290 N   0  0  0  0  0  4  0  0  0  0  0  0
  -27.4570  -21.2510   18.6060 H   0  0  0  0  0  0  0  0  0  0  0  0
  -29.0200  -21.4500   18.4220 H   0  0  0  0  0  0  0  0  0  0  0  0
  -30.1580  -16.1260   19.6950 C   0  0  0  0  0  0  0  0  0  0  0  0
  -30.3370  -13.5930   19.0060 C   0  0  0  0  0  2  0  0  0  0  0  0
  -29.4000  -13.1340   17.8570 C   0  0  0  0  0  2  0  0  0  0  0  0
  -28.0260  -12.7330   18.4120 C   0  0  0  0  0  2  0  0  0  0  0  0
  -27.5170  -13.7500   19.4620 C   0  0  0  0  0  3  0  0  0  0  0  0
  -28.5850  -14.1530   20.5020 C   0  0  0  0  0  2  0  0  0  0  0  0
  -29.7010  -14.7580   19.7540 N   0  0  0  0  0  0  0  0  0  0  0  0
  -31.3680  -16.1460   19.4170 O   0  0  0  0  0  0  0  0  0  0  0  0
  -28.6090  -18.3440   18.8030 C   0  0  0  0  0  2  0  0  0  0  0  0
  -28.5170  -19.7290   19.7170 C   0  0  0  0  0  3  0  0  0  0  0  0
  -29.8460  -18.9050   20.2360 C   0  0  0  0  0  3  0  0  0  0  0  0
  -29.3740  -17.4330   19.8360 N   0  0  0  0  0  0  0  0  0  0  0  0
  -25.2290  -14.1670   20.4880 C   0  0  0  0  0  0  0  0  0  0  0  0
  -24.2210  -13.3340   20.8790 C   0  0  0  0  0  0  0  0  0  0  0  0
  -24.7070  -12.0030   20.6850 C   0  0  0  0  0  0  0  0  0  0  0  0
  -26.2580  -13.3460   20.0700 N   0  0  0  0  0  0  0  0  0  0  0  0
  -25.9660  -12.0310   20.2550 N   0  0  0  0  0  0  0  0  0  0  0  0
  -24.0230  -10.7110   20.8300 C   0  0  0  0  0  0  0  0  0  0  0  0
  -24.4690   -9.7370   21.7500 C   0  0  0  0  0  3  0  0  0  0  0  0
  -23.7800   -8.5130   21.8860 C   0  0  0  0  0  3  0  0  0  0  0  0
  -22.6320   -8.2530   21.1000 C   0  0  0  0  0  0  0  0  0  0  0  0
  -22.2050   -9.2170   20.1690 C   0  0  0  0  0  3  0  0  0  0  0  0
  -22.8950  -10.4320   20.0320 C   0  0  0  0  0  3  0  0  0  0  0  0
  -21.9140   -7.0820   21.1460 O   0  0  0  0  0  0  0  0  0  0  0  0
  -21.7920   -6.3560   22.3030 C   0  0  0  0  0  0  0  0  0  0  0  0
  -21.1690   -6.8890   23.4540 C   0  0  0  0  0  3  0  0  0  0  0  0
  -21.0010   -6.0860   24.5990 C   0  0  0  0  0  3  0  0  0  0  0  0
  -21.4470   -4.7500   24.5960 C   0  0  0  0  0  0  0  0  0  0  0  0
  -22.0630   -4.2160   23.4500 C   0  0  0  0  0  3  0  0  0  0  0  0
  -22.2310   -5.0170   22.3060 C   0  0  0  0  0  0  0  0  0  0  0  0
  -22.8060   -4.4910   21.1980 F   0  0  0  0  0  0  0  0  0  0  0  0
  -21.2800   -3.9770   25.6940 F   0  0  0  0  0  0  0  0  0  0  0  0
  -22.8460  -13.7510   21.3130 C   0  0  0  0  0  0  0  0  0  0  0  0
  -22.2230  -12.9800   22.1970 N   0  0  0  0  0  0  0  0  0  0  0  0
  -22.3370  -14.7940   20.9050 O   0  0  0  0  0  0  0  0  0  0  0  0
  -22.6490  -12.1340   22.5460 H   0  0  0  0  0  0  0  0  0  0  0  0
  -21.3050  -13.2390   22.5300 H   0  0  0  0  0  0  0  0  0  0  0  0
  -25.3510  -15.5540   20.4230 N   0  0  0  0  0  0  0  0  0  0  0  0
  -24.5970  -16.1780   20.6850 H   0  0  0  0  0  0  0  0  0  0  0  0
  -26.1760  -16.0430   20.1000 H   0  0  0  0  0  0  0  0  0  0  0  0
  -30.1300  -18.9980   21.7400 C   0  0  0  0  0  2  0  0  0  0  0  0
  -32.0160  -20.7310   21.7330 C   0  0  0  0  0  1  0  0  0  0  0  0
  -31.7490  -19.1310   23.6680 C   0  0  0  0  0  1  0  0  0  0  0  0
  -31.5820  -19.3160   22.1510 C   0  0  0  0  0  3  0  0  0  0  0  0
  -28.1050  -22.9120   19.7880 C   0  0  0  0  0  2  0  0  0  0  0  0
  -27.4540  -24.5340   19.1110 C   0  0  0  0  0  2  0  0  0  0  0  0
  -27.6290  -26.2190   19.3530 O   0  0  0  0  0  0  0  0  0  0  0  0
  -24.5220  -32.0820   23.1220 C   0  0  0  0  0  0  0  0  0  0  0  0
  -26.6410  -27.3720   19.4520 C   0  0  0  0  0  0  0  0  0  0  0  0
  -23.1270  -30.8110   21.5420 C   0  0  0  0  0  3  0  0  0  0  0  0
  -24.3790  -29.3110   19.8280 C   0  0  0  0  0  0  0  0  0  0  0  0
  -25.6640  -31.0150   21.1010 C   0  0  0  0  0  2  0  0  0  0  0  0
  -25.6390  -29.6500   20.3340 C   0  0  0  0  0  0  0  0  0  0  0  0
  -26.7550  -28.7040   20.1240 C   0  0  0  0  0  3  0  0  0  0  0  0
  -25.3460  -27.2220   18.9000 C   0  0  0  0  0  3  0  0  0  0  0  0
  -24.2600  -28.1230   19.0880 C   0  0  0  0  0  3  0  0  0  0  0  0
  -23.1850  -30.2340   20.1000 C   0  0  0  0  0  2  0  0  0  0  0  0
  -24.4660  -31.3280   21.9740 N   0  0  0  0  0  0  0  0  0  0  0  0
  -23.5040  -32.3310   23.7920 O   0  0  0  0  0  0  0  0  0  0  0  0
  -22.5460  -29.7480   22.5110 C   0  0  0  0  0  0  0  0  0  0  0  0
  -21.2300  -29.4730   22.4220 N   0  0  0  0  0  0  0  0  0  0  0  0
  -23.2850  -29.1720   23.3130 O   0  0  0  0  0  0  0  0  0  0  0  0
  -20.6800  -29.9960   21.7550 H   0  0  0  0  0  0  0  0  0  0  0  0
  -18.0230  -27.8350   22.8830 C   0  0  0  0  0  0  0  0  0  0  0  0
  -20.5150  -28.4540   23.2000 C   0  0  0  0  0  3  0  0  0  0  0  0
  -20.8260  -27.0340   22.6730 C   0  0  0  0  0  2  0  0  0  0  0  0
  -19.8080  -26.5400   21.6400 C   0  0  0  0  0  2  0  0  0  0  0  0
  -18.4010  -26.5070   22.2460 C   0  0  0  0  0  2  0  0  0  0  0  0
  -19.0150  -28.7540   23.3160 C   0  0  0  0  0  0  0  0  0  0  0  0
  -18.6080  -29.9840   23.8780 C   0  0  0  0  0  3  0  0  0  0  0  0
  -17.2440  -30.2990   24.0100 C   0  0  0  0  0  3  0  0  0  0  0  0
  -16.2650  -29.3800   23.5910 C   0  0  0  0  0  3  0  0  0  0  0  0
  -16.6560  -28.1500   23.0320 C   0  0  0  0  0  3  0  0  0  0  0  0
  -25.8620  -32.6820   23.6450 C   0  0  0  0  0  3  0  0  0  0  0  0
  -26.4910  -31.8520   24.8330 C   0  0  1  0  0  0  0  0  0  0  0  0
  -25.4970  -31.5510   25.9790 C   0  0  0  0  0  1  0  0  0  0  0  0
  -27.0460  -30.4990   24.3320 C   0  0  0  0  0  1  0  0  0  0  0  0
  -27.6910  -32.6240   25.4330 C   0  0  0  0  0  1  0  0  0  0  0  0
  -25.6020  -34.0670   24.0810 N   0  0  0  0  0  0  0  0  0  0  0  0
  -25.9010  -35.1660   23.3760 C   0  0  0  0  0  0  0  0  0  0  0  0
  -26.4850  -35.1190   22.2900 O   0  0  0  0  0  0  0  0  0  0  0  0
  -25.0760  -34.1770   24.9350 H   0  0  0  0  0  0  0  0  0  0  0  0
  -24.1970  -37.0230   23.2940 C   0  0  0  0  0  1  0  0  0  0  0  0
  -25.4900  -36.5320   23.9650 C   0  0  0  0  0  3  0  0  0  0  0  0
  -27.6970  -37.3360   24.6860 C   0  0  0  0  0  1  0  0  0  0  0  0
  -26.5370  -37.5710   23.8320 N   0  0  0  0  0  0  0  0  0  0  0  0
  -26.1600  -38.4870   24.0550 H   0  0  0  0  0  0  0  0  0  0  0  0
  1 48  1  0
  2  1  1  0
  3  1  1  0
  4 10  1  0
  4 15  1  0
  5 10  1  0
  6  7  1  0
  6  5  1  0
  8  7  1  0
  8 19  1  0
  8  9  1  0
 10  9  1  0
 11  4  2  0
 12 13  1  0
 12 15  1  0
 13  1  1  0
 13 14  1  0
 14 44  1  0
 15 14  1  0
 16 17  2  0
 17 36  1  0
 18 21  1  0
 18 17  1  0
 19 20  1  0
 19 16  1  0
 20 18  2  0
 21 22  1  0
 22 23  2  0
 24 27  1  0
 24 23  1  0
 25 24  2  0
 26 25  1  0
 26 21  2  0
 27 28  1  0
 28 33  2  0
 28 29  1  0
 29 30  2  0
 31 30  1  0
 31 35  1  0
 32 31  2  0
 33 32  1  0
 34 33  1  0
 36 37  1  0
 37 40  1  0
 37 39  1  0
 38 36  2  0
 41 16  1  0
 41 42  1  0
 43 41  1  0
 44 47  1  0
 45 47  1  0
 47 46  1  0
 49 50  1  0
 49 48  1  0
 50 52  1  0
 51 62  2  0
 52 57  1  0
 53 61  1  0
 53 63  1  0
 54 60  1  0
 54 56  1  0
 55 61  1  0
 56 55  1  0
 57 56  2  0
 58 59  1  0
 58 52  2  0
 59 54  2  0
 60 53  1  0
 61 51  1  0
 63 65  2  0
 64 63  1  0
 66 64  1  0
 67 76  2  0
 67 72  1  0
 68 64  1  0
 68 72  1  0
 69 68  1  0
 70 71  1  0
 70 69  1  0
 71 67  1  0
 72 73  2  0
 73 74  1  0
 75 74  2  0
 76 75  1  0
 77 51  1  0
 77 82  1  0
 77 78  1  0
 78 81  1  1
 78 79  1  0
 80 78  1  0
 82 85  1  0
 83 87  1  0
 83 82  1  0
 84 83  2  0
 87 86  1  0
 89 87  1  0
 89 90  1  0
 89 88  1  0
M  ISO  4   4 100  15 100  49 101  50 101
M  END
>  <TORSDO>  (93) 
F 20

>  <SCORE>  (93) 
-13.872

>  <name>  (93) 
92

>  <ligand_id>  (93) 
92

>  <original_smiles>  (93) 
[H]c1c([H])c([H])c2c(c1[H])C([H])([H])C([H])([H])C([H])([H])C2([H])N([H])C(=O)C1([H])N(C(=O)C([H])(N([H])C(=O)C([H])(N([H])C([H])([H])[H])C([H])([H])[H])C(C([H])([H])[H])(C([H])([H])[H])C([H])([H])[H])C([H])([H])c2c([H])c(OC([H])([H])C([H])([H])[N+]([H])([H])C3([H])C([H])([H])N(C(=O)N4C([H])([H])C([H])([H])C([H])([H])C([H])(n5nc(-c6c([H])c([H])c(Oc7c([H])c([H])c(F)c([H])c7F)c([H])c6[H])c(C(=O)N([H])[H])c5N([H])[H])C4([H])[H])C3([H])C([H])([H])C([H])(C([H])([H])[H])C([H])([H])[H])c([H])c([H])c2C1([H])[H]

>  <smiles>  (93) 
[H]c1c([H])c([H])c2c(c1[H])C([H])([H])C([H])([H])C([H])([H])C2([H])N([H])C(=O)C1([H])N(C(=O)C([H])(N([H])C(=O)C([H])(N([H])C([H])([H])[H])C([H])([H])[H])C(C([H])([H])[H])(C([H])([H])[H])C([H])([H])[H])C([H])([H])c2c([H])c(OC([H])([H])C([H])([H])[N+]([H])([H])C3([H])C([H])([H])N(C(=O)N4C([H])([H])C([H])([H])C([H])([H])C([H])(n5nc(-c6c([H])c([H])c(Oc7c([H])c([H])c(F)c([H])c7F)c([H])c6[H])c(C(=O)N([H])[H])c5N([H])[H])C4([H])[H])C3([H])C([H])([H])C([H])(C([H])([H])[H])C([H])([H])[H])c([H])c([H])c2C1([H])[H]

$$$$
93:0:0
     RDKit          3D

 87 95  0  0  1  0  0  0  0  0999 V2000
  -28.6340  -21.4680   19.8690 C   0  0  0  0  0  0  0  0  0  0  0  0
  -27.9480  -21.3990   18.8460 O   0  0  0  0  0  0  0  0  0  0  0  0
  -30.5260  -15.1360   20.0290 C   0  0  0  0  0  0  0  0  0  0  0  0
  -30.2990  -12.7620   19.0940 C   0  0  0  0  0  2  0  0  0  0  0  0
  -29.3230  -12.6530   17.9010 C   0  0  0  0  0  2  0  0  0  0  0  0
  -27.8900  -12.4230   18.4080 C   0  0  0  0  0  2  0  0  0  0  0  0
  -27.5230  -13.3620   19.5870 C   0  0  0  0  0  3  0  0  0  0  0  0
  -28.6310  -13.4510   20.6580 C   0  0  0  0  0  2  0  0  0  0  0  0
  -29.8450  -13.9020   19.9640 N   0  0  0  0  0  0  0  0  0  0  0  0
  -31.7230  -15.0400   19.7310 O   0  0  0  0  0  0  0  0  0  0  0  0
  -28.2480  -18.6440   20.3660 C   0  0  0  0  0  2  0  0  0  0  0  0
  -30.5160  -19.2400   19.9020 C   0  0  0  0  0  2  0  0  0  0  0  0
  -28.7870  -17.1320   20.7810 C   0  0  0  0  0  2  0  0  0  0  0  0
  -30.5850  -17.6880   19.3410 C   0  0  0  0  0  2  0  0  0  0  0  0
  -29.1870  -19.9550   20.4470 C   0  0  0  0  0  3  0  0  0  0  0  0
  -29.9340  -16.4820   20.0290 N   0  0  0  0  0  0  0  0  0  0  0  0
  -25.1960  -13.9220   20.4710 C   0  0  0  0  0  0  0  0  0  0  0  0
  -24.1480  -13.1430   20.8740 C   0  0  0  0  0  0  0  0  0  0  0  0
  -24.6030  -11.7900   20.7890 C   0  0  0  0  0  0  0  0  0  0  0  0
  -26.2190  -13.0460   20.1560 N   0  0  0  0  0  0  0  0  0  0  0  0
  -25.8780  -11.7570   20.4150 N   0  0  0  0  0  0  0  0  0  0  0  0
  -23.8770  -10.5280   20.9840 C   0  0  0  0  0  0  0  0  0  0  0  0
  -24.3230   -9.5520   21.9030 C   0  0  0  0  0  3  0  0  0  0  0  0
  -23.5930   -8.3570   22.0880 C   0  0  0  0  0  3  0  0  0  0  0  0
  -22.4040   -8.1290   21.3550 C   0  0  0  0  0  0  0  0  0  0  0  0
  -21.9770   -9.0940   20.4260 C   0  0  0  0  0  3  0  0  0  0  0  0
  -22.7070  -10.2810   20.2380 C   0  0  0  0  0  3  0  0  0  0  0  0
  -21.6460   -6.9880   21.4500 O   0  0  0  0  0  0  0  0  0  0  0  0
  -21.5880   -6.2580   22.6100 C   0  0  0  0  0  0  0  0  0  0  0  0
  -21.1280   -6.8180   23.8220 C   0  0  0  0  0  3  0  0  0  0  0  0
  -21.0180   -6.0130   24.9730 C   0  0  0  0  0  3  0  0  0  0  0  0
  -21.3590   -4.6480   24.9140 C   0  0  0  0  0  0  0  0  0  0  0  0
  -21.8110   -4.0860   23.7070 C   0  0  0  0  0  3  0  0  0  0  0  0
  -21.9220   -4.8890   22.5580 C   0  0  0  0  0  0  0  0  0  0  0  0
  -22.3390   -4.3380   21.3920 F   0  0  0  0  0  0  0  0  0  0  0  0
  -21.2460   -3.8730   26.0170 F   0  0  0  0  0  0  0  0  0  0  0  0
  -22.7690  -13.6220   21.2190 C   0  0  0  0  0  0  0  0  0  0  0  0
  -22.0780  -12.9150   22.1050 N   0  0  0  0  0  0  0  0  0  0  0  0
  -22.3160  -14.6600   20.7390 O   0  0  0  0  0  0  0  0  0  0  0  0
  -22.4590  -12.0760   22.5170 H   0  0  0  0  0  0  0  0  0  0  0  0
  -21.1540  -13.2180   22.3790 H   0  0  0  0  0  0  0  0  0  0  0  0
  -25.3550  -15.2940   20.3140 N   0  0  0  0  0  0  0  0  0  0  0  0
  -24.5950  -15.9460   20.4770 H   0  0  0  0  0  0  0  0  0  0  0  0
  -26.1790  -15.7360   19.9290 H   0  0  0  0  0  0  0  0  0  0  0  0
  -28.8550  -23.0480   20.4560 C   0  0  0  0  0  3  0  0  0  0  0  0
  -27.9700  -24.4930   20.0340 C   0  0  0  0  0  3  0  0  0  0  0  0
  -28.2050  -26.0480   20.3510 O   0  0  0  0  0  0  0  0  0  0  0  0
  -24.6490  -31.9010   23.2740 C   0  0  0  0  0  0  0  0  0  0  0  0
  -27.1840  -27.0950   20.2590 C   0  0  0  0  0  0  0  0  0  0  0  0
  -23.4430  -30.5110   21.6360 C   0  0  0  0  0  3  0  0  0  0  0  0
  -24.8830  -28.9160   20.2100 C   0  0  0  0  0  0  0  0  0  0  0  0
  -26.0030  -30.7370   21.4800 C   0  0  0  0  0  2  0  0  0  0  0  0
  -26.0670  -29.3360   20.8280 C   0  0  0  0  0  0  0  0  0  0  0  0
  -27.2160  -28.4430   20.8330 C   0  0  0  0  0  3  0  0  0  0  0  0
  -25.9770  -26.8020   19.5870 C   0  0  0  0  0  3  0  0  0  0  0  0
  -24.8570  -27.6660   19.5690 C   0  0  0  0  0  3  0  0  0  0  0  0
  -23.6630  -29.8290   20.2580 C   0  0  0  0  0  2  0  0  0  0  0  0
  -24.7190  -31.0750   22.1850 N   0  0  0  0  0  0  0  0  0  0  0  0
  -23.5620  -32.1960   23.7980 O   0  0  0  0  0  0  0  0  0  0  0  0
  -22.7510  -29.5150   22.6010 C   0  0  0  0  0  0  0  0  0  0  0  0
  -21.4230  -29.3500   22.4700 N   0  0  0  0  0  0  0  0  0  0  0  0
  -23.4160  -28.8900   23.4320 O   0  0  0  0  0  0  0  0  0  0  0  0
  -20.9430  -29.9040   21.7750 H   0  0  0  0  0  0  0  0  0  0  0  0
  -18.0350  -28.1580   22.9640 C   0  0  0  0  0  0  0  0  0  0  0  0
  -20.5940  -28.4180   23.2410 C   0  0  0  0  0  3  0  0  0  0  0  0
  -20.6950  -26.9820   22.6730 C   0  0  0  0  0  2  0  0  0  0  0  0
  -19.5980  -26.6570   21.6550 C   0  0  0  0  0  2  0  0  0  0  0  0
  -18.2130  -26.8060   22.2920 C   0  0  0  0  0  2  0  0  0  0  0  0
  -19.1520  -28.9210   23.3950 C   0  0  0  0  0  0  0  0  0  0  0  0
  -18.9310  -30.1840   23.9860 C   0  0  0  0  0  3  0  0  0  0  0  0
  -17.6250  -30.6840   24.1490 C   0  0  0  0  0  3  0  0  0  0  0  0
  -16.5220  -29.9180   23.7330 C   0  0  0  0  0  3  0  0  0  0  0  0
  -16.7280  -28.6570   23.1460 C   0  0  0  0  0  3  0  0  0  0  0  0
  -25.9270  -32.5330   23.9040 C   0  0  0  0  0  3  0  0  0  0  0  0
  -25.6220  -33.9350   24.2360 N   0  0  0  0  0  0  0  0  0  0  0  0
  -25.9340  -34.9880   23.4700 C   0  0  0  0  0  0  0  0  0  0  0  0
  -26.5750  -34.8840   22.4220 O   0  0  0  0  0  0  0  0  0  0  0  0
  -25.0500  -34.0900   25.0520 H   0  0  0  0  0  0  0  0  0  0  0  0
  -24.1860  -36.7780   23.1830 C   0  0  0  0  0  1  0  0  0  0  0  0
  -25.4630  -36.3800   23.9400 C   0  0  0  0  0  3  0  0  0  0  0  0
  -27.6250  -37.2840   24.6770 C   0  0  0  0  0  1  0  0  0  0  0  0
  -26.4860  -37.4370   23.7760 N   0  0  0  0  0  0  0  0  0  0  0  0
  -26.0820  -38.3560   23.9280 H   0  0  0  0  0  0  0  0  0  0  0  0
  -26.4290  -31.7650   25.1890 C   0  0  1  0  0  0  0  0  0  0  0  0
  -25.3250  -31.5400   26.2510 C   0  0  0  0  0  1  0  0  0  0  0  0
  -27.0060  -30.3820   24.8150 C   0  0  0  0  0  1  0  0  0  0  0  0
  -27.5790  -32.5560   25.8570 C   0  0  0  0  0  1  0  0  0  0  0  0
  1 45  1  0
  2  1  2  0
  4  9  1  0
  5  6  1  0
  5  4  1  0
  7  6  1  0
  7 20  1  0
  7  8  1  0
  9  3  1  0
  9  8  1  0
 10  3  2  0
 11 15  1  0
 11 13  1  0
 12 15  1  0
 14 12  1  0
 14 16  1  0
 15  1  1  0
 16  3  1  0
 16 13  1  0
 17 18  2  0
 18 37  1  0
 19 18  1  0
 19 22  1  0
 20 21  1  0
 20 17  1  0
 21 19  2  0
 22 23  1  0
 23 24  2  0
 25 28  1  0
 25 24  1  0
 26 25  2  0
 27 26  1  0
 27 22  2  0
 28 29  1  0
 29 30  1  0
 30 31  2  0
 32 31  1  0
 32 36  1  0
 33 32  2  0
 34 29  2  0
 34 33  1  0
 35 34  1  0
 37 38  1  0
 38 41  1  0
 38 40  1  0
 39 37  2  0
 42 17  1  0
 42 43  1  0
 44 42  1  0
 46 47  1  0
 46 45  2  0
 48 59  2  0
 49 47  1  0
 49 54  1  0
 50 58  1  0
 50 60  1  0
 51 57  1  0
 51 53  1  0
 52 58  1  0
 53 54  2  0
 53 52  1  0
 55 49  2  0
 56 55  1  0
 56 51  2  0
 57 50  1  0
 58 48  1  0
 60 62  2  0
 61 60  1  0
 63 61  1  0
 64 73  2  0
 64 69  1  0
 65 61  1  0
 65 69  1  0
 66 65  1  0
 67 68  1  0
 67 66  1  0
 68 64  1  0
 69 70  2  0
 70 71  1  0
 72 71  2  0
 73 72  1  0
 74 48  1  0
 74 75  1  0
 74 84  1  0
 75 78  1  0
 76 80  1  0
 76 75  1  0
 77 76  2  0
 80 79  1  0
 82 83  1  0
 82 80  1  0
 82 81  1  0
 84 87  1  1
 84 85  1  0
 86 84  1  0
M  ISO  4   3 100  16 100  46 101  47 101
M  END
>  <TORSDO>  (94) 
F 18

>  <SCORE>  (94) 
-16.246

>  <name>  (94) 
93

>  <ligand_id>  (94) 
93

>  <original_smiles>  (94) 
[H]c1c([H])c([H])c2c(c1[H])C([H])([H])C([H])([H])C([H])([H])C2([H])N([H])C(=O)C1([H])N(C(=O)C([H])(N([H])C(=O)C([H])(N([H])C([H])([H])[H])C([H])([H])[H])C(C([H])([H])[H])(C([H])([H])[H])C([H])([H])[H])C([H])([H])c2c([H])c(OC([H])([H])C([H])([H])C(=O)C3([H])C([H])([H])C([H])([H])N(C(=O)N4C([H])([H])C([H])([H])C([H])([H])C([H])(n5nc(-c6c([H])c([H])c(Oc7c([H])c([H])c(F)c([H])c7F)c([H])c6[H])c(C(=O)N([H])[H])c5N([H])[H])C4([H])[H])C([H])([H])C3([H])[H])c([H])c([H])c2C1([H])[H]

>  <smiles>  (94) 
[H]c1c([H])c([H])c2c(c1[H])C([H])([H])C([H])([H])C([H])([H])C2([H])N([H])C(=O)C1([H])N(C(=O)C([H])(N([H])C(=O)C([H])(N([H])C([H])([H])[H])C([H])([H])[H])C(C([H])([H])[H])(C([H])([H])[H])C([H])([H])[H])C([H])([H])c2c([H])c(OC([H])([H])C([H])([H])C(=O)C3([H])C([H])([H])C([H])([H])N(C(=O)N4C([H])([H])C([H])([H])C([H])([H])C([H])(n5nc(-c6c([H])c([H])c(Oc7c([H])c([H])c(F)c([H])c7F)c([H])c6[H])c(C(=O)N([H])[H])c5N([H])[H])C4([H])[H])C([H])([H])C3([H])[H])c([H])c([H])c2C1([H])[H]

$$$$
94:0:0
     RDKit          3D

 89 97  0  0  1  0  0  0  0  0999 V2000
  -28.9350  -22.1570   20.0170 C   0  0  0  0  0  3  0  0  0  0  0  0
  -28.7260  -20.3160   20.2780 C   0  0  0  0  0  0  0  0  0  0  0  0
  -27.6040  -20.0340   20.7070 O   0  0  0  0  0  0  0  0  0  0  0  0
  -29.7530  -18.7810   20.0420 C   0  0  0  0  0  2  0  0  0  0  0  0
  -30.3150  -15.6710   20.0690 C   0  0  0  0  0  0  0  0  0  0  0  0
  -30.3790  -13.1430   19.2240 C   0  0  0  0  0  2  0  0  0  0  0  0
  -29.4370  -12.7930   18.0340 C   0  0  0  0  0  2  0  0  0  0  0  0
  -28.0350  -12.4240   18.5420 C   0  0  0  0  0  2  0  0  0  0  0  0
  -27.5680  -13.4050   19.6430 C   0  0  0  0  0  3  0  0  0  0  0  0
  -28.6410  -13.6910   20.7200 C   0  0  0  0  0  2  0  0  0  0  0  0
  -29.7940  -14.3090   20.0280 N   0  0  0  0  0  0  0  0  0  0  0  0
  -31.5350  -15.6290   19.8240 O   0  0  0  0  0  0  0  0  0  0  0  0
  -29.5560  -17.0230   20.1880 N   0  0  0  0  0  0  0  0  0  0  0  0
  -28.5830  -16.8150   20.3590 H   0  0  0  0  0  0  0  0  0  0  0  0
  -25.2430  -13.9160   20.5290 C   0  0  0  0  0  0  0  0  0  0  0  0
  -24.2010  -13.1230   20.9160 C   0  0  0  0  0  0  0  0  0  0  0  0
  -24.6720  -11.7750   20.8300 C   0  0  0  0  0  0  0  0  0  0  0  0
  -26.2750  -13.0550   20.2100 N   0  0  0  0  0  0  0  0  0  0  0  0
  -25.9490  -11.7570   20.4590 N   0  0  0  0  0  0  0  0  0  0  0  0
  -23.9560  -10.5080   21.0130 C   0  0  0  0  0  0  0  0  0  0  0  0
  -24.3970   -9.5360   21.9400 C   0  0  0  0  0  3  0  0  0  0  0  0
  -23.6720   -8.3380   22.1190 C   0  0  0  0  0  3  0  0  0  0  0  0
  -22.4970   -8.1010   21.3680 C   0  0  0  0  0  0  0  0  0  0  0  0
  -22.0760   -9.0600   20.4300 C   0  0  0  0  0  3  0  0  0  0  0  0
  -22.8000  -10.2510   20.2500 C   0  0  0  0  0  3  0  0  0  0  0  0
  -21.7490   -6.9510   21.4490 O   0  0  0  0  0  0  0  0  0  0  0  0
  -21.6680   -6.2280   22.6110 C   0  0  0  0  0  0  0  0  0  0  0  0
  -21.1600   -6.7890   23.8030 C   0  0  0  0  0  3  0  0  0  0  0  0
  -21.0240   -5.9920   24.9560 C   0  0  0  0  0  3  0  0  0  0  0  0
  -21.3850   -4.6330   24.9180 C   0  0  0  0  0  0  0  0  0  0  0  0
  -21.8900   -4.0680   23.7330 C   0  0  0  0  0  3  0  0  0  0  0  0
  -22.0260   -4.8650   22.5810 C   0  0  0  0  0  0  0  0  0  0  0  0
  -22.4870   -4.3100   21.4330 F   0  0  0  0  0  0  0  0  0  0  0  0
  -21.2520   -3.8640   26.0260 F   0  0  0  0  0  0  0  0  0  0  0  0
  -22.8160  -13.5920   21.2540 C   0  0  0  0  0  0  0  0  0  0  0  0
  -22.1250  -12.8770   22.1320 N   0  0  0  0  0  0  0  0  0  0  0  0
  -22.3560  -14.6270   20.7740 O   0  0  0  0  0  0  0  0  0  0  0  0
  -22.5190  -12.0430   22.5430 H   0  0  0  0  0  0  0  0  0  0  0  0
  -21.1960  -13.1690   22.4000 H   0  0  0  0  0  0  0  0  0  0  0  0
  -25.3900  -15.2950   20.3900 N   0  0  0  0  0  0  0  0  0  0  0  0
  -24.6200  -15.9340   20.5560 H   0  0  0  0  0  0  0  0  0  0  0  0
  -26.2040  -15.7510   19.9960 H   0  0  0  0  0  0  0  0  0  0  0  0
  -30.3780  -22.5130   20.4120 C   0  0  0  0  0  2  0  0  0  0  0  0
  -32.9740  -23.8220   18.3990 C   0  0  0  0  0  2  0  0  0  0  0  0
  -32.1240  -22.5490   18.4260 C   0  0  0  0  0  2  0  0  0  0  0  0
  -32.2390  -24.2590   19.6670 C   0  0  0  0  0  2  0  0  0  0  0  0
  -31.1060  -23.2860   19.3080 C   0  0  0  0  0  3  0  0  0  0  0  0
  -27.9540  -23.8230   20.2330 C   0  0  0  0  0  2  0  0  0  0  0  0
  -28.1520  -25.5750   20.2010 O   0  0  0  0  0  0  0  0  0  0  0  0
  -24.6470  -31.8560   23.1700 C   0  0  0  0  0  0  0  0  0  0  0  0
  -27.1750  -26.7780   20.1860 C   0  0  0  0  0  0  0  0  0  0  0  0
  -23.4560  -30.4470   21.5460 C   0  0  0  0  0  3  0  0  0  0  0  0
  -24.9040  -28.7970   20.1350 C   0  0  0  0  0  0  0  0  0  0  0  0
  -26.0350  -30.6010   21.4080 C   0  0  0  0  0  2  0  0  0  0  0  0
  -26.1020  -29.1640   20.7580 C   0  0  0  0  0  0  0  0  0  0  0  0
  -27.2230  -28.1850   20.7470 C   0  0  0  0  0  3  0  0  0  0  0  0
  -25.9390  -26.6170   19.5110 C   0  0  0  0  0  3  0  0  0  0  0  0
  -24.8610  -27.5530   19.4860 C   0  0  0  0  0  3  0  0  0  0  0  0
  -23.6940  -29.7470   20.1770 C   0  0  0  0  0  2  0  0  0  0  0  0
  -24.7380  -31.0020   22.0940 N   0  0  0  0  0  0  0  0  0  0  0  0
  -23.5550  -32.1530   23.6840 O   0  0  0  0  0  0  0  0  0  0  0  0
  -22.7500  -29.4690   22.5250 C   0  0  0  0  0  0  0  0  0  0  0  0
  -21.4170  -29.3080   22.4050 N   0  0  0  0  0  0  0  0  0  0  0  0
  -23.4130  -28.8520   23.3620 O   0  0  0  0  0  0  0  0  0  0  0  0
  -20.9330  -29.8600   21.7110 H   0  0  0  0  0  0  0  0  0  0  0  0
  -18.0350  -28.0880   22.9410 C   0  0  0  0  0  0  0  0  0  0  0  0
  -20.5960  -28.3720   23.1850 C   0  0  0  0  0  3  0  0  0  0  0  0
  -20.6990  -26.9360   22.6180 C   0  0  0  0  0  2  0  0  0  0  0  0
  -19.5930  -26.6030   21.6090 C   0  0  0  0  0  2  0  0  0  0  0  0
  -18.2160  -26.7400   22.2640 C   0  0  0  0  0  2  0  0  0  0  0  0
  -19.1510  -28.8620   23.3600 C   0  0  0  0  0  0  0  0  0  0  0  0
  -18.9280  -30.1170   23.9650 C   0  0  0  0  0  3  0  0  0  0  0  0
  -17.6200  -30.6050   24.1490 C   0  0  0  0  0  3  0  0  0  0  0  0
  -16.5170  -29.8320   23.7430 C   0  0  0  0  0  3  0  0  0  0  0  0
  -16.7260  -28.5740   23.1490 C   0  0  0  0  0  3  0  0  0  0  0  0
  -25.9090  -32.5170   23.8030 C   0  0  0  0  0  3  0  0  0  0  0  0
  -25.5720  -33.9130   24.1510 N   0  0  0  0  0  0  0  0  0  0  0  0
  -25.8780  -34.9880   23.4130 C   0  0  0  0  0  0  0  0  0  0  0  0
  -26.5320  -34.9080   22.3700 O   0  0  0  0  0  0  0  0  0  0  0  0
  -24.9880  -34.0430   24.9630 H   0  0  0  0  0  0  0  0  0  0  0  0
  -24.1300  -36.7800   23.1310 C   0  0  0  0  0  1  0  0  0  0  0  0
  -25.3920  -36.3680   23.9050 C   0  0  0  0  0  3  0  0  0  0  0  0
  -27.5330  -37.2710   24.7090 C   0  0  0  0  0  1  0  0  0  0  0  0
  -26.4140  -37.4330   23.7840 N   0  0  0  0  0  0  0  0  0  0  0  0
  -26.0020  -38.3490   23.9400 H   0  0  0  0  0  0  0  0  0  0  0  0
  -26.4220  -31.7560   25.0870 C   0  0  1  0  0  0  0  0  0  0  0  0
  -25.3260  -31.5210   26.1550 C   0  0  0  0  0  1  0  0  0  0  0  0
  -27.0090  -30.3770   24.7180 C   0  0  0  0  0  1  0  0  0  0  0  0
  -27.5730  -32.5540   25.7450 C   0  0  0  0  0  1  0  0  0  0  0  0
  1 48  1  0
  1  2  1  0
  1 43  1  0
  2  3  2  0
  4 13  1  0
  4  2  1  0
  5 13  1  0
  6 11  1  0
  7  8  1  0
  7  6  1  0
  9  8  1  0
  9 18  1  0
  9 10  1  0
 11  5  1  0
 11 10  1  0
 12  5  2  0
 13 14  1  0
 15 16  2  0
 16 35  1  0
 17 16  1  0
 17 20  1  0
 18 19  1  0
 18 15  1  0
 19 17  2  0
 20 21  1  0
 21 22  2  0
 23 26  1  0
 23 22  1  0
 24 23  2  0
 25 24  1  0
 25 20  2  0
 26 27  1  0
 27 28  1  0
 28 29  2  0
 30 29  1  0
 30 34  1  0
 31 30  2  0
 32 27  2  0
 32 31  1  0
 33 32  1  0
 35 36  1  0
 36 39  1  0
 36 38  1  0
 37 35  2  0
 40 15  1  0
 40 41  1  0
 42 40  1  0
 44 45  1  0
 44 46  1  0
 45 47  1  0
 47 46  1  0
 47 43  1  0
 49 48  1  0
 50 61  2  0
 51 49  1  0
 51 56  1  0
 52 60  1  0
 52 62  1  0
 53 59  1  0
 53 55  1  0
 54 60  1  0
 55 54  1  0
 56 55  2  0
 57 51  2  0
 58 57  1  0
 58 53  2  0
 59 52  1  0
 60 50  1  0
 62 64  2  0
 63 62  1  0
 65 63  1  0
 66 75  2  0
 66 71  1  0
 67 63  1  0
 67 71  1  0
 68 67  1  0
 69 70  1  0
 69 68  1  0
 70 66  1  0
 71 72  2  0
 72 73  1  0
 74 73  2  0
 75 74  1  0
 76 50  1  0
 76 77  1  0
 76 86  1  0
 77 80  1  0
 78 82  1  0
 78 77  1  0
 79 78  2  0
 82 81  1  0
 84 82  1  0
 84 85  1  0
 84 83  1  0
 86 89  1  1
 86 87  1  0
 88 86  1  0
M  ISO  4   5 100  13 100  48 101  49 101
M  END
>  <TORSDO>  (95) 
F 21

>  <SCORE>  (95) 
-15.548

>  <name>  (95) 
94

>  <ligand_id>  (95) 
94

>  <original_smiles>  (95) 
[H]c1c([H])c([H])c2c(c1[H])C([H])([H])C([H])([H])C([H])([H])C2([H])N([H])C(=O)C1([H])N(C(=O)C([H])(N([H])C(=O)C([H])(N([H])C([H])([H])[H])C([H])([H])[H])C(C([H])([H])[H])(C([H])([H])[H])C([H])([H])[H])C([H])([H])c2c([H])c(OC([H])([H])C([H])(C(=O)C([H])([H])N([H])C(=O)N3C([H])([H])C([H])([H])C([H])([H])C([H])(n4nc(-c5c([H])c([H])c(Oc6c([H])c([H])c(F)c([H])c6F)c([H])c5[H])c(C(=O)N([H])[H])c4N([H])[H])C3([H])[H])C([H])([H])C3([H])C([H])([H])C([H])([H])C3([H])[H])c([H])c([H])c2C1([H])[H]

>  <smiles>  (95) 
[H]c1c([H])c([H])c2c(c1[H])C([H])([H])C([H])([H])C([H])([H])C2([H])N([H])C(=O)C1([H])N(C(=O)C([H])(N([H])C(=O)C([H])(N([H])C([H])([H])[H])C([H])([H])[H])C(C([H])([H])[H])(C([H])([H])[H])C([H])([H])[H])C([H])([H])c2c([H])c(OC([H])([H])C([H])(C(=O)C([H])([H])N([H])C(=O)N3C([H])([H])C([H])([H])C([H])([H])C([H])(n4nc(-c5c([H])c([H])c(Oc6c([H])c([H])c(F)c([H])c6F)c([H])c5[H])c(C(=O)N([H])[H])c4N([H])[H])C3([H])[H])C([H])([H])C3([H])C([H])([H])C([H])([H])C3([H])[H])c([H])c([H])c2C1([H])[H]

$$$$
