0:0:0
     RDKit          3D

 88 96  0  0  1  0  0  0  0  0999 V2000
  -27.2220  -20.2720   20.7020 C   0  0  0  0  0  3  0  0  0  0  0  0
  -27.4610  -21.2130   19.7830 C   0  0  0  0  0  3  0  0  0  0  0  0
  -28.3310  -19.2720   20.9010 C   0  0  0  0  0  2  0  0  0  0  0  0
  -28.8470  -21.2030   19.1680 C   0  0  0  0  0  3  0  0  0  0  0  0
  -29.2220  -19.4820   19.6660 C   0  0  0  0  0  3  0  0  0  0  0  0
  -30.9140  -15.4640   19.6320 C   0  0  0  0  0  0  0  0  0  0  0  0
  -30.8730  -12.9690   18.9270 C   0  0  0  0  0  2  0  0  0  0  0  0
  -29.8850  -12.6880   17.7670 C   0  0  0  0  0  2  0  0  0  0  0  0
  -28.4710  -12.4280   18.3120 C   0  0  0  0  0  2  0  0  0  0  0  0
  -28.0730  -13.4550   19.4010 C   0  0  0  0  0  3  0  0  0  0  0  0
  -29.1830  -13.6830   20.4490 C   0  0  0  0  0  2  0  0  0  0  0  0
  -30.3680  -14.1530   19.7150 N   0  0  0  0  0  0  0  0  0  0  0  0
  -32.1130  -15.4550   19.3190 O   0  0  0  0  0  0  0  0  0  0  0  0
  -30.3480  -18.1620   19.5020 C   0  0  0  0  0  0  0  0  0  0  0  0
  -30.1220  -16.7120   19.7170 N   0  0  0  0  0  0  0  0  0  0  0  0
  -31.4760  -18.5160   19.1520 O   0  0  0  0  0  0  0  0  0  0  0  0
  -29.1670  -16.5240   19.9760 H   0  0  0  0  0  0  0  0  0  0  0  0
  -25.8010  -14.0470   20.3930 C   0  0  0  0  0  0  0  0  0  0  0  0
  -24.7490  -13.2850   20.8170 C   0  0  0  0  0  0  0  0  0  0  0  0
  -25.1620  -11.9240   20.6710 C   0  0  0  0  0  0  0  0  0  0  0  0
  -26.7850  -13.1550   20.0090 N   0  0  0  0  0  0  0  0  0  0  0  0
  -26.4190  -11.8670   20.2430 N   0  0  0  0  0  0  0  0  0  0  0  0
  -24.4080  -10.6760   20.8570 C   0  0  0  0  0  0  0  0  0  0  0  0
  -24.7800   -9.7260   21.8330 C   0  0  0  0  0  3  0  0  0  0  0  0
  -24.0240   -8.5450   22.0060 C   0  0  0  0  0  3  0  0  0  0  0  0
  -22.8840   -8.3080   21.2020 C   0  0  0  0  0  0  0  0  0  0  0  0
  -22.5330   -9.2470   20.2160 C   0  0  0  0  0  3  0  0  0  0  0  0
  -23.2890  -10.4180   20.0410 C   0  0  0  0  0  3  0  0  0  0  0  0
  -22.1070   -7.1780   21.2820 O   0  0  0  0  0  0  0  0  0  0  0  0
  -21.8380   -6.5730   22.4840 C   0  0  0  0  0  0  0  0  0  0  0  0
  -21.1640   -7.2500   23.5250 C   0  0  0  0  0  3  0  0  0  0  0  0
  -20.8450   -6.5690   24.7170 C   0  0  0  0  0  3  0  0  0  0  0  0
  -21.1910   -5.2130   24.8680 C   0  0  0  0  0  0  0  0  0  0  0  0
  -21.8550   -4.5360   23.8310 C   0  0  0  0  0  3  0  0  0  0  0  0
  -22.1750   -5.2140   22.6410 C   0  0  0  0  0  0  0  0  0  0  0  0
  -22.7980   -4.5500   21.6370 F   0  0  0  0  0  0  0  0  0  0  0  0
  -20.8780   -4.5570   26.0100 F   0  0  0  0  0  0  0  0  0  0  0  0
  -23.3990  -13.7910   21.2320 C   0  0  0  0  0  0  0  0  0  0  0  0
  -22.7280  -13.0800   22.1300 N   0  0  0  0  0  0  0  0  0  0  0  0
  -22.9520  -14.8510   20.7960 O   0  0  0  0  0  0  0  0  0  0  0  0
  -23.1030  -12.2200   22.5040 H   0  0  0  0  0  0  0  0  0  0  0  0
  -21.8240  -13.3990   22.4510 H   0  0  0  0  0  0  0  0  0  0  0  0
  -25.9940  -15.4210   20.2710 N   0  0  0  0  0  0  0  0  0  0  0  0
  -25.2500  -16.0800   20.4730 H   0  0  0  0  0  0  0  0  0  0  0  0
  -26.7890  -15.8470   19.8150 H   0  0  0  0  0  0  0  0  0  0  0  0
  -29.2710  -22.9230   19.4410 C   0  0  0  0  0  3  0  0  0  0  0  0
  -28.2910  -24.4230   19.2230 C   0  0  0  0  0  3  0  0  0  0  0  0
  -28.4620  -26.0250   19.5480 O   0  0  0  0  0  0  0  0  0  0  0  0
  -24.5940  -31.4870   23.0060 C   0  0  0  0  0  0  0  0  0  0  0  0
  -27.3990  -27.0650   19.5640 C   0  0  0  0  0  0  0  0  0  0  0  0
  -23.4760  -30.1960   21.2330 C   0  0  0  0  0  3  0  0  0  0  0  0
  -25.0070  -28.8120   19.6730 C   0  0  0  0  0  0  0  0  0  0  0  0
  -26.0270  -30.5530   21.1260 C   0  0  0  0  0  2  0  0  0  0  0  0
  -26.1700  -29.2190   20.3400 C   0  0  0  0  0  0  0  0  0  0  0  0
  -27.3600  -28.3670   20.2630 C   0  0  0  0  0  3  0  0  0  0  0  0
  -26.2010  -26.8090   18.8590 C   0  0  0  0  0  3  0  0  0  0  0  0
  -25.0460  -27.6300   18.9150 C   0  0  0  0  0  3  0  0  0  0  0  0
  -23.7420  -29.6590   19.7990 C   0  0  0  0  0  2  0  0  0  0  0  0
  -24.7190  -30.7680   21.8440 N   0  0  0  0  0  0  0  0  0  0  0  0
  -23.4910  -31.6700   23.5450 O   0  0  0  0  0  0  0  0  0  0  0  0
  -22.8320  -29.0780   22.0940 C   0  0  0  0  0  0  0  0  0  0  0  0
  -21.5200  -28.8330   21.9160 N   0  0  0  0  0  0  0  0  0  0  0  0
  -23.5210  -28.4350   22.8900 O   0  0  0  0  0  0  0  0  0  0  0  0
  -21.0160  -29.4090   21.2570 H   0  0  0  0  0  0  0  0  0  0  0  0
  -18.2260  -27.3440   22.2060 C   0  0  0  0  0  0  0  0  0  0  0  0
  -20.7470  -27.7820   22.5850 C   0  0  0  0  0  3  0  0  0  0  0  0
  -20.9780  -26.4090   21.9120 C   0  0  0  0  0  2  0  0  0  0  0  0
  -19.9380  -26.0810   20.8350 C   0  0  0  0  0  2  0  0  0  0  0  0
  -18.5300  -26.0690   21.4360 C   0  0  0  0  0  2  0  0  0  0  0  0
  -19.2670  -28.1560   22.7310 C   0  0  0  0  0  0  0  0  0  0  0  0
  -18.9270  -29.3450   23.4120 C   0  0  0  0  0  3  0  0  0  0  0  0
  -17.5820  -29.7270   23.5700 C   0  0  0  0  0  3  0  0  0  0  0  0
  -16.5560  -28.9130   23.0580 C   0  0  0  0  0  3  0  0  0  0  0  0
  -16.8780  -27.7230   22.3830 C   0  0  0  0  0  3  0  0  0  0  0  0
  -25.8300  -32.1280   23.7060 C   0  0  0  0  0  3  0  0  0  0  0  0
  -25.4710  -33.5060   24.0890 N   0  0  0  0  0  0  0  0  0  0  0  0
  -25.7680  -34.6020   23.3780 C   0  0  0  0  0  0  0  0  0  0  0  0
  -26.4350  -34.5610   22.3410 O   0  0  0  0  0  0  0  0  0  0  0  0
  -24.8760  -33.6060   24.8980 H   0  0  0  0  0  0  0  0  0  0  0  0
  -23.9670  -36.3450   23.1320 C   0  0  0  0  0  1  0  0  0  0  0  0
  -25.2440  -35.9570   23.8960 C   0  0  0  0  0  3  0  0  0  0  0  0
  -27.3600  -36.9050   24.7120 C   0  0  0  0  0  1  0  0  0  0  0  0
  -26.2360  -37.0510   23.7910 N   0  0  0  0  0  0  0  0  0  0  0  0
  -25.7990  -37.9530   23.9660 H   0  0  0  0  0  0  0  0  0  0  0  0
  -26.3110  -31.3210   24.9760 C   0  0  1  0  0  0  0  0  0  0  0  0
  -25.1810  -31.0260   25.9910 C   0  0  0  0  0  1  0  0  0  0  0  0
  -26.9340  -29.9670   24.5650 C   0  0  0  0  0  1  0  0  0  0  0  0
  -27.4220  -32.1090   25.7080 C   0  0  0  0  0  1  0  0  0  0  0  0
  1  3  1  0
  2  1  2  0
  4 46  1  0
  4  5  1  0
  4  2  1  0
  5 14  1  0
  5  3  1  0
  6 12  1  0
  6 15  1  0
  7 12  1  0
  8  9  1  0
  8  7  1  0
 10  9  1  0
 10 21  1  0
 10 11  1  0
 12 11  1  0
 13  6  2  0
 14 15  1  0
 15 17  1  0
 16 14  2  0
 18 19  2  0
 19 38  1  0
 20 19  1  0
 20 23  1  0
 21 22  1  0
 21 18  1  0
 22 20  2  0
 23 24  1  0
 24 25  2  0
 26 29  1  0
 26 25  1  0
 27 26  2  0
 28 27  1  0
 28 23  2  0
 29 30  1  0
 30 35  2  0
 30 31  1  0
 31 32  2  0
 32 33  1  0
 33 37  1  0
 34 33  2  0
 35 34  1  0
 36 35  1  0
 38 39  1  0
 39 42  1  0
 39 41  1  0
 40 38  2  0
 43 18  1  0
 43 44  1  0
 45 43  1  0
 47 46  2  0
 47 48  1  0
 48 50  1  0
 49 60  2  0
 50 55  1  0
 51 59  1  0
 51 61  1  0
 52 58  1  0
 52 54  1  0
 53 59  1  0
 54 53  1  0
 55 54  2  0
 56 57  1  0
 56 50  2  0
 57 52  2  0
 58 51  1  0
 59 49  1  0
 61 63  2  0
 62 61  1  0
 64 62  1  0
 65 74  2  0
 65 70  1  0
 66 62  1  0
 66 70  1  0
 67 66  1  0
 68 69  1  0
 68 67  1  0
 69 65  1  0
 70 71  2  0
 71 72  1  0
 73 72  2  0
 74 73  1  0
 75 49  1  0
 75 76  1  0
 75 85  1  0
 76 79  1  0
 77 81  1  0
 77 76  1  0
 78 77  2  0
 81 80  1  0
 83 81  1  0
 83 84  1  0
 83 82  1  0
 85 88  1  1
 85 86  1  0
 87 85  1  0
M  ISO  4   6 100  15 100  47 101  48 101
M  END
>  <TORSDO>  (1) 
F 18

>  <SCORE>  (1) 
-12.639

>  <name>  (1) 
0

>  <ligand_id>  (1) 
0

>  <original_smiles>  (1) 
[H]C1=C([H])C([H])(C([H])([H])C([H])([H])Oc2c([H])c([H])c3c(c2[H])C([H])([H])N(C(=O)C([H])(N([H])C(=O)C([H])(N([H])C([H])([H])[H])C([H])([H])[H])C(C([H])([H])[H])(C([H])([H])[H])C([H])([H])[H])C([H])(C(=O)N([H])C2([H])c4c([H])c([H])c([H])c([H])c4C([H])([H])C([H])([H])C2([H])[H])C3([H])[H])C([H])(C(=O)N([H])C(=O)N2C([H])([H])C([H])([H])C([H])([H])C([H])(n3nc(-c4c([H])c([H])c(Oc5c([H])c([H])c(F)c([H])c5F)c([H])c4[H])c(C(=O)N([H])[H])c3N([H])[H])C2([H])[H])C1([H])[H]

>  <smiles>  (1) 
[H]C1=C([H])C([H])(C([H])([H])C([H])([H])Oc2c([H])c([H])c3c(c2[H])C([H])([H])N(C(=O)C([H])(N([H])C(=O)C([H])(N([H])C([H])([H])[H])C([H])([H])[H])C(C([H])([H])[H])(C([H])([H])[H])C([H])([H])[H])C([H])(C(=O)N([H])C2([H])c4c([H])c([H])c([H])c([H])c4C([H])([H])C([H])([H])C2([H])[H])C3([H])[H])C([H])(C(=O)N([H])C(=O)N2C([H])([H])C([H])([H])C([H])([H])C([H])(n3nc(-c4c([H])c([H])c(Oc5c([H])c([H])c(F)c([H])c5F)c([H])c4[H])c(C(=O)N([H])[H])c3N([H])[H])C2([H])[H])C1([H])[H]

$$$$
1:0:0
     RDKit          3D

 90 98  0  0  1  0  0  0  0  0999 V2000
  -28.3180  -21.0480   21.3290 C   0  0  0  0  0  2  0  0  0  0  0  0
  -27.7200  -22.4500   20.9220 C   0  0  0  0  0  2  0  0  0  0  0  0
  -29.6840  -22.8070   19.4780 C   0  0  0  0  0  2  0  0  0  0  0  0
  -29.2460  -20.3760   20.2640 C   0  0  0  0  0  3  0  0  0  0  0  0
  -28.7390  -23.5710   20.4970 C   0  0  0  0  0  3  0  0  0  0  0  0
  -30.2380  -21.4540   19.9200 N   0  0  0  0  0  4  0  0  0  0  0  0
  -30.8270  -21.5930   20.7260 H   0  0  0  0  0  0  0  0  0  0  0  0
  -30.8330  -21.1030   19.1880 H   0  0  0  0  0  0  0  0  0  0  0  0
  -29.9560  -18.9980   20.8000 C   0  0  0  0  0  0  0  0  0  0  0  0
  -30.5680  -19.0220   21.8700 O   0  0  0  0  0  0  0  0  0  0  0  0
  -29.9560  -17.5920   20.0220 C   0  0  0  0  0  2  0  0  0  0  0  0
  -29.9180  -16.1770   20.8380 C   0  0  0  0  0  2  0  0  0  0  0  0
  -30.6530  -14.8470   20.3050 C   0  0  0  0  0  0  0  0  0  0  0  0
  -30.4680  -12.5680   19.2670 C   0  0  0  0  0  2  0  0  0  0  0  0
  -29.5210  -12.6510   18.0500 C   0  0  0  0  0  2  0  0  0  0  0  0
  -28.0510  -12.4770   18.4830 C   0  0  0  0  0  2  0  0  0  0  0  0
  -27.6880  -13.3520   19.7130 C   0  0  0  0  0  3  0  0  0  0  0  0
  -28.7520  -13.2380   20.8260 C   0  0  0  0  0  2  0  0  0  0  0  0
  -30.0490  -13.6060   20.2400 N   0  0  0  0  0  0  0  0  0  0  0  0
  -31.8020  -14.9680   19.8670 O   0  0  0  0  0  0  0  0  0  0  0  0
  -25.2990  -13.9430   20.4400 C   0  0  0  0  0  0  0  0  0  0  0  0
  -24.2350  -13.1700   20.8170 C   0  0  0  0  0  0  0  0  0  0  0  0
  -24.6990  -11.8190   20.7910 C   0  0  0  0  0  0  0  0  0  0  0  0
  -26.3440  -13.0640   20.2060 N   0  0  0  0  0  0  0  0  0  0  0  0
  -25.9900  -11.7810   20.4780 N   0  0  0  0  0  0  0  0  0  0  0  0
  -23.9740  -10.5580   20.9910 C   0  0  0  0  0  0  0  0  0  0  0  0
  -24.4160   -9.5900   21.9210 C   0  0  0  0  0  3  0  0  0  0  0  0
  -23.6910   -8.3940   22.1080 C   0  0  0  0  0  3  0  0  0  0  0  0
  -22.5100   -8.1560   21.3660 C   0  0  0  0  0  0  0  0  0  0  0  0
  -22.0870   -9.1110   20.4260 C   0  0  0  0  0  3  0  0  0  0  0  0
  -22.8130  -10.2990   20.2360 C   0  0  0  0  0  3  0  0  0  0  0  0
  -21.7550   -7.0110   21.4630 O   0  0  0  0  0  0  0  0  0  0  0  0
  -21.7230   -6.2650   22.6140 C   0  0  0  0  0  0  0  0  0  0  0  0
  -21.3170   -6.8170   23.8480 C   0  0  0  0  0  3  0  0  0  0  0  0
  -21.2320   -5.9980   24.9920 C   0  0  0  0  0  3  0  0  0  0  0  0
  -21.5420   -4.6280   24.9020 C   0  0  0  0  0  0  0  0  0  0  0  0
  -21.9410   -4.0760   23.6730 C   0  0  0  0  0  3  0  0  0  0  0  0
  -22.0280   -4.8920   22.5310 C   0  0  0  0  0  0  0  0  0  0  0  0
  -22.3920   -4.3490   21.3450 F   0  0  0  0  0  0  0  0  0  0  0  0
  -21.4540   -3.8400   25.9990 F   0  0  0  0  0  0  0  0  0  0  0  0
  -22.8380  -13.6480   21.0900 C   0  0  0  0  0  0  0  0  0  0  0  0
  -22.1130  -12.9560   21.9630 N   0  0  0  0  0  0  0  0  0  0  0  0
  -22.3970  -14.6690   20.5670 O   0  0  0  0  0  0  0  0  0  0  0  0
  -22.4800  -12.1270   22.4080 H   0  0  0  0  0  0  0  0  0  0  0  0
  -21.1760  -13.2580   22.1900 H   0  0  0  0  0  0  0  0  0  0  0  0
  -25.4620  -15.3120   20.2560 N   0  0  0  0  0  0  0  0  0  0  0  0
  -24.6950  -15.9680   20.3660 H   0  0  0  0  0  0  0  0  0  0  0  0
  -26.3110  -15.7500   19.9200 H   0  0  0  0  0  0  0  0  0  0  0  0
  -27.9560  -24.9180   19.9780 C   0  0  0  0  0  2  0  0  0  0  0  0
  -28.2530  -26.3810   20.2450 O   0  0  0  0  0  0  0  0  0  0  0  0
  -24.6070  -31.9370   23.2340 C   0  0  0  0  0  0  0  0  0  0  0  0
  -27.1800  -27.3150   20.1650 C   0  0  0  0  0  0  0  0  0  0  0  0
  -23.3920  -30.5400   21.6050 C   0  0  0  0  0  3  0  0  0  0  0  0
  -24.8330  -28.9900   20.1620 C   0  0  0  0  0  0  0  0  0  0  0  0
  -25.9390  -30.8360   21.4130 C   0  0  0  0  0  2  0  0  0  0  0  0
  -26.0100  -29.4540   20.7620 C   0  0  0  0  0  0  0  0  0  0  0  0
  -27.1860  -28.6270   20.7560 C   0  0  0  0  0  3  0  0  0  0  0  0
  -25.9800  -26.9450   19.5090 C   0  0  0  0  0  3  0  0  0  0  0  0
  -24.8240  -27.7440   19.5240 C   0  0  0  0  0  3  0  0  0  0  0  0
  -23.5990  -29.8710   20.2210 C   0  0  0  0  0  2  0  0  0  0  0  0
  -24.6650  -31.1230   22.1390 N   0  0  0  0  0  0  0  0  0  0  0  0
  -23.5270  -32.2180   23.7720 O   0  0  0  0  0  0  0  0  0  0  0  0
  -22.7320  -29.5240   22.5680 C   0  0  0  0  0  0  0  0  0  0  0  0
  -21.4060  -29.3400   22.4430 N   0  0  0  0  0  0  0  0  0  0  0  0
  -23.4130  -28.9050   23.3890 O   0  0  0  0  0  0  0  0  0  0  0  0
  -20.9140  -29.8920   21.7540 H   0  0  0  0  0  0  0  0  0  0  0  0
  -18.0350  -28.1200   22.9470 C   0  0  0  0  0  0  0  0  0  0  0  0
  -20.5910  -28.4030   23.2200 C   0  0  0  0  0  3  0  0  0  0  0  0
  -20.7060  -26.9670   22.6580 C   0  0  0  0  0  2  0  0  0  0  0  0
  -19.6100  -26.6270   21.6440 C   0  0  0  0  0  2  0  0  0  0  0  0
  -18.2250  -26.7660   22.2830 C   0  0  0  0  0  2  0  0  0  0  0  0
  -19.1470  -28.8950   23.3720 C   0  0  0  0  0  0  0  0  0  0  0  0
  -18.9150  -30.1600   23.9530 C   0  0  0  0  0  3  0  0  0  0  0  0
  -17.6060  -30.6520   24.1130 C   0  0  0  0  0  3  0  0  0  0  0  0
  -16.5090  -29.8730   23.7040 C   0  0  0  0  0  3  0  0  0  0  0  0
  -16.7250  -28.6090   23.1250 C   0  0  0  0  0  3  0  0  0  0  0  0
  -25.8920  -32.5710   23.8460 C   0  0  0  0  0  3  0  0  0  0  0  0
  -26.4150  -31.8030   25.1220 C   0  0  1  0  0  0  0  0  0  0  0  0
  -25.3270  -31.5680   26.1960 C   0  0  0  0  0  1  0  0  0  0  0  0
  -26.9960  -30.4240   24.7340 C   0  0  0  0  0  1  0  0  0  0  0  0
  -27.5700  -32.5980   25.7760 C   0  0  0  0  0  1  0  0  0  0  0  0
  -25.5840  -33.9700   24.1780 N   0  0  0  0  0  0  0  0  0  0  0  0
  -25.9150  -35.0240   23.4200 C   0  0  0  0  0  0  0  0  0  0  0  0
  -26.5800  -34.9210   22.3860 O   0  0  0  0  0  0  0  0  0  0  0  0
  -24.9930  -34.1240   24.9820 H   0  0  0  0  0  0  0  0  0  0  0  0
  -24.1910  -36.8240   23.0700 C   0  0  0  0  0  1  0  0  0  0  0  0
  -25.4300  -36.4130   23.8810 C   0  0  0  0  0  3  0  0  0  0  0  0
  -27.5680  -37.2870   24.7170 C   0  0  0  0  0  1  0  0  0  0  0  0
  -26.4660  -37.4640   23.7750 N   0  0  0  0  0  0  0  0  0  0  0  0
  -26.0610  -38.3840   23.9320 H   0  0  0  0  0  0  0  0  0  0  0  0
  2  1  1  0
  3  6  1  0
  3  5  1  0
  4  9  1  0
  4  1  1  0
  5 49  1  0
  5  2  1  0
  6  4  1  0
  6  7  1  0
  8  6  1  0
  9 10  2  0
 11  9  1  0
 11 12  1  0
 13 12  1  0
 14 19  1  0
 15 16  1  0
 15 14  1  0
 17 16  1  0
 17 24  1  0
 17 18  1  0
 19 13  1  0
 19 18  1  0
 20 13  2  0
 21 22  2  0
 22 41  1  0
 23 22  1  0
 23 26  1  0
 24 21  1  0
 24 25  1  0
 25 23  2  0
 26 27  1  0
 27 28  2  0
 29 32  1  0
 29 28  1  0
 30 29  2  0
 31 30  1  0
 31 26  2  0
 32 33  1  0
 33 34  1  0
 34 35  2  0
 36 35  1  0
 36 40  1  0
 37 36  2  0
 38 33  2  0
 38 37  1  0
 39 38  1  0
 41 42  1  0
 42 45  1  0
 42 44  1  0
 43 41  2  0
 46 47  1  0
 46 21  1  0
 48 46  1  0
 49 50  1  0
 51 62  2  0
 52 50  1  0
 52 57  1  0
 53 61  1  0
 53 63  1  0
 54 60  1  0
 54 56  1  0
 55 61  1  0
 56 55  1  0
 57 56  2  0
 58 59  1  0
 58 52  2  0
 59 54  2  0
 60 53  1  0
 61 51  1  0
 63 65  2  0
 64 63  1  0
 66 64  1  0
 67 76  2  0
 67 72  1  0
 68 64  1  0
 68 72  1  0
 69 68  1  0
 70 71  1  0
 70 69  1  0
 71 67  1  0
 72 73  2  0
 73 74  1  0
 75 74  2  0
 76 75  1  0
 77 51  1  0
 77 82  1  0
 77 78  1  0
 78 81  1  1
 78 79  1  0
 80 78  1  0
 82 85  1  0
 83 87  1  0
 83 82  1  0
 84 83  2  0
 87 86  1  0
 89 87  1  0
 89 90  1  0
 89 88  1  0
M  ISO  4  12 100  13 100  49 101  50 101
M  END
>  <TORSDO>  (2) 
F 20

>  <SCORE>  (2) 
-13.675

>  <name>  (2) 
1

>  <ligand_id>  (2) 
1

>  <original_smiles>  (2) 
[H]c1c([H])c([H])c2c(c1[H])C([H])([H])C([H])([H])C([H])([H])C2([H])N([H])C(=O)C1([H])N(C(=O)C([H])(N([H])C(=O)C([H])(N([H])C([H])([H])[H])C([H])([H])[H])C(C([H])([H])[H])(C([H])([H])[H])C([H])([H])[H])C([H])([H])c2c([H])c(OC([H])([H])C3([H])C([H])([H])C([H])([H])C([H])(C(=O)C([H])([H])C([H])([H])C(=O)N4C([H])([H])C([H])([H])C([H])([H])C([H])(n5nc(-c6c([H])c([H])c(Oc7c([H])c([H])c(F)c([H])c7F)c([H])c6[H])c(C(=O)N([H])[H])c5N([H])[H])C4([H])[H])[N+]([H])([H])C3([H])[H])c([H])c([H])c2C1([H])[H]

>  <smiles>  (2) 
[H]c1c([H])c([H])c2c(c1[H])C([H])([H])C([H])([H])C([H])([H])C2([H])N([H])C(=O)C1([H])N(C(=O)C([H])(N([H])C(=O)C([H])(N([H])C([H])([H])[H])C([H])([H])[H])C(C([H])([H])[H])(C([H])([H])[H])C([H])([H])[H])C([H])([H])c2c([H])c(OC([H])([H])C3([H])C([H])([H])C([H])([H])C([H])(C(=O)C([H])([H])C([H])([H])C(=O)N4C([H])([H])C([H])([H])C([H])([H])C([H])(n5nc(-c6c([H])c([H])c(Oc7c([H])c([H])c(F)c([H])c7F)c([H])c6[H])c(C(=O)N([H])[H])c5N([H])[H])C4([H])[H])[N+]([H])([H])C3([H])[H])c([H])c([H])c2C1([H])[H]

$$$$
2:0:0
     RDKit          3D

 91 99  0  0  1  0  0  0  0  0999 V2000
  -30.2090  -19.8690   21.3930 C   0  0  0  0  0  2  0  0  0  0  0  0
  -30.3690  -21.4220   21.0620 C   0  0  0  0  0  2  0  0  0  0  0  0
  -28.9890  -21.2250   19.1500 C   0  0  0  0  0  2  0  0  0  0  0  0
  -29.9230  -18.8270   20.2290 C   0  0  0  0  0  3  0  0  0  0  0  0
  -28.8070  -19.6390   19.4140 C   0  0  0  0  0  3  0  0  0  0  0  0
  -28.5300  -18.9230   18.0800 C   0  0  0  0  0  1  0  0  0  0  0  0
  -29.2140  -22.1010   20.3600 N   0  0  2  0  0  4  0  0  0  0  0  0
  -28.4120  -21.9870   20.9650 H   0  0  0  0  0  0  0  0  0  0  0  0
  -29.7020  -15.9650   20.6790 C   0  0  0  0  0  3  0  0  0  0  0  0
  -29.4650  -17.3610   20.7760 C   0  0  0  0  0  0  0  0  0  0  0  0
  -30.5630  -14.8940   19.9910 C   0  0  0  0  0  0  0  0  0  0  0  0
  -30.4290  -12.6200   18.8770 C   0  0  0  0  0  2  0  0  0  0  0  0
  -29.3890  -12.6800   17.7270 C   0  0  0  0  0  2  0  0  0  0  0  0
  -27.9500  -12.4670   18.2440 C   0  0  0  0  0  2  0  0  0  0  0  0
  -27.6570  -13.2930   19.5220 C   0  0  0  0  0  3  0  0  0  0  0  0
  -28.7920  -13.1040   20.5480 C   0  0  0  0  0  2  0  0  0  0  0  0
  -30.0310  -13.6050   19.9180 N   0  0  0  0  0  0  0  0  0  0  0  0
  -31.6760  -15.0860   19.4820 O   0  0  0  0  0  0  0  0  0  0  0  0
  -25.3230  -13.8690   20.4200 C   0  0  0  0  0  0  0  0  0  0  0  0
  -24.2800  -13.0870   20.8370 C   0  0  0  0  0  0  0  0  0  0  0  0
  -24.7340  -11.7370   20.7330 C   0  0  0  0  0  0  0  0  0  0  0  0
  -26.3440  -12.9940   20.0870 N   0  0  0  0  0  0  0  0  0  0  0  0
  -26.0010  -11.7040   20.3350 N   0  0  0  0  0  0  0  0  0  0  0  0
  -24.0180  -10.4700   20.9340 C   0  0  0  0  0  0  0  0  0  0  0  0
  -24.4630   -9.5100   21.8690 C   0  0  0  0  0  3  0  0  0  0  0  0
  -23.7460   -8.3090   22.0570 C   0  0  0  0  0  3  0  0  0  0  0  0
  -22.5700   -8.0600   21.3110 C   0  0  0  0  0  0  0  0  0  0  0  0
  -22.1440   -9.0090   20.3660 C   0  0  0  0  0  3  0  0  0  0  0  0
  -22.8620  -10.2020   20.1750 C   0  0  0  0  0  3  0  0  0  0  0  0
  -21.8240   -6.9100   21.4080 O   0  0  0  0  0  0  0  0  0  0  0  0
  -21.7180   -6.2190   22.5890 C   0  0  0  0  0  0  0  0  0  0  0  0
  -21.1990   -6.8160   23.7580 C   0  0  0  0  0  3  0  0  0  0  0  0
  -21.0430   -6.0500   24.9310 C   0  0  0  0  0  3  0  0  0  0  0  0
  -21.3940   -4.6860   24.9340 C   0  0  0  0  0  0  0  0  0  0  0  0
  -21.9060   -4.0890   23.7690 C   0  0  0  0  0  3  0  0  0  0  0  0
  -22.0640   -4.8520   22.5980 C   0  0  0  0  0  0  0  0  0  0  0  0
  -22.5380   -4.2660   21.4730 F   0  0  0  0  0  0  0  0  0  0  0  0
  -21.2370   -3.9480   26.0570 F   0  0  0  0  0  0  0  0  0  0  0  0
  -22.9060  -13.5580   21.2170 C   0  0  0  0  0  0  0  0  0  0  0  0
  -22.2360  -12.8380   22.1100 N   0  0  0  0  0  0  0  0  0  0  0  0
  -22.4380  -14.6000   20.7600 O   0  0  0  0  0  0  0  0  0  0  0  0
  -22.6280  -11.9950   22.5010 H   0  0  0  0  0  0  0  0  0  0  0  0
  -21.3170  -13.1340   22.4070 H   0  0  0  0  0  0  0  0  0  0  0  0
  -25.4800  -15.2450   20.2760 N   0  0  0  0  0  0  0  0  0  0  0  0
  -24.7230  -15.8950   20.4540 H   0  0  0  0  0  0  0  0  0  0  0  0
  -26.3030  -15.6920   19.8910 H   0  0  0  0  0  0  0  0  0  0  0  0
  -28.4830  -17.6690   21.6420 O   0  0  0  0  0  0  0  0  0  0  0  0
  -28.1490  -16.8660   22.0180 H   0  0  0  0  0  0  0  0  0  0  0  0
  -29.4090  -23.6590   20.1580 C   0  0  0  0  0  3  0  0  0  0  0  0
  -28.1860  -24.7680   20.0720 C   0  0  0  0  0  3  0  0  0  0  0  0
  -28.4000  -26.2930   20.1440 O   0  0  0  0  0  0  0  0  0  0  0  0
  -24.6520  -31.8130   23.1950 C   0  0  0  0  0  0  0  0  0  0  0  0
  -27.3010  -27.2110   20.1070 C   0  0  0  0  0  0  0  0  0  0  0  0
  -23.4730  -30.4320   21.5280 C   0  0  0  0  0  3  0  0  0  0  0  0
  -24.9430  -28.8940   20.0930 C   0  0  0  0  0  0  0  0  0  0  0  0
  -26.0210  -30.7350   21.3790 C   0  0  0  0  0  2  0  0  0  0  0  0
  -26.1120  -29.3560   20.7100 C   0  0  0  0  0  0  0  0  0  0  0  0
  -27.2920  -28.5310   20.6980 C   0  0  0  0  0  3  0  0  0  0  0  0
  -26.1000  -26.8330   19.4640 C   0  0  0  0  0  3  0  0  0  0  0  0
  -24.9460  -27.6440   19.4580 C   0  0  0  0  0  3  0  0  0  0  0  0
  -23.7060  -29.7740   20.1420 C   0  0  0  0  0  2  0  0  0  0  0  0
  -24.7350  -31.0130   22.0900 N   0  0  0  0  0  0  0  0  0  0  0  0
  -23.5610  -32.0810   23.7210 O   0  0  0  0  0  0  0  0  0  0  0  0
  -22.7980  -29.4040   22.4690 C   0  0  0  0  0  0  0  0  0  0  0  0
  -21.4700  -29.2330   22.3380 N   0  0  0  0  0  0  0  0  0  0  0  0
  -23.4700  -28.7630   23.2810 O   0  0  0  0  0  0  0  0  0  0  0  0
  -20.9850  -29.8030   21.6580 H   0  0  0  0  0  0  0  0  0  0  0  0
  -18.0850  -28.0480   22.8350 C   0  0  0  0  0  0  0  0  0  0  0  0
  -20.6480  -28.2830   23.0900 C   0  0  0  0  0  3  0  0  0  0  0  0
  -20.7330  -26.8650   22.4790 C   0  0  0  0  0  2  0  0  0  0  0  0
  -19.6220  -26.5770   21.4640 C   0  0  0  0  0  2  0  0  0  0  0  0
  -18.2460  -26.7160   22.1220 C   0  0  0  0  0  2  0  0  0  0  0  0
  -19.2120  -28.7910   23.2760 C   0  0  0  0  0  0  0  0  0  0  0  0
  -19.0070  -30.0390   23.9030 C   0  0  0  0  0  3  0  0  0  0  0  0
  -17.7070  -30.5440   24.0940 C   0  0  0  0  0  3  0  0  0  0  0  0
  -16.5940  -29.7980   23.6680 C   0  0  0  0  0  3  0  0  0  0  0  0
  -16.7840  -28.5510   23.0450 C   0  0  0  0  0  3  0  0  0  0  0  0
  -25.9230  -32.4460   23.8390 C   0  0  0  0  0  3  0  0  0  0  0  0
  -26.4260  -31.6650   25.1160 C   0  0  1  0  0  0  0  0  0  0  0  0
  -25.3200  -31.4110   26.1670 C   0  0  0  0  0  1  0  0  0  0  0  0
  -27.0220  -30.2940   24.7210 C   0  0  0  0  0  1  0  0  0  0  0  0
  -27.5630  -32.4590   25.8010 C   0  0  0  0  0  1  0  0  0  0  0  0
  -25.6020  -33.8390   24.1840 N   0  0  0  0  0  0  0  0  0  0  0  0
  -25.9220  -34.9040   23.4370 C   0  0  0  0  0  0  0  0  0  0  0  0
  -26.5870  -34.8170   22.4010 O   0  0  0  0  0  0  0  0  0  0  0  0
  -25.0100  -33.9810   24.9900 H   0  0  0  0  0  0  0  0  0  0  0  0
  -24.1780  -36.6900   23.1170 C   0  0  0  0  0  1  0  0  0  0  0  0
  -25.4280  -36.2850   23.9140 C   0  0  0  0  0  3  0  0  0  0  0  0
  -27.5590  -37.1830   24.7430 C   0  0  0  0  0  1  0  0  0  0  0  0
  -26.4520  -37.3470   23.8030 N   0  0  0  0  0  0  0  0  0  0  0  0
  -26.0390  -38.2630   23.9560 H   0  0  0  0  0  0  0  0  0  0  0  0
  2  1  1  0
  3  5  1  0
  3  7  1  0
  4 10  1  0
  4  1  1  0
  5  6  1  0
  5  4  1  0
  7  8  1  1
  7  2  1  0
  9 10  2  0
 10 47  1  0
 11  9  1  0
 12 17  1  0
 13 14  1  0
 13 12  1  0
 15 14  1  0
 15 22  1  0
 15 16  1  0
 17 11  1  0
 17 16  1  0
 18 11  2  0
 19 20  2  0
 20 39  1  0
 21 20  1  0
 21 24  1  0
 22 23  1  0
 22 19  1  0
 23 21  2  0
 24 25  1  0
 25 26  2  0
 27 30  1  0
 27 26  1  0
 28 27  2  0
 29 28  1  0
 29 24  2  0
 30 31  1  0
 31 36  2  0
 31 32  1  0
 32 33  2  0
 33 34  1  0
 34 38  1  0
 35 34  2  0
 36 35  1  0
 37 36  1  0
 39 40  1  0
 40 43  1  0
 40 42  1  0
 41 39  2  0
 44 19  1  0
 44 45  1  0
 46 44  1  0
 47 48  1  0
 49  7  1  0
 50 51  1  0
 50 49  2  0
 52 63  2  0
 53 51  1  0
 53 58  1  0
 54 62  1  0
 54 64  1  0
 55 61  1  0
 55 57  1  0
 56 62  1  0
 57 56  1  0
 58 57  2  0
 59 53  2  0
 60 59  1  0
 60 55  2  0
 61 54  1  0
 62 52  1  0
 64 66  2  0
 65 64  1  0
 67 65  1  0
 68 77  2  0
 68 73  1  0
 69 65  1  0
 69 73  1  0
 70 69  1  0
 71 72  1  0
 71 70  1  0
 72 68  1  0
 73 74  2  0
 74 75  1  0
 76 75  2  0
 77 76  1  0
 78 52  1  0
 78 83  1  0
 78 79  1  0
 79 82  1  1
 79 80  1  0
 81 79  1  0
 83 86  1  0
 84 88  1  0
 84 83  1  0
 85 84  2  0
 88 87  1  0
 90 88  1  0
 90 91  1  0
 90 89  1  0
M  ISO  4   9 100  11 100  50 101  51 101
M  END
>  <TORSDO>  (3) 
F 20

>  <SCORE>  (3) 
-13.468

>  <name>  (3) 
2

>  <ligand_id>  (3) 
2

>  <original_smiles>  (3) 
[H]OC(=C([H])C(=O)N1C([H])([H])C([H])([H])C([H])([H])C([H])(n2nc(-c3c([H])c([H])c(Oc4c([H])c([H])c(F)c([H])c4F)c([H])c3[H])c(C(=O)N([H])[H])c2N([H])[H])C1([H])[H])C1([H])C([H])([H])C([H])([H])[N+]([H])(C([H])([H])C([H])([H])Oc2c([H])c([H])c3c(c2[H])C([H])([H])N(C(=O)C([H])(N([H])C(=O)C([H])(N([H])C([H])([H])[H])C([H])([H])[H])C(C([H])([H])[H])(C([H])([H])[H])C([H])([H])[H])C([H])(C(=O)N([H])C2([H])c4c([H])c([H])c([H])c([H])c4C([H])([H])C([H])([H])C2([H])[H])C3([H])[H])C([H])([H])C1([H])C([H])([H])[H]

>  <smiles>  (3) 
[H]OC(=C([H])C(=O)N1C([H])([H])C([H])([H])C([H])([H])C([H])(n2nc(-c3c([H])c([H])c(Oc4c([H])c([H])c(F)c([H])c4F)c([H])c3[H])c(C(=O)N([H])[H])c2N([H])[H])C1([H])[H])C1([H])C([H])([H])C([H])([H])[N+]([H])(C([H])([H])C([H])([H])Oc2c([H])c([H])c3c(c2[H])C([H])([H])N(C(=O)C([H])(N([H])C(=O)C([H])(N([H])C([H])([H])[H])C([H])([H])[H])C(C([H])([H])[H])(C([H])([H])[H])C([H])([H])[H])C([H])(C(=O)N([H])C2([H])c4c([H])c([H])c([H])c([H])c4C([H])([H])C([H])([H])C2([H])[H])C3([H])[H])C([H])([H])C1([H])C([H])([H])[H]

$$$$
3:0:0
     RDKit          3D

 86 93  0  0  1  0  0  0  0  0999 V2000
  -28.7440  -22.8520   20.5450 C   0  0  0  0  0  3  0  0  0  0  0  0
  -29.0490  -21.2470   19.8280 C   0  0  0  0  0  3  0  0  0  0  0  0
  -30.1900  -19.8090   21.7670 C   0  0  0  0  0  1  0  0  0  0  0  0
  -29.3470  -19.6200   20.5000 C   0  0  0  0  0  3  0  0  0  0  0  0
  -31.3640  -18.3930   19.2650 C   0  0  0  0  0  1  0  0  0  0  0  0
  -29.9200  -18.1280   19.7160 C   0  0  0  0  0  0  0  0  0  0  0  0
  -30.5220  -15.2660   19.9320 C   0  0  0  0  0  0  0  0  0  0  0  0
  -30.3920  -12.8570   19.0140 C   0  0  0  0  0  2  0  0  0  0  0  0
  -29.4070  -12.7380   17.8260 C   0  0  0  0  0  2  0  0  0  0  0  0
  -27.9760  -12.4890   18.3310 C   0  0  0  0  0  2  0  0  0  0  0  0
  -27.6090  -13.4160   19.5180 C   0  0  0  0  0  3  0  0  0  0  0  0
  -28.7180  -13.4970   20.5900 C   0  0  0  0  0  2  0  0  0  0  0  0
  -29.9310  -13.9760   19.9130 N   0  0  0  0  0  0  0  0  0  0  0  0
  -31.7080  -15.2610   19.5740 O   0  0  0  0  0  0  0  0  0  0  0  0
  -29.7920  -16.5290   20.1470 N   0  0  0  0  0  4  0  0  0  0  0  0
  -28.8700  -16.3280   20.5060 H   0  0  0  0  0  0  0  0  0  0  0  0
  -25.2790  -13.9740   20.3940 C   0  0  0  0  0  0  0  0  0  0  0  0
  -24.2350  -13.1950   20.8070 C   0  0  0  0  0  0  0  0  0  0  0  0
  -24.6960  -11.8450   20.7360 C   0  0  0  0  0  0  0  0  0  0  0  0
  -26.3060  -13.0990   20.0870 N   0  0  0  0  0  0  0  0  0  0  0  0
  -25.9690  -11.8110   20.3600 N   0  0  0  0  0  0  0  0  0  0  0  0
  -23.9750  -10.5820   20.9470 C   0  0  0  0  0  0  0  0  0  0  0  0
  -24.4330   -9.6120   21.8640 C   0  0  0  0  0  3  0  0  0  0  0  0
  -23.7100   -8.4160   22.0650 C   0  0  0  0  0  3  0  0  0  0  0  0
  -22.5120   -8.1830   21.3490 C   0  0  0  0  0  0  0  0  0  0  0  0
  -22.0720   -9.1410   20.4190 C   0  0  0  0  0  3  0  0  0  0  0  0
  -22.7960  -10.3280   20.2170 C   0  0  0  0  0  3  0  0  0  0  0  0
  -21.7570   -7.0390   21.4590 O   0  0  0  0  0  0  0  0  0  0  0  0
  -21.7280   -6.3060   22.6180 C   0  0  0  0  0  0  0  0  0  0  0  0
  -21.3150   -6.8690   23.8450 C   0  0  0  0  0  3  0  0  0  0  0  0
  -21.2310   -6.0620   24.9970 C   0  0  0  0  0  3  0  0  0  0  0  0
  -21.5510   -4.6940   24.9240 C   0  0  0  0  0  0  0  0  0  0  0  0
  -21.9580   -4.1300   23.7020 C   0  0  0  0  0  3  0  0  0  0  0  0
  -22.0420   -4.9340   22.5520 C   0  0  0  0  0  0  0  0  0  0  0  0
  -22.4140   -4.3810   21.3720 F   0  0  0  0  0  0  0  0  0  0  0  0
  -21.4650   -3.9160   26.0290 F   0  0  0  0  0  0  0  0  0  0  0  0
  -22.8550  -13.6730   21.1500 C   0  0  0  0  0  0  0  0  0  0  0  0
  -22.1680  -12.9720   22.0460 N   0  0  0  0  0  0  0  0  0  0  0  0
  -22.3960  -14.7040   20.6600 O   0  0  0  0  0  0  0  0  0  0  0  0
  -22.5540  -12.1390   22.4630 H   0  0  0  0  0  0  0  0  0  0  0  0
  -21.2440  -13.2750   22.3170 H   0  0  0  0  0  0  0  0  0  0  0  0
  -25.4340  -15.3460   20.2230 N   0  0  0  0  0  0  0  0  0  0  0  0
  -24.6700  -15.9960   20.3780 H   0  0  0  0  0  0  0  0  0  0  0  0
  -26.2510  -15.7870   19.8190 H   0  0  0  0  0  0  0  0  0  0  0  0
  -28.1220  -24.3900   19.8920 C   0  0  0  0  0  2  0  0  0  0  0  0
  -28.2050  -25.9590   20.3390 O   0  0  0  0  0  0  0  0  0  0  0  0
  -24.6280  -31.8680   23.2490 C   0  0  0  0  0  0  0  0  0  0  0  0
  -27.1870  -27.0310   20.2250 C   0  0  0  0  0  0  0  0  0  0  0  0
  -23.4350  -30.4800   21.6020 C   0  0  0  0  0  3  0  0  0  0  0  0
  -24.8860  -28.8850   20.1750 C   0  0  0  0  0  0  0  0  0  0  0  0
  -25.9990  -30.6970   21.4640 C   0  0  0  0  0  2  0  0  0  0  0  0
  -26.0670  -29.2940   20.8040 C   0  0  0  0  0  0  0  0  0  0  0  0
  -27.2110  -28.3850   20.8100 C   0  0  0  0  0  3  0  0  0  0  0  0
  -25.9820  -26.7690   19.5350 C   0  0  0  0  0  3  0  0  0  0  0  0
  -24.8650  -27.6440   19.5210 C   0  0  0  0  0  3  0  0  0  0  0  0
  -23.6660  -29.8020   20.2240 C   0  0  0  0  0  2  0  0  0  0  0  0
  -24.7080  -31.0410   22.1590 N   0  0  0  0  0  0  0  0  0  0  0  0
  -23.5380  -32.1580   23.7700 O   0  0  0  0  0  0  0  0  0  0  0  0
  -22.7390  -29.4800   22.5620 C   0  0  0  0  0  0  0  0  0  0  0  0
  -21.4120  -29.3080   22.4240 N   0  0  0  0  0  0  0  0  0  0  0  0
  -23.4000  -28.8600   23.4000 O   0  0  0  0  0  0  0  0  0  0  0  0
  -20.9320  -29.8590   21.7250 H   0  0  0  0  0  0  0  0  0  0  0  0
  -18.0350  -28.0630   22.8760 C   0  0  0  0  0  0  0  0  0  0  0  0
  -20.5850  -28.3690   23.1890 C   0  0  0  0  0  3  0  0  0  0  0  0
  -20.7180  -26.9310   22.6340 C   0  0  0  0  0  2  0  0  0  0  0  0
  -19.6410  -26.5820   21.6010 C   0  0  0  0  0  2  0  0  0  0  0  0
  -18.2450  -26.7110   22.2160 C   0  0  0  0  0  2  0  0  0  0  0  0
  -19.1340  -28.8490   23.3190 C   0  0  0  0  0  0  0  0  0  0  0  0
  -18.8820  -30.1110   23.8990 C   0  0  0  0  0  3  0  0  0  0  0  0
  -17.5650  -30.5900   24.0390 C   0  0  0  0  0  3  0  0  0  0  0  0
  -16.4820  -29.8030   23.6100 C   0  0  0  0  0  3  0  0  0  0  0  0
  -16.7170  -28.5430   23.0350 C   0  0  0  0  0  3  0  0  0  0  0  0
  -25.8990  -32.5050   23.8870 C   0  0  0  0  0  3  0  0  0  0  0  0
  -26.4010  -31.7340   25.1710 C   0  0  1  0  0  0  0  0  0  0  0  0
  -25.2970  -31.5010   26.2300 C   0  0  0  0  0  1  0  0  0  0  0  0
  -26.9840  -30.3540   24.7940 C   0  0  0  0  0  1  0  0  0  0  0  0
  -27.5470  -32.5260   25.8430 C   0  0  0  0  0  1  0  0  0  0  0  0
  -25.5830  -33.9030   24.2280 N   0  0  0  0  0  0  0  0  0  0  0  0
  -25.9120  -34.9680   23.4850 C   0  0  0  0  0  0  0  0  0  0  0  0
  -26.5780  -34.8770   22.4500 O   0  0  0  0  0  0  0  0  0  0  0  0
  -24.9900  -34.0470   25.0310 H   0  0  0  0  0  0  0  0  0  0  0  0
  -24.1800  -36.7690   23.1700 C   0  0  0  0  0  1  0  0  0  0  0  0
  -25.4300  -36.3530   23.9620 C   0  0  0  0  0  3  0  0  0  0  0  0
  -27.5720  -37.2370   24.7790 C   0  0  0  0  0  1  0  0  0  0  0  0
  -26.4610  -37.4090   23.8480 N   0  0  0  0  0  0  0  0  0  0  0  0
  -26.0550  -38.3270   24.0040 H   0  0  0  0  0  0  0  0  0  0  0  0
  2  4  1  0
  2  1  2  0
  4  3  1  0
  5  6  1  0
  6 15  2  0
  6  4  1  0
  7 15  1  0
  8 13  1  0
  9 10  1  0
  9  8  1  0
 11 10  1  0
 11 20  1  0
 11 12  1  0
 13  7  1  0
 13 12  1  0
 14  7  2  0
 15 16  1  0
 17 18  2  0
 18 37  1  0
 19 18  1  0
 19 22  1  0
 20 21  1  0
 20 17  1  0
 21 19  2  0
 22 23  1  0
 23 24  2  0
 25 28  1  0
 25 24  1  0
 26 25  2  0
 27 26  1  0
 27 22  2  0
 28 29  1  0
 29 30  1  0
 30 31  2  0
 32 31  1  0
 32 36  1  0
 33 32  2  0
 34 29  2  0
 34 33  1  0
 35 34  1  0
 37 38  1  0
 38 41  1  0
 38 40  1  0
 39 37  2  0
 42 43  1  0
 42 17  1  0
 44 42  1  0
 45 46  1  0
 45  1  1  0
 47 58  2  0
 48 46  1  0
 48 53  1  0
 49 57  1  0
 49 59  1  0
 50 56  1  0
 50 52  1  0
 51 57  1  0
 52 53  2  0
 52 51  1  0
 54 48  2  0
 55 54  1  0
 55 50  2  0
 56 49  1  0
 57 47  1  0
 59 61  2  0
 60 59  1  0
 62 60  1  0
 63 72  2  0
 63 68  1  0
 64 60  1  0
 64 68  1  0
 65 64  1  0
 66 67  1  0
 66 65  1  0
 67 63  1  0
 68 69  2  0
 69 70  1  0
 71 70  2  0
 72 71  1  0
 73 47  1  0
 73 78  1  0
 73 74  1  0
 74 77  1  1
 74 75  1  0
 76 74  1  0
 78 81  1  0
 79 83  1  0
 79 78  1  0
 80 79  2  0
 83 82  1  0
 85 83  1  0
 85 86  1  0
 85 84  1  0
M  ISO  4   7 100  15 100  45 101  46 101
M  END
>  <TORSDO>  (4) 
F 20

>  <SCORE>  (4) 
-15.242

>  <name>  (4) 
3

>  <ligand_id>  (4) 
3

>  <original_smiles>  (4) 
[H]c1c([H])c([H])c2c(c1[H])C([H])([H])C([H])([H])C([H])([H])C2([H])N([H])C(=O)C1([H])N(C(=O)C([H])(N([H])C(=O)C([H])(N([H])C([H])([H])[H])C([H])([H])[H])C(C([H])([H])[H])(C([H])([H])[H])C([H])([H])[H])C([H])([H])c2c([H])c(OC([H])([H])C([H])([H])C([H])([H])C([H])(C([H])([H])[H])C([H])(N([H])C(=O)N3C([H])([H])C([H])([H])C([H])([H])C([H])(n4nc(-c5c([H])c([H])c(Oc6c([H])c([H])c(F)c([H])c6F)c([H])c5[H])c(C(=O)N([H])[H])c4N([H])[H])C3([H])[H])C([H])([H])[H])c([H])c([H])c2C1([H])[H]

>  <smiles>  (4) 
[H]c1c([H])c([H])c2c(c1[H])C([H])([H])C([H])([H])C([H])([H])C2([H])N([H])C(=O)C1([H])N(C(=O)C([H])(N([H])C(=O)C([H])(N([H])C([H])([H])[H])C([H])([H])[H])C(C([H])([H])[H])(C([H])([H])[H])C([H])([H])[H])C([H])([H])c2c([H])c(OC([H])([H])C([H])([H])C([H])([H])C([H])(C([H])([H])[H])C([H])(N([H])C(=O)N3C([H])([H])C([H])([H])C([H])([H])C([H])(n4nc(-c5c([H])c([H])c(Oc6c([H])c([H])c(F)c([H])c6F)c([H])c5[H])c(C(=O)N([H])[H])c4N([H])[H])C3([H])[H])C([H])([H])[H])c([H])c([H])c2C1([H])[H]

$$$$
4:0:0
     RDKit          3D

 88 95  0  0  1  0  0  0  0  0999 V2000
  -29.3690  -20.3030   20.5910 C   0  0  0  0  0  3  0  0  0  0  0  0
  -30.4600  -15.7400   19.9890 C   0  0  0  0  0  0  0  0  0  0  0  0
  -30.4540  -13.1920   19.1770 C   0  0  0  0  0  2  0  0  0  0  0  0
  -29.5250  -12.8490   17.9760 C   0  0  0  0  0  2  0  0  0  0  0  0
  -28.1150  -12.4980   18.4700 C   0  0  0  0  0  2  0  0  0  0  0  0
  -27.6560  -13.4810   19.5730 C   0  0  0  0  0  3  0  0  0  0  0  0
  -28.7270  -13.7760   20.6620 C   0  0  0  0  0  2  0  0  0  0  0  0
  -29.9060  -14.3780   19.9840 N   0  0  0  0  0  0  0  0  0  0  0  0
  -31.6530  -15.6450   19.6460 O   0  0  0  0  0  0  0  0  0  0  0  0
  -30.0000  -18.6440   19.9620 C   0  0  0  0  0  0  0  0  0  0  0  0
  -29.7850  -17.1240   20.2500 N   0  0  0  0  0  0  0  0  0  0  0  0
  -30.8500  -18.8430   19.0920 O   0  0  0  0  0  0  0  0  0  0  0  0
  -28.9440  -16.9850   20.7910 H   0  0  0  0  0  0  0  0  0  0  0  0
  -25.3210  -14.0160   20.4180 C   0  0  0  0  0  0  0  0  0  0  0  0
  -24.2720  -13.2410   20.8160 C   0  0  0  0  0  0  0  0  0  0  0  0
  -24.7280  -11.8870   20.7560 C   0  0  0  0  0  0  0  0  0  0  0  0
  -26.3520  -13.1420   20.1310 N   0  0  0  0  0  0  0  0  0  0  0  0
  -26.0110  -11.8520   20.3990 N   0  0  0  0  0  0  0  0  0  0  0  0
  -23.9980  -10.6300   20.9680 C   0  0  0  0  0  0  0  0  0  0  0  0
  -24.4410   -9.6590   21.8920 C   0  0  0  0  0  3  0  0  0  0  0  0
  -23.7050   -8.4710   22.0950 C   0  0  0  0  0  3  0  0  0  0  0  0
  -22.5110   -8.2420   21.3700 C   0  0  0  0  0  0  0  0  0  0  0  0
  -22.0860   -9.2010   20.4310 C   0  0  0  0  0  3  0  0  0  0  0  0
  -22.8230  -10.3810   20.2290 C   0  0  0  0  0  3  0  0  0  0  0  0
  -21.7510   -7.1000   21.4780 O   0  0  0  0  0  0  0  0  0  0  0  0
  -21.7220   -6.3610   22.6300 C   0  0  0  0  0  0  0  0  0  0  0  0
  -21.3040   -6.9110   23.8600 C   0  0  0  0  0  3  0  0  0  0  0  0
  -21.2240   -6.0940   25.0060 C   0  0  0  0  0  3  0  0  0  0  0  0
  -21.5540   -4.7310   24.9230 C   0  0  0  0  0  0  0  0  0  0  0  0
  -21.9630   -4.1760   23.6980 C   0  0  0  0  0  3  0  0  0  0  0  0
  -22.0450   -4.9870   22.5530 C   0  0  0  0  0  0  0  0  0  0  0  0
  -22.4200   -4.4450   21.3710 F   0  0  0  0  0  0  0  0  0  0  0  0
  -21.4690   -3.9440   26.0250 F   0  0  0  0  0  0  0  0  0  0  0  0
  -22.8880  -13.7260   21.1370 C   0  0  0  0  0  0  0  0  0  0  0  0
  -22.1810  -13.0320   22.0190 N   0  0  0  0  0  0  0  0  0  0  0  0
  -22.4450  -14.7610   20.6400 O   0  0  0  0  0  0  0  0  0  0  0  0
  -22.5500  -12.1960   22.4490 H   0  0  0  0  0  0  0  0  0  0  0  0
  -21.2540  -13.3470   22.2740 H   0  0  0  0  0  0  0  0  0  0  0  0
  -25.4780  -15.3860   20.2400 N   0  0  0  0  0  0  0  0  0  0  0  0
  -24.7130  -16.0360   20.3800 H   0  0  0  0  0  0  0  0  0  0  0  0
  -26.3070  -15.8330   19.8700 H   0  0  0  0  0  0  0  0  0  0  0  0
  -29.8120  -21.5850   22.8710 C   0  0  0  0  0  1  0  0  0  0  0  0
  -30.2740  -20.4980   21.8760 C   0  0  0  0  0  3  0  0  0  0  0  0
  -32.5040  -21.8980   21.3850 C   0  0  0  0  0  1  0  0  0  0  0  0
  -31.8260  -20.5360   21.6340 C   0  0  0  0  0  2  0  0  0  0  0  0
  -29.0680  -22.1160   19.9200 C   0  0  0  0  0  2  0  0  0  0  0  0
  -28.2380  -23.8290   20.3670 C   0  0  0  0  0  2  0  0  0  0  0  0
  -28.2940  -25.5780   20.0980 O   0  0  0  0  0  0  0  0  0  0  0  0
  -24.6360  -31.7730   23.1050 C   0  0  0  0  0  0  0  0  0  0  0  0
  -27.2620  -26.7480   20.1070 C   0  0  0  0  0  0  0  0  0  0  0  0
  -23.4650  -30.3630   21.4690 C   0  0  0  0  0  3  0  0  0  0  0  0
  -24.9390  -28.7370   20.0600 C   0  0  0  0  0  0  0  0  0  0  0  0
  -26.0430  -30.5510   21.3360 C   0  0  0  0  0  2  0  0  0  0  0  0
  -26.1320  -29.1180   20.6860 C   0  0  0  0  0  0  0  0  0  0  0  0
  -27.2770  -28.1580   20.6630 C   0  0  0  0  0  3  0  0  0  0  0  0
  -26.0210  -26.5750   19.4370 C   0  0  0  0  0  3  0  0  0  0  0  0
  -24.9230  -27.4930   19.4120 C   0  0  0  0  0  3  0  0  0  0  0  0
  -23.7170  -29.6700   20.1020 C   0  0  0  0  0  2  0  0  0  0  0  0
  -24.7400  -30.9300   22.0230 N   0  0  0  0  0  0  0  0  0  0  0  0
  -23.5410  -32.0480   23.6240 O   0  0  0  0  0  0  0  0  0  0  0  0
  -22.7670  -29.3690   22.4400 C   0  0  0  0  0  0  0  0  0  0  0  0
  -21.4410  -29.1700   22.3060 N   0  0  0  0  0  0  0  0  0  0  0  0
  -23.4330  -28.7690   23.2870 O   0  0  0  0  0  0  0  0  0  0  0  0
  -20.9450  -29.7190   21.6160 H   0  0  0  0  0  0  0  0  0  0  0  0
  -18.0960  -27.8170   22.7690 C   0  0  0  0  0  0  0  0  0  0  0  0
  -20.6360  -28.2150   23.0830 C   0  0  0  0  0  3  0  0  0  0  0  0
  -20.8130  -26.7750   22.5440 C   0  0  0  0  0  2  0  0  0  0  0  0
  -19.7520  -26.3770   21.5130 C   0  0  0  0  0  2  0  0  0  0  0  0
  -18.3510  -26.4660   22.1220 C   0  0  0  0  0  2  0  0  0  0  0  0
  -19.1670  -28.6440   23.2060 C   0  0  0  0  0  0  0  0  0  0  0  0
  -18.8670  -29.9030   23.7730 C   0  0  0  0  0  3  0  0  0  0  0  0
  -17.5330  -30.3340   23.9040 C   0  0  0  0  0  3  0  0  0  0  0  0
  -16.4800  -29.5060   23.4810 C   0  0  0  0  0  3  0  0  0  0  0  0
  -16.7600  -28.2500   22.9180 C   0  0  0  0  0  3  0  0  0  0  0  0
  -25.8910  -32.4450   23.7460 C   0  0  0  0  0  3  0  0  0  0  0  0
  -26.4030  -31.6930   25.0360 C   0  0  1  0  0  0  0  0  0  0  0  0
  -25.3120  -31.4600   26.1100 C   0  0  0  0  0  1  0  0  0  0  0  0
  -26.9960  -30.3140   24.6720 C   0  0  0  0  0  1  0  0  0  0  0  0
  -27.5490  -32.4980   25.6910 C   0  0  0  0  0  1  0  0  0  0  0  0
  -25.5470  -33.8390   24.0880 N   0  0  0  0  0  0  0  0  0  0  0  0
  -25.8870  -34.9170   23.3670 C   0  0  0  0  0  0  0  0  0  0  0  0
  -26.5790  -34.8350   22.3480 O   0  0  0  0  0  0  0  0  0  0  0  0
  -24.9270  -33.9730   24.8750 H   0  0  0  0  0  0  0  0  0  0  0  0
  -24.1680  -36.7240   23.0120 C   0  0  0  0  0  1  0  0  0  0  0  0
  -25.3880  -36.2990   23.8460 C   0  0  0  0  0  3  0  0  0  0  0  0
  -27.4920  -37.1790   24.7550 C   0  0  0  0  0  1  0  0  0  0  0  0
  -26.4210  -37.3570   23.7800 N   0  0  0  0  0  0  0  0  0  0  0  0
  -26.0070  -38.2760   23.9230 H   0  0  0  0  0  0  0  0  0  0  0  0
  1 46  1  0
  1 43  1  0
  2 11  1  0
  3  8  1  0
  4  5  1  0
  4  3  1  0
  6  5  1  0
  6 17  1  0
  6  7  1  0
  8  2  1  0
  8  7  1  0
  9  2  2  0
 10 11  1  0
 10  1  1  0
 11 13  1  0
 12 10  2  0
 14 15  2  0
 15 34  1  0
 16 15  1  0
 16 19  1  0
 17 18  1  0
 17 14  1  0
 18 16  2  0
 19 20  1  0
 20 21  2  0
 22 25  1  0
 22 21  1  0
 23 22  2  0
 24 23  1  0
 24 19  2  0
 25 26  1  0
 26 27  1  0
 27 28  2  0
 29 28  1  0
 29 33  1  0
 30 29  2  0
 31 26  2  0
 31 30  1  0
 32 31  1  0
 34 35  1  0
 35 38  1  0
 35 37  1  0
 36 34  2  0
 39 40  1  0
 39 14  1  0
 41 39  1  0
 43 42  1  0
 44 45  1  0
 45 43  1  0
 46 47  1  0
 48 50  1  0
 48 47  1  0
 49 60  2  0
 50 55  1  0
 51 59  1  0
 51 61  1  0
 52 58  1  0
 52 54  1  0
 53 59  1  0
 54 53  1  0
 55 54  2  0
 56 50  2  0
 57 56  1  0
 57 52  2  0
 58 51  1  0
 59 49  1  0
 61 63  2  0
 62 61  1  0
 64 62  1  0
 65 74  2  0
 65 70  1  0
 66 62  1  0
 66 70  1  0
 67 66  1  0
 68 69  1  0
 68 67  1  0
 69 65  1  0
 70 71  2  0
 71 72  1  0
 73 72  2  0
 74 73  1  0
 75 49  1  0
 75 80  1  0
 75 76  1  0
 76 79  1  1
 76 77  1  0
 78 76  1  0
 80 83  1  0
 81 85  1  0
 81 80  1  0
 82 81  2  0
 85 84  1  0
 87 85  1  0
 87 88  1  0
 87 86  1  0
M  ISO  4   2 100  11 100  47 101  48 101
M  END
>  <TORSDO>  (5) 
F 20

>  <SCORE>  (5) 
-15.567

>  <name>  (5) 
4

>  <ligand_id>  (5) 
4

>  <original_smiles>  (5) 
[H]c1c([H])c([H])c2c(c1[H])C([H])([H])C([H])([H])C([H])([H])C2([H])N([H])C(=O)C1([H])N(C(=O)C([H])(N([H])C(=O)C([H])(N([H])C([H])([H])[H])C([H])([H])[H])C(C([H])([H])[H])(C([H])([H])[H])C([H])([H])[H])C([H])([H])c2c([H])c(OC([H])([H])C([H])([H])C([H])(C(=O)N([H])C(=O)N3C([H])([H])C([H])([H])C([H])([H])C([H])(n4nc(-c5c([H])c([H])c(Oc6c([H])c([H])c(F)c([H])c6F)c([H])c5[H])c(C(=O)N([H])[H])c4N([H])[H])C3([H])[H])C([H])(C([H])([H])[H])C([H])([H])C([H])([H])[H])c([H])c([H])c2C1([H])[H]

>  <smiles>  (5) 
[H]c1c([H])c([H])c2c(c1[H])C([H])([H])C([H])([H])C([H])([H])C2([H])N([H])C(=O)C1([H])N(C(=O)C([H])(N([H])C(=O)C([H])(N([H])C([H])([H])[H])C([H])([H])[H])C(C([H])([H])[H])(C([H])([H])[H])C([H])([H])[H])C([H])([H])c2c([H])c(OC([H])([H])C([H])([H])C([H])(C(=O)N([H])C(=O)N3C([H])([H])C([H])([H])C([H])([H])C([H])(n4nc(-c5c([H])c([H])c(Oc6c([H])c([H])c(F)c([H])c6F)c([H])c5[H])c(C(=O)N([H])[H])c4N([H])[H])C3([H])[H])C([H])(C([H])([H])[H])C([H])([H])C([H])([H])[H])c([H])c([H])c2C1([H])[H]

$$$$
5:0:0
     RDKit          3D

 87 94  0  0  1  0  0  0  0  0999 V2000
  -28.9690  -22.4550   20.2380 C   0  0  0  0  0  3  0  0  0  0  0  0
  -29.8360  -22.5790   18.9840 C   0  0  0  0  0  0  0  0  0  0  0  0
  -31.1560  -22.6060   19.1290 N   0  0  0  0  0  0  0  0  0  0  0  0
  -29.3190  -22.6370   17.8700 O   0  0  0  0  0  0  0  0  0  0  0  0
  -31.5760  -22.5440   20.0460 H   0  0  0  0  0  0  0  0  0  0  0  0
  -31.7560  -22.6810   18.3190 H   0  0  0  0  0  0  0  0  0  0  0  0
  -28.6950  -20.5930   20.3800 C   0  0  0  0  0  2  0  0  0  0  0  0
  -29.6840  -18.9900   20.2430 C   0  0  0  0  0  3  0  0  0  0  0  0
  -29.4020  -17.1360   20.4170 C   0  0  0  0  0  3  0  0  0  0  0  0
  -30.2780  -15.5490   20.1850 C   0  0  0  0  0  0  0  0  0  0  0  0
  -30.3480  -13.0570   19.3030 C   0  0  0  0  0  2  0  0  0  0  0  0
  -29.4040  -12.7990   18.0950 C   0  0  0  0  0  2  0  0  0  0  0  0
  -27.9790  -12.4660   18.5670 C   0  0  0  0  0  2  0  0  0  0  0  0
  -27.5270  -13.4160   19.7010 C   0  0  0  0  0  3  0  0  0  0  0  0
  -28.5950  -13.6080   20.7980 C   0  0  0  0  0  2  0  0  0  0  0  0
  -29.7920  -14.1880   20.1550 N   0  0  0  0  0  0  0  0  0  0  0  0
  -31.4900  -15.5490   19.9050 O   0  0  0  0  0  0  0  0  0  0  0  0
  -25.1810  -13.9290   20.5450 C   0  0  0  0  0  0  0  0  0  0  0  0
  -24.1360  -13.1370   20.9270 C   0  0  0  0  0  0  0  0  0  0  0  0
  -24.6120  -11.7910   20.8530 C   0  0  0  0  0  0  0  0  0  0  0  0
  -26.2220  -13.0690   20.2470 N   0  0  0  0  0  0  0  0  0  0  0  0
  -25.8950  -11.7730   20.5010 N   0  0  0  0  0  0  0  0  0  0  0  0
  -23.8970  -10.5190   21.0380 C   0  0  0  0  0  0  0  0  0  0  0  0
  -24.3390   -9.5490   21.9630 C   0  0  0  0  0  3  0  0  0  0  0  0
  -23.6210   -8.3460   22.1370 C   0  0  0  0  0  3  0  0  0  0  0  0
  -22.4470   -8.1050   21.3860 C   0  0  0  0  0  0  0  0  0  0  0  0
  -22.0230   -9.0640   20.4500 C   0  0  0  0  0  3  0  0  0  0  0  0
  -22.7420  -10.2580   20.2740 C   0  0  0  0  0  3  0  0  0  0  0  0
  -21.7000   -6.9540   21.4700 O   0  0  0  0  0  0  0  0  0  0  0  0
  -21.6360   -6.2190   22.6260 C   0  0  0  0  0  0  0  0  0  0  0  0
  -21.1400   -6.7670   23.8290 C   0  0  0  0  0  3  0  0  0  0  0  0
  -21.0270   -5.9570   24.9780 C   0  0  0  0  0  3  0  0  0  0  0  0
  -21.3980   -4.6000   24.9220 C   0  0  0  0  0  0  0  0  0  0  0  0
  -21.8860   -4.0520   23.7230 C   0  0  0  0  0  3  0  0  0  0  0  0
  -22.0010   -4.8580   22.5770 C   0  0  0  0  0  0  0  0  0  0  0  0
  -22.4520   -4.3200   21.4180 F   0  0  0  0  0  0  0  0  0  0  0  0
  -21.2820   -3.8190   26.0210 F   0  0  0  0  0  0  0  0  0  0  0  0
  -22.7450  -13.5980   21.2430 C   0  0  0  0  0  0  0  0  0  0  0  0
  -22.0450  -12.8830   22.1170 N   0  0  0  0  0  0  0  0  0  0  0  0
  -22.2880  -14.6310   20.7530 O   0  0  0  0  0  0  0  0  0  0  0  0
  -22.4280  -12.0500   22.5380 H   0  0  0  0  0  0  0  0  0  0  0  0
  -21.1120  -13.1760   22.3710 H   0  0  0  0  0  0  0  0  0  0  0  0
  -25.3300  -15.3050   20.3950 N   0  0  0  0  0  0  0  0  0  0  0  0
  -24.5650  -15.9520   20.5520 H   0  0  0  0  0  0  0  0  0  0  0  0
  -26.1710  -15.7590   20.0600 H   0  0  0  0  0  0  0  0  0  0  0  0
  -27.9370  -24.0350   20.2440 C   0  0  0  0  0  2  0  0  0  0  0  0
  -28.1430  -25.7380   20.2770 O   0  0  0  0  0  0  0  0  0  0  0  0
  -24.6190  -31.8920   23.2070 C   0  0  0  0  0  0  0  0  0  0  0  0
  -27.1420  -26.8870   20.2290 C   0  0  0  0  0  0  0  0  0  0  0  0
  -23.4160  -30.4800   21.5920 C   0  0  0  0  0  3  0  0  0  0  0  0
  -24.8530  -28.8410   20.1780 C   0  0  0  0  0  0  0  0  0  0  0  0
  -25.9870  -30.6590   21.4330 C   0  0  0  0  0  2  0  0  0  0  0  0
  -26.0510  -29.2300   20.7900 C   0  0  0  0  0  0  0  0  0  0  0  0
  -27.1840  -28.2790   20.7820 C   0  0  0  0  0  3  0  0  0  0  0  0
  -25.9080  -26.6770   19.5670 C   0  0  0  0  0  3  0  0  0  0  0  0
  -24.8140  -27.5880   19.5440 C   0  0  0  0  0  3  0  0  0  0  0  0
  -23.6390  -29.7770   20.2240 C   0  0  0  0  0  2  0  0  0  0  0  0
  -24.6970  -31.0400   22.1300 N   0  0  0  0  0  0  0  0  0  0  0  0
  -23.5320  -32.1900   23.7300 O   0  0  0  0  0  0  0  0  0  0  0  0
  -22.7190  -29.5030   22.5750 C   0  0  0  0  0  0  0  0  0  0  0  0
  -21.3880  -29.3330   22.4550 N   0  0  0  0  0  0  0  0  0  0  0  0
  -23.3850  -28.8950   23.4170 O   0  0  0  0  0  0  0  0  0  0  0  0
  -20.9020  -29.8740   21.7530 H   0  0  0  0  0  0  0  0  0  0  0  0
  -18.0140  -28.0960   22.9810 C   0  0  0  0  0  0  0  0  0  0  0  0
  -20.5710  -28.4000   23.2400 C   0  0  0  0  0  3  0  0  0  0  0  0
  -20.6900  -26.9590   22.6900 C   0  0  0  0  0  2  0  0  0  0  0  0
  -19.5930  -26.6060   21.6810 C   0  0  0  0  0  2  0  0  0  0  0  0
  -18.2090  -26.7400   22.3210 C   0  0  0  0  0  2  0  0  0  0  0  0
  -19.1230  -28.8810   23.3970 C   0  0  0  0  0  0  0  0  0  0  0  0
  -18.8830  -30.1450   23.9790 C   0  0  0  0  0  3  0  0  0  0  0  0
  -17.5700  -30.6260   24.1440 C   0  0  0  0  0  3  0  0  0  0  0  0
  -16.4780  -29.8390   23.7400 C   0  0  0  0  0  3  0  0  0  0  0  0
  -16.7000  -28.5770   23.1640 C   0  0  0  0  0  3  0  0  0  0  0  0
  -25.8900  -32.5440   23.8290 C   0  0  0  0  0  3  0  0  0  0  0  0
  -25.5710  -33.9470   24.1570 N   0  0  0  0  0  0  0  0  0  0  0  0
  -25.8750  -35.0060   23.3950 C   0  0  0  0  0  0  0  0  0  0  0  0
  -26.5140  -34.9050   22.3450 O   0  0  0  0  0  0  0  0  0  0  0  0
  -24.9950  -34.0970   24.9730 H   0  0  0  0  0  0  0  0  0  0  0  0
  -24.1220  -36.7930   23.1100 C   0  0  0  0  0  1  0  0  0  0  0  0
  -25.3990  -36.3960   23.8680 C   0  0  0  0  0  3  0  0  0  0  0  0
  -27.5560  -37.3070   24.6110 C   0  0  0  0  0  1  0  0  0  0  0  0
  -26.4180  -37.4560   23.7080 N   0  0  0  0  0  0  0  0  0  0  0  0
  -26.0090  -38.3750   23.8620 H   0  0  0  0  0  0  0  0  0  0  0  0
  -26.4020  -31.7930   25.1210 C   0  0  1  0  0  0  0  0  0  0  0  0
  -25.3060  -31.5720   26.1900 C   0  0  0  0  0  1  0  0  0  0  0  0
  -26.9860  -30.4090   24.7610 C   0  0  0  0  0  1  0  0  0  0  0  0
  -27.5510  -32.5960   25.7730 C   0  0  0  0  0  1  0  0  0  0  0  0
  1 46  1  0
  1  7  1  0
  2  3  1  0
  2  1  1  0
  3  5  1  0
  4  2  2  0
  6  3  1  0
  8  7  1  0
  8  9  2  0
 10  9  1  0
 11 16  1  0
 12 13  1  0
 12 11  1  0
 14 13  1  0
 14 21  1  0
 14 15  1  0
 16 10  1  0
 16 15  1  0
 17 10  2  0
 18 19  2  0
 19 38  1  0
 20 19  1  0
 20 23  1  0
 21 22  1  0
 21 18  1  0
 22 20  2  0
 23 24  1  0
 24 25  2  0
 26 29  1  0
 26 25  1  0
 27 26  2  0
 28 27  1  0
 28 23  2  0
 29 30  1  0
 30 31  1  0
 31 32  2  0
 33 32  1  0
 33 37  1  0
 34 33  2  0
 35 30  2  0
 35 34  1  0
 36 35  1  0
 38 39  1  0
 39 42  1  0
 39 41  1  0
 40 38  2  0
 43 18  1  0
 43 44  1  0
 45 43  1  0
 46 47  1  0
 48 59  2  0
 49 47  1  0
 49 54  1  0
 50 58  1  0
 50 60  1  0
 51 57  1  0
 51 53  1  0
 52 58  1  0
 53 52  1  0
 54 53  2  0
 55 49  2  0
 56 55  1  0
 56 51  2  0
 57 50  1  0
 58 48  1  0
 60 62  2  0
 61 60  1  0
 63 61  1  0
 64 73  2  0
 64 69  1  0
 65 61  1  0
 65 69  1  0
 66 65  1  0
 67 68  1  0
 67 66  1  0
 68 64  1  0
 69 70  2  0
 70 71  1  0
 72 71  2  0
 73 72  1  0
 74 48  1  0
 74 75  1  0
 74 84  1  0
 75 78  1  0
 76 80  1  0
 76 75  1  0
 77 76  2  0
 80 79  1  0
 82 83  1  0
 82 80  1  0
 82 81  1  0
 84 87  1  1
 84 85  1  0
 86 84  1  0
M  ISO  4   9 100  10 100  46 101  47 101
M  END
>  <TORSDO>  (6) 
F 21

>  <SCORE>  (6) 
-16.173

>  <name>  (6) 
5

>  <ligand_id>  (6) 
5

>  <original_smiles>  (6) 
[H]c1c([H])c([H])c2c(c1[H])C([H])([H])C([H])([H])C([H])([H])C2([H])N([H])C(=O)C1([H])N(C(=O)C([H])(N([H])C(=O)C([H])(N([H])C([H])([H])[H])C([H])([H])[H])C(C([H])([H])[H])(C([H])([H])[H])C([H])([H])[H])C([H])([H])c2c([H])c(OC([H])([H])C([H])(C(=O)N([H])[H])C([H])([H])C([H])([H])C([H])([H])C(=O)N3C([H])([H])C([H])([H])C([H])([H])C([H])(n4nc(-c5c([H])c([H])c(Oc6c([H])c([H])c(F)c([H])c6F)c([H])c5[H])c(C(=O)N([H])[H])c4N([H])[H])C3([H])[H])c([H])c([H])c2C1([H])[H]

>  <smiles>  (6) 
[H]c1c([H])c([H])c2c(c1[H])C([H])([H])C([H])([H])C([H])([H])C2([H])N([H])C(=O)C1([H])N(C(=O)C([H])(N([H])C(=O)C([H])(N([H])C([H])([H])[H])C([H])([H])[H])C(C([H])([H])[H])(C([H])([H])[H])C([H])([H])[H])C([H])([H])c2c([H])c(OC([H])([H])C([H])(C(=O)N([H])[H])C([H])([H])C([H])([H])C([H])([H])C(=O)N3C([H])([H])C([H])([H])C([H])([H])C([H])(n4nc(-c5c([H])c([H])c(Oc6c([H])c([H])c(F)c([H])c6F)c([H])c5[H])c(C(=O)N([H])[H])c4N([H])[H])C3([H])[H])c([H])c([H])c2C1([H])[H]

$$$$
6:0:0
     RDKit          3D

 85 92  0  0  1  0  0  0  0  0999 V2000
  -28.9440  -22.2480   20.2870 C   0  0  0  0  0  3  0  0  0  0  0  0
  -27.7000  -20.0980   19.1200 C   0  0  0  0  0  1  0  0  0  0  0  0
  -28.6980  -20.3380   20.2590 C   0  0  0  0  0  3  0  0  0  0  0  0
  -30.8250  -19.0030   19.1860 C   0  0  0  0  0  1  0  0  0  0  0  0
  -29.7730  -18.7470   20.2730 C   0  0  0  0  0  0  0  0  0  0  0  0
  -30.2940  -15.6440   20.1780 C   0  0  0  0  0  0  0  0  0  0  0  0
  -30.3590  -13.1300   19.3140 C   0  0  0  0  0  2  0  0  0  0  0  0
  -29.4350  -12.7680   18.1180 C   0  0  0  0  0  2  0  0  0  0  0  0
  -28.0210  -12.4160   18.6020 C   0  0  0  0  0  2  0  0  0  0  0  0
  -27.5420  -13.3940   19.7000 C   0  0  0  0  0  3  0  0  0  0  0  0
  -28.6010  -13.6740   20.7900 C   0  0  0  0  0  2  0  0  0  0  0  0
  -29.7600  -14.2910   20.1090 N   0  0  0  0  0  0  0  0  0  0  0  0
  -31.5220  -15.5900   19.9800 O   0  0  0  0  0  0  0  0  0  0  0  0
  -29.5430  -16.9960   20.2750 N   0  0  0  0  0  4  0  0  0  0  0  0
  -28.5590  -16.7900   20.3830 H   0  0  0  0  0  0  0  0  0  0  0  0
  -25.1940  -13.8940   20.5330 C   0  0  0  0  0  0  0  0  0  0  0  0
  -24.1530  -13.0970   20.9150 C   0  0  0  0  0  0  0  0  0  0  0  0
  -24.6360  -11.7540   20.8530 C   0  0  0  0  0  0  0  0  0  0  0  0
  -26.2400  -13.0380   20.2490 N   0  0  0  0  0  0  0  0  0  0  0  0
  -25.9210  -11.7420   20.5100 N   0  0  0  0  0  0  0  0  0  0  0  0
  -23.9270  -10.4810   21.0400 C   0  0  0  0  0  0  0  0  0  0  0  0
  -24.3770   -9.5120   21.9630 C   0  0  0  0  0  3  0  0  0  0  0  0
  -23.6620   -8.3070   22.1410 C   0  0  0  0  0  3  0  0  0  0  0  0
  -22.4840   -8.0630   21.3970 C   0  0  0  0  0  0  0  0  0  0  0  0
  -22.0530   -9.0210   20.4630 C   0  0  0  0  0  3  0  0  0  0  0  0
  -22.7680  -10.2170   20.2830 C   0  0  0  0  0  3  0  0  0  0  0  0
  -21.7400   -6.9110   21.4860 O   0  0  0  0  0  0  0  0  0  0  0  0
  -21.6930   -6.1710   22.6410 C   0  0  0  0  0  0  0  0  0  0  0  0
  -21.2330   -6.7190   23.8580 C   0  0  0  0  0  3  0  0  0  0  0  0
  -21.1350   -5.9050   25.0040 C   0  0  0  0  0  3  0  0  0  0  0  0
  -21.4870   -4.5440   24.9330 C   0  0  0  0  0  0  0  0  0  0  0  0
  -21.9390   -3.9950   23.7210 C   0  0  0  0  0  3  0  0  0  0  0  0
  -22.0380   -4.8070   22.5770 C   0  0  0  0  0  0  0  0  0  0  0  0
  -22.4550   -4.2670   21.4060 F   0  0  0  0  0  0  0  0  0  0  0  0
  -21.3850   -3.7590   26.0330 F   0  0  0  0  0  0  0  0  0  0  0  0
  -22.7560  -13.5550   21.2180 C   0  0  0  0  0  0  0  0  0  0  0  0
  -22.0560  -12.8460   22.0960 N   0  0  0  0  0  0  0  0  0  0  0  0
  -22.2960  -14.5780   20.7130 O   0  0  0  0  0  0  0  0  0  0  0  0
  -22.4430  -12.0190   22.5270 H   0  0  0  0  0  0  0  0  0  0  0  0
  -21.1200  -13.1360   22.3420 H   0  0  0  0  0  0  0  0  0  0  0  0
  -25.3320  -15.2700   20.3700 N   0  0  0  0  0  0  0  0  0  0  0  0
  -24.5560  -15.9070   20.5060 H   0  0  0  0  0  0  0  0  0  0  0  0
  -26.1560  -15.7210   19.9930 H   0  0  0  0  0  0  0  0  0  0  0  0
  -27.9460  -23.8940   20.2240 C   0  0  0  0  0  3  0  0  0  0  0  0
  -28.1490  -25.6270   20.3080 O   0  0  0  0  0  0  0  0  0  0  0  0
  -24.6620  -31.8870   23.2240 C   0  0  0  0  0  0  0  0  0  0  0  0
  -27.1680  -26.8180   20.2540 C   0  0  0  0  0  0  0  0  0  0  0  0
  -23.4650  -30.4870   21.5950 C   0  0  0  0  0  3  0  0  0  0  0  0
  -24.9030  -28.8320   20.1880 C   0  0  0  0  0  0  0  0  0  0  0  0
  -26.0420  -30.6300   21.4650 C   0  0  0  0  0  2  0  0  0  0  0  0
  -26.1000  -29.1980   20.8160 C   0  0  0  0  0  0  0  0  0  0  0  0
  -27.2190  -28.2180   20.8150 C   0  0  0  0  0  3  0  0  0  0  0  0
  -25.9370  -26.6520   19.5730 C   0  0  0  0  0  3  0  0  0  0  0  0
  -24.8580  -27.5840   19.5430 C   0  0  0  0  0  3  0  0  0  0  0  0
  -23.6980  -29.7840   20.2270 C   0  0  0  0  0  2  0  0  0  0  0  0
  -24.7470  -31.0340   22.1460 N   0  0  0  0  0  0  0  0  0  0  0  0
  -23.5710  -32.1920   23.7360 O   0  0  0  0  0  0  0  0  0  0  0  0
  -22.7490  -29.5140   22.5700 C   0  0  0  0  0  0  0  0  0  0  0  0
  -21.4160  -29.3640   22.4470 N   0  0  0  0  0  0  0  0  0  0  0  0
  -23.4040  -28.8940   23.4120 O   0  0  0  0  0  0  0  0  0  0  0  0
  -20.9380  -29.9140   21.7470 H   0  0  0  0  0  0  0  0  0  0  0  0
  -18.0250  -28.1680   22.9650 C   0  0  0  0  0  0  0  0  0  0  0  0
  -20.5860  -28.4360   23.2250 C   0  0  0  0  0  3  0  0  0  0  0  0
  -20.6840  -26.9980   22.6630 C   0  0  0  0  0  2  0  0  0  0  0  0
  -19.5830  -26.6690   21.6500 C   0  0  0  0  0  2  0  0  0  0  0  0
  -18.2010  -26.8170   22.2930 C   0  0  0  0  0  2  0  0  0  0  0  0
  -19.1430  -28.9350   23.3880 C   0  0  0  0  0  0  0  0  0  0  0  0
  -18.9210  -30.1970   23.9820 C   0  0  0  0  0  3  0  0  0  0  0  0
  -17.6150  -30.6920   24.1530 C   0  0  0  0  0  3  0  0  0  0  0  0
  -16.5120  -29.9230   23.7430 C   0  0  0  0  0  3  0  0  0  0  0  0
  -16.7180  -28.6630   23.1550 C   0  0  0  0  0  3  0  0  0  0  0  0
  -25.9300  -32.5330   23.8590 C   0  0  0  0  0  3  0  0  0  0  0  0
  -26.4320  -31.7700   25.1480 C   0  0  1  0  0  0  0  0  0  0  0  0
  -25.3300  -31.5490   26.2120 C   0  0  0  0  0  1  0  0  0  0  0  0
  -27.0110  -30.3850   24.7840 C   0  0  0  0  0  1  0  0  0  0  0  0
  -27.5830  -32.5640   25.8120 C   0  0  0  0  0  1  0  0  0  0  0  0
  -25.6110  -33.9340   24.1990 N   0  0  0  0  0  0  0  0  0  0  0  0
  -25.9170  -34.9990   23.4470 C   0  0  0  0  0  0  0  0  0  0  0  0
  -26.5550  -34.9080   22.3950 O   0  0  0  0  0  0  0  0  0  0  0  0
  -25.0380  -34.0760   25.0170 H   0  0  0  0  0  0  0  0  0  0  0  0
  -24.1610  -36.7890   23.1890 C   0  0  0  0  0  1  0  0  0  0  0  0
  -25.4440  -36.3860   23.9340 C   0  0  0  0  0  3  0  0  0  0  0  0
  -27.6060  -37.2950   24.6660 C   0  0  0  0  0  1  0  0  0  0  0  0
  -26.4610  -37.4480   23.7730 N   0  0  0  0  0  0  0  0  0  0  0  0
  -26.0550  -38.3650   23.9350 H   0  0  0  0  0  0  0  0  0  0  0  0
  3  2  1  0
  3  5  1  0
  3  1  1  0
  4  5  1  0
  5 14  2  0
  6 14  1  0
  7 12  1  0
  8  9  1  0
  8  7  1  0
 10  9  1  0
 10 19  1  0
 10 11  1  0
 12  6  1  0
 12 11  1  0
 13  6  2  0
 14 15  1  0
 16 17  2  0
 17 36  1  0
 18 17  1  0
 18 21  1  0
 19 20  1  0
 19 16  1  0
 20 18  2  0
 21 22  1  0
 22 23  2  0
 24 27  1  0
 24 23  1  0
 25 24  2  0
 26 25  1  0
 26 21  2  0
 27 28  1  0
 28 29  1  0
 29 30  2  0
 31 30  1  0
 31 35  1  0
 32 31  2  0
 33 28  2  0
 33 32  1  0
 34 33  1  0
 36 37  1  0
 37 40  1  0
 37 39  1  0
 38 36  2  0
 41 42  1  0
 41 16  1  0
 43 41  1  0
 44  1  2  0
 44 45  1  0
 46 57  2  0
 47 45  1  0
 47 52  1  0
 48 56  1  0
 48 58  1  0
 49 55  1  0
 49 51  1  0
 50 56  1  0
 51 50  1  0
 52 51  2  0
 53 47  2  0
 54 53  1  0
 54 49  2  0
 55 48  1  0
 56 46  1  0
 58 60  2  0
 59 58  1  0
 61 59  1  0
 62 71  2  0
 62 67  1  0
 63 59  1  0
 63 67  1  0
 64 63  1  0
 65 66  1  0
 65 64  1  0
 66 62  1  0
 67 68  2  0
 68 69  1  0
 70 69  2  0
 71 70  1  0
 72 46  1  0
 72 77  1  0
 72 73  1  0
 73 76  1  1
 73 74  1  0
 75 73  1  0
 77 80  1  0
 78 82  1  0
 78 77  1  0
 79 78  2  0
 82 81  1  0
 84 82  1  0
 84 85  1  0
 84 83  1  0
M  ISO  4   6 100  14 100  44 101  45 101
M  END
>  <TORSDO>  (7) 
F 19

>  <SCORE>  (7) 
-16.503

>  <name>  (7) 
6

>  <ligand_id>  (7) 
6

>  <original_smiles>  (7) 
[H]c1c([H])c([H])c2c(c1[H])C([H])([H])C([H])([H])C([H])([H])C2([H])N([H])C(=O)C1([H])N(C(=O)C([H])(N([H])C(=O)C([H])(N([H])C([H])([H])[H])C([H])([H])[H])C(C([H])([H])[H])(C([H])([H])[H])C([H])([H])[H])C([H])([H])c2c([H])c(OC([H])([H])C([H])([H])C([H])(C([H])([H])[H])C([H])(N([H])C(=O)N3C([H])([H])C([H])([H])C([H])([H])C([H])(n4nc(-c5c([H])c([H])c(Oc6c([H])c([H])c(F)c([H])c6F)c([H])c5[H])c(C(=O)N([H])[H])c4N([H])[H])C3([H])[H])C([H])([H])[H])c([H])c([H])c2C1([H])[H]

>  <smiles>  (7) 
[H]c1c([H])c([H])c2c(c1[H])C([H])([H])C([H])([H])C([H])([H])C2([H])N([H])C(=O)C1([H])N(C(=O)C([H])(N([H])C(=O)C([H])(N([H])C([H])([H])[H])C([H])([H])[H])C(C([H])([H])[H])(C([H])([H])[H])C([H])([H])[H])C([H])([H])c2c([H])c(OC([H])([H])C([H])([H])C([H])(C([H])([H])[H])C([H])(N([H])C(=O)N3C([H])([H])C([H])([H])C([H])([H])C([H])(n4nc(-c5c([H])c([H])c(Oc6c([H])c([H])c(F)c([H])c6F)c([H])c5[H])c(C(=O)N([H])[H])c4N([H])[H])C3([H])[H])C([H])([H])[H])c([H])c([H])c2C1([H])[H]

$$$$
7:0:0
     RDKit          3D

 89 97  0  0  1  0  0  0  0  0999 V2000
  -28.3090  -21.8740   20.5570 C   0  0  0  0  0  2  0  0  0  0  0  0
  -30.2090  -23.0960   19.7150 C   0  0  0  0  0  2  0  0  0  0  0  0
  -29.2720  -20.7700   19.8640 C   0  0  0  0  0  3  0  0  0  0  0  0
  -28.8900  -23.3900   20.4900 C   0  0  0  0  0  3  0  0  0  0  0  0
  -30.4470  -21.6090   19.5120 N   0  0  0  0  0  4  0  0  0  0  0  0
  -31.1960  -21.3210   20.1220 H   0  0  0  0  0  0  0  0  0  0  0  0
  -30.7420  -21.4140   18.5690 H   0  0  0  0  0  0  0  0  0  0  0  0
  -29.6800  -19.3070   20.5940 C   0  0  0  0  0  0  0  0  0  0  0  0
  -29.8170  -19.2800   21.8200 O   0  0  0  0  0  0  0  0  0  0  0  0
  -29.9740  -17.8750   19.8310 C   0  0  0  0  0  2  0  0  0  0  0  0
  -29.9110  -16.3660   20.5700 C   0  0  0  0  0  2  0  0  0  0  0  0
  -30.6480  -14.9800   20.0530 C   0  0  0  0  0  0  0  0  0  0  0  0
  -30.4760  -12.6560   19.0520 C   0  0  0  0  0  2  0  0  0  0  0  0
  -29.4810  -12.6630   17.8660 C   0  0  0  0  0  2  0  0  0  0  0  0
  -28.0350  -12.4610   18.3590 C   0  0  0  0  0  2  0  0  0  0  0  0
  -27.6980  -13.3530   19.5830 C   0  0  0  0  0  3  0  0  0  0  0  0
  -28.8070  -13.3080   20.6570 C   0  0  0  0  0  2  0  0  0  0  0  0
  -30.0620  -13.7180   20.0140 N   0  0  0  0  0  0  0  0  0  0  0  0
  -31.7970  -15.0720   19.6130 O   0  0  0  0  0  0  0  0  0  0  0  0
  -25.3450  -13.9140   20.4240 C   0  0  0  0  0  0  0  0  0  0  0  0
  -24.2980  -13.1310   20.8280 C   0  0  0  0  0  0  0  0  0  0  0  0
  -24.7650  -11.7820   20.7610 C   0  0  0  0  0  0  0  0  0  0  0  0
  -26.3820  -13.0450   20.1320 N   0  0  0  0  0  0  0  0  0  0  0  0
  -26.0430  -11.7550   20.3980 N   0  0  0  0  0  0  0  0  0  0  0  0
  -24.0500  -10.5150   20.9660 C   0  0  0  0  0  0  0  0  0  0  0  0
  -24.4930   -9.5600   21.9070 C   0  0  0  0  0  3  0  0  0  0  0  0
  -23.7740   -8.3590   22.0990 C   0  0  0  0  0  3  0  0  0  0  0  0
  -22.5980   -8.1070   21.3530 C   0  0  0  0  0  0  0  0  0  0  0  0
  -22.1770   -9.0500   20.4010 C   0  0  0  0  0  3  0  0  0  0  0  0
  -22.8960  -10.2420   20.2050 C   0  0  0  0  0  3  0  0  0  0  0  0
  -21.8520   -6.9580   21.4550 O   0  0  0  0  0  0  0  0  0  0  0  0
  -21.7790   -6.2500   22.6290 C   0  0  0  0  0  0  0  0  0  0  0  0
  -21.2890   -6.8290   23.8200 C   0  0  0  0  0  3  0  0  0  0  0  0
  -21.1650   -6.0450   24.9840 C   0  0  0  0  0  3  0  0  0  0  0  0
  -21.5210   -4.6830   24.9580 C   0  0  0  0  0  0  0  0  0  0  0  0
  -22.0040   -4.1040   23.7710 C   0  0  0  0  0  3  0  0  0  0  0  0
  -22.1280   -4.8850   22.6100 C   0  0  0  0  0  0  0  0  0  0  0  0
  -22.5740   -4.3160   21.4640 F   0  0  0  0  0  0  0  0  0  0  0  0
  -21.3970   -3.9270   26.0740 F   0  0  0  0  0  0  0  0  0  0  0  0
  -22.9120  -13.6000   21.1620 C   0  0  0  0  0  0  0  0  0  0  0  0
  -22.2240  -12.8900   22.0490 N   0  0  0  0  0  0  0  0  0  0  0  0
  -22.4520  -14.6330   20.6760 O   0  0  0  0  0  0  0  0  0  0  0  0
  -22.6070  -12.0510   22.4570 H   0  0  0  0  0  0  0  0  0  0  0  0
  -21.2960  -13.1860   22.3190 H   0  0  0  0  0  0  0  0  0  0  0  0
  -25.4950  -15.2870   20.2530 N   0  0  0  0  0  0  0  0  0  0  0  0
  -24.7270  -15.9340   20.3980 H   0  0  0  0  0  0  0  0  0  0  0  0
  -26.3300  -15.7360   19.9020 H   0  0  0  0  0  0  0  0  0  0  0  0
  -27.9460  -24.7150   20.0710 C   0  0  0  0  0  2  0  0  0  0  0  0
  -28.2200  -26.2300   20.2370 O   0  0  0  0  0  0  0  0  0  0  0  0
  -24.6070  -31.8960   23.1970 C   0  0  0  0  0  0  0  0  0  0  0  0
  -27.1550  -27.1940   20.1600 C   0  0  0  0  0  0  0  0  0  0  0  0
  -23.3850  -30.4810   21.5940 C   0  0  0  0  0  3  0  0  0  0  0  0
  -24.8120  -28.9110   20.1530 C   0  0  0  0  0  0  0  0  0  0  0  0
  -25.9310  -30.7720   21.3690 C   0  0  0  0  0  2  0  0  0  0  0  0
  -26.0000  -29.3760   20.7310 C   0  0  0  0  0  0  0  0  0  0  0  0
  -27.1720  -28.5340   20.7150 C   0  0  0  0  0  3  0  0  0  0  0  0
  -25.9360  -26.8230   19.5490 C   0  0  0  0  0  3  0  0  0  0  0  0
  -24.7910  -27.6450   19.5490 C   0  0  0  0  0  3  0  0  0  0  0  0
  -23.5800  -29.7990   20.2150 C   0  0  0  0  0  2  0  0  0  0  0  0
  -24.6620  -31.0700   22.1090 N   0  0  0  0  0  0  0  0  0  0  0  0
  -23.5280  -32.1740   23.7430 O   0  0  0  0  0  0  0  0  0  0  0  0
  -22.7350  -29.4740   22.5740 C   0  0  0  0  0  0  0  0  0  0  0  0
  -21.4100  -29.2770   22.4570 N   0  0  0  0  0  0  0  0  0  0  0  0
  -23.4230  -28.8740   23.4050 O   0  0  0  0  0  0  0  0  0  0  0  0
  -20.9100  -29.8150   21.7630 H   0  0  0  0  0  0  0  0  0  0  0  0
  -18.0560  -28.0030   22.9740 C   0  0  0  0  0  0  0  0  0  0  0  0
  -20.6080  -28.3350   23.2440 C   0  0  0  0  0  3  0  0  0  0  0  0
  -20.7460  -26.8920   22.7030 C   0  0  0  0  0  2  0  0  0  0  0  0
  -19.6560  -26.5180   21.6950 C   0  0  0  0  0  2  0  0  0  0  0  0
  -18.2680  -26.6460   22.3280 C   0  0  0  0  0  2  0  0  0  0  0  0
  -19.1540  -28.8030   23.3920 C   0  0  0  0  0  0  0  0  0  0  0  0
  -18.9020  -30.0730   23.9550 C   0  0  0  0  0  3  0  0  0  0  0  0
  -17.5850  -30.5460   24.1020 C   0  0  0  0  0  3  0  0  0  0  0  0
  -16.5000  -29.7430   23.7030 C   0  0  0  0  0  3  0  0  0  0  0  0
  -16.7380  -28.4740   23.1470 C   0  0  0  0  0  3  0  0  0  0  0  0
  -25.8920  -32.5430   23.8000 C   0  0  0  0  0  3  0  0  0  0  0  0
  -26.4380  -31.7790   25.0710 C   0  0  1  0  0  0  0  0  0  0  0  0
  -25.3650  -31.5280   26.1580 C   0  0  0  0  0  1  0  0  0  0  0  0
  -27.0300  -30.4100   24.6650 C   0  0  0  0  0  1  0  0  0  0  0  0
  -27.5950  -32.5850   25.7090 C   0  0  0  0  0  1  0  0  0  0  0  0
  -25.5760  -33.9380   24.1390 N   0  0  0  0  0  0  0  0  0  0  0  0
  -25.8980  -34.9980   23.3880 C   0  0  0  0  0  0  0  0  0  0  0  0
  -26.5620  -34.9050   22.3520 O   0  0  0  0  0  0  0  0  0  0  0  0
  -24.9910  -34.0870   24.9500 H   0  0  0  0  0  0  0  0  0  0  0  0
  -24.1700  -36.7910   23.0500 C   0  0  0  0  0  1  0  0  0  0  0  0
  -25.4060  -36.3800   23.8610 C   0  0  0  0  0  3  0  0  0  0  0  0
  -27.5330  -37.2530   24.7200 C   0  0  0  0  0  1  0  0  0  0  0  0
  -26.4390  -37.4340   23.7700 N   0  0  0  0  0  0  0  0  0  0  0  0
  -26.0320  -38.3520   23.9320 H   0  0  0  0  0  0  0  0  0  0  0  0
  2  4  1  0
  3  1  1  0
  3  8  1  0
  4 48  1  0
  4  1  1  0
  5  2  1  0
  5  3  1  0
  5  6  1  0
  7  5  1  0
  8  9  2  0
 10 11  1  0
 10  8  1  0
 12 11  1  0
 13 18  1  0
 14 15  1  0
 14 13  1  0
 16 15  1  0
 16 23  1  0
 16 17  1  0
 18 12  1  0
 18 17  1  0
 19 12  2  0
 20 21  2  0
 21 40  1  0
 22 21  1  0
 22 25  1  0
 23 24  1  0
 23 20  1  0
 24 22  2  0
 25 26  1  0
 26 27  2  0
 28 31  1  0
 28 27  1  0
 29 28  2  0
 30 29  1  0
 30 25  2  0
 31 32  1  0
 32 33  1  0
 33 34  2  0
 35 34  1  0
 35 39  1  0
 36 35  2  0
 37 32  2  0
 37 36  1  0
 38 37  1  0
 40 41  1  0
 41 44  1  0
 41 43  1  0
 42 40  2  0
 45 46  1  0
 45 20  1  0
 47 45  1  0
 48 49  1  0
 50 61  2  0
 51 49  1  0
 51 56  1  0
 52 60  1  0
 52 62  1  0
 53 59  1  0
 53 55  1  0
 54 60  1  0
 55 54  1  0
 56 55  2  0
 57 51  2  0
 58 57  1  0
 58 53  2  0
 59 52  1  0
 60 50  1  0
 62 64  2  0
 63 62  1  0
 65 63  1  0
 66 75  2  0
 66 71  1  0
 67 63  1  0
 67 71  1  0
 68 67  1  0
 69 70  1  0
 69 68  1  0
 70 66  1  0
 71 72  2  0
 72 73  1  0
 74 73  2  0
 75 74  1  0
 76 50  1  0
 76 81  1  0
 76 77  1  0
 77 80  1  1
 77 78  1  0
 79 77  1  0
 81 84  1  0
 82 86  1  0
 82 81  1  0
 83 82  2  0
 86 85  1  0
 88 86  1  0
 88 89  1  0
 88 87  1  0
M  ISO  4  11 100  12 100  48 101  49 101
M  END
>  <TORSDO>  (8) 
F 20

>  <SCORE>  (8) 
-13.270

>  <name>  (8) 
7

>  <ligand_id>  (8) 
7

>  <original_smiles>  (8) 
[H]c1c([H])c([H])c2c(c1[H])C([H])([H])C([H])([H])C([H])([H])C2([H])N([H])C(=O)C1([H])N(C(=O)C([H])(N([H])C(=O)C([H])(N([H])C([H])([H])[H])C([H])([H])[H])C(C([H])([H])[H])(C([H])([H])[H])C([H])([H])[H])C([H])([H])c2c([H])c(OC([H])([H])C3([H])C([H])([H])C([H])(C(=O)C([H])([H])C([H])([H])C(=O)N4C([H])([H])C([H])([H])C([H])([H])C([H])(n5nc(-c6c([H])c([H])c(Oc7c([H])c([H])c(F)c([H])c7F)c([H])c6[H])c(C(=O)N([H])[H])c5N([H])[H])C4([H])[H])[N+]([H])([H])C3([H])[H])c([H])c([H])c2C1([H])[H]

>  <smiles>  (8) 
[H]c1c([H])c([H])c2c(c1[H])C([H])([H])C([H])([H])C([H])([H])C2([H])N([H])C(=O)C1([H])N(C(=O)C([H])(N([H])C(=O)C([H])(N([H])C([H])([H])[H])C([H])([H])[H])C(C([H])([H])[H])(C([H])([H])[H])C([H])([H])[H])C([H])([H])c2c([H])c(OC([H])([H])C3([H])C([H])([H])C([H])(C(=O)C([H])([H])C([H])([H])C(=O)N4C([H])([H])C([H])([H])C([H])([H])C([H])(n5nc(-c6c([H])c([H])c(Oc7c([H])c([H])c(F)c([H])c7F)c([H])c6[H])c(C(=O)N([H])[H])c5N([H])[H])C4([H])[H])[N+]([H])([H])C3([H])[H])c([H])c([H])c2C1([H])[H]

$$$$
8:0:0
     RDKit          3D

 88 96  0  0  1  0  0  0  0  0999 V2000
  -31.0260  -20.0690   19.2470 C   0  0  0  0  0  2  0  0  0  0  0  0
  -30.0890  -21.1010   18.5560 C   0  0  0  0  0  2  0  0  0  0  0  0
  -29.7740  -19.3190   19.6470 C   0  0  0  0  0  3  0  0  0  0  0  0
  -29.0130  -20.9700   19.6690 C   0  0  0  0  0  3  0  0  0  0  0  0
  -30.2630  -16.4710   20.7210 C   0  0  0  0  0  0  0  0  0  0  0  0
  -29.9240  -17.9300   20.6300 C   0  0  0  0  0  0  0  0  0  0  0  0
  -30.1990  -15.9930   22.1820 C   0  0  0  0  0  1  0  0  0  0  0  0
  -30.8290  -15.1990   19.8820 C   0  0  0  0  0  0  0  0  0  0  0  0
  -30.6470  -12.8110   18.8440 C   0  0  0  0  0  2  0  0  0  0  0  0
  -29.6280  -12.7370   17.6750 C   0  0  0  0  0  2  0  0  0  0  0  0
  -28.2050  -12.4800   18.1990 C   0  0  0  0  0  2  0  0  0  0  0  0
  -27.8860  -13.3710   19.4240 C   0  0  0  0  0  3  0  0  0  0  0  0
  -29.0160  -13.3700   20.4700 C   0  0  0  0  0  2  0  0  0  0  0  0
  -30.2330  -13.8960   19.8160 N   0  0  0  0  0  0  0  0  0  0  0  0
  -31.9380  -15.2170   19.3270 O   0  0  0  0  0  0  0  0  0  0  0  0
  -25.5960  -13.9570   20.3840 C   0  0  0  0  0  0  0  0  0  0  0  0
  -24.5440  -13.1920   20.8030 C   0  0  0  0  0  0  0  0  0  0  0  0
  -24.9680  -11.8340   20.6780 C   0  0  0  0  0  0  0  0  0  0  0  0
  -26.5890  -13.0670   20.0170 N   0  0  0  0  0  0  0  0  0  0  0  0
  -26.2280  -11.7800   20.2620 N   0  0  0  0  0  0  0  0  0  0  0  0
  -24.2220  -10.5830   20.8740 C   0  0  0  0  0  0  0  0  0  0  0  0
  -24.6270   -9.6200   21.8240 C   0  0  0  0  0  3  0  0  0  0  0  0
  -23.8800   -8.4360   22.0070 C   0  0  0  0  0  3  0  0  0  0  0  0
  -22.7120   -8.2080   21.2410 C   0  0  0  0  0  0  0  0  0  0  0  0
  -22.3250   -9.1600   20.2810 C   0  0  0  0  0  3  0  0  0  0  0  0
  -23.0730  -10.3340   20.0970 C   0  0  0  0  0  3  0  0  0  0  0  0
  -21.9380   -7.0760   21.3310 O   0  0  0  0  0  0  0  0  0  0  0  0
  -21.7760   -6.4080   22.5190 C   0  0  0  0  0  0  0  0  0  0  0  0
  -21.2100   -7.0320   23.6520 C   0  0  0  0  0  3  0  0  0  0  0  0
  -20.9960   -6.2890   24.8310 C   0  0  0  0  0  3  0  0  0  0  0  0
  -21.3380   -4.9250   24.8760 C   0  0  0  0  0  0  0  0  0  0  0  0
  -21.8970   -4.3010   23.7460 C   0  0  0  0  0  3  0  0  0  0  0  0
  -22.1120   -5.0410   22.5700 C   0  0  0  0  0  0  0  0  0  0  0  0
  -22.6300   -4.4290   21.4780 F   0  0  0  0  0  0  0  0  0  0  0  0
  -21.1270   -4.2090   26.0050 F   0  0  0  0  0  0  0  0  0  0  0  0
  -23.1870  -13.6930   21.2040 C   0  0  0  0  0  0  0  0  0  0  0  0
  -22.5120  -12.9850   22.1020 N   0  0  0  0  0  0  0  0  0  0  0  0
  -22.7380  -14.7480   20.7560 O   0  0  0  0  0  0  0  0  0  0  0  0
  -22.8900  -12.1310   22.4850 H   0  0  0  0  0  0  0  0  0  0  0  0
  -21.6040  -13.3020   22.4110 H   0  0  0  0  0  0  0  0  0  0  0  0
  -25.7850  -15.3310   20.2570 N   0  0  0  0  0  0  0  0  0  0  0  0
  -25.0560  -16.0010   20.4740 H   0  0  0  0  0  0  0  0  0  0  0  0
  -26.6330  -15.7640   19.9140 H   0  0  0  0  0  0  0  0  0  0  0  0
  -29.5220  -18.5040   21.7740 O   0  0  0  0  0  0  0  0  0  0  0  0
  -29.3360  -19.4140   21.5770 H   0  0  0  0  0  0  0  0  0  0  0  0
  -28.8880  -22.5800   20.4530 C   0  0  0  0  0  2  0  0  0  0  0  0
  -28.1040  -24.1030   19.8870 C   0  0  0  0  0  2  0  0  0  0  0  0
  -28.2280  -25.7090   20.2360 O   0  0  0  0  0  0  0  0  0  0  0  0
  -24.6000  -31.6880   23.0270 C   0  0  0  0  0  0  0  0  0  0  0  0
  -27.2070  -26.7870   20.1090 C   0  0  0  0  0  0  0  0  0  0  0  0
  -23.4240  -30.2570   21.4040 C   0  0  0  0  0  3  0  0  0  0  0  0
  -24.8920  -28.6400   20.0140 C   0  0  0  0  0  0  0  0  0  0  0  0
  -25.9880  -30.4850   21.2690 C   0  0  0  0  0  2  0  0  0  0  0  0
  -26.0710  -29.0670   20.6370 C   0  0  0  0  0  0  0  0  0  0  0  0
  -27.2190  -28.1590   20.6630 C   0  0  0  0  0  3  0  0  0  0  0  0
  -26.0000  -26.5100   19.4260 C   0  0  0  0  0  3  0  0  0  0  0  0
  -24.8810  -27.3820   19.3880 C   0  0  0  0  0  3  0  0  0  0  0  0
  -23.6650  -29.5510   20.0400 C   0  0  0  0  0  2  0  0  0  0  0  0
  -24.6920  -30.8380   21.9530 N   0  0  0  0  0  0  0  0  0  0  0  0
  -23.5060  -31.9800   23.5370 O   0  0  0  0  0  0  0  0  0  0  0  0
  -22.7300  -29.2740   22.3820 C   0  0  0  0  0  0  0  0  0  0  0  0
  -21.4010  -29.1040   22.2550 N   0  0  0  0  0  0  0  0  0  0  0  0
  -23.3940  -28.6650   23.2240 O   0  0  0  0  0  0  0  0  0  0  0  0
  -20.9180  -29.6470   21.5530 H   0  0  0  0  0  0  0  0  0  0  0  0
  -18.0190  -27.8960   22.7720 C   0  0  0  0  0  0  0  0  0  0  0  0
  -20.5780  -28.1760   23.0380 C   0  0  0  0  0  3  0  0  0  0  0  0
  -20.6850  -26.7350   22.4850 C   0  0  0  0  0  2  0  0  0  0  0  0
  -19.5870  -26.3940   21.4720 C   0  0  0  0  0  2  0  0  0  0  0  0
  -18.2030  -26.5400   22.1120 C   0  0  0  0  0  2  0  0  0  0  0  0
  -19.1330  -28.6710   23.1930 C   0  0  0  0  0  0  0  0  0  0  0  0
  -18.9040  -29.9370   23.7740 C   0  0  0  0  0  3  0  0  0  0  0  0
  -17.5970  -30.4300   23.9360 C   0  0  0  0  0  3  0  0  0  0  0  0
  -16.4970  -29.6530   23.5280 C   0  0  0  0  0  3  0  0  0  0  0  0
  -16.7090  -28.3880   22.9540 C   0  0  0  0  0  3  0  0  0  0  0  0
  -25.8650  -32.3470   23.6570 C   0  0  0  0  0  3  0  0  0  0  0  0
  -26.4180  -31.5560   24.9060 C   0  0  1  0  0  0  0  0  0  0  0  0
  -25.3440  -31.2440   25.9740 C   0  0  0  0  0  1  0  0  0  0  0  0
  -27.0480  -30.2130   24.4730 C   0  0  0  0  0  1  0  0  0  0  0  0
  -27.5460  -32.3700   25.5840 C   0  0  0  0  0  1  0  0  0  0  0  0
  -25.5110  -33.7240   24.0480 N   0  0  0  0  0  0  0  0  0  0  0  0
  -25.7970  -34.8210   23.3350 C   0  0  0  0  0  0  0  0  0  0  0  0
  -26.4480  -34.7840   22.2880 O   0  0  0  0  0  0  0  0  0  0  0  0
  -24.9270  -33.8240   24.8650 H   0  0  0  0  0  0  0  0  0  0  0  0
  -24.0130  -36.5850   23.0980 C   0  0  0  0  0  1  0  0  0  0  0  0
  -25.2820  -36.1760   23.8650 C   0  0  0  0  0  3  0  0  0  0  0  0
  -27.3990  -37.0940   24.7060 C   0  0  0  0  0  1  0  0  0  0  0  0
  -26.2820  -37.2630   23.7800 N   0  0  0  0  0  0  0  0  0  0  0  0
  -25.8510  -38.1650   23.9640 H   0  0  0  0  0  0  0  0  0  0  0  0
  1  3  1  0
  2  1  1  0
  2  4  1  0
  3  4  1  0
  3  6  1  0
  4 46  1  0
  5  7  1  0
  6  5  2  0
  6 44  1  0
  8  5  1  0
  9 14  1  0
 10 11  1  0
 10  9  1  0
 12 11  1  0
 12 19  1  0
 12 13  1  0
 14  8  1  0
 14 13  1  0
 15  8  2  0
 16 17  2  0
 17 36  1  0
 18 17  1  0
 18 21  1  0
 19 20  1  0
 19 16  1  0
 20 18  2  0
 21 22  1  0
 22 23  2  0
 24 27  1  0
 24 23  1  0
 25 24  2  0
 26 25  1  0
 26 21  2  0
 27 28  1  0
 28 33  2  0
 28 29  1  0
 29 30  2  0
 30 31  1  0
 31 35  1  0
 32 31  2  0
 33 32  1  0
 34 33  1  0
 36 37  1  0
 37 40  1  0
 37 39  1  0
 38 36  2  0
 41 16  1  0
 41 42  1  0
 43 41  1  0
 45 44  1  0
 47 48  1  0
 47 46  1  0
 49 60  2  0
 50 48  1  0
 50 55  1  0
 51 59  1  0
 51 61  1  0
 52 58  1  0
 52 54  1  0
 53 59  1  0
 54 55  2  0
 54 53  1  0
 56 50  2  0
 57 56  1  0
 57 52  2  0
 58 51  1  0
 59 49  1  0
 61 63  2  0
 62 61  1  0
 64 62  1  0
 65 74  2  0
 65 70  1  0
 66 62  1  0
 66 70  1  0
 67 66  1  0
 68 69  1  0
 68 67  1  0
 69 65  1  0
 70 71  2  0
 71 72  1  0
 73 72  2  0
 74 73  1  0
 75 49  1  0
 75 80  1  0
 75 76  1  0
 76 79  1  1
 76 77  1  0
 78 76  1  0
 80 83  1  0
 81 85  1  0
 81 80  1  0
 82 81  2  0
 85 84  1  0
 87 85  1  0
 87 88  1  0
 87 86  1  0
M  ISO  4   5 100   8 100  47 101  48 101
M  END
>  <TORSDO>  (9) 
F 20

>  <SCORE>  (9) 
-14.230

>  <name>  (9) 
8

>  <ligand_id>  (9) 
8

>  <original_smiles>  (9) 
[H]OC(=C(C(=O)N1C([H])([H])C([H])([H])C([H])([H])C([H])(n2nc(-c3c([H])c([H])c(Oc4c([H])c([H])c(F)c([H])c4F)c([H])c3[H])c(C(=O)N([H])[H])c2N([H])[H])C1([H])[H])C([H])([H])[H])C1([H])C([H])([H])C([H])([H])C1([H])C([H])([H])C([H])([H])Oc1c([H])c([H])c2c(c1[H])C([H])([H])N(C(=O)C([H])(N([H])C(=O)C([H])(N([H])C([H])([H])[H])C([H])([H])[H])C(C([H])([H])[H])(C([H])([H])[H])C([H])([H])[H])C([H])(C(=O)N([H])C1([H])c3c([H])c([H])c([H])c([H])c3C([H])([H])C([H])([H])C1([H])[H])C2([H])[H]

>  <smiles>  (9) 
[H]OC(=C(C(=O)N1C([H])([H])C([H])([H])C([H])([H])C([H])(n2nc(-c3c([H])c([H])c(Oc4c([H])c([H])c(F)c([H])c4F)c([H])c3[H])c(C(=O)N([H])[H])c2N([H])[H])C1([H])[H])C([H])([H])[H])C1([H])C([H])([H])C([H])([H])C1([H])C([H])([H])C([H])([H])Oc1c([H])c([H])c2c(c1[H])C([H])([H])N(C(=O)C([H])(N([H])C(=O)C([H])(N([H])C([H])([H])[H])C([H])([H])[H])C(C([H])([H])[H])(C([H])([H])[H])C([H])([H])[H])C([H])(C(=O)N([H])C1([H])c3c([H])c([H])c([H])c([H])c3C([H])([H])C([H])([H])C1([H])[H])C2([H])[H]

$$$$
9:0:0
     RDKit          3D

 89 97  0  0  1  0  0  0  0  0999 V2000
  -28.6710  -20.8620   20.4040 N   0  0  0  0  0  4  0  0  0  0  0  0
  -28.7790  -20.8110   21.4050 H   0  0  0  0  0  0  0  0  0  0  0  0
  -27.6770  -20.7820   20.2610 H   0  0  0  0  0  0  0  0  0  0  0  0
  -30.4060  -15.5570   19.8510 C   0  0  0  0  0  0  0  0  0  0  0  0
  -30.3140  -13.1060   18.9170 C   0  0  0  0  0  2  0  0  0  0  0  0
  -29.3170  -12.8080   17.7700 C   0  0  0  0  0  2  0  0  0  0  0  0
  -27.9290  -12.4730   18.3360 C   0  0  0  0  0  2  0  0  0  0  0  0
  -27.5320  -13.4330   19.4840 C   0  0  0  0  0  3  0  0  0  0  0  0
  -28.6590  -13.6760   20.5110 C   0  0  0  0  0  2  0  0  0  0  0  0
  -29.7850  -14.2610   19.7570 N   0  0  0  0  0  0  0  0  0  0  0  0
  -31.6240  -15.4440   19.6330 O   0  0  0  0  0  0  0  0  0  0  0  0
  -28.5240  -17.8310   20.0660 C   0  0  0  0  0  2  0  0  0  0  0  0
  -30.4900  -18.3780   20.2770 C   0  0  0  0  0  3  0  0  0  0  0  0
  -29.2210  -19.3310   19.8180 C   0  0  0  0  0  3  0  0  0  0  0  0
  -29.8330  -16.9690   19.9820 N   0  0  0  0  0  0  0  0  0  0  0  0
  -25.2430  -13.9250   20.4740 C   0  0  0  0  0  0  0  0  0  0  0  0
  -24.2210  -13.1220   20.8950 C   0  0  0  0  0  0  0  0  0  0  0  0
  -24.6930  -11.7800   20.7680 C   0  0  0  0  0  0  0  0  0  0  0  0
  -26.2650  -13.0710   20.1040 N   0  0  0  0  0  0  0  0  0  0  0  0
  -25.9550  -11.7710   20.3500 N   0  0  0  0  0  0  0  0  0  0  0  0
  -23.9910  -10.5040   20.9640 C   0  0  0  0  0  0  0  0  0  0  0  0
  -24.4550   -9.5350   21.8800 C   0  0  0  0  0  3  0  0  0  0  0  0
  -23.7470   -8.3280   22.0670 C   0  0  0  0  0  3  0  0  0  0  0  0
  -22.5610   -8.0800   21.3360 C   0  0  0  0  0  0  0  0  0  0  0  0
  -22.1150   -9.0380   20.4090 C   0  0  0  0  0  3  0  0  0  0  0  0
  -22.8230  -10.2370   20.2200 C   0  0  0  0  0  3  0  0  0  0  0  0
  -21.8220   -6.9260   21.4340 O   0  0  0  0  0  0  0  0  0  0  0  0
  -21.7590   -6.2070   22.6010 C   0  0  0  0  0  0  0  0  0  0  0  0
  -21.2720   -6.7730   23.7990 C   0  0  0  0  0  3  0  0  0  0  0  0
  -21.1590   -5.9790   24.9570 C   0  0  0  0  0  3  0  0  0  0  0  0
  -21.5230   -4.6200   24.9180 C   0  0  0  0  0  0  0  0  0  0  0  0
  -22.0030   -4.0530   23.7250 C   0  0  0  0  0  3  0  0  0  0  0  0
  -22.1170   -4.8440   22.5680 C   0  0  0  0  0  0  0  0  0  0  0  0
  -22.5600   -4.2880   21.4150 F   0  0  0  0  0  0  0  0  0  0  0  0
  -21.4080   -3.8540   26.0290 F   0  0  0  0  0  0  0  0  0  0  0  0
  -22.8490  -13.5760   21.2930 C   0  0  0  0  0  0  0  0  0  0  0  0
  -22.1960  -12.8430   22.1870 N   0  0  0  0  0  0  0  0  0  0  0  0
  -22.3670  -14.6170   20.8460 O   0  0  0  0  0  0  0  0  0  0  0  0
  -22.6020  -12.0010   22.5680 H   0  0  0  0  0  0  0  0  0  0  0  0
  -21.2780  -13.1280   22.4960 H   0  0  0  0  0  0  0  0  0  0  0  0
  -25.3840  -15.3040   20.3410 N   0  0  0  0  0  0  0  0  0  0  0  0
  -24.6260  -15.9450   20.5440 H   0  0  0  0  0  0  0  0  0  0  0  0
  -26.2010  -15.7600   19.9590 H   0  0  0  0  0  0  0  0  0  0  0  0
  -30.9230  -18.4830   21.7180 C   0  0  0  0  0  0  0  0  0  0  0  0
  -32.1110  -17.6200   22.1200 C   0  0  0  0  0  1  0  0  0  0  0  0
  -30.3950  -19.2010   22.5720 O   0  0  0  0  0  0  0  0  0  0  0  0
  -28.9220  -22.5150   20.0140 C   0  0  0  0  0  3  0  0  0  0  0  0
  -27.9710  -24.0890   20.3670 C   0  0  0  0  0  3  0  0  0  0  0  0
  -28.1820  -25.7850   20.2860 O   0  0  0  0  0  0  0  0  0  0  0  0
  -24.6270  -31.9270   23.1970 C   0  0  0  0  0  0  0  0  0  0  0  0
  -27.1760  -26.9250   20.2550 C   0  0  0  0  0  0  0  0  0  0  0  0
  -23.4360  -30.5050   21.5810 C   0  0  0  0  0  3  0  0  0  0  0  0
  -24.8860  -28.8680   20.1830 C   0  0  0  0  0  0  0  0  0  0  0  0
  -26.0090  -30.6930   21.4360 C   0  0  0  0  0  2  0  0  0  0  0  0
  -26.0800  -29.2640   20.7990 C   0  0  0  0  0  0  0  0  0  0  0  0
  -27.2160  -28.3180   20.8020 C   0  0  0  0  0  3  0  0  0  0  0  0
  -25.9470  -26.7070   19.5880 C   0  0  0  0  0  3  0  0  0  0  0  0
  -24.8510  -27.6130   19.5540 C   0  0  0  0  0  3  0  0  0  0  0  0
  -23.6700  -29.8000   20.2160 C   0  0  0  0  0  2  0  0  0  0  0  0
  -24.7140  -31.0720   22.1240 N   0  0  0  0  0  0  0  0  0  0  0  0
  -23.5360  -32.2230   23.7120 O   0  0  0  0  0  0  0  0  0  0  0  0
  -22.7390  -29.5270   22.5630 C   0  0  0  0  0  0  0  0  0  0  0  0
  -21.4080  -29.3610   22.4450 N   0  0  0  0  0  0  0  0  0  0  0  0
  -23.4040  -28.9150   23.4020 O   0  0  0  0  0  0  0  0  0  0  0  0
  -20.9220  -29.9050   21.7450 H   0  0  0  0  0  0  0  0  0  0  0  0
  -18.0300  -28.1380   22.9730 C   0  0  0  0  0  0  0  0  0  0  0  0
  -20.5890  -28.4310   23.2300 C   0  0  0  0  0  3  0  0  0  0  0  0
  -20.7000  -26.9890   22.6790 C   0  0  0  0  0  2  0  0  0  0  0  0
  -19.6020  -26.6410   21.6710 C   0  0  0  0  0  2  0  0  0  0  0  0
  -18.2190  -26.7810   22.3130 C   0  0  0  0  0  2  0  0  0  0  0  0
  -19.1420  -28.9180   23.3890 C   0  0  0  0  0  0  0  0  0  0  0  0
  -18.9090  -30.1830   23.9710 C   0  0  0  0  0  3  0  0  0  0  0  0
  -17.5980  -30.6690   24.1370 C   0  0  0  0  0  3  0  0  0  0  0  0
  -16.5010  -29.8870   23.7350 C   0  0  0  0  0  3  0  0  0  0  0  0
  -16.7180  -28.6230   23.1580 C   0  0  0  0  0  3  0  0  0  0  0  0
  -25.8920  -32.5860   23.8230 C   0  0  0  0  0  3  0  0  0  0  0  0
  -26.4050  -31.8370   25.1150 C   0  0  1  0  0  0  0  0  0  0  0  0
  -25.3060  -31.6060   26.1800 C   0  0  0  0  0  1  0  0  0  0  0  0
  -27.0020  -30.4580   24.7580 C   0  0  0  0  0  1  0  0  0  0  0  0
  -27.5450  -32.6490   25.7740 C   0  0  0  0  0  1  0  0  0  0  0  0
  -25.5640  -33.9860   24.1500 N   0  0  0  0  0  0  0  0  0  0  0  0
  -25.8900  -35.0490   23.4030 C   0  0  0  0  0  0  0  0  0  0  0  0
  -26.5600  -34.9550   22.3710 O   0  0  0  0  0  0  0  0  0  0  0  0
  -24.9660  -34.1310   24.9510 H   0  0  0  0  0  0  0  0  0  0  0  0
  -24.1580  -36.8480   23.0640 C   0  0  0  0  0  1  0  0  0  0  0  0
  -25.4000  -36.4360   23.8710 C   0  0  0  0  0  3  0  0  0  0  0  0
  -27.5310  -37.3280   24.7120 C   0  0  0  0  0  1  0  0  0  0  0  0
  -26.4310  -37.4930   23.7650 N   0  0  0  0  0  0  0  0  0  0  0  0
  -26.0200  -38.4110   23.9130 H   0  0  0  0  0  0  0  0  0  0  0  0
  1  2  1  0
  3  1  1  0
  4 15  1  0
  5 10  1  0
  6  7  1  0
  6  5  1  0
  8  7  1  0
  8 19  1  0
  8  9  1  0
 10  4  1  0
 10  9  1  0
 11  4  2  0
 13 44  1  0
 14 12  1  0
 14 13  1  0
 14  1  1  0
 15 12  1  0
 15 13  1  0
 16 17  2  0
 17 36  1  0
 18 17  1  0
 18 21  1  0
 19 20  1  0
 19 16  1  0
 20 18  2  0
 21 22  1  0
 22 23  2  0
 24 27  1  0
 24 23  1  0
 25 24  2  0
 26 25  1  0
 26 21  2  0
 27 28  1  0
 28 29  1  0
 29 30  2  0
 31 30  1  0
 31 35  1  0
 32 31  2  0
 33 28  2  0
 33 32  1  0
 34 33  1  0
 36 37  1  0
 37 40  1  0
 37 39  1  0
 38 36  2  0
 41 16  1  0
 41 42  1  0
 43 41  1  0
 44 45  1  0
 44 46  2  0
 47 48  2  0
 47  1  1  0
 49 48  1  0
 50 61  2  0
 51 49  1  0
 51 56  1  0
 52 60  1  0
 52 62  1  0
 53 59  1  0
 53 55  1  0
 54 60  1  0
 55 56  2  0
 55 54  1  0
 57 51  2  0
 58 57  1  0
 58 53  2  0
 59 52  1  0
 60 50  1  0
 62 64  2  0
 63 62  1  0
 65 63  1  0
 66 75  2  0
 66 71  1  0
 67 63  1  0
 67 71  1  0
 68 67  1  0
 69 70  1  0
 69 68  1  0
 70 66  1  0
 71 72  2  0
 72 73  1  0
 74 73  2  0
 75 74  1  0
 76 50  1  0
 76 81  1  0
 76 77  1  0
 77 80  1  1
 77 78  1  0
 79 77  1  0
 81 84  1  0
 82 86  1  0
 82 81  1  0
 83 82  2  0
 86 85  1  0
 88 86  1  0
 88 89  1  0
 88 87  1  0
M  ISO  4   4 100  15 100  48 101  49 101
M  END
>  <TORSDO>  (10) 
F 19

>  <SCORE>  (10) 
-14.605

>  <name>  (10) 
9

>  <ligand_id>  (10) 
9

>  <original_smiles>  (10) 
[H]c1c([H])c([H])c2c(c1[H])C([H])([H])C([H])([H])C([H])([H])C2([H])N([H])C(=O)C1([H])N(C(=O)C([H])(N([H])C(=O)C([H])(N([H])C([H])([H])[H])C([H])([H])[H])C(C([H])([H])[H])(C([H])([H])[H])C([H])([H])[H])C([H])([H])c2c([H])c(OC([H])([H])C([H])([H])[N+]([H])([H])C3([H])C([H])([H])N(C(=O)N4C([H])([H])C([H])([H])C([H])([H])C([H])(n5nc(-c6c([H])c([H])c(Oc7c([H])c([H])c(F)c([H])c7F)c([H])c6[H])c(C(=O)N([H])[H])c5N([H])[H])C4([H])[H])C3([H])C(=O)C([H])([H])[H])c([H])c([H])c2C1([H])[H]

>  <smiles>  (10) 
[H]c1c([H])c([H])c2c(c1[H])C([H])([H])C([H])([H])C([H])([H])C2([H])N([H])C(=O)C1([H])N(C(=O)C([H])(N([H])C(=O)C([H])(N([H])C([H])([H])[H])C([H])([H])[H])C(C([H])([H])[H])(C([H])([H])[H])C([H])([H])[H])C([H])([H])c2c([H])c(OC([H])([H])C([H])([H])[N+]([H])([H])C3([H])C([H])([H])N(C(=O)N4C([H])([H])C([H])([H])C([H])([H])C([H])(n5nc(-c6c([H])c([H])c(Oc7c([H])c([H])c(F)c([H])c7F)c([H])c6[H])c(C(=O)N([H])[H])c5N([H])[H])C4([H])[H])C3([H])C(=O)C([H])([H])[H])c([H])c([H])c2C1([H])[H]

$$$$
10:0:0
     RDKit          3D

 90 98  0  0  1  0  0  0  0  0999 V2000
  -30.5740  -21.2720   21.7500 C   0  0  0  0  0  3  0  0  0  0  0  0
  -28.2700  -21.0550   20.9960 C   0  0  0  0  0  3  0  0  0  0  0  0
  -30.6010  -22.6060   21.2850 C   0  0  0  0  0  3  0  0  0  0  0  0
  -28.2970  -22.3850   20.5290 C   0  0  0  0  0  3  0  0  0  0  0  0
  -29.4130  -20.4830   21.5960 C   0  0  0  0  0  0  0  0  0  0  0  0
  -29.4670  -23.1670   20.6550 C   0  0  0  0  0  0  0  0  0  0  0  0
  -29.4200  -19.0130   22.0070 C   0  0  0  0  0  2  0  0  0  0  0  0
  -30.1980  -18.1640   20.9850 C   0  0  0  0  0  2  0  0  0  0  0  0
  -31.3950  -16.3070   22.2770 C   0  0  0  0  0  1  0  0  0  0  0  0
  -30.2970  -16.6340   21.2480 C   0  0  0  0  0  3  0  0  0  0  0  0
  -30.4360  -15.9160   19.8760 C   0  0  0  0  0  2  0  0  0  0  0  0
  -31.1740  -14.5620   19.7560 C   0  0  0  0  0  0  0  0  0  0  0  0
  -30.7380  -12.3480   18.8000 C   0  0  0  0  0  2  0  0  0  0  0  0
  -29.7550  -12.5560   17.6290 C   0  0  0  0  0  2  0  0  0  0  0  0
  -28.2940  -12.5030   18.1300 C   0  0  0  0  0  2  0  0  0  0  0  0
  -28.0430  -13.3890   19.3800 C   0  0  0  0  0  3  0  0  0  0  0  0
  -29.1630  -13.2310   20.4310 C   0  0  0  0  0  2  0  0  0  0  0  0
  -30.4650  -13.4060   19.7800 N   0  0  0  0  0  0  0  0  0  0  0  0
  -32.3380  -14.6180   19.3520 O   0  0  0  0  0  0  0  0  0  0  0  0
  -25.7700  -14.0870   20.3560 C   0  0  0  0  0  0  0  0  0  0  0  0
  -24.6910  -13.3580   20.7750 C   0  0  0  0  0  0  0  0  0  0  0  0
  -25.0610  -11.9850   20.6200 C   0  0  0  0  0  0  0  0  0  0  0  0
  -26.7260  -13.1610   19.9680 N   0  0  0  0  0  0  0  0  0  0  0  0
  -26.3110  -11.8890   20.1880 N   0  0  0  0  0  0  0  0  0  0  0  0
  -24.2740  -10.7590   20.8000 C   0  0  0  0  0  0  0  0  0  0  0  0
  -24.6790   -9.7450   21.6960 C   0  0  0  0  0  3  0  0  0  0  0  0
  -23.8970   -8.5830   21.8640 C   0  0  0  0  0  3  0  0  0  0  0  0
  -22.6950   -8.4260   21.1350 C   0  0  0  0  0  0  0  0  0  0  0  0
  -22.3080   -9.4260   20.2270 C   0  0  0  0  0  3  0  0  0  0  0  0
  -23.0890  -10.5800   20.0560 C   0  0  0  0  0  3  0  0  0  0  0  0
  -21.8840   -7.3190   21.2140 O   0  0  0  0  0  0  0  0  0  0  0  0
  -21.7730   -6.5910   22.3710 C   0  0  0  0  0  0  0  0  0  0  0  0
  -21.3520   -7.1780   23.5850 C   0  0  0  0  0  3  0  0  0  0  0  0
  -21.1890   -6.3780   24.7340 C   0  0  0  0  0  3  0  0  0  0  0  0
  -21.4310   -4.9930   24.6670 C   0  0  0  0  0  0  0  0  0  0  0  0
  -21.8450   -4.4060   23.4590 C   0  0  0  0  0  3  0  0  0  0  0  0
  -22.0130   -5.2030   22.3140 C   0  0  0  0  0  0  0  0  0  0  0  0
  -22.3930   -4.6300   21.1460 F   0  0  0  0  0  0  0  0  0  0  0  0
  -21.2650   -4.2250   25.7690 F   0  0  0  0  0  0  0  0  0  0  0  0
  -23.3550  -13.8960   21.2030 C   0  0  0  0  0  0  0  0  0  0  0  0
  -22.6650  -13.1930   22.0940 N   0  0  0  0  0  0  0  0  0  0  0  0
  -22.9360  -14.9720   20.7750 O   0  0  0  0  0  0  0  0  0  0  0  0
  -23.0130  -12.3160   22.4520 H   0  0  0  0  0  0  0  0  0  0  0  0
  -21.7670  -13.5300   22.4170 H   0  0  0  0  0  0  0  0  0  0  0  0
  -26.0140  -15.4530   20.2530 N   0  0  0  0  0  0  0  0  0  0  0  0
  -25.3190  -16.1540   20.4830 H   0  0  0  0  0  0  0  0  0  0  0  0
  -26.8720  -15.8530   19.8950 H   0  0  0  0  0  0  0  0  0  0  0  0
  -29.5250  -24.5710   20.0490 C   0  0  0  0  0  2  0  0  0  0  0  0
  -28.5520  -25.5860   20.6740 C   0  0  0  0  0  2  0  0  0  0  0  0
  -28.5970  -26.8220   19.9490 O   0  0  0  0  0  0  0  0  0  0  0  0
  -24.6290  -31.7960   23.0890 C   0  0  0  0  0  0  0  0  0  0  0  0
  -27.4160  -27.5220   19.9420 C   0  0  0  0  0  0  0  0  0  0  0  0
  -23.4720  -30.4090   21.3960 C   0  0  0  0  0  3  0  0  0  0  0  0
  -24.9800  -28.9480   19.9480 C   0  0  0  0  0  0  0  0  0  0  0  0
  -25.9800  -30.8570   21.2140 C   0  0  0  0  0  2  0  0  0  0  0  0
  -26.1140  -29.5000   20.5540 C   0  0  0  0  0  0  0  0  0  0  0  0
  -27.3400  -28.7970   20.5450 C   0  0  0  0  0  3  0  0  0  0  0  0
  -26.2680  -26.9820   19.3220 C   0  0  0  0  0  3  0  0  0  0  0  0
  -25.0500  -27.6900   19.3250 C   0  0  0  0  0  3  0  0  0  0  0  0
  -23.7080  -29.7640   20.0030 C   0  0  0  0  0  2  0  0  0  0  0  0
  -24.7130  -31.0320   21.9630 N   0  0  0  0  0  0  0  0  0  0  0  0
  -23.5370  -32.0240   23.6260 O   0  0  0  0  0  0  0  0  0  0  0  0
  -22.8380  -29.3470   22.3250 C   0  0  0  0  0  0  0  0  0  0  0  0
  -21.5150  -29.1580   22.1950 N   0  0  0  0  0  0  0  0  0  0  0  0
  -23.5330  -28.6990   23.1100 O   0  0  0  0  0  0  0  0  0  0  0  0
  -21.0170  -29.7340   21.5310 H   0  0  0  0  0  0  0  0  0  0  0  0
  -18.1480  -27.9440   22.6800 C   0  0  0  0  0  0  0  0  0  0  0  0
  -20.7090  -28.1850   22.9310 C   0  0  0  0  0  3  0  0  0  0  0  0
  -20.8030  -26.7840   22.2850 C   0  0  0  0  0  2  0  0  0  0  0  0
  -19.6870  -26.5110   21.2730 C   0  0  0  0  0  2  0  0  0  0  0  0
  -18.3150  -26.6270   21.9410 C   0  0  0  0  0  2  0  0  0  0  0  0
  -19.2740  -28.6840   23.1310 C   0  0  0  0  0  0  0  0  0  0  0  0
  -19.0650  -29.9190   23.7800 C   0  0  0  0  0  3  0  0  0  0  0  0
  -17.7630  -30.4150   23.9840 C   0  0  0  0  0  3  0  0  0  0  0  0
  -16.6530  -29.6710   23.5530 C   0  0  0  0  0  3  0  0  0  0  0  0
  -16.8450  -28.4370   22.9050 C   0  0  0  0  0  3  0  0  0  0  0  0
  -25.8930  -32.4400   23.7400 C   0  0  0  0  0  3  0  0  0  0  0  0
  -25.5520  -33.8220   24.1000 N   0  0  0  0  0  0  0  0  0  0  0  0
  -25.8740  -34.8990   23.3700 C   0  0  0  0  0  0  0  0  0  0  0  0
  -26.5610  -34.8320   22.3460 O   0  0  0  0  0  0  0  0  0  0  0  0
  -24.9470  -33.9480   24.8990 H   0  0  0  0  0  0  0  0  0  0  0  0
  -24.1110  -36.6570   23.0280 C   0  0  0  0  0  1  0  0  0  0  0  0
  -25.3500  -36.2650   23.8490 C   0  0  0  0  0  3  0  0  0  0  0  0
  -27.4510  -37.1790   24.7280 C   0  0  0  0  0  1  0  0  0  0  0  0
  -26.3610  -37.3420   23.7720 N   0  0  0  0  0  0  0  0  0  0  0  0
  -25.9320  -38.2510   23.9330 H   0  0  0  0  0  0  0  0  0  0  0  0
  -26.4170  -31.6440   24.9960 C   0  0  1  0  0  0  0  0  0  0  0  0
  -25.3180  -31.3280   26.0370 C   0  0  0  0  0  1  0  0  0  0  0  0
  -27.0510  -30.3040   24.5530 C   0  0  0  0  0  1  0  0  0  0  0  0
  -27.5290  -32.4510   25.7060 C   0  0  0  0  0  1  0  0  0  0  0  0
  2  5  2  0
  3  1  2  0
  4  6  2  0
  4  2  1  0
  5  1  1  0
  5  7  1  0
  6  3  1  0
  8 10  1  0
  8  7  1  0
 10  9  1  0
 11 10  1  0
 12 18  1  0
 12 11  1  0
 13 18  1  0
 14 15  1  0
 14 13  1  0
 16 15  1  0
 16 23  1  0
 16 17  1  0
 18 17  1  0
 19 12  2  0
 20 21  2  0
 21 40  1  0
 22 21  1  0
 22 25  1  0
 23 24  1  0
 23 20  1  0
 24 22  2  0
 25 26  1  0
 26 27  2  0
 28 31  1  0
 28 27  1  0
 29 28  2  0
 30 29  1  0
 30 25  2  0
 31 32  1  0
 32 33  1  0
 33 34  2  0
 35 34  1  0
 35 39  1  0
 36 35  2  0
 37 32  2  0
 37 36  1  0
 38 37  1  0
 40 41  1  0
 41 44  1  0
 41 43  1  0
 42 40  2  0
 45 20  1  0
 45 46  1  0
 47 45  1  0
 48  6  1  0
 48 49  1  0
 50 49  1  0
 51 62  2  0
 52 50  1  0
 52 57  1  0
 53 61  1  0
 53 63  1  0
 54 60  1  0
 54 56  1  0
 55 61  1  0
 56 55  1  0
 57 56  2  0
 58 59  1  0
 58 52  2  0
 59 54  2  0
 60 53  1  0
 61 51  1  0
 63 65  2  0
 64 63  1  0
 66 64  1  0
 67 76  2  0
 67 72  1  0
 68 64  1  0
 68 72  1  0
 69 68  1  0
 70 71  1  0
 70 69  1  0
 71 67  1  0
 72 73  2  0
 73 74  1  0
 75 74  2  0
 76 75  1  0
 77 51  1  0
 77 78  1  0
 77 87  1  0
 78 81  1  0
 79 83  1  0
 79 78  1  0
 80 79  2  0
 83 82  1  0
 85 83  1  0
 85 86  1  0
 85 84  1  0
 87 90  1  1
 87 88  1  0
 89 87  1  0
M  ISO  4  11 100  12 100  49 101  50 101
M  END
>  <TORSDO>  (11) 
F 22

>  <SCORE>  (11) 
-11.016

>  <name>  (11) 
10

>  <ligand_id>  (11) 
10

>  <original_smiles>  (11) 
[H]c1c([H])c([H])c2c(c1[H])C([H])([H])C([H])([H])C([H])([H])C2([H])N([H])C(=O)C1([H])N(C(=O)C([H])(N([H])C(=O)C([H])(N([H])C([H])([H])[H])C([H])([H])[H])C(C([H])([H])[H])(C([H])([H])[H])C([H])([H])[H])C([H])([H])c2c([H])c(OC([H])([H])C([H])([H])c3c([H])c([H])c(C([H])([H])C([H])([H])C([H])(C([H])([H])[H])C([H])([H])C(=O)N4C([H])([H])C([H])([H])C([H])([H])C([H])(n5nc(-c6c([H])c([H])c(Oc7c([H])c([H])c(F)c([H])c7F)c([H])c6[H])c(C(=O)N([H])[H])c5N([H])[H])C4([H])[H])c([H])c3[H])c([H])c([H])c2C1([H])[H]

>  <smiles>  (11) 
[H]c1c([H])c([H])c2c(c1[H])C([H])([H])C([H])([H])C([H])([H])C2([H])N([H])C(=O)C1([H])N(C(=O)C([H])(N([H])C(=O)C([H])(N([H])C([H])([H])[H])C([H])([H])[H])C(C([H])([H])[H])(C([H])([H])[H])C([H])([H])[H])C([H])([H])c2c([H])c(OC([H])([H])C([H])([H])c3c([H])c([H])c(C([H])([H])C([H])([H])C([H])(C([H])([H])[H])C([H])([H])C(=O)N4C([H])([H])C([H])([H])C([H])([H])C([H])(n5nc(-c6c([H])c([H])c(Oc7c([H])c([H])c(F)c([H])c7F)c([H])c6[H])c(C(=O)N([H])[H])c5N([H])[H])C4([H])[H])c([H])c3[H])c([H])c([H])c2C1([H])[H]

$$$$
11:0:0
     RDKit          3D

 89 96  0  0  1  0  0  0  0  0999 V2000
  -28.3250  -23.4050   20.5220 C   0  0  0  0  0  2  0  0  0  0  0  0
  -28.3260  -24.8480   19.6880 C   0  0  0  0  0  0  0  0  0  0  0  0
  -28.4100  -24.7960   18.4280 N   0  0  0  0  0  0  0  0  0  0  0  0
  -28.4630  -23.8390   18.0960 H   0  0  0  0  0  0  0  0  0  0  0  0
  -28.2400  -26.1680   20.3210 O   0  0  0  0  0  0  0  0  0  0  0  0
  -24.6250  -31.8730   23.2170 C   0  0  0  0  0  0  0  0  0  0  0  0
  -27.1930  -27.1560   20.1710 C   0  0  0  0  0  0  0  0  0  0  0  0
  -23.4160  -30.4700   21.5920 C   0  0  0  0  0  3  0  0  0  0  0  0
  -24.8570  -28.8990   20.1530 C   0  0  0  0  0  0  0  0  0  0  0  0
  -25.9680  -30.7410   21.4060 C   0  0  0  0  0  2  0  0  0  0  0  0
  -26.0400  -29.3480   20.7540 C   0  0  0  0  0  0  0  0  0  0  0  0
  -27.2020  -28.4900   20.7530 C   0  0  0  0  0  3  0  0  0  0  0  0
  -25.9820  -26.8090   19.5290 C   0  0  0  0  0  3  0  0  0  0  0  0
  -24.8430  -27.6440   19.5250 C   0  0  0  0  0  3  0  0  0  0  0  0
  -23.6260  -29.7880   20.2140 C   0  0  0  0  0  2  0  0  0  0  0  0
  -24.6900  -31.0500   22.1260 N   0  0  0  0  0  0  0  0  0  0  0  0
  -23.5420  -32.1570   23.7520 O   0  0  0  0  0  0  0  0  0  0  0  0
  -22.7490  -29.4640   22.5630 C   0  0  0  0  0  0  0  0  0  0  0  0
  -21.4190  -29.2900   22.4500 N   0  0  0  0  0  0  0  0  0  0  0  0
  -23.4300  -28.8410   23.3810 O   0  0  0  0  0  0  0  0  0  0  0  0
  -20.9230  -29.8490   21.7690 H   0  0  0  0  0  0  0  0  0  0  0  0
  -18.0500  -28.0690   22.9640 C   0  0  0  0  0  0  0  0  0  0  0  0
  -20.6070  -28.3520   23.2290 C   0  0  0  0  0  3  0  0  0  0  0  0
  -20.7180  -26.9160   22.6670 C   0  0  0  0  0  2  0  0  0  0  0  0
  -19.6190  -26.5780   21.6560 C   0  0  0  0  0  2  0  0  0  0  0  0
  -18.2370  -26.7170   22.2980 C   0  0  0  0  0  2  0  0  0  0  0  0
  -19.1620  -28.8440   23.3880 C   0  0  0  0  0  0  0  0  0  0  0  0
  -18.9340  -30.1090   23.9700 C   0  0  0  0  0  3  0  0  0  0  0  0
  -17.6260  -30.6000   24.1340 C   0  0  0  0  0  3  0  0  0  0  0  0
  -16.5270  -29.8230   23.7280 C   0  0  0  0  0  3  0  0  0  0  0  0
  -16.7400  -28.5590   23.1480 C   0  0  0  0  0  3  0  0  0  0  0  0
  -25.9060  -32.5150   23.8320 C   0  0  0  0  0  3  0  0  0  0  0  0
  -25.5910  -33.9120   24.1690 N   0  0  0  0  0  0  0  0  0  0  0  0
  -25.9140  -34.9730   23.4160 C   0  0  0  0  0  0  0  0  0  0  0  0
  -26.5750  -34.8770   22.3800 O   0  0  0  0  0  0  0  0  0  0  0  0
  -25.0030  -34.0620   24.9760 H   0  0  0  0  0  0  0  0  0  0  0  0
  -24.1770  -36.7640   23.0950 C   0  0  0  0  0  1  0  0  0  0  0  0
  -25.4290  -36.3580   23.8880 C   0  0  0  0  0  3  0  0  0  0  0  0
  -27.5710  -37.2450   24.6970 C   0  0  0  0  0  1  0  0  0  0  0  0
  -26.4570  -37.4150   23.7680 N   0  0  0  0  0  0  0  0  0  0  0  0
  -26.0490  -38.3330   23.9260 H   0  0  0  0  0  0  0  0  0  0  0  0
  -26.4340  -31.7470   25.1060 C   0  0  1  0  0  0  0  0  0  0  0  0
  -25.3490  -31.5090   26.1830 C   0  0  0  0  0  1  0  0  0  0  0  0
  -27.0150  -30.3690   24.7170 C   0  0  0  0  0  1  0  0  0  0  0  0
  -27.5900  -32.5440   25.7560 C   0  0  0  0  0  1  0  0  0  0  0  0
  -29.2480  -22.0370   20.1390 C   0  0  0  0  0  2  0  0  0  0  0  0
  -28.7420  -20.4590   20.1330 C   0  0  0  0  0  0  0  0  0  0  0  0
  -27.6310  -20.2670   19.6370 O   0  0  0  0  0  0  0  0  0  0  0  0
  -29.5180  -19.1060   20.7270 C   0  0  0  0  0  2  0  0  0  0  0  0
  -29.4820  -17.7310   18.4680 C   0  0  0  0  0  1  0  0  0  0  0  0
  -29.9630  -17.6740   19.9260 C   0  0  0  0  0  3  0  0  0  0  0  0
  -30.5290  -14.9860   20.2960 C   0  0  0  0  0  0  0  0  0  0  0  0
  -30.3880  -12.6300   19.3810 C   0  0  0  0  0  2  0  0  0  0  0  0
  -29.4520  -12.5950   18.1510 C   0  0  0  0  0  2  0  0  0  0  0  0
  -27.9930  -12.3880   18.5900 C   0  0  0  0  0  2  0  0  0  0  0  0
  -27.5930  -13.3180   19.7650 C   0  0  0  0  0  3  0  0  0  0  0  0
  -28.6500  -13.3320   20.8900 C   0  0  0  0  0  2  0  0  0  0  0  0
  -29.9250  -13.7290   20.2770 N   0  0  0  0  0  0  0  0  0  0  0  0
  -31.7210  -15.0400   19.9740 O   0  0  0  0  0  0  0  0  0  0  0  0
  -29.7610  -16.1790   20.4440 N   0  0  0  0  0  0  0  0  0  0  0  0
  -28.8210  -15.9900   20.7600 H   0  0  0  0  0  0  0  0  0  0  0  0
  -25.2150  -13.9050   20.5030 C   0  0  0  0  0  0  0  0  0  0  0  0
  -24.1490  -13.1320   20.8800 C   0  0  0  0  0  0  0  0  0  0  0  0
  -24.6140  -11.7810   20.8570 C   0  0  0  0  0  0  0  0  0  0  0  0
  -26.2560  -13.0240   20.2670 N   0  0  0  0  0  0  0  0  0  0  0  0
  -25.9040  -11.7420   20.5440 N   0  0  0  0  0  0  0  0  0  0  0  0
  -23.8840  -10.5210   21.0530 C   0  0  0  0  0  0  0  0  0  0  0  0
  -24.3250   -9.5470   21.9760 C   0  0  0  0  0  3  0  0  0  0  0  0
  -23.5940   -8.3530   22.1600 C   0  0  0  0  0  3  0  0  0  0  0  0
  -22.4070   -8.1260   21.4220 C   0  0  0  0  0  0  0  0  0  0  0  0
  -21.9860   -9.0890   20.4890 C   0  0  0  0  0  3  0  0  0  0  0  0
  -22.7170  -10.2730   20.3030 C   0  0  0  0  0  3  0  0  0  0  0  0
  -21.6460   -6.9850   21.5180 O   0  0  0  0  0  0  0  0  0  0  0  0
  -21.6270   -6.2270   22.6620 C   0  0  0  0  0  0  0  0  0  0  0  0
  -21.2550   -6.7720   23.9110 C   0  0  0  0  0  3  0  0  0  0  0  0
  -21.1810   -5.9420   25.0470 C   0  0  0  0  0  3  0  0  0  0  0  0
  -21.4680   -4.5670   24.9370 C   0  0  0  0  0  0  0  0  0  0  0  0
  -21.8350   -4.0240   23.6930 C   0  0  0  0  0  3  0  0  0  0  0  0
  -21.9110   -4.8500   22.5590 C   0  0  0  0  0  0  0  0  0  0  0  0
  -22.2430   -4.3170   21.3590 F   0  0  0  0  0  0  0  0  0  0  0  0
  -21.3910   -3.7670   26.0260 F   0  0  0  0  0  0  0  0  0  0  0  0
  -22.7530  -13.6130   21.1480 C   0  0  0  0  0  0  0  0  0  0  0  0
  -22.0250  -12.9240   22.0210 N   0  0  0  0  0  0  0  0  0  0  0  0
  -22.3160  -14.6350   20.6200 O   0  0  0  0  0  0  0  0  0  0  0  0
  -22.3930  -12.0950   22.4630 H   0  0  0  0  0  0  0  0  0  0  0  0
  -21.0880  -13.2270   22.2500 H   0  0  0  0  0  0  0  0  0  0  0  0
  -25.3780  -15.2740   20.3160 N   0  0  0  0  0  0  0  0  0  0  0  0
  -24.6060  -15.9230   20.4150 H   0  0  0  0  0  0  0  0  0  0  0  0
  -26.2120  -15.7070   19.9380 H   0  0  0  0  0  0  0  0  0  0  0  0
  2  5  1  0
  2  1  1  0
  3  2  2  0
  4  3  1  0
  6 17  2  0
  7  5  1  0
  7 12  1  0
  8 16  1  0
  8 18  1  0
  9 15  1  0
  9 11  1  0
 10 16  1  0
 11 10  1  0
 12 11  2  0
 13  7  2  0
 14 13  1  0
 14  9  2  0
 15  8  1  0
 16  6  1  0
 18 20  2  0
 19 18  1  0
 21 19  1  0
 22 31  2  0
 22 27  1  0
 23 19  1  0
 23 27  1  0
 24 23  1  0
 25 26  1  0
 25 24  1  0
 26 22  1  0
 27 28  2  0
 28 29  1  0
 30 29  2  0
 31 30  1  0
 32  6  1  0
 32 33  1  0
 32 42  1  0
 33 36  1  0
 34 38  1  0
 34 33  1  0
 35 34  2  0
 38 37  1  0
 40 38  1  0
 40 41  1  0
 40 39  1  0
 42 45  1  1
 42 43  1  0
 44 42  1  0
 46  1  1  0
 47 46  1  0
 47 49  1  0
 48 47  2  0
 51 50  1  0
 51 60  1  0
 51 49  1  0
 52 60  1  0
 53 58  1  0
 54 55  1  0
 54 53  1  0
 56 55  1  0
 56 65  1  0
 56 57  1  0
 58 52  1  0
 58 57  1  0
 59 52  2  0
 60 61  1  0
 62 63  2  0
 63 82  1  0
 64 63  1  0
 64 67  1  0
 65 62  1  0
 65 66  1  0
 66 64  2  0
 67 68  1  0
 68 69  2  0
 70 73  1  0
 70 69  1  0
 71 70  2  0
 72 71  1  0
 72 67  2  0
 73 74  1  0
 74 75  1  0
 75 76  2  0
 77 76  1  0
 77 81  1  0
 78 77  2  0
 79 74  2  0
 79 78  1  0
 80 79  1  0
 82 83  1  0
 83 86  1  0
 83 85  1  0
 84 82  2  0
 87 88  1  0
 87 62  1  0
 89 87  1  0
M  ISO  4   2 101   5 101  52 100  60 100
M  END
>  <TORSDO>  (12) 
F 21

>  <SCORE>  (12) 
-14.578

>  <name>  (12) 
11

>  <ligand_id>  (12) 
11

>  <original_smiles>  (12) 
[H]N=C(Oc1c([H])c([H])c2c(c1[H])C([H])([H])N(C(=O)C([H])(N([H])C(=O)C([H])(N([H])C([H])([H])[H])C([H])([H])[H])C(C([H])([H])[H])(C([H])([H])[H])C([H])([H])[H])C([H])(C(=O)N([H])C1([H])c3c([H])c([H])c([H])c([H])c3C([H])([H])C([H])([H])C1([H])[H])C2([H])[H])C([H])([H])C([H])([H])C(=O)C([H])([H])C([H])(N([H])C(=O)N1C([H])([H])C([H])([H])C([H])([H])C([H])(n2nc(-c3c([H])c([H])c(Oc4c([H])c([H])c(F)c([H])c4F)c([H])c3[H])c(C(=O)N([H])[H])c2N([H])[H])C1([H])[H])C([H])([H])[H]

>  <smiles>  (12) 
[H]N=C(Oc1c([H])c([H])c2c(c1[H])C([H])([H])N(C(=O)C([H])(N([H])C(=O)C([H])(N([H])C([H])([H])[H])C([H])([H])[H])C(C([H])([H])[H])(C([H])([H])[H])C([H])([H])[H])C([H])(C(=O)N([H])C1([H])c3c([H])c([H])c([H])c([H])c3C([H])([H])C([H])([H])C1([H])[H])C2([H])[H])C([H])([H])C([H])([H])C(=O)C([H])([H])C([H])(N([H])C(=O)N1C([H])([H])C([H])([H])C([H])([H])C([H])(n2nc(-c3c([H])c([H])c(Oc4c([H])c([H])c(F)c([H])c4F)c([H])c3[H])c(C(=O)N([H])[H])c2N([H])[H])C1([H])[H])C([H])([H])[H]

$$$$
12:0:0
     RDKit          3D

 87 94  0  0  1  0  0  0  0  0999 V2000
  -27.3490  -21.7150   19.8580 C   0  0  0  0  0  1  0  0  0  0  0  0
  -28.8430  -22.0630   19.9210 C   0  0  0  0  0  2  0  0  0  0  0  0
  -30.7840  -15.7840   19.2620 C   0  0  0  0  0  0  0  0  0  0  0  0
  -30.7250  -13.2420   18.4250 C   0  0  0  0  0  2  0  0  0  0  0  0
  -29.6230  -12.8520   17.4000 C   0  0  0  0  0  2  0  0  0  0  0  0
  -28.3190  -12.4800   18.1170 C   0  0  0  0  0  2  0  0  0  0  0  0
  -28.0200  -13.4630   19.2730 C   0  0  0  0  0  3  0  0  0  0  0  0
  -29.2430  -13.7790   20.1700 C   0  0  0  0  0  2  0  0  0  0  0  0
  -30.2620  -14.4150   19.3040 N   0  0  0  0  0  0  0  0  0  0  0  0
  -31.9250  -15.7190   18.7590 O   0  0  0  0  0  0  0  0  0  0  0  0
  -30.0990  -17.7920   20.9020 C   0  0  0  0  0  2  0  0  0  0  0  0
  -29.8460  -18.7290   18.9090 C   0  0  0  0  0  2  0  0  0  0  0  0
  -29.4810  -19.3040   21.0500 C   0  0  0  0  0  3  0  0  0  0  0  0
  -29.7380  -20.3050   19.8340 C   0  0  0  0  0  2  0  0  0  0  0  0
  -30.0990  -17.1710   19.5450 N   0  0  0  0  0  0  0  0  0  0  0  0
  -26.0080  -13.9550   20.7380 C   0  0  0  0  0  0  0  0  0  0  0  0
  -24.9750  -13.1850   21.1890 C   0  0  0  0  0  0  0  0  0  0  0  0
  -25.2410  -11.8550   20.7370 C   0  0  0  0  0  0  0  0  0  0  0  0
  -26.8370  -13.1010   20.0360 N   0  0  0  0  0  0  0  0  0  0  0  0
  -26.4050  -11.8120   20.0940 N   0  0  0  0  0  0  0  0  0  0  0  0
  -24.4200  -10.6400   20.8290 C   0  0  0  0  0  0  0  0  0  0  0  0
  -24.7820   -9.5630   21.6690 C   0  0  0  0  0  3  0  0  0  0  0  0
  -23.9630   -8.4170   21.7580 C   0  0  0  0  0  3  0  0  0  0  0  0
  -22.7660   -8.3400   21.0060 C   0  0  0  0  0  0  0  0  0  0  0  0
  -22.4220   -9.4040   20.1540 C   0  0  0  0  0  3  0  0  0  0  0  0
  -23.2410  -10.5410   20.0630 C   0  0  0  0  0  3  0  0  0  0  0  0
  -21.9220   -7.2560   21.0100 O   0  0  0  0  0  0  0  0  0  0  0  0
  -21.6050   -6.5930   22.1680 C   0  0  0  0  0  0  0  0  0  0  0  0
  -20.9840   -7.2470   23.2550 C   0  0  0  0  0  3  0  0  0  0  0  0
  -20.6120   -6.5130   24.3990 C   0  0  0  0  0  3  0  0  0  0  0  0
  -20.8530   -5.1270   24.4570 C   0  0  0  0  0  0  0  0  0  0  0  0
  -21.4660   -4.4730   23.3740 C   0  0  0  0  0  3  0  0  0  0  0  0
  -21.8380   -5.2030   22.2320 C   0  0  0  0  0  0  0  0  0  0  0  0
  -22.4100   -4.5650   21.1820 F   0  0  0  0  0  0  0  0  0  0  0  0
  -20.4890   -4.4200   25.5530 F   0  0  0  0  0  0  0  0  0  0  0  0
  -23.7570  -13.6800   21.9130 C   0  0  0  0  0  0  0  0  0  0  0  0
  -23.1980  -12.8650   22.7990 N   0  0  0  0  0  0  0  0  0  0  0  0
  -23.3260  -14.8170   21.7300 O   0  0  0  0  0  0  0  0  0  0  0  0
  -23.5690  -11.9400   22.9620 H   0  0  0  0  0  0  0  0  0  0  0  0
  -22.3900  -13.1700   23.3220 H   0  0  0  0  0  0  0  0  0  0  0  0
  -26.3000  -15.3120   20.8340 N   0  0  0  0  0  0  0  0  0  0  0  0
  -25.6780  -15.9660   21.2960 H   0  0  0  0  0  0  0  0  0  0  0  0
  -27.1050  -15.7600   20.4130 H   0  0  0  0  0  0  0  0  0  0  0  0
  -30.0330  -18.8630   23.5320 C   0  0  0  0  0  1  0  0  0  0  0  0
  -29.8850  -19.9060   22.4140 C   0  0  0  0  0  2  0  0  0  0  0  0
  -28.8480  -23.9400   19.3940 C   0  0  0  0  0  2  0  0  0  0  0  0
  -28.5380  -25.6250   19.8480 O   0  0  0  0  0  0  0  0  0  0  0  0
  -24.6650  -31.5990   22.8670 C   0  0  0  0  0  0  0  0  0  0  0  0
  -27.4950  -26.7730   19.7290 C   0  0  0  0  0  0  0  0  0  0  0  0
  -23.5680  -30.1950   21.1710 C   0  0  0  0  0  3  0  0  0  0  0  0
  -25.1170  -28.6770   19.7110 C   0  0  0  0  0  0  0  0  0  0  0  0
  -26.1330  -30.4800   21.0820 C   0  0  0  0  0  2  0  0  0  0  0  0
  -26.2800  -29.0760   20.3770 C   0  0  0  0  0  0  0  0  0  0  0  0
  -27.4450  -28.1480   20.3620 C   0  0  0  0  0  3  0  0  0  0  0  0
  -26.2940  -26.5850   18.9990 C   0  0  0  0  0  3  0  0  0  0  0  0
  -25.1610  -27.4620   19.0000 C   0  0  0  0  0  3  0  0  0  0  0  0
  -23.8550  -29.5570   19.7790 C   0  0  0  0  0  2  0  0  0  0  0  0
  -24.8090  -30.7910   21.7610 N   0  0  0  0  0  0  0  0  0  0  0  0
  -23.5530  -31.8220   23.3780 O   0  0  0  0  0  0  0  0  0  0  0  0
  -22.8990  -29.1500   22.1040 C   0  0  0  0  0  0  0  0  0  0  0  0
  -21.5640  -28.9880   22.0170 N   0  0  0  0  0  0  0  0  0  0  0  0
  -23.5920  -28.4830   22.8760 O   0  0  0  0  0  0  0  0  0  0  0  0
  -21.0540  -29.5760   21.3740 H   0  0  0  0  0  0  0  0  0  0  0  0
  -18.2030  -27.7470   22.6220 C   0  0  0  0  0  0  0  0  0  0  0  0
  -20.7760  -27.9950   22.7580 C   0  0  0  0  0  3  0  0  0  0  0  0
  -20.8380  -26.6130   22.0670 C   0  0  0  0  0  2  0  0  0  0  0  0
  -19.6800  -26.3730   21.0930 C   0  0  0  0  0  2  0  0  0  0  0  0
  -18.3370  -26.4610   21.8230 C   0  0  0  0  0  2  0  0  0  0  0  0
  -19.3460  -28.4750   23.0460 C   0  0  0  0  0  0  0  0  0  0  0  0
  -19.1630  -29.6790   23.7610 C   0  0  0  0  0  3  0  0  0  0  0  0
  -17.8700  -30.1550   24.0500 C   0  0  0  0  0  3  0  0  0  0  0  0
  -16.7420  -29.4240   23.6370 C   0  0  0  0  0  3  0  0  0  0  0  0
  -16.9110  -28.2210   22.9280 C   0  0  0  0  0  3  0  0  0  0  0  0
  -25.8860  -32.2940   23.5430 C   0  0  0  0  0  3  0  0  0  0  0  0
  -25.4650  -33.6400   23.9820 N   0  0  0  0  0  0  0  0  0  0  0  0
  -25.7090  -34.7800   23.3210 C   0  0  0  0  0  0  0  0  0  0  0  0
  -26.3650  -34.8140   22.2770 O   0  0  0  0  0  0  0  0  0  0  0  0
  -24.8750  -33.6790   24.7990 H   0  0  0  0  0  0  0  0  0  0  0  0
  -23.8460  -36.4720   23.1570 C   0  0  0  0  0  1  0  0  0  0  0  0
  -25.1350  -36.0900   23.9050 C   0  0  0  0  0  3  0  0  0  0  0  0
  -27.2150  -37.0700   24.7700 C   0  0  0  0  0  1  0  0  0  0  0  0
  -26.0850  -37.2240   23.8590 N   0  0  0  0  0  0  0  0  0  0  0  0
  -25.6140  -38.0970   24.0820 H   0  0  0  0  0  0  0  0  0  0  0  0
  -26.4550  -31.4850   24.7750 C   0  0  1  0  0  0  0  0  0  0  0  0
  -25.3840  -31.1170   25.8290 C   0  0  0  0  0  1  0  0  0  0  0  0
  -27.1230  -30.1700   24.3160 C   0  0  0  0  0  1  0  0  0  0  0  0
  -27.5560  -32.3100   25.4810 C   0  0  0  0  0  1  0  0  0  0  0  0
  1  2  1  0
  3  9  1  0
  3 15  1  0
  4  9  1  0
  5  6  1  0
  5  4  1  0
  7  6  1  0
  7 19  1  0
  7  8  1  0
  9  8  1  0
 10  3  2  0
 11 13  1  0
 12 15  1  0
 12 14  1  0
 13 45  1  0
 14 13  1  0
 15 11  1  0
 16 41  1  0
 16 17  2  0
 17 36  1  0
 18 21  1  0
 18 17  1  0
 19 20  1  0
 19 16  1  0
 20 18  2  0
 21 22  1  0
 22 23  2  0
 24 27  1  0
 24 23  1  0
 25 24  2  0
 26 25  1  0
 26 21  2  0
 27 28  1  0
 28 33  2  0
 28 29  1  0
 29 30  2  0
 30 31  1  0
 31 35  1  0
 32 31  2  0
 33 32  1  0
 34 33  1  0
 36 37  1  0
 37 39  1  0
 37 40  1  0
 38 36  2  0
 41 42  1  0
 43 41  1  0
 45 44  1  0
 46 47  1  0
 46  2  1  0
 48 59  2  0
 49 47  1  0
 49 54  1  0
 50 58  1  0
 50 60  1  0
 51 57  1  0
 51 53  1  0
 52 58  1  0
 53 52  1  0
 54 53  2  0
 55 56  1  0
 55 49  2  0
 56 51  2  0
 57 50  1  0
 58 48  1  0
 60 62  2  0
 61 60  1  0
 63 61  1  0
 64 73  2  0
 64 69  1  0
 65 61  1  0
 65 69  1  0
 66 65  1  0
 67 68  1  0
 67 66  1  0
 68 64  1  0
 69 70  2  0
 70 71  1  0
 72 71  2  0
 73 72  1  0
 74 48  1  0
 74 75  1  0
 74 84  1  0
 75 78  1  0
 76 80  1  0
 76 75  1  0
 77 76  2  0
 80 79  1  0
 82 80  1  0
 82 83  1  0
 82 81  1  0
 84 87  1  1
 84 85  1  0
 86 84  1  0
M  ISO  4   3 100  15 100  46 101  47 101
M  END
>  <TORSDO>  (13) 
F 18

>  <SCORE>  (13) 
-9.505

>  <name>  (13) 
12

>  <ligand_id>  (13) 
12

>  <original_smiles>  (13) 
[H]c1c([H])c([H])c2c(c1[H])C([H])([H])C([H])([H])C([H])([H])C2([H])N([H])C(=O)C1([H])N(C(=O)C([H])(N([H])C(=O)C([H])(N([H])C([H])([H])[H])C([H])([H])[H])C(C([H])([H])[H])(C([H])([H])[H])C([H])([H])[H])C([H])([H])c2c([H])c(OC([H])([H])C([H])(C([H])([H])[H])C3([H])C([H])([H])N(C(=O)N4C([H])([H])C([H])([H])C([H])([H])C([H])(n5nc(-c6c([H])c([H])c(Oc7c([H])c([H])c(F)c([H])c7F)c([H])c6[H])c(C(=O)N([H])[H])c5N([H])[H])C4([H])[H])C([H])([H])C3([H])C([H])([H])C([H])([H])[H])c([H])c([H])c2C1([H])[H]

>  <smiles>  (13) 
[H]c1c([H])c([H])c2c(c1[H])C([H])([H])C([H])([H])C([H])([H])C2([H])N([H])C(=O)C1([H])N(C(=O)C([H])(N([H])C(=O)C([H])(N([H])C([H])([H])[H])C([H])([H])[H])C(C([H])([H])[H])(C([H])([H])[H])C([H])([H])[H])C([H])([H])c2c([H])c(OC([H])([H])C([H])(C([H])([H])[H])C3([H])C([H])([H])N(C(=O)N4C([H])([H])C([H])([H])C([H])([H])C([H])(n5nc(-c6c([H])c([H])c(Oc7c([H])c([H])c(F)c([H])c7F)c([H])c6[H])c(C(=O)N([H])[H])c5N([H])[H])C4([H])[H])C([H])([H])C3([H])C([H])([H])C([H])([H])[H])c([H])c([H])c2C1([H])[H]

$$$$
13:0:0
     RDKit          3D

 92100  0  0  1  0  0  0  0  0999 V2000
  -29.3730  -19.0530   18.6670 C   0  0  0  0  0  2  0  0  0  0  0  0
  -29.3930  -19.8880   20.8510 C   0  0  0  0  0  2  0  0  0  0  0  0
  -28.7070  -20.5400   18.6920 C   0  0  0  0  0  3  0  0  0  0  0  0
  -29.2680  -18.3630   20.0600 C   0  0  0  0  0  3  0  0  0  0  0  0
  -28.7380  -21.1500   20.0700 N   0  0  2  0  0  4  0  0  0  0  0  0
  -27.7470  -21.0760   20.2870 H   0  0  0  0  0  0  0  0  0  0  0  0
  -30.4090  -15.4790   20.2380 C   0  0  0  0  0  0  0  0  0  0  0  0
  -30.4670  -12.9960   19.4480 C   0  0  0  0  0  2  0  0  0  0  0  0
  -29.5650  -12.7340   18.2120 C   0  0  0  0  0  2  0  0  0  0  0  0
  -28.1180  -12.4470   18.6390 C   0  0  0  0  0  2  0  0  0  0  0  0
  -27.6360  -13.4360   19.7280 C   0  0  0  0  0  3  0  0  0  0  0  0
  -28.6630  -13.6290   20.8670 C   0  0  0  0  0  2  0  0  0  0  0  0
  -29.8970  -14.1460   20.2470 N   0  0  0  0  0  0  0  0  0  0  0  0
  -31.6180  -15.5140   19.9560 O   0  0  0  0  0  0  0  0  0  0  0  0
  -29.5660  -16.7070   20.3680 N   0  0  0  0  0  0  0  0  0  0  0  0
  -28.6910  -16.3390   20.7130 H   0  0  0  0  0  0  0  0  0  0  0  0
  -25.2610  -13.9900   20.4710 C   0  0  0  0  0  0  0  0  0  0  0  0
  -24.1930  -13.2130   20.8180 C   0  0  0  0  0  0  0  0  0  0  0  0
  -24.6570  -11.8620   20.7800 C   0  0  0  0  0  0  0  0  0  0  0  0
  -26.3040  -13.1160   20.2250 N   0  0  0  0  0  0  0  0  0  0  0  0
  -25.9560  -11.8280   20.4850 N   0  0  0  0  0  0  0  0  0  0  0  0
  -23.9280  -10.5980   20.9570 C   0  0  0  0  0  0  0  0  0  0  0  0
  -24.3390   -9.6320   21.9000 C   0  0  0  0  0  3  0  0  0  0  0  0
  -23.6050   -8.4370   22.0660 C   0  0  0  0  0  3  0  0  0  0  0  0
  -22.4440   -8.2000   21.2900 C   0  0  0  0  0  0  0  0  0  0  0  0
  -22.0530   -9.1590   20.3390 C   0  0  0  0  0  3  0  0  0  0  0  0
  -22.7850  -10.3440   20.1690 C   0  0  0  0  0  3  0  0  0  0  0  0
  -21.6830   -7.0570   21.3630 O   0  0  0  0  0  0  0  0  0  0  0  0
  -21.6030   -6.3220   22.5200 C   0  0  0  0  0  0  0  0  0  0  0  0
  -21.1070   -6.8770   23.7190 C   0  0  0  0  0  3  0  0  0  0  0  0
  -20.9730   -6.0650   24.8640 C   0  0  0  0  0  3  0  0  0  0  0  0
  -21.3250   -4.7030   24.8080 C   0  0  0  0  0  0  0  0  0  0  0  0
  -21.8150   -4.1500   23.6110 C   0  0  0  0  0  3  0  0  0  0  0  0
  -21.9520   -4.9580   22.4680 C   0  0  0  0  0  0  0  0  0  0  0  0
  -22.4030   -4.4150   21.3120 F   0  0  0  0  0  0  0  0  0  0  0  0
  -21.1900   -3.9230   25.9060 F   0  0  0  0  0  0  0  0  0  0  0  0
  -22.7940  -13.6920   21.0710 C   0  0  0  0  0  0  0  0  0  0  0  0
  -22.0520  -12.9930   21.9200 N   0  0  0  0  0  0  0  0  0  0  0  0
  -22.3690  -14.7220   20.5480 O   0  0  0  0  0  0  0  0  0  0  0  0
  -22.4100  -12.1600   22.3640 H   0  0  0  0  0  0  0  0  0  0  0  0
  -21.1160  -13.3000   22.1340 H   0  0  0  0  0  0  0  0  0  0  0  0
  -25.4260  -15.3630   20.3220 N   0  0  0  0  0  0  0  0  0  0  0  0
  -24.6680  -16.0120   20.5030 H   0  0  0  0  0  0  0  0  0  0  0  0
  -26.2910  -15.8230   20.0810 H   0  0  0  0  0  0  0  0  0  0  0  0
  -27.2370  -20.5000   18.2350 C   0  0  0  0  0  0  0  0  0  0  0  0
  -26.9360  -19.9380   17.0680 N   0  0  0  0  0  0  0  0  0  0  0  0
  -26.3570  -20.9830   18.9470 O   0  0  0  0  0  0  0  0  0  0  0  0
  -27.6530  -19.5290   16.4820 H   0  0  0  0  0  0  0  0  0  0  0  0
  -25.9740  -19.8880   16.7620 H   0  0  0  0  0  0  0  0  0  0  0  0
  -29.0190  -22.8070   20.2670 C   0  0  0  0  0  3  0  0  0  0  0  0
  -27.9860  -24.2900   20.0260 C   0  0  0  0  0  3  0  0  0  0  0  0
  -28.1920  -25.9350   20.2110 O   0  0  0  0  0  0  0  0  0  0  0  0
  -24.6050  -31.8820   23.2450 C   0  0  0  0  0  0  0  0  0  0  0  0
  -27.1710  -27.0330   20.1660 C   0  0  0  0  0  0  0  0  0  0  0  0
  -23.4080  -30.4980   21.5990 C   0  0  0  0  0  3  0  0  0  0  0  0
  -24.8600  -28.9100   20.1520 C   0  0  0  0  0  0  0  0  0  0  0  0
  -25.9740  -30.7210   21.4400 C   0  0  0  0  0  2  0  0  0  0  0  0
  -26.0490  -29.3150   20.7690 C   0  0  0  0  0  0  0  0  0  0  0  0
  -27.2000  -28.4000   20.7490 C   0  0  0  0  0  3  0  0  0  0  0  0
  -25.9470  -26.7840   19.5030 C   0  0  0  0  0  3  0  0  0  0  0  0
  -24.8350  -27.6650   19.5010 C   0  0  0  0  0  3  0  0  0  0  0  0
  -23.6350  -29.8230   20.2150 C   0  0  0  0  0  2  0  0  0  0  0  0
  -24.6860  -31.0610   22.1470 N   0  0  0  0  0  0  0  0  0  0  0  0
  -23.5180  -32.1600   23.7780 O   0  0  0  0  0  0  0  0  0  0  0  0
  -22.7260  -29.4900   22.5590 C   0  0  0  0  0  0  0  0  0  0  0  0
  -21.3970  -29.3090   22.4360 N   0  0  0  0  0  0  0  0  0  0  0  0
  -23.3990  -28.8690   23.3870 O   0  0  0  0  0  0  0  0  0  0  0  0
  -20.9040  -29.8630   21.7470 H   0  0  0  0  0  0  0  0  0  0  0  0
  -18.0350  -28.0430   22.9400 C   0  0  0  0  0  0  0  0  0  0  0  0
  -20.5880  -28.3550   23.2040 C   0  0  0  0  0  3  0  0  0  0  0  0
  -20.7170  -26.9260   22.6300 C   0  0  0  0  0  2  0  0  0  0  0  0
  -19.6220  -26.5860   21.6130 C   0  0  0  0  0  2  0  0  0  0  0  0
  -18.2370  -26.7010   22.2540 C   0  0  0  0  0  2  0  0  0  0  0  0
  -19.1390  -28.8260   23.3710 C   0  0  0  0  0  0  0  0  0  0  0  0
  -18.8930  -30.0780   23.9740 C   0  0  0  0  0  3  0  0  0  0  0  0
  -17.5770  -30.5500   24.1460 C   0  0  0  0  0  3  0  0  0  0  0  0
  -16.4890  -29.7670   23.7280 C   0  0  0  0  0  3  0  0  0  0  0  0
  -16.7200  -28.5150   23.1310 C   0  0  0  0  0  3  0  0  0  0  0  0
  -25.8760  -32.5290   23.8790 C   0  0  0  0  0  3  0  0  0  0  0  0
  -26.3590  -31.7900   25.1870 C   0  0  1  0  0  0  0  0  0  0  0  0
  -25.2480  -31.5990   26.2440 C   0  0  0  0  0  1  0  0  0  0  0  0
  -26.9340  -30.3950   24.8550 C   0  0  0  0  0  1  0  0  0  0  0  0
  -27.5050  -32.5930   25.8480 C   0  0  0  0  0  1  0  0  0  0  0  0
  -25.5660  -33.9380   24.1810 N   0  0  0  0  0  0  0  0  0  0  0  0
  -25.9060  -34.9820   23.4120 C   0  0  0  0  0  0  0  0  0  0  0  0
  -26.5760  -34.8620   22.3840 O   0  0  0  0  0  0  0  0  0  0  0  0
  -24.9770  -34.1070   24.9820 H   0  0  0  0  0  0  0  0  0  0  0  0
  -24.2000  -36.7960   23.0340 C   0  0  0  0  0  1  0  0  0  0  0  0
  -25.4320  -36.3830   23.8530 C   0  0  0  0  0  3  0  0  0  0  0  0
  -27.5640  -37.2700   24.6940 C   0  0  0  0  0  1  0  0  0  0  0  0
  -26.4750  -37.4260   23.7320 N   0  0  0  0  0  0  0  0  0  0  0  0
  -26.0760  -38.3530   23.8530 H   0  0  0  0  0  0  0  0  0  0  0  0
  1  3  1  0
  1  4  1  0
  3 45  1  0
  3  5  1  0
  4 15  1  0
  4  2  1  0
  5 50  1  0
  5  6  1  1
  5  2  1  0
  7 13  1  0
  7 15  1  0
  8 13  1  0
  9 10  1  0
  9  8  1  0
 11 10  1  0
 11 20  1  0
 11 12  1  0
 13 12  1  0
 14  7  2  0
 15 16  1  0
 17 18  2  0
 18 37  1  0
 19 18  1  0
 19 22  1  0
 20 17  1  0
 20 21  1  0
 21 19  2  0
 22 23  1  0
 23 24  2  0
 25 28  1  0
 25 24  1  0
 26 25  2  0
 27 26  1  0
 27 22  2  0
 28 29  1  0
 29 30  1  0
 30 31  2  0
 32 31  1  0
 32 36  1  0
 33 32  2  0
 34 29  2  0
 34 33  1  0
 35 34  1  0
 37 38  1  0
 38 41  1  0
 38 40  1  0
 39 37  2  0
 42 17  1  0
 42 43  1  0
 44 42  1  0
 45 47  2  0
 46 45  1  0
 48 46  1  0
 49 46  1  0
 51 52  1  0
 51 50  2  0
 53 64  2  0
 54 52  1  0
 54 59  1  0
 55 63  1  0
 55 65  1  0
 56 62  1  0
 56 58  1  0
 57 63  1  0
 58 57  1  0
 59 58  2  0
 60 54  2  0
 61 60  1  0
 61 56  2  0
 62 55  1  0
 63 53  1  0
 65 67  2  0
 66 65  1  0
 68 66  1  0
 69 78  2  0
 69 74  1  0
 70 66  1  0
 70 74  1  0
 71 70  1  0
 72 73  1  0
 72 71  1  0
 73 69  1  0
 74 75  2  0
 75 76  1  0
 77 76  2  0
 78 77  1  0
 79 53  1  0
 79 84  1  0
 79 80  1  0
 80 83  1  1
 80 81  1  0
 82 80  1  0
 84 87  1  0
 85 89  1  0
 85 84  1  0
 86 85  2  0
 89 88  1  0
 91 92  1  0
 91 89  1  0
 91 90  1  0
M  ISO  4   7 100  15 100  51 101  52 101
M  END
>  <TORSDO>  (14) 
F 19

>  <SCORE>  (14) 
-15.990

>  <name>  (14) 
13

>  <ligand_id>  (14) 
13

>  <original_smiles>  (14) 
[H]c1c([H])c([H])c2c(c1[H])C([H])([H])C([H])([H])C([H])([H])C2([H])N([H])C(=O)C1([H])N(C(=O)C([H])(N([H])C(=O)C([H])(N([H])C([H])([H])[H])C([H])([H])[H])C(C([H])([H])[H])(C([H])([H])[H])C([H])([H])[H])C([H])([H])c2c([H])c(OC([H])([H])C([H])([H])[N+]3([H])C([H])([H])C([H])(N([H])C(=O)N4C([H])([H])C([H])([H])C([H])([H])C([H])(n5nc(-c6c([H])c([H])c(Oc7c([H])c([H])c(F)c([H])c7F)c([H])c6[H])c(C(=O)N([H])[H])c5N([H])[H])C4([H])[H])C([H])([H])C3([H])C(=O)N([H])[H])c([H])c([H])c2C1([H])[H]

>  <smiles>  (14) 
[H]c1c([H])c([H])c2c(c1[H])C([H])([H])C([H])([H])C([H])([H])C2([H])N([H])C(=O)C1([H])N(C(=O)C([H])(N([H])C(=O)C([H])(N([H])C([H])([H])[H])C([H])([H])[H])C(C([H])([H])[H])(C([H])([H])[H])C([H])([H])[H])C([H])([H])c2c([H])c(OC([H])([H])C([H])([H])[N+]3([H])C([H])([H])C([H])(N([H])C(=O)N4C([H])([H])C([H])([H])C([H])([H])C([H])(n5nc(-c6c([H])c([H])c(Oc7c([H])c([H])c(F)c([H])c7F)c([H])c6[H])c(C(=O)N([H])[H])c5N([H])[H])C4([H])[H])C([H])([H])C3([H])C(=O)N([H])[H])c([H])c([H])c2C1([H])[H]

$$$$
14:0:0
     RDKit          3D

 87 95  0  0  1  0  0  0  0  0999 V2000
  -28.5450  -20.9950   20.0340 O   0  0  0  0  0  0  0  0  0  0  0  0
  -30.4580  -15.4590   20.1510 C   0  0  0  0  0  0  0  0  0  0  0  0
  -30.2910  -13.0170   19.2590 C   0  0  0  0  0  2  0  0  0  0  0  0
  -29.3560  -12.7290   18.0650 C   0  0  0  0  0  2  0  0  0  0  0  0
  -27.9390  -12.4290   18.5710 C   0  0  0  0  0  2  0  0  0  0  0  0
  -27.5020  -13.4170   19.6820 C   0  0  0  0  0  3  0  0  0  0  0  0
  -28.5820  -13.6810   20.7550 C   0  0  0  0  0  2  0  0  0  0  0  0
  -29.7550  -14.2130   20.0390 N   0  0  0  0  0  0  0  0  0  0  0  0
  -31.6660  -15.2290   19.9750 O   0  0  0  0  0  0  0  0  0  0  0  0
  -28.9870  -17.9070   20.2110 C   0  0  0  0  0  0  0  0  0  0  0  0
  -30.7790  -19.4090   20.1240 C   0  0  0  0  0  2  0  0  0  0  0  0
  -29.3140  -19.5890   20.5140 C   0  0  0  0  0  3  0  0  0  0  0  0
  -31.2050  -17.9120   20.4450 C   0  0  0  0  0  3  0  0  0  0  0  0
  -31.7950  -17.8260   21.8720 C   0  0  0  0  0  1  0  0  0  0  0  0
  -30.0760  -16.9310   20.2700 N   0  0  0  0  0  0  0  0  0  0  0  0
  -27.8280  -17.5580   19.9670 O   0  0  0  0  0  0  0  0  0  0  0  0
  -25.1710  -13.9380   20.5460 C   0  0  0  0  0  0  0  0  0  0  0  0
  -24.1260  -13.1470   20.9300 C   0  0  0  0  0  0  0  0  0  0  0  0
  -24.5990  -11.7990   20.8570 C   0  0  0  0  0  0  0  0  0  0  0  0
  -26.2080  -13.0750   20.2480 N   0  0  0  0  0  0  0  0  0  0  0  0
  -25.8800  -11.7800   20.5050 N   0  0  0  0  0  0  0  0  0  0  0  0
  -23.8830  -10.5300   21.0440 C   0  0  0  0  0  0  0  0  0  0  0  0
  -24.3330   -9.5520   21.9580 C   0  0  0  0  0  3  0  0  0  0  0  0
  -23.6120   -8.3510   22.1370 C   0  0  0  0  0  3  0  0  0  0  0  0
  -22.4260   -8.1200   21.4020 C   0  0  0  0  0  0  0  0  0  0  0  0
  -21.9930   -9.0860   20.4750 C   0  0  0  0  0  3  0  0  0  0  0  0
  -22.7160  -10.2770   20.2950 C   0  0  0  0  0  3  0  0  0  0  0  0
  -21.6740   -6.9720   21.4900 O   0  0  0  0  0  0  0  0  0  0  0  0
  -21.6350   -6.2250   22.6400 C   0  0  0  0  0  0  0  0  0  0  0  0
  -21.1890   -6.7660   23.8660 C   0  0  0  0  0  3  0  0  0  0  0  0
  -21.0980   -5.9450   25.0080 C   0  0  0  0  0  3  0  0  0  0  0  0
  -21.4430   -4.5830   24.9240 C   0  0  0  0  0  0  0  0  0  0  0  0
  -21.8820   -4.0400   23.7040 C   0  0  0  0  0  3  0  0  0  0  0  0
  -21.9740   -4.8590   22.5640 C   0  0  0  0  0  0  0  0  0  0  0  0
  -22.3770   -4.3260   21.3850 F   0  0  0  0  0  0  0  0  0  0  0  0
  -21.3500   -3.7910   26.0180 F   0  0  0  0  0  0  0  0  0  0  0  0
  -22.7360  -13.6120   21.2500 C   0  0  0  0  0  0  0  0  0  0  0  0
  -22.0360  -12.8960   22.1210 N   0  0  0  0  0  0  0  0  0  0  0  0
  -22.2840  -14.6480   20.7630 O   0  0  0  0  0  0  0  0  0  0  0  0
  -22.4180  -12.0580   22.5360 H   0  0  0  0  0  0  0  0  0  0  0  0
  -21.1050  -13.1890   22.3790 H   0  0  0  0  0  0  0  0  0  0  0  0
  -25.3230  -15.3140   20.3960 N   0  0  0  0  0  0  0  0  0  0  0  0
  -24.5600  -15.9610   20.5640 H   0  0  0  0  0  0  0  0  0  0  0  0
  -26.1750  -15.7820   20.1040 H   0  0  0  0  0  0  0  0  0  0  0  0
  -28.7330  -22.6190   20.4050 C   0  0  0  0  0  3  0  0  0  0  0  0
  -27.8490  -24.2020   20.0630 C   0  0  0  0  0  3  0  0  0  0  0  0
  -28.0790  -25.8450   20.3150 O   0  0  0  0  0  0  0  0  0  0  0  0
  -24.5890  -31.9180   23.2590 C   0  0  0  0  0  0  0  0  0  0  0  0
  -27.0930  -26.9810   20.2400 C   0  0  0  0  0  0  0  0  0  0  0  0
  -23.3820  -30.5260   21.6270 C   0  0  0  0  0  3  0  0  0  0  0  0
  -24.8150  -28.9060   20.1980 C   0  0  0  0  0  0  0  0  0  0  0  0
  -25.9510  -30.7100   21.4730 C   0  0  0  0  0  2  0  0  0  0  0  0
  -26.0100  -29.2960   20.8170 C   0  0  0  0  0  0  0  0  0  0  0  0
  -27.1410  -28.3540   20.8110 C   0  0  0  0  0  3  0  0  0  0  0  0
  -25.8710  -26.7580   19.5660 C   0  0  0  0  0  3  0  0  0  0  0  0
  -24.7740  -27.6600   19.5510 C   0  0  0  0  0  3  0  0  0  0  0  0
  -23.6040  -29.8390   20.2500 C   0  0  0  0  0  2  0  0  0  0  0  0
  -24.6630  -31.0800   22.1730 N   0  0  0  0  0  0  0  0  0  0  0  0
  -23.5020  -32.2140   23.7830 O   0  0  0  0  0  0  0  0  0  0  0  0
  -22.6850  -29.5360   22.5980 C   0  0  0  0  0  0  0  0  0  0  0  0
  -21.3560  -29.3610   22.4650 N   0  0  0  0  0  0  0  0  0  0  0  0
  -23.3470  -28.9270   23.4420 O   0  0  0  0  0  0  0  0  0  0  0  0
  -20.8730  -29.9050   21.7630 H   0  0  0  0  0  0  0  0  0  0  0  0
  -17.9840  -28.1100   22.9460 C   0  0  0  0  0  0  0  0  0  0  0  0
  -20.5350  -28.4240   23.2400 C   0  0  0  0  0  3  0  0  0  0  0  0
  -20.6670  -26.9840   22.6920 C   0  0  0  0  0  2  0  0  0  0  0  0
  -19.5860  -26.6260   21.6670 C   0  0  0  0  0  2  0  0  0  0  0  0
  -18.1930  -26.7550   22.2900 C   0  0  0  0  0  2  0  0  0  0  0  0
  -19.0830  -28.9000   23.3770 C   0  0  0  0  0  0  0  0  0  0  0  0
  -18.8310  -30.1640   23.9550 C   0  0  0  0  0  3  0  0  0  0  0  0
  -17.5140  -30.6390   24.1020 C   0  0  0  0  0  3  0  0  0  0  0  0
  -16.4300  -29.8480   23.6840 C   0  0  0  0  0  3  0  0  0  0  0  0
  -16.6660  -28.5850   23.1120 C   0  0  0  0  0  3  0  0  0  0  0  0
  -25.8630  -32.5570   23.8860 C   0  0  0  0  0  3  0  0  0  0  0  0
  -25.5560  -33.9630   24.2080 N   0  0  0  0  0  0  0  0  0  0  0  0
  -25.8820  -35.0160   23.4460 C   0  0  0  0  0  0  0  0  0  0  0  0
  -26.5350  -34.9070   22.4050 O   0  0  0  0  0  0  0  0  0  0  0  0
  -24.9730  -34.1210   25.0170 H   0  0  0  0  0  0  0  0  0  0  0  0
  -24.1520  -36.8210   23.1320 C   0  0  0  0  0  1  0  0  0  0  0  0
  -25.4130  -36.4110   23.9100 C   0  0  0  0  0  3  0  0  0  0  0  0
  -27.5680  -37.3020   24.6860 C   0  0  0  0  0  1  0  0  0  0  0  0
  -26.4470  -37.4610   23.7640 N   0  0  0  0  0  0  0  0  0  0  0  0
  -26.0460  -38.3830   23.9070 H   0  0  0  0  0  0  0  0  0  0  0  0
  -26.3610  -31.8030   25.1830 C   0  0  1  0  0  0  0  0  0  0  0  0
  -25.2550  -31.5910   26.2430 C   0  0  0  0  0  1  0  0  0  0  0  0
  -26.9390  -30.4150   24.8280 C   0  0  0  0  0  1  0  0  0  0  0  0
  -27.5110  -32.6010   25.8430 C   0  0  0  0  0  1  0  0  0  0  0  0
  1 45  1  0
  2 15  1  0
  3  8  1  0
  4  5  1  0
  4  3  1  0
  6  5  1  0
  6 20  1  0
  6  7  1  0
  8  2  1  0
  8  7  1  0
  9  2  2  0
 10 15  1  0
 10 12  1  0
 11 13  1  0
 11 12  1  0
 12  1  1  0
 13 14  1  0
 15 13  1  0
 16 10  2  0
 17 18  2  0
 18 37  1  0
 19 18  1  0
 19 22  1  0
 20 21  1  0
 20 17  1  0
 21 19  2  0
 22 23  1  0
 23 24  2  0
 25 28  1  0
 25 24  1  0
 26 25  2  0
 27 26  1  0
 27 22  2  0
 28 29  1  0
 29 30  1  0
 30 31  2  0
 32 31  1  0
 32 36  1  0
 33 32  2  0
 34 29  2  0
 34 33  1  0
 35 34  1  0
 37 38  1  0
 38 41  1  0
 38 40  1  0
 39 37  2  0
 42 17  1  0
 42 43  1  0
 44 42  1  0
 46 47  1  0
 46 45  2  0
 48 59  2  0
 49 47  1  0
 49 54  1  0
 50 58  1  0
 50 60  1  0
 51 57  1  0
 51 53  1  0
 52 58  1  0
 53 52  1  0
 54 53  2  0
 55 49  2  0
 56 55  1  0
 56 51  2  0
 57 50  1  0
 58 48  1  0
 60 62  2  0
 61 60  1  0
 63 61  1  0
 64 73  2  0
 64 69  1  0
 65 61  1  0
 65 69  1  0
 66 65  1  0
 67 68  1  0
 67 66  1  0
 68 64  1  0
 69 70  2  0
 70 71  1  0
 72 71  2  0
 73 72  1  0
 74 48  1  0
 74 75  1  0
 74 84  1  0
 75 78  1  0
 76 80  1  0
 76 75  1  0
 77 76  2  0
 80 79  1  0
 82 83  1  0
 82 80  1  0
 82 81  1  0
 84 87  1  1
 84 85  1  0
 86 84  1  0
M  ISO  4   2 100  15 100  46 101  47 101
M  END
>  <TORSDO>  (15) 
F 18

>  <SCORE>  (15) 
-16.487

>  <name>  (15) 
14

>  <ligand_id>  (15) 
14

>  <original_smiles>  (15) 
[H]c1c([H])c([H])c2c(c1[H])C([H])([H])C([H])([H])C([H])([H])C2([H])N([H])C(=O)C1([H])N(C(=O)C([H])(N([H])C(=O)C([H])(N([H])C([H])([H])[H])C([H])([H])[H])C(C([H])([H])[H])(C([H])([H])[H])C([H])([H])[H])C([H])([H])c2c([H])c(OC([H])([H])C([H])([H])OC3([H])C(=O)N(C(=O)N4C([H])([H])C([H])([H])C([H])([H])C([H])(n5nc(-c6c([H])c([H])c(Oc7c([H])c([H])c(F)c([H])c7F)c([H])c6[H])c(C(=O)N([H])[H])c5N([H])[H])C4([H])[H])C([H])(C([H])([H])[H])C3([H])[H])c([H])c([H])c2C1([H])[H]

>  <smiles>  (15) 
[H]c1c([H])c([H])c2c(c1[H])C([H])([H])C([H])([H])C([H])([H])C2([H])N([H])C(=O)C1([H])N(C(=O)C([H])(N([H])C(=O)C([H])(N([H])C([H])([H])[H])C([H])([H])[H])C(C([H])([H])[H])(C([H])([H])[H])C([H])([H])[H])C([H])([H])c2c([H])c(OC([H])([H])C([H])([H])OC3([H])C(=O)N(C(=O)N4C([H])([H])C([H])([H])C([H])([H])C([H])(n5nc(-c6c([H])c([H])c(Oc7c([H])c([H])c(F)c([H])c7F)c([H])c6[H])c(C(=O)N([H])[H])c5N([H])[H])C4([H])[H])C([H])(C([H])([H])[H])C3([H])[H])c([H])c([H])c2C1([H])[H]

$$$$
15:0:0
     RDKit          3D

 87 95  0  0  1  0  0  0  0  0999 V2000
  -26.8480  -21.2880   20.0810 C   0  0  0  0  0  1  0  0  0  0  0  0
  -28.3200  -21.3810   20.5130 C   0  0  0  0  0  3  0  0  0  0  0  0
  -28.8960  -17.3350   19.4580 C   0  0  0  0  0  3  0  0  0  0  0  0
  -30.4590  -17.7930   21.1080 C   0  0  0  0  0  3  0  0  0  0  0  0
  -28.4880  -18.7560   19.4750 C   0  0  0  0  0  3  0  0  0  0  0  0
  -30.0360  -19.2080   21.1380 C   0  0  0  0  0  3  0  0  0  0  0  0
  -29.9100  -16.7210   20.2900 C   0  0  0  0  0  0  0  0  0  0  0  0
  -29.0170  -19.8240   20.3140 C   0  0  0  0  0  0  0  0  0  0  0  0
  -30.5630  -15.2090   20.1470 C   0  0  0  0  0  0  0  0  0  0  0  0
  -30.4460  -12.8050   19.2660 C   0  0  0  0  0  2  0  0  0  0  0  0
  -29.4970  -12.6670   18.0520 C   0  0  0  0  0  2  0  0  0  0  0  0
  -28.0600  -12.4050   18.5320 C   0  0  0  0  0  2  0  0  0  0  0  0
  -27.6460  -13.3650   19.6760 C   0  0  0  0  0  3  0  0  0  0  0  0
  -28.7200  -13.4930   20.7730 C   0  0  0  0  0  2  0  0  0  0  0  0
  -29.9550  -13.9380   20.1200 N   0  0  0  0  0  0  0  0  0  0  0  0
  -31.7740  -15.1740   19.8910 O   0  0  0  0  0  0  0  0  0  0  0  0
  -25.3080  -13.9100   20.5350 C   0  0  0  0  0  0  0  0  0  0  0  0
  -24.2570  -13.1220   20.9140 C   0  0  0  0  0  0  0  0  0  0  0  0
  -24.7200  -11.7730   20.8290 C   0  0  0  0  0  0  0  0  0  0  0  0
  -26.3370  -13.0410   20.2250 N   0  0  0  0  0  0  0  0  0  0  0  0
  -25.9990  -11.7480   20.4730 N   0  0  0  0  0  0  0  0  0  0  0  0
  -23.9990  -10.5070   21.0080 C   0  0  0  0  0  0  0  0  0  0  0  0
  -24.4300   -9.5360   21.9400 C   0  0  0  0  0  3  0  0  0  0  0  0
  -23.7060   -8.3350   22.1090 C   0  0  0  0  0  3  0  0  0  0  0  0
  -22.5380   -8.0960   21.3470 C   0  0  0  0  0  0  0  0  0  0  0  0
  -22.1280   -9.0560   20.4040 C   0  0  0  0  0  3  0  0  0  0  0  0
  -22.8510  -10.2480   20.2340 C   0  0  0  0  0  3  0  0  0  0  0  0
  -21.7870   -6.9490   21.4250 O   0  0  0  0  0  0  0  0  0  0  0  0
  -21.6880   -6.2300   22.5890 C   0  0  0  0  0  0  0  0  0  0  0  0
  -21.1910   -6.8060   23.7780 C   0  0  0  0  0  3  0  0  0  0  0  0
  -21.0400   -6.0140   24.9330 C   0  0  0  0  0  3  0  0  0  0  0  0
  -21.3750   -4.6470   24.9010 C   0  0  0  0  0  0  0  0  0  0  0  0
  -21.8660   -4.0720   23.7150 C   0  0  0  0  0  3  0  0  0  0  0  0
  -22.0180   -4.8610   22.5620 C   0  0  0  0  0  0  0  0  0  0  0  0
  -22.4710   -4.2950   21.4160 F   0  0  0  0  0  0  0  0  0  0  0  0
  -21.2230   -3.8830   26.0070 F   0  0  0  0  0  0  0  0  0  0  0  0
  -22.8710  -13.5920   21.2420 C   0  0  0  0  0  0  0  0  0  0  0  0
  -22.1740  -12.8760   22.1180 N   0  0  0  0  0  0  0  0  0  0  0  0
  -22.4170  -14.6300   20.7590 O   0  0  0  0  0  0  0  0  0  0  0  0
  -22.5580  -12.0350   22.5240 H   0  0  0  0  0  0  0  0  0  0  0  0
  -21.2470  -13.1720   22.3820 H   0  0  0  0  0  0  0  0  0  0  0  0
  -25.4710  -15.2860   20.4020 N   0  0  0  0  0  0  0  0  0  0  0  0
  -24.7330  -15.9450   20.6180 H   0  0  0  0  0  0  0  0  0  0  0  0
  -26.3400  -15.7360   20.1420 H   0  0  0  0  0  0  0  0  0  0  0  0
  -28.8260  -23.0110   20.1510 C   0  0  0  0  0  3  0  0  0  0  0  0
  -27.8700  -24.4780   20.2460 C   0  0  0  0  0  3  0  0  0  0  0  0
  -28.1930  -26.0510   20.1300 O   0  0  0  0  0  0  0  0  0  0  0  0
  -24.6290  -31.8690   23.1710 C   0  0  0  0  0  0  0  0  0  0  0  0
  -27.1710  -27.1040   20.0920 C   0  0  0  0  0  0  0  0  0  0  0  0
  -23.4240  -30.4890   21.5270 C   0  0  0  0  0  3  0  0  0  0  0  0
  -24.8650  -28.9230   20.0750 C   0  0  0  0  0  0  0  0  0  0  0  0
  -25.9830  -30.7350   21.3570 C   0  0  0  0  0  2  0  0  0  0  0  0
  -26.0530  -29.3410   20.6880 C   0  0  0  0  0  0  0  0  0  0  0  0
  -27.2060  -28.4500   20.6750 C   0  0  0  0  0  3  0  0  0  0  0  0
  -25.9590  -26.8230   19.4250 C   0  0  0  0  0  3  0  0  0  0  0  0
  -24.8370  -27.6830   19.4220 C   0  0  0  0  0  3  0  0  0  0  0  0
  -23.6400  -29.8260   20.1400 C   0  0  0  0  0  2  0  0  0  0  0  0
  -24.6990  -31.0550   22.0710 N   0  0  0  0  0  0  0  0  0  0  0  0
  -23.5430  -32.1460   23.7060 O   0  0  0  0  0  0  0  0  0  0  0  0
  -22.7490  -29.4720   22.4830 C   0  0  0  0  0  0  0  0  0  0  0  0
  -21.4190  -29.3020   22.3670 N   0  0  0  0  0  0  0  0  0  0  0  0
  -23.4260  -28.8370   23.2960 O   0  0  0  0  0  0  0  0  0  0  0  0
  -20.9260  -29.8660   21.6880 H   0  0  0  0  0  0  0  0  0  0  0  0
  -18.0420  -28.1000   22.9040 C   0  0  0  0  0  0  0  0  0  0  0  0
  -20.6060  -28.3560   23.1360 C   0  0  0  0  0  3  0  0  0  0  0  0
  -20.6960  -26.9330   22.5370 C   0  0  0  0  0  2  0  0  0  0  0  0
  -19.5810  -26.6280   21.5330 C   0  0  0  0  0  2  0  0  0  0  0  0
  -18.2080  -26.7630   22.1990 C   0  0  0  0  0  2  0  0  0  0  0  0
  -19.1680  -28.8540   23.3290 C   0  0  0  0  0  0  0  0  0  0  0  0
  -18.9570  -30.1040   23.9500 C   0  0  0  0  0  3  0  0  0  0  0  0
  -17.6560  -30.6010   24.1470 C   0  0  0  0  0  3  0  0  0  0  0  0
  -16.5440  -29.8430   23.7360 C   0  0  0  0  0  3  0  0  0  0  0  0
  -16.7390  -28.5930   23.1200 C   0  0  0  0  0  3  0  0  0  0  0  0
  -25.9060  -32.5060   23.7980 C   0  0  0  0  0  3  0  0  0  0  0  0
  -26.4360  -31.7160   25.0580 C   0  0  1  0  0  0  0  0  0  0  0  0
  -25.3520  -31.4560   26.1320 C   0  0  0  0  0  1  0  0  0  0  0  0
  -27.0230  -30.3480   24.6460 C   0  0  0  0  0  1  0  0  0  0  0  0
  -27.5870  -32.5050   25.7240 C   0  0  0  0  0  1  0  0  0  0  0  0
  -25.5830  -33.8940   24.1650 N   0  0  0  0  0  0  0  0  0  0  0  0
  -25.8690  -34.9710   23.4200 C   0  0  0  0  0  0  0  0  0  0  0  0
  -26.4980  -34.8990   22.3610 O   0  0  0  0  0  0  0  0  0  0  0  0
  -25.0200  -34.0220   24.9940 H   0  0  0  0  0  0  0  0  0  0  0  0
  -24.0920  -36.7390   23.1950 C   0  0  0  0  0  1  0  0  0  0  0  0
  -25.3830  -36.3430   23.9280 C   0  0  0  0  0  3  0  0  0  0  0  0
  -27.5420  -37.2600   24.6590 C   0  0  0  0  0  1  0  0  0  0  0  0
  -26.3900  -37.4170   23.7760 N   0  0  0  0  0  0  0  0  0  0  0  0
  -25.9750  -38.3280   23.9560 H   0  0  0  0  0  0  0  0  0  0  0  0
  2  1  1  0
  3  5  2  0
  3  7  1  0
  4  6  1  0
  5  8  1  0
  7  4  2  0
  8  2  1  0
  8  6  2  0
  9  7  1  0
 10 15  1  0
 11 12  1  0
 11 10  1  0
 13 12  1  0
 13 20  1  0
 13 14  1  0
 15  9  1  0
 15 14  1  0
 16  9  2  0
 17 18  2  0
 18 37  1  0
 19 18  1  0
 19 22  1  0
 20 21  1  0
 20 17  1  0
 21 19  2  0
 22 23  1  0
 23 24  2  0
 25 28  1  0
 25 24  1  0
 26 25  2  0
 27 26  1  0
 27 22  2  0
 28 29  1  0
 29 30  1  0
 30 31  2  0
 32 31  1  0
 32 36  1  0
 33 32  2  0
 34 29  2  0
 34 33  1  0
 35 34  1  0
 37 38  1  0
 38 41  1  0
 38 40  1  0
 39 37  2  0
 42 17  1  0
 42 43  1  0
 44 42  1  0
 45 46  2  0
 45  2  1  0
 47 46  1  0
 48 59  2  0
 49 47  1  0
 49 54  1  0
 50 58  1  0
 50 60  1  0
 51 57  1  0
 51 53  1  0
 52 58  1  0
 53 52  1  0
 54 53  2  0
 55 49  2  0
 56 55  1  0
 56 51  2  0
 57 50  1  0
 58 48  1  0
 60 62  2  0
 61 60  1  0
 63 61  1  0
 64 73  2  0
 64 69  1  0
 65 61  1  0
 65 69  1  0
 66 65  1  0
 67 68  1  0
 67 66  1  0
 68 64  1  0
 69 70  2  0
 70 71  1  0
 72 71  2  0
 73 72  1  0
 74 48  1  0
 74 79  1  0
 74 75  1  0
 75 78  1  1
 75 76  1  0
 77 75  1  0
 79 82  1  0
 80 84  1  0
 80 79  1  0
 81 80  2  0
 84 83  1  0
 86 84  1  0
 86 87  1  0
 86 85  1  0
M  ISO  4   7 100   9 100  46 101  47 101
M  END
>  <TORSDO>  (16) 
F 19

>  <SCORE>  (16) 
-15.118

>  <name>  (16) 
15

>  <ligand_id>  (16) 
15

>  <original_smiles>  (16) 
[H]c1c([H])c([H])c2c(c1[H])C([H])([H])C([H])([H])C([H])([H])C2([H])N([H])C(=O)C1([H])N(C(=O)C([H])(N([H])C(=O)C([H])(N([H])C([H])([H])[H])C([H])([H])[H])C(C([H])([H])[H])(C([H])([H])[H])C([H])([H])[H])C([H])([H])c2c([H])c(OC([H])([H])C([H])([H])C([H])(c3c([H])c([H])c(C(=O)N4C([H])([H])C([H])([H])C([H])([H])C([H])(n5nc(-c6c([H])c([H])c(Oc7c([H])c([H])c(F)c([H])c7F)c([H])c6[H])c(C(=O)N([H])[H])c5N([H])[H])C4([H])[H])c([H])c3[H])C([H])([H])[H])c([H])c([H])c2C1([H])[H]

>  <smiles>  (16) 
[H]c1c([H])c([H])c2c(c1[H])C([H])([H])C([H])([H])C([H])([H])C2([H])N([H])C(=O)C1([H])N(C(=O)C([H])(N([H])C(=O)C([H])(N([H])C([H])([H])[H])C([H])([H])[H])C(C([H])([H])[H])(C([H])([H])[H])C([H])([H])[H])C([H])([H])c2c([H])c(OC([H])([H])C([H])([H])C([H])(c3c([H])c([H])c(C(=O)N4C([H])([H])C([H])([H])C([H])([H])C([H])(n5nc(-c6c([H])c([H])c(Oc7c([H])c([H])c(F)c([H])c7F)c([H])c6[H])c(C(=O)N([H])[H])c5N([H])[H])C4([H])[H])c([H])c3[H])C([H])([H])[H])c([H])c([H])c2C1([H])[H]

$$$$
16:0:0
     RDKit          3D

 86 93  0  0  1  0  0  0  0  0999 V2000
  -28.6660  -20.2920   20.3000 C   0  0  0  0  0  2  0  0  0  0  0  0
  -30.2760  -15.6650   20.2630 C   0  0  0  0  0  0  0  0  0  0  0  0
  -30.3790  -13.1350   19.4280 C   0  0  0  0  0  2  0  0  0  0  0  0
  -29.4940  -12.7480   18.2090 C   0  0  0  0  0  2  0  0  0  0  0  0
  -28.0660  -12.3940   18.6540 C   0  0  0  0  0  2  0  0  0  0  0  0
  -27.5490  -13.3850   19.7230 C   0  0  0  0  0  3  0  0  0  0  0  0
  -28.5740  -13.6830   20.8430 C   0  0  0  0  0  2  0  0  0  0  0  0
  -29.7500  -14.3040   20.1910 N   0  0  0  0  0  0  0  0  0  0  0  0
  -31.5150  -15.6240   20.0960 O   0  0  0  0  0  0  0  0  0  0  0  0
  -29.6950  -18.7440   20.2840 C   0  0  0  0  0  0  0  0  0  0  0  0
  -29.4520  -17.1950   20.3220 N   0  0  0  0  0  0  0  0  0  0  0  0
  -30.9950  -19.0840   20.2100 N   0  0  0  0  0  4  0  0  0  0  0  0
  -28.4520  -17.0970   20.3950 H   0  0  0  0  0  0  0  0  0  0  0  0
  -31.2700  -20.0570   20.1790 H   0  0  0  0  0  0  0  0  0  0  0  0
  -31.7340  -18.3950   20.1790 H   0  0  0  0  0  0  0  0  0  0  0  0
  -25.1750  -13.8920   20.4720 C   0  0  0  0  0  0  0  0  0  0  0  0
  -24.1250  -13.1000   20.8360 C   0  0  0  0  0  0  0  0  0  0  0  0
  -24.6130  -11.7560   20.8100 C   0  0  0  0  0  0  0  0  0  0  0  0
  -26.2320  -13.0340   20.2340 N   0  0  0  0  0  0  0  0  0  0  0  0
  -25.9080  -11.7420   20.5060 N   0  0  0  0  0  0  0  0  0  0  0  0
  -23.9010  -10.4850   20.9940 C   0  0  0  0  0  0  0  0  0  0  0  0
  -24.3200   -9.5340   21.9510 C   0  0  0  0  0  3  0  0  0  0  0  0
  -23.6020   -8.3300   22.1250 C   0  0  0  0  0  3  0  0  0  0  0  0
  -22.4520   -8.0690   21.3430 C   0  0  0  0  0  0  0  0  0  0  0  0
  -22.0530   -9.0090   20.3760 C   0  0  0  0  0  3  0  0  0  0  0  0
  -22.7710  -10.2040   20.1990 C   0  0  0  0  0  3  0  0  0  0  0  0
  -21.7090   -6.9160   21.4250 O   0  0  0  0  0  0  0  0  0  0  0  0
  -21.6160   -6.2020   22.5920 C   0  0  0  0  0  0  0  0  0  0  0  0
  -21.1040   -6.7740   23.7770 C   0  0  0  0  0  3  0  0  0  0  0  0
  -20.9610   -5.9830   24.9350 C   0  0  0  0  0  3  0  0  0  0  0  0
  -21.3190   -4.6230   24.9090 C   0  0  0  0  0  0  0  0  0  0  0  0
  -21.8250   -4.0510   23.7280 C   0  0  0  0  0  3  0  0  0  0  0  0
  -21.9690   -4.8380   22.5720 C   0  0  0  0  0  0  0  0  0  0  0  0
  -22.4360   -4.2760   21.4320 F   0  0  0  0  0  0  0  0  0  0  0  0
  -21.1760   -3.8620   26.0190 F   0  0  0  0  0  0  0  0  0  0  0  0
  -22.7190  -13.5580   21.0860 C   0  0  0  0  0  0  0  0  0  0  0  0
  -21.9920  -12.8630   21.9530 N   0  0  0  0  0  0  0  0  0  0  0  0
  -22.2740  -14.5710   20.5480 O   0  0  0  0  0  0  0  0  0  0  0  0
  -22.3670  -12.0450   22.4090 H   0  0  0  0  0  0  0  0  0  0  0  0
  -21.0480  -13.1530   22.1640 H   0  0  0  0  0  0  0  0  0  0  0  0
  -25.3150  -15.2640   20.2870 N   0  0  0  0  0  0  0  0  0  0  0  0
  -24.5210  -15.8920   20.3640 H   0  0  0  0  0  0  0  0  0  0  0  0
  -26.1210  -15.6990   19.8600 H   0  0  0  0  0  0  0  0  0  0  0  0
  -28.9390  -22.2040   20.3080 C   0  0  0  0  0  3  0  0  0  0  0  0
  -27.9470  -23.8640   20.2350 C   0  0  0  0  0  3  0  0  0  0  0  0
  -28.1400  -25.6050   20.3160 O   0  0  0  0  0  0  0  0  0  0  0  0
  -24.6550  -31.8820   23.2320 C   0  0  0  0  0  0  0  0  0  0  0  0
  -27.1610  -26.8020   20.2620 C   0  0  0  0  0  0  0  0  0  0  0  0
  -23.4570  -30.4800   21.6050 C   0  0  0  0  0  3  0  0  0  0  0  0
  -24.8950  -28.8230   20.1990 C   0  0  0  0  0  0  0  0  0  0  0  0
  -26.0340  -30.6210   21.4730 C   0  0  0  0  0  2  0  0  0  0  0  0
  -26.0920  -29.1860   20.8240 C   0  0  0  0  0  0  0  0  0  0  0  0
  -27.2120  -28.2050   20.8220 C   0  0  0  0  0  3  0  0  0  0  0  0
  -25.9280  -26.6400   19.5830 C   0  0  0  0  0  3  0  0  0  0  0  0
  -24.8490  -27.5750   19.5530 C   0  0  0  0  0  3  0  0  0  0  0  0
  -23.6890  -29.7750   20.2380 C   0  0  0  0  0  2  0  0  0  0  0  0
  -24.7390  -31.0270   22.1560 N   0  0  0  0  0  0  0  0  0  0  0  0
  -23.5640  -32.1870   23.7440 O   0  0  0  0  0  0  0  0  0  0  0  0
  -22.7410  -29.5090   22.5830 C   0  0  0  0  0  0  0  0  0  0  0  0
  -21.4090  -29.3540   22.4570 N   0  0  0  0  0  0  0  0  0  0  0  0
  -23.3960  -28.8930   23.4260 O   0  0  0  0  0  0  0  0  0  0  0  0
  -20.9300  -29.9010   21.7560 H   0  0  0  0  0  0  0  0  0  0  0  0
  -18.0210  -28.1440   22.9720 C   0  0  0  0  0  0  0  0  0  0  0  0
  -20.5800  -28.4250   23.2370 C   0  0  0  0  0  3  0  0  0  0  0  0
  -20.6860  -26.9850   22.6800 C   0  0  0  0  0  2  0  0  0  0  0  0
  -19.5900  -26.6480   21.6660 C   0  0  0  0  0  2  0  0  0  0  0  0
  -18.2050  -26.7910   22.3040 C   0  0  0  0  0  2  0  0  0  0  0  0
  -19.1350  -28.9170   23.3940 C   0  0  0  0  0  0  0  0  0  0  0  0
  -18.9060  -30.1800   23.9830 C   0  0  0  0  0  3  0  0  0  0  0  0
  -17.5970  -30.6700   24.1500 C   0  0  0  0  0  3  0  0  0  0  0  0
  -16.4980  -29.8960   23.7390 C   0  0  0  0  0  3  0  0  0  0  0  0
  -16.7110  -28.6340   23.1570 C   0  0  0  0  0  3  0  0  0  0  0  0
  -25.9220  -32.5300   23.8660 C   0  0  0  0  0  3  0  0  0  0  0  0
  -25.6060  -33.9340   24.1940 N   0  0  0  0  0  0  0  0  0  0  0  0
  -25.9270  -34.9940   23.4410 C   0  0  0  0  0  0  0  0  0  0  0  0
  -26.5790  -34.8940   22.3980 O   0  0  0  0  0  0  0  0  0  0  0  0
  -25.0230  -34.0840   25.0040 H   0  0  0  0  0  0  0  0  0  0  0  0
  -24.1890  -36.7970   23.1450 C   0  0  0  0  0  1  0  0  0  0  0  0
  -25.4570  -36.3860   23.9150 C   0  0  0  0  0  3  0  0  0  0  0  0
  -27.6120  -37.2810   24.6830 C   0  0  0  0  0  1  0  0  0  0  0  0
  -26.4840  -37.4410   23.7690 N   0  0  0  0  0  0  0  0  0  0  0  0
  -26.0810  -38.3610   23.9220 H   0  0  0  0  0  0  0  0  0  0  0  0
  -26.4180  -31.7760   25.1620 C   0  0  1  0  0  0  0  0  0  0  0  0
  -25.3120  -31.5670   26.2250 C   0  0  0  0  0  1  0  0  0  0  0  0
  -26.9930  -30.3870   24.8120 C   0  0  0  0  0  1  0  0  0  0  0  0
  -27.5690  -32.5720   25.8220 C   0  0  0  0  0  1  0  0  0  0  0  0
  1 44  1  0
  2 11  1  0
  3  8  1  0
  4  5  1  0
  4  3  1  0
  6  5  1  0
  6 19  1  0
  6  7  1  0
  8  2  1  0
  8  7  1  0
  9  2  2  0
 10  1  1  0
 10 11  1  0
 11 13  1  0
 12 10  2  0
 14 12  1  0
 15 12  1  0
 16 17  2  0
 17 36  1  0
 18 17  1  0
 18 21  1  0
 19 16  1  0
 19 20  1  0
 20 18  2  0
 21 22  1  0
 22 23  2  0
 24 27  1  0
 24 23  1  0
 25 24  2  0
 26 25  1  0
 26 21  2  0
 27 28  1  0
 28 29  1  0
 29 30  2  0
 31 30  1  0
 31 35  1  0
 32 31  2  0
 33 28  2  0
 33 32  1  0
 34 33  1  0
 36 37  1  0
 37 40  1  0
 37 39  1  0
 38 36  2  0
 41 42  1  0
 41 16  1  0
 43 41  1  0
 45 44  2  0
 45 46  1  0
 47 58  2  0
 48 46  1  0
 48 53  1  0
 49 57  1  0
 49 59  1  0
 50 56  1  0
 50 52  1  0
 51 57  1  0
 52 51  1  0
 53 52  2  0
 54 48  2  0
 55 54  1  0
 55 50  2  0
 56 49  1  0
 57 47  1  0
 59 61  2  0
 60 59  1  0
 62 60  1  0
 63 72  2  0
 63 68  1  0
 64 60  1  0
 64 68  1  0
 65 64  1  0
 66 67  1  0
 66 65  1  0
 67 63  1  0
 68 69  2  0
 69 70  1  0
 71 70  2  0
 72 71  1  0
 73 47  1  0
 73 74  1  0
 73 83  1  0
 74 77  1  0
 75 79  1  0
 75 74  1  0
 76 75  2  0
 79 78  1  0
 81 79  1  0
 81 82  1  0
 81 80  1  0
 83 86  1  1
 83 84  1  0
 85 83  1  0
M  ISO  4   2 100  11 100  45 101  46 101
M  END
>  <TORSDO>  (17) 
F 18

>  <SCORE>  (17) 
-16.287

>  <name>  (17) 
16

>  <ligand_id>  (17) 
16

>  <original_smiles>  (17) 
[H]c1c([H])c([H])c2c(c1[H])C([H])([H])C([H])([H])C([H])([H])C2([H])N([H])C(=O)C1([H])N(C(=O)C([H])(N([H])C(=O)C([H])(N([H])C([H])([H])[H])C([H])([H])[H])C(C([H])([H])[H])(C([H])([H])[H])C([H])([H])[H])C([H])([H])c2c([H])c(OC([H])([H])C([H])([H])C([H])([H])C(N([H])C(=O)N3C([H])([H])C([H])([H])C([H])([H])C([H])(n4nc(-c5c([H])c([H])c(Oc6c([H])c([H])c(F)c([H])c6F)c([H])c5[H])c(C(=O)N([H])[H])c4N([H])[H])C3([H])[H])=[N+]([H])[H])c([H])c([H])c2C1([H])[H]

>  <smiles>  (17) 
[H]c1c([H])c([H])c2c(c1[H])C([H])([H])C([H])([H])C([H])([H])C2([H])N([H])C(=O)C1([H])N(C(=O)C([H])(N([H])C(=O)C([H])(N([H])C([H])([H])[H])C([H])([H])[H])C(C([H])([H])[H])(C([H])([H])[H])C([H])([H])[H])C([H])([H])c2c([H])c(OC([H])([H])C([H])([H])C([H])([H])C(N([H])C(=O)N3C([H])([H])C([H])([H])C([H])([H])C([H])(n4nc(-c5c([H])c([H])c(Oc6c([H])c([H])c(F)c([H])c6F)c([H])c5[H])c(C(=O)N([H])[H])c4N([H])[H])C3([H])[H])=[N+]([H])[H])c([H])c([H])c2C1([H])[H]

$$$$
17:0:0
     RDKit          3D

 91 99  0  0  1  0  0  0  0  0999 V2000
  -30.0970  -22.8260   19.4870 C   0  0  0  0  0  0  0  0  0  0  0  0
  -30.4630  -21.2920   19.3690 C   0  0  0  0  0  2  0  0  0  0  0  0
  -28.5160  -22.2700   21.3760 C   0  0  0  0  0  2  0  0  0  0  0  0
  -28.7290  -23.1980   20.1250 C   0  0  0  0  0  3  0  0  0  0  0  0
  -30.1660  -20.4420   20.6580 C   0  0  0  0  0  3  0  0  0  0  0  0
  -28.7950  -20.7920   21.1480 N   0  0  0  0  0  4  0  0  0  0  0  0
  -30.8610  -23.6960   19.0560 O   0  0  0  0  0  0  0  0  0  0  0  0
  -28.1050  -20.4140   20.5170 H   0  0  0  0  0  0  0  0  0  0  0  0
  -28.6550  -20.3180   22.0280 H   0  0  0  0  0  0  0  0  0  0  0  0
  -30.5930  -18.5680   22.4030 C   0  0  0  0  0  1  0  0  0  0  0  0
  -30.6910  -18.8840   20.8930 C   0  0  0  0  0  3  0  0  0  0  0  0
  -30.3820  -17.5360   20.0170 C   0  0  0  0  0  2  0  0  0  0  0  0
  -30.3830  -16.0410   20.7080 C   0  0  0  0  0  2  0  0  0  0  0  0
  -31.0110  -14.7090   20.0530 C   0  0  0  0  0  0  0  0  0  0  0  0
  -30.6980  -12.4620   18.9750 C   0  0  0  0  0  2  0  0  0  0  0  0
  -29.7120  -12.5910   17.7930 C   0  0  0  0  0  2  0  0  0  0  0  0
  -28.2520  -12.4650   18.2740 C   0  0  0  0  0  2  0  0  0  0  0  0
  -27.9640  -13.3360   19.5250 C   0  0  0  0  0  3  0  0  0  0  0  0
  -29.0600  -13.1640   20.5980 C   0  0  0  0  0  2  0  0  0  0  0  0
  -30.3490  -13.4990   19.9760 N   0  0  0  0  0  0  0  0  0  0  0  0
  -32.1410  -14.7950   19.5650 O   0  0  0  0  0  0  0  0  0  0  0  0
  -25.6140  -14.0000   20.3210 C   0  0  0  0  0  0  0  0  0  0  0  0
  -24.5360  -13.2610   20.7240 C   0  0  0  0  0  0  0  0  0  0  0  0
  -24.9560  -11.8940   20.6830 C   0  0  0  0  0  0  0  0  0  0  0  0
  -26.6250  -13.0910   20.0570 N   0  0  0  0  0  0  0  0  0  0  0  0
  -26.2360  -11.8180   20.3370 N   0  0  0  0  0  0  0  0  0  0  0  0
  -24.1980  -10.6550   20.8980 C   0  0  0  0  0  0  0  0  0  0  0  0
  -24.6030   -9.6950   21.8500 C   0  0  0  0  0  3  0  0  0  0  0  0
  -23.8460   -8.5220   22.0530 C   0  0  0  0  0  3  0  0  0  0  0  0
  -22.6660   -8.3010   21.3030 C   0  0  0  0  0  0  0  0  0  0  0  0
  -22.2780   -9.2490   20.3390 C   0  0  0  0  0  3  0  0  0  0  0  0
  -23.0370  -10.4140   20.1350 C   0  0  0  0  0  3  0  0  0  0  0  0
  -21.8800   -7.1790   21.4140 O   0  0  0  0  0  0  0  0  0  0  0  0
  -21.7780   -6.4850   22.5930 C   0  0  0  0  0  0  0  0  0  0  0  0
  -21.3170   -7.0970   23.7790 C   0  0  0  0  0  3  0  0  0  0  0  0
  -21.1590   -6.3320   24.9520 C   0  0  0  0  0  3  0  0  0  0  0  0
  -21.4530   -4.9550   24.9390 C   0  0  0  0  0  0  0  0  0  0  0  0
  -21.9060   -4.3420   23.7570 C   0  0  0  0  0  3  0  0  0  0  0  0
  -22.0640   -5.1060   22.5870 C   0  0  0  0  0  0  0  0  0  0  0  0
  -22.4810   -4.5060   21.4470 F   0  0  0  0  0  0  0  0  0  0  0  0
  -21.2950   -4.2160   26.0630 F   0  0  0  0  0  0  0  0  0  0  0  0
  -23.1630  -13.7800   21.0380 C   0  0  0  0  0  0  0  0  0  0  0  0
  -22.4430  -13.1120   21.9340 N   0  0  0  0  0  0  0  0  0  0  0  0
  -22.7380  -14.8130   20.5230 O   0  0  0  0  0  0  0  0  0  0  0  0
  -22.8000  -12.2740   22.3710 H   0  0  0  0  0  0  0  0  0  0  0  0
  -21.5220  -13.4420   22.1870 H   0  0  0  0  0  0  0  0  0  0  0  0
  -25.8150  -15.3640   20.1360 N   0  0  0  0  0  0  0  0  0  0  0  0
  -25.0720  -16.0430   20.2580 H   0  0  0  0  0  0  0  0  0  0  0  0
  -26.6720  -15.7740   19.7870 H   0  0  0  0  0  0  0  0  0  0  0  0
  -28.0010  -24.6780   20.0010 C   0  0  0  0  0  2  0  0  0  0  0  0
  -28.2590  -26.0980   20.4890 O   0  0  0  0  0  0  0  0  0  0  0  0
  -24.5560  -31.7880   23.2040 C   0  0  0  0  0  0  0  0  0  0  0  0
  -27.2120  -27.0620   20.3400 C   0  0  0  0  0  0  0  0  0  0  0  0
  -23.4020  -30.3680   21.5520 C   0  0  0  0  0  3  0  0  0  0  0  0
  -24.8900  -28.7790   20.2050 C   0  0  0  0  0  0  0  0  0  0  0  0
  -25.9600  -30.6290   21.4740 C   0  0  0  0  0  2  0  0  0  0  0  0
  -26.0460  -29.2330   20.8520 C   0  0  0  0  0  0  0  0  0  0  0  0
  -27.2040  -28.3840   20.9190 C   0  0  0  0  0  3  0  0  0  0  0  0
  -26.0390  -26.7160   19.6220 C   0  0  0  0  0  3  0  0  0  0  0  0
  -24.8950  -27.5290   19.5780 C   0  0  0  0  0  3  0  0  0  0  0  0
  -23.6650  -29.6720   20.1930 C   0  0  0  0  0  2  0  0  0  0  0  0
  -24.6570  -30.9480   22.1320 N   0  0  0  0  0  0  0  0  0  0  0  0
  -23.4540  -32.0910   23.6860 O   0  0  0  0  0  0  0  0  0  0  0  0
  -22.6910  -29.3750   22.5070 C   0  0  0  0  0  0  0  0  0  0  0  0
  -21.3650  -29.2260   22.3520 N   0  0  0  0  0  0  0  0  0  0  0  0
  -23.3350  -28.7430   23.3490 O   0  0  0  0  0  0  0  0  0  0  0  0
  -20.9040  -29.7870   21.6500 H   0  0  0  0  0  0  0  0  0  0  0  0
  -17.9430  -28.1290   22.8120 C   0  0  0  0  0  0  0  0  0  0  0  0
  -20.5050  -28.3160   23.1160 C   0  0  0  0  0  3  0  0  0  0  0  0
  -20.5720  -26.8790   22.5510 C   0  0  0  0  0  2  0  0  0  0  0  0
  -19.4740  -26.5810   21.5240 C   0  0  0  0  0  2  0  0  0  0  0  0
  -18.0890  -26.7700   22.1470 C   0  0  0  0  0  2  0  0  0  0  0  0
  -19.0780  -28.8610   23.2530 C   0  0  0  0  0  0  0  0  0  0  0  0
  -18.8860  -30.1320   23.8350 C   0  0  0  0  0  3  0  0  0  0  0  0
  -17.5940  -30.6700   23.9860 C   0  0  0  0  0  3  0  0  0  0  0  0
  -16.4740  -29.9330   23.5610 C   0  0  0  0  0  3  0  0  0  0  0  0
  -16.6500  -28.6660   22.9780 C   0  0  0  0  0  3  0  0  0  0  0  0
  -25.8180  -32.4260   23.8590 C   0  0  0  0  0  3  0  0  0  0  0  0
  -26.2920  -31.6680   25.1600 C   0  0  1  0  0  0  0  0  0  0  0  0
  -25.1640  -31.4370   26.1920 C   0  0  0  0  0  1  0  0  0  0  0  0
  -26.8930  -30.2870   24.8040 C   0  0  0  0  0  1  0  0  0  0  0  0
  -27.4200  -32.4700   25.8490 C   0  0  0  0  0  1  0  0  0  0  0  0
  -25.4970  -33.8280   24.1680 N   0  0  0  0  0  0  0  0  0  0  0  0
  -25.8520  -34.8760   23.4140 C   0  0  0  0  0  0  0  0  0  0  0  0
  -26.5500  -34.7660   22.4030 O   0  0  0  0  0  0  0  0  0  0  0  0
  -24.8820  -33.9870   24.9530 H   0  0  0  0  0  0  0  0  0  0  0  0
  -24.1340  -36.6680   23.0040 C   0  0  0  0  0  1  0  0  0  0  0  0
  -25.3520  -36.2670   23.8510 C   0  0  0  0  0  3  0  0  0  0  0  0
  -27.4590  -37.1580   24.7380 C   0  0  0  0  0  1  0  0  0  0  0  0
  -26.3870  -37.3190   23.7590 N   0  0  0  0  0  0  0  0  0  0  0  0
  -25.9780  -38.2400   23.8900 H   0  0  0  0  0  0  0  0  0  0  0  0
  1  4  1  0
  2  1  1  0
  2  5  1  0
  4 50  1  0
  4  3  1  0
  5 11  1  0
  5  6  1  0
  6  3  1  0
  6  9  1  0
  7  1  2  0
  8  6  1  0
 11 10  1  0
 12 13  1  0
 12 11  1  0
 14 13  1  0
 15 20  1  0
 16 17  1  0
 16 15  1  0
 18 17  1  0
 18 25  1  0
 18 19  1  0
 20 14  1  0
 20 19  1  0
 21 14  2  0
 22 23  2  0
 23 42  1  0
 24 23  1  0
 24 27  1  0
 25 22  1  0
 25 26  1  0
 26 24  2  0
 27 28  1  0
 28 29  2  0
 30 33  1  0
 30 29  1  0
 31 30  2  0
 32 31  1  0
 32 27  2  0
 33 34  1  0
 34 35  1  0
 35 36  2  0
 37 36  1  0
 37 41  1  0
 38 37  2  0
 39 34  2  0
 39 38  1  0
 40 39  1  0
 42 43  1  0
 43 46  1  0
 43 45  1  0
 44 42  2  0
 47 48  1  0
 47 22  1  0
 49 47  1  0
 50 51  1  0
 52 63  2  0
 53 51  1  0
 53 58  1  0
 54 62  1  0
 54 64  1  0
 55 57  1  0
 56 62  1  0
 57 58  2  0
 57 56  1  0
 59 53  2  0
 60 59  1  0
 60 55  2  0
 61 55  1  0
 61 54  1  0
 62 52  1  0
 64 66  2  0
 65 64  1  0
 67 65  1  0
 68 77  2  0
 68 73  1  0
 69 65  1  0
 69 73  1  0
 70 69  1  0
 71 72  1  0
 71 70  1  0
 72 68  1  0
 73 74  2  0
 74 75  1  0
 76 75  2  0
 77 76  1  0
 78 52  1  0
 78 83  1  0
 78 79  1  0
 79 82  1  1
 79 80  1  0
 81 79  1  0
 83 86  1  0
 84 88  1  0
 84 83  1  0
 85 84  2  0
 88 87  1  0
 90 88  1  0
 90 91  1  0
 90 89  1  0
M  ISO  4  13 100  14 100  50 101  51 101
M  END
>  <TORSDO>  (18) 
F 20

>  <SCORE>  (18) 
-13.518

>  <name>  (18) 
17

>  <ligand_id>  (18) 
17

>  <original_smiles>  (18) 
[H]c1c([H])c([H])c2c(c1[H])C([H])([H])C([H])([H])C([H])([H])C2([H])N([H])C(=O)C1([H])N(C(=O)C([H])(N([H])C(=O)C([H])(N([H])C([H])([H])[H])C([H])([H])[H])C(C([H])([H])[H])(C([H])([H])[H])C([H])([H])[H])C([H])([H])c2c([H])c(OC([H])([H])C3([H])C(=O)C([H])([H])C([H])(C([H])(C([H])([H])[H])C([H])([H])C([H])([H])C(=O)N4C([H])([H])C([H])([H])C([H])([H])C([H])(n5nc(-c6c([H])c([H])c(Oc7c([H])c([H])c(F)c([H])c7F)c([H])c6[H])c(C(=O)N([H])[H])c5N([H])[H])C4([H])[H])[N+]([H])([H])C3([H])[H])c([H])c([H])c2C1([H])[H]

>  <smiles>  (18) 
[H]c1c([H])c([H])c2c(c1[H])C([H])([H])C([H])([H])C([H])([H])C2([H])N([H])C(=O)C1([H])N(C(=O)C([H])(N([H])C(=O)C([H])(N([H])C([H])([H])[H])C([H])([H])[H])C(C([H])([H])[H])(C([H])([H])[H])C([H])([H])[H])C([H])([H])c2c([H])c(OC([H])([H])C3([H])C(=O)C([H])([H])C([H])(C([H])(C([H])([H])[H])C([H])([H])C([H])([H])C(=O)N4C([H])([H])C([H])([H])C([H])([H])C([H])(n5nc(-c6c([H])c([H])c(Oc7c([H])c([H])c(F)c([H])c7F)c([H])c6[H])c(C(=O)N([H])[H])c5N([H])[H])C4([H])[H])[N+]([H])([H])C3([H])[H])c([H])c([H])c2C1([H])[H]

$$$$
18:0:0
     RDKit          3D

 93101  0  0  1  0  0  0  0  0999 V2000
  -29.2470  -21.9300   18.4580 C   0  0  0  0  0  2  0  0  0  0  0  0
  -29.6580  -19.2990   18.4500 C   0  0  0  0  0  2  0  0  0  0  0  0
  -28.7530  -22.1490   19.9290 C   0  0  0  0  0  3  0  0  0  0  0  0
  -29.0400  -20.4430   20.6660 C   0  0  0  0  0  3  0  0  0  0  0  0
  -29.7660  -18.8710   19.9520 C   0  0  0  0  0  3  0  0  0  0  0  0
  -30.1140  -20.7160   18.1780 N   0  0  0  0  0  4  0  0  0  0  0  0
  -31.0140  -20.8470   18.6060 H   0  0  0  0  0  0  0  0  0  0  0  0
  -30.2880  -20.7480   17.1840 H   0  0  0  0  0  0  0  0  0  0  0  0
  -30.3920  -15.7640   20.0760 C   0  0  0  0  0  0  0  0  0  0  0  0
  -30.4760  -13.2240   19.2810 C   0  0  0  0  0  2  0  0  0  0  0  0
  -29.5700  -12.8590   18.0720 C   0  0  0  0  0  2  0  0  0  0  0  0
  -28.1530  -12.5000   18.5520 C   0  0  0  0  0  2  0  0  0  0  0  0
  -27.6600  -13.4950   19.6290 C   0  0  0  0  0  3  0  0  0  0  0  0
  -28.7040  -13.7990   20.7290 C   0  0  0  0  0  2  0  0  0  0  0  0
  -29.8750  -14.4020   20.0550 N   0  0  0  0  0  0  0  0  0  0  0  0
  -31.6110  -15.7140   19.8270 O   0  0  0  0  0  0  0  0  0  0  0  0
  -29.6310  -17.1150   20.1850 N   0  0  0  0  0  0  0  0  0  0  0  0
  -28.6700  -16.8880   20.4150 H   0  0  0  0  0  0  0  0  0  0  0  0
  -25.3210  -14.0170   20.4650 C   0  0  0  0  0  0  0  0  0  0  0  0
  -24.2730  -13.2320   20.8480 C   0  0  0  0  0  0  0  0  0  0  0  0
  -24.7420  -11.8830   20.7830 C   0  0  0  0  0  0  0  0  0  0  0  0
  -26.3570  -13.1490   20.1750 N   0  0  0  0  0  0  0  0  0  0  0  0
  -26.0250  -11.8570   20.4340 N   0  0  0  0  0  0  0  0  0  0  0  0
  -24.0200  -10.6180   20.9730 C   0  0  0  0  0  0  0  0  0  0  0  0
  -24.4420   -9.6590   21.9220 C   0  0  0  0  0  3  0  0  0  0  0  0
  -23.7170   -8.4610   22.0980 C   0  0  0  0  0  3  0  0  0  0  0  0
  -22.5560   -8.2130   21.3250 C   0  0  0  0  0  0  0  0  0  0  0  0
  -22.1560   -9.1590   20.3650 C   0  0  0  0  0  3  0  0  0  0  0  0
  -22.8820  -10.3490   20.1880 C   0  0  0  0  0  3  0  0  0  0  0  0
  -21.8030   -7.0680   21.4140 O   0  0  0  0  0  0  0  0  0  0  0  0
  -21.6910   -6.3660   22.5870 C   0  0  0  0  0  0  0  0  0  0  0  0
  -21.1370   -6.9410   23.7500 C   0  0  0  0  0  3  0  0  0  0  0  0
  -20.9790   -6.1620   24.9140 C   0  0  0  0  0  3  0  0  0  0  0  0
  -21.3610   -4.8080   24.9130 C   0  0  0  0  0  0  0  0  0  0  0  0
  -21.9070   -4.2310   23.7530 C   0  0  0  0  0  3  0  0  0  0  0  0
  -22.0680   -5.0060   22.5920 C   0  0  0  0  0  0  0  0  0  0  0  0
  -22.5760   -4.4400   21.4720 F   0  0  0  0  0  0  0  0  0  0  0  0
  -21.2000   -4.0570   26.0290 F   0  0  0  0  0  0  0  0  0  0  0  0
  -22.8820  -13.7030   21.1530 C   0  0  0  0  0  0  0  0  0  0  0  0
  -22.1730  -13.0050   22.0320 N   0  0  0  0  0  0  0  0  0  0  0  0
  -22.4350  -14.7300   20.6450 O   0  0  0  0  0  0  0  0  0  0  0  0
  -22.5470  -12.1760   22.4720 H   0  0  0  0  0  0  0  0  0  0  0  0
  -21.2410  -13.3100   22.2730 H   0  0  0  0  0  0  0  0  0  0  0  0
  -25.4760  -15.3920   20.3050 N   0  0  0  0  0  0  0  0  0  0  0  0
  -24.7070  -16.0410   20.4370 H   0  0  0  0  0  0  0  0  0  0  0  0
  -26.3070  -15.8350   19.9410 H   0  0  0  0  0  0  0  0  0  0  0  0
  -29.6530  -20.6640   22.0680 C   0  0  0  0  0  2  0  0  0  0  0  0
  -31.0760  -21.0600   22.0330 N   0  0  0  0  0  4  0  0  0  0  0  0
  -31.3860  -21.2820   22.9630 H   0  0  0  0  0  0  0  0  0  0  0  0
  -31.2150  -21.8750   21.4610 H   0  0  0  0  0  0  0  0  0  0  0  0
  -31.6620  -20.3150   21.7020 H   0  0  0  0  0  0  0  0  0  0  0  0
  -28.1180  -23.9450   20.3730 C   0  0  0  0  0  2  0  0  0  0  0  0
  -28.2920  -25.6820   20.1590 O   0  0  0  0  0  0  0  0  0  0  0  0
  -24.7400  -31.9120   23.1830 C   0  0  0  0  0  0  0  0  0  0  0  0
  -27.2970  -26.8730   20.1680 C   0  0  0  0  0  0  0  0  0  0  0  0
  -23.5580  -30.5070   21.5510 C   0  0  0  0  0  3  0  0  0  0  0  0
  -25.0110  -28.8820   20.1220 C   0  0  0  0  0  0  0  0  0  0  0  0
  -26.1330  -30.6800   21.4060 C   0  0  0  0  0  2  0  0  0  0  0  0
  -26.2070  -29.2490   20.7500 C   0  0  0  0  0  0  0  0  0  0  0  0
  -27.3380  -28.2750   20.7350 C   0  0  0  0  0  3  0  0  0  0  0  0
  -26.0590  -26.7080   19.4980 C   0  0  0  0  0  3  0  0  0  0  0  0
  -24.9790  -27.6410   19.4650 C   0  0  0  0  0  3  0  0  0  0  0  0
  -23.7950  -29.8210   20.1750 C   0  0  0  0  0  2  0  0  0  0  0  0
  -24.8350  -31.0680   22.0990 N   0  0  0  0  0  0  0  0  0  0  0  0
  -23.6460  -32.1960   23.7030 O   0  0  0  0  0  0  0  0  0  0  0  0
  -22.8590  -29.5140   22.5210 C   0  0  0  0  0  0  0  0  0  0  0  0
  -21.5310  -29.3330   22.3910 N   0  0  0  0  0  0  0  0  0  0  0  0
  -23.5250  -28.9100   23.3650 O   0  0  0  0  0  0  0  0  0  0  0  0
  -21.0500  -29.8780   21.6890 H   0  0  0  0  0  0  0  0  0  0  0  0
  -18.1630  -28.0460   22.8890 C   0  0  0  0  0  0  0  0  0  0  0  0
  -20.7170  -28.3840   23.1650 C   0  0  0  0  0  3  0  0  0  0  0  0
  -20.8560  -26.9490   22.6040 C   0  0  0  0  0  2  0  0  0  0  0  0
  -19.7660  -26.5890   21.5860 C   0  0  0  0  0  2  0  0  0  0  0  0
  -18.3790  -26.6980   22.2220 C   0  0  0  0  0  2  0  0  0  0  0  0
  -19.2610  -28.8430   23.3170 C   0  0  0  0  0  0  0  0  0  0  0  0
  -19.0010  -30.0960   23.9110 C   0  0  0  0  0  3  0  0  0  0  0  0
  -17.6810  -30.5550   24.0810 C   0  0  0  0  0  3  0  0  0  0  0  0
  -16.6010  -29.7580   23.6640 C   0  0  0  0  0  3  0  0  0  0  0  0
  -16.8430  -28.5060   23.0730 C   0  0  0  0  0  3  0  0  0  0  0  0
  -25.9970  -32.5760   23.8200 C   0  0  0  0  0  3  0  0  0  0  0  0
  -26.5030  -31.8230   25.1110 C   0  0  1  0  0  0  0  0  0  0  0  0
  -25.4040  -31.5920   26.1770 C   0  0  0  0  0  1  0  0  0  0  0  0
  -27.1050  -30.4460   24.7500 C   0  0  0  0  0  1  0  0  0  0  0  0
  -27.6380  -32.6370   25.7780 C   0  0  0  0  0  1  0  0  0  0  0  0
  -25.6580  -33.9720   24.1630 N   0  0  0  0  0  0  0  0  0  0  0  0
  -25.9520  -35.0450   23.4150 C   0  0  0  0  0  0  0  0  0  0  0  0
  -26.5980  -34.9650   22.3660 O   0  0  0  0  0  0  0  0  0  0  0  0
  -25.0800  -34.1070   24.9800 H   0  0  0  0  0  0  0  0  0  0  0  0
  -24.1900  -36.8270   23.1320 C   0  0  0  0  0  1  0  0  0  0  0  0
  -25.4600  -36.4270   23.9010 C   0  0  0  0  0  3  0  0  0  0  0  0
  -27.6000  -37.3440   24.6850 C   0  0  0  0  0  1  0  0  0  0  0  0
  -26.4740  -37.4970   23.7690 N   0  0  0  0  0  0  0  0  0  0  0  0
  -26.0560  -38.4110   23.9290 H   0  0  0  0  0  0  0  0  0  0  0  0
  1  3  1  0
  2  5  1  0
  3 52  1  0
  3  4  1  0
  4 47  1  0
  5 17  1  0
  5  4  1  0
  6  2  1  0
  6  1  1  0
  6  7  1  0
  8  6  1  0
  9 17  1  0
 10 15  1  0
 11 12  1  0
 11 10  1  0
 13 12  1  0
 13 22  1  0
 13 14  1  0
 15  9  1  0
 15 14  1  0
 16  9  2  0
 17 18  1  0
 19 20  2  0
 20 39  1  0
 21 20  1  0
 21 24  1  0
 22 23  1  0
 22 19  1  0
 23 21  2  0
 24 25  1  0
 25 26  2  0
 27 30  1  0
 27 26  1  0
 28 27  2  0
 29 28  1  0
 29 24  2  0
 30 31  1  0
 31 36  2  0
 31 32  1  0
 32 33  2  0
 34 33  1  0
 34 38  1  0
 35 34  2  0
 36 35  1  0
 37 36  1  0
 39 40  1  0
 40 43  1  0
 40 42  1  0
 41 39  2  0
 44 45  1  0
 44 19  1  0
 46 44  1  0
 48 47  1  0
 48 49  1  0
 50 48  1  0
 51 48  1  0
 53 55  1  0
 53 52  1  0
 54 65  2  0
 55 60  1  0
 56 64  1  0
 56 66  1  0
 57 63  1  0
 57 59  1  0
 58 64  1  0
 59 58  1  0
 60 59  2  0
 61 55  2  0
 62 61  1  0
 62 57  2  0
 63 56  1  0
 64 54  1  0
 66 68  2  0
 67 66  1  0
 69 67  1  0
 70 79  2  0
 70 75  1  0
 71 67  1  0
 71 75  1  0
 72 71  1  0
 73 74  1  0
 73 72  1  0
 74 70  1  0
 75 76  2  0
 76 77  1  0
 78 77  2  0
 79 78  1  0
 80 54  1  0
 80 85  1  0
 80 81  1  0
 81 84  1  1
 81 82  1  0
 83 81  1  0
 85 88  1  0
 86 90  1  0
 86 85  1  0
 87 86  2  0
 90 89  1  0
 92 90  1  0
 92 93  1  0
 92 91  1  0
M  ISO  4   9 100  17 100  52 101  53 101
M  END
>  <TORSDO>  (19) 
F 19

>  <SCORE>  (19) 
-15.933

>  <name>  (19) 
18

>  <ligand_id>  (19) 
18

>  <original_smiles>  (19) 
[H]c1c([H])c([H])c2c(c1[H])C([H])([H])C([H])([H])C([H])([H])C2([H])N([H])C(=O)C1([H])N(C(=O)C([H])(N([H])C(=O)C([H])(N([H])C([H])([H])[H])C([H])([H])[H])C(C([H])([H])[H])(C([H])([H])[H])C([H])([H])[H])C([H])([H])c2c([H])c(OC([H])([H])C3([H])C([H])(C([H])([H])[N+]([H])([H])[H])C([H])(N([H])C(=O)N4C([H])([H])C([H])([H])C([H])([H])C([H])(n5nc(-c6c([H])c([H])c(Oc7c([H])c([H])c(F)c([H])c7F)c([H])c6[H])c(C(=O)N([H])[H])c5N([H])[H])C4([H])[H])C([H])([H])[N+]([H])([H])C3([H])[H])c([H])c([H])c2C1([H])[H]

>  <smiles>  (19) 
[H]c1c([H])c([H])c2c(c1[H])C([H])([H])C([H])([H])C([H])([H])C2([H])N([H])C(=O)C1([H])N(C(=O)C([H])(N([H])C(=O)C([H])(N([H])C([H])([H])[H])C([H])([H])[H])C(C([H])([H])[H])(C([H])([H])[H])C([H])([H])[H])C([H])([H])c2c([H])c(OC([H])([H])C3([H])C([H])(C([H])([H])[N+]([H])([H])[H])C([H])(N([H])C(=O)N4C([H])([H])C([H])([H])C([H])([H])C([H])(n5nc(-c6c([H])c([H])c(Oc7c([H])c([H])c(F)c([H])c7F)c([H])c6[H])c(C(=O)N([H])[H])c5N([H])[H])C4([H])[H])C([H])([H])[N+]([H])([H])C3([H])[H])c([H])c([H])c2C1([H])[H]

$$$$
19:0:0
     RDKit          3D

 88 96  0  0  1  0  0  0  0  0999 V2000
  -29.7030  -20.4990   19.5500 C   0  0  0  0  0  0  0  0  0  0  0  0
  -29.9490  -20.6140   18.3470 O   0  0  0  0  0  0  0  0  0  0  0  0
  -30.7350  -14.9400   19.5390 C   0  0  0  0  0  0  0  0  0  0  0  0
  -30.4370  -12.6660   18.4390 C   0  0  0  0  0  2  0  0  0  0  0  0
  -29.3360  -12.7090   17.3500 C   0  0  0  0  0  2  0  0  0  0  0  0
  -27.9340  -12.4960   17.9570 C   0  0  0  0  0  2  0  0  0  0  0  0
  -27.7240  -13.3310   19.2460 C   0  0  0  0  0  3  0  0  0  0  0  0
  -28.9260  -13.1670   20.2030 C   0  0  0  0  0  2  0  0  0  0  0  0
  -30.1020  -13.6870   19.4820 N   0  0  0  0  0  0  0  0  0  0  0  0
  -31.8500  -15.0010   19.0030 O   0  0  0  0  0  0  0  0  0  0  0  0
  -28.5210  -17.4590   21.5570 C   0  0  0  0  0  3  0  0  0  0  0  0
  -28.8890  -18.7050   21.2270 C   0  0  0  0  0  3  0  0  0  0  0  0
  -29.0840  -16.1460   21.0240 C   0  0  0  0  0  2  0  0  0  0  0  0
  -30.3850  -17.6210   19.4170 C   0  0  0  0  0  3  0  0  0  0  0  0
  -29.9800  -19.0230   20.2410 C   0  0  0  0  0  0  0  0  0  0  0  0
  -30.0700  -16.1620   19.9220 N   0  0  0  0  0  0  0  0  0  0  0  0
  -25.4630  -13.9240   20.2990 C   0  0  0  0  0  0  0  0  0  0  0  0
  -24.4400  -13.1500   20.7740 C   0  0  0  0  0  0  0  0  0  0  0  0
  -24.8650  -11.7960   20.6180 C   0  0  0  0  0  0  0  0  0  0  0  0
  -26.4490  -13.0400   19.8910 N   0  0  0  0  0  0  0  0  0  0  0  0
  -26.1040  -11.7520   20.1410 N   0  0  0  0  0  0  0  0  0  0  0  0
  -24.1400  -10.5380   20.8370 C   0  0  0  0  0  0  0  0  0  0  0  0
  -24.6010   -9.5710   21.7570 C   0  0  0  0  0  3  0  0  0  0  0  0
  -23.8750   -8.3780   21.9630 C   0  0  0  0  0  3  0  0  0  0  0  0
  -22.6730   -8.1460   21.2530 C   0  0  0  0  0  0  0  0  0  0  0  0
  -22.2320   -9.1020   20.3210 C   0  0  0  0  0  3  0  0  0  0  0  0
  -22.9580  -10.2860   20.1120 C   0  0  0  0  0  3  0  0  0  0  0  0
  -21.9150   -7.0060   21.3720 O   0  0  0  0  0  0  0  0  0  0  0  0
  -21.8020   -6.3400   22.5650 C   0  0  0  0  0  0  0  0  0  0  0  0
  -21.3010   -6.9680   23.7270 C   0  0  0  0  0  3  0  0  0  0  0  0
  -21.1370   -6.2240   24.9130 C   0  0  0  0  0  3  0  0  0  0  0  0
  -21.4640   -4.8560   24.9380 C   0  0  0  0  0  0  0  0  0  0  0  0
  -21.9570   -4.2280   23.7810 C   0  0  0  0  0  3  0  0  0  0  0  0
  -22.1230   -4.9680   22.5970 C   0  0  0  0  0  0  0  0  0  0  0  0
  -22.5790   -4.3530   21.4800 F   0  0  0  0  0  0  0  0  0  0  0  0
  -21.2990   -4.1400   26.0750 F   0  0  0  0  0  0  0  0  0  0  0  0
  -23.1020  -13.6360   21.2500 C   0  0  0  0  0  0  0  0  0  0  0  0
  -22.4860  -12.9200   22.1830 N   0  0  0  0  0  0  0  0  0  0  0  0
  -22.6190  -14.6870   20.8310 O   0  0  0  0  0  0  0  0  0  0  0  0
  -22.8920  -12.0700   22.5440 H   0  0  0  0  0  0  0  0  0  0  0  0
  -21.5950  -13.2280   22.5440 H   0  0  0  0  0  0  0  0  0  0  0  0
  -25.6170  -15.2980   20.1570 N   0  0  0  0  0  0  0  0  0  0  0  0
  -24.8710  -15.9450   20.3880 H   0  0  0  0  0  0  0  0  0  0  0  0
  -26.4040  -15.7470   19.7080 H   0  0  0  0  0  0  0  0  0  0  0  0
  -29.1480  -21.8410   20.3310 C   0  0  0  0  0  2  0  0  0  0  0  0
  -29.2530  -23.4250   19.7790 C   0  0  0  0  0  3  0  0  0  0  0  0
  -28.3460  -24.7060   20.3670 C   0  0  0  0  0  3  0  0  0  0  0  0
  -28.5450  -26.2200   20.1060 O   0  0  0  0  0  0  0  0  0  0  0  0
  -24.6410  -31.7040   23.0980 C   0  0  0  0  0  0  0  0  0  0  0  0
  -27.4380  -27.1370   20.0740 C   0  0  0  0  0  0  0  0  0  0  0  0
  -23.5220  -30.2930   21.4130 C   0  0  0  0  0  3  0  0  0  0  0  0
  -25.0510  -28.7830   20.0060 C   0  0  0  0  0  0  0  0  0  0  0  0
  -26.0670  -30.6470   21.3080 C   0  0  0  0  0  2  0  0  0  0  0  0
  -26.2000  -29.2680   20.6450 C   0  0  0  0  0  0  0  0  0  0  0  0
  -27.3960  -28.4610   20.6590 C   0  0  0  0  0  3  0  0  0  0  0  0
  -26.2640  -26.7460   19.3960 C   0  0  0  0  0  3  0  0  0  0  0  0
  -25.0940  -27.5340   19.3680 C   0  0  0  0  0  3  0  0  0  0  0  0
  -23.7940  -29.6390   20.0340 C   0  0  0  0  0  2  0  0  0  0  0  0
  -24.7610  -30.9030   21.9950 N   0  0  0  0  0  0  0  0  0  0  0  0
  -23.5360  -31.9480   23.6040 O   0  0  0  0  0  0  0  0  0  0  0  0
  -22.8540  -29.2550   22.3480 C   0  0  0  0  0  0  0  0  0  0  0  0
  -21.5310  -29.0610   22.2010 N   0  0  0  0  0  0  0  0  0  0  0  0
  -23.5270  -28.6250   23.1670 O   0  0  0  0  0  0  0  0  0  0  0  0
  -21.0440  -29.6210   21.5150 H   0  0  0  0  0  0  0  0  0  0  0  0
  -18.1610  -27.8170   22.6670 C   0  0  0  0  0  0  0  0  0  0  0  0
  -20.7170  -28.0940   22.9430 C   0  0  0  0  0  3  0  0  0  0  0  0
  -20.8310  -26.6800   22.3260 C   0  0  0  0  0  2  0  0  0  0  0  0
  -19.7330  -26.3780   21.3030 C   0  0  0  0  0  2  0  0  0  0  0  0
  -18.3500  -26.4900   21.9500 C   0  0  0  0  0  2  0  0  0  0  0  0
  -19.2730  -28.5770   23.1190 C   0  0  0  0  0  0  0  0  0  0  0  0
  -19.0400  -29.8180   23.7500 C   0  0  0  0  0  3  0  0  0  0  0  0
  -17.7300  -30.3000   23.9330 C   0  0  0  0  0  3  0  0  0  0  0  0
  -16.6340  -29.5370   23.4960 C   0  0  0  0  0  3  0  0  0  0  0  0
  -16.8500  -28.2970   22.8690 C   0  0  0  0  0  3  0  0  0  0  0  0
  -25.8860  -32.3680   23.7610 C   0  0  0  0  0  3  0  0  0  0  0  0
  -26.3850  -31.6030   25.0500 C   0  0  1  0  0  0  0  0  0  0  0  0
  -25.2660  -31.3250   26.0820 C   0  0  0  0  0  1  0  0  0  0  0  0
  -27.0200  -30.2450   24.6710 C   0  0  0  0  0  1  0  0  0  0  0  0
  -27.4910  -32.4260   25.7510 C   0  0  0  0  0  1  0  0  0  0  0  0
  -25.5270  -33.7560   24.0960 N   0  0  0  0  0  0  0  0  0  0  0  0
  -25.8550  -34.8280   23.3630 C   0  0  0  0  0  0  0  0  0  0  0  0
  -26.5580  -34.7540   22.3520 O   0  0  0  0  0  0  0  0  0  0  0  0
  -24.9060  -33.8840   24.8810 H   0  0  0  0  0  0  0  0  0  0  0  0
  -24.0920  -36.5840   22.9840 C   0  0  0  0  0  1  0  0  0  0  0  0
  -25.3210  -36.1990   23.8240 C   0  0  0  0  0  3  0  0  0  0  0  0
  -27.4070  -37.1290   24.7260 C   0  0  0  0  0  1  0  0  0  0  0  0
  -26.3290  -37.2790   23.7520 N   0  0  0  0  0  0  0  0  0  0  0  0
  -25.8960  -38.1870   23.8950 H   0  0  0  0  0  0  0  0  0  0  0  0
  1 15  1  0
  1 45  1  0
  2  1  2  0
  3 16  1  0
  4  9  1  0
  5  6  1  0
  5  4  1  0
  7  6  1  0
  7 20  1  0
  7  8  1  0
  9  3  1  0
  9  8  1  0
 10  3  2  0
 12 11  2  0
 13 11  1  0
 14 16  1  0
 14 15  2  0
 15 12  1  0
 16 13  1  0
 17 18  2  0
 18 37  1  0
 19 18  1  0
 19 22  1  0
 20 21  1  0
 20 17  1  0
 21 19  2  0
 22 23  1  0
 23 24  2  0
 25 28  1  0
 25 24  1  0
 26 25  2  0
 27 26  1  0
 27 22  2  0
 28 29  1  0
 29 34  2  0
 29 30  1  0
 30 31  2  0
 31 32  1  0
 32 36  1  0
 33 32  2  0
 34 33  1  0
 35 34  1  0
 37 38  1  0
 38 41  1  0
 38 40  1  0
 39 37  2  0
 42 17  1  0
 42 43  1  0
 44 42  1  0
 46 45  1  0
 46 47  2  0
 48 47  1  0
 49 60  2  0
 50 48  1  0
 50 55  1  0
 51 59  1  0
 51 61  1  0
 52 58  1  0
 52 54  1  0
 53 59  1  0
 54 55  2  0
 54 53  1  0
 56 50  2  0
 57 56  1  0
 57 52  2  0
 58 51  1  0
 59 49  1  0
 61 63  2  0
 62 61  1  0
 64 62  1  0
 65 74  2  0
 65 70  1  0
 66 62  1  0
 66 70  1  0
 67 66  1  0
 68 69  1  0
 68 67  1  0
 69 65  1  0
 70 71  2  0
 71 72  1  0
 73 72  2  0
 74 73  1  0
 75 49  1  0
 75 80  1  0
 75 76  1  0
 76 79  1  1
 76 77  1  0
 78 76  1  0
 80 83  1  0
 81 85  1  0
 81 80  1  0
 82 81  2  0
 85 84  1  0
 87 85  1  0
 87 88  1  0
 87 86  1  0
M  ISO  4   3 100  16 100  47 101  48 101
M  END
>  <TORSDO>  (20) 
F 19

>  <SCORE>  (20) 
-11.255

>  <name>  (20) 
19

>  <ligand_id>  (20) 
19

>  <original_smiles>  (20) 
[H]C1=C([H])C([H])(C(=O)C([H])([H])C([H])([H])C([H])([H])Oc2c([H])c([H])c3c(c2[H])C([H])([H])N(C(=O)C([H])(N([H])C(=O)C([H])(N([H])C([H])([H])[H])C([H])([H])[H])C(C([H])([H])[H])(C([H])([H])[H])C([H])([H])[H])C([H])(C(=O)N([H])C2([H])c4c([H])c([H])c([H])c([H])c4C([H])([H])C([H])([H])C2([H])[H])C3([H])[H])C([H])([H])N(C(=O)N2C([H])([H])C([H])([H])C([H])([H])C([H])(n3nc(-c4c([H])c([H])c(Oc5c([H])c([H])c(F)c([H])c5F)c([H])c4[H])c(C(=O)N([H])[H])c3N([H])[H])C2([H])[H])C1([H])[H]

>  <smiles>  (20) 
[H]C1=C([H])C([H])(C(=O)C([H])([H])C([H])([H])C([H])([H])Oc2c([H])c([H])c3c(c2[H])C([H])([H])N(C(=O)C([H])(N([H])C(=O)C([H])(N([H])C([H])([H])[H])C([H])([H])[H])C(C([H])([H])[H])(C([H])([H])[H])C([H])([H])[H])C([H])(C(=O)N([H])C2([H])c4c([H])c([H])c([H])c([H])c4C([H])([H])C([H])([H])C2([H])[H])C3([H])[H])C([H])([H])N(C(=O)N2C([H])([H])C([H])([H])C([H])([H])C([H])(n3nc(-c4c([H])c([H])c(Oc5c([H])c([H])c(F)c([H])c5F)c([H])c4[H])c(C(=O)N([H])[H])c3N([H])[H])C2([H])[H])C1([H])[H]

$$$$
20:0:0
     RDKit          3D

 87 95  0  0  1  0  0  0  0  0999 V2000
  -29.3320  -21.3700   18.5050 C   0  0  0  0  0  1  0  0  0  0  0  0
  -28.7370  -21.4600   19.9210 C   0  0  0  0  0  3  0  0  0  0  0  0
  -30.7440  -20.3720   21.2060 C   0  0  0  0  0  1  0  0  0  0  0  0
  -29.3090  -20.0770   20.7530 C   0  0  0  0  0  3  0  0  0  0  0  0
  -30.5290  -14.9790   20.1510 C   0  0  0  0  0  0  0  0  0  0  0  0
  -30.3620  -12.6240   19.1870 C   0  0  0  0  0  2  0  0  0  0  0  0
  -29.3990  -12.5780   17.9800 C   0  0  0  0  0  2  0  0  0  0  0  0
  -27.9420  -12.3810   18.4430 C   0  0  0  0  0  2  0  0  0  0  0  0
  -27.5770  -13.3010   19.6380 C   0  0  0  0  0  3  0  0  0  0  0  0
  -28.6610  -13.3080   20.7340 C   0  0  0  0  0  2  0  0  0  0  0  0
  -29.9050  -13.7300   20.0850 N   0  0  0  0  0  0  0  0  0  0  0  0
  -31.7300  -14.9950   19.8610 O   0  0  0  0  0  0  0  0  0  0  0  0
  -29.4430  -17.1700   21.2790 C   0  0  0  0  0  2  0  0  0  0  0  0
  -30.1710  -17.5140   19.4430 C   0  0  0  0  0  2  0  0  0  0  0  0
  -29.1840  -18.4180   20.3040 C   0  0  0  0  0  3  0  0  0  0  0  0
  -29.7830  -16.2150   20.1500 N   0  0  0  0  0  0  0  0  0  0  0  0
  -25.2280  -13.8900   20.4580 C   0  0  0  0  0  0  0  0  0  0  0  0
  -24.1680  -13.1200   20.8490 C   0  0  0  0  0  0  0  0  0  0  0  0
  -24.6180  -11.7660   20.7880 C   0  0  0  0  0  0  0  0  0  0  0  0
  -26.2540  -13.0050   20.1730 N   0  0  0  0  0  0  0  0  0  0  0  0
  -25.9010  -11.7220   20.4420 N   0  0  0  0  0  0  0  0  0  0  0  0
  -23.8850  -10.5070   20.9790 C   0  0  0  0  0  0  0  0  0  0  0  0
  -24.3160   -9.5350   21.9100 C   0  0  0  0  0  3  0  0  0  0  0  0
  -23.5840   -8.3410   22.0880 C   0  0  0  0  0  3  0  0  0  0  0  0
  -22.4080   -8.1100   21.3370 C   0  0  0  0  0  0  0  0  0  0  0  0
  -21.9970   -9.0700   20.3960 C   0  0  0  0  0  3  0  0  0  0  0  0
  -22.7280  -10.2560   20.2150 C   0  0  0  0  0  3  0  0  0  0  0  0
  -21.6410   -6.9740   21.4300 O   0  0  0  0  0  0  0  0  0  0  0  0
  -21.5660   -6.2480   22.5920 C   0  0  0  0  0  0  0  0  0  0  0  0
  -21.0880   -6.8110   23.7950 C   0  0  0  0  0  3  0  0  0  0  0  0
  -20.9670   -6.0110   24.9490 C   0  0  0  0  0  3  0  0  0  0  0  0
  -21.3090   -4.6460   24.8980 C   0  0  0  0  0  0  0  0  0  0  0  0
  -21.7760   -4.0810   23.6990 C   0  0  0  0  0  3  0  0  0  0  0  0
  -21.9020   -4.8800   22.5490 C   0  0  0  0  0  0  0  0  0  0  0  0
  -22.3350   -4.3260   21.3920 F   0  0  0  0  0  0  0  0  0  0  0  0
  -21.1830   -3.8740   26.0020 F   0  0  0  0  0  0  0  0  0  0  0  0
  -22.7820  -13.6070   21.1610 C   0  0  0  0  0  0  0  0  0  0  0  0
  -22.0670  -12.9110   22.0390 N   0  0  0  0  0  0  0  0  0  0  0  0
  -22.3420  -14.6400   20.6610 O   0  0  0  0  0  0  0  0  0  0  0  0
  -22.4330  -12.0740   22.4690 H   0  0  0  0  0  0  0  0  0  0  0  0
  -21.1400  -13.2240   22.2910 H   0  0  0  0  0  0  0  0  0  0  0  0
  -25.3980  -15.2620   20.2920 N   0  0  0  0  0  0  0  0  0  0  0  0
  -24.6410  -15.9180   20.4430 H   0  0  0  0  0  0  0  0  0  0  0  0
  -26.2510  -15.7070   19.9710 H   0  0  0  0  0  0  0  0  0  0  0  0
  -28.8450  -23.0890   20.4790 C   0  0  0  0  0  3  0  0  0  0  0  0
  -28.0470  -24.5150   19.9280 C   0  0  0  0  0  3  0  0  0  0  0  0
  -28.2380  -26.0390   20.3370 O   0  0  0  0  0  0  0  0  0  0  0  0
  -24.6320  -31.8400   23.2500 C   0  0  0  0  0  0  0  0  0  0  0  0
  -27.2140  -27.0720   20.2340 C   0  0  0  0  0  0  0  0  0  0  0  0
  -23.4530  -30.4590   21.5870 C   0  0  0  0  0  3  0  0  0  0  0  0
  -24.9100  -28.8760   20.1730 C   0  0  0  0  0  0  0  0  0  0  0  0
  -26.0150  -30.6910   21.4690 C   0  0  0  0  0  2  0  0  0  0  0  0
  -26.0850  -29.2960   20.8070 C   0  0  0  0  0  0  0  0  0  0  0  0
  -27.2360  -28.4100   20.8220 C   0  0  0  0  0  3  0  0  0  0  0  0
  -26.0170  -26.7730   19.5470 C   0  0  0  0  0  3  0  0  0  0  0  0
  -24.8920  -27.6280   19.5290 C   0  0  0  0  0  3  0  0  0  0  0  0
  -23.6910  -29.7890   20.2080 C   0  0  0  0  0  2  0  0  0  0  0  0
  -24.7210  -31.0200   22.1560 N   0  0  0  0  0  0  0  0  0  0  0  0
  -23.5380  -32.1310   23.7570 O   0  0  0  0  0  0  0  0  0  0  0  0
  -22.7520  -29.4530   22.5350 C   0  0  0  0  0  0  0  0  0  0  0  0
  -21.4260  -29.2840   22.3840 N   0  0  0  0  0  0  0  0  0  0  0  0
  -23.4060  -28.8250   23.3740 O   0  0  0  0  0  0  0  0  0  0  0  0
  -20.9530  -29.8430   21.6850 H   0  0  0  0  0  0  0  0  0  0  0  0
  -18.0330  -28.0840   22.8300 C   0  0  0  0  0  0  0  0  0  0  0  0
  -20.5880  -28.3470   23.1400 C   0  0  0  0  0  3  0  0  0  0  0  0
  -20.6980  -26.9150   22.5680 C   0  0  0  0  0  2  0  0  0  0  0  0
  -19.6140  -26.5920   21.5340 C   0  0  0  0  0  2  0  0  0  0  0  0
  -18.2210  -26.7370   22.1530 C   0  0  0  0  0  2  0  0  0  0  0  0
  -19.1460  -28.8470   23.2790 C   0  0  0  0  0  0  0  0  0  0  0  0
  -18.9140  -30.1060   23.8730 C   0  0  0  0  0  3  0  0  0  0  0  0
  -17.6060  -30.6050   24.0220 C   0  0  0  0  0  3  0  0  0  0  0  0
  -16.5090  -29.8410   23.5850 C   0  0  0  0  0  3  0  0  0  0  0  0
  -16.7240  -28.5820   22.9960 C   0  0  0  0  0  3  0  0  0  0  0  0
  -25.9020  -32.4690   23.8990 C   0  0  0  0  0  3  0  0  0  0  0  0
  -26.3770  -31.7040   25.1960 C   0  0  1  0  0  0  0  0  0  0  0  0
  -25.2550  -31.4850   26.2390 C   0  0  0  0  0  1  0  0  0  0  0  0
  -26.9600  -30.3190   24.8340 C   0  0  0  0  0  1  0  0  0  0  0  0
  -27.5130  -32.4970   25.8810 C   0  0  0  0  0  1  0  0  0  0  0  0
  -25.5900  -33.8720   24.2220 N   0  0  0  0  0  0  0  0  0  0  0  0
  -25.9130  -34.9250   23.4600 C   0  0  0  0  0  0  0  0  0  0  0  0
  -26.5720  -34.8180   22.4230 O   0  0  0  0  0  0  0  0  0  0  0  0
  -25.0000  -34.0250   25.0280 H   0  0  0  0  0  0  0  0  0  0  0  0
  -24.1720  -36.7160   23.1370 C   0  0  0  0  0  1  0  0  0  0  0  0
  -25.4330  -36.3180   23.9200 C   0  0  0  0  0  3  0  0  0  0  0  0
  -27.5810  -37.2230   24.6940 C   0  0  0  0  0  1  0  0  0  0  0  0
  -26.4590  -37.3740   23.7710 N   0  0  0  0  0  0  0  0  0  0  0  0
  -26.0520  -38.2950   23.9130 H   0  0  0  0  0  0  0  0  0  0  0  0
  2  1  1  0
  2 45  1  0
  2  4  1  0
  4  3  1  0
  6 11  1  0
  7  8  1  0
  7  6  1  0
  9  8  1  0
  9 20  1  0
  9 10  1  0
 11  5  1  0
 11 10  1  0
 12  5  2  0
 14 16  1  0
 14 15  1  0
 15  4  1  0
 15 13  1  0
 16  5  1  0
 16 13  1  0
 17 18  2  0
 18 37  1  0
 19 18  1  0
 19 22  1  0
 20 21  1  0
 20 17  1  0
 21 19  2  0
 22 23  1  0
 23 24  2  0
 25 28  1  0
 25 24  1  0
 26 25  2  0
 27 26  1  0
 27 22  2  0
 28 29  1  0
 29 30  1  0
 30 31  2  0
 32 31  1  0
 32 36  1  0
 33 32  2  0
 34 29  2  0
 34 33  1  0
 35 34  1  0
 37 38  1  0
 38 41  1  0
 38 40  1  0
 39 37  2  0
 42 43  1  0
 42 17  1  0
 44 42  1  0
 46 47  1  0
 46 45  2  0
 48 59  2  0
 49 47  1  0
 49 54  1  0
 50 58  1  0
 50 60  1  0
 51 57  1  0
 51 53  1  0
 52 58  1  0
 53 54  2  0
 53 52  1  0
 55 49  2  0
 56 55  1  0
 56 51  2  0
 57 50  1  0
 58 48  1  0
 60 62  2  0
 61 60  1  0
 63 61  1  0
 64 73  2  0
 64 69  1  0
 65 61  1  0
 65 69  1  0
 66 65  1  0
 67 68  1  0
 67 66  1  0
 68 64  1  0
 69 70  2  0
 70 71  1  0
 72 71  2  0
 73 72  1  0
 74 48  1  0
 74 79  1  0
 74 75  1  0
 75 78  1  1
 75 76  1  0
 77 75  1  0
 79 82  1  0
 80 84  1  0
 80 79  1  0
 81 80  2  0
 84 83  1  0
 86 87  1  0
 86 84  1  0
 86 85  1  0
M  ISO  4   5 100  16 100  46 101  47 101
M  END
>  <TORSDO>  (21) 
F 19

>  <SCORE>  (21) 
-16.216

>  <name>  (21) 
20

>  <ligand_id>  (21) 
20

>  <original_smiles>  (21) 
[H]c1c([H])c([H])c2c(c1[H])C([H])([H])C([H])([H])C([H])([H])C2([H])N([H])C(=O)C1([H])N(C(=O)C([H])(N([H])C(=O)C([H])(N([H])C([H])([H])[H])C([H])([H])[H])C(C([H])([H])[H])(C([H])([H])[H])C([H])([H])[H])C([H])([H])c2c([H])c(OC([H])([H])C([H])([H])C([H])(C([H])([H])[H])C([H])(C([H])([H])[H])C3([H])C([H])([H])N(C(=O)N4C([H])([H])C([H])([H])C([H])([H])C([H])(n5nc(-c6c([H])c([H])c(Oc7c([H])c([H])c(F)c([H])c7F)c([H])c6[H])c(C(=O)N([H])[H])c5N([H])[H])C4([H])[H])C3([H])[H])c([H])c([H])c2C1([H])[H]

>  <smiles>  (21) 
[H]c1c([H])c([H])c2c(c1[H])C([H])([H])C([H])([H])C([H])([H])C2([H])N([H])C(=O)C1([H])N(C(=O)C([H])(N([H])C(=O)C([H])(N([H])C([H])([H])[H])C([H])([H])[H])C(C([H])([H])[H])(C([H])([H])[H])C([H])([H])[H])C([H])([H])c2c([H])c(OC([H])([H])C([H])([H])C([H])(C([H])([H])[H])C([H])(C([H])([H])[H])C3([H])C([H])([H])N(C(=O)N4C([H])([H])C([H])([H])C([H])([H])C([H])(n5nc(-c6c([H])c([H])c(Oc7c([H])c([H])c(F)c([H])c7F)c([H])c6[H])c(C(=O)N([H])[H])c5N([H])[H])C4([H])[H])C3([H])[H])c([H])c([H])c2C1([H])[H]

$$$$
21:0:0
     RDKit          3D

 88 96  0  0  1  0  0  0  0  0999 V2000
  -28.7870  -22.1220   20.5560 C   0  0  0  0  0  3  0  0  0  0  0  0
  -30.0170  -23.9570   19.1930 C   0  0  0  0  0  1  0  0  0  0  0  0
  -28.6730  -23.6170   19.8560 C   0  0  0  0  0  3  0  0  0  0  0  0
  -28.1730  -24.9350   20.6970 C   0  0  0  0  0  2  0  0  0  0  0  0
  -28.3360  -26.3730   20.2320 O   0  0  0  0  0  0  0  0  0  0  0  0
  -24.6170  -31.8910   23.2420 C   0  0  0  0  0  0  0  0  0  0  0  0
  -27.2350  -27.2650   20.2290 C   0  0  0  0  0  0  0  0  0  0  0  0
  -23.4250  -30.4860   21.6010 C   0  0  0  0  0  3  0  0  0  0  0  0
  -24.8820  -28.9200   20.1880 C   0  0  0  0  0  0  0  0  0  0  0  0
  -25.9690  -30.7910   21.4310 C   0  0  0  0  0  2  0  0  0  0  0  0
  -26.0530  -29.4030   20.7900 C   0  0  0  0  0  0  0  0  0  0  0  0
  -27.2350  -28.5900   20.7900 C   0  0  0  0  0  3  0  0  0  0  0  0
  -26.0430  -26.8480   19.6030 C   0  0  0  0  0  3  0  0  0  0  0  0
  -24.8840  -27.6530   19.5820 C   0  0  0  0  0  3  0  0  0  0  0  0
  -23.6480  -29.8040   20.2250 C   0  0  0  0  0  2  0  0  0  0  0  0
  -24.6900  -31.0750   22.1480 N   0  0  0  0  0  0  0  0  0  0  0  0
  -23.5300  -32.1690   23.7700 O   0  0  0  0  0  0  0  0  0  0  0  0
  -22.7550  -29.4740   22.5630 C   0  0  0  0  0  0  0  0  0  0  0  0
  -21.4280  -29.2970   22.4340 N   0  0  0  0  0  0  0  0  0  0  0  0
  -23.4300  -28.8510   23.3870 O   0  0  0  0  0  0  0  0  0  0  0  0
  -20.9420  -29.8530   21.7430 H   0  0  0  0  0  0  0  0  0  0  0  0
  -18.0500  -28.0960   22.9290 C   0  0  0  0  0  0  0  0  0  0  0  0
  -20.6080  -28.3600   23.2040 C   0  0  0  0  0  3  0  0  0  0  0  0
  -20.7120  -26.9270   22.6320 C   0  0  0  0  0  2  0  0  0  0  0  0
  -19.6140  -26.6010   21.6150 C   0  0  0  0  0  2  0  0  0  0  0  0
  -18.2300  -26.7460   22.2560 C   0  0  0  0  0  2  0  0  0  0  0  0
  -19.1670  -28.8610   23.3610 C   0  0  0  0  0  0  0  0  0  0  0  0
  -18.9440  -30.1230   23.9530 C   0  0  0  0  0  3  0  0  0  0  0  0
  -17.6380  -30.6220   24.1150 C   0  0  0  0  0  3  0  0  0  0  0  0
  -16.5360  -29.8550   23.6980 C   0  0  0  0  0  3  0  0  0  0  0  0
  -16.7440  -28.5930   23.1120 C   0  0  0  0  0  3  0  0  0  0  0  0
  -25.8940  -32.5290   23.8700 C   0  0  0  0  0  3  0  0  0  0  0  0
  -26.4020  -31.7650   25.1540 C   0  0  1  0  0  0  0  0  0  0  0  0
  -25.3030  -31.5330   26.2170 C   0  0  0  0  0  1  0  0  0  0  0  0
  -26.9880  -30.3850   24.7750 C   0  0  0  0  0  1  0  0  0  0  0  0
  -27.5490  -32.5630   25.8190 C   0  0  0  0  0  1  0  0  0  0  0  0
  -25.5800  -33.9280   24.1950 N   0  0  0  0  0  0  0  0  0  0  0  0
  -25.9160  -34.9810   23.4400 C   0  0  0  0  0  0  0  0  0  0  0  0
  -26.5930  -34.8780   22.4120 O   0  0  0  0  0  0  0  0  0  0  0  0
  -24.9800  -34.0840   24.9930 H   0  0  0  0  0  0  0  0  0  0  0  0
  -24.1910  -36.7760   23.0730 C   0  0  0  0  0  1  0  0  0  0  0  0
  -25.4270  -36.3710   23.8920 C   0  0  0  0  0  3  0  0  0  0  0  0
  -27.5560  -37.2570   24.7370 C   0  0  0  0  0  1  0  0  0  0  0  0
  -26.4600  -37.4240   23.7840 N   0  0  0  0  0  0  0  0  0  0  0  0
  -26.0530  -38.3440   23.9270 H   0  0  0  0  0  0  0  0  0  0  0  0
  -28.8630  -20.7660   19.6420 C   0  0  0  0  0  3  0  0  0  0  0  0
  -28.7600  -16.8000   20.4690 C   0  0  0  0  0  3  0  0  0  0  0  0
  -31.0060  -17.4300   20.0550 C   0  0  0  0  0  3  0  0  0  0  0  0
  -28.3760  -18.1970   20.3700 C   0  0  0  0  0  3  0  0  0  0  0  0
  -30.6300  -18.8140   19.9680 C   0  0  0  0  0  3  0  0  0  0  0  0
  -30.1010  -16.3370   20.2720 C   0  0  0  0  0  0  0  0  0  0  0  0
  -29.2910  -19.2690   20.0890 C   0  0  0  0  0  0  0  0  0  0  0  0
  -30.6510  -14.8430   20.2060 C   0  0  0  0  0  0  0  0  0  0  0  0
  -30.3600  -12.5420   19.2650 C   0  0  0  0  0  2  0  0  0  0  0  0
  -29.4190  -12.5700   18.0430 C   0  0  0  0  0  2  0  0  0  0  0  0
  -27.9610  -12.3850   18.4990 C   0  0  0  0  0  2  0  0  0  0  0  0
  -27.5910  -13.3000   19.6960 C   0  0  0  0  0  3  0  0  0  0  0  0
  -28.6690  -13.3020   20.7990 C   0  0  0  0  0  2  0  0  0  0  0  0
  -29.9460  -13.6500   20.1710 N   0  0  0  0  0  0  0  0  0  0  0  0
  -31.8530  -14.7700   19.9350 O   0  0  0  0  0  0  0  0  0  0  0  0
  -25.2240  -13.8620   20.4950 C   0  0  0  0  0  0  0  0  0  0  0  0
  -24.1730  -13.0790   20.8860 C   0  0  0  0  0  0  0  0  0  0  0  0
  -24.6440  -11.7320   20.8390 C   0  0  0  0  0  0  0  0  0  0  0  0
  -26.2670  -12.9920   20.2270 N   0  0  0  0  0  0  0  0  0  0  0  0
  -25.9290  -11.7040   20.5010 N   0  0  0  0  0  0  0  0  0  0  0  0
  -23.9270  -10.4640   21.0340 C   0  0  0  0  0  0  0  0  0  0  0  0
  -24.3810   -9.4910   21.9510 C   0  0  0  0  0  3  0  0  0  0  0  0
  -23.6610   -8.2900   22.1370 C   0  0  0  0  0  3  0  0  0  0  0  0
  -22.4720   -8.0550   21.4040 C   0  0  0  0  0  0  0  0  0  0  0  0
  -22.0370   -9.0170   20.4770 C   0  0  0  0  0  3  0  0  0  0  0  0
  -22.7580  -10.2090   20.2890 C   0  0  0  0  0  3  0  0  0  0  0  0
  -21.7220   -6.9080   21.5010 O   0  0  0  0  0  0  0  0  0  0  0  0
  -21.7020   -6.1550   22.6470 C   0  0  0  0  0  0  0  0  0  0  0  0
  -21.3060   -6.6980   23.8890 C   0  0  0  0  0  3  0  0  0  0  0  0
  -21.2330   -5.8710   25.0280 C   0  0  0  0  0  3  0  0  0  0  0  0
  -21.5460   -4.5020   24.9270 C   0  0  0  0  0  0  0  0  0  0  0  0
  -21.9350   -3.9590   23.6890 C   0  0  0  0  0  3  0  0  0  0  0  0
  -22.0100   -4.7820   22.5530 C   0  0  0  0  0  0  0  0  0  0  0  0
  -22.3650   -4.2490   21.3590 F   0  0  0  0  0  0  0  0  0  0  0  0
  -21.4680   -3.7070   26.0190 F   0  0  0  0  0  0  0  0  0  0  0  0
  -22.7800  -13.5490   21.1850 C   0  0  0  0  0  0  0  0  0  0  0  0
  -22.0700  -12.8460   22.0610 N   0  0  0  0  0  0  0  0  0  0  0  0
  -22.3290  -14.5740   20.6760 O   0  0  0  0  0  0  0  0  0  0  0  0
  -22.4500  -12.0180   22.4950 H   0  0  0  0  0  0  0  0  0  0  0  0
  -21.1350  -13.1440   22.3030 H   0  0  0  0  0  0  0  0  0  0  0  0
  -25.3680  -15.2340   20.3150 N   0  0  0  0  0  0  0  0  0  0  0  0
  -24.5840  -15.8690   20.4350 H   0  0  0  0  0  0  0  0  0  0  0  0
  -26.1720  -15.6760   19.8920 H   0  0  0  0  0  0  0  0  0  0  0  0
  3  2  1  0
  3  1  1  0
  3  4  1  0
  5  4  1  0
  6 17  2  0
  7  5  1  0
  7 12  1  0
  8 16  1  0
  8 18  1  0
  9 15  1  0
  9 11  1  0
 10 16  1  0
 11 12  2  0
 11 10  1  0
 13  7  2  0
 14 13  1  0
 14  9  2  0
 15  8  1  0
 16  6  1  0
 18 20  2  0
 19 18  1  0
 21 19  1  0
 22 31  2  0
 22 27  1  0
 23 19  1  0
 23 27  1  0
 24 23  1  0
 25 26  1  0
 25 24  1  0
 26 22  1  0
 27 28  2  0
 28 29  1  0
 30 29  2  0
 31 30  1  0
 32  6  1  0
 32 37  1  0
 32 33  1  0
 33 36  1  1
 33 34  1  0
 35 33  1  0
 37 40  1  0
 38 42  1  0
 38 37  1  0
 39 38  2  0
 42 41  1  0
 44 42  1  0
 44 45  1  0
 44 43  1  0
 46 52  1  0
 46  1  2  0
 48 51  1  0
 49 47  1  0
 50 48  2  0
 50 52  1  0
 51 47  2  0
 52 49  2  0
 53 51  1  0
 54 59  1  0
 55 56  1  0
 55 54  1  0
 57 56  1  0
 57 64  1  0
 57 58  1  0
 59 53  1  0
 59 58  1  0
 60 53  2  0
 61 62  2  0
 62 81  1  0
 63 62  1  0
 63 66  1  0
 64 61  1  0
 64 65  1  0
 65 63  2  0
 66 67  1  0
 67 68  2  0
 69 72  1  0
 69 68  1  0
 70 69  2  0
 71 70  1  0
 71 66  2  0
 72 73  1  0
 73 74  1  0
 74 75  2  0
 76 75  1  0
 76 80  1  0
 77 76  2  0
 78 73  2  0
 78 77  1  0
 79 78  1  0
 81 82  1  0
 82 85  1  0
 82 84  1  0
 83 81  2  0
 86 87  1  0
 86 61  1  0
 88 86  1  0
M  ISO  4   4 101   5 101  51 100  53 100
M  END
>  <TORSDO>  (22) 
F 20

>  <SCORE>  (22) 
-13.893

>  <name>  (22) 
21

>  <ligand_id>  (22) 
21

>  <original_smiles>  (22) 
[H]c1c([H])c([H])c2c(c1[H])C([H])([H])C([H])([H])C([H])([H])C2([H])N([H])C(=O)C1([H])N(C(=O)C([H])(N([H])C(=O)C([H])(N([H])C([H])([H])[H])C([H])([H])[H])C(C([H])([H])[H])(C([H])([H])[H])C([H])([H])[H])C([H])([H])c2c([H])c(OC([H])([H])C([H])(C([H])([H])[H])C([H])([H])C([H])([H])c3c([H])c([H])c(C(=O)N4C([H])([H])C([H])([H])C([H])([H])C([H])(n5nc(-c6c([H])c([H])c(Oc7c([H])c([H])c(F)c([H])c7F)c([H])c6[H])c(C(=O)N([H])[H])c5N([H])[H])C4([H])[H])c([H])c3[H])c([H])c([H])c2C1([H])[H]

>  <smiles>  (22) 
[H]c1c([H])c([H])c2c(c1[H])C([H])([H])C([H])([H])C([H])([H])C2([H])N([H])C(=O)C1([H])N(C(=O)C([H])(N([H])C(=O)C([H])(N([H])C([H])([H])[H])C([H])([H])[H])C(C([H])([H])[H])(C([H])([H])[H])C([H])([H])[H])C([H])([H])c2c([H])c(OC([H])([H])C([H])(C([H])([H])[H])C([H])([H])C([H])([H])c3c([H])c([H])c(C(=O)N4C([H])([H])C([H])([H])C([H])([H])C([H])(n5nc(-c6c([H])c([H])c(Oc7c([H])c([H])c(F)c([H])c7F)c([H])c6[H])c(C(=O)N([H])[H])c5N([H])[H])C4([H])[H])c([H])c3[H])c([H])c([H])c2C1([H])[H]

$$$$
22:0:0
     RDKit          3D

 91 99  0  0  1  0  0  0  0  0999 V2000
  -29.4250  -19.2960   21.2660 C   0  0  0  0  0  2  0  0  0  0  0  0
  -30.5630  -19.8970   19.1930 C   0  0  0  0  0  2  0  0  0  0  0  0
  -28.4870  -20.5350   21.1460 C   0  0  0  0  0  2  0  0  0  0  0  0
  -29.7170  -21.2000   19.0250 C   0  0  0  0  0  2  0  0  0  0  0  0
  -29.8350  -18.7160   19.9030 C   0  0  0  0  0  3  0  0  0  0  0  0
  -28.9050  -21.6370   20.2090 N   0  0  2  0  0  4  0  0  0  0  0  0
  -28.0190  -21.8500   19.7750 H   0  0  0  0  0  0  0  0  0  0  0  0
  -30.1530  -16.1030   20.0730 C   0  0  0  0  0  3  0  0  0  0  0  0
  -30.6450  -17.3790   19.9770 C   0  0  0  0  0  0  0  0  0  0  0  0
  -30.9750  -14.8660   19.9510 C   0  0  0  0  0  0  0  0  0  0  0  0
  -30.6700  -12.6160   18.9930 C   0  0  0  0  0  2  0  0  0  0  0  0
  -29.6850  -12.7310   17.8080 C   0  0  0  0  0  2  0  0  0  0  0  0
  -28.2250  -12.6090   18.2900 C   0  0  0  0  0  2  0  0  0  0  0  0
  -27.9240  -13.4970   19.5230 C   0  0  0  0  0  3  0  0  0  0  0  0
  -29.0220  -13.3730   20.5990 C   0  0  0  0  0  2  0  0  0  0  0  0
  -30.3160  -13.6660   19.9660 N   0  0  0  0  0  0  0  0  0  0  0  0
  -32.1590  -14.9200   19.6010 O   0  0  0  0  0  0  0  0  0  0  0  0
  -25.5910  -14.1450   20.3860 C   0  0  0  0  0  0  0  0  0  0  0  0
  -24.5250  -13.3930   20.7980 C   0  0  0  0  0  0  0  0  0  0  0  0
  -24.9500  -12.0300   20.7130 C   0  0  0  0  0  0  0  0  0  0  0  0
  -26.5950  -13.2430   20.0710 N   0  0  0  0  0  0  0  0  0  0  0  0
  -26.2190  -11.9650   20.3290 N   0  0  0  0  0  0  0  0  0  0  0  0
  -24.2050  -10.7830   20.9140 C   0  0  0  0  0  0  0  0  0  0  0  0
  -24.6190   -9.8200   21.8610 C   0  0  0  0  0  3  0  0  0  0  0  0
  -23.8760   -8.6350   22.0500 C   0  0  0  0  0  3  0  0  0  0  0  0
  -22.7050   -8.4040   21.2900 C   0  0  0  0  0  0  0  0  0  0  0  0
  -22.3110   -9.3540   20.3310 C   0  0  0  0  0  3  0  0  0  0  0  0
  -23.0540  -10.5310   20.1420 C   0  0  0  0  0  3  0  0  0  0  0  0
  -21.9340   -7.2710   21.3850 O   0  0  0  0  0  0  0  0  0  0  0  0
  -21.8250   -6.5700   22.5600 C   0  0  0  0  0  0  0  0  0  0  0  0
  -21.2770   -7.1510   23.7260 C   0  0  0  0  0  3  0  0  0  0  0  0
  -21.1200   -6.3740   24.8910 C   0  0  0  0  0  3  0  0  0  0  0  0
  -21.4980   -5.0180   24.8910 C   0  0  0  0  0  0  0  0  0  0  0  0
  -22.0350   -4.4360   23.7280 C   0  0  0  0  0  3  0  0  0  0  0  0
  -22.1970   -5.2120   22.5660 C   0  0  0  0  0  0  0  0  0  0  0  0
  -22.6960   -4.6400   21.4430 F   0  0  0  0  0  0  0  0  0  0  0  0
  -21.3390   -4.2720   26.0090 F   0  0  0  0  0  0  0  0  0  0  0  0
  -23.1540  -13.9000   21.1480 C   0  0  0  0  0  0  0  0  0  0  0  0
  -22.4490  -13.2050   22.0340 N   0  0  0  0  0  0  0  0  0  0  0  0
  -22.7170  -14.9440   20.6670 O   0  0  0  0  0  0  0  0  0  0  0  0
  -22.8200  -12.3670   22.4560 H   0  0  0  0  0  0  0  0  0  0  0  0
  -21.5290  -13.5240   22.3030 H   0  0  0  0  0  0  0  0  0  0  0  0
  -25.7870  -15.5150   20.2300 N   0  0  0  0  0  0  0  0  0  0  0  0
  -25.0540  -16.1830   20.4340 H   0  0  0  0  0  0  0  0  0  0  0  0
  -26.6100  -15.9350   19.8150 H   0  0  0  0  0  0  0  0  0  0  0  0
  -31.9580  -17.6470   19.8580 O   0  0  0  0  0  0  0  0  0  0  0  0
  -32.4140  -16.8090   19.8640 H   0  0  0  0  0  0  0  0  0  0  0  0
  -29.2250  -22.9740   20.8520 C   0  0  0  0  0  2  0  0  0  0  0  0
  -28.9080  -24.2870   20.0250 C   0  0  0  0  0  2  0  0  0  0  0  0
  -28.6960  -25.5800   20.9050 C   0  0  0  0  0  2  0  0  0  0  0  0
  -28.7010  -26.8830   20.2500 O   0  0  0  0  0  0  0  0  0  0  0  0
  -24.6140  -31.9580   23.2790 C   0  0  0  0  0  0  0  0  0  0  0  0
  -27.5220  -27.6120   20.2510 C   0  0  0  0  0  0  0  0  0  0  0  0
  -23.5210  -30.5470   21.5660 C   0  0  0  0  0  3  0  0  0  0  0  0
  -25.0850  -29.0740   20.1770 C   0  0  0  0  0  0  0  0  0  0  0  0
  -26.0440  -30.9800   21.4800 C   0  0  0  0  0  2  0  0  0  0  0  0
  -26.2040  -29.6200   20.8200 C   0  0  0  0  0  0  0  0  0  0  0  0
  -27.4270  -28.9000   20.8470 C   0  0  0  0  0  3  0  0  0  0  0  0
  -26.3840  -27.0900   19.6030 C   0  0  0  0  0  3  0  0  0  0  0  0
  -25.1730  -27.8110   19.5620 C   0  0  0  0  0  3  0  0  0  0  0  0
  -23.8130  -29.8940   20.1870 C   0  0  0  0  0  2  0  0  0  0  0  0
  -24.7410  -31.1780   22.1670 N   0  0  0  0  0  0  0  0  0  0  0  0
  -23.5040  -32.1840   23.7790 O   0  0  0  0  0  0  0  0  0  0  0  0
  -22.8650  -29.4910   22.4840 C   0  0  0  0  0  0  0  0  0  0  0  0
  -21.5430  -29.3040   22.3350 N   0  0  0  0  0  0  0  0  0  0  0  0
  -23.5420  -28.8420   23.2860 O   0  0  0  0  0  0  0  0  0  0  0  0
  -21.0560  -29.8780   21.6620 H   0  0  0  0  0  0  0  0  0  0  0  0
  -18.1610  -28.1150   22.8090 C   0  0  0  0  0  0  0  0  0  0  0  0
  -20.7260  -28.3300   23.0600 C   0  0  0  0  0  3  0  0  0  0  0  0
  -20.8030  -26.9330   22.4000 C   0  0  0  0  0  2  0  0  0  0  0  0
  -19.6860  -26.6820   21.3830 C   0  0  0  0  0  2  0  0  0  0  0  0
  -18.3130  -26.8060   22.0520 C   0  0  0  0  0  2  0  0  0  0  0  0
  -19.2940  -28.8380   23.2670 C   0  0  0  0  0  0  0  0  0  0  0  0
  -19.0990  -30.0670   23.9330 C   0  0  0  0  0  3  0  0  0  0  0  0
  -17.8020  -30.5750   24.1420 C   0  0  0  0  0  3  0  0  0  0  0  0
  -16.6840  -29.8470   23.7030 C   0  0  0  0  0  3  0  0  0  0  0  0
  -16.8640  -28.6180   23.0420 C   0  0  0  0  0  3  0  0  0  0  0  0
  -25.8520  -32.6200   23.9620 C   0  0  0  0  0  3  0  0  0  0  0  0
  -25.5140  -34.0230   24.2290 N   0  0  0  0  0  0  0  0  0  0  0  0
  -25.8760  -35.0550   23.4540 C   0  0  0  0  0  0  0  0  0  0  0  0
  -26.6000  -34.9250   22.4620 O   0  0  0  0  0  0  0  0  0  0  0  0
  -24.8770  -34.1970   24.9940 H   0  0  0  0  0  0  0  0  0  0  0  0
  -24.1610  -36.8190   22.9390 C   0  0  0  0  0  1  0  0  0  0  0  0
  -25.3520  -36.4500   23.8390 C   0  0  0  0  0  3  0  0  0  0  0  0
  -27.4190  -37.3850   24.7810 C   0  0  0  0  0  1  0  0  0  0  0  0
  -26.3800  -37.5120   23.7620 N   0  0  0  0  0  0  0  0  0  0  0  0
  -25.9550  -38.4310   23.8560 H   0  0  0  0  0  0  0  0  0  0  0  0
  -26.2930  -31.8890   25.2910 C   0  0  1  0  0  0  0  0  0  0  0  0
  -25.1350  -31.6650   26.2910 C   0  0  0  0  0  1  0  0  0  0  0  0
  -26.9190  -30.5100   24.9760 C   0  0  0  0  0  1  0  0  0  0  0  0
  -27.3840  -32.7200   26.0070 C   0  0  0  0  0  1  0  0  0  0  0  0
  2  5  1  0
  3  1  1  0
  4  2  1  0
  4  6  1  0
  5  9  1  0
  5  1  1  0
  6 48  1  0
  6  3  1  0
  6  7  1  6
  9  8  2  0
 10 16  1  0
 10  8  1  0
 11 16  1  0
 12 13  1  0
 12 11  1  0
 14 13  1  0
 14 21  1  0
 14 15  1  0
 16 15  1  0
 17 10  2  0
 18 19  2  0
 19 38  1  0
 20 19  1  0
 20 23  1  0
 21 22  1  0
 21 18  1  0
 22 20  2  0
 23 24  1  0
 24 25  2  0
 26 29  1  0
 26 25  1  0
 27 26  2  0
 28 27  1  0
 28 23  2  0
 29 30  1  0
 30 35  2  0
 30 31  1  0
 31 32  2  0
 32 33  1  0
 33 37  1  0
 34 33  2  0
 35 34  1  0
 36 35  1  0
 38 39  1  0
 39 42  1  0
 39 41  1  0
 40 38  2  0
 43 18  1  0
 43 44  1  0
 45 43  1  0
 46 47  1  0
 46  9  1  0
 49 48  1  0
 49 50  1  0
 51 53  1  0
 51 50  1  0
 52 63  2  0
 53 58  1  0
 54 62  1  0
 54 64  1  0
 55 61  1  0
 55 57  1  0
 56 62  1  0
 57 58  2  0
 57 56  1  0
 59 53  2  0
 60 59  1  0
 60 55  2  0
 61 54  1  0
 62 52  1  0
 64 66  2  0
 65 64  1  0
 67 65  1  0
 68 77  2  0
 68 73  1  0
 69 65  1  0
 69 73  1  0
 70 69  1  0
 71 72  1  0
 71 70  1  0
 72 68  1  0
 73 74  2  0
 74 75  1  0
 76 75  2  0
 77 76  1  0
 78 52  1  0
 78 79  1  0
 78 88  1  0
 79 82  1  0
 80 84  1  0
 80 79  1  0
 81 80  2  0
 84 83  1  0
 86 84  1  0
 86 87  1  0
 86 85  1  0
 88 91  1  1
 88 89  1  0
 90 88  1  0
M  ISO  4   8 100  10 100  50 101  51 101
M  END
>  <TORSDO>  (23) 
F 21

>  <SCORE>  (23) 
-12.828

>  <name>  (23) 
22

>  <ligand_id>  (23) 
22

>  <original_smiles>  (23) 
[H]OC(=C([H])C(=O)N1C([H])([H])C([H])([H])C([H])([H])C([H])(n2nc(-c3c([H])c([H])c(Oc4c([H])c([H])c(F)c([H])c4F)c([H])c3[H])c(C(=O)N([H])[H])c2N([H])[H])C1([H])[H])C1([H])C([H])([H])C([H])([H])[N+]([H])(C([H])([H])C([H])([H])C([H])([H])Oc2c([H])c([H])c3c(c2[H])C([H])([H])N(C(=O)C([H])(N([H])C(=O)C([H])(N([H])C([H])([H])[H])C([H])([H])[H])C(C([H])([H])[H])(C([H])([H])[H])C([H])([H])[H])C([H])(C(=O)N([H])C2([H])c4c([H])c([H])c([H])c([H])c4C([H])([H])C([H])([H])C2([H])[H])C3([H])[H])C([H])([H])C1([H])[H]

>  <smiles>  (23) 
[H]OC(=C([H])C(=O)N1C([H])([H])C([H])([H])C([H])([H])C([H])(n2nc(-c3c([H])c([H])c(Oc4c([H])c([H])c(F)c([H])c4F)c([H])c3[H])c(C(=O)N([H])[H])c2N([H])[H])C1([H])[H])C1([H])C([H])([H])C([H])([H])[N+]([H])(C([H])([H])C([H])([H])C([H])([H])Oc2c([H])c([H])c3c(c2[H])C([H])([H])N(C(=O)C([H])(N([H])C(=O)C([H])(N([H])C([H])([H])[H])C([H])([H])[H])C(C([H])([H])[H])(C([H])([H])[H])C([H])([H])[H])C([H])(C(=O)N([H])C2([H])c4c([H])c([H])c([H])c([H])c4C([H])([H])C([H])([H])C2([H])[H])C3([H])[H])C([H])([H])C1([H])[H]

$$$$
23:0:0
     RDKit          3D

 90 98  0  0  1  0  0  0  0  0999 V2000
  -28.9640  -21.0230   19.8960 C   0  0  0  0  0  3  0  0  0  0  0  0
  -29.7100  -19.8230   20.4860 N   0  0  0  0  0  4  0  0  0  0  0  0
  -30.6930  -19.9910   20.3350 H   0  0  0  0  0  0  0  0  0  0  0  0
  -29.5650  -19.8430   21.4830 H   0  0  0  0  0  0  0  0  0  0  0  0
  -29.3980  -18.3960   20.0110 C   0  0  0  0  0  2  0  0  0  0  0  0
  -30.6400  -14.6620   19.9280 C   0  0  0  0  0  0  0  0  0  0  0  0
  -30.3030  -12.4760   18.7600 C   0  0  0  0  0  2  0  0  0  0  0  0
  -29.2610  -12.6300   17.6300 C   0  0  0  0  0  2  0  0  0  0  0  0
  -27.8280  -12.4570   18.1740 C   0  0  0  0  0  2  0  0  0  0  0  0
  -27.5800  -13.2770   19.4670 C   0  0  0  0  0  3  0  0  0  0  0  0
  -28.7220  -13.0670   20.4790 C   0  0  0  0  0  2  0  0  0  0  0  0
  -29.9740  -13.4620   19.8150 N   0  0  0  0  0  0  0  0  0  0  0  0
  -31.7400  -14.8120   19.3900 O   0  0  0  0  0  0  0  0  0  0  0  0
  -30.4420  -17.1210   21.9940 C   0  0  0  0  0  0  0  0  0  0  0  0
  -29.7060  -15.7880   21.9140 C   0  0  0  0  0  2  0  0  0  0  0  0
  -30.4070  -17.2330   20.4720 C   0  0  0  0  0  3  0  0  0  0  0  0
  -29.9670  -15.7550   20.4550 N   0  0  0  0  0  0  0  0  0  0  0  0
  -30.8440  -17.8440   22.9090 O   0  0  0  0  0  0  0  0  0  0  0  0
  -25.2600  -13.8680   20.3930 C   0  0  0  0  0  0  0  0  0  0  0  0
  -24.2210  -13.0910   20.8280 C   0  0  0  0  0  0  0  0  0  0  0  0
  -24.6700  -11.7380   20.7270 C   0  0  0  0  0  0  0  0  0  0  0  0
  -26.2740  -12.9890   20.0520 N   0  0  0  0  0  0  0  0  0  0  0  0
  -25.9300  -11.7010   20.3130 N   0  0  0  0  0  0  0  0  0  0  0  0
  -23.9530  -10.4750   20.9440 C   0  0  0  0  0  0  0  0  0  0  0  0
  -24.4320   -9.4990   21.8460 C   0  0  0  0  0  3  0  0  0  0  0  0
  -23.7140   -8.3020   22.0510 C   0  0  0  0  0  3  0  0  0  0  0  0
  -22.5040   -8.0700   21.3540 C   0  0  0  0  0  0  0  0  0  0  0  0
  -22.0440   -9.0350   20.4410 C   0  0  0  0  0  3  0  0  0  0  0  0
  -22.7620  -10.2250   20.2340 C   0  0  0  0  0  3  0  0  0  0  0  0
  -21.7540   -6.9260   21.4700 O   0  0  0  0  0  0  0  0  0  0  0  0
  -21.7280   -6.1960   22.6320 C   0  0  0  0  0  0  0  0  0  0  0  0
  -21.3390   -6.7670   23.8620 C   0  0  0  0  0  3  0  0  0  0  0  0
  -21.2610   -5.9650   25.0180 C   0  0  0  0  0  3  0  0  0  0  0  0
  -21.5610   -4.5920   24.9440 C   0  0  0  0  0  0  0  0  0  0  0  0
  -21.9450   -4.0200   23.7180 C   0  0  0  0  0  3  0  0  0  0  0  0
  -22.0250   -4.8200   22.5640 C   0  0  0  0  0  0  0  0  0  0  0  0
  -22.3740   -4.2590   21.3810 F   0  0  0  0  0  0  0  0  0  0  0  0
  -21.4800   -3.8180   26.0520 F   0  0  0  0  0  0  0  0  0  0  0  0
  -22.8530  -13.5680   21.2230 C   0  0  0  0  0  0  0  0  0  0  0  0
  -22.1980  -12.8610   22.1360 N   0  0  0  0  0  0  0  0  0  0  0  0
  -22.3780  -14.6020   20.7560 O   0  0  0  0  0  0  0  0  0  0  0  0
  -22.5970  -12.0240   22.5340 H   0  0  0  0  0  0  0  0  0  0  0  0
  -21.2840  -13.1620   22.4440 H   0  0  0  0  0  0  0  0  0  0  0  0
  -25.4220  -15.2420   20.2380 N   0  0  0  0  0  0  0  0  0  0  0  0
  -24.6700  -15.8990   20.4210 H   0  0  0  0  0  0  0  0  0  0  0  0
  -26.2440  -15.6780   19.8430 H   0  0  0  0  0  0  0  0  0  0  0  0
  -29.0740  -22.4290   20.6770 C   0  0  0  0  0  3  0  0  0  0  0  0
  -28.6700  -23.8190   19.9670 C   0  0  0  0  0  2  0  0  0  0  0  0
  -28.4370  -25.1140   20.8860 C   0  0  0  0  0  2  0  0  0  0  0  0
  -28.5440  -26.4960   20.3520 O   0  0  0  0  0  0  0  0  0  0  0  0
  -24.6490  -31.8630   23.2620 C   0  0  0  0  0  0  0  0  0  0  0  0
  -27.4060  -27.3130   20.3310 C   0  0  0  0  0  0  0  0  0  0  0  0
  -23.5130  -30.4400   21.5930 C   0  0  0  0  0  3  0  0  0  0  0  0
  -25.0240  -28.8880   20.2310 C   0  0  0  0  0  0  0  0  0  0  0  0
  -26.0510  -30.7870   21.4850 C   0  0  0  0  0  2  0  0  0  0  0  0
  -26.1680  -29.4040   20.8550 C   0  0  0  0  0  0  0  0  0  0  0  0
  -27.3660  -28.6290   20.8880 C   0  0  0  0  0  3  0  0  0  0  0  0
  -26.2420  -26.8400   19.6960 C   0  0  0  0  0  3  0  0  0  0  0  0
  -25.0630  -27.6120   19.6420 C   0  0  0  0  0  3  0  0  0  0  0  0
  -23.7780  -29.7510   20.2280 C   0  0  0  0  0  2  0  0  0  0  0  0
  -24.7550  -31.0480   22.1710 N   0  0  0  0  0  0  0  0  0  0  0  0
  -23.5470  -32.1330   23.7610 O   0  0  0  0  0  0  0  0  0  0  0  0
  -22.8300  -29.4250   22.5410 C   0  0  0  0  0  0  0  0  0  0  0  0
  -21.5110  -29.2320   22.3700 N   0  0  0  0  0  0  0  0  0  0  0  0
  -23.4860  -28.8150   23.3880 O   0  0  0  0  0  0  0  0  0  0  0  0
  -21.0400  -29.7760   21.6610 H   0  0  0  0  0  0  0  0  0  0  0  0
  -18.1350  -27.9910   22.7530 C   0  0  0  0  0  0  0  0  0  0  0  0
  -20.6760  -28.2910   23.1190 C   0  0  0  0  0  3  0  0  0  0  0  0
  -20.8210  -26.8540   22.5660 C   0  0  0  0  0  2  0  0  0  0  0  0
  -19.7650  -26.5040   21.5130 C   0  0  0  0  0  2  0  0  0  0  0  0
  -18.3570  -26.6360   22.1020 C   0  0  0  0  0  2  0  0  0  0  0  0
  -19.2240  -28.7740   23.2160 C   0  0  0  0  0  0  0  0  0  0  0  0
  -18.9630  -30.0410   23.7840 C   0  0  0  0  0  3  0  0  0  0  0  0
  -17.6460  -30.5240   23.8920 C   0  0  0  0  0  3  0  0  0  0  0  0
  -16.5700  -29.7370   23.4450 C   0  0  0  0  0  3  0  0  0  0  0  0
  -16.8150  -28.4720   22.8810 C   0  0  0  0  0  3  0  0  0  0  0  0
  -25.9050  -32.5120   23.9210 C   0  0  0  0  0  3  0  0  0  0  0  0
  -25.5750  -33.9120   24.2240 N   0  0  0  0  0  0  0  0  0  0  0  0
  -25.9170  -34.9580   23.4600 C   0  0  0  0  0  0  0  0  0  0  0  0
  -26.6130  -34.8470   22.4470 O   0  0  0  0  0  0  0  0  0  0  0  0
  -24.9590  -34.0720   25.0070 H   0  0  0  0  0  0  0  0  0  0  0  0
  -24.1780  -36.7280   23.0460 C   0  0  0  0  0  1  0  0  0  0  0  0
  -25.4080  -36.3490   23.8870 C   0  0  0  0  0  3  0  0  0  0  0  0
  -27.5180  -37.2680   24.7420 C   0  0  0  0  0  1  0  0  0  0  0  0
  -26.4310  -37.4100   23.7750 N   0  0  0  0  0  0  0  0  0  0  0  0
  -26.0130  -38.3290   23.9020 H   0  0  0  0  0  0  0  0  0  0  0  0
  -26.3820  -31.7600   25.2250 C   0  0  1  0  0  0  0  0  0  0  0  0
  -25.2530  -31.5280   26.2560 C   0  0  0  0  0  1  0  0  0  0  0  0
  -26.9870  -30.3830   24.8710 C   0  0  0  0  0  1  0  0  0  0  0  0
  -27.5020  -32.5710   25.9170 C   0  0  0  0  0  1  0  0  0  0  0  0
  1  2  1  0
  1 47  2  0
  2  4  1  0
  3  2  1  0
  5  2  1  0
  6 17  1  0
  7 12  1  0
  8  9  1  0
  8  7  1  0
 10  9  1  0
 10 22  1  0
 10 11  1  0
 12  6  1  0
 12 11  1  0
 13  6  2  0
 14 18  2  0
 15 14  1  0
 16  5  1  0
 16 14  1  0
 17 16  1  0
 17 15  1  0
 19 20  2  0
 20 39  1  0
 21 20  1  0
 21 24  1  0
 22 23  1  0
 22 19  1  0
 23 21  2  0
 24 25  1  0
 25 26  2  0
 27 30  1  0
 27 26  1  0
 28 27  2  0
 29 28  1  0
 29 24  2  0
 30 31  1  0
 31 32  1  0
 32 33  2  0
 34 33  1  0
 34 38  1  0
 35 34  2  0
 36 31  2  0
 36 35  1  0
 37 36  1  0
 39 40  1  0
 40 43  1  0
 40 42  1  0
 41 39  2  0
 44 19  1  0
 44 45  1  0
 46 44  1  0
 48 47  1  0
 48 49  1  0
 50 49  1  0
 51 62  2  0
 52 50  1  0
 52 57  1  0
 53 61  1  0
 53 63  1  0
 54 56  1  0
 55 61  1  0
 56 57  2  0
 56 55  1  0
 58 52  2  0
 59 58  1  0
 59 54  2  0
 60 54  1  0
 60 53  1  0
 61 51  1  0
 63 65  2  0
 64 63  1  0
 66 64  1  0
 67 76  2  0
 67 72  1  0
 68 64  1  0
 68 72  1  0
 69 68  1  0
 70 71  1  0
 70 69  1  0
 71 67  1  0
 72 73  2  0
 73 74  1  0
 75 74  2  0
 76 75  1  0
 77 51  1  0
 77 78  1  0
 77 87  1  0
 78 81  1  0
 79 83  1  0
 79 78  1  0
 80 79  2  0
 83 82  1  0
 85 83  1  0
 85 86  1  0
 85 84  1  0
 87 90  1  1
 87 88  1  0
 89 87  1  0
M  ISO  4   6 100  17 100  49 101  50 101
M  END
>  <TORSDO>  (24) 
F 21

>  <SCORE>  (24) 
-12.648

>  <name>  (24) 
23

>  <ligand_id>  (24) 
23

>  <original_smiles>  (24) 
[H]c1c([H])c([H])c2c(c1[H])C([H])([H])C([H])([H])C([H])([H])C2([H])N([H])C(=O)C1([H])N(C(=O)C([H])(N([H])C(=O)C([H])(N([H])C([H])([H])[H])C([H])([H])[H])C(C([H])([H])[H])(C([H])([H])[H])C([H])([H])[H])C([H])([H])c2c([H])c(OC([H])([H])C([H])([H])C([H])([H])C([H])([H])[N+]([H])([H])C([H])([H])C3([H])C(=O)C([H])([H])N3C(=O)N3C([H])([H])C([H])([H])C([H])([H])C([H])(n4nc(-c5c([H])c([H])c(Oc6c([H])c([H])c(F)c([H])c6F)c([H])c5[H])c(C(=O)N([H])[H])c4N([H])[H])C3([H])[H])c([H])c([H])c2C1([H])[H]

>  <smiles>  (24) 
[H]c1c([H])c([H])c2c(c1[H])C([H])([H])C([H])([H])C([H])([H])C2([H])N([H])C(=O)C1([H])N(C(=O)C([H])(N([H])C(=O)C([H])(N([H])C([H])([H])[H])C([H])([H])[H])C(C([H])([H])[H])(C([H])([H])[H])C([H])([H])[H])C([H])([H])c2c([H])c(OC([H])([H])C([H])([H])C([H])([H])C([H])([H])[N+]([H])([H])C([H])([H])C3([H])C(=O)C([H])([H])N3C(=O)N3C([H])([H])C([H])([H])C([H])([H])C([H])(n4nc(-c5c([H])c([H])c(Oc6c([H])c([H])c(F)c([H])c6F)c([H])c5[H])c(C(=O)N([H])[H])c4N([H])[H])C3([H])[H])c([H])c([H])c2C1([H])[H]

$$$$
24:0:0
     RDKit          3D

 92100  0  0  1  0  0  0  0  0999 V2000
  -30.5270  -15.3780   20.2470 C   0  0  0  0  0  0  0  0  0  0  0  0
  -30.4610  -12.8910   19.4630 C   0  0  0  0  0  2  0  0  0  0  0  0
  -29.5750  -12.6320   18.2190 C   0  0  0  0  0  2  0  0  0  0  0  0
  -28.1210  -12.3780   18.6420 C   0  0  0  0  0  2  0  0  0  0  0  0
  -27.6500  -13.3900   19.7150 C   0  0  0  0  0  3  0  0  0  0  0  0
  -28.6730  -13.6000   20.8560 C   0  0  0  0  0  2  0  0  0  0  0  0
  -29.9130  -14.0840   20.2250 N   0  0  0  0  0  0  0  0  0  0  0  0
  -31.7320  -15.3000   19.9620 O   0  0  0  0  0  0  0  0  0  0  0  0
  -28.7590  -18.8500   21.3660 C   0  0  0  0  0  2  0  0  0  0  0  0
  -28.8550  -17.2280   21.2880 C   0  0  0  0  0  2  0  0  0  0  0  0
  -30.2640  -18.1950   19.7350 C   0  0  0  0  0  3  0  0  0  0  0  0
  -29.1730  -19.5130   20.0250 C   0  0  0  0  0  3  0  0  0  0  0  0
  -29.8860  -16.7370   20.3210 N   0  0  0  0  0  0  0  0  0  0  0  0
  -25.2780  -13.9870   20.4230 C   0  0  0  0  0  0  0  0  0  0  0  0
  -24.2010  -13.2310   20.7890 C   0  0  0  0  0  0  0  0  0  0  0  0
  -24.6500  -11.8750   20.7890 C   0  0  0  0  0  0  0  0  0  0  0  0
  -26.3130  -13.0950   20.2100 N   0  0  0  0  0  0  0  0  0  0  0  0
  -25.9470  -11.8180   20.5000 N   0  0  0  0  0  0  0  0  0  0  0  0
  -23.9010  -10.6260   20.9880 C   0  0  0  0  0  0  0  0  0  0  0  0
  -24.3100   -9.6600   21.9330 C   0  0  0  0  0  3  0  0  0  0  0  0
  -23.5580   -8.4800   22.1220 C   0  0  0  0  0  3  0  0  0  0  0  0
  -22.3840   -8.2560   21.3650 C   0  0  0  0  0  0  0  0  0  0  0  0
  -21.9940   -9.2100   20.4080 C   0  0  0  0  0  3  0  0  0  0  0  0
  -22.7460  -10.3820   20.2170 C   0  0  0  0  0  3  0  0  0  0  0  0
  -21.6070   -7.1270   21.4610 O   0  0  0  0  0  0  0  0  0  0  0  0
  -21.5470   -6.3900   22.6170 C   0  0  0  0  0  0  0  0  0  0  0  0
  -21.1440   -6.9620   23.8440 C   0  0  0  0  0  3  0  0  0  0  0  0
  -21.0290   -6.1540   24.9920 C   0  0  0  0  0  3  0  0  0  0  0  0
  -21.3080   -4.7760   24.9160 C   0  0  0  0  0  0  0  0  0  0  0  0
  -21.7050   -4.2040   23.6940 C   0  0  0  0  0  3  0  0  0  0  0  0
  -21.8210   -5.0100   22.5470 C   0  0  0  0  0  0  0  0  0  0  0  0
  -22.1830   -4.4510   21.3680 F   0  0  0  0  0  0  0  0  0  0  0  0
  -21.1920   -3.9980   26.0180 F   0  0  0  0  0  0  0  0  0  0  0  0
  -22.8060  -13.7330   21.0210 C   0  0  0  0  0  0  0  0  0  0  0  0
  -22.0580  -13.0750   21.8970 N   0  0  0  0  0  0  0  0  0  0  0  0
  -22.3920  -14.7470   20.4600 O   0  0  0  0  0  0  0  0  0  0  0  0
  -22.4060  -12.2580   22.3750 H   0  0  0  0  0  0  0  0  0  0  0  0
  -21.1200  -13.3950   22.0970 H   0  0  0  0  0  0  0  0  0  0  0  0
  -25.4610  -15.3520   20.2200 N   0  0  0  0  0  0  0  0  0  0  0  0
  -24.6940  -16.0110   20.2930 H   0  0  0  0  0  0  0  0  0  0  0  0
  -26.3050  -15.7650   19.8450 H   0  0  0  0  0  0  0  0  0  0  0  0
  -30.5250  -18.0240   18.2330 C   0  0  0  0  0  0  0  0  0  0  0  0
  -31.6560  -18.5090   17.7310 N   0  0  0  0  0  0  0  0  0  0  0  0
  -29.7080  -17.4480   17.5170 O   0  0  0  0  0  0  0  0  0  0  0  0
  -32.3440  -18.9500   18.3260 H   0  0  0  0  0  0  0  0  0  0  0  0
  -31.8600  -18.4000   16.7480 H   0  0  0  0  0  0  0  0  0  0  0  0
  -29.4310  -21.1810   19.8340 N   0  0  0  0  0  4  0  0  0  0  0  0
  -29.4770  -21.2810   18.8320 H   0  0  0  0  0  0  0  0  0  0  0  0
  -30.3820  -21.3200   20.1370 H   0  0  0  0  0  0  0  0  0  0  0  0
  -28.6500  -22.5970   20.3260 C   0  0  0  0  0  2  0  0  0  0  0  0
  -28.5270  -24.2620   19.5700 C   0  0  0  0  0  2  0  0  0  0  0  0
  -28.4060  -25.8710   20.0220 O   0  0  0  0  0  0  0  0  0  0  0  0
  -24.5720  -31.6620   23.0100 C   0  0  0  0  0  0  0  0  0  0  0  0
  -27.3490  -26.9320   19.9060 C   0  0  0  0  0  0  0  0  0  0  0  0
  -23.4490  -30.2500   21.3340 C   0  0  0  0  0  3  0  0  0  0  0  0
  -24.9730  -28.7350   19.8810 C   0  0  0  0  0  0  0  0  0  0  0  0
  -26.0050  -30.5640   21.2130 C   0  0  0  0  0  2  0  0  0  0  0  0
  -26.1370  -29.1700   20.5260 C   0  0  0  0  0  0  0  0  0  0  0  0
  -27.3120  -28.2880   20.5170 C   0  0  0  0  0  3  0  0  0  0  0  0
  -26.1520  -26.6610   19.2050 C   0  0  0  0  0  3  0  0  0  0  0  0
  -25.0070  -27.5050   19.2020 C   0  0  0  0  0  3  0  0  0  0  0  0
  -23.7160  -29.6050   19.9440 C   0  0  0  0  0  2  0  0  0  0  0  0
  -24.6950  -30.8550   21.9060 N   0  0  0  0  0  0  0  0  0  0  0  0
  -23.4690  -31.8960   23.5290 O   0  0  0  0  0  0  0  0  0  0  0  0
  -22.7900  -29.2090   22.2770 C   0  0  0  0  0  0  0  0  0  0  0  0
  -21.4640  -29.0130   22.1600 N   0  0  0  0  0  0  0  0  0  0  0  0
  -23.4800  -28.5800   23.0810 O   0  0  0  0  0  0  0  0  0  0  0  0
  -20.9570  -29.5750   21.4900 H   0  0  0  0  0  0  0  0  0  0  0  0
  -18.1160  -27.7110   22.6830 C   0  0  0  0  0  0  0  0  0  0  0  0
  -20.6740  -28.0280   22.9100 C   0  0  0  0  0  3  0  0  0  0  0  0
  -20.7980  -26.6210   22.2790 C   0  0  0  0  0  2  0  0  0  0  0  0
  -19.6840  -26.3110   21.2730 C   0  0  0  0  0  2  0  0  0  0  0  0
  -18.3130  -26.3950   21.9480 C   0  0  0  0  0  2  0  0  0  0  0  0
  -19.2250  -28.4850   23.1210 C   0  0  0  0  0  0  0  0  0  0  0  0
  -18.9850  -29.7130   23.7730 C   0  0  0  0  0  3  0  0  0  0  0  0
  -17.6700  -30.1700   23.9900 C   0  0  0  0  0  3  0  0  0  0  0  0
  -16.5780  -29.3940   23.5650 C   0  0  0  0  0  3  0  0  0  0  0  0
  -16.8010  -28.1660   22.9190 C   0  0  0  0  0  3  0  0  0  0  0  0
  -25.8100  -32.3460   23.6660 C   0  0  0  0  0  3  0  0  0  0  0  0
  -26.3690  -31.5520   24.9110 C   0  0  1  0  0  0  0  0  0  0  0  0
  -25.2940  -31.2180   25.9730 C   0  0  0  0  0  1  0  0  0  0  0  0
  -27.0190  -30.2200   24.4720 C   0  0  0  0  0  1  0  0  0  0  0  0
  -27.4820  -32.3760   25.6020 C   0  0  0  0  0  1  0  0  0  0  0  0
  -25.4150  -33.7070   24.0730 N   0  0  0  0  0  0  0  0  0  0  0  0
  -25.6840  -34.8240   23.3840 C   0  0  0  0  0  0  0  0  0  0  0  0
  -26.3510  -34.8210   22.3460 O   0  0  0  0  0  0  0  0  0  0  0  0
  -24.8150  -33.7770   24.8810 H   0  0  0  0  0  0  0  0  0  0  0  0
  -23.8590  -36.5470   23.1530 C   0  0  0  0  0  1  0  0  0  0  0  0
  -25.1280  -36.1570   23.9290 C   0  0  0  0  0  3  0  0  0  0  0  0
  -27.2160  -37.1090   24.8040 C   0  0  0  0  0  1  0  0  0  0  0  0
  -26.1010  -37.2690   23.8740 N   0  0  0  0  0  0  0  0  0  0  0  0
  -25.6470  -38.1570   24.0730 H   0  0  0  0  0  0  0  0  0  0  0  0
  1 13  1  0
  2  7  1  0
  3  4  1  0
  3  2  1  0
  5  4  1  0
  5 17  1  0
  5  6  1  0
  7  1  1  0
  7  6  1  0
  8  1  2  0
 10  9  1  0
 11 42  1  0
 11 12  1  0
 11 13  1  0
 12 47  1  0
 12  9  1  0
 13 10  1  0
 14 15  2  0
 15 34  1  0
 16 15  1  0
 16 19  1  0
 17 14  1  0
 17 18  1  0
 18 16  2  0
 19 20  1  0
 20 21  2  0
 22 25  1  0
 22 21  1  0
 23 22  2  0
 24 23  1  0
 24 19  2  0
 25 26  1  0
 26 27  1  0
 27 28  2  0
 29 28  1  0
 29 33  1  0
 30 29  2  0
 31 26  2  0
 31 30  1  0
 32 31  1  0
 34 35  1  0
 35 38  1  0
 35 37  1  0
 36 34  2  0
 39 40  1  0
 39 14  1  0
 41 39  1  0
 43 42  1  0
 43 45  1  0
 44 42  2  0
 46 43  1  0
 47 49  1  0
 47 50  1  0
 48 47  1  0
 51 52  1  0
 51 50  1  0
 53 64  2  0
 54 52  1  0
 54 59  1  0
 55 63  1  0
 55 65  1  0
 56 62  1  0
 56 58  1  0
 57 63  1  0
 58 57  1  0
 59 58  2  0
 60 54  2  0
 61 60  1  0
 61 56  2  0
 62 55  1  0
 63 53  1  0
 65 67  2  0
 66 65  1  0
 68 66  1  0
 69 78  2  0
 69 74  1  0
 70 66  1  0
 70 74  1  0
 71 70  1  0
 72 73  1  0
 72 71  1  0
 73 69  1  0
 74 75  2  0
 75 76  1  0
 77 76  2  0
 78 77  1  0
 79 53  1  0
 79 84  1  0
 79 80  1  0
 80 83  1  1
 80 81  1  0
 82 80  1  0
 84 87  1  0
 85 89  1  0
 85 84  1  0
 86 85  2  0
 89 88  1  0
 91 89  1  0
 91 92  1  0
 91 90  1  0
M  ISO  4   1 100  13 100  51 101  52 101
M  END
>  <TORSDO>  (25) 
F 19

>  <SCORE>  (25) 
-14.094

>  <name>  (25) 
24

>  <ligand_id>  (25) 
24

>  <original_smiles>  (25) 
[H]c1c([H])c([H])c2c(c1[H])C([H])([H])C([H])([H])C([H])([H])C2([H])N([H])C(=O)C1([H])N(C(=O)C([H])(N([H])C(=O)C([H])(N([H])C([H])([H])[H])C([H])([H])[H])C(C([H])([H])[H])(C([H])([H])[H])C([H])([H])[H])C([H])([H])c2c([H])c(OC([H])([H])C([H])([H])[N+]([H])([H])C3([H])C([H])(C(=O)N([H])[H])N(C(=O)N4C([H])([H])C([H])([H])C([H])([H])C([H])(n5nc(-c6c([H])c([H])c(Oc7c([H])c([H])c(F)c([H])c7F)c([H])c6[H])c(C(=O)N([H])[H])c5N([H])[H])C4([H])[H])C([H])([H])C3([H])[H])c([H])c([H])c2C1([H])[H]

>  <smiles>  (25) 
[H]c1c([H])c([H])c2c(c1[H])C([H])([H])C([H])([H])C([H])([H])C2([H])N([H])C(=O)C1([H])N(C(=O)C([H])(N([H])C(=O)C([H])(N([H])C([H])([H])[H])C([H])([H])[H])C(C([H])([H])[H])(C([H])([H])[H])C([H])([H])[H])C([H])([H])c2c([H])c(OC([H])([H])C([H])([H])[N+]([H])([H])C3([H])C([H])(C(=O)N([H])[H])N(C(=O)N4C([H])([H])C([H])([H])C([H])([H])C([H])(n5nc(-c6c([H])c([H])c(Oc7c([H])c([H])c(F)c([H])c7F)c([H])c6[H])c(C(=O)N([H])[H])c5N([H])[H])C4([H])[H])C([H])([H])C3([H])[H])c([H])c([H])c2C1([H])[H]

$$$$
25:0:0
     RDKit          3D

 89 97  0  0  1  0  0  0  0  0999 V2000
  -28.8260  -21.1670   18.5890 C   0  0  0  0  0  2  0  0  0  0  0  0
  -29.5380  -20.6340   20.7540 C   0  0  0  0  0  2  0  0  0  0  0  0
  -29.3320  -19.6570   18.6360 C   0  0  0  0  0  3  0  0  0  0  0  0
  -29.2890  -19.1350   20.1100 C   0  0  0  0  0  3  0  0  0  0  0  0
  -28.6360  -18.7550   17.5960 C   0  0  0  0  0  1  0  0  0  0  0  0
  -28.8120  -21.7640   19.9600 N   0  0  1  0  0  4  0  0  0  0  0  0
  -27.8520  -21.6880   20.2600 H   0  0  0  0  0  0  0  0  0  0  0  0
  -30.2130  -17.7550   20.5180 C   0  0  0  0  0  2  0  0  0  0  0  0
  -30.5670  -14.9930   20.3710 C   0  0  0  0  0  0  0  0  0  0  0  0
  -30.4330  -12.6120   19.4900 C   0  0  0  0  0  2  0  0  0  0  0  0
  -29.5040  -12.5050   18.2600 C   0  0  0  0  0  2  0  0  0  0  0  0
  -28.0550  -12.2680   18.7130 C   0  0  0  0  0  2  0  0  0  0  0  0
  -27.6250  -13.2470   19.8310 C   0  0  0  0  0  3  0  0  0  0  0  0
  -28.6730  -13.3420   20.9600 C   0  0  0  0  0  2  0  0  0  0  0  0
  -29.9420  -13.7440   20.3310 N   0  0  0  0  0  0  0  0  0  0  0  0
  -31.7870  -15.0140   20.1760 O   0  0  0  0  0  0  0  0  0  0  0  0
  -29.8180  -16.2110   20.4160 N   0  0  0  0  0  0  0  0  0  0  0  0
  -28.8260  -16.0470   20.4810 H   0  0  0  0  0  0  0  0  0  0  0  0
  -25.2460  -13.8210   20.5770 C   0  0  0  0  0  0  0  0  0  0  0  0
  -24.1780  -13.0440   20.9270 C   0  0  0  0  0  0  0  0  0  0  0  0
  -24.6390  -11.6930   20.8810 C   0  0  0  0  0  0  0  0  0  0  0  0
  -26.2880  -12.9460   20.3280 N   0  0  0  0  0  0  0  0  0  0  0  0
  -25.9330  -11.6610   20.5840 N   0  0  0  0  0  0  0  0  0  0  0  0
  -23.9080  -10.4310   21.0440 C   0  0  0  0  0  0  0  0  0  0  0  0
  -24.3630   -9.4210   21.9210 C   0  0  0  0  0  3  0  0  0  0  0  0
  -23.6300   -8.2240   22.0760 C   0  0  0  0  0  3  0  0  0  0  0  0
  -22.4280   -8.0290   21.3540 C   0  0  0  0  0  0  0  0  0  0  0  0
  -21.9920   -9.0290   20.4640 C   0  0  0  0  0  3  0  0  0  0  0  0
  -22.7270  -10.2160   20.3080 C   0  0  0  0  0  3  0  0  0  0  0  0
  -21.6630   -6.8890   21.4240 O   0  0  0  0  0  0  0  0  0  0  0  0
  -21.6840   -6.0750   22.5270 C   0  0  0  0  0  0  0  0  0  0  0  0
  -21.4010   -6.5650   23.8210 C   0  0  0  0  0  3  0  0  0  0  0  0
  -21.3660   -5.6800   24.9170 C   0  0  0  0  0  3  0  0  0  0  0  0
  -21.6050   -4.3070   24.7210 C   0  0  0  0  0  0  0  0  0  0  0  0
  -21.8810   -3.8170   23.4320 C   0  0  0  0  0  3  0  0  0  0  0  0
  -21.9180   -4.6980   22.3370 C   0  0  0  0  0  0  0  0  0  0  0  0
  -22.1650   -4.2160   21.0960 F   0  0  0  0  0  0  0  0  0  0  0  0
  -21.5620   -3.4540   25.7730 F   0  0  0  0  0  0  0  0  0  0  0  0
  -22.7790  -13.5200   21.1880 C   0  0  0  0  0  0  0  0  0  0  0  0
  -22.0450  -12.8200   22.0450 N   0  0  0  0  0  0  0  0  0  0  0  0
  -22.3460  -14.5490   20.6690 O   0  0  0  0  0  0  0  0  0  0  0  0
  -22.4080  -11.9900   22.4880 H   0  0  0  0  0  0  0  0  0  0  0  0
  -21.1070  -13.1230   22.2650 H   0  0  0  0  0  0  0  0  0  0  0  0
  -25.4080  -15.1970   20.4160 N   0  0  0  0  0  0  0  0  0  0  0  0
  -24.6340  -15.8420   20.5280 H   0  0  0  0  0  0  0  0  0  0  0  0
  -26.2530  -15.6480   20.0890 H   0  0  0  0  0  0  0  0  0  0  0  0
  -29.1630  -23.3250   20.1020 C   0  0  0  0  0  3  0  0  0  0  0  0
  -28.0540  -24.6000   19.9390 C   0  0  0  0  0  3  0  0  0  0  0  0
  -28.2950  -26.1390   20.1380 O   0  0  0  0  0  0  0  0  0  0  0  0
  -24.6470  -31.8410   23.1800 C   0  0  0  0  0  0  0  0  0  0  0  0
  -27.2250  -27.1150   20.1190 C   0  0  0  0  0  0  0  0  0  0  0  0
  -23.4500  -30.4630   21.5300 C   0  0  0  0  0  3  0  0  0  0  0  0
  -24.8990  -28.8770   20.1120 C   0  0  0  0  0  0  0  0  0  0  0  0
  -26.0080  -30.7020   21.3860 C   0  0  0  0  0  2  0  0  0  0  0  0
  -26.0800  -29.3120   20.7240 C   0  0  0  0  0  0  0  0  0  0  0  0
  -27.2460  -28.4490   20.7050 C   0  0  0  0  0  3  0  0  0  0  0  0
  -26.0010  -26.7760   19.4960 C   0  0  0  0  0  3  0  0  0  0  0  0
  -24.8700  -27.6200   19.4910 C   0  0  0  0  0  3  0  0  0  0  0  0
  -23.6770  -29.7840   20.1530 C   0  0  0  0  0  2  0  0  0  0  0  0
  -24.7210  -31.0220   22.0890 N   0  0  0  0  0  0  0  0  0  0  0  0
  -23.5580  -32.1320   23.7010 O   0  0  0  0  0  0  0  0  0  0  0  0
  -22.7570  -29.4550   22.4830 C   0  0  0  0  0  0  0  0  0  0  0  0
  -21.4260  -29.3090   22.3550 N   0  0  0  0  0  0  0  0  0  0  0  0
  -23.4210  -28.8090   23.2970 O   0  0  0  0  0  0  0  0  0  0  0  0
  -20.9460  -29.8800   21.6720 H   0  0  0  0  0  0  0  0  0  0  0  0
  -18.0330  -28.1380   22.8440 C   0  0  0  0  0  0  0  0  0  0  0  0
  -20.5930  -28.3750   23.1170 C   0  0  0  0  0  3  0  0  0  0  0  0
  -20.6830  -26.9450   22.5350 C   0  0  0  0  0  2  0  0  0  0  0  0
  -19.5820  -26.6390   21.5140 C   0  0  0  0  0  2  0  0  0  0  0  0
  -18.2000  -26.7940   22.1560 C   0  0  0  0  0  2  0  0  0  0  0  0
  -19.1590  -28.8880   23.2810 C   0  0  0  0  0  0  0  0  0  0  0  0
  -18.9510  -30.1450   23.8860 C   0  0  0  0  0  3  0  0  0  0  0  0
  -17.6510  -30.6590   24.0520 C   0  0  0  0  0  3  0  0  0  0  0  0
  -16.5400  -29.9090   23.6320 C   0  0  0  0  0  3  0  0  0  0  0  0
  -16.7310  -28.6510   23.0340 C   0  0  0  0  0  3  0  0  0  0  0  0
  -25.9260  -32.4650   23.8190 C   0  0  0  0  0  3  0  0  0  0  0  0
  -26.4580  -31.6530   25.0660 C   0  0  1  0  0  0  0  0  0  0  0  0
  -25.3710  -31.3670   26.1290 C   0  0  0  0  0  1  0  0  0  0  0  0
  -27.0520  -30.2930   24.6300 C   0  0  0  0  0  1  0  0  0  0  0  0
  -27.6070  -32.4350   25.7450 C   0  0  0  0  0  1  0  0  0  0  0  0
  -25.5930  -33.8450   24.2120 N   0  0  0  0  0  0  0  0  0  0  0  0
  -25.9100  -34.9390   23.5030 C   0  0  0  0  0  0  0  0  0  0  0  0
  -26.5700  -34.8920   22.4610 O   0  0  0  0  0  0  0  0  0  0  0  0
  -24.9940  -33.9450   25.0170 H   0  0  0  0  0  0  0  0  0  0  0  0
  -24.1520  -36.7260   23.2640 C   0  0  0  0  0  1  0  0  0  0  0  0
  -25.4150  -36.3000   24.0290 C   0  0  0  0  0  3  0  0  0  0  0  0
  -27.5630  -37.1750   24.8460 C   0  0  0  0  0  1  0  0  0  0  0  0
  -26.4330  -37.3700   23.9400 N   0  0  0  0  0  0  0  0  0  0  0  0
  -26.0210  -38.2760   24.1430 H   0  0  0  0  0  0  0  0  0  0  0  0
  1  3  1  0
  1  6  1  0
  3  5  1  0
  3  4  1  0
  4  8  1  0
  4  2  1  0
  6 47  1  0
  6  7  1  1
  6  2  1  0
  9 17  1  0
 10 15  1  0
 11 12  1  0
 11 10  1  0
 13 12  1  0
 13 22  1  0
 13 14  1  0
 15  9  1  0
 15 14  1  0
 16  9  2  0
 17 18  1  0
 17  8  1  0
 19 20  2  0
 20 39  1  0
 21 20  1  0
 21 24  1  0
 22 19  1  0
 22 23  1  0
 23 21  2  0
 24 25  1  0
 25 26  2  0
 27 30  1  0
 27 26  1  0
 28 27  2  0
 29 28  1  0
 29 24  2  0
 30 31  1  0
 31 32  1  0
 32 33  2  0
 34 33  1  0
 34 38  1  0
 35 34  2  0
 36 31  2  0
 36 35  1  0
 37 36  1  0
 39 40  1  0
 40 43  1  0
 40 42  1  0
 41 39  2  0
 44 45  1  0
 44 19  1  0
 46 44  1  0
 48 47  2  0
 48 49  1  0
 50 61  2  0
 51 49  1  0
 51 56  1  0
 52 60  1  0
 52 62  1  0
 53 59  1  0
 53 55  1  0
 54 60  1  0
 55 54  1  0
 56 55  2  0
 57 51  2  0
 58 57  1  0
 58 53  2  0
 59 52  1  0
 60 50  1  0
 62 64  2  0
 63 62  1  0
 65 63  1  0
 66 75  2  0
 66 71  1  0
 67 63  1  0
 67 71  1  0
 68 67  1  0
 69 70  1  0
 69 68  1  0
 70 66  1  0
 71 72  2  0
 72 73  1  0
 74 73  2  0
 75 74  1  0
 76 50  1  0
 76 81  1  0
 76 77  1  0
 77 80  1  1
 77 78  1  0
 79 77  1  0
 81 84  1  0
 82 86  1  0
 82 81  1  0
 83 82  2  0
 86 85  1  0
 88 86  1  0
 88 89  1  0
 88 87  1  0
M  ISO  4   9 100  17 100  48 101  49 101
M  END
>  <TORSDO>  (26) 
F 19

>  <SCORE>  (26) 
-15.535

>  <name>  (26) 
25

>  <ligand_id>  (26) 
25

>  <original_smiles>  (26) 
[H]c1c([H])c([H])c2c(c1[H])C([H])([H])C([H])([H])C([H])([H])C2([H])N([H])C(=O)C1([H])N(C(=O)C([H])(N([H])C(=O)C([H])(N([H])C([H])([H])[H])C([H])([H])[H])C(C([H])([H])[H])(C([H])([H])[H])C([H])([H])[H])C([H])([H])c2c([H])c(OC([H])([H])C([H])([H])[N+]3([H])C([H])([H])C([H])(C([H])([H])[H])C([H])(C([H])([H])N([H])C(=O)N4C([H])([H])C([H])([H])C([H])([H])C([H])(n5nc(-c6c([H])c([H])c(Oc7c([H])c([H])c(F)c([H])c7F)c([H])c6[H])c(C(=O)N([H])[H])c5N([H])[H])C4([H])[H])C3([H])[H])c([H])c([H])c2C1([H])[H]

>  <smiles>  (26) 
[H]c1c([H])c([H])c2c(c1[H])C([H])([H])C([H])([H])C([H])([H])C2([H])N([H])C(=O)C1([H])N(C(=O)C([H])(N([H])C(=O)C([H])(N([H])C([H])([H])[H])C([H])([H])[H])C(C([H])([H])[H])(C([H])([H])[H])C([H])([H])[H])C([H])([H])c2c([H])c(OC([H])([H])C([H])([H])[N+]3([H])C([H])([H])C([H])(C([H])([H])[H])C([H])(C([H])([H])N([H])C(=O)N4C([H])([H])C([H])([H])C([H])([H])C([H])(n5nc(-c6c([H])c([H])c(Oc7c([H])c([H])c(F)c([H])c7F)c([H])c6[H])c(C(=O)N([H])[H])c5N([H])[H])C4([H])[H])C3([H])[H])c([H])c([H])c2C1([H])[H]

$$$$
26:0:0
     RDKit          3D

 87 95  0  0  1  0  0  0  0  0999 V2000
  -30.2100  -23.2870   19.3800 C   0  0  0  0  0  1  0  0  0  0  0  0
  -28.9220  -23.0590   20.1780 C   0  0  0  0  0  3  0  0  0  0  0  0
  -28.4720  -21.3990   19.9470 C   0  0  0  0  0  2  0  0  0  0  0  0
  -30.5430  -15.0750   19.8750 C   0  0  0  0  0  0  0  0  0  0  0  0
  -30.3250  -12.6990   18.9510 C   0  0  0  0  0  2  0  0  0  0  0  0
  -29.3260  -12.5950   17.7780 C   0  0  0  0  0  2  0  0  0  0  0  0
  -27.9000  -12.3640   18.3090 C   0  0  0  0  0  2  0  0  0  0  0  0
  -27.5550  -13.2990   19.4980 C   0  0  0  0  0  3  0  0  0  0  0  0
  -28.6820  -13.3840   20.5480 C   0  0  0  0  0  2  0  0  0  0  0  0
  -29.8820  -13.8330   19.8300 N   0  0  0  0  0  0  0  0  0  0  0  0
  -31.7370  -15.0120   19.5480 O   0  0  0  0  0  0  0  0  0  0  0  0
  -29.8210  -19.0200   18.9110 C   0  0  0  0  0  2  0  0  0  0  0  0
  -28.5600  -18.6280   20.8290 C   0  0  0  0  0  2  0  0  0  0  0  0
  -30.5480  -17.5640   19.1210 C   0  0  0  0  0  2  0  0  0  0  0  0
  -29.2430  -17.1350   21.0140 C   0  0  0  0  0  2  0  0  0  0  0  0
  -29.3170  -19.8830   20.1540 C   0  0  0  0  0  3  0  0  0  0  0  0
  -29.9040  -16.3920   19.8650 N   0  0  0  0  0  0  0  0  0  0  0  0
  -25.2480  -13.8500   20.4360 C   0  0  0  0  0  0  0  0  0  0  0  0
  -24.2080  -13.0680   20.8540 C   0  0  0  0  0  0  0  0  0  0  0  0
  -24.6610  -11.7160   20.7470 C   0  0  0  0  0  0  0  0  0  0  0  0
  -26.2640  -12.9780   20.0920 N   0  0  0  0  0  0  0  0  0  0  0  0
  -25.9280  -11.6870   20.3460 N   0  0  0  0  0  0  0  0  0  0  0  0
  -23.9410  -10.4520   20.9480 C   0  0  0  0  0  0  0  0  0  0  0  0
  -24.3900   -9.4830   21.8730 C   0  0  0  0  0  3  0  0  0  0  0  0
  -23.6660   -8.2860   22.0640 C   0  0  0  0  0  3  0  0  0  0  0  0
  -22.4800   -8.0480   21.3290 C   0  0  0  0  0  0  0  0  0  0  0  0
  -22.0500   -9.0050   20.3940 C   0  0  0  0  0  3  0  0  0  0  0  0
  -22.7740  -10.1940   20.2020 C   0  0  0  0  0  3  0  0  0  0  0  0
  -21.7270   -6.9020   21.4300 O   0  0  0  0  0  0  0  0  0  0  0  0
  -21.6480   -6.1930   22.6020 C   0  0  0  0  0  0  0  0  0  0  0  0
  -21.1790   -6.7800   23.7980 C   0  0  0  0  0  3  0  0  0  0  0  0
  -21.0490   -5.9970   24.9610 C   0  0  0  0  0  3  0  0  0  0  0  0
  -21.3750   -4.6280   24.9300 C   0  0  0  0  0  0  0  0  0  0  0  0
  -21.8350   -4.0410   23.7390 C   0  0  0  0  0  3  0  0  0  0  0  0
  -21.9690   -4.8210   22.5770 C   0  0  0  0  0  0  0  0  0  0  0  0
  -22.3920   -4.2450   21.4260 F   0  0  0  0  0  0  0  0  0  0  0  0
  -21.2430   -3.8730   26.0470 F   0  0  0  0  0  0  0  0  0  0  0  0
  -22.8360  -13.5420   21.2350 C   0  0  0  0  0  0  0  0  0  0  0  0
  -22.1680  -12.8260   22.1310 N   0  0  0  0  0  0  0  0  0  0  0  0
  -22.3680  -14.5820   20.7730 O   0  0  0  0  0  0  0  0  0  0  0  0
  -22.5610  -11.9830   22.5250 H   0  0  0  0  0  0  0  0  0  0  0  0
  -21.2500  -13.1240   22.4300 H   0  0  0  0  0  0  0  0  0  0  0  0
  -25.4090  -15.2260   20.2920 N   0  0  0  0  0  0  0  0  0  0  0  0
  -24.6610  -15.8840   20.4860 H   0  0  0  0  0  0  0  0  0  0  0  0
  -26.2450  -15.6700   19.9360 H   0  0  0  0  0  0  0  0  0  0  0  0
  -27.9310  -24.4680   19.9500 C   0  0  0  0  0  2  0  0  0  0  0  0
  -28.2130  -26.0230   20.1720 O   0  0  0  0  0  0  0  0  0  0  0  0
  -24.6260  -31.8110   23.1830 C   0  0  0  0  0  0  0  0  0  0  0  0
  -27.1860  -27.0610   20.1110 C   0  0  0  0  0  0  0  0  0  0  0  0
  -23.4300  -30.4400   21.5210 C   0  0  0  0  0  3  0  0  0  0  0  0
  -24.8780  -28.8680   20.0850 C   0  0  0  0  0  0  0  0  0  0  0  0
  -25.9910  -30.6790   21.3780 C   0  0  0  0  0  2  0  0  0  0  0  0
  -26.0610  -29.2880   20.7070 C   0  0  0  0  0  0  0  0  0  0  0  0
  -27.2150  -28.4020   20.7000 C   0  0  0  0  0  3  0  0  0  0  0  0
  -25.9740  -26.7640   19.4490 C   0  0  0  0  0  3  0  0  0  0  0  0
  -24.8520  -27.6230   19.4370 C   0  0  0  0  0  3  0  0  0  0  0  0
  -23.6560  -29.7750   20.1370 C   0  0  0  0  0  2  0  0  0  0  0  0
  -24.7030  -30.9990   22.0820 N   0  0  0  0  0  0  0  0  0  0  0  0
  -23.5370  -32.0940   23.7080 O   0  0  0  0  0  0  0  0  0  0  0  0
  -22.7360  -29.4290   22.4700 C   0  0  0  0  0  0  0  0  0  0  0  0
  -21.4050  -29.2810   22.3490 N   0  0  0  0  0  0  0  0  0  0  0  0
  -23.4020  -28.7790   23.2800 O   0  0  0  0  0  0  0  0  0  0  0  0
  -20.9220  -29.8570   21.6740 H   0  0  0  0  0  0  0  0  0  0  0  0
  -18.0070  -28.1320   22.8730 C   0  0  0  0  0  0  0  0  0  0  0  0
  -20.5750  -28.3390   23.1080 C   0  0  0  0  0  3  0  0  0  0  0  0
  -20.6390  -26.9200   22.4940 C   0  0  0  0  0  2  0  0  0  0  0  0
  -19.5170  -26.6460   21.4880 C   0  0  0  0  0  2  0  0  0  0  0  0
  -18.1480  -26.7990   22.1560 C   0  0  0  0  0  2  0  0  0  0  0  0
  -19.1460  -28.8620   23.3050 C   0  0  0  0  0  0  0  0  0  0  0  0
  -18.9590  -30.1100   23.9370 C   0  0  0  0  0  3  0  0  0  0  0  0
  -17.6670  -30.6280   24.1400 C   0  0  0  0  0  3  0  0  0  0  0  0
  -16.5420  -29.8950   23.7230 C   0  0  0  0  0  3  0  0  0  0  0  0
  -16.7140  -28.6480   23.0960 C   0  0  0  0  0  3  0  0  0  0  0  0
  -25.9000  -32.4380   23.8260 C   0  0  0  0  0  3  0  0  0  0  0  0
  -25.5890  -33.8360   24.1690 N   0  0  0  0  0  0  0  0  0  0  0  0
  -25.9150  -34.8990   23.4210 C   0  0  0  0  0  0  0  0  0  0  0  0
  -26.5710  -34.8060   22.3810 O   0  0  0  0  0  0  0  0  0  0  0  0
  -25.0040  -33.9810   24.9790 H   0  0  0  0  0  0  0  0  0  0  0  0
  -24.1730  -36.6950   23.1310 C   0  0  0  0  0  1  0  0  0  0  0  0
  -25.4380  -36.2850   23.9020 C   0  0  0  0  0  3  0  0  0  0  0  0
  -27.5900  -37.1760   24.6810 C   0  0  0  0  0  1  0  0  0  0  0  0
  -26.4630  -37.3430   23.7670 N   0  0  0  0  0  0  0  0  0  0  0  0
  -26.0580  -38.2610   23.9280 H   0  0  0  0  0  0  0  0  0  0  0  0
  -26.3950  -31.6580   25.1070 C   0  0  1  0  0  0  0  0  0  0  0  0
  -25.2900  -31.4240   26.1620 C   0  0  0  0  0  1  0  0  0  0  0  0
  -26.9760  -30.2770   24.7230 C   0  0  0  0  0  1  0  0  0  0  0  0
  -27.5430  -32.4440   25.7840 C   0  0  0  0  0  1  0  0  0  0  0  0
  2  1  1  0
  3  2  1  0
  5 10  1  0
  6  7  1  0
  6  5  1  0
  8  7  1  0
  8 21  1  0
  8  9  1  0
 10  4  1  0
 10  9  1  0
 11  4  2  0
 12 14  1  0
 12 16  1  0
 13 15  1  0
 14 17  1  0
 16  3  1  0
 16 13  1  0
 17  4  1  0
 17 15  1  0
 18 19  2  0
 19 38  1  0
 20 19  1  0
 20 23  1  0
 21 22  1  0
 21 18  1  0
 22 20  2  0
 23 24  1  0
 24 25  2  0
 26 29  1  0
 26 25  1  0
 27 26  2  0
 28 27  1  0
 28 23  2  0
 29 30  1  0
 30 31  1  0
 31 32  2  0
 33 32  1  0
 33 37  1  0
 34 33  2  0
 35 30  2  0
 35 34  1  0
 36 35  1  0
 38 39  1  0
 39 42  1  0
 39 41  1  0
 40 38  2  0
 43 18  1  0
 43 44  1  0
 45 43  1  0
 46 47  1  0
 46  2  1  0
 48 59  2  0
 49 47  1  0
 49 54  1  0
 50 58  1  0
 50 60  1  0
 51 57  1  0
 51 53  1  0
 52 58  1  0
 53 52  1  0
 54 53  2  0
 55 49  2  0
 56 55  1  0
 56 51  2  0
 57 50  1  0
 58 48  1  0
 60 62  2  0
 61 60  1  0
 63 61  1  0
 64 73  2  0
 64 69  1  0
 65 61  1  0
 65 69  1  0
 66 65  1  0
 67 68  1  0
 67 66  1  0
 68 64  1  0
 69 70  2  0
 70 71  1  0
 72 71  2  0
 73 72  1  0
 74 48  1  0
 74 75  1  0
 74 84  1  0
 75 78  1  0
 76 80  1  0
 76 75  1  0
 77 76  2  0
 80 79  1  0
 82 80  1  0
 82 83  1  0
 82 81  1  0
 84 87  1  1
 84 85  1  0
 86 84  1  0
M  ISO  4   4 100  17 100  46 101  47 101
M  END
>  <TORSDO>  (27) 
F 18

>  <SCORE>  (27) 
-15.800

>  <name>  (27) 
26

>  <ligand_id>  (27) 
26

>  <original_smiles>  (27) 
[H]c1c([H])c([H])c2c(c1[H])C([H])([H])C([H])([H])C([H])([H])C2([H])N([H])C(=O)C1([H])N(C(=O)C([H])(N([H])C(=O)C([H])(N([H])C([H])([H])[H])C([H])([H])[H])C(C([H])([H])[H])(C([H])([H])[H])C([H])([H])[H])C([H])([H])c2c([H])c(OC([H])([H])C([H])(C([H])([H])[H])C([H])([H])C3([H])C([H])([H])C([H])([H])N(C(=O)N4C([H])([H])C([H])([H])C([H])([H])C([H])(n5nc(-c6c([H])c([H])c(Oc7c([H])c([H])c(F)c([H])c7F)c([H])c6[H])c(C(=O)N([H])[H])c5N([H])[H])C4([H])[H])C([H])([H])C3([H])[H])c([H])c([H])c2C1([H])[H]

>  <smiles>  (27) 
[H]c1c([H])c([H])c2c(c1[H])C([H])([H])C([H])([H])C([H])([H])C2([H])N([H])C(=O)C1([H])N(C(=O)C([H])(N([H])C(=O)C([H])(N([H])C([H])([H])[H])C([H])([H])[H])C(C([H])([H])[H])(C([H])([H])[H])C([H])([H])[H])C([H])([H])c2c([H])c(OC([H])([H])C([H])(C([H])([H])[H])C([H])([H])C3([H])C([H])([H])C([H])([H])N(C(=O)N4C([H])([H])C([H])([H])C([H])([H])C([H])(n5nc(-c6c([H])c([H])c(Oc7c([H])c([H])c(F)c([H])c7F)c([H])c6[H])c(C(=O)N([H])[H])c5N([H])[H])C4([H])[H])C([H])([H])C3([H])[H])c([H])c([H])c2C1([H])[H]

$$$$
27:0:0
     RDKit          3D

 89 97  0  0  1  0  0  0  0  0999 V2000
  -28.7740  -19.7300   19.9760 C   0  0  0  0  0  2  0  0  0  0  0  0
  -30.8570  -20.3380   21.0140 C   0  0  0  0  0  2  0  0  0  0  0  0
  -28.2190  -21.2140   20.2900 C   0  0  0  0  0  2  0  0  0  0  0  0
  -30.2870  -21.7620   21.3690 C   0  0  0  0  0  2  0  0  0  0  0  0
  -29.8540  -19.1210   20.9530 C   0  0  0  0  0  3  0  0  0  0  0  0
  -29.2500  -22.3140   20.4350 N   0  0  2  0  0  4  0  0  0  0  0  0
  -29.7080  -22.4160   19.5410 H   0  0  0  0  0  0  0  0  0  0  0  0
  -31.9140  -17.6440   21.4250 C   0  0  0  0  0  1  0  0  0  0  0  0
  -30.5740  -17.6480   20.6460 C   0  0  0  0  0  3  0  0  0  0  0  0
  -29.8770  -16.1720   20.8950 C   0  0  0  0  0  2  0  0  0  0  0  0
  -30.6130  -14.7770   20.4770 C   0  0  0  0  0  0  0  0  0  0  0  0
  -30.4290  -12.4660   19.5030 C   0  0  0  0  0  2  0  0  0  0  0  0
  -29.5180  -12.5120   18.2560 C   0  0  0  0  0  2  0  0  0  0  0  0
  -28.0440  -12.3290   18.6610 C   0  0  0  0  0  2  0  0  0  0  0  0
  -27.6420  -13.2400   19.8510 C   0  0  0  0  0  3  0  0  0  0  0  0
  -28.6800  -13.2030   20.9940 C   0  0  0  0  0  2  0  0  0  0  0  0
  -29.9900  -13.5430   20.4280 N   0  0  0  0  0  0  0  0  0  0  0  0
  -31.7740  -14.8370   20.0630 O   0  0  0  0  0  0  0  0  0  0  0  0
  -25.2520  -13.8220   20.5700 C   0  0  0  0  0  0  0  0  0  0  0  0
  -24.1810  -13.0450   20.9200 C   0  0  0  0  0  0  0  0  0  0  0  0
  -24.6410  -11.6930   20.8740 C   0  0  0  0  0  0  0  0  0  0  0  0
  -26.2940  -12.9440   20.3280 N   0  0  0  0  0  0  0  0  0  0  0  0
  -25.9340  -11.6570   20.5750 N   0  0  0  0  0  0  0  0  0  0  0  0
  -23.9080  -10.4300   21.0400 C   0  0  0  0  0  0  0  0  0  0  0  0
  -24.3630   -9.4210   21.9180 C   0  0  0  0  0  3  0  0  0  0  0  0
  -23.6300   -8.2250   22.0760 C   0  0  0  0  0  3  0  0  0  0  0  0
  -22.4290   -8.0280   21.3540 C   0  0  0  0  0  0  0  0  0  0  0  0
  -21.9920   -9.0260   20.4640 C   0  0  0  0  0  3  0  0  0  0  0  0
  -22.7250  -10.2140   20.3050 C   0  0  0  0  0  3  0  0  0  0  0  0
  -21.6640   -6.8880   21.4240 O   0  0  0  0  0  0  0  0  0  0  0  0
  -21.6860   -6.0740   22.5280 C   0  0  0  0  0  0  0  0  0  0  0  0
  -21.4020   -6.5640   23.8210 C   0  0  0  0  0  3  0  0  0  0  0  0
  -21.3660   -5.6800   24.9170 C   0  0  0  0  0  3  0  0  0  0  0  0
  -21.6040   -4.3060   24.7220 C   0  0  0  0  0  0  0  0  0  0  0  0
  -21.8820   -3.8150   23.4340 C   0  0  0  0  0  3  0  0  0  0  0  0
  -21.9190   -4.6970   22.3400 C   0  0  0  0  0  0  0  0  0  0  0  0
  -22.1660   -4.2150   21.0980 F   0  0  0  0  0  0  0  0  0  0  0  0
  -21.5620   -3.4540   25.7730 F   0  0  0  0  0  0  0  0  0  0  0  0
  -22.7830  -13.5220   21.1860 C   0  0  0  0  0  0  0  0  0  0  0  0
  -22.0470  -12.8200   22.0400 N   0  0  0  0  0  0  0  0  0  0  0  0
  -22.3500  -14.5520   20.6700 O   0  0  0  0  0  0  0  0  0  0  0  0
  -22.4080  -11.9860   22.4790 H   0  0  0  0  0  0  0  0  0  0  0  0
  -21.1080  -13.1230   22.2590 H   0  0  0  0  0  0  0  0  0  0  0  0
  -25.4210  -15.1940   20.4140 N   0  0  0  0  0  0  0  0  0  0  0  0
  -24.6590  -15.8520   20.5370 H   0  0  0  0  0  0  0  0  0  0  0  0
  -26.2790  -15.6360   20.1060 H   0  0  0  0  0  0  0  0  0  0  0  0
  -28.7800  -23.7410   20.8720 C   0  0  0  0  0  2  0  0  0  0  0  0
  -28.3280  -24.8920   19.8190 C   0  0  0  0  0  2  0  0  0  0  0  0
  -28.3340  -26.3600   20.2150 O   0  0  0  0  0  0  0  0  0  0  0  0
  -24.6330  -31.8540   23.1980 C   0  0  0  0  0  0  0  0  0  0  0  0
  -27.2200  -27.2370   20.1280 C   0  0  0  0  0  0  0  0  0  0  0  0
  -23.4300  -30.4760   21.5420 C   0  0  0  0  0  3  0  0  0  0  0  0
  -24.8760  -28.9180   20.1090 C   0  0  0  0  0  0  0  0  0  0  0  0
  -25.9770  -30.7570   21.3830 C   0  0  0  0  0  2  0  0  0  0  0  0
  -26.0470  -29.3770   20.7240 C   0  0  0  0  0  0  0  0  0  0  0  0
  -27.2160  -28.5490   20.7230 C   0  0  0  0  0  3  0  0  0  0  0  0
  -26.0230  -26.8560   19.4740 C   0  0  0  0  0  3  0  0  0  0  0  0
  -24.8700  -27.6680   19.4750 C   0  0  0  0  0  3  0  0  0  0  0  0
  -23.6480  -29.8090   20.1580 C   0  0  0  0  0  2  0  0  0  0  0  0
  -24.6990  -31.0480   22.0970 N   0  0  0  0  0  0  0  0  0  0  0  0
  -23.5480  -32.1390   23.7260 O   0  0  0  0  0  0  0  0  0  0  0  0
  -22.7510  -29.4590   22.4910 C   0  0  0  0  0  0  0  0  0  0  0  0
  -21.4220  -29.3050   22.3660 N   0  0  0  0  0  0  0  0  0  0  0  0
  -23.4200  -28.8120   23.3010 O   0  0  0  0  0  0  0  0  0  0  0  0
  -20.9420  -29.8770   21.6850 H   0  0  0  0  0  0  0  0  0  0  0  0
  -18.0290  -28.1400   22.8490 C   0  0  0  0  0  0  0  0  0  0  0  0
  -20.5900  -28.3710   23.1270 C   0  0  0  0  0  3  0  0  0  0  0  0
  -20.6780  -26.9420   22.5410 C   0  0  0  0  0  2  0  0  0  0  0  0
  -19.5750  -26.6390   21.5210 C   0  0  0  0  0  2  0  0  0  0  0  0
  -18.1930  -26.7940   22.1620 C   0  0  0  0  0  2  0  0  0  0  0  0
  -19.1550  -28.8870   23.2870 C   0  0  0  0  0  0  0  0  0  0  0  0
  -18.9470  -30.1460   23.8890 C   0  0  0  0  0  3  0  0  0  0  0  0
  -17.6470  -30.6600   24.0560 C   0  0  0  0  0  3  0  0  0  0  0  0
  -16.5360  -29.9090   23.6340 C   0  0  0  0  0  3  0  0  0  0  0  0
  -16.7280  -28.6510   23.0350 C   0  0  0  0  0  3  0  0  0  0  0  0
  -25.9150  -32.4740   23.8320 C   0  0  0  0  0  3  0  0  0  0  0  0
  -26.4510  -31.6580   25.0720 C   0  0  1  0  0  0  0  0  0  0  0  0
  -25.3720  -31.3730   26.1440 C   0  0  0  0  0  1  0  0  0  0  0  0
  -27.0360  -30.2990   24.6230 C   0  0  0  0  0  1  0  0  0  0  0  0
  -27.6050  -32.4330   25.7500 C   0  0  0  0  0  1  0  0  0  0  0  0
  -25.5940  -33.8550   24.2240 N   0  0  0  0  0  0  0  0  0  0  0  0
  -25.9070  -34.9430   23.5090 C   0  0  0  0  0  0  0  0  0  0  0  0
  -26.5640  -34.8920   22.4660 O   0  0  0  0  0  0  0  0  0  0  0  0
  -25.0050  -33.9670   25.0370 H   0  0  0  0  0  0  0  0  0  0  0  0
  -24.1490  -36.7280   23.2640 C   0  0  0  0  0  1  0  0  0  0  0  0
  -25.4120  -36.3060   24.0320 C   0  0  0  0  0  3  0  0  0  0  0  0
  -27.5580  -37.1790   24.8460 C   0  0  0  0  0  1  0  0  0  0  0  0
  -26.4290  -37.3760   23.9410 N   0  0  0  0  0  0  0  0  0  0  0  0
  -26.0180  -38.2840   24.1410 H   0  0  0  0  0  0  0  0  0  0  0  0
  1  3  1  0
  1  5  1  0
  2  4  1  0
  3  6  1  0
  5  9  1  0
  5  2  1  0
  6 47  1  0
  6  4  1  0
  6  7  1  6
  9 10  1  0
  9  8  1  0
 11 10  1  0
 12 17  1  0
 13 14  1  0
 13 12  1  0
 15 14  1  0
 15 22  1  0
 15 16  1  0
 17 11  1  0
 17 16  1  0
 18 11  2  0
 19 20  2  0
 20 39  1  0
 21 20  1  0
 21 24  1  0
 22 19  1  0
 22 23  1  0
 23 21  2  0
 24 25  1  0
 25 26  2  0
 27 30  1  0
 27 26  1  0
 28 27  2  0
 29 28  1  0
 29 24  2  0
 30 31  1  0
 31 32  1  0
 32 33  2  0
 34 33  1  0
 34 38  1  0
 35 34  2  0
 36 31  2  0
 36 35  1  0
 37 36  1  0
 39 40  1  0
 40 43  1  0
 40 42  1  0
 41 39  2  0
 44 45  1  0
 44 19  1  0
 46 44  1  0
 48 49  1  0
 48 47  1  0
 50 61  2  0
 51 49  1  0
 51 56  1  0
 52 60  1  0
 52 62  1  0
 53 59  1  0
 53 55  1  0
 54 60  1  0
 55 54  1  0
 56 55  2  0
 57 58  1  0
 57 51  2  0
 58 53  2  0
 59 52  1  0
 60 50  1  0
 62 64  2  0
 63 62  1  0
 65 63  1  0
 66 75  2  0
 66 71  1  0
 67 63  1  0
 67 71  1  0
 68 67  1  0
 69 70  1  0
 69 68  1  0
 70 66  1  0
 71 72  2  0
 72 73  1  0
 74 73  2  0
 75 74  1  0
 76 50  1  0
 76 81  1  0
 76 77  1  0
 77 80  1  1
 77 78  1  0
 79 77  1  0
 81 84  1  0
 82 86  1  0
 82 81  1  0
 83 82  2  0
 86 85  1  0
 88 86  1  0
 88 89  1  0
 88 87  1  0
M  ISO  4  10 100  11 100  48 101  49 101
M  END
>  <TORSDO>  (28) 
F 20

>  <SCORE>  (28) 
-13.519

>  <name>  (28) 
27

>  <ligand_id>  (28) 
27

>  <original_smiles>  (28) 
[H]c1c([H])c([H])c2c(c1[H])C([H])([H])C([H])([H])C([H])([H])C2([H])N([H])C(=O)C1([H])N(C(=O)C([H])(N([H])C(=O)C([H])(N([H])C([H])([H])[H])C([H])([H])[H])C(C([H])([H])[H])(C([H])([H])[H])C([H])([H])[H])C([H])([H])c2c([H])c(OC([H])([H])C([H])([H])[N+]3([H])C([H])([H])C([H])([H])C([H])(C([H])(C([H])([H])[H])C([H])([H])C(=O)N4C([H])([H])C([H])([H])C([H])([H])C([H])(n5nc(-c6c([H])c([H])c(Oc7c([H])c([H])c(F)c([H])c7F)c([H])c6[H])c(C(=O)N([H])[H])c5N([H])[H])C4([H])[H])C([H])([H])C3([H])[H])c([H])c([H])c2C1([H])[H]

>  <smiles>  (28) 
[H]c1c([H])c([H])c2c(c1[H])C([H])([H])C([H])([H])C([H])([H])C2([H])N([H])C(=O)C1([H])N(C(=O)C([H])(N([H])C(=O)C([H])(N([H])C([H])([H])[H])C([H])([H])[H])C(C([H])([H])[H])(C([H])([H])[H])C([H])([H])[H])C([H])([H])c2c([H])c(OC([H])([H])C([H])([H])[N+]3([H])C([H])([H])C([H])([H])C([H])(C([H])(C([H])([H])[H])C([H])([H])C(=O)N4C([H])([H])C([H])([H])C([H])([H])C([H])(n5nc(-c6c([H])c([H])c(Oc7c([H])c([H])c(F)c([H])c7F)c([H])c6[H])c(C(=O)N([H])[H])c5N([H])[H])C4([H])[H])C([H])([H])C3([H])[H])c([H])c([H])c2C1([H])[H]

$$$$
28:0:0
     RDKit          3D

 91 99  0  0  1  0  0  0  0  0999 V2000
  -30.4340  -20.7840   19.9070 C   0  0  0  0  0  2  0  0  0  0  0  0
  -30.5100  -22.1520   19.1360 C   0  0  0  0  0  2  0  0  0  0  0  0
  -28.0100  -22.2050   19.0550 C   0  0  0  0  0  2  0  0  0  0  0  0
  -29.1380  -19.9630   19.6650 C   0  0  0  0  0  3  0  0  0  0  0  0
  -27.9770  -20.9620   19.9860 C   0  0  0  0  0  3  0  0  0  0  0  0
  -27.8770  -21.3820   21.4720 C   0  0  0  0  0  1  0  0  0  0  0  0
  -29.2700  -23.0020   19.1110 N   0  0  1  0  0  4  0  0  0  0  0  0
  -29.3060  -23.3920   18.1800 H   0  0  0  0  0  0  0  0  0  0  0  0
  -27.6290  -17.9620   20.3740 C   0  0  0  0  0  1  0  0  0  0  0  0
  -29.0720  -18.5290   20.3750 C   0  0  0  0  0  3  0  0  0  0  0  0
  -30.0730  -17.4160   19.8280 C   0  0  0  0  0  3  0  0  0  0  0  0
  -30.0240  -15.9930   20.5310 C   0  0  0  0  0  3  0  0  0  0  0  0
  -30.7660  -14.7660   19.8810 C   0  0  0  0  0  0  0  0  0  0  0  0
  -30.5780  -12.4750   18.9260 C   0  0  0  0  0  2  0  0  0  0  0  0
  -29.5410  -12.5070   17.7810 C   0  0  0  0  0  2  0  0  0  0  0  0
  -28.1050  -12.3390   18.3220 C   0  0  0  0  0  2  0  0  0  0  0  0
  -27.8140  -13.2660   19.5320 C   0  0  0  0  0  3  0  0  0  0  0  0
  -28.9490  -13.1530   20.5750 C   0  0  0  0  0  2  0  0  0  0  0  0
  -30.2030  -13.5180   19.8990 N   0  0  0  0  0  0  0  0  0  0  0  0
  -31.8400  -14.9670   19.3030 O   0  0  0  0  0  0  0  0  0  0  0  0
  -25.5040  -13.8800   20.4850 C   0  0  0  0  0  0  0  0  0  0  0  0
  -24.4570  -13.1090   20.9130 C   0  0  0  0  0  0  0  0  0  0  0  0
  -24.8830  -11.7530   20.7720 C   0  0  0  0  0  0  0  0  0  0  0  0
  -26.5040  -12.9930   20.1180 N   0  0  0  0  0  0  0  0  0  0  0  0
  -26.1380  -11.7050   20.3440 N   0  0  0  0  0  0  0  0  0  0  0  0
  -24.1490  -10.4960   20.9660 C   0  0  0  0  0  0  0  0  0  0  0  0
  -24.6030   -9.5080   21.8670 C   0  0  0  0  0  3  0  0  0  0  0  0
  -23.8700   -8.3160   22.0480 C   0  0  0  0  0  3  0  0  0  0  0  0
  -22.6700   -8.1030   21.3300 C   0  0  0  0  0  0  0  0  0  0  0  0
  -22.2350   -9.0800   20.4170 C   0  0  0  0  0  3  0  0  0  0  0  0
  -22.9680  -10.2640   20.2330 C   0  0  0  0  0  3  0  0  0  0  0  0
  -21.9060   -6.9650   21.4240 O   0  0  0  0  0  0  0  0  0  0  0  0
  -21.8350   -6.2390   22.5850 C   0  0  0  0  0  0  0  0  0  0  0  0
  -21.3790   -6.8100   23.7940 C   0  0  0  0  0  3  0  0  0  0  0  0
  -21.2570   -6.0090   24.9480 C   0  0  0  0  0  3  0  0  0  0  0  0
  -21.5810   -4.6400   24.8940 C   0  0  0  0  0  0  0  0  0  0  0  0
  -22.0320   -4.0700   23.6910 C   0  0  0  0  0  3  0  0  0  0  0  0
  -22.1560   -4.8670   22.5390 C   0  0  0  0  0  0  0  0  0  0  0  0
  -22.5710   -4.3080   21.3770 F   0  0  0  0  0  0  0  0  0  0  0  0
  -21.4570   -3.8700   26.0000 F   0  0  0  0  0  0  0  0  0  0  0  0
  -23.1020  -13.5970   21.3390 C   0  0  0  0  0  0  0  0  0  0  0  0
  -22.4460  -12.8730   22.2390 N   0  0  0  0  0  0  0  0  0  0  0  0
  -22.6370  -14.6520   20.9100 O   0  0  0  0  0  0  0  0  0  0  0  0
  -22.8360  -12.0150   22.6030 H   0  0  0  0  0  0  0  0  0  0  0  0
  -21.5420  -13.1790   22.5700 H   0  0  0  0  0  0  0  0  0  0  0  0
  -25.6820  -15.2540   20.3600 N   0  0  0  0  0  0  0  0  0  0  0  0
  -24.9470  -15.9180   20.5760 H   0  0  0  0  0  0  0  0  0  0  0  0
  -26.5180  -15.6920   19.9930 H   0  0  0  0  0  0  0  0  0  0  0  0
  -29.2280  -24.2620   19.9570 C   0  0  0  0  0  2  0  0  0  0  0  0
  -29.1950  -25.5990   19.1210 C   0  0  0  0  0  2  0  0  0  0  0  0
  -28.9430  -26.8460   19.8500 O   0  0  0  0  0  0  0  0  0  0  0  0
  -24.7420  -31.6990   23.0540 C   0  0  0  0  0  0  0  0  0  0  0  0
  -27.7160  -27.5140   19.8270 C   0  0  0  0  0  0  0  0  0  0  0  0
  -23.6590  -30.3070   21.3250 C   0  0  0  0  0  3  0  0  0  0  0  0
  -25.2300  -28.9220   19.8650 C   0  0  0  0  0  0  0  0  0  0  0  0
  -26.1680  -30.8090   21.2020 C   0  0  0  0  0  2  0  0  0  0  0  0
  -26.3500  -29.4720   20.4990 C   0  0  0  0  0  0  0  0  0  0  0  0
  -27.5890  -28.7760   20.4760 C   0  0  0  0  0  3  0  0  0  0  0  0
  -26.5590  -26.9900   19.2000 C   0  0  0  0  0  3  0  0  0  0  0  0
  -25.3330  -27.6810   19.2150 C   0  0  0  0  0  3  0  0  0  0  0  0
  -23.9380  -29.7060   19.9220 C   0  0  0  0  0  2  0  0  0  0  0  0
  -24.8740  -30.9520   21.9190 N   0  0  0  0  0  0  0  0  0  0  0  0
  -23.6350  -31.8820   23.5790 O   0  0  0  0  0  0  0  0  0  0  0  0
  -23.0460  -29.2070   22.2220 C   0  0  0  0  0  0  0  0  0  0  0  0
  -21.7290  -28.9810   22.0860 N   0  0  0  0  0  0  0  0  0  0  0  0
  -23.7550  -28.5580   22.9970 O   0  0  0  0  0  0  0  0  0  0  0  0
  -21.2130  -29.5630   21.4400 H   0  0  0  0  0  0  0  0  0  0  0  0
  -18.3950  -27.6650   22.5620 C   0  0  0  0  0  0  0  0  0  0  0  0
  -20.9520  -27.9660   22.7980 C   0  0  0  0  0  3  0  0  0  0  0  0
  -21.0750  -26.5870   22.1070 C   0  0  0  0  0  2  0  0  0  0  0  0
  -19.9570  -26.3180   21.0950 C   0  0  0  0  0  2  0  0  0  0  0  0
  -18.5880  -26.3770   21.7770 C   0  0  0  0  0  2  0  0  0  0  0  0
  -19.5060  -28.4190   23.0250 C   0  0  0  0  0  0  0  0  0  0  0  0
  -19.2720  -29.6270   23.7170 C   0  0  0  0  0  3  0  0  0  0  0  0
  -17.9610  -30.0810   23.9510 C   0  0  0  0  0  3  0  0  0  0  0  0
  -16.8650  -29.3240   23.5040 C   0  0  0  0  0  3  0  0  0  0  0  0
  -17.0830  -28.1180   22.8140 C   0  0  0  0  0  3  0  0  0  0  0  0
  -25.9720  -32.3770   23.7330 C   0  0  0  0  0  3  0  0  0  0  0  0
  -25.5820  -33.7470   24.0910 N   0  0  0  0  0  0  0  0  0  0  0  0
  -25.8810  -34.8370   23.3720 C   0  0  0  0  0  0  0  0  0  0  0  0
  -26.5860  -34.7980   22.3590 O   0  0  0  0  0  0  0  0  0  0  0  0
  -24.9540  -33.8480   24.8750 H   0  0  0  0  0  0  0  0  0  0  0  0
  -24.0650  -36.5430   23.0220 C   0  0  0  0  0  1  0  0  0  0  0  0
  -25.3090  -36.1850   23.8520 C   0  0  0  0  0  3  0  0  0  0  0  0
  -27.3690  -37.1630   24.7600 C   0  0  0  0  0  1  0  0  0  0  0  0
  -26.2840  -37.2950   23.7920 N   0  0  0  0  0  0  0  0  0  0  0  0
  -25.8240  -38.1870   23.9520 H   0  0  0  0  0  0  0  0  0  0  0  0
  -26.4900  -31.5970   25.0040 C   0  0  1  0  0  0  0  0  0  0  0  0
  -25.3780  -31.2750   26.0290 C   0  0  0  0  0  1  0  0  0  0  0  0
  -27.1570  -30.2620   24.5930 C   0  0  0  0  0  1  0  0  0  0  0  0
  -27.5760  -32.4290   25.7240 C   0  0  0  0  0  1  0  0  0  0  0  0
  2  1  1  0
  3  7  1  0
  3  5  1  0
  4  1  1  0
  4  5  1  0
  4 10  1  0
  5  6  1  0
  7  2  1  0
  7 49  1  0
  7  8  1  6
 10  9  1  0
 11 10  1  0
 11 12  2  0
 13 19  1  0
 13 12  1  0
 14 19  1  0
 15 16  1  0
 15 14  1  0
 17 16  1  0
 17 24  1  0
 17 18  1  0
 19 18  1  0
 20 13  2  0
 21 22  2  0
 22 41  1  0
 23 22  1  0
 23 26  1  0
 24 25  1  0
 24 21  1  0
 25 23  2  0
 26 27  1  0
 27 28  2  0
 29 32  1  0
 29 28  1  0
 30 29  2  0
 31 30  1  0
 31 26  2  0
 32 33  1  0
 33 34  1  0
 34 35  2  0
 36 35  1  0
 36 40  1  0
 37 36  2  0
 38 33  2  0
 38 37  1  0
 39 38  1  0
 41 42  1  0
 42 45  1  0
 42 44  1  0
 43 41  2  0
 46 21  1  0
 46 47  1  0
 48 46  1  0
 50 51  1  0
 50 49  1  0
 52 63  2  0
 53 51  1  0
 53 58  1  0
 54 62  1  0
 54 64  1  0
 55 61  1  0
 55 57  1  0
 56 62  1  0
 57 56  1  0
 58 57  2  0
 59 60  1  0
 59 53  2  0
 60 55  2  0
 61 54  1  0
 62 52  1  0
 64 66  2  0
 65 64  1  0
 67 65  1  0
 68 77  2  0
 68 73  1  0
 69 65  1  0
 69 73  1  0
 70 69  1  0
 71 72  1  0
 71 70  1  0
 72 68  1  0
 73 74  2  0
 74 75  1  0
 76 75  2  0
 77 76  1  0
 78 52  1  0
 78 79  1  0
 78 88  1  0
 79 82  1  0
 80 84  1  0
 80 79  1  0
 81 80  2  0
 84 83  1  0
 86 84  1  0
 86 87  1  0
 86 85  1  0
 88 91  1  1
 88 89  1  0
 90 88  1  0
M  ISO  4  12 100  13 100  50 101  51 101
M  END
>  <TORSDO>  (29) 
F 21

>  <SCORE>  (29) 
-12.260

>  <name>  (29) 
28

>  <ligand_id>  (29) 
28

>  <original_smiles>  (29) 
[H]c1c([H])c([H])c2c(c1[H])C([H])([H])C([H])([H])C([H])([H])C2([H])N([H])C(=O)C1([H])N(C(=O)C([H])(N([H])C(=O)C([H])(N([H])C([H])([H])[H])C([H])([H])[H])C(C([H])([H])[H])(C([H])([H])[H])C([H])([H])[H])C([H])([H])c2c([H])c(OC([H])([H])C([H])([H])[N+]3([H])C([H])([H])C([H])([H])C([H])(C([H])(C([H])([H])[H])C([H])([H])C([H])([H])C(=O)N4C([H])([H])C([H])([H])C([H])([H])C([H])(n5nc(-c6c([H])c([H])c(Oc7c([H])c([H])c(F)c([H])c7F)c([H])c6[H])c(C(=O)N([H])[H])c5N([H])[H])C4([H])[H])C([H])(C([H])([H])[H])C3([H])[H])c([H])c([H])c2C1([H])[H]

>  <smiles>  (29) 
[H]c1c([H])c([H])c2c(c1[H])C([H])([H])C([H])([H])C([H])([H])C2([H])N([H])C(=O)C1([H])N(C(=O)C([H])(N([H])C(=O)C([H])(N([H])C([H])([H])[H])C([H])([H])[H])C(C([H])([H])[H])(C([H])([H])[H])C([H])([H])[H])C([H])([H])c2c([H])c(OC([H])([H])C([H])([H])[N+]3([H])C([H])([H])C([H])([H])C([H])(C([H])(C([H])([H])[H])C([H])([H])C([H])([H])C(=O)N4C([H])([H])C([H])([H])C([H])([H])C([H])(n5nc(-c6c([H])c([H])c(Oc7c([H])c([H])c(F)c([H])c7F)c([H])c6[H])c(C(=O)N([H])[H])c5N([H])[H])C4([H])[H])C([H])(C([H])([H])[H])C3([H])[H])c([H])c([H])c2C1([H])[H]

$$$$
29:0:0
     RDKit          3D

 85 93  0  0  1  0  0  0  0  0999 V2000
  -29.0300  -22.4120   20.3730 C   0  0  0  0  0  3  0  0  0  0  0  0
  -28.6860  -17.9240   20.6720 C   0  0  0  0  0  3  0  0  0  0  0  0
  -30.5770  -18.3740   19.5430 C   0  0  0  0  0  3  0  0  0  0  0  0
  -28.3720  -19.4230   20.7090 C   0  0  0  0  0  3  0  0  0  0  0  0
  -30.2600  -19.8500   19.5760 C   0  0  0  0  0  3  0  0  0  0  0  0
  -29.8440  -17.2070   20.0760 C   0  0  0  0  0  0  0  0  0  0  0  0
  -29.1230  -20.5890   20.1600 C   0  0  0  0  0  0  0  0  0  0  0  0
  -30.4300  -15.5560   20.0580 C   0  0  0  0  0  0  0  0  0  0  0  0
  -30.4300  -13.0300   19.2850 C   0  0  0  0  0  2  0  0  0  0  0  0
  -29.5260  -12.6990   18.0680 C   0  0  0  0  0  2  0  0  0  0  0  0
  -28.0990  -12.3790   18.5330 C   0  0  0  0  0  2  0  0  0  0  0  0
  -27.6160  -13.3780   19.6140 C   0  0  0  0  0  3  0  0  0  0  0  0
  -28.6600  -13.6710   20.7130 C   0  0  0  0  0  2  0  0  0  0  0  0
  -29.8590  -14.2220   20.0530 N   0  0  0  0  0  0  0  0  0  0  0  0
  -31.6490  -15.4380   19.8310 O   0  0  0  0  0  0  0  0  0  0  0  0
  -25.2780  -13.8880   20.4580 C   0  0  0  0  0  0  0  0  0  0  0  0
  -24.2330  -13.0950   20.8420 C   0  0  0  0  0  0  0  0  0  0  0  0
  -24.7090  -11.7500   20.7780 C   0  0  0  0  0  0  0  0  0  0  0  0
  -26.3160  -13.0270   20.1640 N   0  0  0  0  0  0  0  0  0  0  0  0
  -25.9930  -11.7310   20.4280 N   0  0  0  0  0  0  0  0  0  0  0  0
  -23.9920  -10.4800   20.9670 C   0  0  0  0  0  0  0  0  0  0  0  0
  -24.4190   -9.5220   21.9130 C   0  0  0  0  0  3  0  0  0  0  0  0
  -23.6970   -8.3210   22.0920 C   0  0  0  0  0  3  0  0  0  0  0  0
  -22.5350   -8.0710   21.3250 C   0  0  0  0  0  0  0  0  0  0  0  0
  -22.1260   -9.0180   20.3690 C   0  0  0  0  0  3  0  0  0  0  0  0
  -22.8480  -10.2090   20.1880 C   0  0  0  0  0  3  0  0  0  0  0  0
  -21.7860   -6.9220   21.4110 O   0  0  0  0  0  0  0  0  0  0  0  0
  -21.6870   -6.2140   22.5830 C   0  0  0  0  0  0  0  0  0  0  0  0
  -21.1900   -6.7980   23.7680 C   0  0  0  0  0  3  0  0  0  0  0  0
  -21.0410   -6.0160   24.9300 C   0  0  0  0  0  3  0  0  0  0  0  0
  -21.3790   -4.6490   24.9090 C   0  0  0  0  0  0  0  0  0  0  0  0
  -21.8680   -4.0630   23.7280 C   0  0  0  0  0  3  0  0  0  0  0  0
  -22.0200   -4.8430   22.5670 C   0  0  0  0  0  0  0  0  0  0  0  0
  -22.4720   -4.2690   21.4270 F   0  0  0  0  0  0  0  0  0  0  0  0
  -21.2270   -3.8960   26.0220 F   0  0  0  0  0  0  0  0  0  0  0  0
  -22.8390  -13.5610   21.1480 C   0  0  0  0  0  0  0  0  0  0  0  0
  -22.1340  -12.8560   22.0240 N   0  0  0  0  0  0  0  0  0  0  0  0
  -22.3860  -14.5870   20.6430 O   0  0  0  0  0  0  0  0  0  0  0  0
  -22.5120  -12.0240   22.4530 H   0  0  0  0  0  0  0  0  0  0  0  0
  -21.2000  -13.1530   22.2720 H   0  0  0  0  0  0  0  0  0  0  0  0
  -25.4240  -15.2640   20.3030 N   0  0  0  0  0  0  0  0  0  0  0  0
  -24.6560  -15.9070   20.4620 H   0  0  0  0  0  0  0  0  0  0  0  0
  -26.2600  -15.7230   19.9640 H   0  0  0  0  0  0  0  0  0  0  0  0
  -27.9900  -23.9660   20.1100 C   0  0  0  0  0  3  0  0  0  0  0  0
  -28.1760  -25.6700   20.2890 O   0  0  0  0  0  0  0  0  0  0  0  0
  -24.6760  -31.8400   23.2250 C   0  0  0  0  0  0  0  0  0  0  0  0
  -27.1930  -26.8400   20.2200 C   0  0  0  0  0  0  0  0  0  0  0  0
  -23.4830  -30.4510   21.5830 C   0  0  0  0  0  3  0  0  0  0  0  0
  -24.9250  -28.8230   20.1600 C   0  0  0  0  0  0  0  0  0  0  0  0
  -26.0560  -30.6170   21.4510 C   0  0  0  0  0  2  0  0  0  0  0  0
  -26.1180  -29.1930   20.7910 C   0  0  0  0  0  0  0  0  0  0  0  0
  -27.2410  -28.2270   20.7890 C   0  0  0  0  0  3  0  0  0  0  0  0
  -25.9690  -26.6550   19.5340 C   0  0  0  0  0  3  0  0  0  0  0  0
  -24.8840  -27.5770   19.5080 C   0  0  0  0  0  3  0  0  0  0  0  0
  -23.7160  -29.7650   20.2080 C   0  0  0  0  0  2  0  0  0  0  0  0
  -24.7620  -31.0000   22.1400 N   0  0  0  0  0  0  0  0  0  0  0  0
  -23.5860  -32.1360   23.7420 O   0  0  0  0  0  0  0  0  0  0  0  0
  -22.7740  -29.4650   22.5510 C   0  0  0  0  0  0  0  0  0  0  0  0
  -21.4420  -29.3100   22.4280 N   0  0  0  0  0  0  0  0  0  0  0  0
  -23.4320  -28.8370   23.3830 O   0  0  0  0  0  0  0  0  0  0  0  0
  -20.9610  -29.8680   21.7340 H   0  0  0  0  0  0  0  0  0  0  0  0
  -18.0530  -28.1070   22.9400 C   0  0  0  0  0  0  0  0  0  0  0  0
  -20.6150  -28.3730   23.1970 C   0  0  0  0  0  3  0  0  0  0  0  0
  -20.7140  -26.9420   22.6210 C   0  0  0  0  0  2  0  0  0  0  0  0
  -19.6100  -26.6220   21.6070 C   0  0  0  0  0  2  0  0  0  0  0  0
  -18.2300  -26.7620   22.2550 C   0  0  0  0  0  2  0  0  0  0  0  0
  -19.1720  -28.8700   23.3680 C   0  0  0  0  0  0  0  0  0  0  0  0
  -18.9510  -30.1260   23.9740 C   0  0  0  0  0  3  0  0  0  0  0  0
  -17.6440  -30.6190   24.1540 C   0  0  0  0  0  3  0  0  0  0  0  0
  -16.5410  -29.8550   23.7380 C   0  0  0  0  0  3  0  0  0  0  0  0
  -16.7460  -28.5990   23.1370 C   0  0  0  0  0  3  0  0  0  0  0  0
  -25.9450  -32.4840   23.8640 C   0  0  0  0  0  3  0  0  0  0  0  0
  -25.6280  -33.8850   24.2000 N   0  0  0  0  0  0  0  0  0  0  0  0
  -25.9460  -34.9490   23.4500 C   0  0  0  0  0  0  0  0  0  0  0  0
  -26.5980  -34.8530   22.4070 O   0  0  0  0  0  0  0  0  0  0  0  0
  -25.0450  -34.0310   25.0110 H   0  0  0  0  0  0  0  0  0  0  0  0
  -24.2030  -36.7460   23.1730 C   0  0  0  0  0  1  0  0  0  0  0  0
  -25.4750  -36.3380   23.9320 C   0  0  0  0  0  3  0  0  0  0  0  0
  -27.6270  -37.2420   24.6930 C   0  0  0  0  0  1  0  0  0  0  0  0
  -26.5000  -37.3930   23.7780 N   0  0  0  0  0  0  0  0  0  0  0  0
  -26.0950  -38.3150   23.9200 H   0  0  0  0  0  0  0  0  0  0  0  0
  -26.4410  -31.7210   25.1560 C   0  0  1  0  0  0  0  0  0  0  0  0
  -25.3350  -31.5000   26.2130 C   0  0  0  0  0  1  0  0  0  0  0  0
  -27.0220  -30.3360   24.7920 C   0  0  0  0  0  1  0  0  0  0  0  0
  -27.5880  -32.5150   25.8240 C   0  0  0  0  0  1  0  0  0  0  0  0
  2  4  1  0
  3  5  2  0
  3  6  1  0
  5  7  1  0
  6  2  2  0
  7  1  1  0
  7  4  2  0
  8  6  1  0
  9 14  1  0
 10 11  1  0
 10  9  1  0
 12 11  1  0
 12 19  1  0
 12 13  1  0
 14  8  1  0
 14 13  1  0
 15  8  2  0
 16 17  2  0
 17 36  1  0
 18 17  1  0
 18 21  1  0
 19 20  1  0
 19 16  1  0
 20 18  2  0
 21 22  1  0
 22 23  2  0
 24 27  1  0
 24 23  1  0
 25 24  2  0
 26 25  1  0
 26 21  2  0
 27 28  1  0
 28 29  1  0
 29 30  2  0
 31 30  1  0
 31 35  1  0
 32 31  2  0
 33 28  2  0
 33 32  1  0
 34 33  1  0
 36 37  1  0
 37 40  1  0
 37 39  1  0
 38 36  2  0
 41 16  1  0
 41 42  1  0
 43 41  1  0
 44 45  1  0
 44  1  2  0
 46 57  2  0
 47 45  1  0
 47 52  1  0
 48 56  1  0
 48 58  1  0
 49 55  1  0
 49 51  1  0
 50 56  1  0
 51 50  1  0
 52 51  2  0
 53 47  2  0
 54 53  1  0
 54 49  2  0
 55 48  1  0
 56 46  1  0
 58 60  2  0
 59 58  1  0
 61 59  1  0
 62 71  2  0
 62 67  1  0
 63 59  1  0
 63 67  1  0
 64 63  1  0
 65 66  1  0
 65 64  1  0
 66 62  1  0
 67 68  2  0
 68 69  1  0
 70 69  2  0
 71 70  1  0
 72 46  1  0
 72 73  1  0
 72 82  1  0
 73 76  1  0
 74 78  1  0
 74 73  1  0
 75 74  2  0
 78 77  1  0
 80 81  1  0
 80 78  1  0
 80 79  1  0
 82 85  1  1
 82 83  1  0
 84 82  1  0
M  ISO  4   6 100   8 100  44 101  45 101
M  END
>  <TORSDO>  (30) 
F 18

>  <SCORE>  (30) 
-16.308

>  <name>  (30) 
29

>  <ligand_id>  (30) 
29

>  <original_smiles>  (30) 
[H]c1c([H])c([H])c2c(c1[H])C([H])([H])C([H])([H])C([H])([H])C2([H])N([H])C(=O)C1([H])N(C(=O)C([H])(N([H])C(=O)C([H])(N([H])C([H])([H])[H])C([H])([H])[H])C(C([H])([H])[H])(C([H])([H])[H])C([H])([H])[H])C([H])([H])c2c([H])c(OC([H])([H])C([H])([H])c3c([H])c([H])c(C(=O)N4C([H])([H])C([H])([H])C([H])([H])C([H])(n5nc(-c6c([H])c([H])c(Oc7c([H])c([H])c(F)c([H])c7F)c([H])c6[H])c(C(=O)N([H])[H])c5N([H])[H])C4([H])[H])c([H])c3[H])c([H])c([H])c2C1([H])[H]

>  <smiles>  (30) 
[H]c1c([H])c([H])c2c(c1[H])C([H])([H])C([H])([H])C([H])([H])C2([H])N([H])C(=O)C1([H])N(C(=O)C([H])(N([H])C(=O)C([H])(N([H])C([H])([H])[H])C([H])([H])[H])C(C([H])([H])[H])(C([H])([H])[H])C([H])([H])[H])C([H])([H])c2c([H])c(OC([H])([H])C([H])([H])c3c([H])c([H])c(C(=O)N4C([H])([H])C([H])([H])C([H])([H])C([H])(n5nc(-c6c([H])c([H])c(Oc7c([H])c([H])c(F)c([H])c7F)c([H])c6[H])c(C(=O)N([H])[H])c5N([H])[H])C4([H])[H])c([H])c3[H])c([H])c([H])c2C1([H])[H]

$$$$
30:0:0
     RDKit          3D

 86 93  0  0  1  0  0  0  0  0999 V2000
  -30.5120  -23.7820   20.6550 C   0  0  0  0  0  1  0  0  0  0  0  0
  -29.0990  -23.4350   20.1600 C   0  0  0  0  0  3  0  0  0  0  0  0
  -28.7450  -21.8350   20.5750 C   0  0  0  0  0  2  0  0  0  0  0  0
  -29.6270  -20.4460   20.1850 C   0  0  0  0  0  3  0  0  0  0  0  0
  -29.2340  -18.8550   20.6280 C   0  0  0  0  0  3  0  0  0  0  0  0
  -30.1190  -17.4600   20.3380 C   0  0  0  0  0  0  0  0  0  0  0  0
  -31.4800  -17.7890   19.7390 C   0  0  0  0  0  1  0  0  0  0  0  0
  -29.7550  -16.1710   20.5880 N   0  0  0  0  0  0  0  0  0  0  0  0
  -30.5560  -14.9500   20.3350 C   0  0  0  0  0  0  0  0  0  0  0  0
  -30.4010  -12.6010   19.3940 C   0  0  0  0  0  2  0  0  0  0  0  0
  -29.4680  -12.6020   18.1610 C   0  0  0  0  0  2  0  0  0  0  0  0
  -28.0110  -12.3640   18.5990 C   0  0  0  0  0  2  0  0  0  0  0  0
  -27.6040  -13.2970   19.7710 C   0  0  0  0  0  3  0  0  0  0  0  0
  -28.6600  -13.3100   20.8980 C   0  0  0  0  0  2  0  0  0  0  0  0
  -29.9480  -13.6940   20.3060 N   0  0  0  0  0  0  0  0  0  0  0  0
  -31.7460  -14.9520   20.0110 O   0  0  0  0  0  0  0  0  0  0  0  0
  -25.2170  -13.8620   20.5030 C   0  0  0  0  0  0  0  0  0  0  0  0
  -24.1570  -13.0810   20.8700 C   0  0  0  0  0  0  0  0  0  0  0  0
  -24.6300  -11.7320   20.8500 C   0  0  0  0  0  0  0  0  0  0  0  0
  -26.2670  -12.9900   20.2700 N   0  0  0  0  0  0  0  0  0  0  0  0
  -25.9220  -11.7040   20.5450 N   0  0  0  0  0  0  0  0  0  0  0  0
  -23.9100  -10.4650   21.0410 C   0  0  0  0  0  0  0  0  0  0  0  0
  -24.3430   -9.5000   21.9790 C   0  0  0  0  0  3  0  0  0  0  0  0
  -23.6210   -8.3010   22.1590 C   0  0  0  0  0  3  0  0  0  0  0  0
  -22.4520   -8.0590   21.3990 C   0  0  0  0  0  0  0  0  0  0  0  0
  -22.0370   -9.0100   20.4510 C   0  0  0  0  0  3  0  0  0  0  0  0
  -22.7610  -10.2000   20.2680 C   0  0  0  0  0  3  0  0  0  0  0  0
  -21.7000   -6.9110   21.4880 O   0  0  0  0  0  0  0  0  0  0  0  0
  -21.6540   -6.1670   22.6400 C   0  0  0  0  0  0  0  0  0  0  0  0
  -21.2270   -6.7220   23.8660 C   0  0  0  0  0  3  0  0  0  0  0  0
  -21.1270   -5.9070   25.0110 C   0  0  0  0  0  3  0  0  0  0  0  0
  -21.4440   -4.5370   24.9310 C   0  0  0  0  0  0  0  0  0  0  0  0
  -21.8680   -3.9820   23.7100 C   0  0  0  0  0  3  0  0  0  0  0  0
  -21.9680   -4.7950   22.5670 C   0  0  0  0  0  0  0  0  0  0  0  0
  -22.3540   -4.2500   21.3890 F   0  0  0  0  0  0  0  0  0  0  0  0
  -21.3410   -3.7530   26.0290 F   0  0  0  0  0  0  0  0  0  0  0  0
  -22.7560  -13.5500   21.1330 C   0  0  0  0  0  0  0  0  0  0  0  0
  -22.0290  -12.8550   21.9980 N   0  0  0  0  0  0  0  0  0  0  0  0
  -22.3160  -14.5720   20.6060 O   0  0  0  0  0  0  0  0  0  0  0  0
  -22.3980  -12.0210   22.4350 H   0  0  0  0  0  0  0  0  0  0  0  0
  -21.0930  -13.1570   22.2270 H   0  0  0  0  0  0  0  0  0  0  0  0
  -25.3760  -15.2330   20.3200 N   0  0  0  0  0  0  0  0  0  0  0  0
  -24.6140  -15.8970   20.4120 H   0  0  0  0  0  0  0  0  0  0  0  0
  -26.2490  -15.6690   20.0450 H   0  0  0  0  0  0  0  0  0  0  0  0
  -28.0710  -24.7250   20.4990 C   0  0  0  0  0  2  0  0  0  0  0  0
  -28.3030  -26.2380   20.2270 O   0  0  0  0  0  0  0  0  0  0  0  0
  -24.6420  -31.8880   23.2370 C   0  0  0  0  0  0  0  0  0  0  0  0
  -27.2200  -27.1880   20.2060 C   0  0  0  0  0  0  0  0  0  0  0  0
  -23.4320  -30.4850   21.6120 C   0  0  0  0  0  3  0  0  0  0  0  0
  -24.8770  -28.9110   20.1870 C   0  0  0  0  0  0  0  0  0  0  0  0
  -25.9810  -30.7690   21.4160 C   0  0  0  0  0  2  0  0  0  0  0  0
  -26.0600  -29.3700   20.7780 C   0  0  0  0  0  0  0  0  0  0  0  0
  -27.2350  -28.5290   20.7630 C   0  0  0  0  0  3  0  0  0  0  0  0
  -26.0100  -26.8270   19.5750 C   0  0  0  0  0  3  0  0  0  0  0  0
  -24.8650  -27.6520   19.5670 C   0  0  0  0  0  3  0  0  0  0  0  0
  -23.6410  -29.7960   20.2390 C   0  0  0  0  0  2  0  0  0  0  0  0
  -24.7070  -31.0690   22.1450 N   0  0  0  0  0  0  0  0  0  0  0  0
  -23.5590  -32.1730   23.7720 O   0  0  0  0  0  0  0  0  0  0  0  0
  -22.7620  -29.4820   22.5850 C   0  0  0  0  0  0  0  0  0  0  0  0
  -21.4320  -29.3080   22.4640 N   0  0  0  0  0  0  0  0  0  0  0  0
  -23.4380  -28.8600   23.4070 O   0  0  0  0  0  0  0  0  0  0  0  0
  -20.9480  -29.8610   21.7720 H   0  0  0  0  0  0  0  0  0  0  0  0
  -18.0550  -28.0980   22.9720 C   0  0  0  0  0  0  0  0  0  0  0  0
  -20.6110  -28.3740   23.2410 C   0  0  0  0  0  3  0  0  0  0  0  0
  -20.7230  -26.9390   22.6780 C   0  0  0  0  0  2  0  0  0  0  0  0
  -19.6240  -26.6010   21.6660 C   0  0  0  0  0  2  0  0  0  0  0  0
  -18.2390  -26.7460   22.3070 C   0  0  0  0  0  2  0  0  0  0  0  0
  -19.1700  -28.8700   23.3950 C   0  0  0  0  0  0  0  0  0  0  0  0
  -18.9430  -30.1350   23.9800 C   0  0  0  0  0  3  0  0  0  0  0  0
  -17.6340  -30.6280   24.1460 C   0  0  0  0  0  3  0  0  0  0  0  0
  -16.5340  -29.8550   23.7340 C   0  0  0  0  0  3  0  0  0  0  0  0
  -16.7450  -28.5930   23.1520 C   0  0  0  0  0  3  0  0  0  0  0  0
  -25.9220  -32.5230   23.8590 C   0  0  0  0  0  3  0  0  0  0  0  0
  -25.6130  -33.9220   24.1960 N   0  0  0  0  0  0  0  0  0  0  0  0
  -25.9380  -34.9760   23.4360 C   0  0  0  0  0  0  0  0  0  0  0  0
  -26.5990  -34.8740   22.3980 O   0  0  0  0  0  0  0  0  0  0  0  0
  -25.0260  -34.0750   25.0030 H   0  0  0  0  0  0  0  0  0  0  0  0
  -24.2080  -36.7730   23.1060 C   0  0  0  0  0  1  0  0  0  0  0  0
  -25.4600  -36.3650   23.9000 C   0  0  0  0  0  3  0  0  0  0  0  0
  -27.6080  -37.2490   24.7000 C   0  0  0  0  0  1  0  0  0  0  0  0
  -26.4930  -37.4180   23.7710 N   0  0  0  0  0  0  0  0  0  0  0  0
  -26.0900  -38.3370   23.9290 H   0  0  0  0  0  0  0  0  0  0  0  0
  -26.4430  -31.7500   25.1330 C   0  0  1  0  0  0  0  0  0  0  0  0
  -25.3510  -31.5090   26.2030 C   0  0  0  0  0  1  0  0  0  0  0  0
  -27.0210  -30.3700   24.7340 C   0  0  0  0  0  1  0  0  0  0  0  0
  -27.6030  -32.5390   25.7870 C   0  0  0  0  0  1  0  0  0  0  0  0
  2 45  1  0
  2  3  1  0
  2  1  1  0
  4  3  1  0
  4  5  2  0
  6  8  2  0
  6  5  1  0
  7  6  1  0
  9  8  1  0
 10 15  1  0
 11 12  1  0
 11 10  1  0
 13 12  1  0
 13 20  1  0
 13 14  1  0
 15  9  1  0
 15 14  1  0
 16  9  2  0
 17 18  2  0
 18 37  1  0
 19 18  1  0
 19 22  1  0
 20 17  1  0
 20 21  1  0
 21 19  2  0
 22 23  1  0
 23 24  2  0
 25 28  1  0
 25 24  1  0
 26 25  2  0
 27 26  1  0
 27 22  2  0
 28 29  1  0
 29 30  1  0
 30 31  2  0
 32 31  1  0
 32 36  1  0
 33 32  2  0
 34 29  2  0
 34 33  1  0
 35 34  1  0
 37 38  1  0
 38 41  1  0
 38 40  1  0
 39 37  2  0
 42 43  1  0
 42 17  1  0
 44 42  1  0
 46 45  1  0
 47 58  2  0
 48 46  1  0
 48 53  1  0
 49 57  1  0
 49 59  1  0
 50 56  1  0
 50 52  1  0
 51 57  1  0
 52 51  1  0
 53 52  2  0
 54 48  2  0
 55 54  1  0
 55 50  2  0
 56 49  1  0
 57 47  1  0
 59 61  2  0
 60 59  1  0
 62 60  1  0
 63 72  2  0
 63 68  1  0
 64 60  1  0
 64 68  1  0
 65 64  1  0
 66 67  1  0
 66 65  1  0
 67 63  1  0
 68 69  2  0
 69 70  1  0
 71 70  2  0
 72 71  1  0
 73 47  1  0
 73 74  1  0
 73 83  1  0
 74 77  1  0
 75 79  1  0
 75 74  1  0
 76 75  2  0
 79 78  1  0
 81 79  1  0
 81 82  1  0
 81 80  1  0
 83 86  1  1
 83 84  1  0
 85 83  1  0
M  ISO  4   8 100   9 100  45 101  46 101
M  END
>  <TORSDO>  (31) 
F 21

>  <SCORE>  (31) 
-13.964

>  <name>  (31) 
30

>  <ligand_id>  (31) 
30

>  <original_smiles>  (31) 
[H]c1c([H])c([H])c2c(c1[H])C([H])([H])C([H])([H])C([H])([H])C2([H])N([H])C(=O)C1([H])N(C(=O)C([H])(N([H])C(=O)C([H])(N([H])C([H])([H])[H])C([H])([H])[H])C(C([H])([H])[H])(C([H])([H])[H])C([H])([H])[H])C([H])([H])c2c([H])c(OC([H])([H])C([H])(C([H])([H])[H])C([H])([H])C([H])([H])C([H])([H])C(=NC(=O)N3C([H])([H])C([H])([H])C([H])([H])C([H])(n4nc(-c5c([H])c([H])c(Oc6c([H])c([H])c(F)c([H])c6F)c([H])c5[H])c(C(=O)N([H])[H])c4N([H])[H])C3([H])[H])C([H])([H])[H])c([H])c([H])c2C1([H])[H]

>  <smiles>  (31) 
[H]c1c([H])c([H])c2c(c1[H])C([H])([H])C([H])([H])C([H])([H])C2([H])N([H])C(=O)C1([H])N(C(=O)C([H])(N([H])C(=O)C([H])(N([H])C([H])([H])[H])C([H])([H])[H])C(C([H])([H])[H])(C([H])([H])[H])C([H])([H])[H])C([H])([H])c2c([H])c(OC([H])([H])C([H])(C([H])([H])[H])C([H])([H])C([H])([H])C([H])([H])C(=NC(=O)N3C([H])([H])C([H])([H])C([H])([H])C([H])(n4nc(-c5c([H])c([H])c(Oc6c([H])c([H])c(F)c([H])c6F)c([H])c5[H])c(C(=O)N([H])[H])c4N([H])[H])C3([H])[H])C([H])([H])[H])c([H])c([H])c2C1([H])[H]

$$$$
31:0:0
     RDKit          3D

 91 98  0  0  1  0  0  0  0  0999 V2000
  -29.1110  -22.8640   20.5000 N   0  0  0  0  0  4  0  0  0  0  0  0
  -30.0270  -22.9540   20.9130 H   0  0  0  0  0  0  0  0  0  0  0  0
  -28.4610  -22.7150   21.2570 H   0  0  0  0  0  0  0  0  0  0  0  0
  -29.0920  -21.6360   19.6440 C   0  0  0  0  0  2  0  0  0  0  0  0
  -30.1730  -20.5400   19.9490 C   0  0  0  0  0  3  0  0  0  0  0  0
  -29.8770  -19.4860   21.0590 C   0  0  0  0  0  3  0  0  0  0  0  0
  -30.6450  -17.6010   22.5460 C   0  0  0  0  0  1  0  0  0  0  0  0
  -32.2090  -18.4220   20.7730 C   0  0  0  0  0  1  0  0  0  0  0  0
  -30.7250  -18.1420   21.0980 C   0  0  2  0  0  0  0  0  0  0  0  0
  -30.2130  -17.0510   20.0870 C   0  0  0  0  0  2  0  0  0  0  0  0
  -30.9540  -14.5960   20.0970 C   0  0  0  0  0  0  0  0  0  0  0  0
  -30.6430  -12.3900   19.0220 C   0  0  0  0  0  2  0  0  0  0  0  0
  -29.6770  -12.5880   17.8340 C   0  0  0  0  0  2  0  0  0  0  0  0
  -28.2090  -12.4720   18.2950 C   0  0  0  0  0  2  0  0  0  0  0  0
  -27.9110  -13.3330   19.5530 C   0  0  0  0  0  3  0  0  0  0  0  0
  -28.9870  -13.1120   20.6430 C   0  0  0  0  0  2  0  0  0  0  0  0
  -30.3040  -13.3960   20.0460 N   0  0  0  0  0  0  0  0  0  0  0  0
  -32.0630  -14.7700   19.5850 O   0  0  0  0  0  0  0  0  0  0  0  0
  -30.2100  -15.6330   20.5480 N   0  0  0  0  0  0  0  0  0  0  0  0
  -29.3660  -15.3540   21.0270 H   0  0  0  0  0  0  0  0  0  0  0  0
  -25.5450  -14.0030   20.3160 C   0  0  0  0  0  0  0  0  0  0  0  0
  -24.4660  -13.2610   20.7130 C   0  0  0  0  0  0  0  0  0  0  0  0
  -24.8920  -11.8970   20.6750 C   0  0  0  0  0  0  0  0  0  0  0  0
  -26.5610  -13.0950   20.0630 N   0  0  0  0  0  0  0  0  0  0  0  0
  -26.1720  -11.8230   20.3370 N   0  0  0  0  0  0  0  0  0  0  0  0
  -24.1390  -10.6550   20.8880 C   0  0  0  0  0  0  0  0  0  0  0  0
  -24.5630   -9.6850   21.8220 C   0  0  0  0  0  3  0  0  0  0  0  0
  -23.8130   -8.5070   22.0230 C   0  0  0  0  0  3  0  0  0  0  0  0
  -22.6220   -8.2890   21.2880 C   0  0  0  0  0  0  0  0  0  0  0  0
  -22.2160   -9.2480   20.3440 C   0  0  0  0  0  3  0  0  0  0  0  0
  -22.9670  -10.4190   20.1410 C   0  0  0  0  0  3  0  0  0  0  0  0
  -21.8430   -7.1630   21.3970 O   0  0  0  0  0  0  0  0  0  0  0  0
  -21.7780   -6.4410   22.5610 C   0  0  0  0  0  0  0  0  0  0  0  0
  -21.3840   -7.0300   23.7820 C   0  0  0  0  0  3  0  0  0  0  0  0
  -21.2660   -6.2350   24.9420 C   0  0  0  0  0  3  0  0  0  0  0  0
  -21.5300   -4.8540   24.8780 C   0  0  0  0  0  0  0  0  0  0  0  0
  -21.9170   -4.2660   23.6620 C   0  0  0  0  0  3  0  0  0  0  0  0
  -22.0380   -5.0550   22.5070 C   0  0  0  0  0  0  0  0  0  0  0  0
  -22.3900   -4.4790   21.3320 F   0  0  0  0  0  0  0  0  0  0  0  0
  -21.4100   -4.0900   25.9890 F   0  0  0  0  0  0  0  0  0  0  0  0
  -23.0890  -13.7750   21.0170 C   0  0  0  0  0  0  0  0  0  0  0  0
  -22.3680  -13.1070   21.9140 N   0  0  0  0  0  0  0  0  0  0  0  0
  -22.6600  -14.8020   20.4980 O   0  0  0  0  0  0  0  0  0  0  0  0
  -22.7270  -12.2760   22.3570 H   0  0  0  0  0  0  0  0  0  0  0  0
  -21.4450  -13.4370   22.1560 H   0  0  0  0  0  0  0  0  0  0  0  0
  -25.7400  -15.3720   20.1270 N   0  0  0  0  0  0  0  0  0  0  0  0
  -24.9920  -16.0450   20.2530 H   0  0  0  0  0  0  0  0  0  0  0  0
  -26.5900  -15.7840   19.7640 H   0  0  0  0  0  0  0  0  0  0  0  0
  -28.7780  -24.1590   19.8040 C   0  0  0  0  0  2  0  0  0  0  0  0
  -28.3790  -25.3250   20.7680 C   0  0  0  0  0  2  0  0  0  0  0  0
  -28.4260  -26.6530   20.1860 O   0  0  0  0  0  0  0  0  0  0  0  0
  -24.6200  -31.8780   23.2520 C   0  0  0  0  0  0  0  0  0  0  0  0
  -27.2600  -27.3970   20.2130 C   0  0  0  0  0  0  0  0  0  0  0  0
  -23.4140  -30.4740   21.6100 C   0  0  0  0  0  3  0  0  0  0  0  0
  -24.8660  -28.9220   20.1990 C   0  0  0  0  0  0  0  0  0  0  0  0
  -25.9370  -30.8300   21.4060 C   0  0  0  0  0  2  0  0  0  0  0  0
  -26.0270  -29.4480   20.7830 C   0  0  0  0  0  0  0  0  0  0  0  0
  -27.2290  -28.6970   20.7820 C   0  0  0  0  0  3  0  0  0  0  0  0
  -26.0800  -26.8900   19.6250 C   0  0  0  0  0  3  0  0  0  0  0  0
  -24.8900  -27.6440   19.6130 C   0  0  0  0  0  3  0  0  0  0  0  0
  -23.6240  -29.7830   20.2330 C   0  0  0  0  0  2  0  0  0  0  0  0
  -24.6770  -31.0790   22.1480 N   0  0  0  0  0  0  0  0  0  0  0  0
  -23.5380  -32.1480   23.7940 O   0  0  0  0  0  0  0  0  0  0  0  0
  -22.7590  -29.4600   22.5750 C   0  0  0  0  0  0  0  0  0  0  0  0
  -21.4350  -29.2750   22.4450 N   0  0  0  0  0  0  0  0  0  0  0  0
  -23.4390  -28.8440   23.4000 O   0  0  0  0  0  0  0  0  0  0  0  0
  -20.9450  -29.8200   21.7480 H   0  0  0  0  0  0  0  0  0  0  0  0
  -18.0650  -28.0570   22.9120 C   0  0  0  0  0  0  0  0  0  0  0  0
  -20.6160  -28.3400   23.2190 C   0  0  0  0  0  3  0  0  0  0  0  0
  -20.7420  -26.9040   22.6610 C   0  0  0  0  0  2  0  0  0  0  0  0
  -19.6580  -26.5600   21.6360 C   0  0  0  0  0  2  0  0  0  0  0  0
  -18.2640  -26.7010   22.2560 C   0  0  0  0  0  2  0  0  0  0  0  0
  -19.1700  -28.8340   23.3480 C   0  0  0  0  0  0  0  0  0  0  0  0
  -18.9320  -30.1030   23.9160 C   0  0  0  0  0  3  0  0  0  0  0  0
  -17.6190  -30.5930   24.0610 C   0  0  0  0  0  3  0  0  0  0  0  0
  -16.5280  -29.8150   23.6380 C   0  0  0  0  0  3  0  0  0  0  0  0
  -16.7530  -28.5480   23.0680 C   0  0  0  0  0  3  0  0  0  0  0  0
  -25.9040  -32.5090   23.8730 C   0  0  0  0  0  3  0  0  0  0  0  0
  -25.6020  -33.9090   24.1950 N   0  0  0  0  0  0  0  0  0  0  0  0
  -25.9370  -34.9580   23.4310 C   0  0  0  0  0  0  0  0  0  0  0  0
  -26.6050  -34.8480   22.3980 O   0  0  0  0  0  0  0  0  0  0  0  0
  -25.0140  -34.0690   25.0010 H   0  0  0  0  0  0  0  0  0  0  0  0
  -24.2080  -36.7490   23.0670 C   0  0  0  0  0  1  0  0  0  0  0  0
  -25.4500  -36.3500   23.8800 C   0  0  0  0  0  3  0  0  0  0  0  0
  -27.5880  -37.2350   24.6980 C   0  0  0  0  0  1  0  0  0  0  0  0
  -26.4830  -37.4020   23.7580 N   0  0  0  0  0  0  0  0  0  0  0  0
  -26.0780  -38.3230   23.9050 H   0  0  0  0  0  0  0  0  0  0  0  0
  -26.4220  -31.7380   25.1500 C   0  0  1  0  0  0  0  0  0  0  0  0
  -25.3310  -31.5050   26.2180 C   0  0  0  0  0  1  0  0  0  0  0  0
  -26.9980  -30.3600   24.7550 C   0  0  0  0  0  1  0  0  0  0  0  0
  -27.5800  -32.5280   25.8060 C   0  0  0  0  0  1  0  0  0  0  0  0
  1  2  1  0
  1  3  1  0
  4  5  1  0
  4  1  1  0
  5  6  2  0
  6  9  1  0
  9  8  1  6
  9  7  1  0
 10 19  1  0
 10  9  1  0
 11 19  1  0
 12 17  1  0
 13 14  1  0
 13 12  1  0
 15 14  1  0
 15 24  1  0
 15 16  1  0
 17 11  1  0
 17 16  1  0
 18 11  2  0
 19 20  1  0
 21 22  2  0
 22 41  1  0
 23 22  1  0
 23 26  1  0
 24 21  1  0
 24 25  1  0
 25 23  2  0
 26 27  1  0
 27 28  2  0
 29 32  1  0
 29 28  1  0
 30 29  2  0
 31 30  1  0
 31 26  2  0
 32 33  1  0
 33 34  1  0
 34 35  2  0
 36 35  1  0
 36 40  1  0
 37 36  2  0
 38 33  2  0
 38 37  1  0
 39 38  1  0
 41 42  1  0
 42 45  1  0
 42 44  1  0
 43 41  2  0
 46 47  1  0
 46 21  1  0
 48 46  1  0
 49  1  1  0
 49 50  1  0
 51 53  1  0
 51 50  1  0
 52 63  2  0
 53 58  1  0
 54 62  1  0
 54 64  1  0
 55 61  1  0
 55 57  1  0
 56 62  1  0
 57 56  1  0
 58 57  2  0
 59 53  2  0
 60 59  1  0
 60 55  2  0
 61 54  1  0
 62 52  1  0
 64 66  2  0
 65 64  1  0
 67 65  1  0
 68 77  2  0
 68 73  1  0
 69 65  1  0
 69 73  1  0
 70 69  1  0
 71 72  1  0
 71 70  1  0
 72 68  1  0
 73 74  2  0
 74 75  1  0
 76 75  2  0
 77 76  1  0
 78 52  1  0
 78 79  1  0
 78 88  1  0
 79 82  1  0
 80 84  1  0
 80 79  1  0
 81 80  2  0
 84 83  1  0
 86 84  1  0
 86 87  1  0
 86 85  1  0
 88 91  1  1
 88 89  1  0
 90 88  1  0
M  ISO  4  11 100  19 100  50 101  51 101
M  END
>  <TORSDO>  (32) 
F 23

>  <SCORE>  (32) 
-12.471

>  <name>  (32) 
31

>  <ligand_id>  (32) 
31

>  <original_smiles>  (32) 
[H]c1c([H])c([H])c2c(c1[H])C([H])([H])C([H])([H])C([H])([H])C2([H])N([H])C(=O)C1([H])N(C(=O)C([H])(N([H])C(=O)C([H])(N([H])C([H])([H])[H])C([H])([H])[H])C(C([H])([H])[H])(C([H])([H])[H])C([H])([H])[H])C([H])([H])c2c([H])c(OC([H])([H])C([H])([H])[N+]([H])([H])C([H])([H])C([H])([H])C([H])([H])C(C([H])([H])[H])(C([H])([H])[H])C([H])([H])N([H])C(=O)N3C([H])([H])C([H])([H])C([H])([H])C([H])(n4nc(-c5c([H])c([H])c(Oc6c([H])c([H])c(F)c([H])c6F)c([H])c5[H])c(C(=O)N([H])[H])c4N([H])[H])C3([H])[H])c([H])c([H])c2C1([H])[H]

>  <smiles>  (32) 
[H]c1c([H])c([H])c2c(c1[H])C([H])([H])C([H])([H])C([H])([H])C2([H])N([H])C(=O)C1([H])N(C(=O)C([H])(N([H])C(=O)C([H])(N([H])C([H])([H])[H])C([H])([H])[H])C(C([H])([H])[H])(C([H])([H])[H])C([H])([H])[H])C([H])([H])c2c([H])c(OC([H])([H])C([H])([H])[N+]([H])([H])C([H])([H])C([H])([H])C([H])([H])C(C([H])([H])[H])(C([H])([H])[H])C([H])([H])N([H])C(=O)N3C([H])([H])C([H])([H])C([H])([H])C([H])(n4nc(-c5c([H])c([H])c(Oc6c([H])c([H])c(F)c([H])c6F)c([H])c5[H])c(C(=O)N([H])[H])c4N([H])[H])C3([H])[H])c([H])c([H])c2C1([H])[H]

$$$$
32:0:0
     RDKit          3D

 91 99  0  0  1  0  0  0  0  0999 V2000
  -29.3270  -22.8870   18.8940 C   0  0  0  0  0  2  0  0  0  0  0  0
  -29.5380  -21.3190   18.9200 C   0  0  0  0  0  2  0  0  0  0  0  0
  -28.6800  -22.0170   21.0090 C   0  0  0  0  0  2  0  0  0  0  0  0
  -29.0090  -23.4410   20.3100 C   0  0  0  0  0  3  0  0  0  0  0  0
  -29.5300  -20.7890   20.3760 C   0  0  0  0  0  3  0  0  0  0  0  0
  -27.9690  -24.7440   20.3900 C   0  0  0  0  0  2  0  0  0  0  0  0
  -28.2690  -26.2460   20.2050 O   0  0  0  0  0  0  0  0  0  0  0  0
  -24.6350  -31.8690   23.2400 C   0  0  0  0  0  0  0  0  0  0  0  0
  -27.1970  -27.2010   20.1730 C   0  0  0  0  0  0  0  0  0  0  0  0
  -23.4200  -30.4780   21.6070 C   0  0  0  0  0  3  0  0  0  0  0  0
  -24.8590  -28.9160   20.1690 C   0  0  0  0  0  0  0  0  0  0  0  0
  -25.9720  -30.7560   21.4210 C   0  0  0  0  0  2  0  0  0  0  0  0
  -26.0420  -29.3690   20.7670 C   0  0  0  0  0  0  0  0  0  0  0  0
  -27.2130  -28.5280   20.7520 C   0  0  0  0  0  3  0  0  0  0  0  0
  -25.9890  -26.8450   19.5320 C   0  0  0  0  0  3  0  0  0  0  0  0
  -24.8430  -27.6640   19.5380 C   0  0  0  0  0  3  0  0  0  0  0  0
  -23.6300  -29.8050   20.2250 C   0  0  0  0  0  2  0  0  0  0  0  0
  -24.6950  -31.0550   22.1440 N   0  0  0  0  0  0  0  0  0  0  0  0
  -23.5520  -32.1510   23.7770 O   0  0  0  0  0  0  0  0  0  0  0  0
  -22.7530  -29.4650   22.5700 C   0  0  0  0  0  0  0  0  0  0  0  0
  -21.4250  -29.2900   22.4490 N   0  0  0  0  0  0  0  0  0  0  0  0
  -23.4320  -28.8390   23.3890 O   0  0  0  0  0  0  0  0  0  0  0  0
  -20.9350  -29.8470   21.7640 H   0  0  0  0  0  0  0  0  0  0  0  0
  -18.0490  -28.0790   22.9610 C   0  0  0  0  0  0  0  0  0  0  0  0
  -20.6090  -28.3510   23.2230 C   0  0  0  0  0  3  0  0  0  0  0  0
  -20.7140  -26.9170   22.6500 C   0  0  0  0  0  2  0  0  0  0  0  0
  -19.6110  -26.5890   21.6390 C   0  0  0  0  0  2  0  0  0  0  0  0
  -18.2300  -26.7300   22.2860 C   0  0  0  0  0  2  0  0  0  0  0  0
  -19.1670  -28.8470   23.3860 C   0  0  0  0  0  0  0  0  0  0  0  0
  -18.9430  -30.1090   23.9770 C   0  0  0  0  0  3  0  0  0  0  0  0
  -17.6370  -30.6040   24.1470 C   0  0  0  0  0  3  0  0  0  0  0  0
  -16.5340  -29.8340   23.7370 C   0  0  0  0  0  3  0  0  0  0  0  0
  -16.7420  -28.5730   23.1500 C   0  0  0  0  0  3  0  0  0  0  0  0
  -25.9190  -32.5020   23.8580 C   0  0  0  0  0  3  0  0  0  0  0  0
  -25.6090  -33.9000   24.1970 N   0  0  0  0  0  0  0  0  0  0  0  0
  -25.9260  -34.9570   23.4400 C   0  0  0  0  0  0  0  0  0  0  0  0
  -26.5780  -34.8590   22.3960 O   0  0  0  0  0  0  0  0  0  0  0  0
  -25.0260  -34.0490   25.0080 H   0  0  0  0  0  0  0  0  0  0  0  0
  -24.1860  -36.7500   23.1320 C   0  0  0  0  0  1  0  0  0  0  0  0
  -25.4460  -36.3440   23.9130 C   0  0  0  0  0  3  0  0  0  0  0  0
  -27.5960  -37.2320   24.7010 C   0  0  0  0  0  1  0  0  0  0  0  0
  -26.4730  -37.4010   23.7810 N   0  0  0  0  0  0  0  0  0  0  0  0
  -26.0670  -38.3180   23.9400 H   0  0  0  0  0  0  0  0  0  0  0  0
  -26.4390  -31.7290   25.1320 C   0  0  1  0  0  0  0  0  0  0  0  0
  -25.3500  -31.4910   26.2050 C   0  0  0  0  0  1  0  0  0  0  0  0
  -27.0200  -30.3510   24.7400 C   0  0  0  0  0  1  0  0  0  0  0  0
  -27.5920  -32.5220   25.7890 C   0  0  0  0  0  1  0  0  0  0  0  0
  -29.1750  -19.1740   20.6840 C   0  0  0  0  0  3  0  0  0  0  0  0
  -27.7520  -18.9560   20.3760 N   0  0  0  0  0  4  0  0  0  0  0  0
  -27.5880  -18.9530   19.3860 H   0  0  0  0  0  0  0  0  0  0  0  0
  -27.1980  -19.6870   20.7850 H   0  0  0  0  0  0  0  0  0  0  0  0
  -27.4330  -18.0860   20.7640 H   0  0  0  0  0  0  0  0  0  0  0  0
  -30.1170  -17.7860   18.6620 C   0  0  0  0  0  1  0  0  0  0  0  0
  -30.0590  -17.8330   20.2010 C   0  0  0  0  0  3  0  0  0  0  0  0
  -29.7390  -16.2920   20.7780 C   0  0  0  0  0  2  0  0  0  0  0  0
  -30.5430  -14.9060   20.3910 C   0  0  0  0  0  0  0  0  0  0  0  0
  -30.3940  -12.5910   19.3810 C   0  0  0  0  0  2  0  0  0  0  0  0
  -29.4630  -12.6400   18.1480 C   0  0  0  0  0  2  0  0  0  0  0  0
  -27.9910  -12.4500   18.5640 C   0  0  0  0  0  2  0  0  0  0  0  0
  -27.6040  -13.3320   19.7800 C   0  0  0  0  0  3  0  0  0  0  0  0
  -28.6570  -13.2670   20.9060 C   0  0  0  0  0  2  0  0  0  0  0  0
  -29.9520  -13.6490   20.3290 N   0  0  0  0  0  0  0  0  0  0  0  0
  -31.7260  -14.9890   20.0400 O   0  0  0  0  0  0  0  0  0  0  0  0
  -25.2170  -13.9230   20.4960 C   0  0  0  0  0  0  0  0  0  0  0  0
  -24.1470  -13.1540   20.8620 C   0  0  0  0  0  0  0  0  0  0  0  0
  -24.6070  -11.8010   20.8410 C   0  0  0  0  0  0  0  0  0  0  0  0
  -26.2590  -13.0410   20.2670 N   0  0  0  0  0  0  0  0  0  0  0  0
  -25.9010  -11.7600   20.5400 N   0  0  0  0  0  0  0  0  0  0  0  0
  -23.8760  -10.5420   21.0300 C   0  0  0  0  0  0  0  0  0  0  0  0
  -24.2970   -9.5760   21.9710 C   0  0  0  0  0  3  0  0  0  0  0  0
  -23.5630   -8.3830   22.1490 C   0  0  0  0  0  3  0  0  0  0  0  0
  -22.3960   -8.1470   21.3860 C   0  0  0  0  0  0  0  0  0  0  0  0
  -21.9940   -9.1020   20.4350 C   0  0  0  0  0  3  0  0  0  0  0  0
  -22.7270  -10.2860   20.2540 C   0  0  0  0  0  3  0  0  0  0  0  0
  -21.6350   -7.0060   21.4720 O   0  0  0  0  0  0  0  0  0  0  0  0
  -21.5740   -6.2680   22.6260 C   0  0  0  0  0  0  0  0  0  0  0  0
  -21.1370   -6.8300   23.8470 C   0  0  0  0  0  3  0  0  0  0  0  0
  -21.0210   -6.0190   24.9930 C   0  0  0  0  0  3  0  0  0  0  0  0
  -21.3330   -4.6480   24.9220 C   0  0  0  0  0  0  0  0  0  0  0  0
  -21.7650   -4.0860   23.7070 C   0  0  0  0  0  3  0  0  0  0  0  0
  -21.8810   -4.8940   22.5630 C   0  0  0  0  0  0  0  0  0  0  0  0
  -22.2760   -4.3430   21.3890 F   0  0  0  0  0  0  0  0  0  0  0  0
  -21.2140   -3.8680   26.0200 F   0  0  0  0  0  0  0  0  0  0  0  0
  -22.7480  -13.6360   21.1170 C   0  0  0  0  0  0  0  0  0  0  0  0
  -22.0110  -12.9480   21.9800 N   0  0  0  0  0  0  0  0  0  0  0  0
  -22.3190  -14.6610   20.5860 O   0  0  0  0  0  0  0  0  0  0  0  0
  -22.3710  -12.1200   22.4290 H   0  0  0  0  0  0  0  0  0  0  0  0
  -21.0710  -13.2550   22.1940 H   0  0  0  0  0  0  0  0  0  0  0  0
  -25.3830  -15.2930   20.3060 N   0  0  0  0  0  0  0  0  0  0  0  0
  -24.5930  -15.9260   20.3430 H   0  0  0  0  0  0  0  0  0  0  0  0
  -26.1900  -15.6870   19.8440 H   0  0  0  0  0  0  0  0  0  0  0  0
  1  2  1  0
  1  4  1  0
  2  5  1  0
  4  6  1  0
  4  3  1  0
  5 48  1  0
  5  3  1  0
  7  6  1  0
  8 19  2  0
  9  7  1  0
  9 14  1  0
 10 18  1  0
 10 20  1  0
 11 17  1  0
 11 13  1  0
 12 18  1  0
 13 12  1  0
 14 13  2  0
 15 16  1  0
 15  9  2  0
 16 11  2  0
 17 10  1  0
 18  8  1  0
 20 22  2  0
 21 20  1  0
 23 21  1  0
 24 33  2  0
 24 29  1  0
 25 21  1  0
 25 29  1  0
 26 25  1  0
 27 28  1  0
 27 26  1  0
 28 24  1  0
 29 30  2  0
 30 31  1  0
 32 31  2  0
 33 32  1  0
 34  8  1  0
 34 35  1  0
 34 44  1  0
 35 38  1  0
 36 40  1  0
 36 35  1  0
 37 36  2  0
 40 39  1  0
 42 40  1  0
 42 43  1  0
 42 41  1  0
 44 47  1  1
 44 45  1  0
 46 44  1  0
 48 49  1  0
 49 52  1  0
 49 51  1  0
 50 49  1  0
 54 53  1  0
 54 48  1  0
 54 55  1  0
 56 55  1  0
 57 62  1  0
 58 59  1  0
 58 57  1  0
 60 59  1  0
 60 67  1  0
 60 61  1  0
 62 56  1  0
 62 61  1  0
 63 56  2  0
 64 65  2  0
 65 84  1  0
 66 65  1  0
 66 69  1  0
 67 64  1  0
 67 68  1  0
 68 66  2  0
 69 70  1  0
 70 71  2  0
 72 75  1  0
 72 71  1  0
 73 72  2  0
 74 73  1  0
 74 69  2  0
 75 76  1  0
 76 77  1  0
 77 78  2  0
 79 78  1  0
 79 83  1  0
 80 79  2  0
 81 76  2  0
 81 80  1  0
 82 81  1  0
 84 85  1  0
 85 88  1  0
 85 87  1  0
 86 84  2  0
 89 90  1  0
 89 64  1  0
 91 89  1  0
M  ISO  4   6 101   7 101  55 100  56 100
M  END
>  <TORSDO>  (33) 
F 21

>  <SCORE>  (33) 
-13.747

>  <name>  (33) 
32

>  <ligand_id>  (33) 
32

>  <original_smiles>  (33) 
[H]c1c([H])c([H])c2c(c1[H])C([H])([H])C([H])([H])C([H])([H])C2([H])N([H])C(=O)C1([H])N(C(=O)C([H])(N([H])C(=O)C([H])(N([H])C([H])([H])[H])C([H])([H])[H])C(C([H])([H])[H])(C([H])([H])[H])C([H])([H])[H])C([H])([H])c2c([H])c(OC([H])([H])C3([H])C([H])([H])C([H])([H])C([H])(C([H])(C([H])(C([H])([H])[H])C([H])([H])C(=O)N4C([H])([H])C([H])([H])C([H])([H])C([H])(n5nc(-c6c([H])c([H])c(Oc7c([H])c([H])c(F)c([H])c7F)c([H])c6[H])c(C(=O)N([H])[H])c5N([H])[H])C4([H])[H])[N+]([H])([H])[H])C3([H])[H])c([H])c([H])c2C1([H])[H]

>  <smiles>  (33) 
[H]c1c([H])c([H])c2c(c1[H])C([H])([H])C([H])([H])C([H])([H])C2([H])N([H])C(=O)C1([H])N(C(=O)C([H])(N([H])C(=O)C([H])(N([H])C([H])([H])[H])C([H])([H])[H])C(C([H])([H])[H])(C([H])([H])[H])C([H])([H])[H])C([H])([H])c2c([H])c(OC([H])([H])C3([H])C([H])([H])C([H])([H])C([H])(C([H])(C([H])(C([H])([H])[H])C([H])([H])C(=O)N4C([H])([H])C([H])([H])C([H])([H])C([H])(n5nc(-c6c([H])c([H])c(Oc7c([H])c([H])c(F)c([H])c7F)c([H])c6[H])c(C(=O)N([H])[H])c5N([H])[H])C4([H])[H])[N+]([H])([H])[H])C3([H])[H])c([H])c([H])c2C1([H])[H]

$$$$
33:0:0
     RDKit          3D

 89 96  0  0  1  0  0  0  0  0999 V2000
  -30.3270  -15.9410   20.3070 C   0  0  0  0  0  0  0  0  0  0  0  0
  -30.4320  -13.3970   19.3970 C   0  0  0  0  0  2  0  0  0  0  0  0
  -29.5430  -12.9740   18.1900 C   0  0  0  0  0  2  0  0  0  0  0  0
  -28.1370  -12.5720   18.6560 C   0  0  0  0  0  2  0  0  0  0  0  0
  -27.6210  -13.5390   19.7430 C   0  0  0  0  0  3  0  0  0  0  0  0
  -28.6560  -13.8730   20.8450 C   0  0  0  0  0  2  0  0  0  0  0  0
  -29.7940  -14.5640   20.1840 N   0  0  0  0  0  0  0  0  0  0  0  0
  -31.5590  -15.8290   20.1330 O   0  0  0  0  0  0  0  0  0  0  0  0
  -30.1030  -18.7370   21.2470 C   0  0  0  0  0  3  0  0  0  0  0  0
  -29.0400  -19.9560   20.6590 C   0  0  0  0  0  2  0  0  0  0  0  0
  -29.1630  -18.6200   19.5670 C   0  0  1  0  0  0  0  0  0  0  0  0
  -29.6430  -17.3770   20.5020 N   0  0  0  0  0  0  0  0  0  0  0  0
  -25.2640  -14.0090   20.5400 C   0  0  0  0  0  0  0  0  0  0  0  0
  -24.2190  -13.2050   20.8960 C   0  0  0  0  0  0  0  0  0  0  0  0
  -24.7120  -11.8650   20.8370 C   0  0  0  0  0  0  0  0  0  0  0  0
  -26.3190  -13.1610   20.2710 N   0  0  0  0  0  0  0  0  0  0  0  0
  -26.0030  -11.8610   20.5170 N   0  0  0  0  0  0  0  0  0  0  0  0
  -24.0030  -10.5880   21.0090 C   0  0  0  0  0  0  0  0  0  0  0  0
  -24.4330   -9.6200   21.9430 C   0  0  0  0  0  3  0  0  0  0  0  0
  -23.7170   -8.4130   22.1050 C   0  0  0  0  0  3  0  0  0  0  0  0
  -22.5590   -8.1650   21.3320 C   0  0  0  0  0  0  0  0  0  0  0  0
  -22.1480   -9.1210   20.3870 C   0  0  0  0  0  3  0  0  0  0  0  0
  -22.8640  -10.3190   20.2220 C   0  0  0  0  0  3  0  0  0  0  0  0
  -21.8170   -7.0090   21.4030 O   0  0  0  0  0  0  0  0  0  0  0  0
  -21.7390   -6.2730   22.5580 C   0  0  0  0  0  0  0  0  0  0  0  0
  -21.2260   -6.8190   23.7550 C   0  0  0  0  0  3  0  0  0  0  0  0
  -21.0980   -6.0090   24.9000 C   0  0  0  0  0  3  0  0  0  0  0  0
  -21.4720   -4.6520   24.8490 C   0  0  0  0  0  0  0  0  0  0  0  0
  -21.9780   -4.1060   23.6570 C   0  0  0  0  0  3  0  0  0  0  0  0
  -22.1070   -4.9140   22.5130 C   0  0  0  0  0  0  0  0  0  0  0  0
  -22.5750   -4.3760   21.3610 F   0  0  0  0  0  0  0  0  0  0  0  0
  -21.3420   -3.8710   25.9470 F   0  0  0  0  0  0  0  0  0  0  0  0
  -22.8160  -13.6560   21.1760 C   0  0  0  0  0  0  0  0  0  0  0  0
  -22.1030  -12.9420   22.0390 N   0  0  0  0  0  0  0  0  0  0  0  0
  -22.3630  -14.6810   20.6660 O   0  0  0  0  0  0  0  0  0  0  0  0
  -22.4860  -12.1130   22.4700 H   0  0  0  0  0  0  0  0  0  0  0  0
  -21.1630  -13.2260   22.2700 H   0  0  0  0  0  0  0  0  0  0  0  0
  -25.4020  -15.3860   20.3930 N   0  0  0  0  0  0  0  0  0  0  0  0
  -24.6310  -16.0260   20.5510 H   0  0  0  0  0  0  0  0  0  0  0  0
  -26.2590  -15.8500   20.1220 H   0  0  0  0  0  0  0  0  0  0  0  0
  -27.9000  -18.2010   18.8060 C   0  0  0  0  0  2  0  0  0  0  0  0
  -27.3490  -19.3070   17.8960 C   0  0  0  0  0  0  0  0  0  0  0  0
  -26.0670  -19.6330   18.0180 N   0  0  0  0  0  0  0  0  0  0  0  0
  -28.0690  -19.8700   17.0730 O   0  0  0  0  0  0  0  0  0  0  0  0
  -25.4770  -19.1660   18.6940 H   0  0  0  0  0  0  0  0  0  0  0  0
  -25.6650  -20.3510   17.4320 H   0  0  0  0  0  0  0  0  0  0  0  0
  -29.1500  -21.9710   20.5660 C   0  0  0  0  0 15  0  0  0  0  0  0
  -28.1210  -23.6950   20.5890 C   0  0  0  0  0  1  0  0  0  0  0  0
  -28.2680  -25.5070   20.6180 O   0  0  0  0  0  0  0  0  0  0  0  0
  -24.7290  -31.9940   23.3320 C   0  0  0  0  0  0  0  0  0  0  0  0
  -27.3060  -26.7620   20.5330 C   0  0  0  0  0  0  0  0  0  0  0  0
  -23.5820  -30.5650   21.6950 C   0  0  0  0  0  3  0  0  0  0  0  0
  -25.0600  -28.8630   20.3640 C   0  0  0  0  0  0  0  0  0  0  0  0
  -26.1680  -30.6680   21.6490 C   0  0  0  0  0  2  0  0  0  0  0  0
  -26.2410  -29.2110   21.0270 C   0  0  0  0  0  0  0  0  0  0  0  0
  -27.3470  -28.1920   21.0720 C   0  0  0  0  0  3  0  0  0  0  0  0
  -26.0890  -26.6470   19.8080 C   0  0  0  0  0  3  0  0  0  0  0  0
  -25.0280  -27.6080   19.7300 C   0  0  0  0  0  3  0  0  0  0  0  0
  -23.8610  -29.8310   20.3490 C   0  0  0  0  0  2  0  0  0  0  0  0
  -24.8500  -31.1130   22.2780 N   0  0  0  0  0  0  0  0  0  0  0  0
  -23.6210  -32.3110   23.8010 O   0  0  0  0  0  0  0  0  0  0  0  0
  -22.8280  -29.6170   22.6690 C   0  0  0  0  0  0  0  0  0  0  0  0
  -21.5000  -29.4610   22.5050 N   0  0  0  0  0  0  0  0  0  0  0  0
  -23.4540  -29.0190   23.5470 O   0  0  0  0  0  0  0  0  0  0  0  0
  -21.0430  -29.9940   21.7770 H   0  0  0  0  0  0  0  0  0  0  0  0
  -18.0910  -28.2840   22.9730 C   0  0  0  0  0  0  0  0  0  0  0  0
  -20.6490  -28.5440   23.2750 C   0  0  0  0  0  3  0  0  0  0  0  0
  -20.7500  -27.1010   22.7260 C   0  0  0  0  0  2  0  0  0  0  0  0
  -19.6640  -26.7700   21.6960 C   0  0  0  0  0  2  0  0  0  0  0  0
  -18.2730  -26.9290   22.3130 C   0  0  0  0  0  2  0  0  0  0  0  0
  -19.2050  -29.0500   23.4100 C   0  0  0  0  0  0  0  0  0  0  0  0
  -18.9780  -30.3150   23.9930 C   0  0  0  0  0  3  0  0  0  0  0  0
  -17.6710  -30.8170   24.1390 C   0  0  0  0  0  3  0  0  0  0  0  0
  -16.5720  -30.0520   23.7140 C   0  0  0  0  0  3  0  0  0  0  0  0
  -16.7830  -28.7870   23.1380 C   0  0  0  0  0  3  0  0  0  0  0  0
  -25.9720  -32.6590   23.9960 C   0  0  0  0  0  3  0  0  0  0  0  0
  -26.4190  -31.9380   25.3290 C   0  0  1  0  0  0  0  0  0  0  0  0
  -25.2710  -31.7410   26.3480 C   0  0  0  0  0  1  0  0  0  0  0  0
  -27.0190  -30.5460   25.0350 C   0  0  0  0  0  1  0  0  0  0  0  0
  -27.5340  -32.7580   26.0200 C   0  0  0  0  0  1  0  0  0  0  0  0
  -25.6450  -34.0720   24.2820 N   0  0  0  0  0  0  0  0  0  0  0  0
  -25.9760  -35.1150   23.5100 C   0  0  0  0  0  0  0  0  0  0  0  0
  -26.6420  -34.9910   22.4810 O   0  0  0  0  0  0  0  0  0  0  0  0
  -25.0480  -34.2400   25.0790 H   0  0  0  0  0  0  0  0  0  0  0  0
  -24.2260  -36.8990   23.1670 C   0  0  0  0  0  1  0  0  0  0  0  0
  -25.4970  -36.5180   23.9440 C   0  0  0  0  0  3  0  0  0  0  0  0
  -27.6440  -37.4560   24.6860 C   0  0  0  0  0  1  0  0  0  0  0  0
  -26.5180  -37.5750   23.7630 N   0  0  0  0  0  0  0  0  0  0  0  0
  -26.1070  -38.4970   23.8820 H   0  0  0  0  0  0  0  0  0  0  0  0
  1 12  1  0
  2  7  1  0
  3  4  1  0
  3  2  1  0
  5  4  1  0
  5 16  1  0
  5  6  1  0
  7  1  1  0
  7  6  1  0
  8  1  2  0
  9 10  1  0
 11 41  1  6
 11 12  1  0
 11 10  1  0
 11  9  1  0
 12  9  1  0
 13 14  2  0
 14 33  1  0
 15 14  1  0
 15 18  1  0
 16 17  1  0
 16 13  1  0
 17 15  2  0
 18 19  1  0
 19 20  2  0
 21 24  1  0
 21 20  1  0
 22 21  2  0
 23 22  1  0
 23 18  2  0
 24 25  1  0
 25 26  1  0
 26 27  2  0
 28 27  1  0
 28 32  1  0
 29 28  2  0
 30 25  2  0
 30 29  1  0
 31 30  1  0
 33 34  1  0
 34 37  1  0
 34 36  1  0
 35 33  2  0
 38 13  1  0
 38 39  1  0
 40 38  1  0
 42 43  1  0
 42 41  1  0
 43 45  1  0
 44 42  2  0
 46 43  1  0
 48 49  1  0
 50 61  2  0
 51 49  1  0
 51 56  1  0
 52 60  1  0
 52 62  1  0
 53 55  1  0
 54 60  1  0
 55 56  2  0
 55 54  1  0
 57 51  2  0
 58 57  1  0
 58 53  2  0
 59 53  1  0
 59 52  1  0
 60 50  1  0
 62 64  2  0
 63 62  1  0
 65 63  1  0
 66 75  2  0
 66 71  1  0
 67 63  1  0
 67 71  1  0
 68 67  1  0
 69 70  1  0
 69 68  1  0
 70 66  1  0
 71 72  2  0
 72 73  1  0
 74 73  2  0
 75 74  1  0
 76 50  1  0
 76 81  1  0
 76 77  1  0
 77 80  1  1
 77 78  1  0
 79 77  1  0
 81 84  1  0
 82 86  1  0
 82 81  1  0
 83 82  2  0
 86 85  1  0
 88 89  1  0
 88 86  1  0
 88 87  1  0
M  ISO  4   1 100  12 100  48 101  49 101
M  END
>  <TORSDO>  (34) 
F 19

>  <SCORE>  (34) 
-15.102

>  <name>  (34) 
33

>  <ligand_id>  (34) 
33

>  <original_smiles>  (34) 
[H]c1c([H])c([H])c2c(c1[H])C([H])([H])C([H])([H])C([H])([H])C2([H])N([H])C(=O)C1([H])N(C(=O)C([H])(N([H])C(=O)C([H])(N([H])C([H])([H])[H])C([H])([H])[H])C(C([H])([H])[H])(C([H])([H])[H])C([H])([H])[H])C([H])([H])c2c([H])c(OC([H])([H])C([H])([H])C3([H])C([H])([H])N(C(=O)N4C([H])([H])C([H])([H])C([H])([H])C([H])(n5nc(-c6c([H])c([H])c(Oc7c([H])c([H])c(F)c([H])c7F)c([H])c6[H])c(C(=O)N([H])[H])c5N([H])[H])C4([H])[H])C3([H])C([H])([H])C(=O)N([H])[H])c([H])c([H])c2C1([H])[H]

>  <smiles>  (34) 
[H]c1c([H])c([H])c2c(c1[H])C([H])([H])C([H])([H])C([H])([H])C2([H])N([H])C(=O)C1([H])N(C(=O)C([H])(N([H])C(=O)C([H])(N([H])C([H])([H])[H])C([H])([H])[H])C(C([H])([H])[H])(C([H])([H])[H])C([H])([H])[H])C([H])([H])c2c([H])c(OC([H])([H])C([H])([H])C3([H])C([H])([H])N(C(=O)N4C([H])([H])C([H])([H])C([H])([H])C([H])(n5nc(-c6c([H])c([H])c(Oc7c([H])c([H])c(F)c([H])c7F)c([H])c6[H])c(C(=O)N([H])[H])c5N([H])[H])C4([H])[H])C3([H])C([H])([H])C(=O)N([H])[H])c([H])c([H])c2C1([H])[H]

$$$$
34:0:0
     RDKit          3D

 94102  0  0  1  0  0  0  0  0999 V2000
  -28.7570  -20.1710   19.0780 C   0  0  0  0  0  2  0  0  0  0  0  0
  -29.3410  -21.7330   21.4470 C   0  0  0  0  0  2  0  0  0  0  0  0
  -28.0210  -21.5230   19.3290 C   0  0  0  0  0  3  0  0  0  0  0  0
  -28.8520  -22.5360   20.1910 C   0  0  0  0  0  3  0  0  0  0  0  0
  -29.2610  -19.4430   20.3520 C   0  0  0  0  0  3  0  0  0  0  0  0
  -30.0610  -20.4440   21.1240 N   0  0  0  0  0  4  0  0  0  0  0  0
  -30.3460  -20.0270   21.9970 H   0  0  0  0  0  0  0  0  0  0  0  0
  -30.9040  -20.6640   20.6170 H   0  0  0  0  0  0  0  0  0  0  0  0
  -27.5880  -22.1050   17.9890 C   0  0  0  0  0  3  0  0  0  0  0  0
  -26.4900  -21.8250   17.4270 N   0  0  0  0  0  0  0  0  0  0  0  0
  -25.9380  -21.1740   17.9770 H   0  0  0  0  0  0  0  0  0  0  0  0
  -28.0510  -23.9080   20.4460 C   0  0  0  0  0  2  0  0  0  0  0  0
  -28.6500  -25.0860   21.3060 C   0  0  0  0  0  2  0  0  0  0  0  0
  -28.6360  -26.4570   20.7790 O   0  0  0  0  0  0  0  0  0  0  0  0
  -24.6450  -31.8730   23.3560 C   0  0  0  0  0  0  0  0  0  0  0  0
  -27.4620  -27.2050   20.7230 C   0  0  0  0  0  0  0  0  0  0  0  0
  -23.5460  -30.3810   21.7200 C   0  0  0  0  0  3  0  0  0  0  0  0
  -25.0840  -28.7570   20.4840 C   0  0  0  0  0  0  0  0  0  0  0  0
  -26.0850  -30.7160   21.6690 C   0  0  0  0  0  2  0  0  0  0  0  0
  -26.2090  -29.3030   21.1140 C   0  0  0  0  0  0  0  0  0  0  0  0
  -27.4020  -28.5390   21.2170 C   0  0  0  0  0  3  0  0  0  0  0  0
  -26.3160  -26.6860   20.0860 C   0  0  0  0  0  3  0  0  0  0  0  0
  -25.1370  -27.4500   19.9640 C   0  0  0  0  0  3  0  0  0  0  0  0
  -23.8440  -29.6240   20.3990 C   0  0  0  0  0  2  0  0  0  0  0  0
  -24.7740  -31.0110   22.3060 N   0  0  0  0  0  0  0  0  0  0  0  0
  -23.5320  -32.1730   23.8090 O   0  0  0  0  0  0  0  0  0  0  0  0
  -22.8280  -29.4170   22.6950 C   0  0  0  0  0  0  0  0  0  0  0  0
  -21.5160  -29.2170   22.4850 N   0  0  0  0  0  0  0  0  0  0  0  0
  -23.4540  -28.8480   23.5920 O   0  0  0  0  0  0  0  0  0  0  0  0
  -21.0740  -29.7260   21.7330 H   0  0  0  0  0  0  0  0  0  0  0  0
  -18.1160  -28.0360   22.8310 C   0  0  0  0  0  0  0  0  0  0  0  0
  -20.6510  -28.3180   23.2500 C   0  0  0  0  0  3  0  0  0  0  0  0
  -20.7910  -26.8590   22.7560 C   0  0  0  0  0  2  0  0  0  0  0  0
  -19.7560  -26.4810   21.6930 C   0  0  0  0  0  2  0  0  0  0  0  0
  -18.3350  -26.6540   22.2390 C   0  0  0  0  0  2  0  0  0  0  0  0
  -19.2050  -28.8230   23.2910 C   0  0  0  0  0  0  0  0  0  0  0  0
  -18.9490  -30.1150   23.8000 C   0  0  0  0  0  3  0  0  0  0  0  0
  -17.6370  -30.6200   23.8570 C   0  0  0  0  0  3  0  0  0  0  0  0
  -16.5610  -29.8300   23.4140 C   0  0  0  0  0  3  0  0  0  0  0  0
  -16.8010  -28.5400   22.9070 C   0  0  0  0  0  3  0  0  0  0  0  0
  -25.8880  -32.5410   24.0230 C   0  0  0  0  0  3  0  0  0  0  0  0
  -25.5460  -33.9440   24.2940 N   0  0  0  0  0  0  0  0  0  0  0  0
  -25.8810  -34.9760   23.5080 C   0  0  0  0  0  0  0  0  0  0  0  0
  -26.5820  -34.8480   22.4990 O   0  0  0  0  0  0  0  0  0  0  0  0
  -24.9280  -34.1160   25.0720 H   0  0  0  0  0  0  0  0  0  0  0  0
  -24.1270  -36.7190   23.0510 C   0  0  0  0  0  1  0  0  0  0  0  0
  -25.3580  -36.3700   23.9010 C   0  0  0  0  0  3  0  0  0  0  0  0
  -27.4480  -37.3390   24.7520 C   0  0  0  0  0  1  0  0  0  0  0  0
  -26.3720  -37.4390   23.7690 N   0  0  0  0  0  0  0  0  0  0  0  0
  -25.9440  -38.3560   23.8590 H   0  0  0  0  0  0  0  0  0  0  0  0
  -26.3490  -31.8160   25.3460 C   0  0  1  0  0  0  0  0  0  0  0  0
  -25.2030  -31.5780   26.3570 C   0  0  0  0  0  1  0  0  0  0  0  0
  -26.9860  -30.4440   25.0240 C   0  0  0  0  0  1  0  0  0  0  0  0
  -27.4420  -32.6540   26.0510 C   0  0  0  0  0  1  0  0  0  0  0  0
  -29.9810  -18.0670   19.9480 C   0  0  0  0  0  2  0  0  0  0  0  0
  -30.3470  -16.9570   21.0130 C   0  0  0  0  0  2  0  0  0  0  0  0
  -30.8080  -14.5030   20.1790 C   0  0  0  0  0  0  0  0  0  0  0  0
  -30.4760  -12.3810   18.9260 C   0  0  0  0  0  2  0  0  0  0  0  0
  -29.4630  -12.6360   17.7880 C   0  0  0  0  0  2  0  0  0  0  0  0
  -28.0120  -12.4830   18.2920 C   0  0  0  0  0  2  0  0  0  0  0  0
  -27.7550  -13.2510   19.6160 C   0  0  0  0  0  3  0  0  0  0  0  0
  -28.8680  -12.9590   20.6460 C   0  0  0  0  0  2  0  0  0  0  0  0
  -30.1520  -13.3130   20.0210 N   0  0  0  0  0  0  0  0  0  0  0  0
  -31.9540  -14.6820   19.7580 O   0  0  0  0  0  0  0  0  0  0  0  0
  -30.0440  -15.5260   20.6650 N   0  0  0  0  0  0  0  0  0  0  0  0
  -29.1120  -15.2290   20.9110 H   0  0  0  0  0  0  0  0  0  0  0  0
  -25.4030  -13.8600   20.4550 C   0  0  0  0  0  0  0  0  0  0  0  0
  -24.3470  -13.0900   20.8580 C   0  0  0  0  0  0  0  0  0  0  0  0
  -24.7930  -11.7350   20.7780 C   0  0  0  0  0  0  0  0  0  0  0  0
  -26.4260  -12.9740   20.1550 N   0  0  0  0  0  0  0  0  0  0  0  0
  -26.0670  -11.6910   20.4090 N   0  0  0  0  0  0  0  0  0  0  0  0
  -24.0640  -10.4750   20.9740 C   0  0  0  0  0  0  0  0  0  0  0  0
  -24.5000   -9.5080   21.9060 C   0  0  0  0  0  3  0  0  0  0  0  0
  -23.7720   -8.3130   22.0900 C   0  0  0  0  0  3  0  0  0  0  0  0
  -22.5940   -8.0770   21.3410 C   0  0  0  0  0  0  0  0  0  0  0  0
  -22.1780   -9.0330   20.3980 C   0  0  0  0  0  3  0  0  0  0  0  0
  -22.9070  -10.2200   20.2120 C   0  0  0  0  0  3  0  0  0  0  0  0
  -21.8380   -6.9340   21.4330 O   0  0  0  0  0  0  0  0  0  0  0  0
  -21.7630   -6.2130   22.5980 C   0  0  0  0  0  0  0  0  0  0  0  0
  -21.2500   -6.7730   23.7890 C   0  0  0  0  0  3  0  0  0  0  0  0
  -21.1270   -5.9750   24.9450 C   0  0  0  0  0  3  0  0  0  0  0  0
  -21.5040   -4.6190   24.9100 C   0  0  0  0  0  0  0  0  0  0  0  0
  -22.0100   -4.0590   23.7230 C   0  0  0  0  0  3  0  0  0  0  0  0
  -22.1360   -4.8540   22.5690 C   0  0  0  0  0  0  0  0  0  0  0  0
  -22.6030   -4.3050   21.4230 F   0  0  0  0  0  0  0  0  0  0  0  0
  -21.3790   -3.8520   26.0170 F   0  0  0  0  0  0  0  0  0  0  0  0
  -22.9670  -13.5730   21.2030 C   0  0  0  0  0  0  0  0  0  0  0  0
  -22.2690  -12.8610   22.0810 N   0  0  0  0  0  0  0  0  0  0  0  0
  -22.5190  -14.6170   20.7310 O   0  0  0  0  0  0  0  0  0  0  0  0
  -22.6460  -12.0150   22.4830 H   0  0  0  0  0  0  0  0  0  0  0  0
  -21.3460  -13.1650   22.3540 H   0  0  0  0  0  0  0  0  0  0  0  0
  -25.5720  -15.2330   20.2980 N   0  0  0  0  0  0  0  0  0  0  0  0
  -24.8110  -15.8860   20.4480 H   0  0  0  0  0  0  0  0  0  0  0  0
  -26.3960  -15.6710   19.9060 H   0  0  0  0  0  0  0  0  0  0  0  0
  1  3  1  0
  1  5  1  0
  3  9  1  0
  3  4  1  0
  4 12  1  0
  4  2  1  0
  5 55  1  0
  5  6  1  0
  6  2  1  0
  6  7  1  0
  8  6  1  0
 10 11  1  0
 10  9  2  0
 12 13  1  0
 14 13  1  0
 15 26  2  0
 16 14  1  0
 16 21  1  0
 17 25  1  0
 17 27  1  0
 18 20  1  0
 19 25  1  0
 20 21  2  0
 20 19  1  0
 22 16  2  0
 23 22  1  0
 23 18  2  0
 24 18  1  0
 24 17  1  0
 25 15  1  0
 27 29  2  0
 28 27  1  0
 30 28  1  0
 31 40  2  0
 31 36  1  0
 32 28  1  0
 32 36  1  0
 33 32  1  0
 34 35  1  0
 34 33  1  0
 35 31  1  0
 36 37  2  0
 37 38  1  0
 39 38  2  0
 40 39  1  0
 41 15  1  0
 41 42  1  0
 41 51  1  0
 42 45  1  0
 43 47  1  0
 43 42  1  0
 44 43  2  0
 47 46  1  0
 49 50  1  0
 49 47  1  0
 49 48  1  0
 51 54  1  1
 51 52  1  0
 53 51  1  0
 55 56  1  0
 57 65  1  0
 58 63  1  0
 59 60  1  0
 59 58  1  0
 61 60  1  0
 61 70  1  0
 61 62  1  0
 63 57  1  0
 63 62  1  0
 64 57  2  0
 65 66  1  0
 65 56  1  0
 67 68  2  0
 68 87  1  0
 69 68  1  0
 69 72  1  0
 70 71  1  0
 70 67  1  0
 71 69  2  0
 72 73  1  0
 73 74  2  0
 75 78  1  0
 75 74  1  0
 76 75  2  0
 77 76  1  0
 77 72  2  0
 78 79  1  0
 79 80  1  0
 80 81  2  0
 82 81  1  0
 82 86  1  0
 83 82  2  0
 84 79  2  0
 84 83  1  0
 85 84  1  0
 87 88  1  0
 88 91  1  0
 88 90  1  0
 89 87  2  0
 92 93  1  0
 92 67  1  0
 94 92  1  0
M  ISO  4  13 101  14 101  57 100  65 100
M  END
>  <TORSDO>  (35) 
F 21

>  <SCORE>  (35) 
-13.388

>  <name>  (35) 
34

>  <ligand_id>  (35) 
34

>  <original_smiles>  (35) 
[H]N=C([H])C1([H])C([H])([H])C([H])(C([H])([H])C([H])([H])N([H])C(=O)N2C([H])([H])C([H])([H])C([H])([H])C([H])(n3nc(-c4c([H])c([H])c(Oc5c([H])c([H])c(F)c([H])c5F)c([H])c4[H])c(C(=O)N([H])[H])c3N([H])[H])C2([H])[H])[N+]([H])([H])C([H])([H])C1([H])C([H])([H])C([H])([H])Oc1c([H])c([H])c2c(c1[H])C([H])([H])N(C(=O)C([H])(N([H])C(=O)C([H])(N([H])C([H])([H])[H])C([H])([H])[H])C(C([H])([H])[H])(C([H])([H])[H])C([H])([H])[H])C([H])(C(=O)N([H])C1([H])c3c([H])c([H])c([H])c([H])c3C([H])([H])C([H])([H])C1([H])[H])C2([H])[H]

>  <smiles>  (35) 
[H]N=C([H])C1([H])C([H])([H])C([H])(C([H])([H])C([H])([H])N([H])C(=O)N2C([H])([H])C([H])([H])C([H])([H])C([H])(n3nc(-c4c([H])c([H])c(Oc5c([H])c([H])c(F)c([H])c5F)c([H])c4[H])c(C(=O)N([H])[H])c3N([H])[H])C2([H])[H])[N+]([H])([H])C([H])([H])C1([H])C([H])([H])C([H])([H])Oc1c([H])c([H])c2c(c1[H])C([H])([H])N(C(=O)C([H])(N([H])C(=O)C([H])(N([H])C([H])([H])[H])C([H])([H])[H])C(C([H])([H])[H])(C([H])([H])[H])C([H])([H])[H])C([H])(C(=O)N([H])C1([H])c3c([H])c([H])c([H])c([H])c3C([H])([H])C([H])([H])C1([H])[H])C2([H])[H]

$$$$
35:0:0
     RDKit          3D

 89 97  0  0  1  0  0  0  0  0999 V2000
  -29.2200  -22.0590   22.1640 C   0  0  0  0  0  1  0  0  0  0  0  0
  -28.7430  -22.1410   20.7040 C   0  0  0  0  0  3  0  0  0  0  0  0
  -28.9110  -23.6700   20.1560 C   0  0  0  0  0  0  0  0  0  0  0  0
  -29.7760  -23.8940   19.3050 O   0  0  0  0  0  0  0  0  0  0  0  0
  -27.9980  -24.9060   20.6730 C   0  0  0  0  0  2  0  0  0  0  0  0
  -28.3020  -26.3430   20.2540 O   0  0  0  0  0  0  0  0  0  0  0  0
  -24.6110  -31.9170   23.2120 C   0  0  0  0  0  0  0  0  0  0  0  0
  -27.2260  -27.2720   20.2120 C   0  0  0  0  0  0  0  0  0  0  0  0
  -23.4190  -30.5090   21.5740 C   0  0  0  0  0  3  0  0  0  0  0  0
  -24.8780  -28.9460   20.1610 C   0  0  0  0  0  0  0  0  0  0  0  0
  -25.9640  -30.8100   21.4060 C   0  0  0  0  0  2  0  0  0  0  0  0
  -26.0500  -29.4200   20.7670 C   0  0  0  0  0  0  0  0  0  0  0  0
  -27.2280  -28.5970   20.7760 C   0  0  0  0  0  3  0  0  0  0  0  0
  -26.0350  -26.8790   19.5650 C   0  0  0  0  0  3  0  0  0  0  0  0
  -24.8790  -27.6850   19.5460 C   0  0  0  0  0  3  0  0  0  0  0  0
  -23.6440  -29.8280   20.1980 C   0  0  0  0  0  2  0  0  0  0  0  0
  -24.6840  -31.0980   22.1210 N   0  0  0  0  0  0  0  0  0  0  0  0
  -23.5240  -32.1970   23.7390 O   0  0  0  0  0  0  0  0  0  0  0  0
  -22.7490  -29.4980   22.5380 C   0  0  0  0  0  0  0  0  0  0  0  0
  -21.4210  -29.3260   22.4140 N   0  0  0  0  0  0  0  0  0  0  0  0
  -23.4240  -28.8720   23.3600 O   0  0  0  0  0  0  0  0  0  0  0  0
  -20.9330  -29.8840   21.7260 H   0  0  0  0  0  0  0  0  0  0  0  0
  -18.0380  -28.1460   22.9310 C   0  0  0  0  0  0  0  0  0  0  0  0
  -20.5990  -28.3920   23.1870 C   0  0  0  0  0  3  0  0  0  0  0  0
  -20.6900  -26.9600   22.6080 C   0  0  0  0  0  2  0  0  0  0  0  0
  -19.5800  -26.6460   21.5990 C   0  0  0  0  0  2  0  0  0  0  0  0
  -18.2030  -26.7980   22.2510 C   0  0  0  0  0  2  0  0  0  0  0  0
  -19.1630  -28.9020   23.3560 C   0  0  0  0  0  0  0  0  0  0  0  0
  -18.9540  -30.1640   23.9540 C   0  0  0  0  0  3  0  0  0  0  0  0
  -17.6520  -30.6710   24.1300 C   0  0  0  0  0  3  0  0  0  0  0  0
  -16.5420  -29.9130   23.7200 C   0  0  0  0  0  3  0  0  0  0  0  0
  -16.7350  -28.6530   23.1260 C   0  0  0  0  0  3  0  0  0  0  0  0
  -25.8880  -32.5570   23.8390 C   0  0  0  0  0  3  0  0  0  0  0  0
  -26.3970  -31.7920   25.1220 C   0  0  1  0  0  0  0  0  0  0  0  0
  -25.2990  -31.5590   26.1860 C   0  0  0  0  0  1  0  0  0  0  0  0
  -26.9860  -30.4140   24.7420 C   0  0  0  0  0  1  0  0  0  0  0  0
  -27.5430  -32.5930   25.7870 C   0  0  0  0  0  1  0  0  0  0  0  0
  -25.5720  -33.9560   24.1630 N   0  0  0  0  0  0  0  0  0  0  0  0
  -25.9060  -35.0090   23.4050 C   0  0  0  0  0  0  0  0  0  0  0  0
  -26.5800  -34.9050   22.3770 O   0  0  0  0  0  0  0  0  0  0  0  0
  -24.9750  -34.1110   24.9620 H   0  0  0  0  0  0  0  0  0  0  0  0
  -24.1840  -36.8070   23.0350 C   0  0  0  0  0  1  0  0  0  0  0  0
  -25.4160  -36.3990   23.8590 C   0  0  0  0  0  3  0  0  0  0  0  0
  -27.5420  -37.2820   24.7150 C   0  0  0  0  0  1  0  0  0  0  0  0
  -26.4510  -37.4500   23.7590 N   0  0  0  0  0  0  0  0  0  0  0  0
  -26.0440  -38.3710   23.9020 H   0  0  0  0  0  0  0  0  0  0  0  0
  -29.3880  -20.8970   19.8490 C   0  0  0  0  0  2  0  0  0  0  0  0
  -30.8160  -17.3740   21.1640 C   0  0  0  0  0  3  0  0  0  0  0  0
  -29.0140  -16.8910   19.7030 C   0  0  0  0  0  3  0  0  0  0  0  0
  -30.5330  -18.7870   21.0700 C   0  0  0  0  0  3  0  0  0  0  0  0
  -28.7250  -18.3060   19.6130 C   0  0  0  0  0  3  0  0  0  0  0  0
  -30.0930  -16.3470   20.4710 C   0  0  0  0  0  0  0  0  0  0  0  0
  -29.4910  -19.3290   20.2600 C   0  0  0  0  0  0  0  0  0  0  0  0
  -30.6830  -14.8840   20.3100 C   0  0  0  0  0  0  0  0  0  0  0  0
  -30.4230  -12.5780   19.3660 C   0  0  0  0  0  2  0  0  0  0  0  0
  -29.4980  -12.6070   18.1320 C   0  0  0  0  0  2  0  0  0  0  0  0
  -28.0360  -12.4030   18.5670 C   0  0  0  0  0  2  0  0  0  0  0  0
  -27.6420  -13.3190   19.7550 C   0  0  0  0  0  3  0  0  0  0  0  0
  -28.7040  -13.3450   20.8760 C   0  0  0  0  0  2  0  0  0  0  0  0
  -29.9940  -13.6820   20.2680 N   0  0  0  0  0  0  0  0  0  0  0  0
  -31.8840  -14.8520   20.0370 O   0  0  0  0  0  0  0  0  0  0  0  0
  -25.2700  -13.8880   20.5230 C   0  0  0  0  0  0  0  0  0  0  0  0
  -24.2110  -13.1080   20.8960 C   0  0  0  0  0  0  0  0  0  0  0  0
  -24.6820  -11.7590   20.8580 C   0  0  0  0  0  0  0  0  0  0  0  0
  -26.3130  -13.0160   20.2690 N   0  0  0  0  0  0  0  0  0  0  0  0
  -25.9710  -11.7290   20.5390 N   0  0  0  0  0  0  0  0  0  0  0  0
  -23.9650  -10.4930   21.0480 C   0  0  0  0  0  0  0  0  0  0  0  0
  -24.3960   -9.5330   21.9880 C   0  0  0  0  0  3  0  0  0  0  0  0
  -23.6770   -8.3320   22.1670 C   0  0  0  0  0  3  0  0  0  0  0  0
  -22.5110   -8.0830   21.4050 C   0  0  0  0  0  0  0  0  0  0  0  0
  -22.0980   -9.0320   20.4530 C   0  0  0  0  0  3  0  0  0  0  0  0
  -22.8180  -10.2250   20.2730 C   0  0  0  0  0  3  0  0  0  0  0  0
  -21.7620   -6.9340   21.4930 O   0  0  0  0  0  0  0  0  0  0  0  0
  -21.6970   -6.2040   22.6530 C   0  0  0  0  0  0  0  0  0  0  0  0
  -21.2320   -6.7660   23.8630 C   0  0  0  0  0  3  0  0  0  0  0  0
  -21.1170   -5.9600   25.0140 C   0  0  0  0  0  3  0  0  0  0  0  0
  -21.4550   -4.5960   24.9550 C   0  0  0  0  0  0  0  0  0  0  0  0
  -21.9130   -4.0330   23.7500 C   0  0  0  0  0  3  0  0  0  0  0  0
  -22.0310   -4.8360   22.6020 C   0  0  0  0  0  0  0  0  0  0  0  0
  -22.4520   -4.2850   21.4380 F   0  0  0  0  0  0  0  0  0  0  0  0
  -21.3380   -3.8200   26.0580 F   0  0  0  0  0  0  0  0  0  0  0  0
  -22.8140  -13.5780   21.1740 C   0  0  0  0  0  0  0  0  0  0  0  0
  -22.0920  -12.8730   22.0370 N   0  0  0  0  0  0  0  0  0  0  0  0
  -22.3710  -14.6040   20.6600 O   0  0  0  0  0  0  0  0  0  0  0  0
  -22.4630  -12.0440   22.4770 H   0  0  0  0  0  0  0  0  0  0  0  0
  -21.1520  -13.1680   22.2640 H   0  0  0  0  0  0  0  0  0  0  0  0
  -25.4260  -15.2610   20.3540 N   0  0  0  0  0  0  0  0  0  0  0  0
  -24.6610  -15.9120   20.4930 H   0  0  0  0  0  0  0  0  0  0  0  0
  -26.2900  -15.7180   20.0880 H   0  0  0  0  0  0  0  0  0  0  0  0
  2  1  1  0
  3  5  1  0
  3  2  1  0
  4  3  2  0
  6  5  1  0
  7 18  2  0
  8  6  1  0
  8 13  1  0
  9 17  1  0
  9 19  1  0
 10 16  1  0
 10 12  1  0
 11 17  1  0
 12 13  2  0
 12 11  1  0
 14  8  2  0
 15 14  1  0
 15 10  2  0
 16  9  1  0
 17  7  1  0
 19 21  2  0
 20 19  1  0
 22 20  1  0
 23 32  2  0
 23 28  1  0
 24 20  1  0
 24 28  1  0
 25 24  1  0
 26 27  1  0
 26 25  1  0
 27 23  1  0
 28 29  2  0
 29 30  1  0
 31 30  2  0
 32 31  1  0
 33  7  1  0
 33 38  1  0
 33 34  1  0
 34 37  1  1
 34 35  1  0
 36 34  1  0
 38 41  1  0
 39 43  1  0
 39 38  1  0
 40 39  2  0
 43 42  1  0
 45 43  1  0
 45 46  1  0
 45 44  1  0
 47 53  1  0
 47  2  1  0
 49 52  1  0
 50 48  1  0
 51 49  2  0
 51 53  1  0
 52 48  2  0
 53 50  2  0
 54 52  1  0
 55 60  1  0
 56 57  1  0
 56 55  1  0
 58 57  1  0
 58 65  1  0
 58 59  1  0
 60 54  1  0
 60 59  1  0
 61 54  2  0
 62 63  2  0
 63 82  1  0
 64 63  1  0
 64 67  1  0
 65 62  1  0
 65 66  1  0
 66 64  2  0
 67 68  1  0
 68 69  2  0
 70 73  1  0
 70 69  1  0
 71 70  2  0
 72 71  1  0
 72 67  2  0
 73 74  1  0
 74 75  1  0
 75 76  2  0
 77 76  1  0
 77 81  1  0
 78 77  2  0
 79 74  2  0
 79 78  1  0
 80 79  1  0
 82 83  1  0
 83 86  1  0
 83 85  1  0
 84 82  2  0
 87 88  1  0
 87 62  1  0
 89 87  1  0
M  ISO  4   5 101   6 101  52 100  54 100
M  END
>  <TORSDO>  (36) 
F 20

>  <SCORE>  (36) 
-14.119

>  <name>  (36) 
35

>  <ligand_id>  (36) 
35

>  <original_smiles>  (36) 
[H]c1c([H])c([H])c2c(c1[H])C([H])([H])C([H])([H])C([H])([H])C2([H])N([H])C(=O)C1([H])N(C(=O)C([H])(N([H])C(=O)C([H])(N([H])C([H])([H])[H])C([H])([H])[H])C(C([H])([H])[H])(C([H])([H])[H])C([H])([H])[H])C([H])([H])c2c([H])c(OC([H])([H])C(=O)C([H])(C([H])([H])[H])C([H])([H])c3c([H])c([H])c(C(=O)N4C([H])([H])C([H])([H])C([H])([H])C([H])(n5nc(-c6c([H])c([H])c(Oc7c([H])c([H])c(F)c([H])c7F)c([H])c6[H])c(C(=O)N([H])[H])c5N([H])[H])C4([H])[H])c([H])c3[H])c([H])c([H])c2C1([H])[H]

>  <smiles>  (36) 
[H]c1c([H])c([H])c2c(c1[H])C([H])([H])C([H])([H])C([H])([H])C2([H])N([H])C(=O)C1([H])N(C(=O)C([H])(N([H])C(=O)C([H])(N([H])C([H])([H])[H])C([H])([H])[H])C(C([H])([H])[H])(C([H])([H])[H])C([H])([H])[H])C([H])([H])c2c([H])c(OC([H])([H])C(=O)C([H])(C([H])([H])[H])C([H])([H])c3c([H])c([H])c(C(=O)N4C([H])([H])C([H])([H])C([H])([H])C([H])(n5nc(-c6c([H])c([H])c(Oc7c([H])c([H])c(F)c([H])c7F)c([H])c6[H])c(C(=O)N([H])[H])c5N([H])[H])C4([H])[H])c([H])c3[H])c([H])c([H])c2C1([H])[H]

$$$$
36:0:0
     RDKit          3D

 90 98  0  0  1  0  0  0  0  0999 V2000
  -29.1700  -19.7710   17.5970 C   0  0  0  0  0  2  0  0  0  0  0  0
  -29.8830  -20.9480   18.2600 C   0  0  0  0  0  2  0  0  0  0  0  0
  -29.5490  -18.6250   18.4910 C   0  0  0  0  0  3  0  0  0  0  0  0
  -29.4370  -19.2220   19.9310 C   0  0  0  0  0  3  0  0  0  0  0  0
  -29.7150  -20.7920   19.7360 N   0  0  2  0  0  4  0  0  0  0  0  0
  -30.6210  -20.9800   20.1460 H   0  0  0  0  0  0  0  0  0  0  0  0
  -27.3660  -17.1860   18.4100 C   0  0  0  0  0  1  0  0  0  0  0  0
  -28.8660  -17.2810   18.0960 C   0  0  0  0  0  2  0  0  0  0  0  0
  -30.4020  -18.2010   20.8100 C   0  0  0  0  0  2  0  0  0  0  0  0
  -30.0010  -16.6080   21.1300 C   0  0  0  0  0  2  0  0  0  0  0  0
  -30.8870  -15.2480   20.8790 C   0  0  0  0  0  0  0  0  0  0  0  0
  -30.8500  -12.9090   19.9330 C   0  0  0  0  0  2  0  0  0  0  0  0
  -30.0100  -12.8820   18.6300 C   0  0  0  0  0  2  0  0  0  0  0  0
  -28.5150  -12.6670   18.9440 C   0  0  0  0  0  2  0  0  0  0  0  0
  -28.0140  -13.6160   20.0670 C   0  0  0  0  0  3  0  0  0  0  0  0
  -28.9730  -13.6040   21.2740 C   0  0  0  0  0  2  0  0  0  0  0  0
  -30.3130  -13.9830   20.8040 N   0  0  0  0  0  0  0  0  0  0  0  0
  -32.0940  -15.3440   20.6360 O   0  0  0  0  0  0  0  0  0  0  0  0
  -25.5800  -14.1990   20.6280 C   0  0  0  0  0  0  0  0  0  0  0  0
  -24.4910  -13.4280   20.9170 C   0  0  0  0  0  0  0  0  0  0  0  0
  -24.9540  -12.0750   20.9290 C   0  0  0  0  0  0  0  0  0  0  0  0
  -26.6390  -13.3250   20.4640 N   0  0  0  0  0  0  0  0  0  0  0  0
  -26.2690  -12.0390   20.7160 N   0  0  0  0  0  0  0  0  0  0  0  0
  -24.2120  -10.8190   21.0790 C   0  0  0  0  0  0  0  0  0  0  0  0
  -24.5670   -9.8580   22.0570 C   0  0  0  0  0  3  0  0  0  0  0  0
  -23.8310   -8.6610   22.1970 C   0  0  0  0  0  3  0  0  0  0  0  0
  -22.7220   -8.4160   21.3530 C   0  0  0  0  0  0  0  0  0  0  0  0
  -22.3790   -9.3640   20.3720 C   0  0  0  0  0  3  0  0  0  0  0  0
  -23.1170  -10.5510   20.2340 C   0  0  0  0  0  3  0  0  0  0  0  0
  -21.9530   -7.2760   21.3920 O   0  0  0  0  0  0  0  0  0  0  0  0
  -21.7970   -6.5550   22.5490 C   0  0  0  0  0  0  0  0  0  0  0  0
  -21.2630   -7.1380   23.7160 C   0  0  0  0  0  3  0  0  0  0  0  0
  -21.0650   -6.3540   24.8710 C   0  0  0  0  0  3  0  0  0  0  0  0
  -21.3800   -4.9830   24.8550 C   0  0  0  0  0  0  0  0  0  0  0  0
  -21.8930   -4.3950   23.6840 C   0  0  0  0  0  3  0  0  0  0  0  0
  -22.0970   -5.1780   22.5350 C   0  0  0  0  0  0  0  0  0  0  0  0
  -22.5820   -4.6040   21.4080 F   0  0  0  0  0  0  0  0  0  0  0  0
  -21.1760   -4.2290   25.9600 F   0  0  0  0  0  0  0  0  0  0  0  0
  -23.0800  -13.9090   21.0760 C   0  0  0  0  0  0  0  0  0  0  0  0
  -22.2940  -13.2300   21.9040 N   0  0  0  0  0  0  0  0  0  0  0  0
  -22.6810  -14.9280   20.5120 O   0  0  0  0  0  0  0  0  0  0  0  0
  -22.6340  -12.4360   22.4260 H   0  0  0  0  0  0  0  0  0  0  0  0
  -21.3440  -13.5410   22.0470 H   0  0  0  0  0  0  0  0  0  0  0  0
  -25.7430  -15.5740   20.4570 N   0  0  0  0  0  0  0  0  0  0  0  0
  -24.9790  -16.2320   20.5750 H   0  0  0  0  0  0  0  0  0  0  0  0
  -26.5770  -16.0090   20.0870 H   0  0  0  0  0  0  0  0  0  0  0  0
  -28.7630  -21.9760   20.2170 C   0  0  0  0  0  2  0  0  0  0  0  0
  -29.1140  -23.6140   19.9480 C   0  0  0  0  0  3  0  0  0  0  0  0
  -28.0520  -24.8930   20.1950 C   0  0  0  0  0  3  0  0  0  0  0  0
  -28.3140  -26.4260   20.0550 O   0  0  0  0  0  0  0  0  0  0  0  0
  -24.7060  -32.0060   23.3270 C   0  0  0  0  0  0  0  0  0  0  0  0
  -27.2430  -27.3960   20.0860 C   0  0  0  0  0  0  0  0  0  0  0  0
  -23.4830  -30.6440   21.6820 C   0  0  0  0  0  3  0  0  0  0  0  0
  -24.9070  -29.1250   20.1800 C   0  0  0  0  0  0  0  0  0  0  0  0
  -26.0310  -30.9280   21.4690 C   0  0  0  0  0  2  0  0  0  0  0  0
  -26.0970  -29.5580   20.7740 C   0  0  0  0  0  0  0  0  0  0  0  0
  -27.2700  -28.7110   20.7070 C   0  0  0  0  0  3  0  0  0  0  0  0
  -26.0240  -27.0710   19.4550 C   0  0  0  0  0  3  0  0  0  0  0  0
  -24.8810  -27.8960   19.5050 C   0  0  0  0  0  3  0  0  0  0  0  0
  -23.6760  -30.0100   20.2790 C   0  0  0  0  0  2  0  0  0  0  0  0
  -24.7610  -31.2120   22.2150 N   0  0  0  0  0  0  0  0  0  0  0  0
  -23.6310  -32.2700   23.8840 O   0  0  0  0  0  0  0  0  0  0  0  0
  -22.8310  -29.6050   22.6310 C   0  0  0  0  0  0  0  0  0  0  0  0
  -21.5080  -29.4000   22.5020 N   0  0  0  0  0  0  0  0  0  0  0  0
  -23.5200  -28.9880   23.4470 O   0  0  0  0  0  0  0  0  0  0  0  0
  -21.0090  -29.9530   21.8170 H   0  0  0  0  0  0  0  0  0  0  0  0
  -18.1690  -28.0670   22.9530 C   0  0  0  0  0  0  0  0  0  0  0  0
  -20.7100  -28.4330   23.2610 C   0  0  0  0  0  3  0  0  0  0  0  0
  -20.8800  -27.0050   22.6910 C   0  0  0  0  0  2  0  0  0  0  0  0
  -19.8080  -26.6350   21.6620 C   0  0  0  0  0  2  0  0  0  0  0  0
  -18.4120  -26.7250   22.2840 C   0  0  0  0  0  2  0  0  0  0  0  0
  -19.2500  -28.8750   23.3980 C   0  0  0  0  0  0  0  0  0  0  0  0
  -18.9690  -30.1280   23.9870 C   0  0  0  0  0  3  0  0  0  0  0  0
  -17.6410  -30.5720   24.1380 C   0  0  0  0  0  3  0  0  0  0  0  0
  -16.5760  -29.7610   23.7080 C   0  0  0  0  0  3  0  0  0  0  0  0
  -16.8400  -28.5110   23.1210 C   0  0  0  0  0  3  0  0  0  0  0  0
  -25.9930  -32.6340   23.9440 C   0  0  0  0  0  3  0  0  0  0  0  0
  -25.6750  -34.0180   24.3330 N   0  0  0  0  0  0  0  0  0  0  0  0
  -25.9710  -35.1030   23.6060 C   0  0  0  0  0  0  0  0  0  0  0  0
  -26.6050  -35.0450   22.5500 O   0  0  0  0  0  0  0  0  0  0  0  0
  -25.1080  -34.1360   25.1600 H   0  0  0  0  0  0  0  0  0  0  0  0
  -24.2110  -36.8880   23.3860 C   0  0  0  0  0  1  0  0  0  0  0  0
  -25.4880  -36.4710   24.1320 C   0  0  0  0  0  3  0  0  0  0  0  0
  -27.6440  -37.3520   24.9090 C   0  0  0  0  0  1  0  0  0  0  0  0
  -26.5050  -37.5390   24.0140 N   0  0  0  0  0  0  0  0  0  0  0  0
  -26.0980  -38.4500   24.2080 H   0  0  0  0  0  0  0  0  0  0  0  0
  -26.5440  -31.8290   25.1850 C   0  0  1  0  0  0  0  0  0  0  0  0
  -25.4760  -31.5480   26.2680 C   0  0  0  0  0  1  0  0  0  0  0  0
  -27.1300  -30.4690   24.7410 C   0  0  0  0  0  1  0  0  0  0  0  0
  -27.7060  -32.6110   25.8400 C   0  0  0  0  0  1  0  0  0  0  0  0
  1  2  1  0
  1  3  1  0
  2  5  1  0
  3  8  1  0
  3  4  1  0
  4  9  1  0
  5  4  1  0
  5  6  1  1
  5 47  1  0
  8  7  1  0
  9 10  1  0
 11 10  1  0
 12 17  1  0
 13 14  1  0
 13 12  1  0
 15 14  1  0
 15 22  1  0
 15 16  1  0
 17 11  1  0
 17 16  1  0
 18 11  2  0
 19 20  2  0
 20 21  1  0
 20 39  1  0
 21 24  1  0
 22 19  1  0
 22 23  1  0
 23 21  2  0
 24 25  1  0
 25 26  2  0
 27 30  1  0
 27 26  1  0
 28 27  2  0
 29 28  1  0
 29 24  2  0
 30 31  1  0
 31 32  1  0
 32 33  2  0
 34 33  1  0
 34 38  1  0
 35 34  2  0
 36 31  2  0
 36 35  1  0
 37 36  1  0
 39 40  1  0
 40 43  1  0
 40 42  1  0
 41 39  2  0
 44 45  1  0
 44 19  1  0
 46 44  1  0
 48 49  2  0
 48 47  1  0
 50 52  1  0
 50 49  1  0
 51 62  2  0
 52 57  1  0
 53 61  1  0
 53 63  1  0
 54 60  1  0
 54 56  1  0
 55 61  1  0
 56 55  1  0
 57 56  2  0
 58 59  1  0
 58 52  2  0
 59 54  2  0
 60 53  1  0
 61 51  1  0
 63 65  2  0
 64 63  1  0
 66 64  1  0
 67 76  2  0
 67 72  1  0
 68 64  1  0
 68 72  1  0
 69 68  1  0
 70 71  1  0
 70 69  1  0
 71 67  1  0
 72 73  2  0
 73 74  1  0
 75 74  2  0
 76 75  1  0
 77 51  1  0
 77 78  1  0
 77 87  1  0
 78 81  1  0
 79 83  1  0
 79 78  1  0
 80 79  2  0
 83 82  1  0
 85 83  1  0
 85 86  1  0
 85 84  1  0
 87 90  1  1
 87 88  1  0
 89 87  1  0
M  ISO  4  10 100  11 100  49 101  50 101
M  END
>  <TORSDO>  (37) 
F 22

>  <SCORE>  (37) 
-12.850

>  <name>  (37) 
36

>  <ligand_id>  (37) 
36

>  <original_smiles>  (37) 
[H]c1c([H])c([H])c2c(c1[H])C([H])([H])C([H])([H])C([H])([H])C2([H])N([H])C(=O)C1([H])N(C(=O)C([H])(N([H])C(=O)C([H])(N([H])C([H])([H])[H])C([H])([H])[H])C(C([H])([H])[H])(C([H])([H])[H])C([H])([H])[H])C([H])([H])c2c([H])c(OC([H])([H])C([H])([H])C([H])([H])[N+]3([H])C([H])([H])C([H])([H])C([H])(C([H])([H])C([H])([H])[H])C3([H])C([H])([H])C([H])([H])C(=O)N3C([H])([H])C([H])([H])C([H])([H])C([H])(n4nc(-c5c([H])c([H])c(Oc6c([H])c([H])c(F)c([H])c6F)c([H])c5[H])c(C(=O)N([H])[H])c4N([H])[H])C3([H])[H])c([H])c([H])c2C1([H])[H]

>  <smiles>  (37) 
[H]c1c([H])c([H])c2c(c1[H])C([H])([H])C([H])([H])C([H])([H])C2([H])N([H])C(=O)C1([H])N(C(=O)C([H])(N([H])C(=O)C([H])(N([H])C([H])([H])[H])C([H])([H])[H])C(C([H])([H])[H])(C([H])([H])[H])C([H])([H])[H])C([H])([H])c2c([H])c(OC([H])([H])C([H])([H])C([H])([H])[N+]3([H])C([H])([H])C([H])([H])C([H])(C([H])([H])C([H])([H])[H])C3([H])C([H])([H])C([H])([H])C(=O)N3C([H])([H])C([H])([H])C([H])([H])C([H])(n4nc(-c5c([H])c([H])c(Oc6c([H])c([H])c(F)c([H])c6F)c([H])c5[H])c(C(=O)N([H])[H])c4N([H])[H])C3([H])[H])c([H])c([H])c2C1([H])[H]

$$$$
37:0:0
     RDKit          3D

 89 97  0  0  1  0  0  0  0  0999 V2000
  -30.3190  -21.5630   19.4010 C   0  0  0  0  0  2  0  0  0  0  0  0
  -30.8310  -20.1460   19.8570 C   0  0  0  0  0  2  0  0  0  0  0  0
  -28.2220  -21.1280   20.5990 C   0  0  0  0  0  2  0  0  0  0  0  0
  -29.2960  -22.2690   20.3550 C   0  0  0  0  0  3  0  0  0  0  0  0
  -29.7340  -19.0630   20.1290 C   0  0  0  0  0  3  0  0  0  0  0  0
  -28.7600  -19.7640   21.0420 N   0  0  0  0  0  4  0  0  0  0  0  0
  -27.9670  -19.1570   21.1800 H   0  0  0  0  0  0  0  0  0  0  0  0
  -29.1930  -19.8820   21.9430 H   0  0  0  0  0  0  0  0  0  0  0  0
  -28.8530  -23.7470   19.7770 C   0  0  0  0  0  2  0  0  0  0  0  0
  -28.2360  -24.9750   20.6450 C   0  0  0  0  0  2  0  0  0  0  0  0
  -28.3790  -26.4160   20.2100 O   0  0  0  0  0  0  0  0  0  0  0  0
  -24.6260  -31.8870   23.2220 C   0  0  0  0  0  0  0  0  0  0  0  0
  -27.2650  -27.2860   20.2040 C   0  0  0  0  0  0  0  0  0  0  0  0
  -23.4390  -30.4830   21.5760 C   0  0  0  0  0  3  0  0  0  0  0  0
  -24.9020  -28.9240   20.1640 C   0  0  0  0  0  0  0  0  0  0  0  0
  -25.9810  -30.7960   21.4120 C   0  0  0  0  0  2  0  0  0  0  0  0
  -26.0690  -29.4110   20.7680 C   0  0  0  0  0  0  0  0  0  0  0  0
  -27.2550  -28.6070   20.7690 C   0  0  0  0  0  3  0  0  0  0  0  0
  -26.0750  -26.8610   19.5780 C   0  0  0  0  0  3  0  0  0  0  0  0
  -24.9100  -27.6570   19.5580 C   0  0  0  0  0  3  0  0  0  0  0  0
  -23.6650  -29.8020   20.2000 C   0  0  0  0  0  2  0  0  0  0  0  0
  -24.7010  -31.0750   22.1260 N   0  0  0  0  0  0  0  0  0  0  0  0
  -23.5390  -32.1630   23.7490 O   0  0  0  0  0  0  0  0  0  0  0  0
  -22.7680  -29.4690   22.5350 C   0  0  0  0  0  0  0  0  0  0  0  0
  -21.4430  -29.2870   22.3990 N   0  0  0  0  0  0  0  0  0  0  0  0
  -23.4410  -28.8480   23.3630 O   0  0  0  0  0  0  0  0  0  0  0  0
  -20.9580  -29.8400   21.7050 H   0  0  0  0  0  0  0  0  0  0  0  0
  -18.0680  -28.0670   22.8670 C   0  0  0  0  0  0  0  0  0  0  0  0
  -20.6220  -28.3480   23.1650 C   0  0  0  0  0  3  0  0  0  0  0  0
  -20.7410  -26.9140   22.5980 C   0  0  0  0  0  2  0  0  0  0  0  0
  -19.6540  -26.5780   21.5720 C   0  0  0  0  0  2  0  0  0  0  0  0
  -18.2640  -26.7170   22.1990 C   0  0  0  0  0  2  0  0  0  0  0  0
  -19.1750  -28.8410   23.3050 C   0  0  0  0  0  0  0  0  0  0  0  0
  -18.9400  -30.1050   23.8880 C   0  0  0  0  0  3  0  0  0  0  0  0
  -17.6290  -30.5960   24.0370 C   0  0  0  0  0  3  0  0  0  0  0  0
  -16.5360  -29.8200   23.6140 C   0  0  0  0  0  3  0  0  0  0  0  0
  -16.7560  -28.5580   23.0350 C   0  0  0  0  0  3  0  0  0  0  0  0
  -25.9020  -32.5250   23.8530 C   0  0  0  0  0  3  0  0  0  0  0  0
  -26.4110  -31.7560   25.1350 C   0  0  1  0  0  0  0  0  0  0  0  0
  -25.3110  -31.5180   26.1960 C   0  0  0  0  0  1  0  0  0  0  0  0
  -26.9990  -30.3770   24.7510 C   0  0  0  0  0  1  0  0  0  0  0  0
  -27.5580  -32.5510   25.8020 C   0  0  0  0  0  1  0  0  0  0  0  0
  -25.5860  -33.9220   24.1830 N   0  0  0  0  0  0  0  0  0  0  0  0
  -25.9190  -34.9780   23.4280 C   0  0  0  0  0  0  0  0  0  0  0  0
  -26.5950  -34.8780   22.4010 O   0  0  0  0  0  0  0  0  0  0  0  0
  -24.9830  -34.0740   24.9790 H   0  0  0  0  0  0  0  0  0  0  0  0
  -24.1890  -36.7690   23.0700 C   0  0  0  0  0  1  0  0  0  0  0  0
  -25.4270  -36.3650   23.8850 C   0  0  0  0  0  3  0  0  0  0  0  0
  -27.5580  -37.2550   24.7240 C   0  0  0  0  0  1  0  0  0  0  0  0
  -26.4590  -37.4210   23.7770 N   0  0  0  0  0  0  0  0  0  0  0  0
  -26.0500  -38.3410   23.9230 H   0  0  0  0  0  0  0  0  0  0  0  0
  -30.3880  -17.6320   20.6150 C   0  0  0  0  0  2  0  0  0  0  0  0
  -29.6910  -16.1620   20.5170 C   0  0  0  0  0  2  0  0  0  0  0  0
  -30.5600  -14.8060   20.3360 C   0  0  0  0  0  0  0  0  0  0  0  0
  -30.4020  -12.5170   19.3330 C   0  0  0  0  0  2  0  0  0  0  0  0
  -29.4550  -12.5990   18.1120 C   0  0  0  0  0  2  0  0  0  0  0  0
  -27.9850  -12.4180   18.5420 C   0  0  0  0  0  2  0  0  0  0  0  0
  -27.6130  -13.2930   19.7680 C   0  0  0  0  0  3  0  0  0  0  0  0
  -28.6770  -13.1950   20.8810 C   0  0  0  0  0  2  0  0  0  0  0  0
  -29.9750  -13.5570   20.2980 N   0  0  0  0  0  0  0  0  0  0  0  0
  -31.7490  -14.9120   20.0210 O   0  0  0  0  0  0  0  0  0  0  0  0
  -25.2290  -13.8770   20.5100 C   0  0  0  0  0  0  0  0  0  0  0  0
  -24.1660  -13.1000   20.8840 C   0  0  0  0  0  0  0  0  0  0  0  0
  -24.6330  -11.7510   20.8520 C   0  0  0  0  0  0  0  0  0  0  0  0
  -26.2730  -13.0000   20.2660 N   0  0  0  0  0  0  0  0  0  0  0  0
  -25.9230  -11.7160   20.5360 N   0  0  0  0  0  0  0  0  0  0  0  0
  -23.9110  -10.4860   21.0450 C   0  0  0  0  0  0  0  0  0  0  0  0
  -24.3540   -9.5170   21.9710 C   0  0  0  0  0  3  0  0  0  0  0  0
  -23.6310   -8.3180   22.1520 C   0  0  0  0  0  3  0  0  0  0  0  0
  -22.4520   -8.0800   21.4070 C   0  0  0  0  0  0  0  0  0  0  0  0
  -22.0290   -9.0380   20.4690 C   0  0  0  0  0  3  0  0  0  0  0  0
  -22.7510  -10.2290   20.2870 C   0  0  0  0  0  3  0  0  0  0  0  0
  -21.7010   -6.9330   21.4980 O   0  0  0  0  0  0  0  0  0  0  0  0
  -21.6690   -6.1830   22.6460 C   0  0  0  0  0  0  0  0  0  0  0  0
  -21.2610   -6.7280   23.8820 C   0  0  0  0  0  3  0  0  0  0  0  0
  -21.1770   -5.9040   25.0220 C   0  0  0  0  0  3  0  0  0  0  0  0
  -21.4900   -4.5350   24.9270 C   0  0  0  0  0  0  0  0  0  0  0  0
  -21.8900   -3.9880   23.6940 C   0  0  0  0  0  3  0  0  0  0  0  0
  -21.9770   -4.8090   22.5570 C   0  0  0  0  0  0  0  0  0  0  0  0
  -22.3420   -4.2730   21.3670 F   0  0  0  0  0  0  0  0  0  0  0  0
  -21.4010   -3.7410   26.0190 F   0  0  0  0  0  0  0  0  0  0  0  0
  -22.7680  -13.5740   21.1600 C   0  0  0  0  0  0  0  0  0  0  0  0
  -22.0450  -12.8750   22.0260 N   0  0  0  0  0  0  0  0  0  0  0  0
  -22.3270  -14.5990   20.6420 O   0  0  0  0  0  0  0  0  0  0  0  0
  -22.4170  -12.0460   22.4680 H   0  0  0  0  0  0  0  0  0  0  0  0
  -21.1070  -13.1730   22.2540 H   0  0  0  0  0  0  0  0  0  0  0  0
  -25.3900  -15.2490   20.3340 N   0  0  0  0  0  0  0  0  0  0  0  0
  -24.6230  -15.9040   20.4500 H   0  0  0  0  0  0  0  0  0  0  0  0
  -26.2390  -15.6860   19.9980 H   0  0  0  0  0  0  0  0  0  0  0  0
  1  2  1  0
  1  4  1  0
  2  5  1  0
  3  6  1  0
  4  9  1  0
  4  3  1  0
  5 52  1  0
  5  6  1  0
  6  7  1  0
  6  8  1  0
  9 10  1  0
 11 10  1  0
 12 23  2  0
 13 11  1  0
 13 18  1  0
 14 22  1  0
 14 24  1  0
 15 21  1  0
 15 17  1  0
 16 22  1  0
 17 18  2  0
 17 16  1  0
 19 13  2  0
 20 19  1  0
 20 15  2  0
 21 14  1  0
 22 12  1  0
 24 26  2  0
 25 24  1  0
 27 25  1  0
 28 37  2  0
 28 33  1  0
 29 25  1  0
 29 33  1  0
 30 29  1  0
 31 32  1  0
 31 30  1  0
 32 28  1  0
 33 34  2  0
 34 35  1  0
 36 35  2  0
 37 36  1  0
 38 12  1  0
 38 43  1  0
 38 39  1  0
 39 42  1  1
 39 40  1  0
 41 39  1  0
 43 46  1  0
 44 48  1  0
 44 43  1  0
 45 44  2  0
 48 47  1  0
 50 48  1  0
 50 51  1  0
 50 49  1  0
 53 52  1  0
 54 53  1  0
 55 60  1  0
 56 57  1  0
 56 55  1  0
 58 57  1  0
 58 65  1  0
 58 59  1  0
 60 54  1  0
 60 59  1  0
 61 54  2  0
 62 63  2  0
 63 82  1  0
 64 63  1  0
 64 67  1  0
 65 62  1  0
 65 66  1  0
 66 64  2  0
 67 68  1  0
 68 69  2  0
 70 73  1  0
 70 69  1  0
 71 70  2  0
 72 71  1  0
 72 67  2  0
 73 74  1  0
 74 75  1  0
 75 76  2  0
 77 76  1  0
 77 81  1  0
 78 77  2  0
 79 74  2  0
 79 78  1  0
 80 79  1  0
 82 83  1  0
 83 86  1  0
 83 85  1  0
 84 82  2  0
 87 88  1  0
 87 62  1  0
 89 87  1  0
M  ISO  4  10 101  11 101  53 100  54 100
M  END
>  <TORSDO>  (38) 
F 20

>  <SCORE>  (38) 
-13.866

>  <name>  (38) 
37

>  <ligand_id>  (38) 
37

>  <original_smiles>  (38) 
[H]c1c([H])c([H])c2c(c1[H])C([H])([H])C([H])([H])C([H])([H])C2([H])N([H])C(=O)C1([H])N(C(=O)C([H])(N([H])C(=O)C([H])(N([H])C([H])([H])[H])C([H])([H])[H])C(C([H])([H])[H])(C([H])([H])[H])C([H])([H])[H])C([H])([H])c2c([H])c(OC([H])([H])C([H])([H])C3([H])C([H])([H])C([H])([H])C([H])(C([H])([H])C([H])([H])C(=O)N4C([H])([H])C([H])([H])C([H])([H])C([H])(n5nc(-c6c([H])c([H])c(Oc7c([H])c([H])c(F)c([H])c7F)c([H])c6[H])c(C(=O)N([H])[H])c5N([H])[H])C4([H])[H])[N+]([H])([H])C3([H])[H])c([H])c([H])c2C1([H])[H]

>  <smiles>  (38) 
[H]c1c([H])c([H])c2c(c1[H])C([H])([H])C([H])([H])C([H])([H])C2([H])N([H])C(=O)C1([H])N(C(=O)C([H])(N([H])C(=O)C([H])(N([H])C([H])([H])[H])C([H])([H])[H])C(C([H])([H])[H])(C([H])([H])[H])C([H])([H])[H])C([H])([H])c2c([H])c(OC([H])([H])C([H])([H])C3([H])C([H])([H])C([H])([H])C([H])(C([H])([H])C([H])([H])C(=O)N4C([H])([H])C([H])([H])C([H])([H])C([H])(n5nc(-c6c([H])c([H])c(Oc7c([H])c([H])c(F)c([H])c7F)c([H])c6[H])c(C(=O)N([H])[H])c5N([H])[H])C4([H])[H])[N+]([H])([H])C3([H])[H])c([H])c([H])c2C1([H])[H]

$$$$
39:0:0
     RDKit          3D

 87 95  0  0  1  0  0  0  0  0999 V2000
  -30.7640  -15.7730   19.8760 C   0  0  0  0  0  0  0  0  0  0  0  0
  -30.7080  -13.2530   18.9860 C   0  0  0  0  0  2  0  0  0  0  0  0
  -29.7340  -12.8830   17.8320 C   0  0  0  0  0  2  0  0  0  0  0  0
  -28.3490  -12.5160   18.3800 C   0  0  0  0  0  2  0  0  0  0  0  0
  -27.9200  -13.4920   19.5000 C   0  0  0  0  0  3  0  0  0  0  0  0
  -29.0270  -13.8030   20.5380 C   0  0  0  0  0  2  0  0  0  0  0  0
  -30.1650  -14.4320   19.8170 N   0  0  0  0  0  0  0  0  0  0  0  0
  -31.9550  -15.6420   19.5360 O   0  0  0  0  0  0  0  0  0  0  0  0
  -29.6010  -18.6360   19.5460 C   0  0  0  0  0  2  0  0  0  0  0  0
  -30.8650  -18.0200   21.3230 C   0  0  0  0  0  3  0  0  0  0  0  0
  -29.5520  -20.2590   20.4020 C   0  0  0  0  0  3  0  0  0  0  0  0
  -30.8650  -19.6580   21.0870 C   0  0  0  0  0  3  0  0  0  0  0  0
  -31.3910  -20.4400   22.3150 C   0  0  0  0  0  1  0  0  0  0  0  0
  -30.2290  -17.2080   20.2140 N   0  0  0  0  0  0  0  0  0  0  0  0
  -25.6340  -13.9890   20.4860 C   0  0  0  0  0  0  0  0  0  0  0  0
  -24.5970  -13.1930   20.8920 C   0  0  0  0  0  0  0  0  0  0  0  0
  -25.0500  -11.8460   20.7400 C   0  0  0  0  0  0  0  0  0  0  0  0
  -26.6470  -13.1270   20.1070 N   0  0  0  0  0  0  0  0  0  0  0  0
  -26.3140  -11.8270   20.3210 N   0  0  0  0  0  0  0  0  0  0  0  0
  -24.3220  -10.5780   20.9150 C   0  0  0  0  0  0  0  0  0  0  0  0
  -24.7080   -9.6310   21.8900 C   0  0  0  0  0  3  0  0  0  0  0  0
  -23.9760   -8.4330   22.0570 C   0  0  0  0  0  3  0  0  0  0  0  0
  -22.8450   -8.1770   21.2460 C   0  0  0  0  0  0  0  0  0  0  0  0
  -22.4810   -9.1110   20.2590 C   0  0  0  0  0  3  0  0  0  0  0  0
  -23.2120  -10.2980   20.0910 C   0  0  0  0  0  3  0  0  0  0  0  0
  -22.0930   -7.0290   21.3150 O   0  0  0  0  0  0  0  0  0  0  0  0
  -21.8330   -6.4070   22.5090 C   0  0  0  0  0  0  0  0  0  0  0  0
  -21.1530   -7.0650   23.5590 C   0  0  0  0  0  3  0  0  0  0  0  0
  -20.8470   -6.3680   24.7450 C   0  0  0  0  0  3  0  0  0  0  0  0
  -21.2130   -5.0160   24.8810 C   0  0  0  0  0  0  0  0  0  0  0  0
  -21.8850   -4.3580   23.8360 C   0  0  0  0  0  3  0  0  0  0  0  0
  -22.1920   -5.0520   22.6530 C   0  0  0  0  0  0  0  0  0  0  0  0
  -22.8190   -4.4070   21.6400 F   0  0  0  0  0  0  0  0  0  0  0  0
  -20.9130   -4.3440   26.0160 F   0  0  0  0  0  0  0  0  0  0  0  0
  -23.2320  -13.6660   21.2970 C   0  0  0  0  0  0  0  0  0  0  0  0
  -22.5840  -12.9460   22.2060 N   0  0  0  0  0  0  0  0  0  0  0  0
  -22.7510  -14.7020   20.8430 O   0  0  0  0  0  0  0  0  0  0  0  0
  -22.9960  -12.1130   22.5970 H   0  0  0  0  0  0  0  0  0  0  0  0
  -21.6650  -13.2320   22.5120 H   0  0  0  0  0  0  0  0  0  0  0  0
  -25.7960  -15.3660   20.3770 N   0  0  0  0  0  0  0  0  0  0  0  0
  -25.0450  -16.0150   20.5960 H   0  0  0  0  0  0  0  0  0  0  0  0
  -26.6210  -15.8300   20.0140 H   0  0  0  0  0  0  0  0  0  0  0  0
  -30.1940  -17.6560   22.6630 C   0  0  0  0  0  3  0  0  0  0  0  0
  -30.5700  -16.7260   23.3850 O   0  0  0  0  0  0  0  0  0  0  0  0
  -29.4490  -22.1720   19.9560 C   0  0  0  0  0  3  0  0  0  0  0  0
  -28.4110  -23.8220   20.1970 C   0  0  0  0  0  3  0  0  0  0  0  0
  -28.4630  -25.5930   20.0180 O   0  0  0  0  0  0  0  0  0  0  0  0
  -24.5970  -31.6740   22.9810 C   0  0  0  0  0  0  0  0  0  0  0  0
  -27.4150  -26.7520   19.9930 C   0  0  0  0  0  0  0  0  0  0  0  0
  -23.5070  -30.2650   21.2900 C   0  0  0  0  0  3  0  0  0  0  0  0
  -25.0560  -28.6940   19.8950 C   0  0  0  0  0  0  0  0  0  0  0  0
  -26.0840  -30.5080   21.2360 C   0  0  0  0  0  2  0  0  0  0  0  0
  -26.2220  -29.0910   20.5620 C   0  0  0  0  0  0  0  0  0  0  0  0
  -27.3860  -28.1560   20.5690 C   0  0  0  0  0  3  0  0  0  0  0  0
  -26.2060  -26.5680   19.2720 C   0  0  0  0  0  3  0  0  0  0  0  0
  -25.0870  -27.4590   19.2270 C   0  0  0  0  0  3  0  0  0  0  0  0
  -23.8120  -29.6000   19.9160 C   0  0  0  0  0  2  0  0  0  0  0  0
  -24.7500  -30.8500   21.8900 N   0  0  0  0  0  0  0  0  0  0  0  0
  -23.4810  -31.9220   23.4740 O   0  0  0  0  0  0  0  0  0  0  0  0
  -22.8080  -29.2420   22.2280 C   0  0  0  0  0  0  0  0  0  0  0  0
  -21.4780  -29.0700   22.0970 N   0  0  0  0  0  0  0  0  0  0  0  0
  -23.4720  -28.6060   23.0490 O   0  0  0  0  0  0  0  0  0  0  0  0
  -20.9940  -29.6440   21.4230 H   0  0  0  0  0  0  0  0  0  0  0  0
  -18.0980  -27.8260   22.6080 C   0  0  0  0  0  0  0  0  0  0  0  0
  -20.6630  -28.0910   22.8300 C   0  0  0  0  0  3  0  0  0  0  0  0
  -20.7530  -26.6890   22.1770 C   0  0  0  0  0  2  0  0  0  0  0  0
  -19.6320  -26.4180   21.1710 C   0  0  0  0  0  2  0  0  0  0  0  0
  -18.2640  -26.5200   21.8510 C   0  0  0  0  0  2  0  0  0  0  0  0
  -19.2230  -28.5720   23.0540 C   0  0  0  0  0  0  0  0  0  0  0  0
  -19.0110  -29.7930   23.7290 C   0  0  0  0  0  3  0  0  0  0  0  0
  -17.7070  -30.2690   23.9630 C   0  0  0  0  0  3  0  0  0  0  0  0
  -16.5970  -29.5220   23.5300 C   0  0  0  0  0  3  0  0  0  0  0  0
  -16.7940  -28.3030   22.8570 C   0  0  0  0  0  3  0  0  0  0  0  0
  -25.8130  -32.3630   23.6700 C   0  0  0  0  0  3  0  0  0  0  0  0
  -25.4260  -33.7420   24.0280 N   0  0  0  0  0  0  0  0  0  0  0  0
  -25.7020  -34.8370   23.3080 C   0  0  0  0  0  0  0  0  0  0  0  0
  -26.3700  -34.7990   22.2710 O   0  0  0  0  0  0  0  0  0  0  0  0
  -24.8310  -33.8420   24.8370 H   0  0  0  0  0  0  0  0  0  0  0  0
  -23.8710  -36.5550   23.0610 C   0  0  0  0  0  1  0  0  0  0  0  0
  -25.1580  -36.1910   23.8170 C   0  0  0  0  0  3  0  0  0  0  0  0
  -27.2630  -37.1890   24.5980 C   0  0  0  0  0  1  0  0  0  0  0  0
  -26.1270  -37.3020   23.6880 N   0  0  0  0  0  0  0  0  0  0  0  0
  -25.6740  -38.1960   23.8580 H   0  0  0  0  0  0  0  0  0  0  0  0
  -26.3070  -31.6020   24.9630 C   0  0  1  0  0  0  0  0  0  0  0  0
  -25.1800  -31.3140   25.9880 C   0  0  0  0  0  1  0  0  0  0  0  0
  -26.9550  -30.2490   24.5930 C   0  0  0  0  0  1  0  0  0  0  0  0
  -27.4030  -32.4320   25.6720 C   0  0  0  0  0  1  0  0  0  0  0  0
  1 14  1  0
  2  7  1  0
  3  4  1  0
  3  2  1  0
  5  4  1  0
  5 18  1  0
  5  6  1  0
  7  1  1  0
  7  6  1  0
  8  1  2  0
  9 14  1  0
  9 11  1  0
 10 43  1  0
 11 45  1  0
 11 12  1  0
 12 10  1  0
 12 13  1  0
 14 10  1  0
 15 16  2  0
 16 35  1  0
 17 16  1  0
 17 20  1  0
 18 19  1  0
 18 15  1  0
 19 17  2  0
 20 21  1  0
 21 22  2  0
 23 26  1  0
 23 22  1  0
 24 23  2  0
 25 24  1  0
 25 20  2  0
 26 27  1  0
 27 32  2  0
 27 28  1  0
 28 29  2  0
 29 30  1  0
 30 34  1  0
 31 30  2  0
 32 31  1  0
 33 32  1  0
 35 36  1  0
 36 39  1  0
 36 38  1  0
 37 35  2  0
 40 15  1  0
 40 41  1  0
 42 40  1  0
 43 44  2  0
 45 46  2  0
 47 46  1  0
 48 59  2  0
 49 47  1  0
 49 54  1  0
 50 58  1  0
 50 60  1  0
 51 57  1  0
 51 53  1  0
 52 58  1  0
 53 54  2  0
 53 52  1  0
 55 49  2  0
 56 55  1  0
 56 51  2  0
 57 50  1  0
 58 48  1  0
 60 62  2  0
 61 60  1  0
 63 61  1  0
 64 73  2  0
 64 69  1  0
 65 61  1  0
 65 69  1  0
 66 65  1  0
 67 68  1  0
 67 66  1  0
 68 64  1  0
 69 70  2  0
 70 71  1  0
 72 71  2  0
 73 72  1  0
 74 48  1  0
 74 75  1  0
 74 84  1  0
 75 78  1  0
 76 80  1  0
 76 75  1  0
 77 76  2  0
 80 79  1  0
 82 80  1  0
 82 83  1  0
 82 81  1  0
 84 87  1  1
 84 85  1  0
 86 84  1  0
M  ISO  4   1 100  14 100  46 101  47 101
M  END
>  <TORSDO>  (39) 
F 18

>  <SCORE>  (39) 
-14.622

>  <name>  (39) 
39

>  <ligand_id>  (39) 
39

>  <original_smiles>  (39) 
[H]C(=O)C1([H])N(C(=O)N2C([H])([H])C([H])([H])C([H])([H])C([H])(n3nc(-c4c([H])c([H])c(Oc5c([H])c([H])c(F)c([H])c5F)c([H])c4[H])c(C(=O)N([H])[H])c3N([H])[H])C2([H])[H])C([H])([H])C([H])(C([H])([H])C([H])([H])Oc2c([H])c([H])c3c(c2[H])C([H])([H])N(C(=O)C([H])(N([H])C(=O)C([H])(N([H])C([H])([H])[H])C([H])([H])[H])C(C([H])([H])[H])(C([H])([H])[H])C([H])([H])[H])C([H])(C(=O)N([H])C2([H])c4c([H])c([H])c([H])c([H])c4C([H])([H])C([H])([H])C2([H])[H])C3([H])[H])C1([H])C([H])([H])[H]

>  <smiles>  (39) 
[H]C(=O)C1([H])N(C(=O)N2C([H])([H])C([H])([H])C([H])([H])C([H])(n3nc(-c4c([H])c([H])c(Oc5c([H])c([H])c(F)c([H])c5F)c([H])c4[H])c(C(=O)N([H])[H])c3N([H])[H])C2([H])[H])C([H])([H])C([H])(C([H])([H])C([H])([H])Oc2c([H])c([H])c3c(c2[H])C([H])([H])N(C(=O)C([H])(N([H])C(=O)C([H])(N([H])C([H])([H])[H])C([H])([H])[H])C(C([H])([H])[H])(C([H])([H])[H])C([H])([H])[H])C([H])(C(=O)N([H])C2([H])c4c([H])c([H])c([H])c([H])c4C([H])([H])C([H])([H])C2([H])[H])C3([H])[H])C1([H])C([H])([H])[H]

$$$$
40:0:0
     RDKit          3D

 91 99  0  0  1  0  0  0  0  0999 V2000
  -27.4640  -21.7870   20.5290 C   0  0  0  0  0  2  0  0  0  0  0  0
  -27.9930  -20.2730   20.5940 C   0  0  0  0  0  2  0  0  0  0  0  0
  -29.5830  -21.6180   19.5870 C   0  0  0  0  0  2  0  0  0  0  0  0
  -28.3900  -22.8130   19.7660 C   0  0  0  0  0  3  0  0  0  0  0  0
  -29.0690  -19.9930   19.5130 C   0  0  0  0  0  3  0  0  0  0  0  0
  -28.3000  -24.4650   20.4480 C   0  0  0  0  0  2  0  0  0  0  0  0
  -28.4340  -26.0260   20.0180 O   0  0  0  0  0  0  0  0  0  0  0  0
  -24.7500  -31.8170   23.1210 C   0  0  0  0  0  0  0  0  0  0  0  0
  -27.3780  -27.0580   20.0560 C   0  0  0  0  0  0  0  0  0  0  0  0
  -23.5730  -30.4210   21.4690 C   0  0  0  0  0  3  0  0  0  0  0  0
  -25.0420  -28.8600   20.0310 C   0  0  0  0  0  0  0  0  0  0  0  0
  -26.1330  -30.6900   21.3140 C   0  0  0  0  0  2  0  0  0  0  0  0
  -26.2250  -29.2930   20.6450 C   0  0  0  0  0  0  0  0  0  0  0  0
  -27.3930  -28.4160   20.6250 C   0  0  0  0  0  3  0  0  0  0  0  0
  -26.1610  -26.7530   19.4110 C   0  0  0  0  0  3  0  0  0  0  0  0
  -25.0320  -27.6090   19.3920 C   0  0  0  0  0  3  0  0  0  0  0  0
  -23.8070  -29.7550   20.0860 C   0  0  0  0  0  2  0  0  0  0  0  0
  -24.8400  -31.0010   22.0220 N   0  0  0  0  0  0  0  0  0  0  0  0
  -23.6580  -32.0840   23.6470 O   0  0  0  0  0  0  0  0  0  0  0  0
  -22.8990  -29.4010   22.4230 C   0  0  0  0  0  0  0  0  0  0  0  0
  -21.5700  -29.2260   22.3040 N   0  0  0  0  0  0  0  0  0  0  0  0
  -23.5780  -28.7670   23.2350 O   0  0  0  0  0  0  0  0  0  0  0  0
  -21.0770  -29.7930   21.6280 H   0  0  0  0  0  0  0  0  0  0  0  0
  -18.2020  -27.9810   22.8170 C   0  0  0  0  0  0  0  0  0  0  0  0
  -20.7600  -28.2690   23.0660 C   0  0  0  0  0  3  0  0  0  0  0  0
  -20.8710  -26.8460   22.4700 C   0  0  0  0  0  2  0  0  0  0  0  0
  -19.7650  -26.5280   21.4590 C   0  0  0  0  0  2  0  0  0  0  0  0
  -18.3870  -26.6470   22.1140 C   0  0  0  0  0  2  0  0  0  0  0  0
  -19.3150  -28.7510   23.2480 C   0  0  0  0  0  0  0  0  0  0  0  0
  -19.0840  -29.9990   23.8650 C   0  0  0  0  0  3  0  0  0  0  0  0
  -17.7740  -30.4780   24.0560 C   0  0  0  0  0  3  0  0  0  0  0  0
  -16.6770  -29.7050   23.6390 C   0  0  0  0  0  3  0  0  0  0  0  0
  -16.8910  -28.4600   23.0240 C   0  0  0  0  0  3  0  0  0  0  0  0
  -26.0130  -32.4690   23.7590 C   0  0  0  0  0  3  0  0  0  0  0  0
  -25.6720  -33.8560   24.1200 N   0  0  0  0  0  0  0  0  0  0  0  0
  -25.9740  -34.9370   23.3880 C   0  0  0  0  0  0  0  0  0  0  0  0
  -26.6320  -34.8720   22.3460 O   0  0  0  0  0  0  0  0  0  0  0  0
  -25.0850  -33.9770   24.9320 H   0  0  0  0  0  0  0  0  0  0  0  0
  -24.2050  -36.7100   23.1090 C   0  0  0  0  0  1  0  0  0  0  0  0
  -25.4680  -36.3050   23.8890 C   0  0  0  0  0  3  0  0  0  0  0  0
  -27.5980  -37.2140   24.7080 C   0  0  0  0  0  1  0  0  0  0  0  0
  -26.4770  -37.3830   23.7870 N   0  0  0  0  0  0  0  0  0  0  0  0
  -26.0550  -38.2890   23.9670 H   0  0  0  0  0  0  0  0  0  0  0  0
  -26.5390  -31.6930   25.0300 C   0  0  1  0  0  0  0  0  0  0  0  0
  -25.4440  -31.4200   26.0900 C   0  0  0  0  0  1  0  0  0  0  0  0
  -27.1510  -30.3300   24.6310 C   0  0  0  0  0  1  0  0  0  0  0  0
  -27.6720  -32.5010   25.7050 C   0  0  0  0  0  1  0  0  0  0  0  0
  -30.0180  -18.4720   19.4370 C   0  0  0  0  0  3  0  0  0  0  0  0
  -30.6410  -18.4740   18.1010 N   0  0  0  0  0  4  0  0  0  0  0  0
  -29.9620  -18.2860   17.3850 H   0  0  0  0  0  0  0  0  0  0  0  0
  -31.3650  -17.7790   18.0450 H   0  0  0  0  0  0  0  0  0  0  0  0
  -31.0580  -19.3680   17.9100 H   0  0  0  0  0  0  0  0  0  0  0  0
  -29.6940  -16.7580   19.8450 C   0  0  0  0  0  3  0  0  0  0  0  0
  -30.4560  -15.2750   19.3210 C   0  0  0  0  0  0  0  0  0  0  0  0
  -30.2970  -12.8720   18.3650 C   0  0  0  0  0  2  0  0  0  0  0  0
  -29.1770  -12.7500   17.2980 C   0  0  0  0  0  2  0  0  0  0  0  0
  -27.8110  -12.4790   17.9560 C   0  0  0  0  0  2  0  0  0  0  0  0
  -27.5710  -13.3920   19.1830 C   0  0  0  0  0  3  0  0  0  0  0  0
  -28.7930  -13.4440   20.1210 C   0  0  0  0  0  2  0  0  0  0  0  0
  -29.9260  -13.9580   19.3370 N   0  0  0  0  0  0  0  0  0  0  0  0
  -31.5740  -15.3360   18.7900 O   0  0  0  0  0  0  0  0  0  0  0  0
  -25.4080  -13.9330   20.4260 C   0  0  0  0  0  0  0  0  0  0  0  0
  -24.3970  -13.1510   20.9100 C   0  0  0  0  0  0  0  0  0  0  0  0
  -24.7830  -11.8000   20.6470 C   0  0  0  0  0  0  0  0  0  0  0  0
  -26.3430  -13.0630   19.8950 N   0  0  0  0  0  0  0  0  0  0  0  0
  -25.9890  -11.7660   20.0920 N   0  0  0  0  0  0  0  0  0  0  0  0
  -24.0430  -10.5450   20.8380 C   0  0  0  0  0  0  0  0  0  0  0  0
  -24.5490   -9.5030   21.6450 C   0  0  0  0  0  3  0  0  0  0  0  0
  -23.8070   -8.3170   21.8310 C   0  0  0  0  0  3  0  0  0  0  0  0
  -22.5450   -8.1640   21.2100 C   0  0  0  0  0  0  0  0  0  0  0  0
  -22.0550   -9.1950   20.3910 C   0  0  0  0  0  3  0  0  0  0  0  0
  -22.7970  -10.3730   20.2030 C   0  0  0  0  0  3  0  0  0  0  0  0
  -21.7660   -7.0360   21.3120 O   0  0  0  0  0  0  0  0  0  0  0  0
  -21.7660   -6.2600   22.4430 C   0  0  0  0  0  0  0  0  0  0  0  0
  -21.4480   -6.7940   23.7110 C   0  0  0  0  0  3  0  0  0  0  0  0
  -21.3920   -5.9470   24.8370 C   0  0  0  0  0  3  0  0  0  0  0  0
  -21.6460   -4.5690   24.6960 C   0  0  0  0  0  0  0  0  0  0  0  0
  -21.9590   -4.0360   23.4330 C   0  0  0  0  0  3  0  0  0  0  0  0
  -22.0160   -4.8800   22.3100 C   0  0  0  0  0  0  0  0  0  0  0  0
  -22.2970   -4.3570   21.0910 F   0  0  0  0  0  0  0  0  0  0  0  0
  -21.5860   -3.7550   25.7750 F   0  0  0  0  0  0  0  0  0  0  0  0
  -23.1010  -13.6350   21.4880 C   0  0  0  0  0  0  0  0  0  0  0  0
  -22.5260  -12.8810   22.4210 N   0  0  0  0  0  0  0  0  0  0  0  0
  -22.6130  -14.7130   21.1510 O   0  0  0  0  0  0  0  0  0  0  0  0
  -22.9380  -12.0060   22.7120 H   0  0  0  0  0  0  0  0  0  0  0  0
  -21.6630  -13.1850   22.8480 H   0  0  0  0  0  0  0  0  0  0  0  0
  -25.6000  -15.3100   20.3690 N   0  0  0  0  0  0  0  0  0  0  0  0
  -24.9160  -15.9670   20.7290 H   0  0  0  0  0  0  0  0  0  0  0  0
  -26.4060  -15.7630   19.9610 H   0  0  0  0  0  0  0  0  0  0  0  0
  -28.3230  -16.7670   22.0790 C   0  0  0  0  0  1  0  0  0  0  0  0
  -29.7020  -16.6880   21.4030 C   0  0  0  0  0  2  0  0  0  0  0  0
  1  2  1  0
  3  4  1  0
  4  6  1  0
  4  1  1  0
  5 48  1  0
  5  3  1  0
  5  2  1  0
  7  9  1  0
  7  6  1  0
  8 19  2  0
  9 14  1  0
 10 18  1  0
 10 20  1  0
 11 17  1  0
 11 13  1  0
 12 18  1  0
 13 12  1  0
 14 13  2  0
 15  9  2  0
 16 15  1  0
 16 11  2  0
 17 10  1  0
 18  8  1  0
 20 22  2  0
 21 20  1  0
 23 21  1  0
 24 33  2  0
 24 29  1  0
 25 21  1  0
 25 29  1  0
 26 25  1  0
 27 28  1  0
 27 26  1  0
 28 24  1  0
 29 30  2  0
 30 31  1  0
 32 31  2  0
 33 32  1  0
 34  8  1  0
 34 35  1  0
 34 44  1  0
 35 38  1  0
 36 40  1  0
 36 35  1  0
 37 36  2  0
 40 39  1  0
 42 40  1  0
 42 43  1  0
 42 41  1  0
 44 47  1  1
 44 45  1  0
 46 44  1  0
 48 49  1  0
 48 53  1  0
 50 49  1  0
 51 49  1  0
 52 49  1  0
 53 91  1  0
 54 60  1  0
 54 53  1  0
 55 60  1  0
 56 57  1  0
 56 55  1  0
 58 57  1  0
 58 65  1  0
 58 59  1  0
 60 59  1  0
 61 54  2  0
 62 63  2  0
 63 82  1  0
 64 67  1  0
 64 63  1  0
 65 66  1  0
 65 62  1  0
 66 64  2  0
 67 68  1  0
 68 69  2  0
 70 73  1  0
 70 69  1  0
 71 70  2  0
 72 71  1  0
 72 67  2  0
 73 74  1  0
 74 75  1  0
 75 76  2  0
 77 76  1  0
 77 81  1  0
 78 77  2  0
 79 74  2  0
 79 78  1  0
 80 79  1  0
 82 83  1  0
 83 85  1  0
 83 86  1  0
 84 82  2  0
 87 62  1  0
 87 88  1  0
 89 87  1  0
 91 90  1  0
M  ISO  4   6 101   7 101  53 100  54 100
M  END
>  <TORSDO>  (40) 
F 21

>  <SCORE>  (40) 
-10.788

>  <name>  (40) 
40

>  <ligand_id>  (40) 
40

>  <original_smiles>  (40) 
[H]c1c([H])c([H])c2c(c1[H])C([H])([H])C([H])([H])C([H])([H])C2([H])N([H])C(=O)C1([H])N(C(=O)C([H])(N([H])C(=O)C([H])(N([H])C([H])([H])[H])C([H])([H])[H])C(C([H])([H])[H])(C([H])([H])[H])C([H])([H])[H])C([H])([H])c2c([H])c(OC([H])([H])C3([H])C([H])([H])C([H])([H])C([H])(C([H])(C([H])(C(=O)N4C([H])([H])C([H])([H])C([H])([H])C([H])(n5nc(-c6c([H])c([H])c(Oc7c([H])c([H])c(F)c([H])c7F)c([H])c6[H])c(C(=O)N([H])[H])c5N([H])[H])C4([H])[H])C([H])([H])C([H])([H])[H])[N+]([H])([H])[H])C3([H])[H])c([H])c([H])c2C1([H])[H]

>  <smiles>  (40) 
[H]c1c([H])c([H])c2c(c1[H])C([H])([H])C([H])([H])C([H])([H])C2([H])N([H])C(=O)C1([H])N(C(=O)C([H])(N([H])C(=O)C([H])(N([H])C([H])([H])[H])C([H])([H])[H])C(C([H])([H])[H])(C([H])([H])[H])C([H])([H])[H])C([H])([H])c2c([H])c(OC([H])([H])C3([H])C([H])([H])C([H])([H])C([H])(C([H])(C([H])(C(=O)N4C([H])([H])C([H])([H])C([H])([H])C([H])(n5nc(-c6c([H])c([H])c(Oc7c([H])c([H])c(F)c([H])c7F)c([H])c6[H])c(C(=O)N([H])[H])c5N([H])[H])C4([H])[H])C([H])([H])C([H])([H])[H])[N+]([H])([H])[H])C3([H])[H])c([H])c([H])c2C1([H])[H]

$$$$
41:0:0
     RDKit          3D

 90 98  0  0  1  0  0  0  0  0999 V2000
  -30.4100  -15.6530   20.3020 C   0  0  0  0  0  0  0  0  0  0  0  0
  -30.4340  -13.0920   19.5360 C   0  0  0  0  0  2  0  0  0  0  0  0
  -29.5890  -12.6260   18.3190 C   0  0  0  0  0  2  0  0  0  0  0  0
  -28.1530  -12.2990   18.7500 C   0  0  0  0  0  2  0  0  0  0  0  0
  -27.6120  -13.3500   19.7460 C   0  0  0  0  0  3  0  0  0  0  0  0
  -28.6100  -13.7330   20.8660 C   0  0  0  0  0  2  0  0  0  0  0  0
  -29.7950  -14.3260   20.1950 N   0  0  0  0  0  0  0  0  0  0  0  0
  -31.6410  -15.4490   20.2420 O   0  0  0  0  0  0  0  0  0  0  0  0
  -30.5920  -19.6640   19.3960 C   0  0  0  0  0  2  0  0  0  0  0  0
  -30.7150  -18.0510   19.1630 C   0  0  0  0  0  2  0  0  0  0  0  0
  -29.1840  -20.1830   19.8400 C   0  0  0  0  0  3  0  0  0  0  0  0
  -29.0880  -18.5080   20.5970 C   0  0  0  0  0  3  0  0  0  0  0  0
  -29.8930  -17.1220   20.0260 N   0  0  0  0  0  0  0  0  0  0  0  0
  -25.2310  -13.9010   20.4290 C   0  0  0  0  0  0  0  0  0  0  0  0
  -24.1580  -13.1380   20.7810 C   0  0  0  0  0  0  0  0  0  0  0  0
  -24.6240  -11.7880   20.7990 C   0  0  0  0  0  0  0  0  0  0  0  0
  -26.2810  -13.0250   20.2410 N   0  0  0  0  0  0  0  0  0  0  0  0
  -25.9280  -11.7450   20.5330 N   0  0  0  0  0  0  0  0  0  0  0  0
  -23.8820  -10.5360   20.9940 C   0  0  0  0  0  0  0  0  0  0  0  0
  -24.2850   -9.5790   21.9490 C   0  0  0  0  0  3  0  0  0  0  0  0
  -23.5390   -8.3960   22.1350 C   0  0  0  0  0  3  0  0  0  0  0  0
  -22.3740   -8.1620   21.3670 C   0  0  0  0  0  0  0  0  0  0  0  0
  -21.9880   -9.1080   20.4010 C   0  0  0  0  0  3  0  0  0  0  0  0
  -22.7360  -10.2830   20.2120 C   0  0  0  0  0  3  0  0  0  0  0  0
  -21.6010   -7.0290   21.4610 O   0  0  0  0  0  0  0  0  0  0  0  0
  -21.5420   -6.2930   22.6170 C   0  0  0  0  0  0  0  0  0  0  0  0
  -21.1500   -6.8670   23.8460 C   0  0  0  0  0  3  0  0  0  0  0  0
  -21.0360   -6.0590   24.9950 C   0  0  0  0  0  3  0  0  0  0  0  0
  -21.3050   -4.6790   24.9160 C   0  0  0  0  0  0  0  0  0  0  0  0
  -21.6920   -4.1060   23.6910 C   0  0  0  0  0  3  0  0  0  0  0  0
  -21.8070   -4.9110   22.5450 C   0  0  0  0  0  0  0  0  0  0  0  0
  -22.1590   -4.3500   21.3620 F   0  0  0  0  0  0  0  0  0  0  0  0
  -21.1880   -3.9000   26.0170 F   0  0  0  0  0  0  0  0  0  0  0  0
  -22.7540  -13.6310   20.9740 C   0  0  0  0  0  0  0  0  0  0  0  0
  -21.9920  -12.9770   21.8420 N   0  0  0  0  0  0  0  0  0  0  0  0
  -22.3450  -14.6340   20.3910 O   0  0  0  0  0  0  0  0  0  0  0  0
  -22.3390  -12.1680   22.3340 H   0  0  0  0  0  0  0  0  0  0  0  0
  -21.0490  -13.2900   22.0180 H   0  0  0  0  0  0  0  0  0  0  0  0
  -25.3860  -15.2610   20.2160 N   0  0  0  0  0  0  0  0  0  0  0  0
  -24.5750  -15.8710   20.2300 H   0  0  0  0  0  0  0  0  0  0  0  0
  -26.1690  -15.6690   19.7110 H   0  0  0  0  0  0  0  0  0  0  0  0
  -27.6030  -18.1680   20.8310 C   0  0  0  0  0  2  0  0  0  0  0  0
  -26.8230  -18.0040   19.5230 C   0  0  0  0  0  0  0  0  0  0  0  0
  -25.8430  -18.8640   19.2640 N   0  0  0  0  0  0  0  0  0  0  0  0
  -27.0920  -17.0940   18.7420 O   0  0  0  0  0  0  0  0  0  0  0  0
  -25.6230  -19.6080   19.9120 H   0  0  0  0  0  0  0  0  0  0  0  0
  -25.3150  -18.7900   18.4070 H   0  0  0  0  0  0  0  0  0  0  0  0
  -28.9640  -22.0640   20.3130 C   0  0  0  0  0  3  0  0  0  0  0  0
  -28.2350  -23.7710   19.7150 C   0  0  0  0  0  3  0  0  0  0  0  0
  -28.2730  -25.5070   20.0310 O   0  0  0  0  0  0  0  0  0  0  0  0
  -24.6210  -31.6900   22.9640 C   0  0  0  0  0  0  0  0  0  0  0  0
  -27.2740  -26.6950   19.9400 C   0  0  0  0  0  0  0  0  0  0  0  0
  -23.4690  -30.2760   21.3150 C   0  0  0  0  0  3  0  0  0  0  0  0
  -24.9560  -28.6710   19.8910 C   0  0  0  0  0  0  0  0  0  0  0  0
  -26.0430  -30.4790   21.2000 C   0  0  0  0  0  2  0  0  0  0  0  0
  -26.1400  -29.0530   20.5320 C   0  0  0  0  0  0  0  0  0  0  0  0
  -27.2790  -28.0910   20.5280 C   0  0  0  0  0  3  0  0  0  0  0  0
  -26.0530  -26.5240   19.2370 C   0  0  0  0  0  3  0  0  0  0  0  0
  -24.9510  -27.4340   19.2200 C   0  0  0  0  0  3  0  0  0  0  0  0
  -23.7260  -29.5930   19.9390 C   0  0  0  0  0  2  0  0  0  0  0  0
  -24.7330  -30.8480   21.8780 N   0  0  0  0  0  0  0  0  0  0  0  0
  -23.5210  -31.9610   23.4750 O   0  0  0  0  0  0  0  0  0  0  0  0
  -22.7730  -29.2770   22.2780 C   0  0  0  0  0  0  0  0  0  0  0  0
  -21.4390  -29.1230   22.1760 N   0  0  0  0  0  0  0  0  0  0  0  0
  -23.4450  -28.6380   23.0920 O   0  0  0  0  0  0  0  0  0  0  0  0
  -20.9440  -29.6900   21.5020 H   0  0  0  0  0  0  0  0  0  0  0  0
  -18.0590  -27.9140   22.7470 C   0  0  0  0  0  0  0  0  0  0  0  0
  -20.6270  -28.1700   22.9440 C   0  0  0  0  0  3  0  0  0  0  0  0
  -20.7060  -26.7530   22.3300 C   0  0  0  0  0  2  0  0  0  0  0  0
  -19.5750  -26.4610   21.3370 C   0  0  0  0  0  2  0  0  0  0  0  0
  -18.2120  -26.5880   22.0230 C   0  0  0  0  0  2  0  0  0  0  0  0
  -19.1910  -28.6640   23.1650 C   0  0  0  0  0  0  0  0  0  0  0  0
  -18.9880  -29.9050   23.8090 C   0  0  0  0  0  3  0  0  0  0  0  0
  -17.6890  -30.3950   24.0350 C   0  0  0  0  0  3  0  0  0  0  0  0
  -16.5720  -29.6430   23.6290 C   0  0  0  0  0  3  0  0  0  0  0  0
  -16.7580  -28.4040   22.9910 C   0  0  0  0  0  3  0  0  0  0  0  0
  -25.8680  -32.3630   23.6120 C   0  0  0  0  0  3  0  0  0  0  0  0
  -26.4140  -31.5760   24.8680 C   0  0  1  0  0  0  0  0  0  0  0  0
  -25.3340  -31.2800   25.9370 C   0  0  0  0  0  1  0  0  0  0  0  0
  -27.0370  -30.2260   24.4500 C   0  0  0  0  0  1  0  0  0  0  0  0
  -27.5440  -32.3870   25.5450 C   0  0  0  0  0  1  0  0  0  0  0  0
  -25.4970  -33.7360   24.0090 N   0  0  0  0  0  0  0  0  0  0  0  0
  -25.7830  -34.8460   23.3150 C   0  0  0  0  0  0  0  0  0  0  0  0
  -26.4470  -34.8240   22.2760 O   0  0  0  0  0  0  0  0  0  0  0  0
  -24.9050  -33.8240   24.8220 H   0  0  0  0  0  0  0  0  0  0  0  0
  -23.9870  -36.5980   23.0880 C   0  0  0  0  0  1  0  0  0  0  0  0
  -25.2550  -36.1910   23.8560 C   0  0  0  0  0  3  0  0  0  0  0  0
  -27.3700  -37.1130   24.7000 C   0  0  0  0  0  1  0  0  0  0  0  0
  -26.2460  -37.2880   23.7850 N   0  0  0  0  0  0  0  0  0  0  0  0
  -25.8070  -38.1840   23.9880 H   0  0  0  0  0  0  0  0  0  0  0  0
  2  7  1  0
  3  4  1  0
  3  2  1  0
  5  4  1  0
  5 17  1  0
  5  6  1  0
  7  1  1  0
  7  6  1  0
  8  1  2  0
  9 11  1  0
 10  9  1  0
 10 13  1  0
 11 48  1  0
 11 12  1  0
 12 42  1  0
 13  1  1  0
 13 12  1  0
 14 15  2  0
 15 16  1  0
 15 34  1  0
 16 19  1  0
 17 14  1  0
 17 18  1  0
 18 16  2  0
 19 20  1  0
 20 21  2  0
 22 25  1  0
 22 21  1  0
 23 22  2  0
 24 23  1  0
 24 19  2  0
 25 26  1  0
 26 27  1  0
 27 28  2  0
 29 28  1  0
 29 33  1  0
 30 29  2  0
 31 26  2  0
 31 30  1  0
 32 31  1  0
 34 35  1  0
 35 38  1  0
 35 37  1  0
 36 34  2  0
 39 40  1  0
 39 14  1  0
 41 39  1  0
 43 42  1  0
 44 43  1  0
 44 46  1  0
 45 43  2  0
 47 44  1  0
 49 50  1  0
 49 48  2  0
 51 62  2  0
 52 50  1  0
 52 57  1  0
 53 61  1  0
 53 63  1  0
 54 60  1  0
 54 56  1  0
 55 61  1  0
 56 55  1  0
 57 56  2  0
 58 52  2  0
 59 58  1  0
 59 54  2  0
 60 53  1  0
 61 51  1  0
 63 65  2  0
 64 63  1  0
 66 64  1  0
 67 76  2  0
 67 72  1  0
 68 64  1  0
 68 72  1  0
 69 68  1  0
 70 71  1  0
 70 69  1  0
 71 67  1  0
 72 73  2  0
 73 74  1  0
 75 74  2  0
 76 75  1  0
 77 51  1  0
 77 82  1  0
 77 78  1  0
 78 81  1  1
 78 79  1  0
 80 78  1  0
 82 85  1  0
 83 87  1  0
 83 82  1  0
 84 83  2  0
 87 86  1  0
 89 87  1  0
 89 90  1  0
 89 88  1  0
M  ISO  4   1 100  13 100  49 101  50 101
M  END
>  <TORSDO>  (41) 
F 19

>  <SCORE>  (41) 
-14.433

>  <name>  (41) 
41

>  <ligand_id>  (41) 
41

>  <original_smiles>  (41) 
[H]c1c([H])c([H])c2c(c1[H])C([H])([H])C([H])([H])C([H])([H])C2([H])N([H])C(=O)C1([H])N(C(=O)C([H])(N([H])C(=O)C([H])(N([H])C([H])([H])[H])C([H])([H])[H])C(C([H])([H])[H])(C([H])([H])[H])C([H])([H])[H])C([H])([H])c2c([H])c(OC([H])([H])C([H])([H])C3([H])C([H])([H])C([H])([H])N(C(=O)N4C([H])([H])C([H])([H])C([H])([H])C([H])(n5nc(-c6c([H])c([H])c(Oc7c([H])c([H])c(F)c([H])c7F)c([H])c6[H])c(C(=O)N([H])[H])c5N([H])[H])C4([H])[H])C3([H])C([H])([H])C(=O)N([H])[H])c([H])c([H])c2C1([H])[H]

>  <smiles>  (41) 
[H]c1c([H])c([H])c2c(c1[H])C([H])([H])C([H])([H])C([H])([H])C2([H])N([H])C(=O)C1([H])N(C(=O)C([H])(N([H])C(=O)C([H])(N([H])C([H])([H])[H])C([H])([H])[H])C(C([H])([H])[H])(C([H])([H])[H])C([H])([H])[H])C([H])([H])c2c([H])c(OC([H])([H])C([H])([H])C3([H])C([H])([H])C([H])([H])N(C(=O)N4C([H])([H])C([H])([H])C([H])([H])C([H])(n5nc(-c6c([H])c([H])c(Oc7c([H])c([H])c(F)c([H])c7F)c([H])c6[H])c(C(=O)N([H])[H])c5N([H])[H])C4([H])[H])C3([H])C([H])([H])C(=O)N([H])[H])c([H])c([H])c2C1([H])[H]

$$$$
42:0:0
     RDKit          3D

 89 97  0  0  1  0  0  0  0  0999 V2000
  -29.0390  -20.2800   18.7750 C   0  0  0  0  0  2  0  0  0  0  0  0
  -28.9820  -21.8270   18.7230 C   0  0  0  0  0  2  0  0  0  0  0  0
  -29.7420  -21.1740   20.9050 C   0  0  0  0  0  2  0  0  0  0  0  0
  -29.9240  -19.8900   19.9780 C   0  0  0  0  0  3  0  0  0  0  0  0
  -28.8870  -22.2980   20.1800 C   0  0  0  0  0  3  0  0  0  0  0  0
  -29.5850  -18.4500   20.5670 C   0  0  0  0  0  0  0  0  0  0  0  0
  -30.3370  -17.3350   20.2830 N   0  0  0  0  0  0  0  0  0  0  0  0
  -28.6010  -18.3460   21.3010 O   0  0  0  0  0  0  0  0  0  0  0  0
  -31.1440  -17.4430   19.6810 H   0  0  0  0  0  0  0  0  0  0  0  0
  -30.0610  -15.9240   20.7670 C   0  0  0  0  0  2  0  0  0  0  0  0
  -30.7640  -14.6800   20.0640 C   0  0  0  0  0  0  0  0  0  0  0  0
  -30.4930  -12.4750   18.9210 C   0  0  0  0  0  2  0  0  0  0  0  0
  -29.4710  -12.6460   17.7720 C   0  0  0  0  0  2  0  0  0  0  0  0
  -28.0270  -12.4670   18.2840 C   0  0  0  0  0  2  0  0  0  0  0  0
  -27.7500  -13.2820   19.5760 C   0  0  0  0  0  3  0  0  0  0  0  0
  -28.8780  -13.0870   20.6130 C   0  0  0  0  0  2  0  0  0  0  0  0
  -30.1480  -13.4550   19.9730 N   0  0  0  0  0  0  0  0  0  0  0  0
  -31.8690  -14.8580   19.5410 O   0  0  0  0  0  0  0  0  0  0  0  0
  -25.4070  -13.8570   20.4600 C   0  0  0  0  0  0  0  0  0  0  0  0
  -24.3650  -13.0720   20.8740 C   0  0  0  0  0  0  0  0  0  0  0  0
  -24.8240  -11.7230   20.7760 C   0  0  0  0  0  0  0  0  0  0  0  0
  -26.4340  -12.9850   20.1360 N   0  0  0  0  0  0  0  0  0  0  0  0
  -26.0930  -11.6950   20.3860 N   0  0  0  0  0  0  0  0  0  0  0  0
  -24.1100  -10.4550   20.9760 C   0  0  0  0  0  0  0  0  0  0  0  0
  -24.5560   -9.4960   21.9120 C   0  0  0  0  0  3  0  0  0  0  0  0
  -23.8430   -8.2930   22.0990 C   0  0  0  0  0  3  0  0  0  0  0  0
  -22.6690   -8.0400   21.3510 C   0  0  0  0  0  0  0  0  0  0  0  0
  -22.2410   -8.9870   20.4040 C   0  0  0  0  0  3  0  0  0  0  0  0
  -22.9560  -10.1820   20.2150 C   0  0  0  0  0  3  0  0  0  0  0  0
  -21.9250   -6.8880   21.4460 O   0  0  0  0  0  0  0  0  0  0  0  0
  -21.8310   -6.1880   22.6230 C   0  0  0  0  0  0  0  0  0  0  0  0
  -21.2890   -6.7650   23.7920 C   0  0  0  0  0  3  0  0  0  0  0  0
  -21.1470   -5.9880   24.9600 C   0  0  0  0  0  3  0  0  0  0  0  0
  -21.5370   -4.6360   24.9570 C   0  0  0  0  0  0  0  0  0  0  0  0
  -22.0720   -4.0580   23.7930 C   0  0  0  0  0  3  0  0  0  0  0  0
  -22.2150   -4.8320   22.6270 C   0  0  0  0  0  0  0  0  0  0  0  0
  -22.7110   -4.2650   21.5020 F   0  0  0  0  0  0  0  0  0  0  0  0
  -21.3940   -3.8870   26.0760 F   0  0  0  0  0  0  0  0  0  0  0  0
  -22.9880  -13.5400   21.2470 C   0  0  0  0  0  0  0  0  0  0  0  0
  -22.3130  -12.8140   22.1310 N   0  0  0  0  0  0  0  0  0  0  0  0
  -22.5210  -14.5820   20.7900 O   0  0  0  0  0  0  0  0  0  0  0  0
  -22.7040  -11.9690   22.5220 H   0  0  0  0  0  0  0  0  0  0  0  0
  -21.3910  -13.1080   22.4230 H   0  0  0  0  0  0  0  0  0  0  0  0
  -25.5600  -15.2320   20.3110 N   0  0  0  0  0  0  0  0  0  0  0  0
  -24.8060  -15.8840   20.4950 H   0  0  0  0  0  0  0  0  0  0  0  0
  -26.3940  -15.6850   19.9570 H   0  0  0  0  0  0  0  0  0  0  0  0
  -29.2090  -23.8550   20.4350 C   0  0  0  0  0  3  0  0  0  0  0  0
  -28.1520  -24.9530   19.9470 C   0  0  0  0  0  3  0  0  0  0  0  0
  -28.3590  -26.4050   20.2120 O   0  0  0  0  0  0  0  0  0  0  0  0
  -24.6200  -31.8300   23.1870 C   0  0  0  0  0  0  0  0  0  0  0  0
  -27.2460  -27.2680   20.1390 C   0  0  0  0  0  0  0  0  0  0  0  0
  -23.4240  -30.4360   21.5390 C   0  0  0  0  0  3  0  0  0  0  0  0
  -24.8820  -28.8890   20.1160 C   0  0  0  0  0  0  0  0  0  0  0  0
  -25.9650  -30.7510   21.3700 C   0  0  0  0  0  2  0  0  0  0  0  0
  -26.0490  -29.3730   20.7210 C   0  0  0  0  0  0  0  0  0  0  0  0
  -27.2330  -28.5740   20.7240 C   0  0  0  0  0  3  0  0  0  0  0  0
  -26.0570  -26.8480   19.4960 C   0  0  0  0  0  3  0  0  0  0  0  0
  -24.8900  -27.6330   19.4940 C   0  0  0  0  0  3  0  0  0  0  0  0
  -23.6460  -29.7640   20.1590 C   0  0  0  0  0  2  0  0  0  0  0  0
  -24.6890  -31.0230   22.0890 N   0  0  0  0  0  0  0  0  0  0  0  0
  -23.5340  -32.1080   23.7160 O   0  0  0  0  0  0  0  0  0  0  0  0
  -22.7550  -29.4170   22.4940 C   0  0  0  0  0  0  0  0  0  0  0  0
  -21.4280  -29.2510   22.3670 N   0  0  0  0  0  0  0  0  0  0  0  0
  -23.4310  -28.7810   23.3070 O   0  0  0  0  0  0  0  0  0  0  0  0
  -20.9430  -29.8150   21.6840 H   0  0  0  0  0  0  0  0  0  0  0  0
  -18.0340  -28.1220   22.9100 C   0  0  0  0  0  0  0  0  0  0  0  0
  -20.6030  -28.3150   23.1340 C   0  0  0  0  0  3  0  0  0  0  0  0
  -20.6600  -26.8950   22.5250 C   0  0  0  0  0  2  0  0  0  0  0  0
  -19.5300  -26.6210   21.5270 C   0  0  0  0  0  2  0  0  0  0  0  0
  -18.1650  -26.7840   22.2010 C   0  0  0  0  0  2  0  0  0  0  0  0
  -19.1790  -28.8480   23.3340 C   0  0  0  0  0  0  0  0  0  0  0  0
  -19.0010  -30.1020   23.9570 C   0  0  0  0  0  3  0  0  0  0  0  0
  -17.7120  -30.6300   24.1600 C   0  0  0  0  0  3  0  0  0  0  0  0
  -16.5820  -29.9000   23.7520 C   0  0  0  0  0  3  0  0  0  0  0  0
  -16.7440  -28.6480   23.1330 C   0  0  0  0  0  3  0  0  0  0  0  0
  -25.8990  -32.4620   23.8170 C   0  0  0  0  0  3  0  0  0  0  0  0
  -26.4080  -31.6890   25.0960 C   0  0  1  0  0  0  0  0  0  0  0  0
  -25.3060  -31.4410   26.1520 C   0  0  0  0  0  1  0  0  0  0  0  0
  -27.0020  -30.3150   24.7040 C   0  0  0  0  0  1  0  0  0  0  0  0
  -27.5480  -32.4870   25.7710 C   0  0  0  0  0  1  0  0  0  0  0  0
  -25.5880  -33.8590   24.1480 N   0  0  0  0  0  0  0  0  0  0  0  0
  -25.9230  -34.9140   23.3940 C   0  0  0  0  0  0  0  0  0  0  0  0
  -26.5970  -34.8130   22.3650 O   0  0  0  0  0  0  0  0  0  0  0  0
  -24.9900  -34.0120   24.9480 H   0  0  0  0  0  0  0  0  0  0  0  0
  -24.2110  -36.7190   23.0230 C   0  0  0  0  0  1  0  0  0  0  0  0
  -25.4350  -36.3020   23.8530 C   0  0  0  0  0  3  0  0  0  0  0  0
  -27.5500  -37.1800   24.7400 C   0  0  0  0  0  1  0  0  0  0  0  0
  -26.4750  -37.3510   23.7670 N   0  0  0  0  0  0  0  0  0  0  0  0
  -26.0680  -38.2730   23.9010 H   0  0  0  0  0  0  0  0  0  0  0  0
  1  4  1  0
  2  1  1  0
  2  5  1  0
  4  6  1  0
  4  3  1  0
  5 47  1  0
  5  3  1  0
  6  8  2  0
  7  6  1  0
  7 10  1  0
  9  7  1  0
 11 10  1  0
 12 17  1  0
 13 14  1  0
 13 12  1  0
 15 14  1  0
 15 22  1  0
 15 16  1  0
 17 11  1  0
 17 16  1  0
 18 11  2  0
 19 20  2  0
 20 39  1  0
 21 20  1  0
 21 24  1  0
 22 23  1  0
 22 19  1  0
 23 21  2  0
 24 25  1  0
 25 26  2  0
 27 30  1  0
 27 26  1  0
 28 27  2  0
 29 28  1  0
 29 24  2  0
 30 31  1  0
 31 36  2  0
 31 32  1  0
 32 33  2  0
 34 33  1  0
 34 38  1  0
 35 34  2  0
 36 35  1  0
 37 36  1  0
 39 40  1  0
 40 43  1  0
 40 42  1  0
 41 39  2  0
 44 19  1  0
 44 45  1  0
 46 44  1  0
 48 49  1  0
 48 47  2  0
 50 61  2  0
 51 49  1  0
 51 56  1  0
 52 60  1  0
 52 62  1  0
 53 59  1  0
 53 55  1  0
 54 60  1  0
 55 56  2  0
 55 54  1  0
 57 51  2  0
 58 57  1  0
 58 53  2  0
 59 52  1  0
 60 50  1  0
 62 64  2  0
 63 62  1  0
 65 63  1  0
 66 75  2  0
 66 71  1  0
 67 63  1  0
 67 71  1  0
 68 67  1  0
 69 70  1  0
 69 68  1  0
 70 66  1  0
 71 72  2  0
 72 73  1  0
 74 73  2  0
 75 74  1  0
 76 50  1  0
 76 81  1  0
 76 77  1  0
 77 80  1  1
 77 78  1  0
 79 77  1  0
 81 84  1  0
 82 86  1  0
 82 81  1  0
 83 82  2  0
 86 85  1  0
 88 86  1  0
 88 89  1  0
 88 87  1  0
M  ISO  4  10 100  11 100  48 101  49 101
M  END
>  <TORSDO>  (42) 
F 20

>  <SCORE>  (42) 
-13.192

>  <name>  (42) 
42

>  <ligand_id>  (42) 
42

>  <original_smiles>  (42) 
[H]c1c([H])c([H])c2c(c1[H])C([H])([H])C([H])([H])C([H])([H])C2([H])N([H])C(=O)C1([H])N(C(=O)C([H])(N([H])C(=O)C([H])(N([H])C([H])([H])[H])C([H])([H])[H])C(C([H])([H])[H])(C([H])([H])[H])C([H])([H])[H])C([H])([H])c2c([H])c(OC([H])([H])C([H])([H])C3([H])C([H])([H])C([H])([H])C([H])(C(=O)N([H])C([H])([H])C(=O)N4C([H])([H])C([H])([H])C([H])([H])C([H])(n5nc(-c6c([H])c([H])c(Oc7c([H])c([H])c(F)c([H])c7F)c([H])c6[H])c(C(=O)N([H])[H])c5N([H])[H])C4([H])[H])C3([H])[H])c([H])c([H])c2C1([H])[H]

>  <smiles>  (42) 
[H]c1c([H])c([H])c2c(c1[H])C([H])([H])C([H])([H])C([H])([H])C2([H])N([H])C(=O)C1([H])N(C(=O)C([H])(N([H])C(=O)C([H])(N([H])C([H])([H])[H])C([H])([H])[H])C(C([H])([H])[H])(C([H])([H])[H])C([H])([H])[H])C([H])([H])c2c([H])c(OC([H])([H])C([H])([H])C3([H])C([H])([H])C([H])([H])C([H])(C(=O)N([H])C([H])([H])C(=O)N4C([H])([H])C([H])([H])C([H])([H])C([H])(n5nc(-c6c([H])c([H])c(Oc7c([H])c([H])c(F)c([H])c7F)c([H])c6[H])c(C(=O)N([H])[H])c5N([H])[H])C4([H])[H])C3([H])[H])c([H])c([H])c2C1([H])[H]

$$$$
43:0:0
     RDKit          3D

 89 97  0  0  1  0  0  0  0  0999 V2000
  -30.9990  -19.5000   20.9270 C   0  0  0  0  0  2  0  0  0  0  0  0
  -30.6430  -21.0120   20.8770 C   0  0  0  0  0  2  0  0  0  0  0  0
  -28.6560  -19.7400   20.5150 C   0  0  0  0  0  2  0  0  0  0  0  0
  -29.8880  -18.8580   20.0970 C   0  0  0  0  0  3  0  0  0  0  0  0
  -29.1640  -21.1170   20.9060 N   0  0  2  0  0  4  0  0  0  0  0  0
  -28.9220  -21.2110   21.8820 H   0  0  0  0  0  0  0  0  0  0  0  0
  -28.8060  -16.9220   18.7780 C   0  0  0  0  0  1  0  0  0  0  0  0
  -29.8950  -17.2600   19.8150 C   0  0  0  0  0  3  0  0  0  0  0  0
  -29.9680  -16.0890   20.9130 C   0  0  0  0  0  2  0  0  0  0  0  0
  -30.6460  -14.7150   20.4550 C   0  0  0  0  0  0  0  0  0  0  0  0
  -30.3980  -12.4750   19.3920 C   0  0  0  0  0  2  0  0  0  0  0  0
  -29.4840  -12.6220   18.1550 C   0  0  0  0  0  2  0  0  0  0  0  0
  -28.0020  -12.4800   18.5570 C   0  0  0  0  0  2  0  0  0  0  0  0
  -27.6330  -13.3270   19.8070 C   0  0  0  0  0  3  0  0  0  0  0  0
  -28.6790  -13.1810   20.9340 C   0  0  0  0  0  2  0  0  0  0  0  0
  -29.9950  -13.5070   20.3740 N   0  0  0  0  0  0  0  0  0  0  0  0
  -31.8090  -14.7960   20.0500 O   0  0  0  0  0  0  0  0  0  0  0  0
  -25.2320  -13.9220   20.4880 C   0  0  0  0  0  0  0  0  0  0  0  0
  -24.1600  -13.1510   20.8500 C   0  0  0  0  0  0  0  0  0  0  0  0
  -24.6260  -11.8000   20.8410 C   0  0  0  0  0  0  0  0  0  0  0  0
  -26.2810  -13.0410   20.2770 N   0  0  0  0  0  0  0  0  0  0  0  0
  -25.9210  -11.7610   20.5500 N   0  0  0  0  0  0  0  0  0  0  0  0
  -23.8980  -10.5390   21.0390 C   0  0  0  0  0  0  0  0  0  0  0  0
  -24.3200   -9.5830   21.9890 C   0  0  0  0  0  3  0  0  0  0  0  0
  -23.5940   -8.3850   22.1740 C   0  0  0  0  0  3  0  0  0  0  0  0
  -22.4320   -8.1350   21.4070 C   0  0  0  0  0  0  0  0  0  0  0  0
  -22.0270   -9.0790   20.4480 C   0  0  0  0  0  3  0  0  0  0  0  0
  -22.7540  -10.2690   20.2610 C   0  0  0  0  0  3  0  0  0  0  0  0
  -21.6800   -6.9870   21.4960 O   0  0  0  0  0  0  0  0  0  0  0  0
  -21.6180   -6.2580   22.6560 C   0  0  0  0  0  0  0  0  0  0  0  0
  -21.1730   -6.8240   23.8700 C   0  0  0  0  0  3  0  0  0  0  0  0
  -21.0570   -6.0210   25.0210 C   0  0  0  0  0  3  0  0  0  0  0  0
  -21.3770   -4.6510   24.9610 C   0  0  0  0  0  0  0  0  0  0  0  0
  -21.8150   -4.0830   23.7510 C   0  0  0  0  0  3  0  0  0  0  0  0
  -21.9320   -4.8840   22.6020 C   0  0  0  0  0  0  0  0  0  0  0  0
  -22.3330   -4.3280   21.4330 F   0  0  0  0  0  0  0  0  0  0  0  0
  -21.2600   -3.8770   26.0640 F   0  0  0  0  0  0  0  0  0  0  0  0
  -22.7570  -13.6290   21.0950 C   0  0  0  0  0  0  0  0  0  0  0  0
  -22.0140  -12.9430   21.9570 N   0  0  0  0  0  0  0  0  0  0  0  0
  -22.3260  -14.6460   20.5550 O   0  0  0  0  0  0  0  0  0  0  0  0
  -22.3700  -12.1180   22.4160 H   0  0  0  0  0  0  0  0  0  0  0  0
  -21.0720  -13.2450   22.1610 H   0  0  0  0  0  0  0  0  0  0  0  0
  -25.4030  -15.2900   20.2990 N   0  0  0  0  0  0  0  0  0  0  0  0
  -24.6500  -15.9560   20.4190 H   0  0  0  0  0  0  0  0  0  0  0  0
  -26.2730  -15.7220   20.0120 H   0  0  0  0  0  0  0  0  0  0  0  0
  -28.5430  -22.3320   20.2100 C   0  0  0  0  0  2  0  0  0  0  0  0
  -28.9460  -23.8260   20.6570 C   0  0  0  0  0  3  0  0  0  0  0  0
  -28.0440  -25.0040   20.0530 C   0  0  0  0  0  3  0  0  0  0  0  0
  -28.2820  -26.4540   20.3170 O   0  0  0  0  0  0  0  0  0  0  0  0
  -24.5960  -31.9320   23.2420 C   0  0  0  0  0  0  0  0  0  0  0  0
  -27.1890  -27.3410   20.2140 C   0  0  0  0  0  0  0  0  0  0  0  0
  -23.3870  -30.5370   21.6040 C   0  0  0  0  0  3  0  0  0  0  0  0
  -24.8360  -28.9800   20.1810 C   0  0  0  0  0  0  0  0  0  0  0  0
  -25.9320  -30.8400   21.4280 C   0  0  0  0  0  2  0  0  0  0  0  0
  -26.0070  -29.4600   20.7830 C   0  0  0  0  0  0  0  0  0  0  0  0
  -27.1860  -28.6520   20.7900 C   0  0  0  0  0  3  0  0  0  0  0  0
  -26.0030  -26.9360   19.5570 C   0  0  0  0  0  3  0  0  0  0  0  0
  -24.8380  -27.7250   19.5570 C   0  0  0  0  0  3  0  0  0  0  0  0
  -23.6030  -29.8580   20.2250 C   0  0  0  0  0  2  0  0  0  0  0  0
  -24.6570  -31.1200   22.1470 N   0  0  0  0  0  0  0  0  0  0  0  0
  -23.5130  -32.2160   23.7750 O   0  0  0  0  0  0  0  0  0  0  0  0
  -22.7200  -29.5230   22.5630 C   0  0  0  0  0  0  0  0  0  0  0  0
  -21.3930  -29.3520   22.4370 N   0  0  0  0  0  0  0  0  0  0  0  0
  -23.3960  -28.8930   23.3820 O   0  0  0  0  0  0  0  0  0  0  0  0
  -20.9050  -29.9130   21.7500 H   0  0  0  0  0  0  0  0  0  0  0  0
  -18.0080  -28.1820   22.9520 C   0  0  0  0  0  0  0  0  0  0  0  0
  -20.5700  -28.4230   23.2120 C   0  0  0  0  0  3  0  0  0  0  0  0
  -20.6570  -26.9870   22.6400 C   0  0  0  0  0  2  0  0  0  0  0  0
  -19.5480  -26.6720   21.6310 C   0  0  0  0  0  2  0  0  0  0  0  0
  -18.1700  -26.8300   22.2780 C   0  0  0  0  0  2  0  0  0  0  0  0
  -19.1340  -28.9370   23.3770 C   0  0  0  0  0  0  0  0  0  0  0  0
  -18.9270  -30.2010   23.9680 C   0  0  0  0  0  3  0  0  0  0  0  0
  -17.6270  -30.7130   24.1360 C   0  0  0  0  0  3  0  0  0  0  0  0
  -16.5150  -29.9580   23.7250 C   0  0  0  0  0  3  0  0  0  0  0  0
  -16.7070  -28.6950   23.1380 C   0  0  0  0  0  3  0  0  0  0  0  0
  -25.8800  -32.5630   23.8640 C   0  0  0  0  0  3  0  0  0  0  0  0
  -25.5720  -33.9630   24.1890 N   0  0  0  0  0  0  0  0  0  0  0  0
  -25.9060  -35.0130   23.4270 C   0  0  0  0  0  0  0  0  0  0  0  0
  -26.5730  -34.9040   22.3940 O   0  0  0  0  0  0  0  0  0  0  0  0
  -24.9760  -34.1200   24.9880 H   0  0  0  0  0  0  0  0  0  0  0  0
  -24.1850  -36.8130   23.0660 C   0  0  0  0  0  1  0  0  0  0  0  0
  -25.4230  -36.4040   23.8810 C   0  0  0  0  0  3  0  0  0  0  0  0
  -27.5580  -37.2840   24.7160 C   0  0  0  0  0  1  0  0  0  0  0  0
  -26.4590  -37.4520   23.7690 N   0  0  0  0  0  0  0  0  0  0  0  0
  -26.0550  -38.3740   23.9120 H   0  0  0  0  0  0  0  0  0  0  0  0
  -26.3920  -31.7940   25.1440 C   0  0  1  0  0  0  0  0  0  0  0  0
  -25.2950  -31.5650   26.2110 C   0  0  0  0  0  1  0  0  0  0  0  0
  -26.9710  -30.4110   24.7600 C   0  0  0  0  0  1  0  0  0  0  0  0
  -27.5410  -32.5890   25.8050 C   0  0  0  0  0  1  0  0  0  0  0  0
  2  5  1  0
  2  1  1  0
  3  5  1  0
  4  8  1  0
  4  3  1  0
  4  1  1  0
  5  6  1  1
  8  7  1  0
  8  9  1  0
 10  9  1  0
 11 16  1  0
 12 13  1  0
 12 11  1  0
 14 13  1  0
 14 21  1  0
 14 15  1  0
 16 10  1  0
 16 15  1  0
 17 10  2  0
 18 19  2  0
 19 38  1  0
 20 19  1  0
 20 23  1  0
 21 18  1  0
 21 22  1  0
 22 20  2  0
 23 24  1  0
 24 25  2  0
 26 29  1  0
 26 25  1  0
 27 26  2  0
 28 27  1  0
 28 23  2  0
 29 30  1  0
 30 31  1  0
 31 32  2  0
 33 32  1  0
 33 37  1  0
 34 33  2  0
 35 30  2  0
 35 34  1  0
 36 35  1  0
 38 39  1  0
 39 42  1  0
 39 41  1  0
 40 38  2  0
 43 44  1  0
 43 18  1  0
 45 43  1  0
 46 47  1  0
 46  5  1  0
 48 49  1  0
 48 47  2  0
 50 61  2  0
 51 49  1  0
 51 56  1  0
 52 60  1  0
 52 62  1  0
 53 59  1  0
 53 55  1  0
 54 60  1  0
 55 56  2  0
 55 54  1  0
 57 51  2  0
 58 57  1  0
 58 53  2  0
 59 52  1  0
 60 50  1  0
 62 64  2  0
 63 62  1  0
 65 63  1  0
 66 75  2  0
 66 71  1  0
 67 63  1  0
 67 71  1  0
 68 67  1  0
 69 70  1  0
 69 68  1  0
 70 66  1  0
 71 72  2  0
 72 73  1  0
 74 73  2  0
 75 74  1  0
 76 50  1  0
 76 77  1  0
 76 86  1  0
 77 80  1  0
 78 82  1  0
 78 77  1  0
 79 78  2  0
 82 81  1  0
 84 82  1  0
 84 85  1  0
 84 83  1  0
 86 89  1  1
 86 87  1  0
 88 86  1  0
M  ISO  4   9 100  10 100  48 101  49 101
M  END
>  <TORSDO>  (43) 
F 21

>  <SCORE>  (43) 
-13.524

>  <name>  (43) 
43

>  <ligand_id>  (43) 
43

>  <original_smiles>  (43) 
[H]c1c([H])c([H])c2c(c1[H])C([H])([H])C([H])([H])C([H])([H])C2([H])N([H])C(=O)C1([H])N(C(=O)C([H])(N([H])C(=O)C([H])(N([H])C([H])([H])[H])C([H])([H])[H])C(C([H])([H])[H])(C([H])([H])[H])C([H])([H])[H])C([H])([H])c2c([H])c(OC([H])([H])C([H])([H])C([H])([H])[N+]3([H])C([H])([H])C([H])([H])C([H])(C([H])(C([H])([H])[H])C([H])([H])C(=O)N4C([H])([H])C([H])([H])C([H])([H])C([H])(n5nc(-c6c([H])c([H])c(Oc7c([H])c([H])c(F)c([H])c7F)c([H])c6[H])c(C(=O)N([H])[H])c5N([H])[H])C4([H])[H])C3([H])[H])c([H])c([H])c2C1([H])[H]

>  <smiles>  (43) 
[H]c1c([H])c([H])c2c(c1[H])C([H])([H])C([H])([H])C([H])([H])C2([H])N([H])C(=O)C1([H])N(C(=O)C([H])(N([H])C(=O)C([H])(N([H])C([H])([H])[H])C([H])([H])[H])C(C([H])([H])[H])(C([H])([H])[H])C([H])([H])[H])C([H])([H])c2c([H])c(OC([H])([H])C([H])([H])C([H])([H])[N+]3([H])C([H])([H])C([H])([H])C([H])(C([H])(C([H])([H])[H])C([H])([H])C(=O)N4C([H])([H])C([H])([H])C([H])([H])C([H])(n5nc(-c6c([H])c([H])c(Oc7c([H])c([H])c(F)c([H])c7F)c([H])c6[H])c(C(=O)N([H])[H])c5N([H])[H])C4([H])[H])C3([H])[H])c([H])c([H])c2C1([H])[H]

$$$$
44:0:0
     RDKit          3D

 90 98  0  0  1  0  0  0  0  0999 V2000
  -30.4990  -15.7860   20.2380 C   0  0  0  0  0  0  0  0  0  0  0  0
  -30.4560  -13.3060   19.2460 C   0  0  0  0  0  2  0  0  0  0  0  0
  -29.5300  -13.0180   18.0320 C   0  0  0  0  0  2  0  0  0  0  0  0
  -28.1020  -12.6900   18.4880 C   0  0  0  0  0  2  0  0  0  0  0  0
  -27.6560  -13.6330   19.6280 C   0  0  0  0  0  3  0  0  0  0  0  0
  -28.7160  -13.8370   20.7360 C   0  0  0  0  0  2  0  0  0  0  0  0
  -29.8960  -14.4590   20.0960 N   0  0  0  0  0  0  0  0  0  0  0  0
  -31.7110  -15.6550   19.9700 O   0  0  0  0  0  0  0  0  0  0  0  0
  -30.0620  -19.5310   21.9140 C   0  0  0  0  0  2  0  0  0  0  0  0
  -30.1260  -17.8870   21.8720 C   0  0  0  0  0  2  0  0  0  0  0  0
  -29.6160  -18.7240   19.8350 C   0  0  0  0  0  3  0  0  0  0  0  0
  -29.2580  -20.2610   20.7800 C   0  0  0  0  0  3  0  0  0  0  0  0
  -29.9130  -17.2130   20.5420 N   0  0  0  0  0  0  0  0  0  0  0  0
  -25.3090  -14.1810   20.4170 C   0  0  0  0  0  0  0  0  0  0  0  0
  -24.2500  -13.4080   20.7960 C   0  0  0  0  0  0  0  0  0  0  0  0
  -24.7130  -12.0570   20.7650 C   0  0  0  0  0  0  0  0  0  0  0  0
  -26.3450  -13.3050   20.1630 N   0  0  0  0  0  0  0  0  0  0  0  0
  -26.0020  -12.0180   20.4440 N   0  0  0  0  0  0  0  0  0  0  0  0
  -23.9790  -10.7970   20.9590 C   0  0  0  0  0  0  0  0  0  0  0  0
  -24.3860   -9.8400   21.9150 C   0  0  0  0  0  3  0  0  0  0  0  0
  -23.6460   -8.6520   22.1000 C   0  0  0  0  0  3  0  0  0  0  0  0
  -22.4850   -8.4110   21.3270 C   0  0  0  0  0  0  0  0  0  0  0  0
  -22.1000   -9.3540   20.3580 C   0  0  0  0  0  3  0  0  0  0  0  0
  -22.8400  -10.5340   20.1710 C   0  0  0  0  0  3  0  0  0  0  0  0
  -21.7180   -7.2750   21.4200 O   0  0  0  0  0  0  0  0  0  0  0  0
  -21.6250   -6.5630   22.5890 C   0  0  0  0  0  0  0  0  0  0  0  0
  -21.1320   -7.1440   23.7800 C   0  0  0  0  0  3  0  0  0  0  0  0
  -20.9870   -6.3540   24.9380 C   0  0  0  0  0  3  0  0  0  0  0  0
  -21.3250   -4.9880   24.9090 C   0  0  0  0  0  0  0  0  0  0  0  0
  -21.8130   -4.4090   23.7240 C   0  0  0  0  0  3  0  0  0  0  0  0
  -21.9590   -5.1930   22.5670 C   0  0  0  0  0  0  0  0  0  0  0  0
  -22.4070   -4.6250   21.4210 F   0  0  0  0  0  0  0  0  0  0  0  0
  -21.1780   -4.2300   26.0190 F   0  0  0  0  0  0  0  0  0  0  0  0
  -22.8550  -13.8930   21.0630 C   0  0  0  0  0  0  0  0  0  0  0  0
  -22.1250  -13.2140   21.9390 N   0  0  0  0  0  0  0  0  0  0  0  0
  -22.4220  -14.9120   20.5260 O   0  0  0  0  0  0  0  0  0  0  0  0
  -22.4910  -12.3960   22.4040 H   0  0  0  0  0  0  0  0  0  0  0  0
  -21.1850  -13.5170   22.1500 H   0  0  0  0  0  0  0  0  0  0  0  0
  -25.4740  -15.5510   20.2320 N   0  0  0  0  0  0  0  0  0  0  0  0
  -24.7060  -16.2040   20.3370 H   0  0  0  0  0  0  0  0  0  0  0  0
  -26.3120  -15.9800   19.8530 H   0  0  0  0  0  0  0  0  0  0  0  0
  -28.4180  -18.4720   18.8870 C   0  0  0  0  0  0  0  0  0  0  0  0
  -26.5930  -19.4700   17.5330 C   0  0  0  0  0  1  0  0  0  0  0  0
  -27.7570  -19.5350   18.4110 N   0  0  0  0  0  0  0  0  0  0  0  0
  -28.0900  -17.3220   18.5830 O   0  0  0  0  0  0  0  0  0  0  0  0
  -28.0600  -20.4490   18.7180 H   0  0  0  0  0  0  0  0  0  0  0  0
  -30.8530  -22.5300   20.7040 C   0  0  0  0  0  1  0  0  0  0  0  0
  -29.3650  -22.2050   20.5130 C   0  0  0  0  0  3  0  0  0  0  0  0
  -28.4730  -23.8990   20.9190 C   0  0  0  0  0  2  0  0  0  0  0  0
  -28.5970  -25.6550   20.7210 O   0  0  0  0  0  0  0  0  0  0  0  0
  -24.7870  -31.9390   23.3420 C   0  0  0  0  0  0  0  0  0  0  0  0
  -27.5850  -26.8360   20.6420 C   0  0  0  0  0  0  0  0  0  0  0  0
  -23.7190  -30.4630   21.6940 C   0  0  0  0  0  3  0  0  0  0  0  0
  -25.2730  -28.8090   20.4120 C   0  0  0  0  0  0  0  0  0  0  0  0
  -26.2980  -30.6670   21.6960 C   0  0  0  0  0  2  0  0  0  0  0  0
  -26.4280  -29.2170   21.0900 C   0  0  0  0  0  0  0  0  0  0  0  0
  -27.5720  -28.2590   21.1680 C   0  0  0  0  0  3  0  0  0  0  0  0
  -26.3920  -26.6390   19.9030 C   0  0  0  0  0  3  0  0  0  0  0  0
  -25.2930  -27.5450   19.7970 C   0  0  0  0  0  3  0  0  0  0  0  0
  -24.0420  -29.7300   20.3600 C   0  0  0  0  0  2  0  0  0  0  0  0
  -24.9560  -31.0610   22.2960 N   0  0  0  0  0  0  0  0  0  0  0  0
  -23.6630  -32.2230   23.7900 O   0  0  0  0  0  0  0  0  0  0  0  0
  -22.9820  -29.4950   22.6600 C   0  0  0  0  0  0  0  0  0  0  0  0
  -21.6610  -29.3040   22.4810 N   0  0  0  0  0  0  0  0  0  0  0  0
  -23.6160  -28.9070   23.5420 O   0  0  0  0  0  0  0  0  0  0  0  0
  -21.1990  -29.8300   21.7530 H   0  0  0  0  0  0  0  0  0  0  0  0
  -18.2690  -28.0760   22.9270 C   0  0  0  0  0  0  0  0  0  0  0  0
  -20.8230  -28.3680   23.2410 C   0  0  0  0  0  3  0  0  0  0  0  0
  -20.9460  -26.9300   22.6840 C   0  0  0  0  0  2  0  0  0  0  0  0
  -19.8690  -26.5900   21.6480 C   0  0  0  0  0  2  0  0  0  0  0  0
  -18.4720  -26.7250   22.2610 C   0  0  0  0  0  2  0  0  0  0  0  0
  -19.3710  -28.8540   23.3720 C   0  0  0  0  0  0  0  0  0  0  0  0
  -19.1240  -30.1140   23.9590 C   0  0  0  0  0  3  0  0  0  0  0  0
  -17.8090  -30.5970   24.1030 C   0  0  0  0  0  3  0  0  0  0  0  0
  -16.7230  -29.8180   23.6710 C   0  0  0  0  0  3  0  0  0  0  0  0
  -16.9530  -28.5590   23.0890 C   0  0  0  0  0  3  0  0  0  0  0  0
  -25.9990  -32.6450   24.0230 C   0  0  0  0  0  3  0  0  0  0  0  0
  -25.6250  -34.0470   24.2910 N   0  0  0  0  0  0  0  0  0  0  0  0
  -25.9460  -35.0940   23.5200 C   0  0  0  0  0  0  0  0  0  0  0  0
  -26.6450  -34.9840   22.5100 O   0  0  0  0  0  0  0  0  0  0  0  0
  -25.0060  -34.2030   25.0750 H   0  0  0  0  0  0  0  0  0  0  0  0
  -24.1610  -36.8250   23.1000 C   0  0  0  0  0  1  0  0  0  0  0  0
  -25.4110  -36.4840   23.9290 C   0  0  0  0  0  3  0  0  0  0  0  0
  -27.5020  -37.4840   24.7490 C   0  0  0  0  0  1  0  0  0  0  0  0
  -26.4080  -37.5690   23.7840 N   0  0  0  0  0  0  0  0  0  0  0  0
  -25.9660  -38.4790   23.8840 H   0  0  0  0  0  0  0  0  0  0  0  0
  -26.4440  -31.9460   25.3670 C   0  0  1  0  0  0  0  0  0  0  0  0
  -25.2830  -31.7150   26.3660 C   0  0  0  0  0  1  0  0  0  0  0  0
  -27.1010  -30.5750   25.0940 C   0  0  0  0  0  1  0  0  0  0  0  0
  -27.5180  -32.8070   26.0740 C   0  0  0  0  0  1  0  0  0  0  0  0
  1 13  1  0
  2  7  1  0
  3  4  1  0
  3  2  1  0
  5  4  1  0
  5 17  1  0
  5  6  1  0
  7  1  1  0
  7  6  1  0
  8  1  2  0
 10  9  1  0
 11 42  1  0
 11 13  1  0
 11 12  1  0
 12 48  1  0
 12  9  1  0
 13 10  1  0
 14 15  2  0
 15 34  1  0
 16 15  1  0
 16 19  1  0
 17 14  1  0
 17 18  1  0
 18 16  2  0
 19 20  1  0
 20 21  2  0
 22 25  1  0
 22 21  1  0
 23 22  2  0
 24 23  1  0
 24 19  2  0
 25 26  1  0
 26 27  1  0
 27 28  2  0
 29 28  1  0
 29 33  1  0
 30 29  2  0
 31 26  2  0
 31 30  1  0
 32 31  1  0
 34 35  1  0
 35 38  1  0
 35 37  1  0
 36 34  2  0
 39 40  1  0
 39 14  1  0
 41 39  1  0
 43 44  1  0
 44 46  1  0
 44 42  1  0
 45 42  2  0
 48 47  1  0
 48 49  1  0
 50 49  1  0
 51 62  2  0
 52 50  1  0
 52 57  1  0
 53 61  1  0
 53 63  1  0
 54 56  1  0
 55 61  1  0
 56 57  2  0
 56 55  1  0
 58 52  2  0
 59 58  1  0
 59 54  2  0
 60 54  1  0
 60 53  1  0
 61 51  1  0
 63 65  2  0
 64 63  1  0
 66 64  1  0
 67 76  2  0
 67 72  1  0
 68 64  1  0
 68 72  1  0
 69 68  1  0
 70 71  1  0
 70 69  1  0
 71 67  1  0
 72 73  2  0
 73 74  1  0
 75 74  2  0
 76 75  1  0
 77 51  1  0
 77 78  1  0
 77 87  1  0
 78 81  1  0
 79 83  1  0
 79 78  1  0
 80 79  2  0
 83 82  1  0
 85 86  1  0
 85 83  1  0
 85 84  1  0
 87 90  1  1
 87 88  1  0
 89 87  1  0
M  ISO  4   1 100  13 100  49 101  50 101
M  END
>  <TORSDO>  (44) 
F 18

>  <SCORE>  (44) 
-15.329

>  <name>  (44) 
44

>  <ligand_id>  (44) 
44

>  <original_smiles>  (44) 
[H]c1c([H])c([H])c2c(c1[H])C([H])([H])C([H])([H])C([H])([H])C2([H])N([H])C(=O)C1([H])N(C(=O)C([H])(N([H])C(=O)C([H])(N([H])C([H])([H])[H])C([H])([H])[H])C(C([H])([H])[H])(C([H])([H])[H])C([H])([H])[H])C([H])([H])c2c([H])c(OC([H])([H])C([H])(C([H])([H])[H])C3([H])C([H])(C(=O)N([H])C([H])([H])[H])N(C(=O)N4C([H])([H])C([H])([H])C([H])([H])C([H])(n5nc(-c6c([H])c([H])c(Oc7c([H])c([H])c(F)c([H])c7F)c([H])c6[H])c(C(=O)N([H])[H])c5N([H])[H])C4([H])[H])C([H])([H])C3([H])[H])c([H])c([H])c2C1([H])[H]

>  <smiles>  (44) 
[H]c1c([H])c([H])c2c(c1[H])C([H])([H])C([H])([H])C([H])([H])C2([H])N([H])C(=O)C1([H])N(C(=O)C([H])(N([H])C(=O)C([H])(N([H])C([H])([H])[H])C([H])([H])[H])C(C([H])([H])[H])(C([H])([H])[H])C([H])([H])[H])C([H])([H])c2c([H])c(OC([H])([H])C([H])(C([H])([H])[H])C3([H])C([H])(C(=O)N([H])C([H])([H])[H])N(C(=O)N4C([H])([H])C([H])([H])C([H])([H])C([H])(n5nc(-c6c([H])c([H])c(Oc7c([H])c([H])c(F)c([H])c7F)c([H])c6[H])c(C(=O)N([H])[H])c5N([H])[H])C4([H])[H])C([H])([H])C3([H])[H])c([H])c([H])c2C1([H])[H]

$$$$
45:0:0
     RDKit          3D

 87 95  0  0  1  0  0  0  0  0999 V2000
  -29.3420  -21.6150   22.0630 C   0  0  0  0  0  1  0  0  0  0  0  0
  -28.6780  -21.5450   20.6820 C   0  0  0  0  0  3  0  0  0  0  0  0
  -30.5760  -15.2070   19.9280 C   0  0  0  0  0  0  0  0  0  0  0  0
  -30.3750  -12.8430   18.9600 C   0  0  0  0  0  2  0  0  0  0  0  0
  -29.3830  -12.7580   17.7810 C   0  0  0  0  0  2  0  0  0  0  0  0
  -27.9590  -12.4960   18.3010 C   0  0  0  0  0  2  0  0  0  0  0  0
  -27.6020  -13.4090   19.5040 C   0  0  0  0  0  3  0  0  0  0  0  0
  -28.7240  -13.4840   20.5660 C   0  0  0  0  0  2  0  0  0  0  0  0
  -29.9250  -13.9580   19.8630 N   0  0  0  0  0  0  0  0  0  0  0  0
  -31.7630  -15.1570   19.5720 O   0  0  0  0  0  0  0  0  0  0  0  0
  -28.3170  -18.6440   20.7960 C   0  0  0  0  0  2  0  0  0  0  0  0
  -30.3750  -19.2760   19.7670 C   0  0  0  0  0  2  0  0  0  0  0  0
  -29.0880  -17.1940   21.0460 C   0  0  0  0  0  2  0  0  0  0  0  0
  -30.4560  -17.7350   19.1950 C   0  0  0  0  0  2  0  0  0  0  0  0
  -28.9620  -19.9370   20.0540 C   0  0  0  0  0  3  0  0  0  0  0  0
  -29.9280  -16.5220   19.9690 N   0  0  0  0  0  0  0  0  0  0  0  0
  -25.2900  -13.9380   20.4420 C   0  0  0  0  0  0  0  0  0  0  0  0
  -24.2560  -13.1440   20.8510 C   0  0  0  0  0  0  0  0  0  0  0  0
  -24.7200  -11.7970   20.7350 C   0  0  0  0  0  0  0  0  0  0  0  0
  -26.3110  -13.0770   20.0890 N   0  0  0  0  0  0  0  0  0  0  0  0
  -25.9860  -11.7790   20.3330 N   0  0  0  0  0  0  0  0  0  0  0  0
  -24.0090  -10.5250   20.9280 C   0  0  0  0  0  0  0  0  0  0  0  0
  -24.4570   -9.5600   21.8560 C   0  0  0  0  0  3  0  0  0  0  0  0
  -23.7410   -8.3560   22.0350 C   0  0  0  0  0  3  0  0  0  0  0  0
  -22.5650   -8.1060   21.2860 C   0  0  0  0  0  0  0  0  0  0  0  0
  -22.1370   -9.0610   20.3470 C   0  0  0  0  0  3  0  0  0  0  0  0
  -22.8530  -10.2560   20.1670 C   0  0  0  0  0  3  0  0  0  0  0  0
  -21.8230   -6.9540   21.3760 O   0  0  0  0  0  0  0  0  0  0  0  0
  -21.7170   -6.2560   22.5530 C   0  0  0  0  0  0  0  0  0  0  0  0
  -21.2050   -6.8500   23.7280 C   0  0  0  0  0  3  0  0  0  0  0  0
  -21.0480   -6.0770   24.8940 C   0  0  0  0  0  3  0  0  0  0  0  0
  -21.3920   -4.7110   24.8880 C   0  0  0  0  0  0  0  0  0  0  0  0
  -21.8980   -4.1170   23.7180 C   0  0  0  0  0  3  0  0  0  0  0  0
  -22.0570   -4.8870   22.5530 C   0  0  0  0  0  0  0  0  0  0  0  0
  -22.5250   -4.3050   21.4220 F   0  0  0  0  0  0  0  0  0  0  0  0
  -21.2320   -3.9690   26.0080 F   0  0  0  0  0  0  0  0  0  0  0  0
  -22.8820  -13.6040   21.2340 C   0  0  0  0  0  0  0  0  0  0  0  0
  -22.2120  -12.8740   22.1170 N   0  0  0  0  0  0  0  0  0  0  0  0
  -22.4140  -14.6480   20.7820 O   0  0  0  0  0  0  0  0  0  0  0  0
  -22.6070  -12.0350   22.5160 H   0  0  0  0  0  0  0  0  0  0  0  0
  -21.2880  -13.1630   22.4080 H   0  0  0  0  0  0  0  0  0  0  0  0
  -25.4400  -15.3170   20.3130 N   0  0  0  0  0  0  0  0  0  0  0  0
  -24.6910  -15.9650   20.5280 H   0  0  0  0  0  0  0  0  0  0  0  0
  -26.2670  -15.7800   19.9620 H   0  0  0  0  0  0  0  0  0  0  0  0
  -28.8500  -23.1370   20.0140 C   0  0  0  0  0  3  0  0  0  0  0  0
  -28.0030  -24.5840   20.4610 C   0  0  0  0  0  3  0  0  0  0  0  0
  -28.2810  -26.1350   20.1990 O   0  0  0  0  0  0  0  0  0  0  0  0
  -24.6670  -31.9220   23.2060 C   0  0  0  0  0  0  0  0  0  0  0  0
  -27.2430  -27.1610   20.1810 C   0  0  0  0  0  0  0  0  0  0  0  0
  -23.4680  -30.5170   21.5760 C   0  0  0  0  0  3  0  0  0  0  0  0
  -24.9190  -28.9420   20.1450 C   0  0  0  0  0  0  0  0  0  0  0  0
  -26.0220  -30.7820   21.4000 C   0  0  0  0  0  2  0  0  0  0  0  0
  -26.1020  -29.3820   20.7540 C   0  0  0  0  0  0  0  0  0  0  0  0
  -27.2640  -28.5080   20.7520 C   0  0  0  0  0  3  0  0  0  0  0  0
  -26.0370  -26.8480   19.5180 C   0  0  0  0  0  3  0  0  0  0  0  0
  -24.9070  -27.6940   19.5080 C   0  0  0  0  0  3  0  0  0  0  0  0
  -23.6880  -29.8370   20.1980 C   0  0  0  0  0  2  0  0  0  0  0  0
  -24.7400  -31.0980   22.1150 N   0  0  0  0  0  0  0  0  0  0  0  0
  -23.5820  -32.1990   23.7380 O   0  0  0  0  0  0  0  0  0  0  0  0
  -22.8020  -29.5110   22.5460 C   0  0  0  0  0  0  0  0  0  0  0  0
  -21.4760  -29.3200   22.4230 N   0  0  0  0  0  0  0  0  0  0  0  0
  -23.4830  -28.9010   23.3740 O   0  0  0  0  0  0  0  0  0  0  0  0
  -20.9830  -29.8680   21.7330 H   0  0  0  0  0  0  0  0  0  0  0  0
  -18.1130  -28.0690   22.9390 C   0  0  0  0  0  0  0  0  0  0  0  0
  -20.6680  -28.3740   23.1980 C   0  0  0  0  0  3  0  0  0  0  0  0
  -20.7880  -26.9410   22.6310 C   0  0  0  0  0  2  0  0  0  0  0  0
  -19.6890  -26.5960   21.6200 C   0  0  0  0  0  2  0  0  0  0  0  0
  -18.3070  -26.7210   22.2660 C   0  0  0  0  0  2  0  0  0  0  0  0
  -19.2200  -28.8520   23.3610 C   0  0  0  0  0  0  0  0  0  0  0  0
  -18.9800  -30.1090   23.9540 C   0  0  0  0  0  3  0  0  0  0  0  0
  -17.6680  -30.5880   24.1240 C   0  0  0  0  0  3  0  0  0  0  0  0
  -16.5760  -29.8040   23.7140 C   0  0  0  0  0  3  0  0  0  0  0  0
  -16.7980  -28.5460   23.1290 C   0  0  0  0  0  3  0  0  0  0  0  0
  -25.9430  -32.5710   23.8260 C   0  0  0  0  0  3  0  0  0  0  0  0
  -25.6160  -33.9680   24.1600 N   0  0  0  0  0  0  0  0  0  0  0  0
  -25.9340  -35.0310   23.4090 C   0  0  0  0  0  0  0  0  0  0  0  0
  -26.5950  -34.9390   22.3710 O   0  0  0  0  0  0  0  0  0  0  0  0
  -25.0320  -34.1140   24.9700 H   0  0  0  0  0  0  0  0  0  0  0  0
  -24.1920  -36.8190   23.0790 C   0  0  0  0  0  1  0  0  0  0  0  0
  -25.4410  -36.4130   23.8790 C   0  0  0  0  0  3  0  0  0  0  0  0
  -27.5720  -37.3160   24.7040 C   0  0  0  0  0  1  0  0  0  0  0  0
  -26.4650  -37.4750   23.7650 N   0  0  0  0  0  0  0  0  0  0  0  0
  -26.0520  -38.3920   23.9130 H   0  0  0  0  0  0  0  0  0  0  0  0
  -26.4670  -31.8100   25.1070 C   0  0  1  0  0  0  0  0  0  0  0  0
  -25.3770  -31.5630   26.1750 C   0  0  0  0  0  1  0  0  0  0  0  0
  -27.0660  -30.4360   24.7250 C   0  0  0  0  0  1  0  0  0  0  0  0
  -27.6070  -32.6200   25.7680 C   0  0  0  0  0  1  0  0  0  0  0  0
  2  1  1  0
  3 16  1  0
  4  9  1  0
  5  6  1  0
  5  4  1  0
  7  6  1  0
  7 20  1  0
  7  8  1  0
  9  3  1  0
  9  8  1  0
 10  3  2  0
 11 13  1  0
 12 15  1  0
 14 12  1  0
 14 16  1  0
 15  2  1  0
 15 11  1  0
 16 13  1  0
 17 18  2  0
 18 37  1  0
 19 18  1  0
 19 22  1  0
 20 21  1  0
 20 17  1  0
 21 19  2  0
 22 23  1  0
 23 24  2  0
 25 28  1  0
 25 24  1  0
 26 25  2  0
 27 26  1  0
 27 22  2  0
 28 29  1  0
 29 34  2  0
 29 30  1  0
 30 31  2  0
 32 31  1  0
 32 36  1  0
 33 32  2  0
 34 33  1  0
 35 34  1  0
 37 38  1  0
 38 41  1  0
 38 40  1  0
 39 37  2  0
 42 17  1  0
 42 43  1  0
 44 42  1  0
 45 46  2  0
 45  2  1  0
 47 46  1  0
 48 59  2  0
 49 47  1  0
 49 54  1  0
 50 58  1  0
 50 60  1  0
 51 57  1  0
 51 53  1  0
 52 58  1  0
 53 52  1  0
 54 53  2  0
 55 49  2  0
 56 55  1  0
 56 51  2  0
 57 50  1  0
 58 48  1  0
 60 62  2  0
 61 60  1  0
 63 61  1  0
 64 73  2  0
 64 69  1  0
 65 61  1  0
 65 69  1  0
 66 65  1  0
 67 68  1  0
 67 66  1  0
 68 64  1  0
 69 70  2  0
 70 71  1  0
 72 71  2  0
 73 72  1  0
 74 48  1  0
 74 75  1  0
 74 84  1  0
 75 78  1  0
 76 80  1  0
 76 75  1  0
 77 76  2  0
 80 79  1  0
 82 80  1  0
 82 83  1  0
 82 81  1  0
 84 87  1  1
 84 85  1  0
 86 84  1  0
M  ISO  4   3 100  16 100  46 101  47 101
M  END
>  <TORSDO>  (45) 
F 18

>  <SCORE>  (45) 
-15.876

>  <name>  (45) 
45

>  <ligand_id>  (45) 
45

>  <original_smiles>  (45) 
[H]c1c([H])c([H])c2c(c1[H])C([H])([H])C([H])([H])C([H])([H])C2([H])N([H])C(=O)C1([H])N(C(=O)C([H])(N([H])C(=O)C([H])(N([H])C([H])([H])[H])C([H])([H])[H])C(C([H])([H])[H])(C([H])([H])[H])C([H])([H])[H])C([H])([H])c2c([H])c(OC([H])([H])C([H])([H])C([H])(C([H])([H])[H])C3([H])C([H])([H])C([H])([H])N(C(=O)N4C([H])([H])C([H])([H])C([H])([H])C([H])(n5nc(-c6c([H])c([H])c(Oc7c([H])c([H])c(F)c([H])c7F)c([H])c6[H])c(C(=O)N([H])[H])c5N([H])[H])C4([H])[H])C([H])([H])C3([H])[H])c([H])c([H])c2C1([H])[H]

>  <smiles>  (45) 
[H]c1c([H])c([H])c2c(c1[H])C([H])([H])C([H])([H])C([H])([H])C2([H])N([H])C(=O)C1([H])N(C(=O)C([H])(N([H])C(=O)C([H])(N([H])C([H])([H])[H])C([H])([H])[H])C(C([H])([H])[H])(C([H])([H])[H])C([H])([H])[H])C([H])([H])c2c([H])c(OC([H])([H])C([H])([H])C([H])(C([H])([H])[H])C3([H])C([H])([H])C([H])([H])N(C(=O)N4C([H])([H])C([H])([H])C([H])([H])C([H])(n5nc(-c6c([H])c([H])c(Oc7c([H])c([H])c(F)c([H])c7F)c([H])c6[H])c(C(=O)N([H])[H])c5N([H])[H])C4([H])[H])C([H])([H])C3([H])[H])c([H])c([H])c2C1([H])[H]

$$$$
46:0:0
     RDKit          3D

 88 96  0  0  1  0  0  0  0  0999 V2000
  -30.1280  -19.6210   19.1830 C   0  0  0  0  0  2  0  0  0  0  0  0
  -30.0250  -20.9530   20.1880 C   0  0  0  0  0  3  0  0  0  0  0  0
  -29.8070  -19.6040   21.1540 C   0  0  0  0  0  3  0  0  0  0  0  0
  -30.6760  -18.4940   20.2480 C   0  0  0  0  0  3  0  0  0  0  0  0
  -31.2350  -15.5040   20.3750 C   0  0  0  0  0  0  0  0  0  0  0  0
  -31.2870  -12.9430   19.8190 C   0  0  0  0  0  2  0  0  0  0  0  0
  -30.4540  -12.5090   18.5850 C   0  0  0  0  0  2  0  0  0  0  0  0
  -28.9830  -12.2770   18.9710 C   0  0  0  0  0  2  0  0  0  0  0  0
  -28.4510  -13.3910   19.9030 C   0  0  0  0  0  3  0  0  0  0  0  0
  -29.4200  -13.7330   21.0540 C   0  0  0  0  0  2  0  0  0  0  0  0
  -30.6720  -14.1870   20.4240 N   0  0  0  0  0  0  0  0  0  0  0  0
  -32.4740  -15.4590   20.3000 O   0  0  0  0  0  0  0  0  0  0  0  0
  -30.4740  -16.7960   20.2330 N   0  0  0  0  0  0  0  0  0  0  0  0
  -29.4900  -16.5730   20.1990 H   0  0  0  0  0  0  0  0  0  0  0  0
  -26.0880  -14.0640   20.5690 C   0  0  0  0  0  0  0  0  0  0  0  0
  -24.9760  -13.3430   20.8990 C   0  0  0  0  0  0  0  0  0  0  0  0
  -25.3790  -11.9710   20.8940 C   0  0  0  0  0  0  0  0  0  0  0  0
  -27.0940  -13.1380   20.3690 N   0  0  0  0  0  0  0  0  0  0  0  0
  -26.6780  -11.8720   20.6340 N   0  0  0  0  0  0  0  0  0  0  0  0
  -24.5820  -10.7480   21.0580 C   0  0  0  0  0  0  0  0  0  0  0  0
  -24.9100   -9.7750   22.0290 C   0  0  0  0  0  3  0  0  0  0  0  0
  -24.1140   -8.6190   22.1820 C   0  0  0  0  0  3  0  0  0  0  0  0
  -22.9760   -8.4290   21.3640 C   0  0  0  0  0  0  0  0  0  0  0  0
  -22.6680   -9.3870   20.3830 C   0  0  0  0  0  3  0  0  0  0  0  0
  -23.4640  -10.5340   20.2280 C   0  0  0  0  0  3  0  0  0  0  0  0
  -22.1590   -7.3250   21.4240 O   0  0  0  0  0  0  0  0  0  0  0  0
  -21.9830   -6.6230   22.5900 C   0  0  0  0  0  0  0  0  0  0  0  0
  -21.4860   -7.2380   23.7610 C   0  0  0  0  0  3  0  0  0  0  0  0
  -21.2530   -6.4660   24.9170 C   0  0  0  0  0  3  0  0  0  0  0  0
  -21.5070   -5.0800   24.9020 C   0  0  0  0  0  0  0  0  0  0  0  0
  -21.9950   -4.4670   23.7340 C   0  0  0  0  0  3  0  0  0  0  0  0
  -22.2290   -5.2370   22.5810 C   0  0  0  0  0  0  0  0  0  0  0  0
  -22.6810   -4.6370   21.4540 F   0  0  0  0  0  0  0  0  0  0  0  0
  -21.2760   -4.3370   26.0080 F   0  0  0  0  0  0  0  0  0  0  0  0
  -23.5940  -13.8900   21.1020 C   0  0  0  0  0  0  0  0  0  0  0  0
  -22.8040  -13.2520   21.9570 N   0  0  0  0  0  0  0  0  0  0  0  0
  -23.2280  -14.9210   20.5390 O   0  0  0  0  0  0  0  0  0  0  0  0
  -23.1160  -12.4180   22.4340 H   0  0  0  0  0  0  0  0  0  0  0  0
  -21.8740  -13.6030   22.1380 H   0  0  0  0  0  0  0  0  0  0  0  0
  -26.3230  -15.4250   20.3870 N   0  0  0  0  0  0  0  0  0  0  0  0
  -25.5740  -16.1070   20.4460 H   0  0  0  0  0  0  0  0  0  0  0  0
  -27.1870  -15.8150   20.0410 H   0  0  0  0  0  0  0  0  0  0  0  0
  -29.1740  -22.5740   19.8790 C   0  0  0  0  0  2  0  0  0  0  0  0
  -28.9090  -24.1950   20.7150 C   0  0  0  0  0  2  0  0  0  0  0  0
  -28.8850  -25.8390   20.3400 O   0  0  0  0  0  0  0  0  0  0  0  0
  -24.8600  -31.6460   23.2390 C   0  0  0  0  0  0  0  0  0  0  0  0
  -27.7910  -26.8750   20.3370 C   0  0  0  0  0  0  0  0  0  0  0  0
  -23.8080  -30.1910   21.5550 C   0  0  0  0  0  3  0  0  0  0  0  0
  -25.3950  -28.6550   20.1990 C   0  0  0  0  0  0  0  0  0  0  0  0
  -26.3660  -30.5320   21.5060 C   0  0  0  0  0  2  0  0  0  0  0  0
  -26.5390  -29.1200   20.8590 C   0  0  0  0  0  0  0  0  0  0  0  0
  -27.7330  -28.2550   20.8920 C   0  0  0  0  0  3  0  0  0  0  0  0
  -26.6030  -26.5690   19.6330 C   0  0  0  0  0  3  0  0  0  0  0  0
  -25.4520  -27.4000   19.5650 C   0  0  0  0  0  3  0  0  0  0  0  0
  -24.1320  -29.5190   20.1910 C   0  0  0  0  0  2  0  0  0  0  0  0
  -25.0290  -30.8210   22.1530 N   0  0  0  0  0  0  0  0  0  0  0  0
  -23.7380  -31.8720   23.7200 O   0  0  0  0  0  0  0  0  0  0  0  0
  -23.1300  -29.1590   22.4950 C   0  0  0  0  0  0  0  0  0  0  0  0
  -21.8320  -28.8710   22.2790 N   0  0  0  0  0  0  0  0  0  0  0  0
  -23.7830  -28.6160   23.3910 O   0  0  0  0  0  0  0  0  0  0  0  0
  -21.3530  -29.3610   21.5370 H   0  0  0  0  0  0  0  0  0  0  0  0
  -18.5680  -27.3080   22.5240 C   0  0  0  0  0  0  0  0  0  0  0  0
  -21.0440  -27.8760   23.0170 C   0  0  0  0  0  3  0  0  0  0  0  0
  -21.3590  -26.4440   22.5220 C   0  0  0  0  0  2  0  0  0  0  0  0
  -20.4050  -25.9610   21.4250 C   0  0  0  0  0  2  0  0  0  0  0  0
  -18.9610  -25.9670   21.9300 C   0  0  0  0  0  2  0  0  0  0  0  0
  -19.5460  -28.2110   23.0200 C   0  0  0  0  0  0  0  0  0  0  0  0
  -19.1260  -29.4580   23.5330 C   0  0  0  0  0  3  0  0  0  0  0  0
  -17.7620  -29.8050   23.5560 C   0  0  0  0  0  3  0  0  0  0  0  0
  -16.7970  -28.9010   23.0750 C   0  0  0  0  0  3  0  0  0  0  0  0
  -17.2010  -27.6550   22.5670 C   0  0  0  0  0  3  0  0  0  0  0  0
  -26.0670  -32.3590   23.9200 C   0  0  0  0  0  3  0  0  0  0  0  0
  -26.5240  -31.6570   25.2580 C   0  0  1  0  0  0  0  0  0  0  0  0
  -25.3740  -31.4230   26.2650 C   0  0  0  0  0  1  0  0  0  0  0  0
  -27.1760  -30.2870   24.9660 C   0  0  0  0  0  1  0  0  0  0  0  0
  -27.6040  -32.5150   25.9600 C   0  0  0  0  0  1  0  0  0  0  0  0
  -25.6780  -33.7530   24.1930 N   0  0  0  0  0  0  0  0  0  0  0  0
  -26.0020  -34.8050   23.4290 C   0  0  0  0  0  0  0  0  0  0  0  0
  -26.7190  -34.7050   22.4310 O   0  0  0  0  0  0  0  0  0  0  0  0
  -25.0450  -33.8990   24.9650 H   0  0  0  0  0  0  0  0  0  0  0  0
  -24.2110  -36.5160   22.9740 C   0  0  0  0  0  1  0  0  0  0  0  0
  -25.4430  -36.1860   23.8320 C   0  0  0  0  0  3  0  0  0  0  0  0
  -27.5130  -37.1900   24.6960 C   0  0  0  0  0  1  0  0  0  0  0  0
  -26.4320  -37.2810   23.7180 N   0  0  0  0  0  0  0  0  0  0  0  0
  -25.9800  -38.1860   23.8320 H   0  0  0  0  0  0  0  0  0  0  0  0
  -30.1750  -19.7920   22.6280 C   0  0  0  0  0  2  0  0  0  0  0  0
  -31.1330  -18.7950   24.7730 C   0  0  0  0  0  1  0  0  0  0  0  0
  -30.5570  -18.5020   23.3780 C   0  0  0  0  0  2  0  0  0  0  0  0
  1  2  1  0
  1  4  1  0
  2 43  1  0
  2  3  1  0
  3 86  1  0
  4 13  1  0
  4  3  1  0
  5 11  1  0
  6 11  1  0
  7  8  1  0
  7  6  1  0
  9  8  1  0
  9 18  1  0
  9 10  1  0
 11 10  1  0
 12  5  2  0
 13  5  1  0
 14 13  1  0
 15 16  2  0
 16 35  1  0
 17 16  1  0
 17 20  1  0
 18 15  1  0
 18 19  1  0
 19 17  2  0
 20 21  1  0
 21 22  2  0
 23 26  1  0
 23 22  1  0
 24 23  2  0
 25 24  1  0
 25 20  2  0
 26 27  1  0
 27 28  1  0
 28 29  2  0
 30 29  1  0
 30 34  1  0
 31 30  2  0
 32 27  2  0
 32 31  1  0
 33 32  1  0
 35 36  1  0
 36 39  1  0
 36 38  1  0
 37 35  2  0
 40 41  1  0
 40 15  1  0
 42 40  1  0
 43 44  1  0
 45 44  1  0
 46 57  2  0
 47 45  1  0
 47 52  1  0
 48 56  1  0
 48 58  1  0
 49 51  1  0
 50 56  1  0
 51 52  2  0
 51 50  1  0
 53 47  2  0
 54 53  1  0
 54 49  2  0
 55 49  1  0
 55 48  1  0
 56 46  1  0
 58 60  2  0
 59 58  1  0
 61 59  1  0
 62 71  2  0
 62 67  1  0
 63 59  1  0
 63 67  1  0
 64 63  1  0
 65 66  1  0
 65 64  1  0
 66 62  1  0
 67 68  2  0
 68 69  1  0
 70 69  2  0
 71 70  1  0
 72 46  1  0
 72 77  1  0
 72 73  1  0
 73 76  1  1
 73 74  1  0
 75 73  1  0
 77 80  1  0
 78 82  1  0
 78 77  1  0
 79 78  2  0
 82 81  1  0
 84 85  1  0
 84 82  1  0
 84 83  1  0
 86 88  1  0
 88 87  1  0
M  ISO  4   5 100  13 100  44 101  45 101
M  END
>  <TORSDO>  (46) 
F 20

>  <SCORE>  (46) 
-10.861

>  <name>  (46) 
46

>  <ligand_id>  (46) 
46

>  <original_smiles>  (46) 
[H]c1c([H])c([H])c2c(c1[H])C([H])([H])C([H])([H])C([H])([H])C2([H])N([H])C(=O)C1([H])N(C(=O)C([H])(N([H])C(=O)C([H])(N([H])C([H])([H])[H])C([H])([H])[H])C(C([H])([H])[H])(C([H])([H])[H])C([H])([H])[H])C([H])([H])c2c([H])c(OC([H])([H])C([H])([H])C3([H])C([H])([H])C([H])(N([H])C(=O)N4C([H])([H])C([H])([H])C([H])([H])C([H])(n5nc(-c6c([H])c([H])c(Oc7c([H])c([H])c(F)c([H])c7F)c([H])c6[H])c(C(=O)N([H])[H])c5N([H])[H])C4([H])[H])C3([H])C([H])([H])C([H])([H])C([H])([H])[H])c([H])c([H])c2C1([H])[H]

>  <smiles>  (46) 
[H]c1c([H])c([H])c2c(c1[H])C([H])([H])C([H])([H])C([H])([H])C2([H])N([H])C(=O)C1([H])N(C(=O)C([H])(N([H])C(=O)C([H])(N([H])C([H])([H])[H])C([H])([H])[H])C(C([H])([H])[H])(C([H])([H])[H])C([H])([H])[H])C([H])([H])c2c([H])c(OC([H])([H])C([H])([H])C3([H])C([H])([H])C([H])(N([H])C(=O)N4C([H])([H])C([H])([H])C([H])([H])C([H])(n5nc(-c6c([H])c([H])c(Oc7c([H])c([H])c(F)c([H])c7F)c([H])c6[H])c(C(=O)N([H])[H])c5N([H])[H])C4([H])[H])C3([H])C([H])([H])C([H])([H])C([H])([H])[H])c([H])c([H])c2C1([H])[H]

$$$$
47:0:0
     RDKit          3D

 86 94  0  0  1  0  0  0  0  0999 V2000
  -29.9620  -22.3780   21.0280 C   0  0  0  0  0  3  0  0  0  0  0  0
  -30.2690  -21.0330   21.0920 C   0  0  0  0  0  3  0  0  0  0  0  0
  -28.3410  -21.2270   19.8910 C   0  0  0  0  0  2  0  0  0  0  0  0
  -28.5590  -22.7760   20.5470 C   0  0  0  0  0  3  0  0  0  0  0  0
  -29.2200  -19.9830   20.6330 C   0  0  0  0  0  3  0  0  0  0  0  0
  -31.1990  -18.5780   19.4960 C   0  0  0  0  0  1  0  0  0  0  0  0
  -29.7680  -18.3900   20.0220 C   0  0  0  0  0  3  0  0  0  0  0  0
  -29.6820  -16.7410   20.6970 C   0  0  0  0  0  2  0  0  0  0  0  0
  -30.4270  -15.2190   20.2910 C   0  0  0  0  0  0  0  0  0  0  0  0
  -30.3820  -12.7910   19.3910 C   0  0  0  0  0  2  0  0  0  0  0  0
  -29.4690  -12.6530   18.1460 C   0  0  0  0  0  2  0  0  0  0  0  0
  -28.0120  -12.4030   18.5670 C   0  0  0  0  0  2  0  0  0  0  0  0
  -27.5680  -13.3510   19.7090 C   0  0  0  0  0  3  0  0  0  0  0  0
  -28.6060  -13.4460   20.8470 C   0  0  0  0  0  2  0  0  0  0  0  0
  -29.8680  -13.9150   20.2530 N   0  0  0  0  0  0  0  0  0  0  0  0
  -31.6210  -15.2250   19.9580 O   0  0  0  0  0  0  0  0  0  0  0  0
  -25.1830  -13.9140   20.4220 C   0  0  0  0  0  0  0  0  0  0  0  0
  -24.1170  -13.1390   20.7870 C   0  0  0  0  0  0  0  0  0  0  0  0
  -24.5880  -11.7890   20.7770 C   0  0  0  0  0  0  0  0  0  0  0  0
  -26.2310  -13.0390   20.2000 N   0  0  0  0  0  0  0  0  0  0  0  0
  -25.8830  -11.7550   20.4820 N   0  0  0  0  0  0  0  0  0  0  0  0
  -23.8610  -10.5270   20.9720 C   0  0  0  0  0  0  0  0  0  0  0  0
  -24.2900   -9.5640   21.9110 C   0  0  0  0  0  3  0  0  0  0  0  0
  -23.5590   -8.3680   22.0940 C   0  0  0  0  0  3  0  0  0  0  0  0
  -22.3870   -8.1300   21.3370 C   0  0  0  0  0  0  0  0  0  0  0  0
  -21.9780   -9.0820   20.3880 C   0  0  0  0  0  3  0  0  0  0  0  0
  -22.7090  -10.2670   20.2030 C   0  0  0  0  0  3  0  0  0  0  0  0
  -21.6290   -6.9860   21.4300 O   0  0  0  0  0  0  0  0  0  0  0  0
  -21.5890   -6.2410   22.5810 C   0  0  0  0  0  0  0  0  0  0  0  0
  -21.1840   -6.7960   23.8160 C   0  0  0  0  0  3  0  0  0  0  0  0
  -21.0910   -5.9770   24.9590 C   0  0  0  0  0  3  0  0  0  0  0  0
  -21.3900   -4.6040   24.8690 C   0  0  0  0  0  0  0  0  0  0  0  0
  -21.7870   -4.0490   23.6390 C   0  0  0  0  0  3  0  0  0  0  0  0
  -21.8830   -4.8640   22.4990 C   0  0  0  0  0  0  0  0  0  0  0  0
  -22.2450   -4.3200   21.3120 F   0  0  0  0  0  0  0  0  0  0  0  0
  -21.2930   -3.8150   25.9650 F   0  0  0  0  0  0  0  0  0  0  0  0
  -22.7160  -13.6150   21.0340 C   0  0  0  0  0  0  0  0  0  0  0  0
  -21.9780  -12.9280   21.8990 N   0  0  0  0  0  0  0  0  0  0  0  0
  -22.2830  -14.6320   20.4940 O   0  0  0  0  0  0  0  0  0  0  0  0
  -22.3390  -12.1040   22.3540 H   0  0  0  0  0  0  0  0  0  0  0  0
  -21.0360  -13.2300   22.1070 H   0  0  0  0  0  0  0  0  0  0  0  0
  -25.3450  -15.2840   20.2340 N   0  0  0  0  0  0  0  0  0  0  0  0
  -24.5770  -15.9390   20.3400 H   0  0  0  0  0  0  0  0  0  0  0  0
  -26.2000  -15.7230   19.9170 H   0  0  0  0  0  0  0  0  0  0  0  0
  -28.1530  -24.3810   19.8720 C   0  0  0  0  0  2  0  0  0  0  0  0
  -28.2120  -25.9410   20.3420 O   0  0  0  0  0  0  0  0  0  0  0  0
  -24.6370  -31.8610   23.2170 C   0  0  0  0  0  0  0  0  0  0  0  0
  -27.1910  -27.0080   20.2170 C   0  0  0  0  0  0  0  0  0  0  0  0
  -23.4380  -30.4580   21.5880 C   0  0  0  0  0  3  0  0  0  0  0  0
  -24.8830  -28.8560   20.1630 C   0  0  0  0  0  0  0  0  0  0  0  0
  -25.9980  -30.6820   21.4290 C   0  0  0  0  0  2  0  0  0  0  0  0
  -26.0660  -29.2720   20.7820 C   0  0  0  0  0  0  0  0  0  0  0  0
  -27.2120  -28.3660   20.7940 C   0  0  0  0  0  3  0  0  0  0  0  0
  -25.9830  -26.7420   19.5310 C   0  0  0  0  0  3  0  0  0  0  0  0
  -24.8630  -27.6110   19.5170 C   0  0  0  0  0  3  0  0  0  0  0  0
  -23.6600  -29.7690   20.2130 C   0  0  0  0  0  2  0  0  0  0  0  0
  -24.7130  -31.0280   22.1310 N   0  0  0  0  0  0  0  0  0  0  0  0
  -23.5500  -32.1520   23.7420 O   0  0  0  0  0  0  0  0  0  0  0  0
  -22.7510  -29.4650   22.5600 C   0  0  0  0  0  0  0  0  0  0  0  0
  -21.4200  -29.3000   22.4420 N   0  0  0  0  0  0  0  0  0  0  0  0
  -23.4200  -28.8410   23.3870 O   0  0  0  0  0  0  0  0  0  0  0  0
  -20.9320  -29.8530   21.7510 H   0  0  0  0  0  0  0  0  0  0  0  0
  -18.0400  -28.0950   22.9650 C   0  0  0  0  0  0  0  0  0  0  0  0
  -20.6000  -28.3660   23.2220 C   0  0  0  0  0  3  0  0  0  0  0  0
  -20.7020  -26.9310   22.6560 C   0  0  0  0  0  2  0  0  0  0  0  0
  -19.5990  -26.6000   21.6470 C   0  0  0  0  0  2  0  0  0  0  0  0
  -18.2180  -26.7440   22.2930 C   0  0  0  0  0  2  0  0  0  0  0  0
  -19.1570  -28.8640   23.3860 C   0  0  0  0  0  0  0  0  0  0  0  0
  -18.9330  -30.1270   23.9760 C   0  0  0  0  0  3  0  0  0  0  0  0
  -17.6260  -30.6200   24.1470 C   0  0  0  0  0  3  0  0  0  0  0  0
  -16.5240  -29.8500   23.7390 C   0  0  0  0  0  3  0  0  0  0  0  0
  -16.7320  -28.5880   23.1540 C   0  0  0  0  0  3  0  0  0  0  0  0
  -25.9120  -32.5050   23.8420 C   0  0  0  0  0  3  0  0  0  0  0  0
  -26.4260  -31.7420   25.1250 C   0  0  1  0  0  0  0  0  0  0  0  0
  -25.3300  -31.5180   26.1940 C   0  0  0  0  0  1  0  0  0  0  0  0
  -27.0060  -30.3600   24.7500 C   0  0  0  0  0  1  0  0  0  0  0  0
  -27.5800  -32.5360   25.7810 C   0  0  0  0  0  1  0  0  0  0  0  0
  -25.5950  -33.9030   24.1790 N   0  0  0  0  0  0  0  0  0  0  0  0
  -25.9130  -34.9660   23.4260 C   0  0  0  0  0  0  0  0  0  0  0  0
  -26.5680  -34.8730   22.3850 O   0  0  0  0  0  0  0  0  0  0  0  0
  -25.0160  -34.0510   24.9910 H   0  0  0  0  0  0  0  0  0  0  0  0
  -24.1680  -36.7550   23.1200 C   0  0  0  0  0  1  0  0  0  0  0  0
  -25.4290  -36.3510   23.9020 C   0  0  0  0  0  3  0  0  0  0  0  0
  -27.5760  -37.2470   24.6870 C   0  0  0  0  0  1  0  0  0  0  0  0
  -26.4520  -37.4110   23.7690 N   0  0  0  0  0  0  0  0  0  0  0  0
  -26.0430  -38.3290   23.9270 H   0  0  0  0  0  0  0  0  0  0  0  0
  1  2  2  0
  3  4  1  0
  3  5  1  0
  4 45  1  0
  4  1  1  0
  5  7  1  0
  5  2  1  0
  7  6  1  0
  7  8  1  0
  9  8  1  0
 10 15  1  0
 11 12  1  0
 11 10  1  0
 13 12  1  0
 13 20  1  0
 13 14  1  0
 15  9  1  0
 15 14  1  0
 16  9  2  0
 17 18  2  0
 18 37  1  0
 19 18  1  0
 19 22  1  0
 20 17  1  0
 20 21  1  0
 21 19  2  0
 22 23  1  0
 23 24  2  0
 25 28  1  0
 25 24  1  0
 26 25  2  0
 27 26  1  0
 27 22  2  0
 28 29  1  0
 29 30  1  0
 30 31  2  0
 32 31  1  0
 32 36  1  0
 33 32  2  0
 34 29  2  0
 34 33  1  0
 35 34  1  0
 37 38  1  0
 38 41  1  0
 38 40  1  0
 39 37  2  0
 42 43  1  0
 42 17  1  0
 44 42  1  0
 45 46  1  0
 47 58  2  0
 48 46  1  0
 48 53  1  0
 49 57  1  0
 49 59  1  0
 50 56  1  0
 50 52  1  0
 51 57  1  0
 52 53  2  0
 52 51  1  0
 54 48  2  0
 55 54  1  0
 55 50  2  0
 56 49  1  0
 57 47  1  0
 59 61  2  0
 60 59  1  0
 62 60  1  0
 63 72  2  0
 63 68  1  0
 64 60  1  0
 64 68  1  0
 65 64  1  0
 66 67  1  0
 66 65  1  0
 67 63  1  0
 68 69  2  0
 69 70  1  0
 71 70  2  0
 72 71  1  0
 73 47  1  0
 73 78  1  0
 73 74  1  0
 74 77  1  1
 74 75  1  0
 76 74  1  0
 78 81  1  0
 79 83  1  0
 79 78  1  0
 80 79  2  0
 83 82  1  0
 85 83  1  0
 85 86  1  0
 85 84  1  0
M  ISO  4   8 100   9 100  45 101  46 101
M  END
>  <TORSDO>  (47) 
F 19

>  <SCORE>  (47) 
-16.071

>  <name>  (47) 
47

>  <ligand_id>  (47) 
47

>  <original_smiles>  (47) 
[H]C1=C([H])C([H])(C([H])(C([H])([H])[H])C([H])([H])C(=O)N2C([H])([H])C([H])([H])C([H])([H])C([H])(n3nc(-c4c([H])c([H])c(Oc5c([H])c([H])c(F)c([H])c5F)c([H])c4[H])c(C(=O)N([H])[H])c3N([H])[H])C2([H])[H])C([H])([H])C1([H])C([H])([H])Oc1c([H])c([H])c2c(c1[H])C([H])([H])N(C(=O)C([H])(N([H])C(=O)C([H])(N([H])C([H])([H])[H])C([H])([H])[H])C(C([H])([H])[H])(C([H])([H])[H])C([H])([H])[H])C([H])(C(=O)N([H])C1([H])c3c([H])c([H])c([H])c([H])c3C([H])([H])C([H])([H])C1([H])[H])C2([H])[H]

>  <smiles>  (47) 
[H]C1=C([H])C([H])(C([H])(C([H])([H])[H])C([H])([H])C(=O)N2C([H])([H])C([H])([H])C([H])([H])C([H])(n3nc(-c4c([H])c([H])c(Oc5c([H])c([H])c(F)c([H])c5F)c([H])c4[H])c(C(=O)N([H])[H])c3N([H])[H])C2([H])[H])C([H])([H])C1([H])C([H])([H])Oc1c([H])c([H])c2c(c1[H])C([H])([H])N(C(=O)C([H])(N([H])C(=O)C([H])(N([H])C([H])([H])[H])C([H])([H])[H])C(C([H])([H])[H])(C([H])([H])[H])C([H])([H])[H])C([H])(C(=O)N([H])C1([H])c3c([H])c([H])c([H])c([H])c3C([H])([H])C([H])([H])C1([H])[H])C2([H])[H]

$$$$
48:0:0
     RDKit          3D

 89 97  0  0  1  0  0  0  0  0999 V2000
  -28.4540  -21.1460   19.5510 C   0  0  0  0  0  3  0  0  0  0  0  0
  -30.0550  -21.2650   21.2860 C   0  0  0  0  0  3  0  0  0  0  0  0
  -28.6860  -19.7100   19.4650 C   0  0  0  0  0  3  0  0  0  0  0  0
  -30.2900  -19.8430   21.1960 C   0  0  0  0  0  3  0  0  0  0  0  0
  -29.1590  -22.0120   20.4510 C   0  0  0  0  0  0  0  0  0  0  0  0
  -29.6520  -18.9840   20.2530 C   0  0  0  0  0  0  0  0  0  0  0  0
  -30.3260  -17.3820   18.3490 C   0  0  0  0  0  1  0  0  0  0  0  0
  -30.2510  -17.5000   19.8860 C   0  0  0  0  0  3  0  0  0  0  0  0
  -30.5900  -14.9030   20.3460 C   0  0  0  0  0  0  0  0  0  0  0  0
  -30.4010  -12.5950   19.3790 C   0  0  0  0  0  2  0  0  0  0  0  0
  -29.4690  -12.6230   18.1470 C   0  0  0  0  0  2  0  0  0  0  0  0
  -28.0010  -12.4390   18.5770 C   0  0  0  0  0  2  0  0  0  0  0  0
  -27.6160  -13.3420   19.7780 C   0  0  0  0  0  3  0  0  0  0  0  0
  -28.6710  -13.3020   20.9030 C   0  0  0  0  0  2  0  0  0  0  0  0
  -29.9560  -13.6720   20.3010 N   0  0  0  0  0  0  0  0  0  0  0  0
  -31.7920  -14.9430   20.0650 O   0  0  0  0  0  0  0  0  0  0  0  0
  -29.8470  -16.0990   20.4330 N   0  0  0  0  0  0  0  0  0  0  0  0
  -28.8730  -15.9890   20.6750 H   0  0  0  0  0  0  0  0  0  0  0  0
  -25.2330  -13.9300   20.5070 C   0  0  0  0  0  0  0  0  0  0  0  0
  -24.1660  -13.1570   20.8770 C   0  0  0  0  0  0  0  0  0  0  0  0
  -24.6300  -11.8060   20.8530 C   0  0  0  0  0  0  0  0  0  0  0  0
  -26.2750  -13.0500   20.2730 N   0  0  0  0  0  0  0  0  0  0  0  0
  -25.9210  -11.7670   20.5460 N   0  0  0  0  0  0  0  0  0  0  0  0
  -23.9010  -10.5440   21.0440 C   0  0  0  0  0  0  0  0  0  0  0  0
  -24.3310   -9.5750   21.9770 C   0  0  0  0  0  3  0  0  0  0  0  0
  -23.6010   -8.3810   22.1580 C   0  0  0  0  0  3  0  0  0  0  0  0
  -22.4270   -8.1460   21.4030 C   0  0  0  0  0  0  0  0  0  0  0  0
  -22.0160   -9.1030   20.4580 C   0  0  0  0  0  3  0  0  0  0  0  0
  -22.7470  -10.2890   20.2770 C   0  0  0  0  0  3  0  0  0  0  0  0
  -21.6700   -7.0030   21.4910 O   0  0  0  0  0  0  0  0  0  0  0  0
  -21.6200   -6.2590   22.6430 C   0  0  0  0  0  0  0  0  0  0  0  0
  -21.1920   -6.8140   23.8690 C   0  0  0  0  0  3  0  0  0  0  0  0
  -21.0890   -5.9970   25.0130 C   0  0  0  0  0  3  0  0  0  0  0  0
  -21.4060   -4.6270   24.9320 C   0  0  0  0  0  0  0  0  0  0  0  0
  -21.8280   -4.0730   23.7110 C   0  0  0  0  0  3  0  0  0  0  0  0
  -21.9330   -4.8870   22.5690 C   0  0  0  0  0  0  0  0  0  0  0  0
  -22.3190   -4.3430   21.3900 F   0  0  0  0  0  0  0  0  0  0  0  0
  -21.3010   -3.8400   26.0300 F   0  0  0  0  0  0  0  0  0  0  0  0
  -22.7680  -13.6370   21.1400 C   0  0  0  0  0  0  0  0  0  0  0  0
  -22.0350  -12.9450   22.0040 N   0  0  0  0  0  0  0  0  0  0  0  0
  -22.3340  -14.6610   20.6140 O   0  0  0  0  0  0  0  0  0  0  0  0
  -22.3980  -12.1160   22.4510 H   0  0  0  0  0  0  0  0  0  0  0  0
  -21.0970  -13.2470   22.2210 H   0  0  0  0  0  0  0  0  0  0  0  0
  -25.3980  -15.3000   20.3230 N   0  0  0  0  0  0  0  0  0  0  0  0
  -24.6310  -15.9550   20.4280 H   0  0  0  0  0  0  0  0  0  0  0  0
  -26.2420  -15.7320   19.9680 H   0  0  0  0  0  0  0  0  0  0  0  0
  -29.1770  -23.6510   20.5070 C   0  0  0  0  0  3  0  0  0  0  0  0
  -28.0190  -24.7660   20.1290 C   0  0  0  0  0  3  0  0  0  0  0  0
  -28.2570  -26.2840   20.2510 O   0  0  0  0  0  0  0  0  0  0  0  0
  -24.6130  -31.8980   23.2300 C   0  0  0  0  0  0  0  0  0  0  0  0
  -27.1790  -27.2230   20.1880 C   0  0  0  0  0  0  0  0  0  0  0  0
  -23.4010  -30.4960   21.6020 C   0  0  0  0  0  3  0  0  0  0  0  0
  -24.8400  -28.9280   20.1670 C   0  0  0  0  0  0  0  0  0  0  0  0
  -25.9490  -30.7820   21.4120 C   0  0  0  0  0  2  0  0  0  0  0  0
  -26.0200  -29.3920   20.7640 C   0  0  0  0  0  0  0  0  0  0  0  0
  -27.1930  -28.5530   20.7550 C   0  0  0  0  0  3  0  0  0  0  0  0
  -25.9730  -26.8470   19.5580 C   0  0  0  0  0  3  0  0  0  0  0  0
  -24.8260  -27.6680   19.5510 C   0  0  0  0  0  3  0  0  0  0  0  0
  -23.6110  -29.8160   20.2220 C   0  0  0  0  0  2  0  0  0  0  0  0
  -24.6740  -31.0800   22.1350 N   0  0  0  0  0  0  0  0  0  0  0  0
  -23.5320  -32.1800   23.7680 O   0  0  0  0  0  0  0  0  0  0  0  0
  -22.7380  -29.4860   22.5710 C   0  0  0  0  0  0  0  0  0  0  0  0
  -21.4110  -29.3080   22.4500 N   0  0  0  0  0  0  0  0  0  0  0  0
  -23.4170  -28.8690   23.3950 O   0  0  0  0  0  0  0  0  0  0  0  0
  -20.9230  -29.8590   21.7590 H   0  0  0  0  0  0  0  0  0  0  0  0
  -18.0360  -28.0900   22.9600 C   0  0  0  0  0  0  0  0  0  0  0  0
  -20.5930  -28.3720   23.2260 C   0  0  0  0  0  3  0  0  0  0  0  0
  -20.7060  -26.9360   22.6640 C   0  0  0  0  0  2  0  0  0  0  0  0
  -19.6060  -26.5960   21.6530 C   0  0  0  0  0  2  0  0  0  0  0  0
  -18.2230  -26.7380   22.2940 C   0  0  0  0  0  2  0  0  0  0  0  0
  -19.1500  -28.8650   23.3820 C   0  0  0  0  0  0  0  0  0  0  0  0
  -18.9220  -30.1300   23.9660 C   0  0  0  0  0  3  0  0  0  0  0  0
  -17.6150  -30.6220   24.1300 C   0  0  0  0  0  3  0  0  0  0  0  0
  -16.5140  -29.8450   23.7240 C   0  0  0  0  0  3  0  0  0  0  0  0
  -16.7280  -28.5820   23.1420 C   0  0  0  0  0  3  0  0  0  0  0  0
  -25.8980  -32.5360   23.8430 C   0  0  0  0  0  3  0  0  0  0  0  0
  -26.4150  -31.7750   25.1260 C   0  0  1  0  0  0  0  0  0  0  0  0
  -25.3250  -31.5500   26.2000 C   0  0  0  0  0  1  0  0  0  0  0  0
  -26.9960  -30.3930   24.7470 C   0  0  0  0  0  1  0  0  0  0  0  0
  -27.5690  -32.5740   25.7780 C   0  0  0  0  0  1  0  0  0  0  0  0
  -25.5880  -33.9360   24.1690 N   0  0  0  0  0  0  0  0  0  0  0  0
  -25.9150  -34.9900   23.4080 C   0  0  0  0  0  0  0  0  0  0  0  0
  -26.5790  -34.8840   22.3740 O   0  0  0  0  0  0  0  0  0  0  0  0
  -24.9970  -34.0900   24.9720 H   0  0  0  0  0  0  0  0  0  0  0  0
  -24.1900  -36.7900   23.0620 C   0  0  0  0  0  1  0  0  0  0  0  0
  -25.4330  -36.3800   23.8670 C   0  0  0  0  0  3  0  0  0  0  0  0
  -27.5730  -37.2620   24.6900 C   0  0  0  0  0  1  0  0  0  0  0  0
  -26.4670  -37.4320   23.7510 N   0  0  0  0  0  0  0  0  0  0  0  0
  -26.0630  -38.3520   23.9050 H   0  0  0  0  0  0  0  0  0  0  0  0
  1  5  1  0
  3  1  2  0
  3  6  1  0
  4  2  1  0
  5 47  1  0
  5  2  2  0
  6  4  2  0
  8  7  1  0
  8  6  1  0
  8 17  1  0
  9 17  1  0
 10 15  1  0
 11 12  1  0
 11 10  1  0
 13 12  1  0
 13 22  1  0
 13 14  1  0
 15  9  1  0
 15 14  1  0
 16  9  2  0
 17 18  1  0
 19 20  2  0
 20 39  1  0
 21 20  1  0
 21 24  1  0
 22 19  1  0
 22 23  1  0
 23 21  2  0
 24 25  1  0
 25 26  2  0
 27 30  1  0
 27 26  1  0
 28 27  2  0
 29 28  1  0
 29 24  2  0
 30 31  1  0
 31 32  1  0
 32 33  2  0
 34 33  1  0
 34 38  1  0
 35 34  2  0
 36 31  2  0
 36 35  1  0
 37 36  1  0
 39 40  1  0
 40 43  1  0
 40 42  1  0
 41 39  2  0
 44 45  1  0
 44 19  1  0
 46 44  1  0
 48 49  1  0
 48 47  2  0
 50 61  2  0
 51 49  1  0
 51 56  1  0
 52 60  1  0
 52 62  1  0
 53 59  1  0
 53 55  1  0
 54 60  1  0
 55 54  1  0
 56 55  2  0
 57 51  2  0
 58 57  1  0
 58 53  2  0
 59 52  1  0
 60 50  1  0
 62 64  2  0
 63 62  1  0
 65 63  1  0
 66 75  2  0
 66 71  1  0
 67 63  1  0
 67 71  1  0
 68 67  1  0
 69 70  1  0
 69 68  1  0
 70 66  1  0
 71 72  2  0
 72 73  1  0
 74 73  2  0
 75 74  1  0
 76 50  1  0
 76 81  1  0
 76 77  1  0
 77 80  1  1
 77 78  1  0
 79 77  1  0
 81 84  1  0
 82 86  1  0
 82 81  1  0
 83 82  2  0
 86 85  1  0
 88 86  1  0
 88 89  1  0
 88 87  1  0
M  ISO  4   9 100  17 100  48 101  49 101
M  END
>  <TORSDO>  (48) 
F 19

>  <SCORE>  (48) 
-14.161

>  <name>  (48) 
48

>  <ligand_id>  (48) 
48

>  <original_smiles>  (48) 
[H]c1c([H])c([H])c2c(c1[H])C([H])([H])C([H])([H])C([H])([H])C2([H])N([H])C(=O)C1([H])N(C(=O)C([H])(N([H])C(=O)C([H])(N([H])C([H])([H])[H])C([H])([H])[H])C(C([H])([H])[H])(C([H])([H])[H])C([H])([H])[H])C([H])([H])c2c([H])c(OC([H])([H])C([H])([H])c3c([H])c([H])c(C([H])(N([H])C(=O)N4C([H])([H])C([H])([H])C([H])([H])C([H])(n5nc(-c6c([H])c([H])c(Oc7c([H])c([H])c(F)c([H])c7F)c([H])c6[H])c(C(=O)N([H])[H])c5N([H])[H])C4([H])[H])C([H])([H])[H])c([H])c3[H])c([H])c([H])c2C1([H])[H]

>  <smiles>  (48) 
[H]c1c([H])c([H])c2c(c1[H])C([H])([H])C([H])([H])C([H])([H])C2([H])N([H])C(=O)C1([H])N(C(=O)C([H])(N([H])C(=O)C([H])(N([H])C([H])([H])[H])C([H])([H])[H])C(C([H])([H])[H])(C([H])([H])[H])C([H])([H])[H])C([H])([H])c2c([H])c(OC([H])([H])C([H])([H])c3c([H])c([H])c(C([H])(N([H])C(=O)N4C([H])([H])C([H])([H])C([H])([H])C([H])(n5nc(-c6c([H])c([H])c(Oc7c([H])c([H])c(F)c([H])c7F)c([H])c6[H])c(C(=O)N([H])[H])c5N([H])[H])C4([H])[H])C([H])([H])[H])c([H])c3[H])c([H])c([H])c2C1([H])[H]

$$$$
49:0:0
     RDKit          3D

 85 93  0  0  1  0  0  0  0  0999 V2000
  -28.9930  -22.7040   20.2500 C   0  0  0  0  0  3  0  0  0  0  0  0
  -28.6230  -20.9770   20.3060 C   0  0  0  0  0  0  0  0  0  0  0  0
  -27.4170  -20.7830   20.4710 O   0  0  0  0  0  0  0  0  0  0  0  0
  -29.8840  -18.2780   21.2400 C   0  0  0  0  0  2  0  0  0  0  0  0
  -29.3240  -18.1380   19.2860 C   0  0  0  0  0  2  0  0  0  0  0  0
  -29.6410  -19.5090   20.1590 C   0  0  0  0  0  3  0  0  0  0  0  0
  -29.5390  -16.9150   20.3710 C   0  0  0  0  0  3  0  0  0  0  0  0
  -30.4140  -15.3770   20.1880 C   0  0  0  0  0  0  0  0  0  0  0  0
  -30.4580  -12.9110   19.3350 C   0  0  0  0  0  2  0  0  0  0  0  0
  -29.5230  -12.6980   18.1140 C   0  0  0  0  0  2  0  0  0  0  0  0
  -28.0820  -12.4040   18.5670 C   0  0  0  0  0  2  0  0  0  0  0  0
  -27.6320  -13.3550   19.7020 C   0  0  0  0  0  3  0  0  0  0  0  0
  -28.6910  -13.5110   20.8120 C   0  0  0  0  0  2  0  0  0  0  0  0
  -29.9140  -14.0380   20.1830 N   0  0  0  0  0  0  0  0  0  0  0  0
  -31.6250  -15.4010   19.9160 O   0  0  0  0  0  0  0  0  0  0  0  0
  -25.2730  -13.8800   20.5140 C   0  0  0  0  0  0  0  0  0  0  0  0
  -24.2240  -13.0900   20.8900 C   0  0  0  0  0  0  0  0  0  0  0  0
  -24.7000  -11.7440   20.8260 C   0  0  0  0  0  0  0  0  0  0  0  0
  -26.3170  -13.0180   20.2310 N   0  0  0  0  0  0  0  0  0  0  0  0
  -25.9860  -11.7250   20.4880 N   0  0  0  0  0  0  0  0  0  0  0  0
  -23.9840  -10.4740   21.0080 C   0  0  0  0  0  0  0  0  0  0  0  0
  -24.4100   -9.5120   21.9520 C   0  0  0  0  0  3  0  0  0  0  0  0
  -23.6910   -8.3090   22.1220 C   0  0  0  0  0  3  0  0  0  0  0  0
  -22.5310   -8.0590   21.3510 C   0  0  0  0  0  0  0  0  0  0  0  0
  -22.1240   -9.0090   20.3980 C   0  0  0  0  0  3  0  0  0  0  0  0
  -22.8440  -10.2030   20.2250 C   0  0  0  0  0  3  0  0  0  0  0  0
  -21.7850   -6.9080   21.4300 O   0  0  0  0  0  0  0  0  0  0  0  0
  -21.6850   -6.1930   22.5970 C   0  0  0  0  0  0  0  0  0  0  0  0
  -21.1760   -6.7680   23.7810 C   0  0  0  0  0  3  0  0  0  0  0  0
  -21.0250   -5.9790   24.9390 C   0  0  0  0  0  3  0  0  0  0  0  0
  -21.3740   -4.6160   24.9130 C   0  0  0  0  0  0  0  0  0  0  0  0
  -21.8770   -4.0400   23.7330 C   0  0  0  0  0  3  0  0  0  0  0  0
  -22.0280   -4.8260   22.5770 C   0  0  0  0  0  0  0  0  0  0  0  0
  -22.4930   -4.2610   21.4370 F   0  0  0  0  0  0  0  0  0  0  0  0
  -21.2230   -3.8560   26.0230 F   0  0  0  0  0  0  0  0  0  0  0  0
  -22.8290  -13.5530   21.1920 C   0  0  0  0  0  0  0  0  0  0  0  0
  -22.1240  -12.8440   22.0650 N   0  0  0  0  0  0  0  0  0  0  0  0
  -22.3740  -14.5790   20.6870 O   0  0  0  0  0  0  0  0  0  0  0  0
  -22.5050  -12.0140   22.4940 H   0  0  0  0  0  0  0  0  0  0  0  0
  -21.1890  -13.1360   22.3100 H   0  0  0  0  0  0  0  0  0  0  0  0
  -25.4240  -15.2560   20.3600 N   0  0  0  0  0  0  0  0  0  0  0  0
  -24.6560  -15.9020   20.5040 H   0  0  0  0  0  0  0  0  0  0  0  0
  -26.2640  -15.7080   20.0220 H   0  0  0  0  0  0  0  0  0  0  0  0
  -27.9700  -24.2140   20.1800 C   0  0  0  0  0  3  0  0  0  0  0  0
  -28.2130  -25.8600   20.2540 O   0  0  0  0  0  0  0  0  0  0  0  0
  -24.6560  -31.8600   23.2270 C   0  0  0  0  0  0  0  0  0  0  0  0
  -27.2020  -26.9660   20.2030 C   0  0  0  0  0  0  0  0  0  0  0  0
  -23.4610  -30.4710   21.5840 C   0  0  0  0  0  3  0  0  0  0  0  0
  -24.9070  -28.8630   20.1590 C   0  0  0  0  0  0  0  0  0  0  0  0
  -26.0280  -30.6720   21.4400 C   0  0  0  0  0  2  0  0  0  0  0  0
  -26.0970  -29.2620   20.7810 C   0  0  0  0  0  0  0  0  0  0  0  0
  -27.2380  -28.3360   20.7740 C   0  0  0  0  0  3  0  0  0  0  0  0
  -25.9800  -26.7240   19.5360 C   0  0  0  0  0  3  0  0  0  0  0  0
  -24.8750  -27.6160   19.5150 C   0  0  0  0  0  3  0  0  0  0  0  0
  -23.6910  -29.7900   20.2060 C   0  0  0  0  0  2  0  0  0  0  0  0
  -24.7370  -31.0290   22.1370 N   0  0  0  0  0  0  0  0  0  0  0  0
  -23.5670  -32.1510   23.7470 O   0  0  0  0  0  0  0  0  0  0  0  0
  -22.7620  -29.4750   22.5470 C   0  0  0  0  0  0  0  0  0  0  0  0
  -21.4310  -29.3160   22.4220 N   0  0  0  0  0  0  0  0  0  0  0  0
  -23.4240  -28.8460   23.3750 O   0  0  0  0  0  0  0  0  0  0  0  0
  -20.9490  -29.8740   21.7310 H   0  0  0  0  0  0  0  0  0  0  0  0
  -18.0430  -28.1180   22.9320 C   0  0  0  0  0  0  0  0  0  0  0  0
  -20.6050  -28.3780   23.1900 C   0  0  0  0  0  3  0  0  0  0  0  0
  -20.7020  -26.9470   22.6090 C   0  0  0  0  0  2  0  0  0  0  0  0
  -19.5960  -26.6320   21.5960 C   0  0  0  0  0  2  0  0  0  0  0  0
  -18.2170  -26.7740   22.2450 C   0  0  0  0  0  2  0  0  0  0  0  0
  -19.1650  -28.8780   23.3620 C   0  0  0  0  0  0  0  0  0  0  0  0
  -18.9470  -30.1340   23.9680 C   0  0  0  0  0  3  0  0  0  0  0  0
  -17.6410  -30.6310   24.1470 C   0  0  0  0  0  3  0  0  0  0  0  0
  -16.5360  -29.8680   23.7310 C   0  0  0  0  0  3  0  0  0  0  0  0
  -16.7380  -28.6140   23.1300 C   0  0  0  0  0  3  0  0  0  0  0  0
  -25.9270  -32.4990   23.8640 C   0  0  0  0  0  3  0  0  0  0  0  0
  -26.4320  -31.7270   25.1460 C   0  0  1  0  0  0  0  0  0  0  0  0
  -25.3310  -31.4920   26.2070 C   0  0  0  0  0  1  0  0  0  0  0  0
  -27.0160  -30.3470   24.7660 C   0  0  0  0  0  1  0  0  0  0  0  0
  -27.5800  -32.5190   25.8150 C   0  0  0  0  0  1  0  0  0  0  0  0
  -25.6090  -33.8960   24.2090 N   0  0  0  0  0  0  0  0  0  0  0  0
  -25.9050  -34.9620   23.4530 C   0  0  0  0  0  0  0  0  0  0  0  0
  -26.5390  -34.8720   22.3980 O   0  0  0  0  0  0  0  0  0  0  0  0
  -25.0400  -34.0380   25.0310 H   0  0  0  0  0  0  0  0  0  0  0  0
  -24.1350  -36.7370   23.2100 C   0  0  0  0  0  1  0  0  0  0  0  0
  -25.4290  -36.3460   23.9420 C   0  0  0  0  0  3  0  0  0  0  0  0
  -27.5940  -37.2670   24.6480 C   0  0  0  0  0  1  0  0  0  0  0  0
  -26.4380  -37.4140   23.7680 N   0  0  0  0  0  0  0  0  0  0  0  0
  -26.0260  -38.3280   23.9340 H   0  0  0  0  0  0  0  0  0  0  0  0
  1  2  1  0
  2  3  2  0
  5  6  1  0
  5  7  1  0
  6  2  1  0
  6  4  1  0
  7  8  1  0
  7  4  1  0
  9 14  1  0
 10 11  1  0
 10  9  1  0
 12 11  1  0
 12 19  1  0
 12 13  1  0
 14  8  1  0
 14 13  1  0
 15  8  2  0
 16 17  2  0
 17 36  1  0
 18 17  1  0
 18 21  1  0
 19 20  1  0
 19 16  1  0
 20 18  2  0
 21 22  1  0
 22 23  2  0
 24 27  1  0
 24 23  1  0
 25 24  2  0
 26 25  1  0
 26 21  2  0
 27 28  1  0
 28 29  1  0
 29 30  2  0
 31 30  1  0
 31 35  1  0
 32 31  2  0
 33 28  2  0
 33 32  1  0
 34 33  1  0
 36 37  1  0
 37 40  1  0
 37 39  1  0
 38 36  2  0
 41 42  1  0
 41 16  1  0
 43 41  1  0
 44  1  2  0
 44 45  1  0
 46 57  2  0
 47 45  1  0
 47 52  1  0
 48 56  1  0
 48 58  1  0
 49 55  1  0
 49 51  1  0
 50 56  1  0
 51 50  1  0
 52 51  2  0
 53 47  2  0
 54 53  1  0
 54 49  2  0
 55 48  1  0
 56 46  1  0
 58 60  2  0
 59 58  1  0
 61 59  1  0
 62 71  2  0
 62 67  1  0
 63 59  1  0
 63 67  1  0
 64 63  1  0
 65 66  1  0
 65 64  1  0
 66 62  1  0
 67 68  2  0
 68 69  1  0
 70 69  2  0
 71 70  1  0
 72 46  1  0
 72 77  1  0
 72 73  1  0
 73 76  1  1
 73 74  1  0
 75 73  1  0
 77 80  1  0
 78 82  1  0
 78 77  1  0
 79 78  2  0
 82 81  1  0
 84 85  1  0
 84 82  1  0
 84 83  1  0
M  ISO  4   7 100   8 100  44 101  45 101
M  END
>  <TORSDO>  (49) 
F 19

>  <SCORE>  (49) 
-16.163

>  <name>  (49) 
49

>  <ligand_id>  (49) 
49

>  <original_smiles>  (49) 
[H]c1c([H])c([H])c2c(c1[H])C([H])([H])C([H])([H])C([H])([H])C2([H])N([H])C(=O)C1([H])N(C(=O)C([H])(N([H])C(=O)C([H])(N([H])C([H])([H])[H])C([H])([H])[H])C(C([H])([H])[H])(C([H])([H])[H])C([H])([H])[H])C([H])([H])c2c([H])c(OC([H])([H])C([H])([H])C(=O)C3([H])C([H])([H])C([H])(C(=O)N4C([H])([H])C([H])([H])C([H])([H])C([H])(n5nc(-c6c([H])c([H])c(Oc7c([H])c([H])c(F)c([H])c7F)c([H])c6[H])c(C(=O)N([H])[H])c5N([H])[H])C4([H])[H])C3([H])[H])c([H])c([H])c2C1([H])[H]

>  <smiles>  (49) 
[H]c1c([H])c([H])c2c(c1[H])C([H])([H])C([H])([H])C([H])([H])C2([H])N([H])C(=O)C1([H])N(C(=O)C([H])(N([H])C(=O)C([H])(N([H])C([H])([H])[H])C([H])([H])[H])C(C([H])([H])[H])(C([H])([H])[H])C([H])([H])[H])C([H])([H])c2c([H])c(OC([H])([H])C([H])([H])C(=O)C3([H])C([H])([H])C([H])(C(=O)N4C([H])([H])C([H])([H])C([H])([H])C([H])(n5nc(-c6c([H])c([H])c(Oc7c([H])c([H])c(F)c([H])c7F)c([H])c6[H])c(C(=O)N([H])[H])c5N([H])[H])C4([H])[H])C3([H])[H])c([H])c([H])c2C1([H])[H]

$$$$
50:0:0
     RDKit          3D

 91 99  0  0  1  0  0  0  0  0999 V2000
  -30.2340  -21.1770   19.3360 C   0  0  0  0  0  2  0  0  0  0  0  0
  -28.4620  -22.4180   21.2750 C   0  0  0  0  0  2  0  0  0  0  0  0
  -29.4890  -22.5610   19.0240 C   0  0  0  0  0  3  0  0  0  0  0  0
  -29.0870  -23.4570   20.2740 C   0  0  0  0  0  3  0  0  0  0  0  0
  -29.4980  -20.2410   20.3520 C   0  0  0  0  0  3  0  0  0  0  0  0
  -30.3110  -23.3720   18.0070 C   0  0  0  0  0  1  0  0  0  0  0  0
  -29.2540  -21.1580   21.5160 N   0  0  0  0  0  4  0  0  0  0  0  0
  -28.7590  -20.6220   22.2110 H   0  0  0  0  0  0  0  0  0  0  0  0
  -30.1410  -21.4110   21.9210 H   0  0  0  0  0  0  0  0  0  0  0  0
  -29.2440  -18.3040   22.0190 C   0  0  0  0  0  1  0  0  0  0  0  0
  -30.1200  -18.7890   20.8370 C   0  0  0  0  0  3  0  0  0  0  0  0
  -30.3720  -17.4850   19.8780 C   0  0  0  0  0  3  0  0  0  0  0  0
  -30.3270  -15.9700   20.5140 C   0  0  0  0  0  3  0  0  0  0  0  0
  -30.9280  -14.6540   19.8050 C   0  0  0  0  0  0  0  0  0  0  0  0
  -30.5840  -12.4300   18.6910 C   0  0  0  0  0  2  0  0  0  0  0  0
  -29.5600  -12.5840   17.5440 C   0  0  0  0  0  2  0  0  0  0  0  0
  -28.1200  -12.4380   18.0730 C   0  0  0  0  0  2  0  0  0  0  0  0
  -27.8680  -13.2770   19.3540 C   0  0  0  0  0  3  0  0  0  0  0  0
  -29.0020  -13.0890   20.3870 C   0  0  0  0  0  2  0  0  0  0  0  0
  -30.2670  -13.4430   19.7270 N   0  0  0  0  0  0  0  0  0  0  0  0
  -32.0360  -14.7570   19.2710 O   0  0  0  0  0  0  0  0  0  0  0  0
  -25.5400  -13.9040   20.2360 C   0  0  0  0  0  0  0  0  0  0  0  0
  -24.4830  -13.1460   20.6640 C   0  0  0  0  0  0  0  0  0  0  0  0
  -24.9170  -11.7870   20.5880 C   0  0  0  0  0  0  0  0  0  0  0  0
  -26.5490  -13.0070   19.9250 N   0  0  0  0  0  0  0  0  0  0  0  0
  -26.1840  -11.7290   20.1970 N   0  0  0  0  0  0  0  0  0  0  0  0
  -24.1770  -10.5370   20.8110 C   0  0  0  0  0  0  0  0  0  0  0  0
  -24.5900   -9.5970   21.7810 C   0  0  0  0  0  3  0  0  0  0  0  0
  -23.8530   -8.4120   21.9920 C   0  0  0  0  0  3  0  0  0  0  0  0
  -22.6870   -8.1570   21.2310 C   0  0  0  0  0  0  0  0  0  0  0  0
  -22.2920   -9.0860   20.2490 C   0  0  0  0  0  3  0  0  0  0  0  0
  -23.0310  -10.2610   20.0390 C   0  0  0  0  0  3  0  0  0  0  0  0
  -21.9220   -7.0220   21.3470 O   0  0  0  0  0  0  0  0  0  0  0  0
  -21.7740   -6.3740   22.5460 C   0  0  0  0  0  0  0  0  0  0  0  0
  -21.2280   -7.0160   23.6790 C   0  0  0  0  0  3  0  0  0  0  0  0
  -21.0300   -6.2930   24.8720 C   0  0  0  0  0  3  0  0  0  0  0  0
  -21.3690   -4.9270   24.9330 C   0  0  0  0  0  0  0  0  0  0  0  0
  -21.9070   -4.2850   23.8040 C   0  0  0  0  0  3  0  0  0  0  0  0
  -22.1060   -5.0060   22.6140 C   0  0  0  0  0  0  0  0  0  0  0  0
  -22.6060   -4.3770   21.5230 F   0  0  0  0  0  0  0  0  0  0  0  0
  -21.1710   -4.2300   26.0750 F   0  0  0  0  0  0  0  0  0  0  0  0
  -23.1160  -13.6470   21.0320 C   0  0  0  0  0  0  0  0  0  0  0  0
  -22.4370  -12.9600   21.9440 N   0  0  0  0  0  0  0  0  0  0  0  0
  -22.6620  -14.6820   20.5460 O   0  0  0  0  0  0  0  0  0  0  0  0
  -22.8170  -12.1220   22.3560 H   0  0  0  0  0  0  0  0  0  0  0  0
  -21.5220  -13.2770   22.2340 H   0  0  0  0  0  0  0  0  0  0  0  0
  -25.7200  -15.2730   20.0630 N   0  0  0  0  0  0  0  0  0  0  0  0
  -24.9770  -15.9430   20.2290 H   0  0  0  0  0  0  0  0  0  0  0  0
  -26.5610  -15.6970   19.6920 H   0  0  0  0  0  0  0  0  0  0  0  0
  -28.0760  -24.7150   19.9830 C   0  0  0  0  0  2  0  0  0  0  0  0
  -28.3040  -26.1790   20.2700 O   0  0  0  0  0  0  0  0  0  0  0  0
  -24.5190  -31.7100   23.1110 C   0  0  0  0  0  0  0  0  0  0  0  0
  -27.2010  -27.0710   20.1730 C   0  0  0  0  0  0  0  0  0  0  0  0
  -23.3420  -30.2550   21.5040 C   0  0  0  0  0  3  0  0  0  0  0  0
  -24.8210  -28.6940   20.1140 C   0  0  0  0  0  0  0  0  0  0  0  0
  -25.8840  -30.5900   21.3280 C   0  0  0  0  0  2  0  0  0  0  0  0
  -25.9850  -29.1950   20.7110 C   0  0  0  0  0  0  0  0  0  0  0  0
  -27.1760  -28.3970   20.7310 C   0  0  0  0  0  3  0  0  0  0  0  0
  -26.0110  -26.6510   19.5320 C   0  0  0  0  0  3  0  0  0  0  0  0
  -24.8390  -27.4290   19.5150 C   0  0  0  0  0  3  0  0  0  0  0  0
  -23.5730  -29.5540   20.1400 C   0  0  0  0  0  2  0  0  0  0  0  0
  -24.6000  -30.8720   22.0360 N   0  0  0  0  0  0  0  0  0  0  0  0
  -23.4290  -31.9850   23.6350 O   0  0  0  0  0  0  0  0  0  0  0  0
  -22.6900  -29.2520   22.4850 C   0  0  0  0  0  0  0  0  0  0  0  0
  -21.3700  -29.0390   22.3480 N   0  0  0  0  0  0  0  0  0  0  0  0
  -23.3710  -28.6690   23.3330 O   0  0  0  0  0  0  0  0  0  0  0  0
  -20.8790  -29.5610   21.6370 H   0  0  0  0  0  0  0  0  0  0  0  0
  -18.0200  -27.7560   22.8270 C   0  0  0  0  0  0  0  0  0  0  0  0
  -20.5630  -28.1070   23.1380 C   0  0  0  0  0  3  0  0  0  0  0  0
  -20.7210  -26.6580   22.6220 C   0  0  0  0  0  2  0  0  0  0  0  0
  -19.6520  -26.2620   21.5980 C   0  0  0  0  0  2  0  0  0  0  0  0
  -18.2520  -26.3880   22.2060 C   0  0  0  0  0  2  0  0  0  0  0  0
  -19.1050  -28.5700   23.2480 C   0  0  0  0  0  0  0  0  0  0  0  0
  -18.8350  -29.8460   23.7860 C   0  0  0  0  0  3  0  0  0  0  0  0
  -17.5120  -30.3110   23.9090 C   0  0  0  0  0  3  0  0  0  0  0  0
  -16.4410  -29.4960   23.5040 C   0  0  0  0  0  3  0  0  0  0  0  0
  -16.6950  -28.2220   22.9680 C   0  0  0  0  0  3  0  0  0  0  0  0
  -25.7890  -32.3780   23.7210 C   0  0  0  0  0  3  0  0  0  0  0  0
  -26.3540  -31.6070   24.9770 C   0  0  1  0  0  0  0  0  0  0  0  0
  -25.2860  -31.3110   26.0580 C   0  0  0  0  0  1  0  0  0  0  0  0
  -26.9850  -30.2600   24.5560 C   0  0  0  0  0  1  0  0  0  0  0  0
  -27.4820  -32.4360   25.6360 C   0  0  0  0  0  1  0  0  0  0  0  0
  -25.4360  -33.7590   24.0800 N   0  0  0  0  0  0  0  0  0  0  0  0
  -25.7110  -34.8360   23.3340 C   0  0  0  0  0  0  0  0  0  0  0  0
  -26.3600  -34.7750   22.2840 O   0  0  0  0  0  0  0  0  0  0  0  0
  -24.8570  -33.8800   24.8990 H   0  0  0  0  0  0  0  0  0  0  0  0
  -23.9100  -36.5700   23.0540 C   0  0  0  0  0  1  0  0  0  0  0  0
  -25.1850  -36.1980   23.8270 C   0  0  0  0  0  3  0  0  0  0  0  0
  -27.3010  -37.1510   24.6270 C   0  0  0  0  0  1  0  0  0  0  0  0
  -26.1730  -37.2920   23.7100 N   0  0  0  0  0  0  0  0  0  0  0  0
  -25.7350  -38.1910   23.8840 H   0  0  0  0  0  0  0  0  0  0  0  0
  1  5  1  0
  2  7  1  0
  3  6  1  0
  3  1  1  0
  3  4  1  0
  4 50  1  0
  4  2  1  0
  5 11  1  0
  5  7  1  0
  7  9  1  0
  7  8  1  0
 11 10  1  0
 12 13  2  0
 12 11  1  0
 14 13  1  0
 15 20  1  0
 16 17  1  0
 16 15  1  0
 18 17  1  0
 18 25  1  0
 18 19  1  0
 20 14  1  0
 20 19  1  0
 21 14  2  0
 22 23  2  0
 23 42  1  0
 24 23  1  0
 24 27  1  0
 25 26  1  0
 25 22  1  0
 26 24  2  0
 27 28  1  0
 28 29  2  0
 30 33  1  0
 30 29  1  0
 31 30  2  0
 32 31  1  0
 32 27  2  0
 33 34  1  0
 34 39  2  0
 34 35  1  0
 35 36  2  0
 36 37  1  0
 37 41  1  0
 38 37  2  0
 39 38  1  0
 40 39  1  0
 42 43  1  0
 43 46  1  0
 43 45  1  0
 44 42  2  0
 47 48  1  0
 47 22  1  0
 49 47  1  0
 50 51  1  0
 52 63  2  0
 53 51  1  0
 53 58  1  0
 54 62  1  0
 54 64  1  0
 55 61  1  0
 55 57  1  0
 56 62  1  0
 57 58  2  0
 57 56  1  0
 59 53  2  0
 60 59  1  0
 60 55  2  0
 61 54  1  0
 62 52  1  0
 64 66  2  0
 65 64  1  0
 67 65  1  0
 68 77  2  0
 68 73  1  0
 69 65  1  0
 69 73  1  0
 70 69  1  0
 71 72  1  0
 71 70  1  0
 72 68  1  0
 73 74  2  0
 74 75  1  0
 76 75  2  0
 77 76  1  0
 78 52  1  0
 78 83  1  0
 78 79  1  0
 79 82  1  1
 79 80  1  0
 81 79  1  0
 83 86  1  0
 84 88  1  0
 84 83  1  0
 85 84  2  0
 88 87  1  0
 90 88  1  0
 90 91  1  0
 90 89  1  0
M  ISO  4  13 100  14 100  50 101  51 101
M  END
>  <TORSDO>  (50) 
F 20

>  <SCORE>  (50) 
-11.915

>  <name>  (50) 
50

>  <ligand_id>  (50) 
50

>  <original_smiles>  (50) 
[H]c1c([H])c([H])c2c(c1[H])C([H])([H])C([H])([H])C([H])([H])C2([H])N([H])C(=O)C1([H])N(C(=O)C([H])(N([H])C(=O)C([H])(N([H])C([H])([H])[H])C([H])([H])[H])C(C([H])([H])[H])(C([H])([H])[H])C([H])([H])[H])C([H])([H])c2c([H])c(OC([H])([H])C3([H])C([H])(C([H])([H])[H])C([H])([H])C([H])(C([H])(C([H])([H])[H])C([H])([H])C([H])([H])C(=O)N4C([H])([H])C([H])([H])C([H])([H])C([H])(n5nc(-c6c([H])c([H])c(Oc7c([H])c([H])c(F)c([H])c7F)c([H])c6[H])c(C(=O)N([H])[H])c5N([H])[H])C4([H])[H])[N+]([H])([H])C3([H])[H])c([H])c([H])c2C1([H])[H]

>  <smiles>  (50) 
[H]c1c([H])c([H])c2c(c1[H])C([H])([H])C([H])([H])C([H])([H])C2([H])N([H])C(=O)C1([H])N(C(=O)C([H])(N([H])C(=O)C([H])(N([H])C([H])([H])[H])C([H])([H])[H])C(C([H])([H])[H])(C([H])([H])[H])C([H])([H])[H])C([H])([H])c2c([H])c(OC([H])([H])C3([H])C([H])(C([H])([H])[H])C([H])([H])C([H])(C([H])(C([H])([H])[H])C([H])([H])C([H])([H])C(=O)N4C([H])([H])C([H])([H])C([H])([H])C([H])(n5nc(-c6c([H])c([H])c(Oc7c([H])c([H])c(F)c([H])c7F)c([H])c6[H])c(C(=O)N([H])[H])c5N([H])[H])C4([H])[H])[N+]([H])([H])C3([H])[H])c([H])c([H])c2C1([H])[H]

$$$$
51:0:0
     RDKit          3D

 88 96  0  0  1  0  0  0  0  0999 V2000
  -29.1270  -21.5740   19.8240 C   0  0  0  0  0  2  0  0  0  0  0  0
  -30.5490  -15.1010   19.9630 C   0  0  0  0  0  0  0  0  0  0  0  0
  -30.3630  -12.7350   19.0000 C   0  0  0  0  0  2  0  0  0  0  0  0
  -29.3700  -12.6660   17.8170 C   0  0  0  0  0  2  0  0  0  0  0  0
  -27.9330  -12.4440   18.3260 C   0  0  0  0  0  2  0  0  0  0  0  0
  -27.5900  -13.3420   19.5440 C   0  0  0  0  0  3  0  0  0  0  0  0
  -28.7100  -13.3840   20.6020 C   0  0  0  0  0  2  0  0  0  0  0  0
  -29.9170  -13.8440   19.9060 N   0  0  0  0  0  0  0  0  0  0  0  0
  -31.7420  -15.0830   19.6310 O   0  0  0  0  0  0  0  0  0  0  0  0
  -29.8080  -18.9490   21.1360 C   0  0  0  0  0  2  0  0  0  0  0  0
  -29.6090  -17.2990   21.2040 C   0  0  0  0  0  2  0  0  0  0  0  0
  -30.0220  -17.4300   18.9140 C   0  0  0  0  0  2  0  0  0  0  0  0
  -28.9820  -19.8430   20.0890 C   0  0  0  0  0  3  0  0  0  0  0  0
  -29.1170  -18.8080   18.8410 C   0  0  0  0  0  3  0  0  0  0  0  0
  -29.4950  -19.5400   17.5390 C   0  0  0  0  0  1  0  0  0  0  0  0
  -29.8470  -16.3840   19.9990 N   0  0  0  0  0  0  0  0  0  0  0  0
  -25.2640  -13.8840   20.4500 C   0  0  0  0  0  0  0  0  0  0  0  0
  -24.2250  -13.0950   20.8590 C   0  0  0  0  0  0  0  0  0  0  0  0
  -24.6880  -11.7470   20.7620 C   0  0  0  0  0  0  0  0  0  0  0  0
  -26.2900  -13.0170   20.1190 N   0  0  0  0  0  0  0  0  0  0  0  0
  -25.9590  -11.7240   20.3750 N   0  0  0  0  0  0  0  0  0  0  0  0
  -23.9730  -10.4790   20.9590 C   0  0  0  0  0  0  0  0  0  0  0  0
  -24.4220   -9.5100   21.8840 C   0  0  0  0  0  3  0  0  0  0  0  0
  -23.7020   -8.3110   22.0730 C   0  0  0  0  0  3  0  0  0  0  0  0
  -22.5180   -8.0700   21.3370 C   0  0  0  0  0  0  0  0  0  0  0  0
  -22.0850   -9.0280   20.4030 C   0  0  0  0  0  3  0  0  0  0  0  0
  -22.8060  -10.2190   20.2120 C   0  0  0  0  0  3  0  0  0  0  0  0
  -21.7700   -6.9220   21.4320 O   0  0  0  0  0  0  0  0  0  0  0  0
  -21.7030   -6.2010   22.5970 C   0  0  0  0  0  0  0  0  0  0  0  0
  -21.2230   -6.7700   23.7970 C   0  0  0  0  0  3  0  0  0  0  0  0
  -21.1040   -5.9750   24.9560 C   0  0  0  0  0  3  0  0  0  0  0  0
  -21.4560   -4.6130   24.9140 C   0  0  0  0  0  0  0  0  0  0  0  0
  -21.9300   -4.0430   23.7190 C   0  0  0  0  0  3  0  0  0  0  0  0
  -22.0490   -4.8360   22.5630 C   0  0  0  0  0  0  0  0  0  0  0  0
  -22.4850   -4.2760   21.4080 F   0  0  0  0  0  0  0  0  0  0  0  0
  -21.3350   -3.8480   26.0230 F   0  0  0  0  0  0  0  0  0  0  0  0
  -22.8480  -13.5650   21.2230 C   0  0  0  0  0  0  0  0  0  0  0  0
  -22.1690  -12.8470   22.1090 N   0  0  0  0  0  0  0  0  0  0  0  0
  -22.3840  -14.6060   20.7590 O   0  0  0  0  0  0  0  0  0  0  0  0
  -22.5580  -12.0080   22.5120 H   0  0  0  0  0  0  0  0  0  0  0  0
  -21.2480  -13.1480   22.3970 H   0  0  0  0  0  0  0  0  0  0  0  0
  -25.4150  -15.2610   20.3070 N   0  0  0  0  0  0  0  0  0  0  0  0
  -24.6550  -15.9050   20.4990 H   0  0  0  0  0  0  0  0  0  0  0  0
  -26.2480  -15.7220   19.9650 H   0  0  0  0  0  0  0  0  0  0  0  0
  -29.1630  -23.2050   21.9140 C   0  0  0  0  0  1  0  0  0  0  0  0
  -28.4790  -23.0110   20.5540 C   0  0  0  0  0  3  0  0  0  0  0  0
  -28.3450  -24.5770   19.8080 C   0  0  0  0  0  2  0  0  0  0  0  0
  -28.2560  -26.0710   20.3650 O   0  0  0  0  0  0  0  0  0  0  0  0
  -24.6180  -31.8690   23.2000 C   0  0  0  0  0  0  0  0  0  0  0  0
  -27.2070  -27.0770   20.2230 C   0  0  0  0  0  0  0  0  0  0  0  0
  -23.4320  -30.4660   21.5580 C   0  0  0  0  0  3  0  0  0  0  0  0
  -24.8900  -28.8710   20.1500 C   0  0  0  0  0  0  0  0  0  0  0  0
  -25.9900  -30.7080   21.4190 C   0  0  0  0  0  2  0  0  0  0  0  0
  -26.0650  -29.3070   20.7720 C   0  0  0  0  0  0  0  0  0  0  0  0
  -27.2180  -28.4250   20.7920 C   0  0  0  0  0  3  0  0  0  0  0  0
  -26.0070  -26.7600   19.5510 C   0  0  0  0  0  3  0  0  0  0  0  0
  -24.8790  -27.6150   19.5230 C   0  0  0  0  0  3  0  0  0  0  0  0
  -23.6650  -29.7780   20.1850 C   0  0  0  0  0  2  0  0  0  0  0  0
  -24.7010  -31.0400   22.1130 N   0  0  0  0  0  0  0  0  0  0  0  0
  -23.5280  -32.1570   23.7170 O   0  0  0  0  0  0  0  0  0  0  0  0
  -22.7400  -29.4670   22.5210 C   0  0  0  0  0  0  0  0  0  0  0  0
  -21.4120  -29.3050   22.3900 N   0  0  0  0  0  0  0  0  0  0  0  0
  -23.4040  -28.8410   23.3520 O   0  0  0  0  0  0  0  0  0  0  0  0
  -20.9310  -29.8590   21.6940 H   0  0  0  0  0  0  0  0  0  0  0  0
  -18.0220  -28.1260   22.8890 C   0  0  0  0  0  0  0  0  0  0  0  0
  -20.5820  -28.3740   23.1610 C   0  0  0  0  0  3  0  0  0  0  0  0
  -20.6770  -26.9420   22.5860 C   0  0  0  0  0  2  0  0  0  0  0  0
  -19.5750  -26.6250   21.5710 C   0  0  0  0  0  2  0  0  0  0  0  0
  -18.1930  -26.7770   22.2110 C   0  0  0  0  0  2  0  0  0  0  0  0
  -19.1440  -28.8830   23.3210 C   0  0  0  0  0  0  0  0  0  0  0  0
  -18.9290  -30.1450   23.9170 C   0  0  0  0  0  3  0  0  0  0  0  0
  -17.6250  -30.6490   24.0850 C   0  0  0  0  0  3  0  0  0  0  0  0
  -16.5190  -29.8900   23.6690 C   0  0  0  0  0  3  0  0  0  0  0  0
  -16.7170  -28.6300   23.0760 C   0  0  0  0  0  3  0  0  0  0  0  0
  -25.8900  -32.5090   23.8380 C   0  0  0  0  0  3  0  0  0  0  0  0
  -25.5700  -33.9070   24.1720 N   0  0  0  0  0  0  0  0  0  0  0  0
  -25.8990  -34.9670   23.4230 C   0  0  0  0  0  0  0  0  0  0  0  0
  -26.5680  -34.8720   22.3900 O   0  0  0  0  0  0  0  0  0  0  0  0
  -24.9750  -34.0530   24.9740 H   0  0  0  0  0  0  0  0  0  0  0  0
  -24.1650  -36.7620   23.0900 C   0  0  0  0  0  1  0  0  0  0  0  0
  -25.4120  -36.3530   23.8910 C   0  0  0  0  0  3  0  0  0  0  0  0
  -27.5440  -37.2460   24.7200 C   0  0  0  0  0  1  0  0  0  0  0  0
  -26.4410  -37.4110   23.7780 N   0  0  0  0  0  0  0  0  0  0  0  0
  -26.0310  -38.3290   23.9280 H   0  0  0  0  0  0  0  0  0  0  0  0
  -26.3930  -31.7420   25.1240 C   0  0  1  0  0  0  0  0  0  0  0  0
  -25.2880  -31.5040   26.1800 C   0  0  0  0  0  1  0  0  0  0  0  0
  -26.9840  -30.3640   24.7460 C   0  0  0  0  0  1  0  0  0  0  0  0
  -27.5330  -32.5410   25.7970 C   0  0  0  0  0  1  0  0  0  0  0  0
  1 46  1  0
  2 16  1  0
  3  8  1  0
  4  5  1  0
  4  3  1  0
  6  5  1  0
  6 20  1  0
  6  7  1  0
  8  2  1  0
  8  7  1  0
  9  2  2  0
 10 11  1  0
 12 16  1  0
 13  1  1  0
 13 10  1  0
 14 15  1  0
 14 12  1  0
 14 13  1  0
 16 11  1  0
 17 18  2  0
 18 37  1  0
 19 18  1  0
 19 22  1  0
 20 21  1  0
 20 17  1  0
 21 19  2  0
 22 23  1  0
 23 24  2  0
 25 28  1  0
 25 24  1  0
 26 25  2  0
 27 26  1  0
 27 22  2  0
 28 29  1  0
 29 30  1  0
 30 31  2  0
 32 31  1  0
 32 36  1  0
 33 32  2  0
 34 29  2  0
 34 33  1  0
 35 34  1  0
 37 38  1  0
 38 41  1  0
 38 40  1  0
 39 37  2  0
 42 17  1  0
 42 43  1  0
 44 42  1  0
 46 45  1  0
 47 48  1  0
 47 46  1  0
 49 60  2  0
 50 48  1  0
 50 55  1  0
 51 59  1  0
 51 61  1  0
 52 58  1  0
 52 54  1  0
 53 59  1  0
 54 55  2  0
 54 53  1  0
 56 50  2  0
 57 56  1  0
 57 52  2  0
 58 51  1  0
 59 49  1  0
 61 63  2  0
 62 61  1  0
 64 62  1  0
 65 74  2  0
 65 70  1  0
 66 62  1  0
 66 70  1  0
 67 66  1  0
 68 69  1  0
 68 67  1  0
 69 65  1  0
 70 71  2  0
 71 72  1  0
 73 72  2  0
 74 73  1  0
 75 49  1  0
 75 76  1  0
 75 85  1  0
 76 79  1  0
 77 81  1  0
 77 76  1  0
 78 77  2  0
 81 80  1  0
 83 81  1  0
 83 84  1  0
 83 82  1  0
 85 88  1  1
 85 86  1  0
 87 85  1  0
M  ISO  4   2 100  16 100  47 101  48 101
M  END
>  <TORSDO>  (51) 
F 18

>  <SCORE>  (51) 
-16.153

>  <name>  (51) 
51

>  <ligand_id>  (51) 
51

>  <original_smiles>  (51) 
[H]c1c([H])c([H])c2c(c1[H])C([H])([H])C([H])([H])C([H])([H])C2([H])N([H])C(=O)C1([H])N(C(=O)C([H])(N([H])C(=O)C([H])(N([H])C([H])([H])[H])C([H])([H])[H])C(C([H])([H])[H])(C([H])([H])[H])C([H])([H])[H])C([H])([H])c2c([H])c(OC([H])([H])C([H])(C([H])([H])[H])C([H])([H])C3([H])C([H])([H])C([H])([H])N(C(=O)N4C([H])([H])C([H])([H])C([H])([H])C([H])(n5nc(-c6c([H])c([H])c(Oc7c([H])c([H])c(F)c([H])c7F)c([H])c6[H])c(C(=O)N([H])[H])c5N([H])[H])C4([H])[H])C([H])([H])C3([H])C([H])([H])[H])c([H])c([H])c2C1([H])[H]

>  <smiles>  (51) 
[H]c1c([H])c([H])c2c(c1[H])C([H])([H])C([H])([H])C([H])([H])C2([H])N([H])C(=O)C1([H])N(C(=O)C([H])(N([H])C(=O)C([H])(N([H])C([H])([H])[H])C([H])([H])[H])C(C([H])([H])[H])(C([H])([H])[H])C([H])([H])[H])C([H])([H])c2c([H])c(OC([H])([H])C([H])(C([H])([H])[H])C([H])([H])C3([H])C([H])([H])C([H])([H])N(C(=O)N4C([H])([H])C([H])([H])C([H])([H])C([H])(n5nc(-c6c([H])c([H])c(Oc7c([H])c([H])c(F)c([H])c7F)c([H])c6[H])c(C(=O)N([H])[H])c5N([H])[H])C4([H])[H])C([H])([H])C3([H])C([H])([H])[H])c([H])c([H])c2C1([H])[H]

$$$$
52:0:0
     RDKit          3D

 88 96  0  0  1  0  0  0  0  0999 V2000
  -28.9250  -22.5520   19.9370 C   0  0  0  0  0  2  0  0  0  0  0  0
  -27.2250  -20.7960   20.7650 C   0  0  0  0  0  1  0  0  0  0  0  0
  -28.7120  -21.1830   20.7360 C   0  0  0  0  0  3  0  0  0  0  0  0
  -30.6760  -19.5270   21.2010 C   0  0  0  0  0  2  0  0  0  0  0  0
  -29.6890  -18.4650   20.7770 C   0  0  0  0  0  3  0  0  0  0  0  0
  -29.5920  -19.9630   20.2470 C   0  0  0  0  0  3  0  0  0  0  0  0
  -30.2980  -17.2360   19.9940 C   0  0  0  0  0  2  0  0  0  0  0  0
  -30.7930  -14.7100   20.0330 C   0  0  0  0  0  0  0  0  0  0  0  0
  -30.4990  -12.5020   18.9360 C   0  0  0  0  0  2  0  0  0  0  0  0
  -29.4990  -12.6650   17.7700 C   0  0  0  0  0  2  0  0  0  0  0  0
  -28.0490  -12.5090   18.2690 C   0  0  0  0  0  2  0  0  0  0  0  0
  -27.7630  -13.3470   19.5430 C   0  0  0  0  0  3  0  0  0  0  0  0
  -28.8720  -13.1670   20.6040 C   0  0  0  0  0  2  0  0  0  0  0  0
  -30.1520  -13.5010   19.9680 N   0  0  0  0  0  0  0  0  0  0  0  0
  -31.9330  -14.8470   19.5800 O   0  0  0  0  0  0  0  0  0  0  0  0
  -30.0450  -15.8030   20.3950 N   0  0  0  0  0  0  0  0  0  0  0  0
  -29.1250  -15.5970   20.7580 H   0  0  0  0  0  0  0  0  0  0  0  0
  -25.4100  -13.9460   20.3800 C   0  0  0  0  0  0  0  0  0  0  0  0
  -24.3610  -13.1720   20.7950 C   0  0  0  0  0  0  0  0  0  0  0  0
  -24.8190  -11.8210   20.7340 C   0  0  0  0  0  0  0  0  0  0  0  0
  -26.4390  -13.0660   20.0900 N   0  0  0  0  0  0  0  0  0  0  0  0
  -26.0920  -11.7820   20.3640 N   0  0  0  0  0  0  0  0  0  0  0  0
  -24.1000  -10.5590   20.9510 C   0  0  0  0  0  0  0  0  0  0  0  0
  -24.5440   -9.6080   21.8970 C   0  0  0  0  0  3  0  0  0  0  0  0
  -23.8240   -8.4110   22.1000 C   0  0  0  0  0  3  0  0  0  0  0  0
  -22.6480   -8.1550   21.3570 C   0  0  0  0  0  0  0  0  0  0  0  0
  -22.2240   -9.0930   20.3990 C   0  0  0  0  0  3  0  0  0  0  0  0
  -22.9440  -10.2810   20.1950 C   0  0  0  0  0  3  0  0  0  0  0  0
  -21.8990   -7.0090   21.4680 O   0  0  0  0  0  0  0  0  0  0  0  0
  -21.8240   -6.3090   22.6460 C   0  0  0  0  0  0  0  0  0  0  0  0
  -21.3430   -6.9010   23.8340 C   0  0  0  0  0  3  0  0  0  0  0  0
  -21.2180   -6.1280   25.0050 C   0  0  0  0  0  3  0  0  0  0  0  0
  -21.5620   -4.7630   24.9900 C   0  0  0  0  0  0  0  0  0  0  0  0
  -22.0370   -4.1700   23.8050 C   0  0  0  0  0  3  0  0  0  0  0  0
  -22.1640   -4.9410   22.6360 C   0  0  0  0  0  0  0  0  0  0  0  0
  -22.6010   -4.3600   21.4930 F   0  0  0  0  0  0  0  0  0  0  0  0
  -21.4350   -4.0170   26.1120 F   0  0  0  0  0  0  0  0  0  0  0  0
  -22.9780  -13.6500   21.1350 C   0  0  0  0  0  0  0  0  0  0  0  0
  -22.2910  -12.9490   22.0290 N   0  0  0  0  0  0  0  0  0  0  0  0
  -22.5190  -14.6800   20.6430 O   0  0  0  0  0  0  0  0  0  0  0  0
  -22.6760  -12.1150   22.4460 H   0  0  0  0  0  0  0  0  0  0  0  0
  -21.3650  -13.2500   22.2990 H   0  0  0  0  0  0  0  0  0  0  0  0
  -25.5690  -15.3180   20.2050 N   0  0  0  0  0  0  0  0  0  0  0  0
  -24.8110  -15.9730   20.3640 H   0  0  0  0  0  0  0  0  0  0  0  0
  -26.3990  -15.7600   19.8300 H   0  0  0  0  0  0  0  0  0  0  0  0
  -28.4700  -23.9480   20.5710 C   0  0  0  0  0  3  0  0  0  0  0  0
  -28.6130  -25.2390   19.6500 C   0  0  0  0  0  3  0  0  0  0  0  0
  -28.4780  -26.5950   20.2220 O   0  0  0  0  0  0  0  0  0  0  0  0
  -24.5870  -31.8460   23.1990 C   0  0  0  0  0  0  0  0  0  0  0  0
  -27.3110  -27.3630   20.1430 C   0  0  0  0  0  0  0  0  0  0  0  0
  -23.4260  -30.4460   21.5270 C   0  0  0  0  0  3  0  0  0  0  0  0
  -24.9180  -28.9250   20.1100 C   0  0  0  0  0  0  0  0  0  0  0  0
  -25.9620  -30.8060   21.3840 C   0  0  0  0  0  2  0  0  0  0  0  0
  -26.0680  -29.4350   20.7240 C   0  0  0  0  0  0  0  0  0  0  0  0
  -27.2630  -28.6650   20.7300 C   0  0  0  0  0  3  0  0  0  0  0  0
  -26.1330  -26.8920   19.5230 C   0  0  0  0  0  3  0  0  0  0  0  0
  -24.9510  -27.6580   19.5040 C   0  0  0  0  0  3  0  0  0  0  0  0
  -23.6670  -29.7800   20.1460 C   0  0  0  0  0  2  0  0  0  0  0  0
  -24.6750  -31.0510   22.0920 N   0  0  0  0  0  0  0  0  0  0  0  0
  -23.4930  -32.1030   23.7220 O   0  0  0  0  0  0  0  0  0  0  0  0
  -22.7660  -29.4120   22.4680 C   0  0  0  0  0  0  0  0  0  0  0  0
  -21.4470  -29.2100   22.3130 N   0  0  0  0  0  0  0  0  0  0  0  0
  -23.4410  -28.7940   23.2950 O   0  0  0  0  0  0  0  0  0  0  0  0
  -20.9640  -29.7610   21.6180 H   0  0  0  0  0  0  0  0  0  0  0  0
  -18.0850  -27.9440   22.7300 C   0  0  0  0  0  0  0  0  0  0  0  0
  -20.6300  -28.2520   23.0610 C   0  0  0  0  0  3  0  0  0  0  0  0
  -20.7750  -26.8260   22.4830 C   0  0  0  0  0  2  0  0  0  0  0  0
  -19.7030  -26.4850   21.4420 C   0  0  0  0  0  2  0  0  0  0  0  0
  -18.3030  -26.6010   22.0540 C   0  0  0  0  0  2  0  0  0  0  0  0
  -19.1780  -28.7250   23.1880 C   0  0  0  0  0  0  0  0  0  0  0  0
  -18.9200  -29.9820   23.7790 C   0  0  0  0  0  3  0  0  0  0  0  0
  -17.6020  -30.4570   23.9150 C   0  0  0  0  0  3  0  0  0  0  0  0
  -16.5220  -29.6710   23.4740 C   0  0  0  0  0  3  0  0  0  0  0  0
  -16.7660  -28.4160   22.8880 C   0  0  0  0  0  3  0  0  0  0  0  0
  -25.8530  -32.4880   23.8460 C   0  0  0  0  0  3  0  0  0  0  0  0
  -25.5230  -33.8830   24.1720 N   0  0  0  0  0  0  0  0  0  0  0  0
  -25.8500  -34.9410   23.4190 C   0  0  0  0  0  0  0  0  0  0  0  0
  -26.5330  -34.8480   22.3960 O   0  0  0  0  0  0  0  0  0  0  0  0
  -24.9150  -34.0270   24.9660 H   0  0  0  0  0  0  0  0  0  0  0  0
  -24.1020  -36.7130   23.0500 C   0  0  0  0  0  1  0  0  0  0  0  0
  -25.3410  -36.3230   23.8720 C   0  0  0  0  0  3  0  0  0  0  0  0
  -27.4550  -37.2370   24.7250 C   0  0  0  0  0  1  0  0  0  0  0  0
  -26.3600  -37.3910   23.7700 N   0  0  0  0  0  0  0  0  0  0  0  0
  -25.9390  -38.3040   23.9150 H   0  0  0  0  0  0  0  0  0  0  0  0
  -26.3520  -31.7230   25.1330 C   0  0  1  0  0  0  0  0  0  0  0  0
  -25.2380  -31.4720   26.1770 C   0  0  0  0  0  1  0  0  0  0  0  0
  -26.9590  -30.3520   24.7550 C   0  0  0  0  0  1  0  0  0  0  0  0
  -27.4800  -32.5290   25.8190 C   0  0  0  0  0  1  0  0  0  0  0  0
  1 46  1  0
  1  3  1  0
  3  2  1  0
  5  7  1  0
  5  4  1  0
  6  3  1  0
  6  5  1  0
  6  4  1  0
  7 16  1  0
  8 16  1  0
  9 14  1  0
 10 11  1  0
 10  9  1  0
 12 11  1  0
 12 21  1  0
 12 13  1  0
 14  8  1  0
 14 13  1  0
 15  8  2  0
 16 17  1  0
 18 19  2  0
 19 38  1  0
 20 19  1  0
 20 23  1  0
 21 22  1  0
 21 18  1  0
 22 20  2  0
 23 24  1  0
 24 25  2  0
 26 29  1  0
 26 25  1  0
 27 26  2  0
 28 27  1  0
 28 23  2  0
 29 30  1  0
 30 31  1  0
 31 32  2  0
 33 32  1  0
 33 37  1  0
 34 33  2  0
 35 30  2  0
 35 34  1  0
 36 35  1  0
 38 39  1  0
 39 42  1  0
 39 41  1  0
 40 38  2  0
 43 44  1  0
 43 18  1  0
 45 43  1  0
 47 48  1  0
 47 46  2  0
 49 60  2  0
 50 48  1  0
 50 55  1  0
 51 59  1  0
 51 61  1  0
 52 58  1  0
 52 54  1  0
 53 59  1  0
 54 55  2  0
 54 53  1  0
 56 50  2  0
 57 56  1  0
 57 52  2  0
 58 51  1  0
 59 49  1  0
 61 63  2  0
 62 61  1  0
 64 62  1  0
 65 74  2  0
 65 70  1  0
 66 62  1  0
 66 70  1  0
 67 66  1  0
 68 69  1  0
 68 67  1  0
 69 65  1  0
 70 71  2  0
 71 72  1  0
 73 72  2  0
 74 73  1  0
 75 49  1  0
 75 76  1  0
 75 85  1  0
 76 79  1  0
 77 81  1  0
 77 76  1  0
 78 77  2  0
 81 80  1  0
 83 81  1  0
 83 84  1  0
 83 82  1  0
 85 88  1  1
 85 86  1  0
 87 85  1  0
M  ISO  4   8 100  16 100  47 101  48 101
M  END
>  <TORSDO>  (52) 
F 21

>  <SCORE>  (52) 
-12.420

>  <name>  (52) 
52

>  <ligand_id>  (52) 
52

>  <original_smiles>  (52) 
[H]c1c([H])c([H])c2c(c1[H])C([H])([H])C([H])([H])C([H])([H])C2([H])N([H])C(=O)C1([H])N(C(=O)C([H])(N([H])C(=O)C([H])(N([H])C([H])([H])[H])C([H])([H])[H])C(C([H])([H])[H])(C([H])([H])[H])C([H])([H])[H])C([H])([H])c2c([H])c(OC([H])([H])C([H])([H])C([H])([H])C([H])(C([H])([H])[H])C3([H])C([H])([H])C3([H])C([H])([H])N([H])C(=O)N3C([H])([H])C([H])([H])C([H])([H])C([H])(n4nc(-c5c([H])c([H])c(Oc6c([H])c([H])c(F)c([H])c6F)c([H])c5[H])c(C(=O)N([H])[H])c4N([H])[H])C3([H])[H])c([H])c([H])c2C1([H])[H]

>  <smiles>  (52) 
[H]c1c([H])c([H])c2c(c1[H])C([H])([H])C([H])([H])C([H])([H])C2([H])N([H])C(=O)C1([H])N(C(=O)C([H])(N([H])C(=O)C([H])(N([H])C([H])([H])[H])C([H])([H])[H])C(C([H])([H])[H])(C([H])([H])[H])C([H])([H])[H])C([H])([H])c2c([H])c(OC([H])([H])C([H])([H])C([H])([H])C([H])(C([H])([H])[H])C3([H])C([H])([H])C3([H])C([H])([H])N([H])C(=O)N3C([H])([H])C([H])([H])C([H])([H])C([H])(n4nc(-c5c([H])c([H])c(Oc6c([H])c([H])c(F)c([H])c6F)c([H])c5[H])c(C(=O)N([H])[H])c4N([H])[H])C3([H])[H])c([H])c([H])c2C1([H])[H]

$$$$
53:0:0
     RDKit          3D

 92 99  0  0  1  0  0  0  0  0999 V2000
  -29.6600  -20.2580   20.1890 N   0  0  0  0  0  4  0  0  0  0  0  0
  -29.7910  -20.2210   21.1850 H   0  0  0  0  0  0  0  0  0  0  0  0
  -30.5720  -20.4840   19.8210 H   0  0  0  0  0  0  0  0  0  0  0  0
  -28.7370  -21.5280   19.8680 C   0  0  0  0  0  2  0  0  0  0  0  0
  -29.0080  -23.1270   20.3940 C   0  0  0  0  0  3  0  0  0  0  0  0
  -28.0390  -24.4760   20.0290 C   0  0  0  0  0  3  0  0  0  0  0  0
  -28.2850  -26.0000   20.2980 O   0  0  0  0  0  0  0  0  0  0  0  0
  -24.5560  -31.7080   23.1390 C   0  0  0  0  0  0  0  0  0  0  0  0
  -27.2310  -26.9880   20.1910 C   0  0  0  0  0  0  0  0  0  0  0  0
  -23.4060  -30.3020   21.4730 C   0  0  0  0  0  3  0  0  0  0  0  0
  -24.8980  -28.7310   20.0890 C   0  0  0  0  0  0  0  0  0  0  0  0
  -25.9630  -30.5770   21.3740 C   0  0  0  0  0  2  0  0  0  0  0  0
  -26.0600  -29.1820   20.7280 C   0  0  0  0  0  0  0  0  0  0  0  0
  -27.2270  -28.3280   20.7600 C   0  0  0  0  0  3  0  0  0  0  0  0
  -26.0440  -26.6430   19.5100 C   0  0  0  0  0  3  0  0  0  0  0  0
  -24.9040  -27.4750   19.4650 C   0  0  0  0  0  3  0  0  0  0  0  0
  -23.6660  -29.6230   20.1020 C   0  0  0  0  0  2  0  0  0  0  0  0
  -24.6600  -30.8840   22.0500 N   0  0  0  0  0  0  0  0  0  0  0  0
  -23.4540  -31.9890   23.6360 O   0  0  0  0  0  0  0  0  0  0  0  0
  -22.7050  -29.2950   22.4190 C   0  0  0  0  0  0  0  0  0  0  0  0
  -21.3780  -29.1380   22.2760 N   0  0  0  0  0  0  0  0  0  0  0  0
  -23.3610  -28.6580   23.2470 O   0  0  0  0  0  0  0  0  0  0  0  0
  -20.9050  -29.7040   21.5840 H   0  0  0  0  0  0  0  0  0  0  0  0
  -17.9760  -27.9780   22.7430 C   0  0  0  0  0  0  0  0  0  0  0  0
  -20.5380  -28.2050   23.0310 C   0  0  0  0  0  3  0  0  0  0  0  0
  -20.6250  -26.7770   22.4440 C   0  0  0  0  0  2  0  0  0  0  0  0
  -19.5260  -26.4780   21.4170 C   0  0  0  0  0  2  0  0  0  0  0  0
  -18.1410  -26.6340   22.0530 C   0  0  0  0  0  2  0  0  0  0  0  0
  -19.1020  -28.7220   23.1880 C   0  0  0  0  0  0  0  0  0  0  0  0
  -18.8930  -29.9800   23.7950 C   0  0  0  0  0  3  0  0  0  0  0  0
  -17.5920  -30.4930   23.9590 C   0  0  0  0  0  3  0  0  0  0  0  0
  -16.4830  -29.7460   23.5290 C   0  0  0  0  0  3  0  0  0  0  0  0
  -16.6760  -28.4900   22.9270 C   0  0  0  0  0  3  0  0  0  0  0  0
  -25.8130  -32.3520   23.7970 C   0  0  0  0  0  3  0  0  0  0  0  0
  -25.4810  -33.7460   24.1290 N   0  0  0  0  0  0  0  0  0  0  0  0
  -25.8410  -34.8120   23.4020 C   0  0  0  0  0  0  0  0  0  0  0  0
  -26.5540  -34.7250   22.3990 O   0  0  0  0  0  0  0  0  0  0  0  0
  -24.8510  -33.8880   24.9050 H   0  0  0  0  0  0  0  0  0  0  0  0
  -24.1170  -36.6040   23.0140 C   0  0  0  0  0  1  0  0  0  0  0  0
  -25.3340  -36.1950   23.8590 C   0  0  0  0  0  3  0  0  0  0  0  0
  -27.4350  -37.0810   24.7680 C   0  0  0  0  0  1  0  0  0  0  0  0
  -26.3640  -37.2540   23.7920 N   0  0  0  0  0  0  0  0  0  0  0  0
  -25.9480  -38.1710   23.9360 H   0  0  0  0  0  0  0  0  0  0  0  0
  -26.3000  -31.5830   25.0870 C   0  0  1  0  0  0  0  0  0  0  0  0
  -25.1820  -31.3390   26.1270 C   0  0  0  0  0  1  0  0  0  0  0  0
  -26.9010  -30.2080   24.7140 C   0  0  0  0  0  1  0  0  0  0  0  0
  -27.4290  -32.3820   25.7780 C   0  0  0  0  0  1  0  0  0  0  0  0
  -29.3880  -18.7520   19.7130 C   0  0  0  0  0  3  0  0  0  0  0  0
  -31.0200  -15.0520   20.6750 C   0  0  0  0  0  0  0  0  0  0  0  0
  -31.0710  -12.5330   20.3650 C   0  0  0  0  0  2  0  0  0  0  0  0
  -30.3350  -12.1260   19.0660 C   0  0  0  0  0  2  0  0  0  0  0  0
  -28.8280  -11.9490   19.3310 C   0  0  0  0  0  2  0  0  0  0  0  0
  -28.2340  -13.1160   20.1630 C   0  0  0  0  0  3  0  0  0  0  0  0
  -29.1080  -13.4780   21.3810 C   0  0  0  0  0  2  0  0  0  0  0  0
  -30.4480  -13.7930   20.8680 N   0  0  0  0  0  0  0  0  0  0  0  0
  -32.2520  -15.0740   20.5790 O   0  0  0  0  0  0  0  0  0  0  0  0
  -30.5040  -17.5510   20.0130 C   0  0  0  0  0  0  0  0  0  0  0  0
  -30.2090  -16.2010   20.4030 N   0  0  0  0  0  0  0  0  0  0  0  0
  -31.6760  -17.9060   19.8730 O   0  0  0  0  0  0  0  0  0  0  0  0
  -29.2240  -16.0150   20.4800 H   0  0  0  0  0  0  0  0  0  0  0  0
  -25.8120  -13.7930   20.6230 C   0  0  0  0  0  0  0  0  0  0  0  0
  -24.6890  -13.0670   20.9110 C   0  0  0  0  0  0  0  0  0  0  0  0
  -25.1090  -11.7040   20.9840 C   0  0  0  0  0  0  0  0  0  0  0  0
  -26.8440  -12.8760   20.5300 N   0  0  0  0  0  0  0  0  0  0  0  0
  -26.4240  -11.6160   20.8140 N   0  0  0  0  0  0  0  0  0  0  0  0
  -24.3230  -10.4730   21.1440 C   0  0  0  0  0  0  0  0  0  0  0  0
  -24.6680   -9.4940   22.1030 C   0  0  0  0  0  3  0  0  0  0  0  0
  -23.8840   -8.3300   22.2520 C   0  0  0  0  0  3  0  0  0  0  0  0
  -22.7410   -8.1350   21.4400 C   0  0  0  0  0  0  0  0  0  0  0  0
  -22.4160   -9.1000   20.4700 C   0  0  0  0  0  3  0  0  0  0  0  0
  -23.2010  -10.2560   20.3200 C   0  0  0  0  0  3  0  0  0  0  0  0
  -21.9360   -7.0230   21.4960 O   0  0  0  0  0  0  0  0  0  0  0  0
  -21.8270   -6.2700   22.6380 C   0  0  0  0  0  0  0  0  0  0  0  0
  -21.4250   -6.8350   23.8670 C   0  0  0  0  0  3  0  0  0  0  0  0
  -21.2600   -6.0130   25.0000 C   0  0  0  0  0  3  0  0  0  0  0  0
  -21.4860   -4.6260   24.9030 C   0  0  0  0  0  0  0  0  0  0  0  0
  -21.8820   -4.0610   23.6780 C   0  0  0  0  0  3  0  0  0  0  0  0
  -22.0490   -4.8810   22.5470 C   0  0  0  0  0  0  0  0  0  0  0  0
  -22.4100   -4.3280   21.3640 F   0  0  0  0  0  0  0  0  0  0  0  0
  -21.3210   -3.8340   25.9880 F   0  0  0  0  0  0  0  0  0  0  0  0
  -23.2900  -13.5970   21.0100 C   0  0  0  0  0  0  0  0  0  0  0  0
  -22.4600  -12.9830   21.8450 N   0  0  0  0  0  0  0  0  0  0  0  0
  -22.9380  -14.5930   20.3790 O   0  0  0  0  0  0  0  0  0  0  0  0
  -22.7550  -12.1780   22.3770 H   0  0  0  0  0  0  0  0  0  0  0  0
  -21.5160  -13.3240   21.9560 H   0  0  0  0  0  0  0  0  0  0  0  0
  -26.0360  -15.1490   20.4030 N   0  0  0  0  0  0  0  0  0  0  0  0
  -25.2700  -15.8130   20.3810 H   0  0  0  0  0  0  0  0  0  0  0  0
  -26.9050  -15.5360   20.0620 H   0  0  0  0  0  0  0  0  0  0  0  0
  -28.0310  -18.2120   20.2730 C   0  0  0  0  0  2  0  0  0  0  0  0
  -26.8360  -18.4690   18.0020 C   0  0  0  0  0  1  0  0  0  0  0  0
  -25.5860  -17.6260   20.0190 C   0  0  0  0  0  1  0  0  0  0  0  0
  -26.7140  -18.5500   19.5340 C   0  0  0  0  0  3  0  0  0  0  0  0
  1  2  1  0
  3  1  1  0
  4  1  1  0
  4  5  1  0
  6  7  1  0
  6  5  2  0
  8 19  2  0
  9  7  1  0
  9 14  1  0
 10 18  1  0
 10 20  1  0
 11 17  1  0
 11 13  1  0
 12 18  1  0
 13 14  2  0
 13 12  1  0
 15  9  2  0
 16 15  1  0
 16 11  2  0
 17 10  1  0
 18  8  1  0
 20 22  2  0
 21 20  1  0
 23 21  1  0
 24 33  2  0
 24 29  1  0
 25 21  1  0
 25 29  1  0
 26 25  1  0
 27 28  1  0
 27 26  1  0
 28 24  1  0
 29 30  2  0
 30 31  1  0
 32 31  2  0
 33 32  1  0
 34  8  1  0
 34 35  1  0
 34 44  1  0
 35 38  1  0
 36 40  1  0
 36 35  1  0
 37 36  2  0
 40 39  1  0
 42 40  1  0
 42 43  1  0
 42 41  1  0
 44 47  1  1
 44 45  1  0
 46 44  1  0
 48 57  1  0
 48  1  1  0
 48 89  1  0
 49 55  1  0
 50 55  1  0
 51 52  1  0
 51 50  1  0
 53 52  1  0
 53 64  1  0
 53 54  1  0
 55 54  1  0
 56 49  2  0
 57 58  1  0
 58 60  1  0
 58 49  1  0
 59 57  2  0
 61 62  2  0
 62 63  1  0
 62 81  1  0
 63 66  1  0
 64 61  1  0
 64 65  1  0
 65 63  2  0
 66 67  1  0
 67 68  2  0
 69 72  1  0
 69 68  1  0
 70 69  2  0
 71 70  1  0
 71 66  2  0
 72 73  1  0
 73 74  1  0
 74 75  2  0
 76 75  1  0
 76 80  1  0
 77 76  2  0
 78 73  2  0
 78 77  1  0
 79 78  1  0
 81 82  1  0
 82 85  1  0
 82 84  1  0
 83 81  2  0
 86 61  1  0
 87 86  1  0
 88 86  1  0
 90 92  1  0
 92 91  1  0
 92 89  1  0
M  ISO  4   6 101   7 101  49 100  58 100
M  END
>  <TORSDO>  (53) 
F 22

>  <SCORE>  (53) 
-12.804

>  <name>  (53) 
53

>  <ligand_id>  (53) 
53

>  <original_smiles>  (53) 
[H]c1c([H])c([H])c2c(c1[H])C([H])([H])C([H])([H])C([H])([H])C2([H])N([H])C(=O)C1([H])N(C(=O)C([H])(N([H])C(=O)C([H])(N([H])C([H])([H])[H])C([H])([H])[H])C(C([H])([H])[H])(C([H])([H])[H])C([H])([H])[H])C([H])([H])c2c([H])c(OC([H])([H])C([H])([H])C([H])([H])[N+]([H])([H])C([H])(C(=O)N([H])C(=O)N3C([H])([H])C([H])([H])C([H])([H])C([H])(n4nc(-c5c([H])c([H])c(Oc6c([H])c([H])c(F)c([H])c6F)c([H])c5[H])c(C(=O)N([H])[H])c4N([H])[H])C3([H])[H])C([H])([H])C([H])(C([H])([H])[H])C([H])([H])[H])c([H])c([H])c2C1([H])[H]

>  <smiles>  (53) 
[H]c1c([H])c([H])c2c(c1[H])C([H])([H])C([H])([H])C([H])([H])C2([H])N([H])C(=O)C1([H])N(C(=O)C([H])(N([H])C(=O)C([H])(N([H])C([H])([H])[H])C([H])([H])[H])C(C([H])([H])[H])(C([H])([H])[H])C([H])([H])[H])C([H])([H])c2c([H])c(OC([H])([H])C([H])([H])C([H])([H])[N+]([H])([H])C([H])(C(=O)N([H])C(=O)N3C([H])([H])C([H])([H])C([H])([H])C([H])(n4nc(-c5c([H])c([H])c(Oc6c([H])c([H])c(F)c([H])c6F)c([H])c5[H])c(C(=O)N([H])[H])c4N([H])[H])C3([H])[H])C([H])([H])C([H])(C([H])([H])[H])C([H])([H])[H])c([H])c([H])c2C1([H])[H]

$$$$
54:0:0
     RDKit          3D

 90 98  0  0  1  0  0  0  0  0999 V2000
  -28.1310  -20.4240   19.2110 C   0  0  0  0  0  2  0  0  0  0  0  0
  -29.4900  -21.5460   20.8100 C   0  0  0  0  0  2  0  0  0  0  0  0
  -27.9090  -22.0280   19.1150 C   0  0  0  0  0  3  0  0  0  0  0  0
  -29.0330  -19.9550   20.4100 C   0  0  0  0  0  3  0  0  0  0  0  0
  -28.3630  -22.7400   20.4300 C   0  0  0  0  0  3  0  0  0  0  0  0
  -26.4930  -22.4080   18.6810 C   0  0  0  0  0  0  0  0  0  0  0  0
  -25.4540  -22.0330   19.2990 N   0  0  0  0  0  0  0  0  0  0  0  0
  -26.4700  -23.4540   17.2190 Cl  0  0  0  0  0  0  0  0  0  0  0  0
  -25.6850  -21.4550   20.1010 H   0  0  0  0  0  0  0  0  0  0  0  0
  -31.2450  -18.7000   21.0890 C   0  0  0  0  0  1  0  0  0  0  0  0
  -29.9960  -18.4660   20.2300 C   0  0  0  0  0  3  0  0  0  0  0  0
  -29.5750  -16.7500   20.4090 C   0  0  0  0  0  2  0  0  0  0  0  0
  -30.4260  -15.2610   20.1260 C   0  0  0  0  0  0  0  0  0  0  0  0
  -30.3590  -12.8580   19.1660 C   0  0  0  0  0  2  0  0  0  0  0  0
  -29.3780  -12.7560   17.9700 C   0  0  0  0  0  2  0  0  0  0  0  0
  -27.9400  -12.4980   18.4560 C   0  0  0  0  0  2  0  0  0  0  0  0
  -27.5610  -13.4070   19.6510 C   0  0  0  0  0  3  0  0  0  0  0  0
  -28.6580  -13.4660   20.7330 C   0  0  0  0  0  2  0  0  0  0  0  0
  -29.8860  -13.9490   20.0870 N   0  0  0  0  0  0  0  0  0  0  0  0
  -31.6230  -15.2960   19.8040 O   0  0  0  0  0  0  0  0  0  0  0  0
  -25.2190  -13.9520   20.5110 C   0  0  0  0  0  0  0  0  0  0  0  0
  -24.1710  -13.1690   20.9040 C   0  0  0  0  0  0  0  0  0  0  0  0
  -24.6340  -11.8190   20.8240 C   0  0  0  0  0  0  0  0  0  0  0  0
  -26.2500  -13.0810   20.2050 N   0  0  0  0  0  0  0  0  0  0  0  0
  -25.9140  -11.7900   20.4630 N   0  0  0  0  0  0  0  0  0  0  0  0
  -23.9140  -10.5530   21.0140 C   0  0  0  0  0  0  0  0  0  0  0  0
  -24.3590   -9.5790   21.9370 C   0  0  0  0  0  3  0  0  0  0  0  0
  -23.6360   -8.3800   22.1170 C   0  0  0  0  0  3  0  0  0  0  0  0
  -22.4560   -8.1430   21.3730 C   0  0  0  0  0  0  0  0  0  0  0  0
  -22.0290   -9.1050   20.4400 C   0  0  0  0  0  3  0  0  0  0  0  0
  -22.7520  -10.2970   20.2580 C   0  0  0  0  0  3  0  0  0  0  0  0
  -21.7040   -6.9980   21.4610 O   0  0  0  0  0  0  0  0  0  0  0  0
  -21.6390   -6.2640   22.6190 C   0  0  0  0  0  0  0  0  0  0  0  0
  -21.1630   -6.8200   23.8270 C   0  0  0  0  0  3  0  0  0  0  0  0
  -21.0520   -6.0130   24.9760 C   0  0  0  0  0  3  0  0  0  0  0  0
  -21.4050   -4.6510   24.9190 C   0  0  0  0  0  0  0  0  0  0  0  0
  -21.8740   -4.0960   23.7150 C   0  0  0  0  0  3  0  0  0  0  0  0
  -21.9890   -4.9000   22.5680 C   0  0  0  0  0  0  0  0  0  0  0  0
  -22.4200   -4.3540   21.4060 F   0  0  0  0  0  0  0  0  0  0  0  0
  -21.2910   -3.8740   26.0210 F   0  0  0  0  0  0  0  0  0  0  0  0
  -22.7860  -13.6400   21.2390 C   0  0  0  0  0  0  0  0  0  0  0  0
  -22.0880  -12.9200   22.1080 N   0  0  0  0  0  0  0  0  0  0  0  0
  -22.3330  -14.6780   20.7620 O   0  0  0  0  0  0  0  0  0  0  0  0
  -22.4680  -12.0770   22.5120 H   0  0  0  0  0  0  0  0  0  0  0  0
  -21.1610  -13.2170   22.3810 H   0  0  0  0  0  0  0  0  0  0  0  0
  -25.3770  -15.3270   20.3610 N   0  0  0  0  0  0  0  0  0  0  0  0
  -24.6160  -15.9780   20.5130 H   0  0  0  0  0  0  0  0  0  0  0  0
  -26.2220  -15.7730   20.0340 H   0  0  0  0  0  0  0  0  0  0  0  0
  -28.0320  -24.4600   20.8260 C   0  0  0  0  0  2  0  0  0  0  0  0
  -28.3180  -26.0000   20.4180 O   0  0  0  0  0  0  0  0  0  0  0  0
  -24.6460  -31.9260   23.2660 C   0  0  0  0  0  0  0  0  0  0  0  0
  -27.2930  -27.0640   20.3850 C   0  0  0  0  0  0  0  0  0  0  0  0
  -23.4920  -30.4920   21.6290 C   0  0  0  0  0  3  0  0  0  0  0  0
  -24.9790  -28.8860   20.2630 C   0  0  0  0  0  0  0  0  0  0  0  0
  -26.0570  -30.7380   21.5220 C   0  0  0  0  0  2  0  0  0  0  0  0
  -26.1510  -29.3220   20.8940 C   0  0  0  0  0  0  0  0  0  0  0  0
  -27.3100  -28.4330   20.9270 C   0  0  0  0  0  3  0  0  0  0  0  0
  -26.0930  -26.7640   19.7050 C   0  0  0  0  0  3  0  0  0  0  0  0
  -24.9700  -27.6260   19.6480 C   0  0  0  0  0  3  0  0  0  0  0  0
  -23.7500  -29.7880   20.2700 C   0  0  0  0  0  2  0  0  0  0  0  0
  -24.7510  -31.0780   22.1930 N   0  0  0  0  0  0  0  0  0  0  0  0
  -23.5460  -32.2110   23.7660 O   0  0  0  0  0  0  0  0  0  0  0  0
  -22.7920  -29.5030   22.5990 C   0  0  0  0  0  0  0  0  0  0  0  0
  -21.4660  -29.3270   22.4590 N   0  0  0  0  0  0  0  0  0  0  0  0
  -23.4500  -28.8920   23.4450 O   0  0  0  0  0  0  0  0  0  0  0  0
  -20.9870  -29.8620   21.7490 H   0  0  0  0  0  0  0  0  0  0  0  0
  -18.0800  -28.1320   22.9630 C   0  0  0  0  0  0  0  0  0  0  0  0
  -20.6400  -28.3970   23.2360 C   0  0  0  0  0  3  0  0  0  0  0  0
  -20.7450  -26.9590   22.6750 C   0  0  0  0  0  2  0  0  0  0  0  0
  -19.6480  -26.6300   21.6600 C   0  0  0  0  0  2  0  0  0  0  0  0
  -18.2620  -26.7810   22.2920 C   0  0  0  0  0  2  0  0  0  0  0  0
  -19.1970  -28.8990   23.3930 C   0  0  0  0  0  0  0  0  0  0  0  0
  -18.9730  -30.1640   23.9780 C   0  0  0  0  0  3  0  0  0  0  0  0
  -17.6670  -30.6630   24.1370 C   0  0  0  0  0  3  0  0  0  0  0  0
  -16.5640  -29.8940   23.7230 C   0  0  0  0  0  3  0  0  0  0  0  0
  -16.7720  -28.6290   23.1410 C   0  0  0  0  0  3  0  0  0  0  0  0
  -25.9000  -32.5870   23.9110 C   0  0  0  0  0  3  0  0  0  0  0  0
  -26.3880  -31.8500   25.2190 C   0  0  1  0  0  0  0  0  0  0  0  0
  -25.2670  -31.6260   26.2590 C   0  0  0  0  0  1  0  0  0  0  0  0
  -26.9990  -30.4700   24.8810 C   0  0  0  0  0  1  0  0  0  0  0  0
  -27.5130  -32.6700   25.8930 C   0  0  0  0  0  1  0  0  0  0  0  0
  -25.5690  -33.9900   24.2160 N   0  0  0  0  0  0  0  0  0  0  0  0
  -25.9070  -35.0380   23.4540 C   0  0  0  0  0  0  0  0  0  0  0  0
  -26.5960  -34.9270   22.4350 O   0  0  0  0  0  0  0  0  0  0  0  0
  -24.9670  -34.1520   25.0090 H   0  0  0  0  0  0  0  0  0  0  0  0
  -24.1790  -36.8220   23.0430 C   0  0  0  0  0  1  0  0  0  0  0  0
  -25.4030  -36.4300   23.8880 C   0  0  0  0  0  3  0  0  0  0  0  0
  -27.5100  -37.3370   24.7700 C   0  0  0  0  0  1  0  0  0  0  0  0
  -26.4340  -37.4880   23.7920 N   0  0  0  0  0  0  0  0  0  0  0  0
  -26.0180  -38.4050   23.9190 H   0  0  0  0  0  0  0  0  0  0  0  0
  1  4  1  0
  3  6  1  0
  3  1  1  0
  3  5  1  0
  4 11  1  0
  4  2  1  0
  5  2  1  0
  5 49  1  0
  6  7  2  0
  7  9  1  0
  8  6  1  0
 11 12  1  0
 11 10  1  0
 13 12  1  0
 14 19  1  0
 15 16  1  0
 15 14  1  0
 17 16  1  0
 17 24  1  0
 17 18  1  0
 19 13  1  0
 19 18  1  0
 20 13  2  0
 21 22  2  0
 22 41  1  0
 23 22  1  0
 23 26  1  0
 24 25  1  0
 24 21  1  0
 25 23  2  0
 26 27  1  0
 27 28  2  0
 29 32  1  0
 29 28  1  0
 30 29  2  0
 31 30  1  0
 31 26  2  0
 32 33  1  0
 33 34  1  0
 34 35  2  0
 36 35  1  0
 36 40  1  0
 37 36  2  0
 38 33  2  0
 38 37  1  0
 39 38  1  0
 41 42  1  0
 42 45  1  0
 42 44  1  0
 43 41  2  0
 46 21  1  0
 46 47  1  0
 48 46  1  0
 50 49  1  0
 51 62  2  0
 52 50  1  0
 52 57  1  0
 53 61  1  0
 53 63  1  0
 54 60  1  0
 54 56  1  0
 55 61  1  0
 56 57  2  0
 56 55  1  0
 58 52  2  0
 59 58  1  0
 59 54  2  0
 60 53  1  0
 61 51  1  0
 63 65  2  0
 64 63  1  0
 66 64  1  0
 67 76  2  0
 67 72  1  0
 68 64  1  0
 68 72  1  0
 69 68  1  0
 70 71  1  0
 70 69  1  0
 71 67  1  0
 72 73  2  0
 73 74  1  0
 75 74  2  0
 76 75  1  0
 77 51  1  0
 77 82  1  0
 77 78  1  0
 78 81  1  1
 78 79  1  0
 80 78  1  0
 82 85  1  0
 83 87  1  0
 83 82  1  0
 84 83  2  0
 87 86  1  0
 89 87  1  0
 89 90  1  0
 89 88  1  0
M  ISO  4  12 100  13 100  49 101  50 101
M  END
>  <TORSDO>  (54) 
F 20

>  <SCORE>  (54) 
-15.775

>  <name>  (54) 
54

>  <ligand_id>  (54) 
54

>  <original_smiles>  (54) 
[H]N=C(Cl)C1([H])C([H])([H])C([H])(C([H])(C([H])([H])[H])C([H])([H])C(=O)N2C([H])([H])C([H])([H])C([H])([H])C([H])(n3nc(-c4c([H])c([H])c(Oc5c([H])c([H])c(F)c([H])c5F)c([H])c4[H])c(C(=O)N([H])[H])c3N([H])[H])C2([H])[H])C([H])([H])C1([H])C([H])([H])Oc1c([H])c([H])c2c(c1[H])C([H])([H])N(C(=O)C([H])(N([H])C(=O)C([H])(N([H])C([H])([H])[H])C([H])([H])[H])C(C([H])([H])[H])(C([H])([H])[H])C([H])([H])[H])C([H])(C(=O)N([H])C1([H])c3c([H])c([H])c([H])c([H])c3C([H])([H])C([H])([H])C1([H])[H])C2([H])[H]

>  <smiles>  (54) 
[H]N=C(Cl)C1([H])C([H])([H])C([H])(C([H])(C([H])([H])[H])C([H])([H])C(=O)N2C([H])([H])C([H])([H])C([H])([H])C([H])(n3nc(-c4c([H])c([H])c(Oc5c([H])c([H])c(F)c([H])c5F)c([H])c4[H])c(C(=O)N([H])[H])c3N([H])[H])C2([H])[H])C([H])([H])C1([H])C([H])([H])Oc1c([H])c([H])c2c(c1[H])C([H])([H])N(C(=O)C([H])(N([H])C(=O)C([H])(N([H])C([H])([H])[H])C([H])([H])[H])C(C([H])([H])[H])(C([H])([H])[H])C([H])([H])[H])C([H])(C(=O)N([H])C1([H])c3c([H])c([H])c([H])c([H])c3C([H])([H])C([H])([H])C1([H])[H])C2([H])[H]

$$$$
55:0:0
     RDKit          3D

 90 98  0  0  1  0  0  0  0  0999 V2000
  -29.0670  -21.6670   21.4700 C   0  0  0  0  0  3  0  0  0  0  0  0
  -29.7270  -22.3710   19.2600 C   0  0  0  0  0  3  0  0  0  0  0  0
  -28.6630  -23.0010   21.7500 C   0  0  0  0  0  3  0  0  0  0  0  0
  -29.3170  -23.7070   19.5390 C   0  0  0  0  0  3  0  0  0  0  0  0
  -29.6000  -21.3130   20.2070 C   0  0  0  0  0  0  0  0  0  0  0  0
  -28.7720  -24.0480   20.7970 C   0  0  0  0  0  0  0  0  0  0  0  0
  -30.0820  -19.9050   19.8500 C   0  0  0  0  0  0  0  0  0  0  0  0
  -30.8720  -19.7420   18.9160 O   0  0  0  0  0  0  0  0  0  0  0  0
  -28.0580  -18.4460   20.4050 C   0  0  0  0  0  1  0  0  0  0  0  0
  -29.5770  -18.6160   20.6050 C   0  0  0  0  0  3  0  0  0  0  0  0
  -30.3530  -17.2810   20.2070 C   0  0  0  0  0  3  0  0  0  0  0  0
  -29.9200  -15.8950   20.8420 C   0  0  0  0  0  3  0  0  0  0  0  0
  -30.6360  -14.6220   20.2560 C   0  0  0  0  0  0  0  0  0  0  0  0
  -30.3620  -12.4330   19.1190 C   0  0  0  0  0  2  0  0  0  0  0  0
  -29.3940  -12.6120   17.9300 C   0  0  0  0  0  2  0  0  0  0  0  0
  -27.9300  -12.4500   18.3840 C   0  0  0  0  0  2  0  0  0  0  0  0
  -27.6040  -13.2880   19.6490 C   0  0  0  0  0  3  0  0  0  0  0  0
  -28.6830  -13.0980   20.7380 C   0  0  0  0  0  2  0  0  0  0  0  0
  -29.9890  -13.4220   20.1470 N   0  0  0  0  0  0  0  0  0  0  0  0
  -31.7670  -14.7720   19.7840 O   0  0  0  0  0  0  0  0  0  0  0  0
  -25.2190  -13.8820   20.4030 C   0  0  0  0  0  0  0  0  0  0  0  0
  -24.1600  -13.1070   20.7930 C   0  0  0  0  0  0  0  0  0  0  0  0
  -24.6280  -11.7570   20.7600 C   0  0  0  0  0  0  0  0  0  0  0  0
  -26.2630  -13.0060   20.1560 N   0  0  0  0  0  0  0  0  0  0  0  0
  -25.9140  -11.7220   20.4310 N   0  0  0  0  0  0  0  0  0  0  0  0
  -23.9110  -10.4910   20.9680 C   0  0  0  0  0  0  0  0  0  0  0  0
  -24.3630   -9.5310   21.9000 C   0  0  0  0  0  3  0  0  0  0  0  0
  -23.6470   -8.3320   22.0970 C   0  0  0  0  0  3  0  0  0  0  0  0
  -22.4650   -8.0820   21.3580 C   0  0  0  0  0  0  0  0  0  0  0  0
  -22.0320   -9.0300   20.4150 C   0  0  0  0  0  3  0  0  0  0  0  0
  -22.7500  -10.2220   20.2180 C   0  0  0  0  0  3  0  0  0  0  0  0
  -21.7180   -6.9330   21.4630 O   0  0  0  0  0  0  0  0  0  0  0  0
  -21.6900   -6.1950   22.6200 C   0  0  0  0  0  0  0  0  0  0  0  0
  -21.2770   -6.7540   23.8490 C   0  0  0  0  0  3  0  0  0  0  0  0
  -21.1960   -5.9420   24.9990 C   0  0  0  0  0  3  0  0  0  0  0  0
  -21.5180   -4.5740   24.9200 C   0  0  0  0  0  0  0  0  0  0  0  0
  -21.9230   -4.0150   23.6950 C   0  0  0  0  0  3  0  0  0  0  0  0
  -22.0070   -4.8240   22.5480 C   0  0  0  0  0  0  0  0  0  0  0  0
  -22.3780   -4.2750   21.3660 F   0  0  0  0  0  0  0  0  0  0  0  0
  -21.4330   -3.7940   26.0220 F   0  0  0  0  0  0  0  0  0  0  0  0
  -22.7650  -13.5790   21.0850 C   0  0  0  0  0  0  0  0  0  0  0  0
  -22.0540  -12.8810   21.9630 N   0  0  0  0  0  0  0  0  0  0  0  0
  -22.3150  -14.6000   20.5670 O   0  0  0  0  0  0  0  0  0  0  0  0
  -22.4300  -12.0540   22.4030 H   0  0  0  0  0  0  0  0  0  0  0  0
  -21.1160  -13.1790   22.1990 H   0  0  0  0  0  0  0  0  0  0  0  0
  -25.3770  -15.2530   20.2170 N   0  0  0  0  0  0  0  0  0  0  0  0
  -24.6130  -15.9100   20.3300 H   0  0  0  0  0  0  0  0  0  0  0  0
  -26.2290  -15.6910   19.8910 H   0  0  0  0  0  0  0  0  0  0  0  0
  -28.2540  -25.4660   21.1790 C   0  0  0  0  0  2  0  0  0  0  0  0
  -28.4230  -26.5930   20.2670 O   0  0  0  0  0  0  0  0  0  0  0  0
  -24.5820  -31.8980   23.2240 C   0  0  0  0  0  0  0  0  0  0  0  0
  -27.3120  -27.4260   20.2120 C   0  0  0  0  0  0  0  0  0  0  0  0
  -23.4230  -30.4880   21.5570 C   0  0  0  0  0  3  0  0  0  0  0  0
  -24.9220  -28.9600   20.1580 C   0  0  0  0  0  0  0  0  0  0  0  0
  -25.9560  -30.8520   21.4190 C   0  0  0  0  0  2  0  0  0  0  0  0
  -26.0680  -29.4790   20.7750 C   0  0  0  0  0  0  0  0  0  0  0  0
  -27.2710  -28.7210   20.7960 C   0  0  0  0  0  3  0  0  0  0  0  0
  -26.1500  -26.9400   19.5790 C   0  0  0  0  0  3  0  0  0  0  0  0
  -24.9610  -27.6910   19.5550 C   0  0  0  0  0  3  0  0  0  0  0  0
  -23.6710  -29.8130   20.1810 C   0  0  0  0  0  2  0  0  0  0  0  0
  -24.6710  -31.0960   22.1250 N   0  0  0  0  0  0  0  0  0  0  0  0
  -23.4860  -32.1630   23.7390 O   0  0  0  0  0  0  0  0  0  0  0  0
  -22.7550  -29.4630   22.5040 C   0  0  0  0  0  0  0  0  0  0  0  0
  -21.4320  -29.2820   22.3590 N   0  0  0  0  0  0  0  0  0  0  0  0
  -23.4270  -28.8350   23.3270 O   0  0  0  0  0  0  0  0  0  0  0  0
  -20.9520  -29.8410   21.6680 H   0  0  0  0  0  0  0  0  0  0  0  0
  -18.0480  -28.0910   22.8180 C   0  0  0  0  0  0  0  0  0  0  0  0
  -20.6050  -28.3400   23.1140 C   0  0  0  0  0  3  0  0  0  0  0  0
  -20.7090  -26.9140   22.5260 C   0  0  0  0  0  2  0  0  0  0  0  0
  -19.6150  -26.6040   21.4990 C   0  0  0  0  0  2  0  0  0  0  0  0
  -18.2270  -26.7470   22.1330 C   0  0  0  0  0  2  0  0  0  0  0  0
  -19.1660  -28.8460   23.2650 C   0  0  0  0  0  0  0  0  0  0  0  0
  -18.9460  -30.1040   23.8660 C   0  0  0  0  0  3  0  0  0  0  0  0
  -17.6420  -30.6090   24.0250 C   0  0  0  0  0  3  0  0  0  0  0  0
  -16.5390  -29.8510   23.5940 C   0  0  0  0  0  3  0  0  0  0  0  0
  -16.7420  -28.5940   22.9980 C   0  0  0  0  0  3  0  0  0  0  0  0
  -25.8480  -32.5410   23.8690 C   0  0  0  0  0  3  0  0  0  0  0  0
  -25.5240  -33.9390   24.1860 N   0  0  0  0  0  0  0  0  0  0  0  0
  -25.8680  -34.9890   23.4290 C   0  0  0  0  0  0  0  0  0  0  0  0
  -26.5610  -34.8860   22.4130 O   0  0  0  0  0  0  0  0  0  0  0  0
  -24.9100  -34.0940   24.9720 H   0  0  0  0  0  0  0  0  0  0  0  0
  -24.1380  -36.7700   23.0280 C   0  0  0  0  0  1  0  0  0  0  0  0
  -25.3630  -36.3780   23.8680 C   0  0  0  0  0  3  0  0  0  0  0  0
  -27.4730  -37.2790   24.7410 C   0  0  0  0  0  1  0  0  0  0  0  0
  -26.3920  -37.4360   23.7720 N   0  0  0  0  0  0  0  0  0  0  0  0
  -25.9770  -38.3540   23.9050 H   0  0  0  0  0  0  0  0  0  0  0  0
  -26.3420  -31.7790   25.1600 C   0  0  1  0  0  0  0  0  0  0  0  0
  -25.2280  -31.5400   26.2060 C   0  0  0  0  0  1  0  0  0  0  0  0
  -26.9420  -30.4030   24.7870 C   0  0  0  0  0  1  0  0  0  0  0  0
  -27.4720  -32.5840   25.8430 C   0  0  0  0  0  1  0  0  0  0  0  0
  1  3  1  0
  2  4  2  0
  2  5  1  0
  4  6  1  0
  5  1  2  0
  6 49  1  0
  6  3  2  0
  7  5  1  0
  7 10  1  0
  8  7  2  0
 10  9  1  0
 11 10  1  0
 11 12  2  0
 13 12  1  0
 14 19  1  0
 15 16  1  0
 15 14  1  0
 17 16  1  0
 17 24  1  0
 17 18  1  0
 19 13  1  0
 19 18  1  0
 20 13  2  0
 21 22  2  0
 22 41  1  0
 23 22  1  0
 23 26  1  0
 24 21  1  0
 24 25  1  0
 25 23  2  0
 26 27  1  0
 27 28  2  0
 29 32  1  0
 29 28  1  0
 30 29  2  0
 31 30  1  0
 31 26  2  0
 32 33  1  0
 33 34  1  0
 34 35  2  0
 36 35  1  0
 36 40  1  0
 37 36  2  0
 38 33  2  0
 38 37  1  0
 39 38  1  0
 41 42  1  0
 42 45  1  0
 42 44  1  0
 43 41  2  0
 46 47  1  0
 46 21  1  0
 48 46  1  0
 50 49  1  0
 51 62  2  0
 52 50  1  0
 52 57  1  0
 53 61  1  0
 53 63  1  0
 54 60  1  0
 54 56  1  0
 55 61  1  0
 56 57  2  0
 56 55  1  0
 58 52  2  0
 59 58  1  0
 59 54  2  0
 60 53  1  0
 61 51  1  0
 63 65  2  0
 64 63  1  0
 66 64  1  0
 67 76  2  0
 67 72  1  0
 68 64  1  0
 68 72  1  0
 69 68  1  0
 70 71  1  0
 70 69  1  0
 71 67  1  0
 72 73  2  0
 73 74  1  0
 75 74  2  0
 76 75  1  0
 77 51  1  0
 77 78  1  0
 77 87  1  0
 78 81  1  0
 79 83  1  0
 79 78  1  0
 80 79  2  0
 83 82  1  0
 85 83  1  0
 85 86  1  0
 85 84  1  0
 87 90  1  1
 87 88  1  0
 89 87  1  0
M  ISO  4  12 100  13 100  49 101  50 101
M  END
>  <TORSDO>  (55) 
F 21

>  <SCORE>  (55) 
-13.670

>  <name>  (55) 
55

>  <ligand_id>  (55) 
55

>  <original_smiles>  (55) 
[H]c1c([H])c([H])c2c(c1[H])C([H])([H])C([H])([H])C([H])([H])C2([H])N([H])C(=O)C1([H])N(C(=O)C([H])(N([H])C(=O)C([H])(N([H])C([H])([H])[H])C([H])([H])[H])C(C([H])([H])[H])(C([H])([H])[H])C([H])([H])[H])C([H])([H])c2c([H])c(OC([H])([H])c3c([H])c([H])c(C(=O)C([H])(C([H])([H])[H])C([H])([H])C([H])([H])C(=O)N4C([H])([H])C([H])([H])C([H])([H])C([H])(n5nc(-c6c([H])c([H])c(Oc7c([H])c([H])c(F)c([H])c7F)c([H])c6[H])c(C(=O)N([H])[H])c5N([H])[H])C4([H])[H])c([H])c3[H])c([H])c([H])c2C1([H])[H]

>  <smiles>  (55) 
[H]c1c([H])c([H])c2c(c1[H])C([H])([H])C([H])([H])C([H])([H])C2([H])N([H])C(=O)C1([H])N(C(=O)C([H])(N([H])C(=O)C([H])(N([H])C([H])([H])[H])C([H])([H])[H])C(C([H])([H])[H])(C([H])([H])[H])C([H])([H])[H])C([H])([H])c2c([H])c(OC([H])([H])c3c([H])c([H])c(C(=O)C([H])(C([H])([H])[H])C([H])([H])C([H])([H])C(=O)N4C([H])([H])C([H])([H])C([H])([H])C([H])(n5nc(-c6c([H])c([H])c(Oc7c([H])c([H])c(F)c([H])c7F)c([H])c6[H])c(C(=O)N([H])[H])c5N([H])[H])C4([H])[H])c([H])c3[H])c([H])c([H])c2C1([H])[H]

$$$$
56:0:0
     RDKit          3D

 88 96  0  0  1  0  0  0  0  0999 V2000
  -29.9590  -22.4950   18.5630 C   0  0  0  0  0  1  0  0  0  0  0  0
  -29.0460  -22.4360   19.8020 C   0  0  0  0  0  3  0  0  0  0  0  0
  -29.3690  -21.1350   20.6790 C   0  0  0  0  0  3  0  0  0  0  0  0
  -29.6250  -19.7520   19.9230 C   0  0  0  0  0  3  0  0  0  0  0  0
  -30.5500  -17.9630   21.6780 C   0  0  0  0  0  2  0  0  0  0  0  0
  -29.4900  -18.3920   20.7040 C   0  0  0  0  0  3  0  0  0  0  0  0
  -30.3640  -17.1090   20.4370 C   0  0  0  0  0  3  0  0  0  0  0  0
  -30.6310  -14.5870   20.2920 C   0  0  0  0  0  0  0  0  0  0  0  0
  -30.3280  -12.3680   19.2210 C   0  0  0  0  0  2  0  0  0  0  0  0
  -29.3840  -12.5270   18.0110 C   0  0  0  0  0  2  0  0  0  0  0  0
  -27.9150  -12.3880   18.4510 C   0  0  0  0  0  2  0  0  0  0  0  0
  -27.5800  -13.2510   19.6970 C   0  0  0  0  0  3  0  0  0  0  0  0
  -28.6450  -13.0930   20.8060 C   0  0  0  0  0  2  0  0  0  0  0  0
  -29.9540  -13.3980   20.2120 N   0  0  0  0  0  0  0  0  0  0  0  0
  -31.7910  -14.6830   19.8820 O   0  0  0  0  0  0  0  0  0  0  0  0
  -29.9290  -15.7110   20.6430 N   0  0  0  0  0  0  0  0  0  0  0  0
  -28.9770  -15.5620   20.9420 H   0  0  0  0  0  0  0  0  0  0  0  0
  -25.1960  -13.8700   20.4270 C   0  0  0  0  0  0  0  0  0  0  0  0
  -24.1260  -13.1070   20.8070 C   0  0  0  0  0  0  0  0  0  0  0  0
  -24.5770  -11.7510   20.7810 C   0  0  0  0  0  0  0  0  0  0  0  0
  -26.2320  -12.9810   20.1920 N   0  0  0  0  0  0  0  0  0  0  0  0
  -25.8660  -11.7020   20.4660 N   0  0  0  0  0  0  0  0  0  0  0  0
  -23.8410  -10.4970   20.9820 C   0  0  0  0  0  0  0  0  0  0  0  0
  -24.2710   -9.5300   21.9170 C   0  0  0  0  0  3  0  0  0  0  0  0
  -23.5370   -8.3390   22.1050 C   0  0  0  0  0  3  0  0  0  0  0  0
  -22.3570   -8.1080   21.3580 C   0  0  0  0  0  0  0  0  0  0  0  0
  -21.9460   -9.0630   20.4120 C   0  0  0  0  0  3  0  0  0  0  0  0
  -22.6810  -10.2440   20.2220 C   0  0  0  0  0  3  0  0  0  0  0  0
  -21.5930   -6.9700   21.4570 O   0  0  0  0  0  0  0  0  0  0  0  0
  -21.5470   -6.2310   22.6110 C   0  0  0  0  0  0  0  0  0  0  0  0
  -21.1360   -6.7920   23.8410 C   0  0  0  0  0  3  0  0  0  0  0  0
  -21.0380   -5.9790   24.9880 C   0  0  0  0  0  3  0  0  0  0  0  0
  -21.3400   -4.6070   24.9070 C   0  0  0  0  0  0  0  0  0  0  0  0
  -21.7440   -4.0450   23.6830 C   0  0  0  0  0  3  0  0  0  0  0  0
  -21.8450   -4.8550   22.5380 C   0  0  0  0  0  0  0  0  0  0  0  0
  -22.2140   -4.3040   21.3560 F   0  0  0  0  0  0  0  0  0  0  0  0
  -21.2380   -3.8240   26.0070 F   0  0  0  0  0  0  0  0  0  0  0  0
  -22.7340  -13.5970   21.0830 C   0  0  0  0  0  0  0  0  0  0  0  0
  -22.0060  -12.9120   21.9590 N   0  0  0  0  0  0  0  0  0  0  0  0
  -22.3010  -14.6220   20.5570 O   0  0  0  0  0  0  0  0  0  0  0  0
  -22.3710  -12.0840   22.4050 H   0  0  0  0  0  0  0  0  0  0  0  0
  -21.0710  -13.2210   22.1850 H   0  0  0  0  0  0  0  0  0  0  0  0
  -25.3700  -15.2380   20.2390 N   0  0  0  0  0  0  0  0  0  0  0  0
  -24.6050  -15.8970   20.3440 H   0  0  0  0  0  0  0  0  0  0  0  0
  -26.2140  -15.6670   19.8810 H   0  0  0  0  0  0  0  0  0  0  0  0
  -29.0600  -23.8660   20.5180 C   0  0  0  0  0  3  0  0  0  0  0  0
  -28.1360  -24.9980   19.8900 C   0  0  0  0  0  3  0  0  0  0  0  0
  -28.3120  -26.4260   20.2530 O   0  0  0  0  0  0  0  0  0  0  0  0
  -24.6090  -31.8500   23.2360 C   0  0  0  0  0  0  0  0  0  0  0  0
  -27.2010  -27.2850   20.1730 C   0  0  0  0  0  0  0  0  0  0  0  0
  -23.4000  -30.4560   21.5970 C   0  0  0  0  0  3  0  0  0  0  0  0
  -24.8440  -28.9090   20.1650 C   0  0  0  0  0  0  0  0  0  0  0  0
  -25.9410  -30.7640   21.4150 C   0  0  0  0  0  2  0  0  0  0  0  0
  -26.0130  -29.3880   20.7660 C   0  0  0  0  0  0  0  0  0  0  0  0
  -27.1940  -28.5860   20.7680 C   0  0  0  0  0  3  0  0  0  0  0  0
  -26.0120  -26.8740   19.5250 C   0  0  0  0  0  3  0  0  0  0  0  0
  -24.8450  -27.6570   19.5360 C   0  0  0  0  0  3  0  0  0  0  0  0
  -23.6100  -29.7850   20.2150 C   0  0  0  0  0  2  0  0  0  0  0  0
  -24.6680  -31.0400   22.1400 N   0  0  0  0  0  0  0  0  0  0  0  0
  -23.5260  -32.1300   23.7700 O   0  0  0  0  0  0  0  0  0  0  0  0
  -22.7360  -29.4370   22.5560 C   0  0  0  0  0  0  0  0  0  0  0  0
  -21.4090  -29.2640   22.4300 N   0  0  0  0  0  0  0  0  0  0  0  0
  -23.4130  -28.8090   23.3750 O   0  0  0  0  0  0  0  0  0  0  0  0
  -20.9220  -29.8210   21.7430 H   0  0  0  0  0  0  0  0  0  0  0  0
  -18.0290  -28.0810   22.9320 C   0  0  0  0  0  0  0  0  0  0  0  0
  -20.5880  -28.3300   23.2010 C   0  0  0  0  0  3  0  0  0  0  0  0
  -20.6850  -26.8970   22.6270 C   0  0  0  0  0  2  0  0  0  0  0  0
  -19.5820  -26.5780   21.6130 C   0  0  0  0  0  2  0  0  0  0  0  0
  -18.2000  -26.7290   22.2570 C   0  0  0  0  0  2  0  0  0  0  0  0
  -19.1510  -28.8380   23.3600 C   0  0  0  0  0  0  0  0  0  0  0  0
  -18.9370  -30.1030   23.9510 C   0  0  0  0  0  3  0  0  0  0  0  0
  -17.6350  -30.6100   24.1150 C   0  0  0  0  0  3  0  0  0  0  0  0
  -16.5270  -29.8490   23.7040 C   0  0  0  0  0  3  0  0  0  0  0  0
  -16.7250  -28.5860   23.1160 C   0  0  0  0  0  3  0  0  0  0  0  0
  -25.8940  -32.4780   23.8560 C   0  0  0  0  0  3  0  0  0  0  0  0
  -25.5890  -33.8760   24.1890 N   0  0  0  0  0  0  0  0  0  0  0  0
  -25.9160  -34.9290   23.4290 C   0  0  0  0  0  0  0  0  0  0  0  0
  -26.5790  -34.8270   22.3940 O   0  0  0  0  0  0  0  0  0  0  0  0
  -25.0010  -34.0320   24.9950 H   0  0  0  0  0  0  0  0  0  0  0  0
  -24.1850  -36.7220   23.0910 C   0  0  0  0  0  1  0  0  0  0  0  0
  -25.4320  -36.3170   23.8920 C   0  0  0  0  0  3  0  0  0  0  0  0
  -27.5720  -37.2000   24.7080 C   0  0  0  0  0  1  0  0  0  0  0  0
  -26.4640  -37.3710   23.7720 N   0  0  0  0  0  0  0  0  0  0  0  0
  -26.0580  -38.2900   23.9260 H   0  0  0  0  0  0  0  0  0  0  0  0
  -26.4110  -31.7050   25.1300 C   0  0  1  0  0  0  0  0  0  0  0  0
  -25.3190  -31.4660   26.2000 C   0  0  0  0  0  1  0  0  0  0  0  0
  -26.9920  -30.3270   24.7370 C   0  0  0  0  0  1  0  0  0  0  0  0
  -27.5670  -32.4950   25.7900 C   0  0  0  0  0  1  0  0  0  0  0  0
  2  1  1  0
  2 46  1  0
  2  3  1  0
  4  3  2  0
  6  4  1  0
  6  5  1  0
  7 16  1  0
  7  6  1  0
  7  5  1  0
  8 16  1  0
  9 14  1  0
 10 11  1  0
 10  9  1  0
 12 11  1  0
 12 21  1  0
 12 13  1  0
 14  8  1  0
 14 13  1  0
 15  8  2  0
 16 17  1  0
 18 19  2  0
 19 38  1  0
 20 19  1  0
 20 23  1  0
 21 18  1  0
 21 22  1  0
 22 20  2  0
 23 24  1  0
 24 25  2  0
 26 29  1  0
 26 25  1  0
 27 26  2  0
 28 27  1  0
 28 23  2  0
 29 30  1  0
 30 31  1  0
 31 32  2  0
 33 32  1  0
 33 37  1  0
 34 33  2  0
 35 30  2  0
 35 34  1  0
 36 35  1  0
 38 39  1  0
 39 42  1  0
 39 41  1  0
 40 38  2  0
 43 44  1  0
 43 18  1  0
 45 43  1  0
 47 48  1  0
 47 46  2  0
 49 60  2  0
 50 48  1  0
 50 55  1  0
 51 59  1  0
 51 61  1  0
 52 58  1  0
 52 54  1  0
 53 59  1  0
 54 55  2  0
 54 53  1  0
 56 57  1  0
 56 50  2  0
 57 52  2  0
 58 51  1  0
 59 49  1  0
 61 63  2  0
 62 61  1  0
 64 62  1  0
 65 74  2  0
 65 70  1  0
 66 62  1  0
 66 70  1  0
 67 66  1  0
 68 69  1  0
 68 67  1  0
 69 65  1  0
 70 71  2  0
 71 72  1  0
 73 72  2  0
 74 73  1  0
 75 49  1  0
 75 76  1  0
 75 85  1  0
 76 79  1  0
 77 81  1  0
 77 76  1  0
 78 77  2  0
 81 80  1  0
 83 81  1  0
 83 84  1  0
 83 82  1  0
 85 88  1  1
 85 86  1  0
 87 85  1  0
M  ISO  4   8 100  16 100  47 101  48 101
M  END
>  <TORSDO>  (56) 
F 21

>  <SCORE>  (56) 
-13.242

>  <name>  (56) 
56

>  <ligand_id>  (56) 
56

>  <original_smiles>  (56) 
[H]c1c([H])c([H])c2c(c1[H])C([H])([H])C([H])([H])C([H])([H])C2([H])N([H])C(=O)C1([H])N(C(=O)C([H])(N([H])C(=O)C([H])(N([H])C([H])([H])[H])C([H])([H])[H])C(C([H])([H])[H])(C([H])([H])[H])C([H])([H])[H])C([H])([H])c2c([H])c(OC([H])([H])C([H])([H])C([H])(C([H])([H])[H])C([H])([H])C([H])([H])C3([H])C([H])([H])C3([H])N([H])C(=O)N3C([H])([H])C([H])([H])C([H])([H])C([H])(n4nc(-c5c([H])c([H])c(Oc6c([H])c([H])c(F)c([H])c6F)c([H])c5[H])c(C(=O)N([H])[H])c4N([H])[H])C3([H])[H])c([H])c([H])c2C1([H])[H]

>  <smiles>  (56) 
[H]c1c([H])c([H])c2c(c1[H])C([H])([H])C([H])([H])C([H])([H])C2([H])N([H])C(=O)C1([H])N(C(=O)C([H])(N([H])C(=O)C([H])(N([H])C([H])([H])[H])C([H])([H])[H])C(C([H])([H])[H])(C([H])([H])[H])C([H])([H])[H])C([H])([H])c2c([H])c(OC([H])([H])C([H])([H])C([H])(C([H])([H])[H])C([H])([H])C([H])([H])C3([H])C([H])([H])C3([H])N([H])C(=O)N3C([H])([H])C([H])([H])C([H])([H])C([H])(n4nc(-c5c([H])c([H])c(Oc6c([H])c([H])c(F)c([H])c6F)c([H])c5[H])c(C(=O)N([H])[H])c4N([H])[H])C3([H])[H])c([H])c([H])c2C1([H])[H]

$$$$
57:0:0
     RDKit          3D

 88 96  0  0  1  0  0  0  0  0999 V2000
  -26.9770  -19.9190   19.9500 C   0  0  0  0  0  2  0  0  0  0  0  0
  -27.4930  -20.9570   19.2950 C   0  0  0  0  0  2  0  0  0  0  0  0
  -27.9720  -19.1220   20.7500 C   0  0  0  0  0  2  0  0  0  0  0  0
  -28.9650  -21.1730   19.5230 C   0  0  0  0  0  3  0  0  0  0  0  0
  -29.3620  -19.5730   20.2420 C   0  0  0  0  0  3  0  0  0  0  0  0
  -31.5800  -18.4290   19.3280 C   0  0  0  0  0  1  0  0  0  0  0  0
  -30.0970  -18.1020   19.5570 C   0  0  0  0  0  0  0  0  0  0  0  0
  -30.6970  -15.2390   19.7870 C   0  0  0  0  0  0  0  0  0  0  0  0
  -30.5610  -12.8080   18.9310 C   0  0  0  0  0  2  0  0  0  0  0  0
  -29.5460  -12.6490   17.7720 C   0  0  0  0  0  2  0  0  0  0  0  0
  -28.1300  -12.4050   18.3190 C   0  0  0  0  0  2  0  0  0  0  0  0
  -27.7860  -13.3610   19.4890 C   0  0  0  0  0  3  0  0  0  0  0  0
  -28.9200  -13.4750   20.5310 C   0  0  0  0  0  2  0  0  0  0  0  0
  -30.1140  -13.9460   19.8120 N   0  0  0  0  0  0  0  0  0  0  0  0
  -31.8760  -15.2320   19.4050 O   0  0  0  0  0  0  0  0  0  0  0  0
  -29.9650  -16.5030   19.9880 N   0  0  0  0  0  4  0  0  0  0  0  0
  -29.0460  -16.3040   20.3580 H   0  0  0  0  0  0  0  0  0  0  0  0
  -25.5120  -13.9350   20.4930 C   0  0  0  0  0  0  0  0  0  0  0  0
  -24.4640  -13.1640   20.9090 C   0  0  0  0  0  0  0  0  0  0  0  0
  -24.8810  -11.8070   20.7490 C   0  0  0  0  0  0  0  0  0  0  0  0
  -26.4980  -13.0510   20.0970 N   0  0  0  0  0  0  0  0  0  0  0  0
  -26.1370  -11.7590   20.3170 N   0  0  0  0  0  0  0  0  0  0  0  0
  -24.1320  -10.5550   20.9230 C   0  0  0  0  0  0  0  0  0  0  0  0
  -24.5740   -9.5450   21.8050 C   0  0  0  0  0  3  0  0  0  0  0  0
  -23.8240   -8.3610   21.9720 C   0  0  0  0  0  3  0  0  0  0  0  0
  -22.6170   -8.1780   21.2560 C   0  0  0  0  0  0  0  0  0  0  0  0
  -22.1930   -9.1760   20.3620 C   0  0  0  0  0  3  0  0  0  0  0  0
  -22.9440  -10.3520   20.1920 C   0  0  0  0  0  3  0  0  0  0  0  0
  -21.8370   -7.0500   21.3360 O   0  0  0  0  0  0  0  0  0  0  0  0
  -21.7630   -6.3030   22.4850 C   0  0  0  0  0  0  0  0  0  0  0  0
  -21.2960   -6.8500   23.7000 C   0  0  0  0  0  3  0  0  0  0  0  0
  -21.1730   -6.0310   24.8390 C   0  0  0  0  0  3  0  0  0  0  0  0
  -21.5060   -4.6640   24.7640 C   0  0  0  0  0  0  0  0  0  0  0  0
  -21.9660   -4.1170   23.5540 C   0  0  0  0  0  3  0  0  0  0  0  0
  -22.0910   -4.9340   22.4160 C   0  0  0  0  0  0  0  0  0  0  0  0
  -22.5150   -4.3970   21.2470 F   0  0  0  0  0  0  0  0  0  0  0  0
  -21.3800   -3.8740   25.8570 F   0  0  0  0  0  0  0  0  0  0  0  0
  -23.1140  -13.6600   21.3360 C   0  0  0  0  0  0  0  0  0  0  0  0
  -22.4480  -12.9330   22.2260 N   0  0  0  0  0  0  0  0  0  0  0  0
  -22.6630  -14.7260   20.9170 O   0  0  0  0  0  0  0  0  0  0  0  0
  -22.8280  -12.0700   22.5850 H   0  0  0  0  0  0  0  0  0  0  0  0
  -21.5450  -13.2450   22.5550 H   0  0  0  0  0  0  0  0  0  0  0  0
  -25.7010  -15.3110   20.3880 N   0  0  0  0  0  0  0  0  0  0  0  0
  -24.9640  -15.9710   20.6090 H   0  0  0  0  0  0  0  0  0  0  0  0
  -26.5120  -15.7480   19.9700 H   0  0  0  0  0  0  0  0  0  0  0  0
  -29.0620  -22.8620   20.0810 C   0  0  0  0  0  3  0  0  0  0  0  0
  -28.1980  -24.3450   19.5880 C   0  0  0  0  0  3  0  0  0  0  0  0
  -28.3400  -25.9330   19.9320 O   0  0  0  0  0  0  0  0  0  0  0  0
  -24.6030  -31.6610   23.0190 C   0  0  0  0  0  0  0  0  0  0  0  0
  -27.2930  -26.9800   19.8650 C   0  0  0  0  0  0  0  0  0  0  0  0
  -23.4470  -30.2850   21.3340 C   0  0  0  0  0  3  0  0  0  0  0  0
  -24.9390  -28.7680   19.8670 C   0  0  0  0  0  0  0  0  0  0  0  0
  -26.0040  -30.5770   21.2000 C   0  0  0  0  0  2  0  0  0  0  0  0
  -26.1110  -29.1940   20.5020 C   0  0  0  0  0  0  0  0  0  0  0  0
  -27.2810  -28.3190   20.4820 C   0  0  0  0  0  3  0  0  0  0  0  0
  -26.0910  -26.6970   19.1790 C   0  0  0  0  0  3  0  0  0  0  0  0
  -24.9510  -27.5400   19.1860 C   0  0  0  0  0  3  0  0  0  0  0  0
  -23.6940  -29.6490   19.9390 C   0  0  0  0  0  2  0  0  0  0  0  0
  -24.7050  -30.8660   21.9050 N   0  0  0  0  0  0  0  0  0  0  0  0
  -23.5060  -31.9070   23.5460 O   0  0  0  0  0  0  0  0  0  0  0  0
  -22.7790  -29.2430   22.2690 C   0  0  0  0  0  0  0  0  0  0  0  0
  -21.4490  -29.0700   22.1560 N   0  0  0  0  0  0  0  0  0  0  0  0
  -23.4630  -28.5920   23.0620 O   0  0  0  0  0  0  0  0  0  0  0  0
  -20.9500  -29.6480   21.4930 H   0  0  0  0  0  0  0  0  0  0  0  0
  -18.0820  -27.8250   22.6760 C   0  0  0  0  0  0  0  0  0  0  0  0
  -20.6470  -28.0950   22.9000 C   0  0  0  0  0  3  0  0  0  0  0  0
  -20.7430  -26.6900   22.2600 C   0  0  0  0  0  2  0  0  0  0  0  0
  -19.6210  -26.4080   21.2540 C   0  0  0  0  0  2  0  0  0  0  0  0
  -18.2520  -26.5120   21.9320 C   0  0  0  0  0  2  0  0  0  0  0  0
  -19.2060  -28.5760   23.1170 C   0  0  0  0  0  0  0  0  0  0  0  0
  -18.9900  -29.8050   23.7770 C   0  0  0  0  0  3  0  0  0  0  0  0
  -17.6840  -30.2850   24.0000 C   0  0  0  0  0  3  0  0  0  0  0  0
  -16.5770  -29.5310   23.5730 C   0  0  0  0  0  3  0  0  0  0  0  0
  -16.7760  -28.3030   22.9160 C   0  0  0  0  0  3  0  0  0  0  0  0
  -25.8580  -32.3140   23.6730 C   0  0  0  0  0  3  0  0  0  0  0  0
  -26.3720  -31.5320   24.9460 C   0  0  1  0  0  0  0  0  0  0  0  0
  -25.2710  -31.2590   25.9970 C   0  0  0  0  0  1  0  0  0  0  0  0
  -26.9840  -30.1690   24.5470 C   0  0  0  0  0  1  0  0  0  0  0  0
  -27.5030  -32.3350   25.6320 C   0  0  0  0  0  1  0  0  0  0  0  0
  -25.5090  -33.6990   24.0370 N   0  0  0  0  0  0  0  0  0  0  0  0
  -25.8280  -34.7850   23.3190 C   0  0  0  0  0  0  0  0  0  0  0  0
  -26.5080  -34.7280   22.2910 O   0  0  0  0  0  0  0  0  0  0  0  0
  -24.9050  -33.8150   24.8360 H   0  0  0  0  0  0  0  0  0  0  0  0
  -24.0710  -36.5640   23.0090 C   0  0  0  0  0  1  0  0  0  0  0  0
  -25.3110  -36.1500   23.8180 C   0  0  0  0  0  3  0  0  0  0  0  0
  -27.4140  -37.0550   24.7090 C   0  0  0  0  0  1  0  0  0  0  0  0
  -26.3250  -37.2250   23.7500 N   0  0  0  0  0  0  0  0  0  0  0  0
  -25.8980  -38.1330   23.9150 H   0  0  0  0  0  0  0  0  0  0  0  0
  1  3  1  0
  2  4  1  0
  2  1  1  0
  4 46  1  0
  4  5  1  0
  5  7  1  0
  5  3  1  0
  6  7  1  0
  7 16  2  0
  8 14  1  0
  8 16  1  0
  9 14  1  0
 10 11  1  0
 10  9  1  0
 12 11  1  0
 12 21  1  0
 12 13  1  0
 14 13  1  0
 15  8  2  0
 16 17  1  0
 18 19  2  0
 19 38  1  0
 20 19  1  0
 20 23  1  0
 21 22  1  0
 21 18  1  0
 22 20  2  0
 23 24  1  0
 24 25  2  0
 26 29  1  0
 26 25  1  0
 27 26  2  0
 28 27  1  0
 28 23  2  0
 29 30  1  0
 30 31  1  0
 31 32  2  0
 33 32  1  0
 33 37  1  0
 34 33  2  0
 35 30  2  0
 35 34  1  0
 36 35  1  0
 38 39  1  0
 39 42  1  0
 39 41  1  0
 40 38  2  0
 43 18  1  0
 43 44  1  0
 45 43  1  0
 47 48  1  0
 47 46  2  0
 49 60  2  0
 50 48  1  0
 50 55  1  0
 51 59  1  0
 51 61  1  0
 52 58  1  0
 52 54  1  0
 53 59  1  0
 54 53  1  0
 55 54  2  0
 56 57  1  0
 56 50  2  0
 57 52  2  0
 58 51  1  0
 59 49  1  0
 61 63  2  0
 62 61  1  0
 64 62  1  0
 65 74  2  0
 65 70  1  0
 66 62  1  0
 66 70  1  0
 67 66  1  0
 68 69  1  0
 68 67  1  0
 69 65  1  0
 70 71  2  0
 71 72  1  0
 73 72  2  0
 74 73  1  0
 75 49  1  0
 75 80  1  0
 75 76  1  0
 76 79  1  1
 76 77  1  0
 78 76  1  0
 80 83  1  0
 81 85  1  0
 81 80  1  0
 82 81  2  0
 85 84  1  0
 87 85  1  0
 87 88  1  0
 87 86  1  0
M  ISO  4   8 100  16 100  47 101  48 101
M  END
>  <TORSDO>  (57) 
F 19

>  <SCORE>  (57) 
-13.931

>  <name>  (57) 
57

>  <ligand_id>  (57) 
57

>  <original_smiles>  (57) 
[H]C1=C([H])C([H])(C([H])([H])C([H])([H])Oc2c([H])c([H])c3c(c2[H])C([H])([H])N(C(=O)C([H])(N([H])C(=O)C([H])(N([H])C([H])([H])[H])C([H])([H])[H])C(C([H])([H])[H])(C([H])([H])[H])C([H])([H])[H])C([H])(C(=O)N([H])C2([H])c4c([H])c([H])c([H])c([H])c4C([H])([H])C([H])([H])C2([H])[H])C3([H])[H])C([H])(C([H])(N([H])C(=O)N2C([H])([H])C([H])([H])C([H])([H])C([H])(n3nc(-c4c([H])c([H])c(Oc5c([H])c([H])c(F)c([H])c5F)c([H])c4[H])c(C(=O)N([H])[H])c3N([H])[H])C2([H])[H])C([H])([H])[H])C1([H])[H]

>  <smiles>  (57) 
[H]C1=C([H])C([H])(C([H])([H])C([H])([H])Oc2c([H])c([H])c3c(c2[H])C([H])([H])N(C(=O)C([H])(N([H])C(=O)C([H])(N([H])C([H])([H])[H])C([H])([H])[H])C(C([H])([H])[H])(C([H])([H])[H])C([H])([H])[H])C([H])(C(=O)N([H])C2([H])c4c([H])c([H])c([H])c([H])c4C([H])([H])C([H])([H])C2([H])[H])C3([H])[H])C([H])(C([H])(N([H])C(=O)N2C([H])([H])C([H])([H])C([H])([H])C([H])(n3nc(-c4c([H])c([H])c(Oc5c([H])c([H])c(F)c([H])c5F)c([H])c4[H])c(C(=O)N([H])[H])c3N([H])[H])C2([H])[H])C([H])([H])[H])C1([H])[H]

$$$$
58:0:0
     RDKit          3D

 87 95  0  0  1  0  0  0  0  0999 V2000
  -30.9030  -22.5050   19.4900 C   0  0  0  0  0  1  0  0  0  0  0  0
  -29.5430  -21.9800   19.0250 C   0  0  0  0  0  3  0  0  0  0  0  0
  -30.8440  -15.4440   19.2600 C   0  0  0  0  0  0  0  0  0  0  0  0
  -30.7860  -12.8940   18.4710 C   0  0  0  0  0  2  0  0  0  0  0  0
  -29.7200  -12.4860   17.4090 C   0  0  0  0  0  2  0  0  0  0  0  0
  -28.3620  -12.1800   18.0630 C   0  0  0  0  0  2  0  0  0  0  0  0
  -28.0390  -13.2060   19.1730 C   0  0  0  0  0  3  0  0  0  0  0  0
  -29.2270  -13.4570   20.1260 C   0  0  0  0  0  2  0  0  0  0  0  0
  -30.3000  -14.0840   19.3120 N   0  0  0  0  0  0  0  0  0  0  0  0
  -32.0040  -15.3620   18.8070 O   0  0  0  0  0  0  0  0  0  0  0  0
  -28.3470  -19.5530   20.2210 C   0  0  0  0  0  2  0  0  0  0  0  0
  -28.9860  -16.9170   20.3930 C   0  0  0  0  0  2  0  0  0  0  0  0
  -30.3460  -18.4920   18.9950 C   0  0  0  0  0  2  0  0  0  0  0  0
  -28.6580  -18.2930   21.1170 C   0  0  0  0  0  3  0  0  0  0  0  0
  -29.6280  -20.1270   19.5940 C   0  0  0  0  0  3  0  0  0  0  0  0
  -27.5220  -18.0890   22.1460 C   0  0  0  0  0  1  0  0  0  0  0  0
  -30.1560  -16.8380   19.4770 N   0  0  0  0  0  0  0  0  0  0  0  0
  -25.9040  -13.8100   20.4150 C   0  0  0  0  0  0  0  0  0  0  0  0
  -24.8590  -13.0700   20.8860 C   0  0  0  0  0  0  0  0  0  0  0  0
  -25.1800  -11.7080   20.6000 C   0  0  0  0  0  0  0  0  0  0  0  0
  -26.8000  -12.9060   19.8760 N   0  0  0  0  0  0  0  0  0  0  0  0
  -26.3870  -11.6230   20.0470 N   0  0  0  0  0  0  0  0  0  0  0  0
  -24.3780  -10.4920   20.7680 C   0  0  0  0  0  0  0  0  0  0  0  0
  -24.8150   -9.4180   21.5730 C   0  0  0  0  0  3  0  0  0  0  0  0
  -24.0110   -8.2690   21.7320 C   0  0  0  0  0  3  0  0  0  0  0  0
  -22.7550   -8.1850   21.0870 C   0  0  0  0  0  0  0  0  0  0  0  0
  -22.3330   -9.2480   20.2670 C   0  0  0  0  0  3  0  0  0  0  0  0
  -23.1370  -10.3890   20.1050 C   0  0  0  0  0  3  0  0  0  0  0  0
  -21.9160   -7.0990   21.1640 O   0  0  0  0  0  0  0  0  0  0  0  0
  -21.8350   -6.3350   22.3010 C   0  0  0  0  0  0  0  0  0  0  0  0
  -21.4650   -6.8880   23.5460 C   0  0  0  0  0  3  0  0  0  0  0  0
  -21.3250   -6.0520   24.6740 C   0  0  0  0  0  3  0  0  0  0  0  0
  -21.5460   -4.6680   24.5570 C   0  0  0  0  0  0  0  0  0  0  0  0
  -21.9090   -4.1140   23.3150 C   0  0  0  0  0  3  0  0  0  0  0  0
  -22.0510   -4.9460   22.1910 C   0  0  0  0  0  0  0  0  0  0  0  0
  -22.3800   -4.4050   20.9940 F   0  0  0  0  0  0  0  0  0  0  0  0
  -21.4030   -3.8650   25.6380 F   0  0  0  0  0  0  0  0  0  0  0  0
  -23.5870  -13.6120   21.4680 C   0  0  0  0  0  0  0  0  0  0  0  0
  -22.9700  -12.8840   22.3910 N   0  0  0  0  0  0  0  0  0  0  0  0
  -23.1620  -14.7190   21.1410 O   0  0  0  0  0  0  0  0  0  0  0  0
  -23.3320  -11.9900   22.6850 H   0  0  0  0  0  0  0  0  0  0  0  0
  -22.1200  -13.2320   22.8140 H   0  0  0  0  0  0  0  0  0  0  0  0
  -26.1450  -15.1770   20.3690 N   0  0  0  0  0  0  0  0  0  0  0  0
  -25.4570  -15.8470   20.6930 H   0  0  0  0  0  0  0  0  0  0  0  0
  -26.9210  -15.6050   19.8830 H   0  0  0  0  0  0  0  0  0  0  0  0
  -28.4390  -23.5640   19.1200 C   0  0  0  0  0  2  0  0  0  0  0  0
  -28.5060  -25.3170   19.0030 O   0  0  0  0  0  0  0  0  0  0  0  0
  -24.8170  -31.2280   22.4300 C   0  0  0  0  0  0  0  0  0  0  0  0
  -27.4650  -26.4610   19.0930 C   0  0  0  0  0  0  0  0  0  0  0  0
  -23.6410  -29.8750   20.7440 C   0  0  0  0  0  3  0  0  0  0  0  0
  -25.1120  -28.3810   19.2020 C   0  0  0  0  0  0  0  0  0  0  0  0
  -26.2040  -30.1490   20.5570 C   0  0  0  0  0  2  0  0  0  0  0  0
  -26.3090  -28.7600   19.8230 C   0  0  0  0  0  0  0  0  0  0  0  0
  -27.4720  -27.8290   19.7320 C   0  0  0  0  0  3  0  0  0  0  0  0
  -26.2220  -26.2870   18.4310 C   0  0  0  0  0  3  0  0  0  0  0  0
  -25.1060  -27.1750   18.4830 C   0  0  0  0  0  3  0  0  0  0  0  0
  -23.8670  -29.2720   19.3290 C   0  0  0  0  0  2  0  0  0  0  0  0
  -24.9100  -30.4500   21.2980 N   0  0  0  0  0  0  0  0  0  0  0  0
  -23.7270  -31.4470   22.9850 O   0  0  0  0  0  0  0  0  0  0  0  0
  -23.0010  -28.8090   21.6750 C   0  0  0  0  0  0  0  0  0  0  0  0
  -21.6580  -28.7000   21.6770 N   0  0  0  0  0  0  0  0  0  0  0  0
  -23.7200  -28.0830   22.3650 O   0  0  0  0  0  0  0  0  0  0  0  0
  -21.1280  -29.3370   21.0990 H   0  0  0  0  0  0  0  0  0  0  0  0
  -18.2970  -27.6010   22.5200 C   0  0  0  0  0  0  0  0  0  0  0  0
  -20.8820  -27.7010   22.4270 C   0  0  0  0  0  3  0  0  0  0  0  0
  -20.7980  -26.3690   21.6460 C   0  0  0  0  0  2  0  0  0  0  0  0
  -19.5410  -26.2560   20.7780 C   0  0  0  0  0  2  0  0  0  0  0  0
  -18.2790  -26.3660   21.6370 C   0  0  0  0  0  2  0  0  0  0  0  0
  -19.5170  -28.2380   22.8770 C   0  0  0  0  0  0  0  0  0  0  0  0
  -19.4700  -29.3990   23.6770 C   0  0  0  0  0  3  0  0  0  0  0  0
  -18.2400  -29.9220   24.1190 C   0  0  0  0  0  3  0  0  0  0  0  0
  -17.0380  -29.2790   23.7740 C   0  0  0  0  0  3  0  0  0  0  0  0
  -17.0690  -28.1180   22.9800 C   0  0  0  0  0  3  0  0  0  0  0  0
  -26.0700  -31.8930   23.0750 C   0  0  0  0  0  3  0  0  0  0  0  0
  -25.6730  -33.2110   23.6070 N   0  0  0  0  0  0  0  0  0  0  0  0
  -25.9610  -34.3910   23.0400 C   0  0  0  0  0  0  0  0  0  0  0  0
  -26.6530  -34.4830   22.0230 O   0  0  0  0  0  0  0  0  0  0  0  0
  -25.0670  -33.2070   24.4160 H   0  0  0  0  0  0  0  0  0  0  0  0
  -24.1650  -36.1520   22.9310 C   0  0  0  0  0  1  0  0  0  0  0  0
  -25.4020  -35.6660   23.7040 C   0  0  0  0  0  3  0  0  0  0  0  0
  -27.4620  -36.4940   24.7560 C   0  0  0  0  0  1  0  0  0  0  0  0
  -26.3900  -36.7650   23.8020 N   0  0  0  0  0  0  0  0  0  0  0  0
  -25.9330  -37.6330   24.0750 H   0  0  0  0  0  0  0  0  0  0  0  0
  -26.7050  -31.0230   24.2320 C   0  0  1  0  0  0  0  0  0  0  0  0
  -25.6910  -30.6010   25.3230 C   0  0  0  0  0  1  0  0  0  0  0  0
  -27.3480  -29.7360   23.6670 C   0  0  0  0  0  1  0  0  0  0  0  0
  -27.8470  -31.8130   24.9150 C   0  0  0  0  0  1  0  0  0  0  0  0
  2 46  1  0
  2  1  1  0
  3  9  1  0
  3 17  1  0
  4  9  1  0
  5  6  1  0
  5  4  1  0
  7  6  1  0
  7 21  1  0
  7  8  1  0
  9  8  1  0
 10  3  2  0
 11 14  1  0
 12 14  1  0
 13 17  1  0
 13 15  1  0
 14 16  1  0
 15  2  1  0
 15 11  1  0
 17 12  1  0
 18 19  2  0
 19 38  1  0
 20 23  1  0
 20 19  1  0
 21 22  1  0
 21 18  1  0
 22 20  2  0
 23 24  1  0
 24 25  2  0
 26 29  1  0
 26 25  1  0
 27 26  2  0
 28 27  1  0
 28 23  2  0
 29 30  1  0
 30 31  1  0
 31 32  2  0
 33 32  1  0
 33 37  1  0
 34 33  2  0
 35 30  2  0
 35 34  1  0
 36 35  1  0
 38 39  1  0
 39 41  1  0
 39 42  1  0
 40 38  2  0
 43 18  1  0
 43 44  1  0
 45 43  1  0
 47 49  1  0
 47 46  1  0
 48 59  2  0
 49 54  1  0
 50 58  1  0
 50 60  1  0
 51 57  1  0
 51 53  1  0
 52 58  1  0
 53 52  1  0
 54 53  2  0
 55 56  1  0
 55 49  2  0
 56 51  2  0
 57 50  1  0
 58 48  1  0
 60 61  1  0
 60 62  2  0
 63 61  1  0
 64 69  2  0
 64 73  1  0
 65 61  1  0
 65 69  1  0
 66 65  1  0
 67 68  1  0
 67 66  1  0
 68 64  1  0
 69 70  1  0
 70 71  2  0
 72 71  1  0
 73 72  2  0
 74 48  1  0
 74 75  1  0
 74 84  1  0
 75 78  1  0
 76 75  1  0
 76 80  1  0
 77 76  2  0
 80 79  1  0
 80 82  1  0
 82 83  1  0
 82 81  1  0
 84 87  1  1
 84 85  1  0
 86 84  1  0
M  ISO  4   3 100  17 100  46 101  47 101
M  END
>  <TORSDO>  (58) 
F 17

>  <SCORE>  (58) 
-6.140

>  <name>  (58) 
58

>  <ligand_id>  (58) 
58

>  <original_smiles>  (58) 
[H]c1c([H])c([H])c2c(c1[H])C([H])([H])C([H])([H])C([H])([H])C2([H])N([H])C(=O)C1([H])N(C(=O)C([H])(N([H])C(=O)C([H])(N([H])C([H])([H])[H])C([H])([H])[H])C(C([H])([H])[H])(C([H])([H])[H])C([H])([H])[H])C([H])([H])c2c([H])c(OC([H])([H])C([H])(C([H])([H])[H])C3([H])C([H])([H])N(C(=O)N4C([H])([H])C([H])([H])C([H])([H])C([H])(n5nc(-c6c([H])c([H])c(Oc7c([H])c([H])c(F)c([H])c7F)c([H])c6[H])c(C(=O)N([H])[H])c5N([H])[H])C4([H])[H])C([H])([H])C([H])(C([H])([H])[H])C3([H])[H])c([H])c([H])c2C1([H])[H]

>  <smiles>  (58) 
[H]c1c([H])c([H])c2c(c1[H])C([H])([H])C([H])([H])C([H])([H])C2([H])N([H])C(=O)C1([H])N(C(=O)C([H])(N([H])C(=O)C([H])(N([H])C([H])([H])[H])C([H])([H])[H])C(C([H])([H])[H])(C([H])([H])[H])C([H])([H])[H])C([H])([H])c2c([H])c(OC([H])([H])C([H])(C([H])([H])[H])C3([H])C([H])([H])N(C(=O)N4C([H])([H])C([H])([H])C([H])([H])C([H])(n5nc(-c6c([H])c([H])c(Oc7c([H])c([H])c(F)c([H])c7F)c([H])c6[H])c(C(=O)N([H])[H])c5N([H])[H])C4([H])[H])C([H])([H])C([H])(C([H])([H])[H])C3([H])[H])c([H])c([H])c2C1([H])[H]

$$$$
59:0:0
     RDKit          3D

 90 98  0  0  1  0  0  0  0  0999 V2000
  -29.1580  -20.8050   21.7920 C   0  0  0  0  0  2  0  0  0  0  0  0
  -27.6880  -21.1690   21.6010 C   0  0  0  0  0  2  0  0  0  0  0  0
  -29.8010  -21.0160   20.4220 C   0  0  0  0  0  3  0  0  0  0  0  0
  -28.9180  -22.6260   19.9820 C   0  0  0  0  0  3  0  0  0  0  0  0
  -27.6530  -22.5240   20.8710 C   0  0  0  0  0  3  0  0  0  0  0  0
  -26.3910  -22.7090   20.1290 N   0  0  0  0  0  4  0  0  0  0  0  0
  -26.2460  -21.9640   19.4710 H   0  0  0  0  0  0  0  0  0  0  0  0
  -26.3850  -23.5800   19.6310 H   0  0  0  0  0  0  0  0  0  0  0  0
  -25.6150  -22.7160   20.7670 H   0  0  0  0  0  0  0  0  0  0  0  0
  -31.0790  -19.3690   18.6950 C   0  0  0  0  0  1  0  0  0  0  0  0
  -30.0000  -19.2520   19.7770 C   0  0  0  0  0  3  0  0  0  0  0  0
  -30.1950  -17.5130   20.4830 C   0  0  0  0  0  2  0  0  0  0  0  0
  -30.8770  -15.8630   20.0810 C   0  0  0  0  0  0  0  0  0  0  0  0
  -30.9080  -13.3370   19.2990 C   0  0  0  0  0  2  0  0  0  0  0  0
  -30.0120  -13.0420   18.0640 C   0  0  0  0  0  2  0  0  0  0  0  0
  -28.5660  -12.7510   18.4950 C   0  0  0  0  0  2  0  0  0  0  0  0
  -28.0900  -13.7510   19.5760 C   0  0  0  0  0  3  0  0  0  0  0  0
  -29.1180  -13.9810   20.7050 C   0  0  0  0  0  2  0  0  0  0  0  0
  -30.3460  -14.5170   20.0860 N   0  0  0  0  0  0  0  0  0  0  0  0
  -32.0770  -15.8040   19.7570 O   0  0  0  0  0  0  0  0  0  0  0  0
  -25.7300  -14.3280   20.3260 C   0  0  0  0  0  0  0  0  0  0  0  0
  -24.6560  -13.5650   20.6900 C   0  0  0  0  0  0  0  0  0  0  0  0
  -25.1050  -12.2090   20.6620 C   0  0  0  0  0  0  0  0  0  0  0  0
  -26.7600  -13.4410   20.0840 N   0  0  0  0  0  0  0  0  0  0  0  0
  -26.3990  -12.1580   20.3550 N   0  0  0  0  0  0  0  0  0  0  0  0
  -24.3580  -10.9580   20.8500 C   0  0  0  0  0  0  0  0  0  0  0  0
  -24.7330  -10.0120   21.8310 C   0  0  0  0  0  3  0  0  0  0  0  0
  -23.9840   -8.8290   22.0090 C   0  0  0  0  0  3  0  0  0  0  0  0
  -22.8450   -8.5820   21.2050 C   0  0  0  0  0  0  0  0  0  0  0  0
  -22.4890   -9.5150   20.2160 C   0  0  0  0  0  3  0  0  0  0  0  0
  -23.2390  -10.6900   20.0370 C   0  0  0  0  0  3  0  0  0  0  0  0
  -22.0730   -7.4480   21.2870 O   0  0  0  0  0  0  0  0  0  0  0  0
  -21.9130   -6.7700   22.4690 C   0  0  0  0  0  0  0  0  0  0  0  0
  -21.3850   -7.3940   23.6200 C   0  0  0  0  0  3  0  0  0  0  0  0
  -21.1730   -6.6430   24.7930 C   0  0  0  0  0  3  0  0  0  0  0  0
  -21.4780   -5.2690   24.8160 C   0  0  0  0  0  0  0  0  0  0  0  0
  -21.9980   -4.6450   23.6690 C   0  0  0  0  0  3  0  0  0  0  0  0
  -22.2130   -5.3920   22.4980 C   0  0  0  0  0  0  0  0  0  0  0  0
  -22.6950   -4.7810   21.3890 F   0  0  0  0  0  0  0  0  0  0  0  0
  -21.2670   -4.5450   25.9400 F   0  0  0  0  0  0  0  0  0  0  0  0
  -23.2640  -14.0630   20.9500 C   0  0  0  0  0  0  0  0  0  0  0  0
  -22.5240  -13.3850   21.8190 N   0  0  0  0  0  0  0  0  0  0  0  0
  -22.8450  -15.0910   20.4180 O   0  0  0  0  0  0  0  0  0  0  0  0
  -22.8760  -12.5550   22.2730 H   0  0  0  0  0  0  0  0  0  0  0  0
  -21.5900  -13.7040   22.0360 H   0  0  0  0  0  0  0  0  0  0  0  0
  -25.9110  -15.6970   20.1510 N   0  0  0  0  0  0  0  0  0  0  0  0
  -25.1540  -16.3620   20.2650 H   0  0  0  0  0  0  0  0  0  0  0  0
  -26.7710  -16.1280   19.8340 H   0  0  0  0  0  0  0  0  0  0  0  0
  -29.1550  -24.4810   19.6720 C   0  0  0  0  0  2  0  0  0  0  0  0
  -28.8880  -26.0860   20.2200 O   0  0  0  0  0  0  0  0  0  0  0  0
  -24.8330  -31.8680   23.1410 C   0  0  0  0  0  0  0  0  0  0  0  0
  -27.8260  -27.1730   20.0750 C   0  0  0  0  0  0  0  0  0  0  0  0
  -23.8000  -30.4390   21.4250 C   0  0  0  0  0  3  0  0  0  0  0  0
  -25.4070  -28.9660   20.0030 C   0  0  0  0  0  0  0  0  0  0  0  0
  -26.3540  -30.8010   21.3840 C   0  0  0  0  0  2  0  0  0  0  0  0
  -26.5430  -29.4090   20.6880 C   0  0  0  0  0  0  0  0  0  0  0  0
  -27.7340  -28.5310   20.7050 C   0  0  0  0  0  3  0  0  0  0  0  0
  -26.6540  -26.9200   19.3210 C   0  0  0  0  0  3  0  0  0  0  0  0
  -25.4940  -27.7510   19.3000 C   0  0  0  0  0  3  0  0  0  0  0  0
  -24.1260  -29.8100   20.0400 C   0  0  0  0  0  2  0  0  0  0  0  0
  -25.0140  -31.0670   22.0380 N   0  0  0  0  0  0  0  0  0  0  0  0
  -23.7090  -32.0690   23.6280 O   0  0  0  0  0  0  0  0  0  0  0  0
  -23.1400  -29.3750   22.3430 C   0  0  0  0  0  0  0  0  0  0  0  0
  -21.8220  -29.1450   22.1910 N   0  0  0  0  0  0  0  0  0  0  0  0
  -23.8230  -28.7590   23.1640 O   0  0  0  0  0  0  0  0  0  0  0  0
  -21.3190  -29.7010   21.5150 H   0  0  0  0  0  0  0  0  0  0  0  0
  -18.4980  -27.7500   22.6370 C   0  0  0  0  0  0  0  0  0  0  0  0
  -21.0430  -28.1300   22.9120 C   0  0  0  0  0  3  0  0  0  0  0  0
  -21.2120  -26.7350   22.2630 C   0  0  0  0  0  2  0  0  0  0  0  0
  -20.1240  -26.4130   21.2330 C   0  0  0  0  0  2  0  0  0  0  0  0
  -18.7380  -26.4530   21.8830 C   0  0  0  0  0  2  0  0  0  0  0  0
  -19.5790  -28.5450   23.1040 C   0  0  0  0  0  0  0  0  0  0  0  0
  -19.2970  -29.7550   23.7730 C   0  0  0  0  0  3  0  0  0  0  0  0
  -17.9690  -30.1750   23.9750 C   0  0  0  0  0  3  0  0  0  0  0  0
  -16.9040  -29.3790   23.5190 C   0  0  0  0  0  3  0  0  0  0  0  0
  -17.1680  -28.1690   22.8570 C   0  0  0  0  0  3  0  0  0  0  0  0
  -26.0300  -32.5860   23.8370 C   0  0  0  0  0  3  0  0  0  0  0  0
  -26.5110  -31.8520   25.1510 C   0  0  1  0  0  0  0  0  0  0  0  0
  -25.3710  -31.5630   26.1580 C   0  0  0  0  0  1  0  0  0  0  0  0
  -27.1900  -30.5050   24.8170 C   0  0  0  0  0  1  0  0  0  0  0  0
  -27.5760  -32.7130   25.8700 C   0  0  0  0  0  1  0  0  0  0  0  0
  -25.6130  -33.9640   24.1580 N   0  0  0  0  0  0  0  0  0  0  0  0
  -25.8950  -35.0470   23.4200 C   0  0  0  0  0  0  0  0  0  0  0  0
  -26.5930  -34.9940   22.4050 O   0  0  0  0  0  0  0  0  0  0  0  0
  -24.9900  -34.0730   24.9450 H   0  0  0  0  0  0  0  0  0  0  0  0
  -24.0480  -36.7260   23.0710 C   0  0  0  0  0  1  0  0  0  0  0  0
  -25.3160  -36.4020   23.8790 C   0  0  0  0  0  3  0  0  0  0  0  0
  -27.3820  -37.4410   24.7080 C   0  0  0  0  0  1  0  0  0  0  0  0
  -26.2730  -37.5250   23.7620 N   0  0  0  0  0  0  0  0  0  0  0  0
  -25.8040  -38.4150   23.9020 H   0  0  0  0  0  0  0  0  0  0  0  0
  2  1  1  0
  3 11  1  0
  3  1  1  0
  4 49  1  0
  4  3  1  0
  4  5  1  0
  5  6  1  0
  5  2  1  0
  6  9  1  0
  7  6  1  0
  8  6  1  0
 11 10  1  0
 11 12  1  0
 13 19  1  0
 13 12  1  0
 14 19  1  0
 15 16  1  0
 15 14  1  0
 17 16  1  0
 17 24  1  0
 17 18  1  0
 19 18  1  0
 20 13  2  0
 21 22  2  0
 22 41  1  0
 23 22  1  0
 23 26  1  0
 24 21  1  0
 24 25  1  0
 25 23  2  0
 26 27  1  0
 27 28  2  0
 29 32  1  0
 29 28  1  0
 30 29  2  0
 31 30  1  0
 31 26  2  0
 32 33  1  0
 33 38  2  0
 33 34  1  0
 34 35  2  0
 35 36  1  0
 36 40  1  0
 37 36  2  0
 38 37  1  0
 39 38  1  0
 41 42  1  0
 42 45  1  0
 42 44  1  0
 43 41  2  0
 46 47  1  0
 46 21  1  0
 48 46  1  0
 49 50  1  0
 51 62  2  0
 52 50  1  0
 52 57  1  0
 53 61  1  0
 53 63  1  0
 54 60  1  0
 54 56  1  0
 55 61  1  0
 56 57  2  0
 56 55  1  0
 58 52  2  0
 59 58  1  0
 59 54  2  0
 60 53  1  0
 61 51  1  0
 63 65  2  0
 64 63  1  0
 66 64  1  0
 67 76  2  0
 67 72  1  0
 68 64  1  0
 68 72  1  0
 69 68  1  0
 70 71  1  0
 70 69  1  0
 71 67  1  0
 72 73  2  0
 73 74  1  0
 75 74  2  0
 76 75  1  0
 77 51  1  0
 77 82  1  0
 77 78  1  0
 78 81  1  1
 78 79  1  0
 80 78  1  0
 82 85  1  0
 83 87  1  0
 83 82  1  0
 84 83  2  0
 87 86  1  0
 89 87  1  0
 89 90  1  0
 89 88  1  0
M  ISO  4  12 100  13 100  49 101  50 101
M  END
>  <TORSDO>  (59) 
F 20

>  <SCORE>  (59) 
-14.226

>  <name>  (59) 
59

>  <ligand_id>  (59) 
59

>  <original_smiles>  (59) 
[H]c1c([H])c([H])c2c(c1[H])C([H])([H])C([H])([H])C([H])([H])C2([H])N([H])C(=O)C1([H])N(C(=O)C([H])(N([H])C(=O)C([H])(N([H])C([H])([H])[H])C([H])([H])[H])C(C([H])([H])[H])(C([H])([H])[H])C([H])([H])[H])C([H])([H])c2c([H])c(OC([H])([H])C3([H])C([H])(C([H])(C([H])([H])[H])C([H])([H])C(=O)N4C([H])([H])C([H])([H])C([H])([H])C([H])(n5nc(-c6c([H])c([H])c(Oc7c([H])c([H])c(F)c([H])c7F)c([H])c6[H])c(C(=O)N([H])[H])c5N([H])[H])C4([H])[H])C([H])([H])C([H])([H])C3([H])[N+]([H])([H])[H])c([H])c([H])c2C1([H])[H]

>  <smiles>  (59) 
[H]c1c([H])c([H])c2c(c1[H])C([H])([H])C([H])([H])C([H])([H])C2([H])N([H])C(=O)C1([H])N(C(=O)C([H])(N([H])C(=O)C([H])(N([H])C([H])([H])[H])C([H])([H])[H])C(C([H])([H])[H])(C([H])([H])[H])C([H])([H])[H])C([H])([H])c2c([H])c(OC([H])([H])C3([H])C([H])(C([H])(C([H])([H])[H])C([H])([H])C(=O)N4C([H])([H])C([H])([H])C([H])([H])C([H])(n5nc(-c6c([H])c([H])c(Oc7c([H])c([H])c(F)c([H])c7F)c([H])c6[H])c(C(=O)N([H])[H])c5N([H])[H])C4([H])[H])C([H])([H])C([H])([H])C3([H])[N+]([H])([H])[H])c([H])c([H])c2C1([H])[H]

$$$$
60:0:0
     RDKit          3D

 89 97  0  0  1  0  0  0  0  0999 V2000
  -28.8510  -20.3730   19.9580 C   0  0  0  0  0  0  0  0  0  0  0  0
  -30.8090  -19.4420   21.4430 C   0  0  0  0  0  2  0  0  0  0  0  0
  -30.4240  -20.7770   22.2400 C   0  0  0  0  0  2  0  0  0  0  0  0
  -29.6190  -18.8100   20.6520 C   0  0  0  0  0  3  0  0  0  0  0  0
  -28.8370  -22.1190   20.6820 C   0  0  0  0  0  3  0  0  0  0  0  0
  -30.1330  -22.0490   21.4520 N   0  0  0  0  0  4  0  0  0  0  0  0
  -28.2560  -20.2340   18.8860 O   0  0  0  0  0  0  0  0  0  0  0  0
  -30.9160  -22.2590   20.8520 H   0  0  0  0  0  0  0  0  0  0  0  0
  -30.1140  -22.7860   22.1430 H   0  0  0  0  0  0  0  0  0  0  0  0
  -30.3540  -15.6780   20.2120 C   0  0  0  0  0  0  0  0  0  0  0  0
  -30.4120  -13.1310   19.3810 C   0  0  0  0  0  2  0  0  0  0  0  0
  -29.5150  -12.7820   18.1570 C   0  0  0  0  0  2  0  0  0  0  0  0
  -28.0730  -12.4690   18.5960 C   0  0  0  0  0  2  0  0  0  0  0  0
  -27.5900  -13.4460   19.6920 C   0  0  0  0  0  3  0  0  0  0  0  0
  -28.6340  -13.7070   20.8040 C   0  0  0  0  0  2  0  0  0  0  0  0
  -29.8190  -14.3180   20.1530 N   0  0  0  0  0  0  0  0  0  0  0  0
  -31.5730  -15.6200   19.9660 O   0  0  0  0  0  0  0  0  0  0  0  0
  -29.6080  -17.0290   20.4240 N   0  0  0  0  0  0  0  0  0  0  0  0
  -28.6530  -16.7470   20.6030 H   0  0  0  0  0  0  0  0  0  0  0  0
  -25.2210  -13.9850   20.4490 C   0  0  0  0  0  0  0  0  0  0  0  0
  -24.1590  -13.2080   20.8230 C   0  0  0  0  0  0  0  0  0  0  0  0
  -24.6230  -11.8580   20.7900 C   0  0  0  0  0  0  0  0  0  0  0  0
  -26.2650  -13.1100   20.2080 N   0  0  0  0  0  0  0  0  0  0  0  0
  -25.9170  -11.8230   20.4750 N   0  0  0  0  0  0  0  0  0  0  0  0
  -23.8870  -10.5960   20.9830 C   0  0  0  0  0  0  0  0  0  0  0  0
  -24.3040   -9.6330   21.9270 C   0  0  0  0  0  3  0  0  0  0  0  0
  -23.5640   -8.4450   22.1130 C   0  0  0  0  0  3  0  0  0  0  0  0
  -22.3970   -8.2090   21.3510 C   0  0  0  0  0  0  0  0  0  0  0  0
  -21.9970   -9.1620   20.3980 C   0  0  0  0  0  3  0  0  0  0  0  0
  -22.7360  -10.3400   20.2090 C   0  0  0  0  0  3  0  0  0  0  0  0
  -21.6300   -7.0690   21.4440 O   0  0  0  0  0  0  0  0  0  0  0  0
  -21.5560   -6.3440   22.6060 C   0  0  0  0  0  0  0  0  0  0  0  0
  -21.0750   -6.9110   23.8070 C   0  0  0  0  0  3  0  0  0  0  0  0
  -20.9480   -6.1130   24.9610 C   0  0  0  0  0  3  0  0  0  0  0  0
  -21.2960   -4.7500   24.9160 C   0  0  0  0  0  0  0  0  0  0  0  0
  -21.7670   -4.1810   23.7210 C   0  0  0  0  0  3  0  0  0  0  0  0
  -21.8960   -4.9760   22.5680 C   0  0  0  0  0  0  0  0  0  0  0  0
  -22.3340   -4.4190   21.4120 F   0  0  0  0  0  0  0  0  0  0  0  0
  -21.1640   -3.9800   26.0220 F   0  0  0  0  0  0  0  0  0  0  0  0
  -22.7640  -13.6910   21.0880 C   0  0  0  0  0  0  0  0  0  0  0  0
  -22.0340  -13.0080   21.9610 N   0  0  0  0  0  0  0  0  0  0  0  0
  -22.3300  -14.7110   20.5560 O   0  0  0  0  0  0  0  0  0  0  0  0
  -22.3930  -12.1790   22.4080 H   0  0  0  0  0  0  0  0  0  0  0  0
  -21.0980  -13.3180   22.1760 H   0  0  0  0  0  0  0  0  0  0  0  0
  -25.3770  -15.3550   20.2570 N   0  0  0  0  0  0  0  0  0  0  0  0
  -24.5730  -15.9730   20.3110 H   0  0  0  0  0  0  0  0  0  0  0  0
  -26.1580  -15.7610   19.7550 H   0  0  0  0  0  0  0  0  0  0  0  0
  -28.3280  -23.8900   20.0370 C   0  0  0  0  0  2  0  0  0  0  0  0
  -28.2350  -25.6090   20.4400 O   0  0  0  0  0  0  0  0  0  0  0  0
  -24.6200  -31.8380   23.2120 C   0  0  0  0  0  0  0  0  0  0  0  0
  -27.2430  -26.7980   20.2720 C   0  0  0  0  0  0  0  0  0  0  0  0
  -23.4630  -30.4280   21.5580 C   0  0  0  0  0  3  0  0  0  0  0  0
  -24.9470  -28.7920   20.1610 C   0  0  0  0  0  0  0  0  0  0  0  0
  -26.0360  -30.6040   21.4620 C   0  0  0  0  0  2  0  0  0  0  0  0
  -26.1270  -29.1710   20.8110 C   0  0  0  0  0  0  0  0  0  0  0  0
  -27.2560  -28.2010   20.8350 C   0  0  0  0  0  3  0  0  0  0  0  0
  -26.0350  -26.6320   19.5410 C   0  0  0  0  0  3  0  0  0  0  0  0
  -24.9410  -27.5490   19.4990 C   0  0  0  0  0  3  0  0  0  0  0  0
  -23.7280  -29.7260   20.1920 C   0  0  0  0  0  2  0  0  0  0  0  0
  -24.7300  -30.9910   22.1300 N   0  0  0  0  0  0  0  0  0  0  0  0
  -23.5190  -32.1300   23.7100 O   0  0  0  0  0  0  0  0  0  0  0  0
  -22.7490  -29.4480   22.5260 C   0  0  0  0  0  0  0  0  0  0  0  0
  -21.4140  -29.3070   22.4020 N   0  0  0  0  0  0  0  0  0  0  0  0
  -23.3980  -28.8220   23.3640 O   0  0  0  0  0  0  0  0  0  0  0  0
  -20.9360  -29.8770   21.7170 H   0  0  0  0  0  0  0  0  0  0  0  0
  -18.0310  -28.0740   22.9140 C   0  0  0  0  0  0  0  0  0  0  0  0
  -20.5910  -28.3620   23.1670 C   0  0  0  0  0  3  0  0  0  0  0  0
  -20.7050  -26.9340   22.5830 C   0  0  0  0  0  2  0  0  0  0  0  0
  -19.6030  -26.6250   21.5650 C   0  0  0  0  0  2  0  0  0  0  0  0
  -18.2240  -26.7380   22.2140 C   0  0  0  0  0  2  0  0  0  0  0  0
  -19.1460  -28.8440   23.3420 C   0  0  0  0  0  0  0  0  0  0  0  0
  -18.9150  -30.1000   23.9470 C   0  0  0  0  0  3  0  0  0  0  0  0
  -17.6060  -30.5790   24.1310 C   0  0  0  0  0  3  0  0  0  0  0  0
  -16.5080  -29.8070   23.7160 C   0  0  0  0  0  3  0  0  0  0  0  0
  -16.7210  -28.5570   23.1140 C   0  0  0  0  0  3  0  0  0  0  0  0
  -25.8700  -32.4980   23.8730 C   0  0  0  0  0  3  0  0  0  0  0  0
  -25.5460  -33.9060   24.1820 N   0  0  0  0  0  0  0  0  0  0  0  0
  -25.8940  -34.9630   23.4330 C   0  0  0  0  0  0  0  0  0  0  0  0
  -26.5780  -34.8560   22.4130 O   0  0  0  0  0  0  0  0  0  0  0  0
  -24.9330  -34.0580   24.9680 H   0  0  0  0  0  0  0  0  0  0  0  0
  -24.1780  -36.7700   23.0610 C   0  0  0  0  0  1  0  0  0  0  0  0
  -25.4100  -36.3590   23.8850 C   0  0  0  0  0  3  0  0  0  0  0  0
  -27.5360  -37.2400   24.7380 C   0  0  0  0  0  1  0  0  0  0  0  0
  -26.4500  -37.4060   23.7760 N   0  0  0  0  0  0  0  0  0  0  0  0
  -26.0530  -38.3310   23.9080 H   0  0  0  0  0  0  0  0  0  0  0  0
  -26.3480  -31.7590   25.1840 C   0  0  1  0  0  0  0  0  0  0  0  0
  -25.2250  -31.5440   26.2260 C   0  0  0  0  0  1  0  0  0  0  0  0
  -26.9350  -30.3700   24.8550 C   0  0  0  0  0  1  0  0  0  0  0  0
  -27.4840  -32.5650   25.8550 C   0  0  0  0  0  1  0  0  0  0  0  0
  1  4  1  0
  1  5  1  0
  2  3  1  0
  4 18  1  0
  4  2  1  0
  5 48  1  0
  5  6  1  0
  6  9  1  0
  6  3  1  0
  7  1  2  0
  8  6  1  0
 10 18  1  0
 11 16  1  0
 12 13  1  0
 12 11  1  0
 14 13  1  0
 14 23  1  0
 14 15  1  0
 16 10  1  0
 16 15  1  0
 17 10  2  0
 18 19  1  0
 20 21  2  0
 21 40  1  0
 22 21  1  0
 22 25  1  0
 23 20  1  0
 23 24  1  0
 24 22  2  0
 25 26  1  0
 26 27  2  0
 28 31  1  0
 28 27  1  0
 29 28  2  0
 30 29  1  0
 30 25  2  0
 31 32  1  0
 32 33  1  0
 33 34  2  0
 35 34  1  0
 35 39  1  0
 36 35  2  0
 37 32  2  0
 37 36  1  0
 38 37  1  0
 40 41  1  0
 41 44  1  0
 41 43  1  0
 42 40  2  0
 45 46  1  0
 45 20  1  0
 47 45  1  0
 48 49  1  0
 50 61  2  0
 51 49  1  0
 51 56  1  0
 52 60  1  0
 52 62  1  0
 53 59  1  0
 53 55  1  0
 54 60  1  0
 55 56  2  0
 55 54  1  0
 57 51  2  0
 58 57  1  0
 58 53  2  0
 59 52  1  0
 60 50  1  0
 62 64  2  0
 63 62  1  0
 65 63  1  0
 66 75  2  0
 66 71  1  0
 67 63  1  0
 67 71  1  0
 68 67  1  0
 69 70  1  0
 69 68  1  0
 70 66  1  0
 71 72  2  0
 72 73  1  0
 74 73  2  0
 75 74  1  0
 76 50  1  0
 76 77  1  0
 76 86  1  0
 77 80  1  0
 78 82  1  0
 78 77  1  0
 79 78  2  0
 82 81  1  0
 84 82  1  0
 84 85  1  0
 84 83  1  0
 86 89  1  1
 86 87  1  0
 88 86  1  0
M  ISO  4  10 100  18 100  48 101  49 101
M  END
>  <TORSDO>  (60) 
F 17

>  <SCORE>  (60) 
-16.571

>  <name>  (60) 
60

>  <ligand_id>  (60) 
60

>  <original_smiles>  (60) 
[H]c1c([H])c([H])c2c(c1[H])C([H])([H])C([H])([H])C([H])([H])C2([H])N([H])C(=O)C1([H])N(C(=O)C([H])(N([H])C(=O)C([H])(N([H])C([H])([H])[H])C([H])([H])[H])C(C([H])([H])[H])(C([H])([H])[H])C([H])([H])[H])C([H])([H])c2c([H])c(OC([H])([H])C3([H])C(=O)C([H])(N([H])C(=O)N4C([H])([H])C([H])([H])C([H])([H])C([H])(n5nc(-c6c([H])c([H])c(Oc7c([H])c([H])c(F)c([H])c7F)c([H])c6[H])c(C(=O)N([H])[H])c5N([H])[H])C4([H])[H])C([H])([H])C([H])([H])[N+]3([H])[H])c([H])c([H])c2C1([H])[H]

>  <smiles>  (60) 
[H]c1c([H])c([H])c2c(c1[H])C([H])([H])C([H])([H])C([H])([H])C2([H])N([H])C(=O)C1([H])N(C(=O)C([H])(N([H])C(=O)C([H])(N([H])C([H])([H])[H])C([H])([H])[H])C(C([H])([H])[H])(C([H])([H])[H])C([H])([H])[H])C([H])([H])c2c([H])c(OC([H])([H])C3([H])C(=O)C([H])(N([H])C(=O)N4C([H])([H])C([H])([H])C([H])([H])C([H])(n5nc(-c6c([H])c([H])c(Oc7c([H])c([H])c(F)c([H])c7F)c([H])c6[H])c(C(=O)N([H])[H])c5N([H])[H])C4([H])[H])C([H])([H])C([H])([H])[N+]3([H])[H])c([H])c([H])c2C1([H])[H]

$$$$
61:0:0
     RDKit          3D

 85 93  0  0  1  0  0  0  0  0999 V2000
  -29.4980  -22.7000   21.7790 C   0  0  0  0  0  1  0  0  0  0  0  0
  -28.9520  -22.6170   20.3500 C   0  0  0  0  0  3  0  0  0  0  0  0
  -28.6240  -20.8300   20.0630 C   0  0  0  0  0  2  0  0  0  0  0  0
  -30.4680  -15.4420   20.1260 C   0  0  0  0  0  0  0  0  0  0  0  0
  -30.4530  -12.9660   19.2700 C   0  0  0  0  0  2  0  0  0  0  0  0
  -29.5260  -12.6890   18.0620 C   0  0  0  0  0  2  0  0  0  0  0  0
  -28.0970  -12.3820   18.5390 C   0  0  0  0  0  2  0  0  0  0  0  0
  -27.6390  -13.3620   19.6470 C   0  0  0  0  0  3  0  0  0  0  0  0
  -28.7000  -13.5890   20.7460 C   0  0  0  0  0  2  0  0  0  0  0  0
  -29.8900  -14.1300   20.0700 N   0  0  0  0  0  0  0  0  0  0  0  0
  -31.6810  -15.3900   19.8610 O   0  0  0  0  0  0  0  0  0  0  0  0
  -29.9370  -18.0600   19.1880 C   0  0  0  0  0  2  0  0  0  0  0  0
  -29.1070  -17.8190   21.0320 C   0  0  0  0  0  2  0  0  0  0  0  0
  -29.5340  -19.2330   20.2740 C   0  0  0  0  0  3  0  0  0  0  0  0
  -29.7650  -16.7820   20.0680 N   0  0  0  0  0  0  0  0  0  0  0  0
  -25.2900  -13.8880   20.4750 C   0  0  0  0  0  0  0  0  0  0  0  0
  -24.2420  -13.1000   20.8580 C   0  0  0  0  0  0  0  0  0  0  0  0
  -24.7170  -11.7530   20.7960 C   0  0  0  0  0  0  0  0  0  0  0  0
  -26.3310  -13.0240   20.1900 N   0  0  0  0  0  0  0  0  0  0  0  0
  -26.0010  -11.7310   20.4530 N   0  0  0  0  0  0  0  0  0  0  0  0
  -24.0000  -10.4830   20.9840 C   0  0  0  0  0  0  0  0  0  0  0  0
  -24.4320   -9.5210   21.9240 C   0  0  0  0  0  3  0  0  0  0  0  0
  -23.7100   -8.3210   22.1010 C   0  0  0  0  0  3  0  0  0  0  0  0
  -22.5440   -8.0730   21.3400 C   0  0  0  0  0  0  0  0  0  0  0  0
  -22.1330   -9.0230   20.3890 C   0  0  0  0  0  3  0  0  0  0  0  0
  -22.8540  -10.2150   20.2090 C   0  0  0  0  0  3  0  0  0  0  0  0
  -21.7970   -6.9240   21.4260 O   0  0  0  0  0  0  0  0  0  0  0  0
  -21.7120   -6.2060   22.5920 C   0  0  0  0  0  0  0  0  0  0  0  0
  -21.2330   -6.7820   23.7880 C   0  0  0  0  0  3  0  0  0  0  0  0
  -21.0950   -5.9900   24.9460 C   0  0  0  0  0  3  0  0  0  0  0  0
  -21.4260   -4.6230   24.9090 C   0  0  0  0  0  0  0  0  0  0  0  0
  -21.8980   -4.0460   23.7170 C   0  0  0  0  0  3  0  0  0  0  0  0
  -22.0370   -4.8340   22.5610 C   0  0  0  0  0  0  0  0  0  0  0  0
  -22.4720   -4.2680   21.4090 F   0  0  0  0  0  0  0  0  0  0  0  0
  -21.2890   -3.8600   26.0180 F   0  0  0  0  0  0  0  0  0  0  0  0
  -22.8490  -13.5660   21.1630 C   0  0  0  0  0  0  0  0  0  0  0  0
  -22.1420  -12.8580   22.0380 N   0  0  0  0  0  0  0  0  0  0  0  0
  -22.3970  -14.5940   20.6620 O   0  0  0  0  0  0  0  0  0  0  0  0
  -22.5200  -12.0270   22.4680 H   0  0  0  0  0  0  0  0  0  0  0  0
  -21.2090  -13.1550   22.2830 H   0  0  0  0  0  0  0  0  0  0  0  0
  -25.4370  -15.2620   20.3180 N   0  0  0  0  0  0  0  0  0  0  0  0
  -24.6680  -15.9050   20.4740 H   0  0  0  0  0  0  0  0  0  0  0  0
  -26.2770  -15.7230   19.9870 H   0  0  0  0  0  0  0  0  0  0  0  0
  -27.9710  -24.1630   20.1340 C   0  0  0  0  0  2  0  0  0  0  0  0
  -28.2100  -25.8140   20.3050 O   0  0  0  0  0  0  0  0  0  0  0  0
  -24.6850  -31.8710   23.2450 C   0  0  0  0  0  0  0  0  0  0  0  0
  -27.2140  -26.9410   20.2380 C   0  0  0  0  0  0  0  0  0  0  0  0
  -23.4890  -30.4780   21.6070 C   0  0  0  0  0  3  0  0  0  0  0  0
  -24.9320  -28.8620   20.1830 C   0  0  0  0  0  0  0  0  0  0  0  0
  -26.0570  -30.6680   21.4650 C   0  0  0  0  0  2  0  0  0  0  0  0
  -26.1230  -29.2530   20.8070 C   0  0  0  0  0  0  0  0  0  0  0  0
  -27.2580  -28.3150   20.8070 C   0  0  0  0  0  3  0  0  0  0  0  0
  -25.9930  -26.7110   19.5650 C   0  0  0  0  0  3  0  0  0  0  0  0
  -24.8950  -27.6130   19.5400 C   0  0  0  0  0  3  0  0  0  0  0  0
  -23.7190  -29.7930   20.2300 C   0  0  0  0  0  2  0  0  0  0  0  0
  -24.7660  -31.0330   22.1600 N   0  0  0  0  0  0  0  0  0  0  0  0
  -23.5950  -32.1680   23.7620 O   0  0  0  0  0  0  0  0  0  0  0  0
  -22.7860  -29.4890   22.5730 C   0  0  0  0  0  0  0  0  0  0  0  0
  -21.4550  -29.3300   22.4440 N   0  0  0  0  0  0  0  0  0  0  0  0
  -23.4450  -28.8650   23.4080 O   0  0  0  0  0  0  0  0  0  0  0  0
  -20.9780  -29.8840   21.7480 H   0  0  0  0  0  0  0  0  0  0  0  0
  -18.0690  -28.1210   22.9390 C   0  0  0  0  0  0  0  0  0  0  0  0
  -20.6260  -28.3930   23.2130 C   0  0  0  0  0  3  0  0  0  0  0  0
  -20.7330  -26.9590   22.6440 C   0  0  0  0  0  2  0  0  0  0  0  0
  -19.6370  -26.6310   21.6260 C   0  0  0  0  0  2  0  0  0  0  0  0
  -18.2520  -26.7720   22.2630 C   0  0  0  0  0  2  0  0  0  0  0  0
  -19.1830  -28.8890   23.3700 C   0  0  0  0  0  0  0  0  0  0  0  0
  -18.9550  -30.1480   23.9660 C   0  0  0  0  0  3  0  0  0  0  0  0
  -17.6460  -30.6410   24.1320 C   0  0  0  0  0  3  0  0  0  0  0  0
  -16.5470  -29.8720   23.7140 C   0  0  0  0  0  3  0  0  0  0  0  0
  -16.7580  -28.6130   23.1230 C   0  0  0  0  0  3  0  0  0  0  0  0
  -25.9560  -32.5110   23.8820 C   0  0  0  0  0  3  0  0  0  0  0  0
  -25.6420  -33.9130   24.2140 N   0  0  0  0  0  0  0  0  0  0  0  0
  -25.9610  -34.9710   23.4590 C   0  0  0  0  0  0  0  0  0  0  0  0
  -26.6100  -34.8710   22.4140 O   0  0  0  0  0  0  0  0  0  0  0  0
  -25.0590  -34.0630   25.0250 H   0  0  0  0  0  0  0  0  0  0  0  0
  -24.2130  -36.7640   23.1700 C   0  0  0  0  0  1  0  0  0  0  0  0
  -25.4870  -36.3630   23.9310 C   0  0  0  0  0  3  0  0  0  0  0  0
  -27.6470  -37.2650   24.6750 C   0  0  0  0  0  1  0  0  0  0  0  0
  -26.5110  -37.4210   23.7720 N   0  0  0  0  0  0  0  0  0  0  0  0
  -26.1050  -38.3400   23.9270 H   0  0  0  0  0  0  0  0  0  0  0  0
  -26.4490  -31.7490   25.1750 C   0  0  1  0  0  0  0  0  0  0  0  0
  -25.3410  -31.5310   26.2340 C   0  0  0  0  0  1  0  0  0  0  0  0
  -27.0260  -30.3640   24.8110 C   0  0  0  0  0  1  0  0  0  0  0  0
  -27.5980  -32.5410   25.8420 C   0  0  0  0  0  1  0  0  0  0  0  0
  2  1  1  0
  3  2  1  0
  5 10  1  0
  6  7  1  0
  6  5  1  0
  8  7  1  0
  8 19  1  0
  8  9  1  0
 10  4  1  0
 10  9  1  0
 11  4  2  0
 12 15  1  0
 12 14  1  0
 14  3  1  0
 14 13  1  0
 15  4  1  0
 15 13  1  0
 16 17  2  0
 17 36  1  0
 18 17  1  0
 18 21  1  0
 19 20  1  0
 19 16  1  0
 20 18  2  0
 21 22  1  0
 22 23  2  0
 24 27  1  0
 24 23  1  0
 25 24  2  0
 26 25  1  0
 26 21  2  0
 27 28  1  0
 28 29  1  0
 29 30  2  0
 31 30  1  0
 31 35  1  0
 32 31  2  0
 33 28  2  0
 33 32  1  0
 34 33  1  0
 36 37  1  0
 37 40  1  0
 37 39  1  0
 38 36  2  0
 41 42  1  0
 41 16  1  0
 43 41  1  0
 44 45  1  0
 44  2  1  0
 46 57  2  0
 47 45  1  0
 47 52  1  0
 48 56  1  0
 48 58  1  0
 49 55  1  0
 49 51  1  0
 50 56  1  0
 51 50  1  0
 52 51  2  0
 53 47  2  0
 54 53  1  0
 54 49  2  0
 55 48  1  0
 56 46  1  0
 58 60  2  0
 59 58  1  0
 61 59  1  0
 62 71  2  0
 62 67  1  0
 63 59  1  0
 63 67  1  0
 64 63  1  0
 65 66  1  0
 65 64  1  0
 66 62  1  0
 67 68  2  0
 68 69  1  0
 70 69  2  0
 71 70  1  0
 72 46  1  0
 72 73  1  0
 72 82  1  0
 73 76  1  0
 74 78  1  0
 74 73  1  0
 75 74  2  0
 78 77  1  0
 80 81  1  0
 80 78  1  0
 80 79  1  0
 82 85  1  1
 82 83  1  0
 84 82  1  0
M  ISO  4   4 100  15 100  44 101  45 101
M  END
>  <TORSDO>  (61) 
F 18

>  <SCORE>  (61) 
-16.415

>  <name>  (61) 
61

>  <ligand_id>  (61) 
61

>  <original_smiles>  (61) 
[H]c1c([H])c([H])c2c(c1[H])C([H])([H])C([H])([H])C([H])([H])C2([H])N([H])C(=O)C1([H])N(C(=O)C([H])(N([H])C(=O)C([H])(N([H])C([H])([H])[H])C([H])([H])[H])C(C([H])([H])[H])(C([H])([H])[H])C([H])([H])[H])C([H])([H])c2c([H])c(OC([H])([H])C([H])(C([H])([H])[H])C([H])([H])C3([H])C([H])([H])N(C(=O)N4C([H])([H])C([H])([H])C([H])([H])C([H])(n5nc(-c6c([H])c([H])c(Oc7c([H])c([H])c(F)c([H])c7F)c([H])c6[H])c(C(=O)N([H])[H])c5N([H])[H])C4([H])[H])C3([H])[H])c([H])c([H])c2C1([H])[H]

>  <smiles>  (61) 
[H]c1c([H])c([H])c2c(c1[H])C([H])([H])C([H])([H])C([H])([H])C2([H])N([H])C(=O)C1([H])N(C(=O)C([H])(N([H])C(=O)C([H])(N([H])C([H])([H])[H])C([H])([H])[H])C(C([H])([H])[H])(C([H])([H])[H])C([H])([H])[H])C([H])([H])c2c([H])c(OC([H])([H])C([H])(C([H])([H])[H])C([H])([H])C3([H])C([H])([H])N(C(=O)N4C([H])([H])C([H])([H])C([H])([H])C([H])(n5nc(-c6c([H])c([H])c(Oc7c([H])c([H])c(F)c([H])c7F)c([H])c6[H])c(C(=O)N([H])[H])c5N([H])[H])C4([H])[H])C3([H])[H])c([H])c([H])c2C1([H])[H]

$$$$
62:0:0
     RDKit          3D

 87 95  0  0  1  0  0  0  0  0999 V2000
  -29.5470  -23.1300   21.7970 C   0  0  0  0  0  1  0  0  0  0  0  0
  -28.8610  -23.0400   20.4300 C   0  0  0  0  0  3  0  0  0  0  0  0
  -28.3250  -21.3930   20.2310 C   0  0  0  0  0  2  0  0  0  0  0  0
  -29.6390  -17.4990   21.2800 C   0  0  0  0  0  3  0  0  0  0  0  0
  -29.6920  -17.6390   18.9670 C   0  0  0  0  0  3  0  0  0  0  0  0
  -29.2410  -18.9280   21.3420 C   0  0  0  0  0  3  0  0  0  0  0  0
  -29.2940  -19.0550   19.0320 C   0  0  0  0  0  3  0  0  0  0  0  0
  -29.8910  -16.7250   20.0750 C   0  0  0  0  0  0  0  0  0  0  0  0
  -29.0490  -19.8390   20.2210 C   0  0  0  0  0  0  0  0  0  0  0  0
  -30.5760  -15.2240   19.9200 C   0  0  0  0  0  0  0  0  0  0  0  0
  -30.4580  -12.8250   19.0220 C   0  0  0  0  0  2  0  0  0  0  0  0
  -29.4610  -12.6890   17.8460 C   0  0  0  0  0  2  0  0  0  0  0  0
  -28.0390  -12.4250   18.3720 C   0  0  0  0  0  2  0  0  0  0  0  0
  -27.6710  -13.3660   19.5480 C   0  0  0  0  0  3  0  0  0  0  0  0
  -28.7850  -13.4710   20.6070 C   0  0  0  0  0  2  0  0  0  0  0  0
  -29.9930  -13.9400   19.9220 N   0  0  0  0  0  0  0  0  0  0  0  0
  -31.7610  -15.2180   19.5610 O   0  0  0  0  0  0  0  0  0  0  0  0
  -25.3720  -13.8920   20.5160 C   0  0  0  0  0  0  0  0  0  0  0  0
  -24.3400  -13.0940   20.9300 C   0  0  0  0  0  0  0  0  0  0  0  0
  -24.7990  -11.7480   20.7950 C   0  0  0  0  0  0  0  0  0  0  0  0
  -26.3860  -13.0280   20.1410 N   0  0  0  0  0  0  0  0  0  0  0  0
  -26.0610  -11.7300   20.3780 N   0  0  0  0  0  0  0  0  0  0  0  0
  -24.0850  -10.4770   20.9790 C   0  0  0  0  0  0  0  0  0  0  0  0
  -24.5300   -9.5030   21.9020 C   0  0  0  0  0  3  0  0  0  0  0  0
  -23.8120   -8.3000   22.0750 C   0  0  0  0  0  3  0  0  0  0  0  0
  -22.6340   -8.0630   21.3260 C   0  0  0  0  0  0  0  0  0  0  0  0
  -22.2100   -9.0240   20.3910 C   0  0  0  0  0  3  0  0  0  0  0  0
  -22.9290  -10.2180   20.2170 C   0  0  0  0  0  3  0  0  0  0  0  0
  -21.8870   -6.9110   21.4080 O   0  0  0  0  0  0  0  0  0  0  0  0
  -21.7790   -6.2070   22.5790 C   0  0  0  0  0  0  0  0  0  0  0  0
  -21.2710   -6.7960   23.7580 C   0  0  0  0  0  3  0  0  0  0  0  0
  -21.1120   -6.0160   24.9210 C   0  0  0  0  0  3  0  0  0  0  0  0
  -21.4490   -4.6490   24.9060 C   0  0  0  0  0  0  0  0  0  0  0  0
  -21.9500   -4.0610   23.7310 C   0  0  0  0  0  3  0  0  0  0  0  0
  -22.1110   -4.8370   22.5710 C   0  0  0  0  0  0  0  0  0  0  0  0
  -22.5730   -4.2610   21.4340 F   0  0  0  0  0  0  0  0  0  0  0  0
  -21.2900   -3.8970   26.0200 F   0  0  0  0  0  0  0  0  0  0  0  0
  -22.9710  -13.5570   21.3320 C   0  0  0  0  0  0  0  0  0  0  0  0
  -22.3170  -12.8310   22.2310 N   0  0  0  0  0  0  0  0  0  0  0  0
  -22.4930  -14.5990   20.8850 O   0  0  0  0  0  0  0  0  0  0  0  0
  -22.7170  -11.9850   22.6140 H   0  0  0  0  0  0  0  0  0  0  0  0
  -21.4030  -13.1240   22.5430 H   0  0  0  0  0  0  0  0  0  0  0  0
  -25.5250  -15.2690   20.4010 N   0  0  0  0  0  0  0  0  0  0  0  0
  -24.7800  -15.9190   20.6320 H   0  0  0  0  0  0  0  0  0  0  0  0
  -26.3590  -15.7310   20.0600 H   0  0  0  0  0  0  0  0  0  0  0  0
  -27.8840  -24.4830   20.2650 C   0  0  0  0  0  2  0  0  0  0  0  0
  -28.2130  -26.0540   20.3240 O   0  0  0  0  0  0  0  0  0  0  0  0
  -24.6420  -31.8720   23.2840 C   0  0  0  0  0  0  0  0  0  0  0  0
  -27.1960  -27.1080   20.2430 C   0  0  0  0  0  0  0  0  0  0  0  0
  -23.4470  -30.5010   21.6230 C   0  0  0  0  0  3  0  0  0  0  0  0
  -24.8990  -28.9300   20.1880 C   0  0  0  0  0  0  0  0  0  0  0  0
  -26.0080  -30.7430   21.4760 C   0  0  0  0  0  2  0  0  0  0  0  0
  -26.0800  -29.3500   20.8100 C   0  0  0  0  0  0  0  0  0  0  0  0
  -27.2320  -28.4590   20.8100 C   0  0  0  0  0  3  0  0  0  0  0  0
  -25.9860  -26.8130   19.5760 C   0  0  0  0  0  3  0  0  0  0  0  0
  -24.8700  -27.6820   19.5510 C   0  0  0  0  0  3  0  0  0  0  0  0
  -23.6780  -29.8420   20.2370 C   0  0  0  0  0  2  0  0  0  0  0  0
  -24.7190  -31.0630   22.1810 N   0  0  0  0  0  0  0  0  0  0  0  0
  -23.5550  -32.1510   23.8120 O   0  0  0  0  0  0  0  0  0  0  0  0
  -22.7620  -29.4840   22.5700 C   0  0  0  0  0  0  0  0  0  0  0  0
  -21.4340  -29.3090   22.4340 N   0  0  0  0  0  0  0  0  0  0  0  0
  -23.4270  -28.8520   23.3940 O   0  0  0  0  0  0  0  0  0  0  0  0
  -20.9520  -29.8730   21.7490 H   0  0  0  0  0  0  0  0  0  0  0  0
  -18.0500  -28.1000   22.9140 C   0  0  0  0  0  0  0  0  0  0  0  0
  -20.6090  -28.3620   23.1890 C   0  0  0  0  0  3  0  0  0  0  0  0
  -20.7120  -26.9380   22.5950 C   0  0  0  0  0  2  0  0  0  0  0  0
  -19.6130  -26.6270   21.5740 C   0  0  0  0  0  2  0  0  0  0  0  0
  -18.2290  -26.7610   22.2160 C   0  0  0  0  0  2  0  0  0  0  0  0
  -19.1670  -28.8570   23.3560 C   0  0  0  0  0  0  0  0  0  0  0  0
  -18.9430  -30.1070   23.9740 C   0  0  0  0  0  3  0  0  0  0  0  0
  -17.6370  -30.6030   24.1450 C   0  0  0  0  0  3  0  0  0  0  0  0
  -16.5350  -29.8430   23.7200 C   0  0  0  0  0  3  0  0  0  0  0  0
  -16.7420  -28.5920   23.1110 C   0  0  0  0  0  3  0  0  0  0  0  0
  -25.9170  -32.5010   23.9260 C   0  0  0  0  0  3  0  0  0  0  0  0
  -26.3950  -31.7430   25.2280 C   0  0  1  0  0  0  0  0  0  0  0  0
  -25.2750  -31.5340   26.2750 C   0  0  0  0  0  1  0  0  0  0  0  0
  -26.9660  -30.3510   24.8730 C   0  0  0  0  0  1  0  0  0  0  0  0
  -27.5440  -32.5310   25.9010 C   0  0  0  0  0  1  0  0  0  0  0  0
  -25.6170  -33.9060   24.2430 N   0  0  0  0  0  0  0  0  0  0  0  0
  -25.9420  -34.9510   23.4690 C   0  0  0  0  0  0  0  0  0  0  0  0
  -26.5960  -34.8320   22.4290 O   0  0  0  0  0  0  0  0  0  0  0  0
  -25.0460  -34.0750   25.0590 H   0  0  0  0  0  0  0  0  0  0  0  0
  -24.2080  -36.7430   23.1430 C   0  0  0  0  0  1  0  0  0  0  0  0
  -25.4720  -36.3480   23.9220 C   0  0  0  0  0  3  0  0  0  0  0  0
  -27.6320  -37.2460   24.6740 C   0  0  0  0  0  1  0  0  0  0  0  0
  -26.5010  -37.3990   23.7600 N   0  0  0  0  0  0  0  0  0  0  0  0
  -26.0990  -38.3210   23.9050 H   0  0  0  0  0  0  0  0  0  0  0  0
  2  1  1  0
  3  2  1  0
  4  6  1  0
  5  7  2  0
  5  8  1  0
  7  9  1  0
  8  4  2  0
  9  3  1  0
  9  6  2  0
 10 16  1  0
 10  8  1  0
 11 16  1  0
 12 13  1  0
 12 11  1  0
 14 13  1  0
 14 21  1  0
 14 15  1  0
 16 15  1  0
 17 10  2  0
 18 19  2  0
 19 38  1  0
 20 19  1  0
 20 23  1  0
 21 22  1  0
 21 18  1  0
 22 20  2  0
 23 24  1  0
 24 25  2  0
 26 29  1  0
 26 25  1  0
 27 26  2  0
 28 27  1  0
 28 23  2  0
 29 30  1  0
 30 31  1  0
 31 32  2  0
 33 32  1  0
 33 37  1  0
 34 33  2  0
 35 30  2  0
 35 34  1  0
 36 35  1  0
 38 39  1  0
 39 42  1  0
 39 41  1  0
 40 38  2  0
 43 18  1  0
 43 44  1  0
 45 43  1  0
 46 47  1  0
 46  2  1  0
 48 59  2  0
 49 47  1  0
 49 54  1  0
 50 58  1  0
 50 60  1  0
 51 57  1  0
 51 53  1  0
 52 58  1  0
 53 52  1  0
 54 53  2  0
 55 49  2  0
 56 55  1  0
 56 51  2  0
 57 50  1  0
 58 48  1  0
 60 62  2  0
 61 60  1  0
 63 61  1  0
 64 73  2  0
 64 69  1  0
 65 61  1  0
 65 69  1  0
 66 65  1  0
 67 68  1  0
 67 66  1  0
 68 64  1  0
 69 70  2  0
 70 71  1  0
 72 71  2  0
 73 72  1  0
 74 48  1  0
 74 79  1  0
 74 75  1  0
 75 78  1  1
 75 76  1  0
 77 75  1  0
 79 82  1  0
 80 84  1  0
 80 79  1  0
 81 80  2  0
 84 83  1  0
 86 87  1  0
 86 84  1  0
 86 85  1  0
M  ISO  4   8 100  10 100  46 101  47 101
M  END
>  <TORSDO>  (62) 
F 19

>  <SCORE>  (62) 
-14.965

>  <name>  (62) 
62

>  <ligand_id>  (62) 
62

>  <original_smiles>  (62) 
[H]c1c([H])c([H])c2c(c1[H])C([H])([H])C([H])([H])C([H])([H])C2([H])N([H])C(=O)C1([H])N(C(=O)C([H])(N([H])C(=O)C([H])(N([H])C([H])([H])[H])C([H])([H])[H])C(C([H])([H])[H])(C([H])([H])[H])C([H])([H])[H])C([H])([H])c2c([H])c(OC([H])([H])C([H])(C([H])([H])[H])C([H])([H])c3c([H])c([H])c(C(=O)N4C([H])([H])C([H])([H])C([H])([H])C([H])(n5nc(-c6c([H])c([H])c(Oc7c([H])c([H])c(F)c([H])c7F)c([H])c6[H])c(C(=O)N([H])[H])c5N([H])[H])C4([H])[H])c([H])c3[H])c([H])c([H])c2C1([H])[H]

>  <smiles>  (62) 
[H]c1c([H])c([H])c2c(c1[H])C([H])([H])C([H])([H])C([H])([H])C2([H])N([H])C(=O)C1([H])N(C(=O)C([H])(N([H])C(=O)C([H])(N([H])C([H])([H])[H])C([H])([H])[H])C(C([H])([H])[H])(C([H])([H])[H])C([H])([H])[H])C([H])([H])c2c([H])c(OC([H])([H])C([H])(C([H])([H])[H])C([H])([H])c3c([H])c([H])c(C(=O)N4C([H])([H])C([H])([H])C([H])([H])C([H])(n5nc(-c6c([H])c([H])c(Oc7c([H])c([H])c(F)c([H])c7F)c([H])c6[H])c(C(=O)N([H])[H])c5N([H])[H])C4([H])[H])c([H])c3[H])c([H])c([H])c2C1([H])[H]

$$$$
63:0:0
     RDKit          3D

 90 98  0  0  1  0  0  0  0  0999 V2000
  -29.8240  -23.0100   19.1900 C   0  0  0  0  0  2  0  0  0  0  0  0
  -30.0070  -21.4410   19.1670 C   0  0  0  0  0  2  0  0  0  0  0  0
  -28.4790  -22.0040   20.8810 C   0  0  0  0  0  2  0  0  0  0  0  0
  -29.0030  -23.4700   20.4270 C   0  0  0  0  0  3  0  0  0  0  0  0
  -29.5030  -20.8070   20.4890 C   0  0  0  0  0  3  0  0  0  0  0  0
  -27.9690  -24.7640   20.2200 C   0  0  0  0  0  2  0  0  0  0  0  0
  -28.2700  -26.2750   20.2430 O   0  0  0  0  0  0  0  0  0  0  0  0
  -24.6110  -31.8890   23.2400 C   0  0  0  0  0  0  0  0  0  0  0  0
  -27.1970  -27.2290   20.1860 C   0  0  0  0  0  0  0  0  0  0  0  0
  -23.4080  -30.5060   21.5920 C   0  0  0  0  0  3  0  0  0  0  0  0
  -24.8560  -28.9430   20.1620 C   0  0  0  0  0  0  0  0  0  0  0  0
  -25.9600  -30.7810   21.4270 C   0  0  0  0  0  2  0  0  0  0  0  0
  -26.0360  -29.3970   20.7680 C   0  0  0  0  0  0  0  0  0  0  0  0
  -27.2080  -28.5560   20.7620 C   0  0  0  0  0  3  0  0  0  0  0  0
  -25.9900  -26.8670   19.5440 C   0  0  0  0  0  3  0  0  0  0  0  0
  -24.8440  -27.6880   19.5370 C   0  0  0  0  0  3  0  0  0  0  0  0
  -23.6270  -29.8350   20.2110 C   0  0  0  0  0  2  0  0  0  0  0  0
  -24.6790  -31.0780   22.1420 N   0  0  0  0  0  0  0  0  0  0  0  0
  -23.5250  -32.1730   23.7690 O   0  0  0  0  0  0  0  0  0  0  0  0
  -22.7290  -29.4930   22.5470 C   0  0  0  0  0  0  0  0  0  0  0  0
  -21.3990  -29.3280   22.4180 N   0  0  0  0  0  0  0  0  0  0  0  0
  -23.3980  -28.8600   23.3670 O   0  0  0  0  0  0  0  0  0  0  0  0
  -20.9160  -29.8900   21.7300 H   0  0  0  0  0  0  0  0  0  0  0  0
  -18.0120  -28.1460   22.9150 C   0  0  0  0  0  0  0  0  0  0  0  0
  -20.5730  -28.3910   23.1830 C   0  0  0  0  0  3  0  0  0  0  0  0
  -20.6660  -26.9620   22.6010 C   0  0  0  0  0  2  0  0  0  0  0  0
  -19.5610  -26.6520   21.5840 C   0  0  0  0  0  2  0  0  0  0  0  0
  -18.1800  -26.8010   22.2290 C   0  0  0  0  0  2  0  0  0  0  0  0
  -19.1360  -28.9000   23.3480 C   0  0  0  0  0  0  0  0  0  0  0  0
  -18.9230  -30.1590   23.9500 C   0  0  0  0  0  3  0  0  0  0  0  0
  -17.6210  -30.6650   24.1210 C   0  0  0  0  0  3  0  0  0  0  0  0
  -16.5120  -29.9100   23.7030 C   0  0  0  0  0  3  0  0  0  0  0  0
  -16.7090  -28.6510   23.1060 C   0  0  0  0  0  3  0  0  0  0  0  0
  -25.8910  -32.5170   23.8720 C   0  0  0  0  0  3  0  0  0  0  0  0
  -25.5830  -33.9130   24.2150 N   0  0  0  0  0  0  0  0  0  0  0  0
  -25.8930  -34.9720   23.4560 C   0  0  0  0  0  0  0  0  0  0  0  0
  -26.5380  -34.8770   22.4090 O   0  0  0  0  0  0  0  0  0  0  0  0
  -25.0070  -34.0610   25.0300 H   0  0  0  0  0  0  0  0  0  0  0  0
  -24.1390  -36.7540   23.1730 C   0  0  0  0  0  1  0  0  0  0  0  0
  -25.4160  -36.3570   23.9340 C   0  0  0  0  0  3  0  0  0  0  0  0
  -27.5730  -37.2590   24.6830 C   0  0  0  0  0  1  0  0  0  0  0  0
  -26.4350  -37.4180   23.7810 N   0  0  0  0  0  0  0  0  0  0  0  0
  -26.0290  -38.3350   23.9420 H   0  0  0  0  0  0  0  0  0  0  0  0
  -26.4010  -31.7350   25.1450 C   0  0  1  0  0  0  0  0  0  0  0  0
  -25.3020  -31.4940   26.2080 C   0  0  0  0  0  1  0  0  0  0  0  0
  -26.9800  -30.3560   24.7490 C   0  0  0  0  0  1  0  0  0  0  0  0
  -27.5520  -32.5200   25.8160 C   0  0  0  0  0  1  0  0  0  0  0  0
  -29.0710  -19.1840   20.5070 C   0  0  0  0  0  3  0  0  0  0  0  0
  -27.9820  -18.9990   19.5320 N   0  0  0  0  0  4  0  0  0  0  0  0
  -28.3410  -19.0070   18.5940 H   0  0  0  0  0  0  0  0  0  0  0  0
  -27.3070  -19.7380   19.6190 H   0  0  0  0  0  0  0  0  0  0  0  0
  -27.5020  -18.1320   19.6850 H   0  0  0  0  0  0  0  0  0  0  0  0
  -30.1050  -17.8690   20.4050 C   0  0  0  0  0  3  0  0  0  0  0  0
  -29.6360  -16.2940   20.7090 C   0  0  0  0  0  3  0  0  0  0  0  0
  -30.4930  -14.9250   20.3850 C   0  0  0  0  0  0  0  0  0  0  0  0
  -30.3750  -12.6080   19.3770 C   0  0  0  0  0  2  0  0  0  0  0  0
  -29.4340  -12.6400   18.1480 C   0  0  0  0  0  2  0  0  0  0  0  0
  -27.9640  -12.4420   18.5670 C   0  0  0  0  0  2  0  0  0  0  0  0
  -27.5740  -13.3240   19.7810 C   0  0  0  0  0  3  0  0  0  0  0  0
  -28.6310  -13.2640   20.9030 C   0  0  0  0  0  2  0  0  0  0  0  0
  -29.9220  -13.6590   20.3260 N   0  0  0  0  0  0  0  0  0  0  0  0
  -31.6780  -15.0320   20.0470 O   0  0  0  0  0  0  0  0  0  0  0  0
  -25.1870  -13.9070   20.5110 C   0  0  0  0  0  0  0  0  0  0  0  0
  -24.1220  -13.1310   20.8790 C   0  0  0  0  0  0  0  0  0  0  0  0
  -24.5880  -11.7810   20.8510 C   0  0  0  0  0  0  0  0  0  0  0  0
  -26.2310  -13.0290   20.2730 N   0  0  0  0  0  0  0  0  0  0  0  0
  -25.8800  -11.7460   20.5440 N   0  0  0  0  0  0  0  0  0  0  0  0
  -23.8610  -10.5180   21.0410 C   0  0  0  0  0  0  0  0  0  0  0  0
  -24.2900   -9.5530   21.9780 C   0  0  0  0  0  3  0  0  0  0  0  0
  -23.5650   -8.3560   22.1540 C   0  0  0  0  0  3  0  0  0  0  0  0
  -22.3960   -8.1150   21.3940 C   0  0  0  0  0  0  0  0  0  0  0  0
  -21.9860   -9.0700   20.4460 C   0  0  0  0  0  3  0  0  0  0  0  0
  -22.7130  -10.2590   20.2680 C   0  0  0  0  0  3  0  0  0  0  0  0
  -21.6420   -6.9700   21.4790 O   0  0  0  0  0  0  0  0  0  0  0  0
  -21.5850   -6.2310   22.6330 C   0  0  0  0  0  0  0  0  0  0  0  0
  -21.1400   -6.7850   23.8520 C   0  0  0  0  0  3  0  0  0  0  0  0
  -21.0310   -5.9720   24.9990 C   0  0  0  0  0  3  0  0  0  0  0  0
  -21.3580   -4.6040   24.9250 C   0  0  0  0  0  0  0  0  0  0  0  0
  -21.7960   -4.0490   23.7100 C   0  0  0  0  0  3  0  0  0  0  0  0
  -21.9070   -4.8590   22.5670 C   0  0  0  0  0  0  0  0  0  0  0  0
  -22.3100   -4.3130   21.3940 F   0  0  0  0  0  0  0  0  0  0  0  0
  -21.2460   -3.8200   26.0230 F   0  0  0  0  0  0  0  0  0  0  0  0
  -22.7230  -13.6080   21.1450 C   0  0  0  0  0  0  0  0  0  0  0  0
  -21.9940  -12.9150   22.0110 N   0  0  0  0  0  0  0  0  0  0  0  0
  -22.2870  -14.6310   20.6200 O   0  0  0  0  0  0  0  0  0  0  0  0
  -22.3610  -12.0860   22.4560 H   0  0  0  0  0  0  0  0  0  0  0  0
  -21.0540  -13.2140   22.2290 H   0  0  0  0  0  0  0  0  0  0  0  0
  -25.3520  -15.2770   20.3320 N   0  0  0  0  0  0  0  0  0  0  0  0
  -24.5820  -15.9310   20.4270 H   0  0  0  0  0  0  0  0  0  0  0  0
  -26.1940  -15.6950   19.9640 H   0  0  0  0  0  0  0  0  0  0  0  0
  1  4  1  0
  2  1  1  0
  2  5  1  0
  4  6  1  0
  4  3  1  0
  5 48  1  0
  5  3  1  0
  6  7  1  0
  8 19  2  0
  9  7  1  0
  9 14  1  0
 10 18  1  0
 10 20  1  0
 11 17  1  0
 11 13  1  0
 12 18  1  0
 13 12  1  0
 14 13  2  0
 15  9  2  0
 16 15  1  0
 16 11  2  0
 17 10  1  0
 18  8  1  0
 20 22  2  0
 21 20  1  0
 23 21  1  0
 24 33  2  0
 24 29  1  0
 25 21  1  0
 25 29  1  0
 26 25  1  0
 27 28  1  0
 27 26  1  0
 28 24  1  0
 29 30  2  0
 30 31  1  0
 32 31  2  0
 33 32  1  0
 34  8  1  0
 34 35  1  0
 34 44  1  0
 35 38  1  0
 36 40  1  0
 36 35  1  0
 37 36  2  0
 40 39  1  0
 42 40  1  0
 42 43  1  0
 42 41  1  0
 44 47  1  1
 44 45  1  0
 46 44  1  0
 48 53  1  0
 49 51  1  0
 49 52  1  0
 49 48  1  0
 50 49  1  0
 53 54  2  0
 55 54  1  0
 56 61  1  0
 57 58  1  0
 57 56  1  0
 59 58  1  0
 59 66  1  0
 59 60  1  0
 61 55  1  0
 61 60  1  0
 62 55  2  0
 63 64  2  0
 64 83  1  0
 65 64  1  0
 65 68  1  0
 66 63  1  0
 66 67  1  0
 67 65  2  0
 68 69  1  0
 69 70  2  0
 71 74  1  0
 71 70  1  0
 72 71  2  0
 73 72  1  0
 73 68  2  0
 74 75  1  0
 75 76  1  0
 76 77  2  0
 78 77  1  0
 78 82  1  0
 79 78  2  0
 80 75  2  0
 80 79  1  0
 81 80  1  0
 83 84  1  0
 84 87  1  0
 84 86  1  0
 85 83  2  0
 88 89  1  0
 88 63  1  0
 90 88  1  0
M  ISO  4   6 101   7 101  54 100  55 100
M  END
>  <TORSDO>  (63) 
F 21

>  <SCORE>  (63) 
-13.616

>  <name>  (63) 
63

>  <ligand_id>  (63) 
63

>  <original_smiles>  (63) 
[H]c1c([H])c([H])c2c(c1[H])C([H])([H])C([H])([H])C([H])([H])C2([H])N([H])C(=O)C1([H])N(C(=O)C([H])(N([H])C(=O)C([H])(N([H])C([H])([H])[H])C([H])([H])[H])C(C([H])([H])[H])(C([H])([H])[H])C([H])([H])[H])C([H])([H])c2c([H])c(OC([H])([H])C3([H])C([H])([H])C([H])([H])C([H])(C([H])(C([H])([H])C([H])([H])C(=O)N4C([H])([H])C([H])([H])C([H])([H])C([H])(n5nc(-c6c([H])c([H])c(Oc7c([H])c([H])c(F)c([H])c7F)c([H])c6[H])c(C(=O)N([H])[H])c5N([H])[H])C4([H])[H])[N+]([H])([H])[H])C3([H])[H])c([H])c([H])c2C1([H])[H]

>  <smiles>  (63) 
[H]c1c([H])c([H])c2c(c1[H])C([H])([H])C([H])([H])C([H])([H])C2([H])N([H])C(=O)C1([H])N(C(=O)C([H])(N([H])C(=O)C([H])(N([H])C([H])([H])[H])C([H])([H])[H])C(C([H])([H])[H])(C([H])([H])[H])C([H])([H])[H])C([H])([H])c2c([H])c(OC([H])([H])C3([H])C([H])([H])C([H])([H])C([H])(C([H])(C([H])([H])C([H])([H])C(=O)N4C([H])([H])C([H])([H])C([H])([H])C([H])(n5nc(-c6c([H])c([H])c(Oc7c([H])c([H])c(F)c([H])c7F)c([H])c6[H])c(C(=O)N([H])[H])c5N([H])[H])C4([H])[H])[N+]([H])([H])[H])C3([H])[H])c([H])c([H])c2C1([H])[H]

$$$$
64:0:0
     RDKit          3D

 91 99  0  0  1  0  0  0  0  0999 V2000
  -30.8380  -19.0180   19.7660 C   0  0  0  0  0  2  0  0  0  0  0  0
  -28.6580  -19.5140   20.3800 C   0  0  0  0  0  2  0  0  0  0  0  0
  -30.6740  -20.6210   19.9350 C   0  0  0  0  0  3  0  0  0  0  0  0
  -29.2680  -21.1160   20.4980 C   0  0  0  0  0  3  0  0  0  0  0  0
  -29.7720  -18.2170   20.5610 C   0  0  0  0  0  3  0  0  0  0  0  0
  -30.3820  -15.3090   20.2260 C   0  0  0  0  0  0  0  0  0  0  0  0
  -30.3520  -12.8820   19.2970 C   0  0  0  0  0  2  0  0  0  0  0  0
  -29.4110  -12.6930   18.0820 C   0  0  0  0  0  2  0  0  0  0  0  0
  -27.9690  -12.4160   18.5440 C   0  0  0  0  0  2  0  0  0  0  0  0
  -27.5350  -13.3580   19.6930 C   0  0  0  0  0  3  0  0  0  0  0  0
  -28.6030  -13.4890   20.7990 C   0  0  0  0  0  2  0  0  0  0  0  0
  -29.8170  -14.0060   20.1480 N   0  0  0  0  0  0  0  0  0  0  0  0
  -31.6050  -15.3180   20.0250 O   0  0  0  0  0  0  0  0  0  0  0  0
  -29.5980  -16.5650   20.3330 N   0  0  0  0  0  0  0  0  0  0  0  0
  -28.6200  -16.3180   20.3730 H   0  0  0  0  0  0  0  0  0  0  0  0
  -25.1710  -13.8980   20.4820 C   0  0  0  0  0  0  0  0  0  0  0  0
  -24.1200  -13.1120   20.8630 C   0  0  0  0  0  0  0  0  0  0  0  0
  -24.5980  -11.7650   20.8230 C   0  0  0  0  0  0  0  0  0  0  0  0
  -26.2160  -13.0310   20.2200 N   0  0  0  0  0  0  0  0  0  0  0  0
  -25.8850  -11.7430   20.4940 N   0  0  0  0  0  0  0  0  0  0  0  0
  -23.8820  -10.4970   21.0170 C   0  0  0  0  0  0  0  0  0  0  0  0
  -24.3260   -9.5310   21.9470 C   0  0  0  0  0  3  0  0  0  0  0  0
  -23.6070   -8.3300   22.1310 C   0  0  0  0  0  3  0  0  0  0  0  0
  -22.4300   -8.0870   21.3840 C   0  0  0  0  0  0  0  0  0  0  0  0
  -22.0050   -9.0400   20.4440 C   0  0  0  0  0  3  0  0  0  0  0  0
  -22.7250  -10.2320   20.2570 C   0  0  0  0  0  3  0  0  0  0  0  0
  -21.6830   -6.9370   21.4770 O   0  0  0  0  0  0  0  0  0  0  0  0
  -21.6430   -6.1960   22.6310 C   0  0  0  0  0  0  0  0  0  0  0  0
  -21.2150   -6.7470   23.8580 C   0  0  0  0  0  3  0  0  0  0  0  0
  -21.1230   -5.9320   25.0040 C   0  0  0  0  0  3  0  0  0  0  0  0
  -21.4510   -4.5650   24.9230 C   0  0  0  0  0  0  0  0  0  0  0  0
  -21.8730   -4.0130   23.7010 C   0  0  0  0  0  3  0  0  0  0  0  0
  -21.9660   -4.8260   22.5580 C   0  0  0  0  0  0  0  0  0  0  0  0
  -22.3540   -4.2840   21.3780 F   0  0  0  0  0  0  0  0  0  0  0  0
  -21.3570   -3.7790   26.0210 F   0  0  0  0  0  0  0  0  0  0  0  0
  -22.7220  -13.5780   21.1470 C   0  0  0  0  0  0  0  0  0  0  0  0
  -22.0050  -12.8730   22.0150 N   0  0  0  0  0  0  0  0  0  0  0  0
  -22.2750  -14.6030   20.6340 O   0  0  0  0  0  0  0  0  0  0  0  0
  -22.3790  -12.0440   22.4520 H   0  0  0  0  0  0  0  0  0  0  0  0
  -21.0680  -13.1690   22.2470 H   0  0  0  0  0  0  0  0  0  0  0  0
  -25.3170  -15.2710   20.3050 N   0  0  0  0  0  0  0  0  0  0  0  0
  -24.5400  -15.9110   20.4260 H   0  0  0  0  0  0  0  0  0  0  0  0
  -26.1390  -15.7170   19.9190 H   0  0  0  0  0  0  0  0  0  0  0  0
  -31.8330  -21.1810   20.7760 C   0  0  0  0  0  0  0  0  0  0  0  0
  -32.6640  -22.0390   20.1950 N   0  0  0  0  0  0  0  0  0  0  0  0
  -31.9910  -20.8340   21.9440 O   0  0  0  0  0  0  0  0  0  0  0  0
  -32.5300  -22.3090   19.2300 H   0  0  0  0  0  0  0  0  0  0  0  0
  -33.4430  -22.4250   20.7100 H   0  0  0  0  0  0  0  0  0  0  0  0
  -28.7780  -22.7710   19.9220 C   0  0  0  0  0  2  0  0  0  0  0  0
  -28.1380  -24.3150   20.6020 C   0  0  0  0  0  2  0  0  0  0  0  0
  -28.2760  -25.9270   20.2670 O   0  0  0  0  0  0  0  0  0  0  0  0
  -24.6270  -31.8700   23.2220 C   0  0  0  0  0  0  0  0  0  0  0  0
  -27.2320  -26.9910   20.2690 C   0  0  0  0  0  0  0  0  0  0  0  0
  -23.4540  -30.4570   21.5840 C   0  0  0  0  0  3  0  0  0  0  0  0
  -24.9190  -28.8470   20.1910 C   0  0  0  0  0  0  0  0  0  0  0  0
  -26.0190  -30.6850   21.4530 C   0  0  0  0  0  2  0  0  0  0  0  0
  -26.1020  -29.2700   20.8110 C   0  0  0  0  0  0  0  0  0  0  0  0
  -27.2560  -28.3650   20.8180 C   0  0  0  0  0  3  0  0  0  0  0  0
  -26.0160  -26.7110   19.6100 C   0  0  0  0  0  3  0  0  0  0  0  0
  -24.9010  -27.5880   19.5690 C   0  0  0  0  0  3  0  0  0  0  0  0
  -23.6970  -29.7620   20.2170 C   0  0  0  0  0  2  0  0  0  0  0  0
  -24.7210  -31.0310   22.1410 N   0  0  0  0  0  0  0  0  0  0  0  0
  -23.5330  -32.1580   23.7330 O   0  0  0  0  0  0  0  0  0  0  0  0
  -22.7570  -29.4650   22.5520 C   0  0  0  0  0  0  0  0  0  0  0  0
  -21.4270  -29.2990   22.4240 N   0  0  0  0  0  0  0  0  0  0  0  0
  -23.4210  -28.8420   23.3860 O   0  0  0  0  0  0  0  0  0  0  0  0
  -20.9440  -29.8520   21.7300 H   0  0  0  0  0  0  0  0  0  0  0  0
  -18.0420  -28.0990   22.9370 C   0  0  0  0  0  0  0  0  0  0  0  0
  -20.6020  -28.3640   23.1970 C   0  0  0  0  0  3  0  0  0  0  0  0
  -20.7030  -26.9300   22.6230 C   0  0  0  0  0  2  0  0  0  0  0  0
  -19.5990  -26.6070   21.6100 C   0  0  0  0  0  2  0  0  0  0  0  0
  -18.2190  -26.7510   22.2560 C   0  0  0  0  0  2  0  0  0  0  0  0
  -19.1610  -28.8630   23.3640 C   0  0  0  0  0  0  0  0  0  0  0  0
  -18.9400  -30.1220   23.9630 C   0  0  0  0  0  3  0  0  0  0  0  0
  -17.6340  -30.6170   24.1370 C   0  0  0  0  0  3  0  0  0  0  0  0
  -16.5310  -29.8520   23.7230 C   0  0  0  0  0  3  0  0  0  0  0  0
  -16.7350  -28.5930   23.1290 C   0  0  0  0  0  3  0  0  0  0  0  0
  -25.8900  -32.5240   23.8610 C   0  0  0  0  0  3  0  0  0  0  0  0
  -26.3820  -31.7780   25.1620 C   0  0  1  0  0  0  0  0  0  0  0  0
  -25.2700  -31.5600   26.2150 C   0  0  0  0  0  1  0  0  0  0  0  0
  -26.9730  -30.3930   24.8140 C   0  0  0  0  0  1  0  0  0  0  0  0
  -27.5210  -32.5850   25.8300 C   0  0  0  0  0  1  0  0  0  0  0  0
  -25.5650  -33.9260   24.1740 N   0  0  0  0  0  0  0  0  0  0  0  0
  -25.9060  -34.9810   23.4220 C   0  0  0  0  0  0  0  0  0  0  0  0
  -26.5890  -34.8760   22.4000 O   0  0  0  0  0  0  0  0  0  0  0  0
  -24.9580  -34.0810   24.9660 H   0  0  0  0  0  0  0  0  0  0  0  0
  -24.1850  -36.7810   23.0450 C   0  0  0  0  0  1  0  0  0  0  0  0
  -25.4150  -36.3730   23.8720 C   0  0  0  0  0  3  0  0  0  0  0  0
  -27.5370  -37.2640   24.7300 C   0  0  0  0  0  1  0  0  0  0  0  0
  -26.4490  -37.4260   23.7690 N   0  0  0  0  0  0  0  0  0  0  0  0
  -26.0410  -38.3470   23.9050 H   0  0  0  0  0  0  0  0  0  0  0  0
  1  3  1  0
  1  5  1  0
  2  4  1  0
  2  5  1  0
  3  4  1  0
  3 44  1  0
  4 49  1  0
  5 14  1  0
  6 14  1  0
  7 12  1  0
  8  9  1  0
  8  7  1  0
 10  9  1  0
 10 19  1  0
 10 11  1  0
 12  6  1  0
 12 11  1  0
 13  6  2  0
 14 15  1  0
 16 17  2  0
 17 36  1  0
 18 17  1  0
 18 21  1  0
 19 16  1  0
 19 20  1  0
 20 18  2  0
 21 22  1  0
 22 23  2  0
 24 27  1  0
 24 23  1  0
 25 24  2  0
 26 25  1  0
 26 21  2  0
 27 28  1  0
 28 29  1  0
 29 30  2  0
 31 30  1  0
 31 35  1  0
 32 31  2  0
 33 28  2  0
 33 32  1  0
 34 33  1  0
 36 37  1  0
 37 40  1  0
 37 39  1  0
 38 36  2  0
 41 42  1  0
 41 16  1  0
 43 41  1  0
 44 46  2  0
 45 48  1  0
 45 44  1  0
 47 45  1  0
 49 50  1  0
 51 53  1  0
 51 50  1  0
 52 63  2  0
 53 58  1  0
 54 62  1  0
 54 64  1  0
 55 61  1  0
 55 57  1  0
 56 62  1  0
 57 58  2  0
 57 56  1  0
 59 53  2  0
 60 59  1  0
 60 55  2  0
 61 54  1  0
 62 52  1  0
 64 66  2  0
 65 64  1  0
 67 65  1  0
 68 77  2  0
 68 73  1  0
 69 65  1  0
 69 73  1  0
 70 69  1  0
 71 72  1  0
 71 70  1  0
 72 68  1  0
 73 74  2  0
 74 75  1  0
 76 75  2  0
 77 76  1  0
 78 52  1  0
 78 83  1  0
 78 79  1  0
 79 82  1  1
 79 80  1  0
 81 79  1  0
 83 86  1  0
 84 88  1  0
 84 83  1  0
 85 84  2  0
 88 87  1  0
 90 88  1  0
 90 91  1  0
 90 89  1  0
M  ISO  4   6 100  14 100  50 101  51 101
M  END
>  <TORSDO>  (64) 
F 19

>  <SCORE>  (64) 
-16.419

>  <name>  (64) 
64

>  <ligand_id>  (64) 
64

>  <original_smiles>  (64) 
[H]c1c([H])c([H])c2c(c1[H])C([H])([H])C([H])([H])C([H])([H])C2([H])N([H])C(=O)C1([H])N(C(=O)C([H])(N([H])C(=O)C([H])(N([H])C([H])([H])[H])C([H])([H])[H])C(C([H])([H])[H])(C([H])([H])[H])C([H])([H])[H])C([H])([H])c2c([H])c(OC([H])([H])C([H])([H])C3([H])C([H])([H])C([H])(N([H])C(=O)N4C([H])([H])C([H])([H])C([H])([H])C([H])(n5nc(-c6c([H])c([H])c(Oc7c([H])c([H])c(F)c([H])c7F)c([H])c6[H])c(C(=O)N([H])[H])c5N([H])[H])C4([H])[H])C([H])([H])C3([H])C(=O)N([H])[H])c([H])c([H])c2C1([H])[H]

>  <smiles>  (64) 
[H]c1c([H])c([H])c2c(c1[H])C([H])([H])C([H])([H])C([H])([H])C2([H])N([H])C(=O)C1([H])N(C(=O)C([H])(N([H])C(=O)C([H])(N([H])C([H])([H])[H])C([H])([H])[H])C(C([H])([H])[H])(C([H])([H])[H])C([H])([H])[H])C([H])([H])c2c([H])c(OC([H])([H])C([H])([H])C3([H])C([H])([H])C([H])(N([H])C(=O)N4C([H])([H])C([H])([H])C([H])([H])C([H])(n5nc(-c6c([H])c([H])c(Oc7c([H])c([H])c(F)c([H])c7F)c([H])c6[H])c(C(=O)N([H])[H])c5N([H])[H])C4([H])[H])C([H])([H])C3([H])C(=O)N([H])[H])c([H])c([H])c2C1([H])[H]

$$$$
65:0:0
     RDKit          3D

 90 98  0  0  1  0  0  0  0  0999 V2000
  -27.5060  -20.9150   19.6180 C   0  0  0  0  0  2  0  0  0  0  0  0
  -28.7080  -21.1900   20.1510 C   0  0  0  0  0  0  0  0  0  0  0  0
  -30.5670  -15.3470   20.3700 C   0  0  0  0  0  0  0  0  0  0  0  0
  -30.4450  -12.9440   19.4240 C   0  0  0  0  0  2  0  0  0  0  0  0
  -29.5230  -12.6850   18.2120 C   0  0  0  0  0  2  0  0  0  0  0  0
  -28.0800  -12.4160   18.6640 C   0  0  0  0  0  2  0  0  0  0  0  0
  -27.6300  -13.3840   19.7820 C   0  0  0  0  0  3  0  0  0  0  0  0
  -28.6880  -13.5910   20.8830 C   0  0  0  0  0  2  0  0  0  0  0  0
  -29.8840  -14.1120   20.1970 N   0  0  0  0  0  0  0  0  0  0  0  0
  -31.7930  -15.1510   20.3350 O   0  0  0  0  0  0  0  0  0  0  0  0
  -30.7120  -18.6890   18.3500 C   0  0  0  0  0  2  0  0  0  0  0  0
  -30.9080  -17.2240   18.8400 C   0  0  0  0  0  2  0  0  0  0  0  0
  -29.2840  -18.0410   20.5620 C   0  0  0  0  0  2  0  0  0  0  0  0
  -29.6990  -19.7770   20.3960 C   0  0  0  0  0  3  0  0  0  0  0  0
  -30.8990  -19.7940   19.4150 C   0  0  0  0  0  3  0  0  0  0  0  0
  -30.1000  -16.7220   19.9900 N   0  0  0  0  0  0  0  0  0  0  0  0
  -25.2730  -13.9210   20.5740 C   0  0  0  0  0  0  0  0  0  0  0  0
  -24.2150  -13.1380   20.9330 C   0  0  0  0  0  0  0  0  0  0  0  0
  -24.6820  -11.7890   20.8780 C   0  0  0  0  0  0  0  0  0  0  0  0
  -26.3150  -13.0540   20.3090 N   0  0  0  0  0  0  0  0  0  0  0  0
  -25.9730  -11.7620   20.5590 N   0  0  0  0  0  0  0  0  0  0  0  0
  -23.9560  -10.5240   21.0550 C   0  0  0  0  0  0  0  0  0  0  0  0
  -24.3800   -9.5540   21.9900 C   0  0  0  0  0  3  0  0  0  0  0  0
  -23.6540   -8.3540   22.1550 C   0  0  0  0  0  3  0  0  0  0  0  0
  -22.4910   -8.1160   21.3830 C   0  0  0  0  0  0  0  0  0  0  0  0
  -22.0880   -9.0740   20.4370 C   0  0  0  0  0  3  0  0  0  0  0  0
  -22.8130  -10.2660   20.2720 C   0  0  0  0  0  3  0  0  0  0  0  0
  -21.7370   -6.9690   21.4570 O   0  0  0  0  0  0  0  0  0  0  0  0
  -21.6460   -6.2400   22.6140 C   0  0  0  0  0  0  0  0  0  0  0  0
  -21.1290   -6.7950   23.8050 C   0  0  0  0  0  3  0  0  0  0  0  0
  -20.9900   -5.9910   24.9530 C   0  0  0  0  0  3  0  0  0  0  0  0
  -21.3590   -4.6320   24.9120 C   0  0  0  0  0  0  0  0  0  0  0  0
  -21.8690   -4.0760   23.7240 C   0  0  0  0  0  3  0  0  0  0  0  0
  -22.0100   -4.8790   22.5790 C   0  0  0  0  0  0  0  0  0  0  0  0
  -22.4810   -4.3340   21.4300 F   0  0  0  0  0  0  0  0  0  0  0  0
  -21.2180   -3.8560   26.0110 F   0  0  0  0  0  0  0  0  0  0  0  0
  -22.8180  -13.6060   21.2220 C   0  0  0  0  0  0  0  0  0  0  0  0
  -22.1010  -12.8920   22.0800 N   0  0  0  0  0  0  0  0  0  0  0  0
  -22.3770  -14.6420   20.7240 O   0  0  0  0  0  0  0  0  0  0  0  0
  -22.4720  -12.0510   22.4950 H   0  0  0  0  0  0  0  0  0  0  0  0
  -21.1690  -13.1900   22.3320 H   0  0  0  0  0  0  0  0  0  0  0  0
  -25.4390  -15.2960   20.4190 N   0  0  0  0  0  0  0  0  0  0  0  0
  -24.6810  -15.9570   20.5430 H   0  0  0  0  0  0  0  0  0  0  0  0
  -26.2940  -15.7310   20.1030 H   0  0  0  0  0  0  0  0  0  0  0  0
  -33.5030  -19.8090   19.1970 C   0  0  0  0  0  1  0  0  0  0  0  0
  -32.2750  -19.6960   20.1300 C   0  0  0  0  0  2  0  0  0  0  0  0
  -30.4820  -23.1650   20.1480 C   0  0  0  0  0  1  0  0  0  0  0  0
  -29.0100  -22.8760   20.4710 C   0  0  0  0  0  3  0  0  0  0  0  0
  -28.0880  -24.3590   20.0240 C   0  0  0  0  0  2  0  0  0  0  0  0
  -28.2420  -25.9690   20.3340 O   0  0  0  0  0  0  0  0  0  0  0  0
  -24.6170  -31.8880   23.2440 C   0  0  0  0  0  0  0  0  0  0  0  0
  -27.2180  -27.0450   20.2320 C   0  0  0  0  0  0  0  0  0  0  0  0
  -23.4330  -30.4880   21.6060 C   0  0  0  0  0  3  0  0  0  0  0  0
  -24.8970  -28.8940   20.1790 C   0  0  0  0  0  0  0  0  0  0  0  0
  -25.9990  -30.7180   21.4610 C   0  0  0  0  0  2  0  0  0  0  0  0
  -26.0770  -29.3130   20.7980 C   0  0  0  0  0  0  0  0  0  0  0  0
  -27.2350  -28.4120   20.7960 C   0  0  0  0  0  3  0  0  0  0  0  0
  -26.0080  -26.7760   19.5530 C   0  0  0  0  0  3  0  0  0  0  0  0
  -24.8860  -27.6480   19.5280 C   0  0  0  0  0  3  0  0  0  0  0  0
  -23.6650  -29.8040   20.2300 C   0  0  0  0  0  2  0  0  0  0  0  0
  -24.7030  -31.0580   22.1560 N   0  0  0  0  0  0  0  0  0  0  0  0
  -23.5260  -32.1730   23.7650 O   0  0  0  0  0  0  0  0  0  0  0  0
  -22.7380  -29.4880   22.5670 C   0  0  0  0  0  0  0  0  0  0  0  0
  -21.4090  -29.3160   22.4380 N   0  0  0  0  0  0  0  0  0  0  0  0
  -23.4020  -28.8660   23.3990 O   0  0  0  0  0  0  0  0  0  0  0  0
  -20.9250  -29.8810   21.7550 H   0  0  0  0  0  0  0  0  0  0  0  0
  -18.0250  -28.0930   22.9260 C   0  0  0  0  0  0  0  0  0  0  0  0
  -20.5830  -28.3710   23.2030 C   0  0  0  0  0  3  0  0  0  0  0  0
  -20.6890  -26.9360   22.6340 C   0  0  0  0  0  2  0  0  0  0  0  0
  -19.5950  -26.6100   21.6120 C   0  0  0  0  0  2  0  0  0  0  0  0
  -18.2120  -26.7460   22.2500 C   0  0  0  0  0  2  0  0  0  0  0  0
  -19.1380  -28.8640   23.3580 C   0  0  0  0  0  0  0  0  0  0  0  0
  -18.9070  -30.1230   23.9520 C   0  0  0  0  0  3  0  0  0  0  0  0
  -17.5980  -30.6140   24.1170 C   0  0  0  0  0  3  0  0  0  0  0  0
  -16.5010  -29.8400   23.7000 C   0  0  0  0  0  3  0  0  0  0  0  0
  -16.7150  -28.5810   23.1120 C   0  0  0  0  0  3  0  0  0  0  0  0
  -25.8850  -32.5360   23.8770 C   0  0  0  0  0  3  0  0  0  0  0  0
  -26.3670  -31.7980   25.1900 C   0  0  1  0  0  0  0  0  0  0  0  0
  -25.2490  -31.5910   26.2420 C   0  0  0  0  0  1  0  0  0  0  0  0
  -26.9530  -30.4070   24.8530 C   0  0  0  0  0  1  0  0  0  0  0  0
  -27.5050  -32.6050   25.8570 C   0  0  0  0  0  1  0  0  0  0  0  0
  -25.5680  -33.9440   24.1830 N   0  0  0  0  0  0  0  0  0  0  0  0
  -25.9080  -34.9910   23.4190 C   0  0  0  0  0  0  0  0  0  0  0  0
  -26.5810  -34.8740   22.3930 O   0  0  0  0  0  0  0  0  0  0  0  0
  -24.9600  -34.1050   24.9720 H   0  0  0  0  0  0  0  0  0  0  0  0
  -24.1850  -36.7950   23.0580 C   0  0  0  0  0  1  0  0  0  0  0  0
  -25.4270  -36.3890   23.8660 C   0  0  0  0  0  3  0  0  0  0  0  0
  -27.5610  -37.2820   24.6860 C   0  0  0  0  0  1  0  0  0  0  0  0
  -26.4640  -37.4370   23.7360 N   0  0  0  0  0  0  0  0  0  0  0  0
  -26.0600  -38.3600   23.8710 H   0  0  0  0  0  0  0  0  0  0  0  0
  1  2  2  0
  2 48  1  0
  4  9  1  0
  5  6  1  0
  5  4  1  0
  7  6  1  0
  7 20  1  0
  7  8  1  0
  9  3  1  0
  9  8  1  0
 10  3  2  0
 11 12  1  0
 11 15  1  0
 12 16  1  0
 14  2  1  0
 14 13  1  0
 15 46  1  0
 15 14  1  0
 16  3  1  0
 16 13  1  0
 17 18  2  0
 18 37  1  0
 19 18  1  0
 19 22  1  0
 20 21  1  0
 20 17  1  0
 21 19  2  0
 22 23  1  0
 23 24  2  0
 25 28  1  0
 25 24  1  0
 26 25  2  0
 27 26  1  0
 27 22  2  0
 28 29  1  0
 29 30  1  0
 30 31  2  0
 32 31  1  0
 32 36  1  0
 33 32  2  0
 34 29  2  0
 34 33  1  0
 35 34  1  0
 37 38  1  0
 38 41  1  0
 38 40  1  0
 39 37  2  0
 42 43  1  0
 42 17  1  0
 44 42  1  0
 45 46  1  0
 48 47  1  0
 49 50  1  0
 49 48  1  0
 51 62  2  0
 52 50  1  0
 52 57  1  0
 53 61  1  0
 53 63  1  0
 54 60  1  0
 54 56  1  0
 55 61  1  0
 56 55  1  0
 57 56  2  0
 58 52  2  0
 59 58  1  0
 59 54  2  0
 60 53  1  0
 61 51  1  0
 63 65  2  0
 64 63  1  0
 66 64  1  0
 67 76  2  0
 67 72  1  0
 68 64  1  0
 68 72  1  0
 69 68  1  0
 70 71  1  0
 70 69  1  0
 71 67  1  0
 72 73  2  0
 73 74  1  0
 75 74  2  0
 76 75  1  0
 77 51  1  0
 77 82  1  0
 77 78  1  0
 78 81  1  1
 78 79  1  0
 80 78  1  0
 82 85  1  0
 83 87  1  0
 83 82  1  0
 84 83  2  0
 87 86  1  0
 89 87  1  0
 89 90  1  0
 89 88  1  0
M  ISO  4   3 100  16 100  49 101  50 101
M  END
>  <TORSDO>  (65) 
F 19

>  <SCORE>  (65) 
-15.752

>  <name>  (65) 
65

>  <ligand_id>  (65) 
65

>  <original_smiles>  (65) 
[H]C([H])=C(C([H])(C([H])([H])[H])C([H])([H])Oc1c([H])c([H])c2c(c1[H])C([H])([H])N(C(=O)C([H])(N([H])C(=O)C([H])(N([H])C([H])([H])[H])C([H])([H])[H])C(C([H])([H])[H])(C([H])([H])[H])C([H])([H])[H])C([H])(C(=O)N([H])C1([H])c3c([H])c([H])c([H])c([H])c3C([H])([H])C([H])([H])C1([H])[H])C2([H])[H])C1([H])C([H])([H])N(C(=O)N2C([H])([H])C([H])([H])C([H])([H])C([H])(n3nc(-c4c([H])c([H])c(Oc5c([H])c([H])c(F)c([H])c5F)c([H])c4[H])c(C(=O)N([H])[H])c3N([H])[H])C2([H])[H])C([H])([H])C([H])([H])C1([H])C([H])([H])C([H])([H])[H]

>  <smiles>  (65) 
[H]C([H])=C(C([H])(C([H])([H])[H])C([H])([H])Oc1c([H])c([H])c2c(c1[H])C([H])([H])N(C(=O)C([H])(N([H])C(=O)C([H])(N([H])C([H])([H])[H])C([H])([H])[H])C(C([H])([H])[H])(C([H])([H])[H])C([H])([H])[H])C([H])(C(=O)N([H])C1([H])c3c([H])c([H])c([H])c([H])c3C([H])([H])C([H])([H])C1([H])[H])C2([H])[H])C1([H])C([H])([H])N(C(=O)N2C([H])([H])C([H])([H])C([H])([H])C([H])(n3nc(-c4c([H])c([H])c(Oc5c([H])c([H])c(F)c([H])c5F)c([H])c4[H])c(C(=O)N([H])[H])c3N([H])[H])C2([H])[H])C([H])([H])C([H])([H])C1([H])C([H])([H])C([H])([H])[H]

$$$$
66:0:0
     RDKit          3D

 92100  0  0  1  0  0  0  0  0999 V2000
  -29.7050  -20.5440   19.3750 C   0  0  0  0  0  0  0  0  0  0  0  0
  -29.2710  -21.7610   19.9970 N   0  0  0  0  0  0  0  0  0  0  0  0
  -30.0180  -20.6130   18.1850 O   0  0  0  0  0  0  0  0  0  0  0  0
  -29.0060  -21.6360   20.9640 H   0  0  0  0  0  0  0  0  0  0  0  0
  -30.2140  -17.7840   19.3540 C   0  0  0  0  0  3  0  0  0  0  0  0
  -30.0170  -17.6560   22.0720 C   0  0  0  0  0  3  0  0  0  0  0  0
  -30.4480  -16.4280   19.9660 C   0  0  0  0  0  0  0  0  0  0  0  0
  -29.8680  -19.0740   20.0540 C   0  0  0  0  0  0  0  0  0  0  0  0
  -30.4200  -16.4820   21.3910 C   0  0  0  0  0  0  0  0  0  0  0  0
  -29.7340  -18.9010   21.4610 C   0  0  0  0  0  0  0  0  0  0  0  0
  -29.3330  -20.0290   22.4020 C   0  0  0  0  0  1  0  0  0  0  0  0
  -30.9160  -15.0590   19.2260 C   0  0  0  0  0  0  0  0  0  0  0  0
  -30.5040  -12.7730   18.1660 C   0  0  0  0  0  2  0  0  0  0  0  0
  -29.3890  -12.8470   17.0940 C   0  0  0  0  0  2  0  0  0  0  0  0
  -28.0040  -12.6490   17.7370 C   0  0  0  0  0  2  0  0  0  0  0  0
  -27.8340  -13.5050   19.0160 C   0  0  0  0  0  3  0  0  0  0  0  0
  -29.0490  -13.4120   19.9550 C   0  0  0  0  0  2  0  0  0  0  0  0
  -30.2440  -13.8240   19.2030 N   0  0  0  0  0  0  0  0  0  0  0  0
  -31.9760  -15.0980   18.5910 O   0  0  0  0  0  0  0  0  0  0  0  0
  -25.6620  -14.1140   20.2210 C   0  0  0  0  0  0  0  0  0  0  0  0
  -24.6320  -13.3560   20.7090 C   0  0  0  0  0  0  0  0  0  0  0  0
  -25.0040  -11.9950   20.4830 C   0  0  0  0  0  0  0  0  0  0  0  0
  -26.5880  -13.2180   19.7190 N   0  0  0  0  0  0  0  0  0  0  0  0
  -26.2150  -11.9300   19.9420 N   0  0  0  0  0  0  0  0  0  0  0  0
  -24.2450  -10.7550   20.6960 C   0  0  0  0  0  0  0  0  0  0  0  0
  -24.6920   -9.7590   21.5920 C   0  0  0  0  0  3  0  0  0  0  0  0
  -23.9340   -8.5850   21.7910 C   0  0  0  0  0  3  0  0  0  0  0  0
  -22.7160   -8.3980   21.0970 C   0  0  0  0  0  0  0  0  0  0  0  0
  -22.2880   -9.3830   20.1890 C   0  0  0  0  0  3  0  0  0  0  0  0
  -23.0460  -10.5480   19.9860 C   0  0  0  0  0  3  0  0  0  0  0  0
  -21.9270   -7.2790   21.2080 O   0  0  0  0  0  0  0  0  0  0  0  0
  -21.7820   -6.6150   22.4010 C   0  0  0  0  0  0  0  0  0  0  0  0
  -21.2900   -7.2590   23.5570 C   0  0  0  0  0  3  0  0  0  0  0  0
  -21.0910   -6.5230   24.7420 C   0  0  0  0  0  3  0  0  0  0  0  0
  -21.3740   -5.1440   24.7720 C   0  0  0  0  0  0  0  0  0  0  0  0
  -21.8590   -4.5010   23.6190 C   0  0  0  0  0  3  0  0  0  0  0  0
  -22.0600   -5.2340   22.4360 C   0  0  0  0  0  0  0  0  0  0  0  0
  -22.5060   -4.6040   21.3230 F   0  0  0  0  0  0  0  0  0  0  0  0
  -21.1770   -4.4350   25.9070 F   0  0  0  0  0  0  0  0  0  0  0  0
  -23.3350  -13.8690   21.2610 C   0  0  0  0  0  0  0  0  0  0  0  0
  -22.7430  -13.1490   22.2060 N   0  0  0  0  0  0  0  0  0  0  0  0
  -22.8620  -14.9430   20.8890 O   0  0  0  0  0  0  0  0  0  0  0  0
  -23.1440  -12.2790   22.5270 H   0  0  0  0  0  0  0  0  0  0  0  0
  -21.8780  -13.4700   22.6170 H   0  0  0  0  0  0  0  0  0  0  0  0
  -25.8780  -15.4860   20.1400 N   0  0  0  0  0  0  0  0  0  0  0  0
  -25.1980  -16.1640   20.4650 H   0  0  0  0  0  0  0  0  0  0  0  0
  -26.7080  -15.9150   19.7500 H   0  0  0  0  0  0  0  0  0  0  0  0
  -32.2240  -15.7190   23.0150 C   0  0  0  0  0  1  0  0  0  0  0  0
  -30.9230  -15.3480   22.2910 C   0  0  0  0  0  2  0  0  0  0  0  0
  -29.2530  -23.2860   19.5190 C   0  0  0  0  0  3  0  0  0  0  0  0
  -28.3270  -24.5710   20.1590 C   0  0  0  0  0  3  0  0  0  0  0  0
  -28.5380  -26.1280   20.0160 O   0  0  0  0  0  0  0  0  0  0  0  0
  -24.6980  -31.7360   22.9810 C   0  0  0  0  0  0  0  0  0  0  0  0
  -27.4510  -27.0860   19.9810 C   0  0  0  0  0  0  0  0  0  0  0  0
  -23.5660  -30.3190   21.3130 C   0  0  0  0  0  3  0  0  0  0  0  0
  -25.0810  -28.7880   19.9080 C   0  0  0  0  0  0  0  0  0  0  0  0
  -26.1150  -30.6480   21.1970 C   0  0  0  0  0  2  0  0  0  0  0  0
  -26.2380  -29.2580   20.5410 C   0  0  0  0  0  0  0  0  0  0  0  0
  -27.4260  -28.4260   20.5540 C   0  0  0  0  0  3  0  0  0  0  0  0
  -26.2650  -26.7250   19.3060 C   0  0  0  0  0  3  0  0  0  0  0  0
  -25.1090  -27.5360   19.2750 C   0  0  0  0  0  3  0  0  0  0  0  0
  -23.8300  -29.6540   19.9350 C   0  0  0  0  0  2  0  0  0  0  0  0
  -24.8120  -30.9240   21.8860 N   0  0  0  0  0  0  0  0  0  0  0  0
  -23.5940  -31.9900   23.4900 O   0  0  0  0  0  0  0  0  0  0  0  0
  -22.8960  -29.2890   22.2570 C   0  0  0  0  0  0  0  0  0  0  0  0
  -21.5630  -29.1380   22.1580 N   0  0  0  0  0  0  0  0  0  0  0  0
  -23.5790  -28.6280   23.0440 O   0  0  0  0  0  0  0  0  0  0  0  0
  -21.0680  -29.7220   21.4990 H   0  0  0  0  0  0  0  0  0  0  0  0
  -18.1730  -28.0120   22.7610 C   0  0  0  0  0  0  0  0  0  0  0  0
  -20.7490  -28.1860   22.9170 C   0  0  0  0  0  3  0  0  0  0  0  0
  -20.7780  -26.7840   22.2640 C   0  0  0  0  0  2  0  0  0  0  0  0
  -19.6210  -26.5490   21.2890 C   0  0  0  0  0  2  0  0  0  0  0  0
  -18.2760  -26.6980   22.0060 C   0  0  0  0  0  2  0  0  0  0  0  0
  -19.3350  -28.7180   23.1750 C   0  0  0  0  0  0  0  0  0  0  0  0
  -19.1820  -29.9510   23.8470 C   0  0  0  0  0  3  0  0  0  0  0  0
  -17.9020  -30.4760   24.1060 C   0  0  0  0  0  3  0  0  0  0  0  0
  -16.7570  -29.7680   23.7050 C   0  0  0  0  0  3  0  0  0  0  0  0
  -16.8930  -28.5370   23.0390 C   0  0  0  0  0  3  0  0  0  0  0  0
  -25.9450  -32.4040   23.6350 C   0  0  0  0  0  3  0  0  0  0  0  0
  -26.5060  -31.5930   24.8680 C   0  0  1  0  0  0  0  0  0  0  0  0
  -25.4300  -31.2300   25.9180 C   0  0  0  0  0  1  0  0  0  0  0  0
  -27.1700  -30.2760   24.4040 C   0  0  0  0  0  1  0  0  0  0  0  0
  -27.6080  -32.4150   25.5770 C   0  0  0  0  0  1  0  0  0  0  0  0
  -25.5620  -33.7640   24.0500 N   0  0  0  0  0  0  0  0  0  0  0  0
  -25.8290  -34.8780   23.3570 C   0  0  0  0  0  0  0  0  0  0  0  0
  -26.4910  -34.8730   22.3150 O   0  0  0  0  0  0  0  0  0  0  0  0
  -24.9700  -33.8360   24.8640 H   0  0  0  0  0  0  0  0  0  0  0  0
  -23.9870  -36.5810   23.1560 C   0  0  0  0  0  1  0  0  0  0  0  0
  -25.2780  -36.2110   23.9040 C   0  0  0  0  0  3  0  0  0  0  0  0
  -27.3860  -37.1790   24.7100 C   0  0  0  0  0  1  0  0  0  0  0  0
  -26.2420  -37.3290   23.8140 N   0  0  0  0  0  0  0  0  0  0  0  0
  -25.7890  -38.2140   24.0250 H   0  0  0  0  0  0  0  0  0  0  0  0
  1  2  1  0
  1  8  1  0
  2  4  1  0
  3  1  2  0
  5  7  2  0
  5  8  1  0
  7  9  1  0
  8 10  2  0
  9  6  2  0
  9 49  1  0
 10  6  1  0
 10 11  1  0
 12  7  1  0
 13 18  1  0
 14 15  1  0
 14 13  1  0
 16 15  1  0
 16 23  1  0
 16 17  1  0
 18 12  1  0
 18 17  1  0
 19 12  2  0
 20 21  2  0
 21 40  1  0
 22 25  1  0
 22 21  1  0
 23 24  1  0
 23 20  1  0
 24 22  2  0
 25 26  1  0
 26 27  2  0
 28 31  1  0
 28 27  1  0
 29 28  2  0
 30 29  1  0
 30 25  2  0
 31 32  1  0
 32 37  2  0
 32 33  1  0
 33 34  2  0
 34 35  1  0
 35 39  1  0
 36 35  2  0
 37 36  1  0
 38 37  1  0
 40 41  1  0
 41 43  1  0
 41 44  1  0
 42 40  2  0
 45 20  1  0
 45 46  1  0
 47 45  1  0
 49 48  1  0
 50  2  1  0
 50 51  2  0
 52 51  1  0
 53 64  2  0
 54 52  1  0
 54 59  1  0
 55 63  1  0
 55 65  1  0
 56 62  1  0
 56 58  1  0
 57 63  1  0
 58 59  2  0
 58 57  1  0
 60 54  2  0
 61 60  1  0
 61 56  2  0
 62 55  1  0
 63 53  1  0
 65 67  2  0
 66 65  1  0
 68 66  1  0
 69 78  2  0
 69 74  1  0
 70 66  1  0
 70 74  1  0
 71 70  1  0
 72 73  1  0
 72 71  1  0
 73 69  1  0
 74 75  2  0
 75 76  1  0
 77 76  2  0
 78 77  1  0
 79 53  1  0
 79 84  1  0
 79 80  1  0
 80 83  1  1
 80 81  1  0
 82 80  1  0
 84 87  1  0
 85 89  1  0
 85 84  1  0
 86 85  2  0
 89 88  1  0
 91 89  1  0
 91 92  1  0
 91 90  1  0
M  ISO  4   7 100  12 100  51 101  52 101
M  END
>  <TORSDO>  (66) 
F 20

>  <SCORE>  (66) 
-6.581

>  <name>  (66) 
66

>  <ligand_id>  (66) 
66

>  <original_smiles>  (66) 
[H]c1c([H])c([H])c2c(c1[H])C([H])([H])C([H])([H])C([H])([H])C2([H])N([H])C(=O)C1([H])N(C(=O)C([H])(N([H])C(=O)C([H])(N([H])C([H])([H])[H])C([H])([H])[H])C(C([H])([H])[H])(C([H])([H])[H])C([H])([H])[H])C([H])([H])c2c([H])c(OC([H])([H])C([H])([H])N([H])C(=O)c3c([H])c(C(=O)N4C([H])([H])C([H])([H])C([H])([H])C([H])(n5nc(-c6c([H])c([H])c(Oc7c([H])c([H])c(F)c([H])c7F)c([H])c6[H])c(C(=O)N([H])[H])c5N([H])[H])C4([H])[H])c(C([H])([H])C([H])([H])[H])c([H])c3C([H])([H])[H])c([H])c([H])c2C1([H])[H]

>  <smiles>  (66) 
[H]c1c([H])c([H])c2c(c1[H])C([H])([H])C([H])([H])C([H])([H])C2([H])N([H])C(=O)C1([H])N(C(=O)C([H])(N([H])C(=O)C([H])(N([H])C([H])([H])[H])C([H])([H])[H])C(C([H])([H])[H])(C([H])([H])[H])C([H])([H])[H])C([H])([H])c2c([H])c(OC([H])([H])C([H])([H])N([H])C(=O)c3c([H])c(C(=O)N4C([H])([H])C([H])([H])C([H])([H])C([H])(n5nc(-c6c([H])c([H])c(Oc7c([H])c([H])c(F)c([H])c7F)c([H])c6[H])c(C(=O)N([H])[H])c5N([H])[H])C4([H])[H])c(C([H])([H])C([H])([H])[H])c([H])c3C([H])([H])[H])c([H])c([H])c2C1([H])[H]

$$$$
67:0:0
     RDKit          3D

 90 98  0  0  1  0  0  0  0  0999 V2000
  -31.0560  -19.3540   19.6240 C   0  0  0  0  0  2  0  0  0  0  0  0
  -30.4540  -20.7700   19.4510 C   0  0  0  0  0  2  0  0  0  0  0  0
  -29.2340  -19.6640   21.1410 C   0  0  0  0  0  2  0  0  0  0  0  0
  -29.9710  -18.5000   20.3130 C   0  0  0  0  0  3  0  0  0  0  0  0
  -29.6810  -21.0470   20.6800 N   0  0  2  0  0  4  0  0  0  0  0  0
  -30.3510  -21.3350   21.3780 H   0  0  0  0  0  0  0  0  0  0  0  0
  -30.5430  -17.1920   22.5240 C   0  0  0  0  0  1  0  0  0  0  0  0
  -30.5720  -17.1470   20.9880 C   0  0  0  0  0  3  0  0  0  0  0  0
  -30.7640  -14.6740   20.1230 C   0  0  0  0  0  0  0  0  0  0  0  0
  -30.4470  -12.4660   18.9980 C   0  0  0  0  0  2  0  0  0  0  0  0
  -29.4550  -12.5990   17.8240 C   0  0  0  0  0  2  0  0  0  0  0  0
  -28.0030  -12.4500   18.3180 C   0  0  0  0  0  2  0  0  0  0  0  0
  -27.7040  -13.3080   19.5750 C   0  0  0  0  0  3  0  0  0  0  0  0
  -28.8070  -13.1480   20.6440 C   0  0  0  0  0  2  0  0  0  0  0  0
  -30.0870  -13.4860   20.0070 N   0  0  0  0  0  0  0  0  0  0  0  0
  -31.9240  -14.7750   19.7200 O   0  0  0  0  0  0  0  0  0  0  0  0
  -30.0600  -15.7800   20.5540 N   0  0  0  0  0  0  0  0  0  0  0  0
  -29.0880  -15.5990   20.7590 H   0  0  0  0  0  0  0  0  0  0  0  0
  -25.3540  -13.9250   20.4010 C   0  0  0  0  0  0  0  0  0  0  0  0
  -24.2910  -13.1640   20.8070 C   0  0  0  0  0  0  0  0  0  0  0  0
  -24.7330  -11.8070   20.7480 C   0  0  0  0  0  0  0  0  0  0  0  0
  -26.3740  -13.0330   20.1150 N   0  0  0  0  0  0  0  0  0  0  0  0
  -26.0100  -11.7540   20.3850 N   0  0  0  0  0  0  0  0  0  0  0  0
  -23.9970  -10.5540   20.9590 C   0  0  0  0  0  0  0  0  0  0  0  0
  -24.4430   -9.5820   21.8810 C   0  0  0  0  0  3  0  0  0  0  0  0
  -23.7080   -8.3930   22.0790 C   0  0  0  0  0  3  0  0  0  0  0  0
  -22.5120   -8.1690   21.3550 C   0  0  0  0  0  0  0  0  0  0  0  0
  -22.0850   -9.1320   20.4230 C   0  0  0  0  0  3  0  0  0  0  0  0
  -22.8200  -10.3110   20.2230 C   0  0  0  0  0  3  0  0  0  0  0  0
  -21.7450   -7.0340   21.4640 O   0  0  0  0  0  0  0  0  0  0  0  0
  -21.7070   -6.2990   22.6230 C   0  0  0  0  0  0  0  0  0  0  0  0
  -21.2790   -6.8600   23.8450 C   0  0  0  0  0  3  0  0  0  0  0  0
  -21.1840   -6.0530   24.9950 C   0  0  0  0  0  3  0  0  0  0  0  0
  -21.5100   -4.6850   24.9270 C   0  0  0  0  0  0  0  0  0  0  0  0
  -21.9350   -4.1230   23.7100 C   0  0  0  0  0  3  0  0  0  0  0  0
  -22.0300   -4.9280   22.5600 C   0  0  0  0  0  0  0  0  0  0  0  0
  -22.4170   -4.3760   21.3850 F   0  0  0  0  0  0  0  0  0  0  0  0
  -21.4140   -3.9080   26.0310 F   0  0  0  0  0  0  0  0  0  0  0  0
  -22.9140  -13.6600   21.1350 C   0  0  0  0  0  0  0  0  0  0  0  0
  -22.2060  -12.9710   22.0240 N   0  0  0  0  0  0  0  0  0  0  0  0
  -22.4720  -14.6970   20.6400 O   0  0  0  0  0  0  0  0  0  0  0  0
  -22.5710  -12.1330   22.4490 H   0  0  0  0  0  0  0  0  0  0  0  0
  -21.2820  -13.2870   22.2810 H   0  0  0  0  0  0  0  0  0  0  0  0
  -25.5290  -15.2970   20.2290 N   0  0  0  0  0  0  0  0  0  0  0  0
  -24.7760  -15.9600   20.3770 H   0  0  0  0  0  0  0  0  0  0  0  0
  -26.3560  -15.7260   19.8320 H   0  0  0  0  0  0  0  0  0  0  0  0
  -28.6560  -22.1880   20.5800 C   0  0  0  0  0  2  0  0  0  0  0  0
  -29.1540  -23.7280   20.6380 C   0  0  0  0  0  3  0  0  0  0  0  0
  -28.0940  -24.8850   20.2700 C   0  0  0  0  0  3  0  0  0  0  0  0
  -28.3570  -26.3530   20.4300 O   0  0  0  0  0  0  0  0  0  0  0  0
  -24.6090  -31.8850   23.2560 C   0  0  0  0  0  0  0  0  0  0  0  0
  -27.2640  -27.2450   20.3250 C   0  0  0  0  0  0  0  0  0  0  0  0
  -23.4340  -30.4630   21.6180 C   0  0  0  0  0  3  0  0  0  0  0  0
  -24.9100  -28.8900   20.2390 C   0  0  0  0  0  0  0  0  0  0  0  0
  -25.9810  -30.7670   21.4790 C   0  0  0  0  0  2  0  0  0  0  0  0
  -26.0720  -29.3770   20.8530 C   0  0  0  0  0  0  0  0  0  0  0  0
  -27.2520  -28.5670   20.8820 C   0  0  0  0  0  3  0  0  0  0  0  0
  -26.0780  -26.8300   19.6750 C   0  0  0  0  0  3  0  0  0  0  0  0
  -24.9200  -27.6260   19.6330 C   0  0  0  0  0  3  0  0  0  0  0  0
  -23.6760  -29.7700   20.2510 C   0  0  0  0  0  2  0  0  0  0  0  0
  -24.6930  -31.0550   22.1740 N   0  0  0  0  0  0  0  0  0  0  0  0
  -23.5170  -32.1730   23.7660 O   0  0  0  0  0  0  0  0  0  0  0  0
  -22.7500  -29.4600   22.5800 C   0  0  0  0  0  0  0  0  0  0  0  0
  -21.4240  -29.2900   22.4350 N   0  0  0  0  0  0  0  0  0  0  0  0
  -23.4120  -28.8420   23.4170 O   0  0  0  0  0  0  0  0  0  0  0  0
  -20.9480  -29.8430   21.7360 H   0  0  0  0  0  0  0  0  0  0  0  0
  -18.0290  -28.1350   22.9110 C   0  0  0  0  0  0  0  0  0  0  0  0
  -20.5880  -28.3670   23.2060 C   0  0  0  0  0  3  0  0  0  0  0  0
  -20.6800  -26.9300   22.6430 C   0  0  0  0  0  2  0  0  0  0  0  0
  -19.5850  -26.6120   21.6190 C   0  0  0  0  0  2  0  0  0  0  0  0
  -18.1980  -26.7770   22.2490 C   0  0  0  0  0  2  0  0  0  0  0  0
  -19.1520  -28.8880   23.3460 C   0  0  0  0  0  0  0  0  0  0  0  0
  -18.9410  -30.1590   23.9240 C   0  0  0  0  0  3  0  0  0  0  0  0
  -17.6400  -30.6750   24.0740 C   0  0  0  0  0  3  0  0  0  0  0  0
  -16.5310  -29.9180   23.6560 C   0  0  0  0  0  3  0  0  0  0  0  0
  -16.7270  -28.6500   23.0790 C   0  0  0  0  0  3  0  0  0  0  0  0
  -25.8810  -32.5260   23.8910 C   0  0  0  0  0  3  0  0  0  0  0  0
  -26.3710  -31.7770   25.1910 C   0  0  1  0  0  0  0  0  0  0  0  0
  -25.2560  -31.5540   26.2380 C   0  0  0  0  0  1  0  0  0  0  0  0
  -26.9610  -30.3930   24.8330 C   0  0  0  0  0  1  0  0  0  0  0  0
  -27.5050  -32.5810   25.8670 C   0  0  0  0  0  1  0  0  0  0  0  0
  -25.5690  -33.9310   24.1920 N   0  0  0  0  0  0  0  0  0  0  0  0
  -25.9170  -34.9700   23.4220 C   0  0  0  0  0  0  0  0  0  0  0  0
  -26.6000  -34.8470   22.4010 O   0  0  0  0  0  0  0  0  0  0  0  0
  -24.9670  -34.1000   24.9840 H   0  0  0  0  0  0  0  0  0  0  0  0
  -24.2020  -36.7640   23.0110 C   0  0  0  0  0  1  0  0  0  0  0  0
  -25.4270  -36.3660   23.8510 C   0  0  0  0  0  3  0  0  0  0  0  0
  -27.5410  -37.2610   24.7190 C   0  0  0  0  0  1  0  0  0  0  0  0
  -26.4640  -37.4140   23.7450 N   0  0  0  0  0  0  0  0  0  0  0  0
  -26.0570  -38.3370   23.8710 H   0  0  0  0  0  0  0  0  0  0  0  0
  1  4  1  0
  2  1  1  0
  2  5  1  0
  4  8  1  0
  4  3  1  0
  5  3  1  0
  5  6  1  1
  8  7  1  0
  9 17  1  0
 10 15  1  0
 11 12  1  0
 11 10  1  0
 13 12  1  0
 13 22  1  0
 13 14  1  0
 15  9  1  0
 15 14  1  0
 16  9  2  0
 17 18  1  0
 17  8  1  0
 19 20  2  0
 20 39  1  0
 21 20  1  0
 21 24  1  0
 22 23  1  0
 22 19  1  0
 23 21  2  0
 24 25  1  0
 25 26  2  0
 27 30  1  0
 27 26  1  0
 28 27  2  0
 29 28  1  0
 29 24  2  0
 30 31  1  0
 31 32  1  0
 32 33  2  0
 34 33  1  0
 34 38  1  0
 35 34  2  0
 36 31  2  0
 36 35  1  0
 37 36  1  0
 39 40  1  0
 40 43  1  0
 40 42  1  0
 41 39  2  0
 44 45  1  0
 44 19  1  0
 46 44  1  0
 47 48  1  0
 47  5  1  0
 49 50  1  0
 49 48  2  0
 51 62  2  0
 52 50  1  0
 52 57  1  0
 53 61  1  0
 53 63  1  0
 54 60  1  0
 54 56  1  0
 55 61  1  0
 56 57  2  0
 56 55  1  0
 58 52  2  0
 59 58  1  0
 59 54  2  0
 60 53  1  0
 61 51  1  0
 63 65  2  0
 64 63  1  0
 66 64  1  0
 67 76  2  0
 67 72  1  0
 68 64  1  0
 68 72  1  0
 69 68  1  0
 70 71  1  0
 70 69  1  0
 71 67  1  0
 72 73  2  0
 73 74  1  0
 75 74  2  0
 76 75  1  0
 77 51  1  0
 77 82  1  0
 77 78  1  0
 78 81  1  1
 78 79  1  0
 80 78  1  0
 82 85  1  0
 83 87  1  0
 83 82  1  0
 84 83  2  0
 87 86  1  0
 89 87  1  0
 89 90  1  0
 89 88  1  0
M  ISO  4   9 100  17 100  49 101  50 101
M  END
>  <TORSDO>  (67) 
F 20

>  <SCORE>  (67) 
-13.511

>  <name>  (67) 
67

>  <ligand_id>  (67) 
67

>  <original_smiles>  (67) 
[H]c1c([H])c([H])c2c(c1[H])C([H])([H])C([H])([H])C([H])([H])C2([H])N([H])C(=O)C1([H])N(C(=O)C([H])(N([H])C(=O)C([H])(N([H])C([H])([H])[H])C([H])([H])[H])C(C([H])([H])[H])(C([H])([H])[H])C([H])([H])[H])C([H])([H])c2c([H])c(OC([H])([H])C([H])([H])C([H])([H])[N+]3([H])C([H])([H])C([H])([H])C([H])(C([H])(N([H])C(=O)N4C([H])([H])C([H])([H])C([H])([H])C([H])(n5nc(-c6c([H])c([H])c(Oc7c([H])c([H])c(F)c([H])c7F)c([H])c6[H])c(C(=O)N([H])[H])c5N([H])[H])C4([H])[H])C([H])([H])[H])C3([H])[H])c([H])c([H])c2C1([H])[H]

>  <smiles>  (67) 
[H]c1c([H])c([H])c2c(c1[H])C([H])([H])C([H])([H])C([H])([H])C2([H])N([H])C(=O)C1([H])N(C(=O)C([H])(N([H])C(=O)C([H])(N([H])C([H])([H])[H])C([H])([H])[H])C(C([H])([H])[H])(C([H])([H])[H])C([H])([H])[H])C([H])([H])c2c([H])c(OC([H])([H])C([H])([H])C([H])([H])[N+]3([H])C([H])([H])C([H])([H])C([H])(C([H])(N([H])C(=O)N4C([H])([H])C([H])([H])C([H])([H])C([H])(n5nc(-c6c([H])c([H])c(Oc7c([H])c([H])c(F)c([H])c7F)c([H])c6[H])c(C(=O)N([H])[H])c5N([H])[H])C4([H])[H])C([H])([H])[H])C3([H])[H])c([H])c([H])c2C1([H])[H]

$$$$
68:0:0
     RDKit          3D

 89 97  0  0  1  0  0  0  0  0999 V2000
  -30.9660  -22.0980   19.9730 C   0  0  0  0  0  1  0  0  0  0  0  0
  -29.4680  -21.8960   19.7210 C   0  0  0  0  0  3  0  0  0  0  0  0
  -27.6350  -20.0540   19.7270 C   0  0  0  0  0  1  0  0  0  0  0  0
  -29.0800  -20.3170   20.1850 C   0  0  0  0  0  3  0  0  0  0  0  0
  -29.9840  -18.9050   19.8850 C   0  0  0  0  0  2  0  0  0  0  0  0
  -30.7940  -14.9150   19.6390 C   0  0  0  0  0  0  0  0  0  0  0  0
  -30.4660  -12.5960   18.6630 C   0  0  0  0  0  2  0  0  0  0  0  0
  -29.4070  -12.6150   17.5400 C   0  0  0  0  0  2  0  0  0  0  0  0
  -27.9990  -12.4140   18.1280 C   0  0  0  0  0  2  0  0  0  0  0  0
  -27.7530  -13.2950   19.3810 C   0  0  0  0  0  3  0  0  0  0  0  0
  -28.9340  -13.2770   20.3790 C   0  0  0  0  0  2  0  0  0  0  0  0
  -30.1440  -13.6770   19.6460 N   0  0  0  0  0  0  0  0  0  0  0  0
  -31.8440  -14.9860   18.9880 O   0  0  0  0  0  0  0  0  0  0  0  0
  -30.5750  -17.1510   22.5820 C   0  0  0  0  0  2  0  0  0  0  0  0
  -29.2550  -17.4890   21.9140 C   0  0  0  0  0  2  0  0  0  0  0  0
  -31.1330  -16.0190   21.7330 C   0  0  0  0  0  2  0  0  0  0  0  0
  -29.5460  -17.3550   20.4100 C   0  0  0  0  0  3  0  0  0  0  0  0
  -30.4200  -16.0230   20.4490 N   0  0  0  0  0  0  0  0  0  0  0  0
  -25.5010  -13.8490   20.4610 C   0  0  0  0  0  0  0  0  0  0  0  0
  -24.4730  -13.0710   20.9100 C   0  0  0  0  0  0  0  0  0  0  0  0
  -24.8940  -11.7170   20.7200 C   0  0  0  0  0  0  0  0  0  0  0  0
  -26.4820  -12.9780   20.0240 N   0  0  0  0  0  0  0  0  0  0  0  0
  -26.1320  -11.6810   20.2400 N   0  0  0  0  0  0  0  0  0  0  0  0
  -24.1630  -10.4560   20.9140 C   0  0  0  0  0  0  0  0  0  0  0  0
  -24.6010   -9.4770   21.8340 C   0  0  0  0  0  3  0  0  0  0  0  0
  -23.8640   -8.2880   22.0180 C   0  0  0  0  0  3  0  0  0  0  0  0
  -22.6770   -8.0660   21.2820 C   0  0  0  0  0  0  0  0  0  0  0  0
  -22.2580   -9.0310   20.3510 C   0  0  0  0  0  3  0  0  0  0  0  0
  -22.9950  -10.2130   20.1650 C   0  0  0  0  0  3  0  0  0  0  0  0
  -21.9150   -6.9240   21.3730 O   0  0  0  0  0  0  0  0  0  0  0  0
  -21.7760   -6.2440   22.5550 C   0  0  0  0  0  0  0  0  0  0  0  0
  -21.2530   -6.8620   23.7120 C   0  0  0  0  0  3  0  0  0  0  0  0
  -21.0640   -6.1090   24.8880 C   0  0  0  0  0  3  0  0  0  0  0  0
  -21.3850   -4.7390   24.9050 C   0  0  0  0  0  0  0  0  0  0  0  0
  -21.8980   -4.1190   23.7520 C   0  0  0  0  0  3  0  0  0  0  0  0
  -22.0890   -4.8690   22.5780 C   0  0  0  0  0  0  0  0  0  0  0  0
  -22.5640   -4.2640   21.4630 F   0  0  0  0  0  0  0  0  0  0  0  0
  -21.1950   -4.0130   26.0320 F   0  0  0  0  0  0  0  0  0  0  0  0
  -23.1380  -13.5510   21.3970 C   0  0  0  0  0  0  0  0  0  0  0  0
  -22.5310  -12.8260   22.3310 N   0  0  0  0  0  0  0  0  0  0  0  0
  -22.6480  -14.6040   20.9890 O   0  0  0  0  0  0  0  0  0  0  0  0
  -22.9420  -11.9750   22.6830 H   0  0  0  0  0  0  0  0  0  0  0  0
  -21.6380  -13.1250   22.6970 H   0  0  0  0  0  0  0  0  0  0  0  0
  -25.6780  -15.2280   20.3620 N   0  0  0  0  0  0  0  0  0  0  0  0
  -24.9580  -15.8890   20.6280 H   0  0  0  0  0  0  0  0  0  0  0  0
  -26.4960  -15.6760   19.9730 H   0  0  0  0  0  0  0  0  0  0  0  0
  -28.6850  -23.3060   20.2440 C   0  0  0  0  0  2  0  0  0  0  0  0
  -28.6220  -24.7780   19.4230 C   0  0  0  0  0  2  0  0  0  0  0  0
  -28.4880  -26.2230   19.9890 O   0  0  0  0  0  0  0  0  0  0  0  0
  -24.6790  -31.7070   23.0080 C   0  0  0  0  0  0  0  0  0  0  0  0
  -27.3760  -27.1310   19.8810 C   0  0  0  0  0  0  0  0  0  0  0  0
  -23.5180  -30.3340   21.3210 C   0  0  0  0  0  3  0  0  0  0  0  0
  -25.0070  -28.8140   19.8670 C   0  0  0  0  0  0  0  0  0  0  0  0
  -26.0630  -30.6480   21.1850 C   0  0  0  0  0  2  0  0  0  0  0  0
  -26.1670  -29.2750   20.4990 C   0  0  0  0  0  0  0  0  0  0  0  0
  -27.3480  -28.4480   20.4900 C   0  0  0  0  0  3  0  0  0  0  0  0
  -26.1870  -26.7600   19.2150 C   0  0  0  0  0  3  0  0  0  0  0  0
  -25.0260  -27.5690   19.2140 C   0  0  0  0  0  3  0  0  0  0  0  0
  -23.7620  -29.6900   19.9280 C   0  0  0  0  0  2  0  0  0  0  0  0
  -24.7720  -30.9180   21.8940 N   0  0  0  0  0  0  0  0  0  0  0  0
  -23.5840  -31.9640   23.5310 O   0  0  0  0  0  0  0  0  0  0  0  0
  -22.8450  -29.2950   22.2530 C   0  0  0  0  0  0  0  0  0  0  0  0
  -21.5140  -29.1410   22.1380 N   0  0  0  0  0  0  0  0  0  0  0  0
  -23.5220  -28.6290   23.0380 O   0  0  0  0  0  0  0  0  0  0  0  0
  -21.0240  -29.7280   21.4760 H   0  0  0  0  0  0  0  0  0  0  0  0
  -18.1220  -27.9930   22.6930 C   0  0  0  0  0  0  0  0  0  0  0  0
  -20.6950  -28.1780   22.8790 C   0  0  0  0  0  3  0  0  0  0  0  0
  -20.7410  -26.7830   22.2150 C   0  0  0  0  0  2  0  0  0  0  0  0
  -19.5950  -26.5490   21.2250 C   0  0  0  0  0  2  0  0  0  0  0  0
  -18.2400  -26.6860   21.9270 C   0  0  0  0  0  2  0  0  0  0  0  0
  -19.2750  -28.7020   23.1240 C   0  0  0  0  0  0  0  0  0  0  0  0
  -19.1110  -29.9280   23.8040 C   0  0  0  0  0  3  0  0  0  0  0  0
  -17.8270  -30.4490   24.0500 C   0  0  0  0  0  3  0  0  0  0  0  0
  -16.6880  -29.7390   23.6300 C   0  0  0  0  0  3  0  0  0  0  0  0
  -16.8370  -28.5100   22.9610 C   0  0  0  0  0  3  0  0  0  0  0  0
  -25.9410  -32.3470   23.6650 C   0  0  0  0  0  3  0  0  0  0  0  0
  -26.4630  -31.5400   24.9170 C   0  0  1  0  0  0  0  0  0  0  0  0
  -25.3670  -31.2380   25.9670 C   0  0  0  0  0  1  0  0  0  0  0  0
  -27.0800  -30.1910   24.4820 C   0  0  0  0  0  1  0  0  0  0  0  0
  -27.5910  -32.3330   25.6170 C   0  0  0  0  0  1  0  0  0  0  0  0
  -25.5960  -33.7240   24.0520 N   0  0  0  0  0  0  0  0  0  0  0  0
  -25.9070  -34.8170   23.3430 C   0  0  0  0  0  0  0  0  0  0  0  0
  -26.5810  -34.7740   22.3100 O   0  0  0  0  0  0  0  0  0  0  0  0
  -24.9990  -33.8290   24.8580 H   0  0  0  0  0  0  0  0  0  0  0  0
  -24.1460  -36.5930   23.0570 C   0  0  0  0  0  1  0  0  0  0  0  0
  -25.3900  -36.1770   23.8590 C   0  0  0  0  0  3  0  0  0  0  0  0
  -27.5010  -37.0660   24.7460 C   0  0  0  0  0  1  0  0  0  0  0  0
  -26.4020  -37.2540   23.8020 N   0  0  0  0  0  0  0  0  0  0  0  0
  -25.9780  -38.1600   23.9830 H   0  0  0  0  0  0  0  0  0  0  0  0
  2  1  1  0
  2  4  1  0
  2 47  1  0
  4  3  1  0
  5  4  1  0
  6 12  1  0
  6 18  1  0
  7 12  1  0
  8  9  1  0
  8  7  1  0
 10  9  1  0
 10 22  1  0
 10 11  1  0
 12 11  1  0
 13  6  2  0
 15 14  1  0
 16 14  1  0
 17  5  1  0
 17 18  1  0
 17 15  1  0
 18 16  1  0
 19 20  2  0
 20 39  1  0
 21 20  1  0
 21 24  1  0
 22 23  1  0
 22 19  1  0
 23 21  2  0
 24 25  1  0
 25 26  2  0
 27 30  1  0
 27 26  1  0
 28 27  2  0
 29 28  1  0
 29 24  2  0
 30 31  1  0
 31 36  2  0
 31 32  1  0
 32 33  2  0
 33 34  1  0
 34 38  1  0
 35 34  2  0
 36 35  1  0
 37 36  1  0
 39 40  1  0
 40 42  1  0
 40 43  1  0
 41 39  2  0
 44 19  1  0
 44 45  1  0
 46 44  1  0
 48 49  1  0
 48 47  1  0
 50 61  2  0
 51 49  1  0
 51 56  1  0
 52 60  1  0
 52 62  1  0
 53 59  1  0
 53 55  1  0
 54 60  1  0
 55 54  1  0
 56 55  2  0
 57 51  2  0
 58 57  1  0
 58 53  2  0
 59 52  1  0
 60 50  1  0
 62 64  2  0
 63 62  1  0
 65 63  1  0
 66 75  2  0
 66 71  1  0
 67 63  1  0
 67 71  1  0
 68 67  1  0
 69 70  1  0
 69 68  1  0
 70 66  1  0
 71 72  2  0
 72 73  1  0
 74 73  2  0
 75 74  1  0
 76 50  1  0
 76 81  1  0
 76 77  1  0
 77 80  1  1
 77 78  1  0
 79 77  1  0
 81 84  1  0
 82 86  1  0
 82 81  1  0
 83 82  2  0
 86 85  1  0
 88 86  1  0
 88 89  1  0
 88 87  1  0
M  ISO  4   6 100  18 100  48 101  49 101
M  END
>  <TORSDO>  (68) 
F 20

>  <SCORE>  (68) 
-13.294

>  <name>  (68) 
68

>  <ligand_id>  (68) 
68

>  <original_smiles>  (68) 
[H]c1c([H])c([H])c2c(c1[H])C([H])([H])C([H])([H])C([H])([H])C2([H])N([H])C(=O)C1([H])N(C(=O)C([H])(N([H])C(=O)C([H])(N([H])C([H])([H])[H])C([H])([H])[H])C(C([H])([H])[H])(C([H])([H])[H])C([H])([H])[H])C([H])([H])c2c([H])c(OC([H])([H])C([H])([H])C([H])(C([H])([H])[H])C([H])(C([H])([H])[H])C([H])([H])C3([H])N(C(=O)N4C([H])([H])C([H])([H])C([H])([H])C([H])(n5nc(-c6c([H])c([H])c(Oc7c([H])c([H])c(F)c([H])c7F)c([H])c6[H])c(C(=O)N([H])[H])c5N([H])[H])C4([H])[H])C([H])([H])C([H])([H])C3([H])[H])c([H])c([H])c2C1([H])[H]

>  <smiles>  (68) 
[H]c1c([H])c([H])c2c(c1[H])C([H])([H])C([H])([H])C([H])([H])C2([H])N([H])C(=O)C1([H])N(C(=O)C([H])(N([H])C(=O)C([H])(N([H])C([H])([H])[H])C([H])([H])[H])C(C([H])([H])[H])(C([H])([H])[H])C([H])([H])[H])C([H])([H])c2c([H])c(OC([H])([H])C([H])([H])C([H])(C([H])([H])[H])C([H])(C([H])([H])[H])C([H])([H])C3([H])N(C(=O)N4C([H])([H])C([H])([H])C([H])([H])C([H])(n5nc(-c6c([H])c([H])c(Oc7c([H])c([H])c(F)c([H])c7F)c([H])c6[H])c(C(=O)N([H])[H])c5N([H])[H])C4([H])[H])C([H])([H])C([H])([H])C3([H])[H])c([H])c([H])c2C1([H])[H]

$$$$
69:0:0
     RDKit          3D

 91 99  0  0  1  0  0  0  0  0999 V2000
  -28.8100  -20.5180   20.3140 N   0  0  0  0  0  4  0  0  0  0  0  0
  -28.5390  -20.3950   21.2760 H   0  0  0  0  0  0  0  0  0  0  0  0
  -27.9570  -20.3720   19.7960 H   0  0  0  0  0  0  0  0  0  0  0  0
  -30.9720  -18.4400   21.9610 C   0  0  0  0  0  2  0  0  0  0  0  0
  -29.8640  -17.3660   21.8410 C   0  0  0  0  0  2  0  0  0  0  0  0
  -31.1340  -19.1070   20.5770 C   0  0  0  0  0  3  0  0  0  0  0  0
  -29.5320  -17.2060   20.3430 C   0  0  0  0  0  3  0  0  0  0  0  0
  -29.7300  -19.0590   19.9490 C   0  0  0  0  0  3  0  0  0  0  0  0
  -30.3170  -15.5780   19.9130 C   0  0  0  0  0  0  0  0  0  0  0  0
  -30.3410  -13.0810   18.9810 C   0  0  0  0  0  2  0  0  0  0  0  0
  -29.3530  -12.8260   17.8080 C   0  0  0  0  0  2  0  0  0  0  0  0
  -27.9420  -12.4980   18.3260 C   0  0  0  0  0  2  0  0  0  0  0  0
  -27.5450  -13.4170   19.5030 C   0  0  0  0  0  3  0  0  0  0  0  0
  -28.6590  -13.6010   20.5530 C   0  0  0  0  0  2  0  0  0  0  0  0
  -29.8190  -14.2100   19.8670 N   0  0  0  0  0  0  0  0  0  0  0  0
  -31.5090  -15.5510   19.5490 O   0  0  0  0  0  0  0  0  0  0  0  0
  -25.2390  -13.9160   20.4480 C   0  0  0  0  0  0  0  0  0  0  0  0
  -24.2100  -13.1210   20.8640 C   0  0  0  0  0  0  0  0  0  0  0  0
  -24.6800  -11.7740   20.7540 C   0  0  0  0  0  0  0  0  0  0  0  0
  -26.2640  -13.0590   20.0980 N   0  0  0  0  0  0  0  0  0  0  0  0
  -25.9470  -11.7600   20.3480 N   0  0  0  0  0  0  0  0  0  0  0  0
  -23.9700  -10.5030   20.9530 C   0  0  0  0  0  0  0  0  0  0  0  0
  -24.4330   -9.5300   21.8650 C   0  0  0  0  0  3  0  0  0  0  0  0
  -23.7190   -8.3270   22.0540 C   0  0  0  0  0  3  0  0  0  0  0  0
  -22.5260   -8.0880   21.3300 C   0  0  0  0  0  0  0  0  0  0  0  0
  -22.0800   -9.0490   20.4070 C   0  0  0  0  0  3  0  0  0  0  0  0
  -22.7950  -10.2450   20.2160 C   0  0  0  0  0  3  0  0  0  0  0  0
  -21.7790   -6.9380   21.4300 O   0  0  0  0  0  0  0  0  0  0  0  0
  -21.7180   -6.2170   22.5960 C   0  0  0  0  0  0  0  0  0  0  0  0
  -21.2660   -6.7900   23.8050 C   0  0  0  0  0  3  0  0  0  0  0  0
  -21.1550   -5.9950   24.9630 C   0  0  0  0  0  3  0  0  0  0  0  0
  -21.4870   -4.6270   24.9130 C   0  0  0  0  0  0  0  0  0  0  0  0
  -21.9310   -4.0540   23.7080 C   0  0  0  0  0  3  0  0  0  0  0  0
  -22.0450   -4.8470   22.5530 C   0  0  0  0  0  0  0  0  0  0  0  0
  -22.4540   -4.2850   21.3910 F   0  0  0  0  0  0  0  0  0  0  0  0
  -21.3720   -3.8620   26.0220 F   0  0  0  0  0  0  0  0  0  0  0  0
  -22.8350  -13.5820   21.2420 C   0  0  0  0  0  0  0  0  0  0  0  0
  -22.1700  -12.8620   22.1380 N   0  0  0  0  0  0  0  0  0  0  0  0
  -22.3590  -14.6180   20.7770 O   0  0  0  0  0  0  0  0  0  0  0  0
  -22.5670  -12.0250   22.5360 H   0  0  0  0  0  0  0  0  0  0  0  0
  -21.2470  -13.1530   22.4290 H   0  0  0  0  0  0  0  0  0  0  0  0
  -25.3870  -15.2930   20.3060 N   0  0  0  0  0  0  0  0  0  0  0  0
  -24.6330  -15.9420   20.5020 H   0  0  0  0  0  0  0  0  0  0  0  0
  -26.2070  -15.7450   19.9250 H   0  0  0  0  0  0  0  0  0  0  0  0
  -31.8880  -20.4430   20.5410 C   0  0  0  0  0  0  0  0  0  0  0  0
  -32.1890  -21.0440   21.5760 O   0  0  0  0  0  0  0  0  0  0  0  0
  -33.0980  -22.2780   19.1940 C   0  0  0  0  0  1  0  0  0  0  0  0
  -32.2770  -20.9770   19.1570 C   0  0  0  0  0  2  0  0  0  0  0  0
  -29.0700  -22.2530   20.1750 C   0  0  0  0  0  3  0  0  0  0  0  0
  -28.0230  -23.8570   20.2840 C   0  0  0  0  0  3  0  0  0  0  0  0
  -28.2100  -25.5950   20.2950 O   0  0  0  0  0  0  0  0  0  0  0  0
  -24.6830  -31.8370   23.2000 C   0  0  0  0  0  0  0  0  0  0  0  0
  -27.2190  -26.7770   20.2460 C   0  0  0  0  0  0  0  0  0  0  0  0
  -23.4930  -30.4250   21.5770 C   0  0  0  0  0  3  0  0  0  0  0  0
  -24.9410  -28.7760   20.1750 C   0  0  0  0  0  0  0  0  0  0  0  0
  -26.0700  -30.5830   21.4480 C   0  0  0  0  0  2  0  0  0  0  0  0
  -26.1370  -29.1500   20.8000 C   0  0  0  0  0  0  0  0  0  0  0  0
  -27.2630  -28.1790   20.8000 C   0  0  0  0  0  3  0  0  0  0  0  0
  -25.9870  -26.5980   19.5710 C   0  0  0  0  0  3  0  0  0  0  0  0
  -24.9010  -27.5230   19.5380 C   0  0  0  0  0  3  0  0  0  0  0  0
  -23.7280  -29.7170   20.2130 C   0  0  0  0  0  2  0  0  0  0  0  0
  -24.7710  -30.9800   22.1270 N   0  0  0  0  0  0  0  0  0  0  0  0
  -23.5900  -32.1400   23.7120 O   0  0  0  0  0  0  0  0  0  0  0  0
  -22.7840  -29.4530   22.5580 C   0  0  0  0  0  0  0  0  0  0  0  0
  -21.4530  -29.2930   22.4350 N   0  0  0  0  0  0  0  0  0  0  0  0
  -23.4420  -28.8380   23.4000 O   0  0  0  0  0  0  0  0  0  0  0  0
  -20.9720  -29.8330   21.7290 H   0  0  0  0  0  0  0  0  0  0  0  0
  -18.0690  -28.0760   22.9580 C   0  0  0  0  0  0  0  0  0  0  0  0
  -20.6280  -28.3630   23.2170 C   0  0  0  0  0  3  0  0  0  0  0  0
  -20.7380  -26.9240   22.6600 C   0  0  0  0  0  2  0  0  0  0  0  0
  -19.6380  -26.5830   21.6490 C   0  0  0  0  0  2  0  0  0  0  0  0
  -18.2550  -26.7250   22.2890 C   0  0  0  0  0  2  0  0  0  0  0  0
  -19.1820  -28.8540   23.3780 C   0  0  0  0  0  0  0  0  0  0  0  0
  -18.9530  -30.1150   23.9670 C   0  0  0  0  0  3  0  0  0  0  0  0
  -17.6420  -30.6040   24.1350 C   0  0  0  0  0  3  0  0  0  0  0  0
  -16.5450  -29.8260   23.7290 C   0  0  0  0  0  3  0  0  0  0  0  0
  -16.7580  -28.5640   23.1470 C   0  0  0  0  0  3  0  0  0  0  0  0
  -25.9480  -32.4920   23.8320 C   0  0  0  0  0  3  0  0  0  0  0  0
  -25.6180  -33.8880   24.1750 N   0  0  0  0  0  0  0  0  0  0  0  0
  -25.9240  -34.9580   23.4290 C   0  0  0  0  0  0  0  0  0  0  0  0
  -26.5690  -34.8750   22.3820 O   0  0  0  0  0  0  0  0  0  0  0  0
  -25.0370  -34.0280   24.9890 H   0  0  0  0  0  0  0  0  0  0  0  0
  -24.1590  -36.7390   23.1670 C   0  0  0  0  0  1  0  0  0  0  0  0
  -25.4390  -36.3400   23.9180 C   0  0  0  0  0  3  0  0  0  0  0  0
  -27.5930  -37.2570   24.6660 C   0  0  0  0  0  1  0  0  0  0  0  0
  -26.4510  -37.4100   23.7680 N   0  0  0  0  0  0  0  0  0  0  0  0
  -26.0370  -38.3230   23.9320 H   0  0  0  0  0  0  0  0  0  0  0  0
  -26.4600  -31.7320   25.1190 C   0  0  1  0  0  0  0  0  0  0  0  0
  -25.3640  -31.5000   26.1860 C   0  0  0  0  0  1  0  0  0  0  0  0
  -27.0500  -30.3500   24.7550 C   0  0  0  0  0  1  0  0  0  0  0  0
  -27.6070  -32.5350   25.7780 C   0  0  0  0  0  1  0  0  0  0  0  0
  1  2  1  0
  3  1  1  0
  5  4  1  0
  6 45  1  0
  6  4  1  0
  7  9  1  0
  7  5  1  0
  8  1  1  0
  8  7  1  0
  8  6  1  0
 10 15  1  0
 11 12  1  0
 11 10  1  0
 13 12  1  0
 13 20  1  0
 13 14  1  0
 15  9  1  0
 15 14  1  0
 16  9  2  0
 17 18  2  0
 18 37  1  0
 19 18  1  0
 19 22  1  0
 20 21  1  0
 20 17  1  0
 21 19  2  0
 22 23  1  0
 23 24  2  0
 25 28  1  0
 25 24  1  0
 26 25  2  0
 27 26  1  0
 27 22  2  0
 28 29  1  0
 29 30  1  0
 30 31  2  0
 32 31  1  0
 32 36  1  0
 33 32  2  0
 34 29  2  0
 34 33  1  0
 35 34  1  0
 37 38  1  0
 38 41  1  0
 38 40  1  0
 39 37  2  0
 42 17  1  0
 42 43  1  0
 44 42  1  0
 45 46  2  0
 48 47  1  0
 48 45  1  0
 49 50  2  0
 49  1  1  0
 50 51  1  0
 52 63  2  0
 53 51  1  0
 53 58  1  0
 54 62  1  0
 54 64  1  0
 55 61  1  0
 55 57  1  0
 56 62  1  0
 57 58  2  0
 57 56  1  0
 59 53  2  0
 60 59  1  0
 60 55  2  0
 61 54  1  0
 62 52  1  0
 64 66  2  0
 65 64  1  0
 67 65  1  0
 68 77  2  0
 68 73  1  0
 69 65  1  0
 69 73  1  0
 70 69  1  0
 71 72  1  0
 71 70  1  0
 72 68  1  0
 73 74  2  0
 74 75  1  0
 76 75  2  0
 77 76  1  0
 78 52  1  0
 78 79  1  0
 78 88  1  0
 79 82  1  0
 80 84  1  0
 80 79  1  0
 81 80  2  0
 84 83  1  0
 86 84  1  0
 86 87  1  0
 86 85  1  0
 88 91  1  1
 88 89  1  0
 90 88  1  0
M  ISO  4   7 100   9 100  50 101  51 101
M  END
>  <TORSDO>  (69) 
F 21

>  <SCORE>  (69) 
-15.565

>  <name>  (69) 
69

>  <ligand_id>  (69) 
69

>  <original_smiles>  (69) 
[H]c1c([H])c([H])c2c(c1[H])C([H])([H])C([H])([H])C([H])([H])C2([H])N([H])C(=O)C1([H])N(C(=O)C([H])(N([H])C(=O)C([H])(N([H])C([H])([H])[H])C([H])([H])[H])C(C([H])([H])[H])(C([H])([H])[H])C([H])([H])[H])C([H])([H])c2c([H])c(OC([H])([H])C([H])([H])[N+]([H])([H])C3([H])C([H])(C(=O)N4C([H])([H])C([H])([H])C([H])([H])C([H])(n5nc(-c6c([H])c([H])c(Oc7c([H])c([H])c(F)c([H])c7F)c([H])c6[H])c(C(=O)N([H])[H])c5N([H])[H])C4([H])[H])C([H])([H])C([H])([H])C3([H])C(=O)C([H])([H])C([H])([H])[H])c([H])c([H])c2C1([H])[H]

>  <smiles>  (69) 
[H]c1c([H])c([H])c2c(c1[H])C([H])([H])C([H])([H])C([H])([H])C2([H])N([H])C(=O)C1([H])N(C(=O)C([H])(N([H])C(=O)C([H])(N([H])C([H])([H])[H])C([H])([H])[H])C(C([H])([H])[H])(C([H])([H])[H])C([H])([H])[H])C([H])([H])c2c([H])c(OC([H])([H])C([H])([H])[N+]([H])([H])C3([H])C([H])(C(=O)N4C([H])([H])C([H])([H])C([H])([H])C([H])(n5nc(-c6c([H])c([H])c(Oc7c([H])c([H])c(F)c([H])c7F)c([H])c6[H])c(C(=O)N([H])[H])c5N([H])[H])C4([H])[H])C([H])([H])C([H])([H])C3([H])C(=O)C([H])([H])C([H])([H])[H])c([H])c([H])c2C1([H])[H]

$$$$
70:0:0
     RDKit          3D

 93101  0  0  1  0  0  0  0  0999 V2000
  -31.1110  -20.4850   19.7590 C   0  0  0  0  0  1  0  0  0  0  0  0
  -29.6100  -20.1580   19.7510 C   0  0  0  0  0  3  0  0  0  0  0  0
  -30.6080  -14.9660   19.7780 C   0  0  0  0  0  0  0  0  0  0  0  0
  -30.3870  -12.6340   18.7540 C   0  0  0  0  0  2  0  0  0  0  0  0
  -29.3370  -12.6240   17.6150 C   0  0  0  0  0  2  0  0  0  0  0  0
  -27.9190  -12.4030   18.1760 C   0  0  0  0  0  2  0  0  0  0  0  0
  -27.6430  -13.2650   19.4350 C   0  0  0  0  0  3  0  0  0  0  0  0
  -28.8060  -13.2400   20.4480 C   0  0  0  0  0  2  0  0  0  0  0  0
  -29.9960  -13.7040   19.7270 N   0  0  0  0  0  0  0  0  0  0  0  0
  -31.7880  -14.9950   19.4060 O   0  0  0  0  0  0  0  0  0  0  0  0
  -29.4620  -17.2660   19.0550 C   0  0  0  0  0  2  0  0  0  0  0  0
  -30.4660  -17.4430   20.7520 C   0  0  0  0  0  3  0  0  0  0  0  0
  -29.3990  -18.4710   20.1210 C   0  0  0  0  0  3  0  0  0  0  0  0
  -29.8990  -16.1990   20.0580 N   0  0  0  0  0  0  0  0  0  0  0  0
  -25.3570  -13.8040   20.4360 C   0  0  0  0  0  0  0  0  0  0  0  0
  -24.3320  -13.0130   20.8750 C   0  0  0  0  0  0  0  0  0  0  0  0
  -24.7850  -11.6640   20.7430 C   0  0  0  0  0  0  0  0  0  0  0  0
  -26.3650  -12.9370   20.0560 N   0  0  0  0  0  0  0  0  0  0  0  0
  -26.0390  -11.6430   20.3060 N   0  0  0  0  0  0  0  0  0  0  0  0
  -24.0730  -10.3950   20.9560 C   0  0  0  0  0  0  0  0  0  0  0  0
  -24.5350   -9.4330   21.8800 C   0  0  0  0  0  3  0  0  0  0  0  0
  -23.8200   -8.2310   22.0810 C   0  0  0  0  0  3  0  0  0  0  0  0
  -22.6310   -7.9820   21.3530 C   0  0  0  0  0  0  0  0  0  0  0  0
  -22.1880   -8.9330   20.4170 C   0  0  0  0  0  3  0  0  0  0  0  0
  -22.9030  -10.1260   20.2170 C   0  0  0  0  0  3  0  0  0  0  0  0
  -21.8860   -6.8320   21.4600 O   0  0  0  0  0  0  0  0  0  0  0  0
  -21.7990   -6.1390   22.6400 C   0  0  0  0  0  0  0  0  0  0  0  0
  -21.3130   -6.7380   23.8220 C   0  0  0  0  0  3  0  0  0  0  0  0
  -21.1750   -5.9710   24.9950 C   0  0  0  0  0  3  0  0  0  0  0  0
  -21.5160   -4.6060   24.9890 C   0  0  0  0  0  0  0  0  0  0  0  0
  -21.9970   -4.0040   23.8120 C   0  0  0  0  0  3  0  0  0  0  0  0
  -22.1360   -4.7700   22.6410 C   0  0  0  0  0  0  0  0  0  0  0  0
  -22.5800   -4.1830   21.5030 F   0  0  0  0  0  0  0  0  0  0  0  0
  -21.3750   -3.8660   26.1140 F   0  0  0  0  0  0  0  0  0  0  0  0
  -22.9710  -13.4780   21.3000 C   0  0  0  0  0  0  0  0  0  0  0  0
  -22.3400  -12.7580   22.2220 N   0  0  0  0  0  0  0  0  0  0  0  0
  -22.4820  -14.5150   20.8540 O   0  0  0  0  0  0  0  0  0  0  0  0
  -22.7590  -11.9210   22.5990 H   0  0  0  0  0  0  0  0  0  0  0  0
  -21.4320  -13.0460   22.5560 H   0  0  0  0  0  0  0  0  0  0  0  0
  -25.5140  -15.1810   20.3010 N   0  0  0  0  0  0  0  0  0  0  0  0
  -24.7790  -15.8440   20.5250 H   0  0  0  0  0  0  0  0  0  0  0  0
  -26.3490  -15.6210   19.9330 H   0  0  0  0  0  0  0  0  0  0  0  0
  -30.4030  -17.3150   22.2800 C   0  0  0  0  0  0  0  0  0  0  0  0
  -31.4080  -16.6960   22.8820 N   0  0  0  0  0  0  0  0  0  0  0  0
  -29.4580  -17.7670   22.9220 O   0  0  0  0  0  0  0  0  0  0  0  0
  -32.1980  -16.3610   22.3470 H   0  0  0  0  0  0  0  0  0  0  0  0
  -31.4210  -16.6060   23.8860 H   0  0  0  0  0  0  0  0  0  0  0  0
  -28.7750  -21.4280   20.3190 N   0  0  0  0  0  4  0  0  0  0  0  0
  -27.8220  -21.2690   20.0290 H   0  0  0  0  0  0  0  0  0  0  0  0
  -28.7610  -21.3330   21.3220 H   0  0  0  0  0  0  0  0  0  0  0  0
  -29.0910  -22.9950   20.0100 C   0  0  0  0  0  3  0  0  0  0  0  0
  -28.0680  -24.3530   20.3430 C   0  0  0  0  0  3  0  0  0  0  0  0
  -28.3250  -25.9320   20.2580 O   0  0  0  0  0  0  0  0  0  0  0  0
  -24.6190  -31.7460   23.1290 C   0  0  0  0  0  0  0  0  0  0  0  0
  -27.2730  -26.9470   20.2050 C   0  0  0  0  0  0  0  0  0  0  0  0
  -23.4560  -30.3110   21.5000 C   0  0  0  0  0  3  0  0  0  0  0  0
  -24.9380  -28.7200   20.1200 C   0  0  0  0  0  0  0  0  0  0  0  0
  -26.0160  -30.5800   21.3680 C   0  0  0  0  0  2  0  0  0  0  0  0
  -26.1110  -29.1720   20.7360 C   0  0  0  0  0  0  0  0  0  0  0  0
  -27.2800  -28.3060   20.7540 C   0  0  0  0  0  3  0  0  0  0  0  0
  -26.0710  -26.6200   19.5400 C   0  0  0  0  0  3  0  0  0  0  0  0
  -24.9360  -27.4600   19.5030 C   0  0  0  0  0  3  0  0  0  0  0  0
  -23.7020  -29.6120   20.1380 C   0  0  0  0  0  2  0  0  0  0  0  0
  -24.7170  -30.9030   22.0530 N   0  0  0  0  0  0  0  0  0  0  0  0
  -23.5220  -32.0290   23.6350 O   0  0  0  0  0  0  0  0  0  0  0  0
  -22.7720  -29.3160   22.4710 C   0  0  0  0  0  0  0  0  0  0  0  0
  -21.4430  -29.1480   22.3490 N   0  0  0  0  0  0  0  0  0  0  0  0
  -23.4410  -28.6930   23.3000 O   0  0  0  0  0  0  0  0  0  0  0  0
  -20.9570  -29.7020   21.6560 H   0  0  0  0  0  0  0  0  0  0  0  0
  -18.0560  -27.9660   22.8820 C   0  0  0  0  0  0  0  0  0  0  0  0
  -20.6180  -28.2190   23.1280 C   0  0  0  0  0  3  0  0  0  0  0  0
  -20.7090  -26.7830   22.5600 C   0  0  0  0  0  2  0  0  0  0  0  0
  -19.5980  -26.4620   21.5550 C   0  0  0  0  0  2  0  0  0  0  0  0
  -18.2210  -26.6150   22.2080 C   0  0  0  0  0  2  0  0  0  0  0  0
  -19.1820  -28.7260   23.3000 C   0  0  0  0  0  0  0  0  0  0  0  0
  -18.9710  -29.9890   23.8940 C   0  0  0  0  0  3  0  0  0  0  0  0
  -17.6700  -30.4940   24.0720 C   0  0  0  0  0  3  0  0  0  0  0  0
  -16.5600  -29.7320   23.6670 C   0  0  0  0  0  3  0  0  0  0  0  0
  -16.7540  -28.4700   23.0780 C   0  0  0  0  0  3  0  0  0  0  0  0
  -25.8800  -32.4080   23.7630 C   0  0  0  0  0  3  0  0  0  0  0  0
  -26.4060  -31.6430   25.0400 C   0  0  1  0  0  0  0  0  0  0  0  0
  -25.3130  -31.3760   26.1020 C   0  0  0  0  0  1  0  0  0  0  0  0
  -27.0230  -30.2800   24.6540 C   0  0  0  0  0  1  0  0  0  0  0  0
  -27.5330  -32.4620   25.7110 C   0  0  0  0  0  1  0  0  0  0  0  0
  -25.5310  -33.7970   24.1070 N   0  0  0  0  0  0  0  0  0  0  0  0
  -25.8430  -34.8710   23.3690 C   0  0  0  0  0  0  0  0  0  0  0  0
  -26.5200  -34.7990   22.3410 O   0  0  0  0  0  0  0  0  0  0  0  0
  -24.9240  -33.9240   24.9030 H   0  0  0  0  0  0  0  0  0  0  0  0
  -24.0840  -36.6420   23.0360 C   0  0  0  0  0  1  0  0  0  0  0  0
  -25.3260  -36.2430   23.8490 C   0  0  0  0  0  3  0  0  0  0  0  0
  -27.4350  -37.1560   24.7140 C   0  0  0  0  0  1  0  0  0  0  0  0
  -26.3400  -37.3180   23.7620 N   0  0  0  0  0  0  0  0  0  0  0  0
  -25.9150  -38.2270   23.9220 H   0  0  0  0  0  0  0  0  0  0  0  0
  2  1  1  0
  2 48  1  0
  3 14  1  0
  4  9  1  0
  5  6  1  0
  5  4  1  0
  7  6  1  0
  7 18  1  0
  7  8  1  0
  9  3  1  0
  9  8  1  0
 10  3  2  0
 11 14  1  0
 11 13  1  0
 12 43  1  0
 13  2  1  0
 13 12  1  0
 14 12  1  0
 15 16  2  0
 16 35  1  0
 17 16  1  0
 17 20  1  0
 18 19  1  0
 18 15  1  0
 19 17  2  0
 20 21  1  0
 21 22  2  0
 23 26  1  0
 23 22  1  0
 24 23  2  0
 25 24  1  0
 25 20  2  0
 26 27  1  0
 27 32  2  0
 27 28  1  0
 28 29  2  0
 30 29  1  0
 30 34  1  0
 31 30  2  0
 32 31  1  0
 33 32  1  0
 35 36  1  0
 36 39  1  0
 36 38  1  0
 37 35  2  0
 40 15  1  0
 40 41  1  0
 42 40  1  0
 43 44  1  0
 43 45  2  0
 44 47  1  0
 46 44  1  0
 48 50  1  0
 49 48  1  0
 51 48  1  0
 51 52  2  0
 53 52  1  0
 54 65  2  0
 55 53  1  0
 55 60  1  0
 56 64  1  0
 56 66  1  0
 57 63  1  0
 57 59  1  0
 58 64  1  0
 59 60  2  0
 59 58  1  0
 61 55  2  0
 62 61  1  0
 62 57  2  0
 63 56  1  0
 64 54  1  0
 66 68  2  0
 67 66  1  0
 69 67  1  0
 70 79  2  0
 70 75  1  0
 71 67  1  0
 71 75  1  0
 72 71  1  0
 73 74  1  0
 73 72  1  0
 74 70  1  0
 75 76  2  0
 76 77  1  0
 78 77  2  0
 79 78  1  0
 80 54  1  0
 80 85  1  0
 80 81  1  0
 81 84  1  1
 81 82  1  0
 83 81  1  0
 85 88  1  0
 86 90  1  0
 86 85  1  0
 87 86  2  0
 90 89  1  0
 92 90  1  0
 92 93  1  0
 92 91  1  0
M  ISO  4   3 100  14 100  52 101  53 101
M  END
>  <TORSDO>  (70) 
F 20

>  <SCORE>  (70) 
-12.673

>  <name>  (70) 
70

>  <ligand_id>  (70) 
70

>  <original_smiles>  (70) 
[H]c1c([H])c([H])c2c(c1[H])C([H])([H])C([H])([H])C([H])([H])C2([H])N([H])C(=O)C1([H])N(C(=O)C([H])(N([H])C(=O)C([H])(N([H])C([H])([H])[H])C([H])([H])[H])C(C([H])([H])[H])(C([H])([H])[H])C([H])([H])[H])C([H])([H])c2c([H])c(OC([H])([H])C([H])([H])[N+]([H])([H])C([H])(C([H])([H])[H])C3([H])C([H])([H])N(C(=O)N4C([H])([H])C([H])([H])C([H])([H])C([H])(n5nc(-c6c([H])c([H])c(Oc7c([H])c([H])c(F)c([H])c7F)c([H])c6[H])c(C(=O)N([H])[H])c5N([H])[H])C4([H])[H])C3([H])C(=O)N([H])[H])c([H])c([H])c2C1([H])[H]

>  <smiles>  (70) 
[H]c1c([H])c([H])c2c(c1[H])C([H])([H])C([H])([H])C([H])([H])C2([H])N([H])C(=O)C1([H])N(C(=O)C([H])(N([H])C(=O)C([H])(N([H])C([H])([H])[H])C([H])([H])[H])C(C([H])([H])[H])(C([H])([H])[H])C([H])([H])[H])C([H])([H])c2c([H])c(OC([H])([H])C([H])([H])[N+]([H])([H])C([H])(C([H])([H])[H])C3([H])C([H])([H])N(C(=O)N4C([H])([H])C([H])([H])C([H])([H])C([H])(n5nc(-c6c([H])c([H])c(Oc7c([H])c([H])c(F)c([H])c7F)c([H])c6[H])c(C(=O)N([H])[H])c5N([H])[H])C4([H])[H])C3([H])C(=O)N([H])[H])c([H])c([H])c2C1([H])[H]

$$$$
71:0:0
     RDKit          3D

 90 98  0  0  1  0  0  0  0  0999 V2000
  -27.9640  -20.8920   20.6730 C   0  0  0  0  0  2  0  0  0  0  0  0
  -29.6960  -21.8890   19.4860 C   0  0  0  0  0  2  0  0  0  0  0  0
  -29.4120  -20.4380   20.3130 C   0  0  0  0  0  3  0  0  0  0  0  0
  -27.7290  -22.4920   20.5930 C   0  0  0  0  0  3  0  0  0  0  0  0
  -28.9920  -23.3010   20.1010 C   0  0  0  0  0  3  0  0  0  0  0  0
  -29.7590  -18.7570   19.8290 C   0  0  0  0  0  2  0  0  0  0  0  0
  -29.7360  -17.1840   20.6540 C   0  0  0  0  0  2  0  0  0  0  0  0
  -30.5970  -15.6930   20.4120 C   0  0  0  0  0  0  0  0  0  0  0  0
  -30.7090  -13.2010   19.7200 C   0  0  0  0  0  2  0  0  0  0  0  0
  -29.8550  -12.9360   18.4520 C   0  0  0  0  0  2  0  0  0  0  0  0
  -28.3860  -12.6660   18.8220 C   0  0  0  0  0  2  0  0  0  0  0  0
  -27.8630  -13.6770   19.8720 C   0  0  0  0  0  3  0  0  0  0  0  0
  -28.8450  -13.8850   21.0430 C   0  0  0  0  0  2  0  0  0  0  0  0
  -30.1110  -14.3610   20.4690 N   0  0  0  0  0  0  0  0  0  0  0  0
  -31.8000  -15.7480   20.1210 O   0  0  0  0  0  0  0  0  0  0  0  0
  -25.4600  -14.2260   20.5360 C   0  0  0  0  0  0  0  0  0  0  0  0
  -24.3910  -13.4430   20.8700 C   0  0  0  0  0  0  0  0  0  0  0  0
  -24.8690  -12.0960   20.8610 C   0  0  0  0  0  0  0  0  0  0  0  0
  -26.5160  -13.3580   20.3290 N   0  0  0  0  0  0  0  0  0  0  0  0
  -26.1710  -12.0710   20.5940 N   0  0  0  0  0  0  0  0  0  0  0  0
  -24.1450  -10.8290   21.0310 C   0  0  0  0  0  0  0  0  0  0  0  0
  -24.5260   -9.8820   22.0060 C   0  0  0  0  0  3  0  0  0  0  0  0
  -23.7980   -8.6830   22.1630 C   0  0  0  0  0  3  0  0  0  0  0  0
  -22.6730   -8.4220   21.3430 C   0  0  0  0  0  0  0  0  0  0  0  0
  -22.3110   -9.3580   20.3580 C   0  0  0  0  0  3  0  0  0  0  0  0
  -23.0400  -10.5490   20.2010 C   0  0  0  0  0  3  0  0  0  0  0  0
  -21.9210   -7.2730   21.4070 O   0  0  0  0  0  0  0  0  0  0  0  0
  -21.7880   -6.5640   22.5740 C   0  0  0  0  0  0  0  0  0  0  0  0
  -21.2330   -7.1400   23.7370 C   0  0  0  0  0  3  0  0  0  0  0  0
  -21.0510   -6.3560   24.8930 C   0  0  0  0  0  3  0  0  0  0  0  0
  -21.4140   -4.9960   24.8860 C   0  0  0  0  0  0  0  0  0  0  0  0
  -21.9610   -4.4190   23.7260 C   0  0  0  0  0  3  0  0  0  0  0  0
  -22.1450   -5.2010   22.5740 C   0  0  0  0  0  0  0  0  0  0  0  0
  -22.6540   -4.6360   21.4520 F   0  0  0  0  0  0  0  0  0  0  0  0
  -21.2330   -4.2400   25.9930 F   0  0  0  0  0  0  0  0  0  0  0  0
  -22.9820  -13.9120   21.0870 C   0  0  0  0  0  0  0  0  0  0  0  0
  -22.2360  -13.2320   21.9510 N   0  0  0  0  0  0  0  0  0  0  0  0
  -22.5500  -14.9190   20.5280 O   0  0  0  0  0  0  0  0  0  0  0  0
  -22.5970  -12.4150   22.4220 H   0  0  0  0  0  0  0  0  0  0  0  0
  -21.2910  -13.5300   22.1410 H   0  0  0  0  0  0  0  0  0  0  0  0
  -25.6210  -15.5960   20.3600 N   0  0  0  0  0  0  0  0  0  0  0  0
  -24.8480  -16.2490   20.4460 H   0  0  0  0  0  0  0  0  0  0  0  0
  -26.4780  -16.0400   20.0590 H   0  0  0  0  0  0  0  0  0  0  0  0
  -27.1450  -23.0930   21.8920 C   0  0  0  0  0  2  0  0  0  0  0  0
  -25.6730  -23.0150   21.9490 N   0  0  0  0  0  4  0  0  0  0  0  0
  -25.2530  -23.5410   21.2030 H   0  0  0  0  0  0  0  0  0  0  0  0
  -25.3440  -23.3920   22.8220 H   0  0  0  0  0  0  0  0  0  0  0  0
  -25.3580  -22.0650   21.8910 H   0  0  0  0  0  0  0  0  0  0  0  0
  -28.6710  -24.8760   19.3250 C   0  0  0  0  0  2  0  0  0  0  0  0
  -28.6610  -26.4420   19.7700 O   0  0  0  0  0  0  0  0  0  0  0  0
  -24.6220  -31.8590   22.9910 C   0  0  0  0  0  0  0  0  0  0  0  0
  -27.5710  -27.4410   19.7000 C   0  0  0  0  0  0  0  0  0  0  0  0
  -23.5580  -30.5030   21.2330 C   0  0  0  0  0  3  0  0  0  0  0  0
  -25.1410  -29.1220   19.7290 C   0  0  0  0  0  0  0  0  0  0  0  0
  -26.1000  -30.9170   21.1550 C   0  0  0  0  0  2  0  0  0  0  0  0
  -26.2800  -29.5700   20.4080 C   0  0  0  0  0  0  0  0  0  0  0  0
  -27.4850  -28.7460   20.3790 C   0  0  0  0  0  3  0  0  0  0  0  0
  -26.4000  -27.1430   18.9670 C   0  0  0  0  0  3  0  0  0  0  0  0
  -25.2220  -27.9310   18.9910 C   0  0  0  0  0  3  0  0  0  0  0  0
  -23.8550  -29.9400   19.8160 C   0  0  0  0  0  2  0  0  0  0  0  0
  -24.7780  -31.1160   21.8490 N   0  0  0  0  0  0  0  0  0  0  0  0
  -23.5070  -32.0300   23.5080 O   0  0  0  0  0  0  0  0  0  0  0  0
  -22.9280  -29.3910   22.1120 C   0  0  0  0  0  0  0  0  0  0  0  0
  -21.6000  -29.1990   22.0110 N   0  0  0  0  0  0  0  0  0  0  0  0
  -23.6400  -28.7070   22.8540 O   0  0  0  0  0  0  0  0  0  0  0  0
  -21.0780  -29.8050   21.3940 H   0  0  0  0  0  0  0  0  0  0  0  0
  -18.2620  -27.8750   22.5250 C   0  0  0  0  0  0  0  0  0  0  0  0
  -20.8270  -28.1610   22.7040 C   0  0  0  0  0  3  0  0  0  0  0  0
  -20.9260  -26.8060   21.9630 C   0  0  0  0  0  2  0  0  0  0  0  0
  -19.7820  -26.5770   20.9710 C   0  0  0  0  0  2  0  0  0  0  0  0
  -18.4290  -26.6190   21.6860 C   0  0  0  0  0  2  0  0  0  0  0  0
  -19.3880  -28.6080   22.9890 C   0  0  0  0  0  0  0  0  0  0  0  0
  -19.1760  -29.7860   23.7360 C   0  0  0  0  0  3  0  0  0  0  0  0
  -17.8710  -30.2320   24.0230 C   0  0  0  0  0  3  0  0  0  0  0  0
  -16.7620  -29.4940   23.5740 C   0  0  0  0  0  3  0  0  0  0  0  0
  -16.9570  -28.3180   22.8290 C   0  0  0  0  0  3  0  0  0  0  0  0
  -25.8340  -32.5420   23.6940 C   0  0  0  0  0  3  0  0  0  0  0  0
  -25.4560  -33.9310   24.0010 N   0  0  0  0  0  0  0  0  0  0  0  0
  -25.8200  -35.0040   23.2850 C   0  0  0  0  0  0  0  0  0  0  0  0
  -26.5730  -34.9300   22.3100 O   0  0  0  0  0  0  0  0  0  0  0  0
  -24.8040  -34.0630   24.7610 H   0  0  0  0  0  0  0  0  0  0  0  0
  -24.0760  -36.7590   22.8120 C   0  0  0  0  0  1  0  0  0  0  0  0
  -25.2590  -36.3760   23.7160 C   0  0  0  0  0  3  0  0  0  0  0  0
  -27.2910  -37.3150   24.7270 C   0  0  0  0  0  1  0  0  0  0  0  0
  -26.2690  -37.4580   23.6950 N   0  0  0  0  0  0  0  0  0  0  0  0
  -25.8250  -38.3640   23.8120 H   0  0  0  0  0  0  0  0  0  0  0  0
  -26.2850  -31.7990   25.0120 C   0  0  1  0  0  0  0  0  0  0  0  0
  -25.1310  -31.5530   26.0140 C   0  0  0  0  0  1  0  0  0  0  0  0
  -26.9220  -30.4310   24.6810 C   0  0  0  0  0  1  0  0  0  0  0  0
  -27.3760  -32.6280   25.7320 C   0  0  0  0  0  1  0  0  0  0  0  0
  2  5  1  0
  2  3  1  0
  3  6  1  0
  3  1  1  0
  4  1  1  0
  4 44  1  0
  5 49  1  0
  5  4  1  0
  6  7  1  0
  8 14  1  0
  8  7  1  0
  9 14  1  0
 10 11  1  0
 10  9  1  0
 12 11  1  0
 12 19  1  0
 12 13  1  0
 14 13  1  0
 15  8  2  0
 16 17  2  0
 17 36  1  0
 18 17  1  0
 18 21  1  0
 19 16  1  0
 19 20  1  0
 20 18  2  0
 21 22  1  0
 22 23  2  0
 24 27  1  0
 24 23  1  0
 25 24  2  0
 26 25  1  0
 26 21  2  0
 27 28  1  0
 28 33  2  0
 28 29  1  0
 29 30  2  0
 31 30  1  0
 31 35  1  0
 32 31  2  0
 33 32  1  0
 34 33  1  0
 36 37  1  0
 37 40  1  0
 37 39  1  0
 38 36  2  0
 41 42  1  0
 41 16  1  0
 43 41  1  0
 44 45  1  0
 45 47  1  0
 46 45  1  0
 48 45  1  0
 49 50  1  0
 51 62  2  0
 52 50  1  0
 52 57  1  0
 53 61  1  0
 53 63  1  0
 54 60  1  0
 54 56  1  0
 55 61  1  0
 56 55  1  0
 57 56  2  0
 58 59  1  0
 58 52  2  0
 59 54  2  0
 60 53  1  0
 61 51  1  0
 63 65  2  0
 64 63  1  0
 66 64  1  0
 67 76  2  0
 67 72  1  0
 68 64  1  0
 68 72  1  0
 69 68  1  0
 70 71  1  0
 70 69  1  0
 71 67  1  0
 72 73  2  0
 73 74  1  0
 75 74  2  0
 76 75  1  0
 77 51  1  0
 77 78  1  0
 77 87  1  0
 78 81  1  0
 79 83  1  0
 79 78  1  0
 80 79  2  0
 83 82  1  0
 85 83  1  0
 85 86  1  0
 85 84  1  0
 87 90  1  1
 87 88  1  0
 89 87  1  0
M  ISO  4   7 100   8 100  49 101  50 101
M  END
>  <TORSDO>  (71) 
F 21

>  <SCORE>  (71) 
-14.425

>  <name>  (71) 
71

>  <ligand_id>  (71) 
71

>  <original_smiles>  (71) 
[H]c1c([H])c([H])c2c(c1[H])C([H])([H])C([H])([H])C([H])([H])C2([H])N([H])C(=O)C1([H])N(C(=O)C([H])(N([H])C(=O)C([H])(N([H])C([H])([H])[H])C([H])([H])[H])C(C([H])([H])[H])(C([H])([H])[H])C([H])([H])[H])C([H])([H])c2c([H])c(OC([H])([H])C3([H])C([H])([H])C([H])(C([H])([H])C([H])([H])C(=O)N4C([H])([H])C([H])([H])C([H])([H])C([H])(n5nc(-c6c([H])c([H])c(Oc7c([H])c([H])c(F)c([H])c7F)c([H])c6[H])c(C(=O)N([H])[H])c5N([H])[H])C4([H])[H])C([H])([H])C3([H])C([H])([H])[N+]([H])([H])[H])c([H])c([H])c2C1([H])[H]

>  <smiles>  (71) 
[H]c1c([H])c([H])c2c(c1[H])C([H])([H])C([H])([H])C([H])([H])C2([H])N([H])C(=O)C1([H])N(C(=O)C([H])(N([H])C(=O)C([H])(N([H])C([H])([H])[H])C([H])([H])[H])C(C([H])([H])[H])(C([H])([H])[H])C([H])([H])[H])C([H])([H])c2c([H])c(OC([H])([H])C3([H])C([H])([H])C([H])(C([H])([H])C([H])([H])C(=O)N4C([H])([H])C([H])([H])C([H])([H])C([H])(n5nc(-c6c([H])c([H])c(Oc7c([H])c([H])c(F)c([H])c7F)c([H])c6[H])c(C(=O)N([H])[H])c5N([H])[H])C4([H])[H])C([H])([H])C3([H])C([H])([H])[N+]([H])([H])[H])c([H])c([H])c2C1([H])[H]

$$$$
72:0:0
     RDKit          3D

 88 96  0  0  1  0  0  0  0  0999 V2000
  -28.6740  -22.2540   21.7430 C   0  0  0  0  0  2  0  0  0  0  0  0
  -29.0460  -20.6800   21.7450 C   0  0  0  0  0  2  0  0  0  0  0  0
  -29.2620  -21.5120   19.5520 C   0  0  0  0  0  2  0  0  0  0  0  0
  -28.4550  -22.7850   20.3000 C   0  0  0  0  0  3  0  0  0  0  0  0
  -29.1260  -20.0080   20.3120 C   0  0  0  0  0  3  0  0  0  0  0  0
  -30.2830  -18.4350   18.5140 C   0  0  0  0  0  1  0  0  0  0  0  0
  -31.4170  -18.7940   20.7210 C   0  0  0  0  0  1  0  0  0  0  0  0
  -30.0620  -18.5060   20.0480 C   0  0  1  0  0  0  0  0  0  0  0  0
  -29.7030  -16.8220   20.4860 C   0  0  0  0  0  2  0  0  0  0  0  0
  -30.5340  -15.3180   20.2060 C   0  0  0  0  0  0  0  0  0  0  0  0
  -30.5160  -12.9010   19.2890 C   0  0  0  0  0  2  0  0  0  0  0  0
  -29.5790  -12.7640   18.0610 C   0  0  0  0  0  2  0  0  0  0  0  0
  -28.1290  -12.4870   18.5030 C   0  0  0  0  0  2  0  0  0  0  0  0
  -27.6960  -13.4210   19.6600 C   0  0  0  0  0  3  0  0  0  0  0  0
  -28.7540  -13.5190   20.7800 C   0  0  0  0  0  2  0  0  0  0  0  0
  -30.0020  -14.0060   20.1730 N   0  0  0  0  0  0  0  0  0  0  0  0
  -31.7350  -15.3480   19.9050 O   0  0  0  0  0  0  0  0  0  0  0  0
  -25.3230  -13.9580   20.4310 C   0  0  0  0  0  0  0  0  0  0  0  0
  -24.2700  -13.1700   20.8020 C   0  0  0  0  0  0  0  0  0  0  0  0
  -24.7540  -11.8260   20.7700 C   0  0  0  0  0  0  0  0  0  0  0  0
  -26.3730  -13.0950   20.1780 N   0  0  0  0  0  0  0  0  0  0  0  0
  -26.0440  -11.8040   20.4500 N   0  0  0  0  0  0  0  0  0  0  0  0
  -24.0390  -10.5560   20.9660 C   0  0  0  0  0  0  0  0  0  0  0  0
  -24.4660   -9.6050   21.9200 C   0  0  0  0  0  3  0  0  0  0  0  0
  -23.7510   -8.4010   22.1010 C   0  0  0  0  0  3  0  0  0  0  0  0
  -22.5950   -8.1410   21.3300 C   0  0  0  0  0  0  0  0  0  0  0  0
  -22.1870   -9.0780   20.3650 C   0  0  0  0  0  3  0  0  0  0  0  0
  -22.9020  -10.2730   20.1810 C   0  0  0  0  0  3  0  0  0  0  0  0
  -21.8500   -6.9890   21.4200 O   0  0  0  0  0  0  0  0  0  0  0  0
  -21.7660   -6.2760   22.5890 C   0  0  0  0  0  0  0  0  0  0  0  0
  -21.2700   -6.8520   23.7780 C   0  0  0  0  0  3  0  0  0  0  0  0
  -21.1360   -6.0640   24.9400 C   0  0  0  0  0  3  0  0  0  0  0  0
  -21.4860   -4.7010   24.9110 C   0  0  0  0  0  0  0  0  0  0  0  0
  -21.9780   -4.1250   23.7260 C   0  0  0  0  0  3  0  0  0  0  0  0
  -22.1140   -4.9090   22.5680 C   0  0  0  0  0  0  0  0  0  0  0  0
  -22.5660   -4.3460   21.4220 F   0  0  0  0  0  0  0  0  0  0  0  0
  -21.3510   -3.9410   26.0230 F   0  0  0  0  0  0  0  0  0  0  0  0
  -22.8680  -13.6320   21.0740 C   0  0  0  0  0  0  0  0  0  0  0  0
  -22.1480  -12.9280   21.9420 N   0  0  0  0  0  0  0  0  0  0  0  0
  -22.4230  -14.6570   20.5590 O   0  0  0  0  0  0  0  0  0  0  0  0
  -22.5190  -12.0990   22.3790 H   0  0  0  0  0  0  0  0  0  0  0  0
  -21.2080  -13.2210   22.1610 H   0  0  0  0  0  0  0  0  0  0  0  0
  -25.4720  -15.3310   20.2530 N   0  0  0  0  0  0  0  0  0  0  0  0
  -24.6970  -15.9750   20.3660 H   0  0  0  0  0  0  0  0  0  0  0  0
  -26.3170  -15.7810   19.9320 H   0  0  0  0  0  0  0  0  0  0  0  0
  -28.0770  -24.4690   18.3000 C   0  0  0  0  0  1  0  0  0  0  0  0
  -28.0110  -24.4570   19.8400 C   0  0  0  0  0  3  0  0  0  0  0  0
  -28.2330  -26.0090   20.2730 O   0  0  0  0  0  0  0  0  0  0  0  0
  -24.6410  -31.9130   23.2140 C   0  0  0  0  0  0  0  0  0  0  0  0
  -27.2190  -27.0930   20.1870 C   0  0  0  0  0  0  0  0  0  0  0  0
  -23.4460  -30.5140   21.5800 C   0  0  0  0  0  3  0  0  0  0  0  0
  -24.9010  -28.9340   20.1510 C   0  0  0  0  0  0  0  0  0  0  0  0
  -26.0080  -30.7570   21.4150 C   0  0  0  0  0  2  0  0  0  0  0  0
  -26.0890  -29.3500   20.7650 C   0  0  0  0  0  0  0  0  0  0  0  0
  -27.2430  -28.4480   20.7660 C   0  0  0  0  0  3  0  0  0  0  0  0
  -25.9980  -26.8250   19.5260 C   0  0  0  0  0  3  0  0  0  0  0  0
  -24.8780  -27.6910   19.5080 C   0  0  0  0  0  3  0  0  0  0  0  0
  -23.6720  -29.8430   20.2020 C   0  0  0  0  0  2  0  0  0  0  0  0
  -24.7190  -31.0820   22.1270 N   0  0  0  0  0  0  0  0  0  0  0  0
  -23.5520  -32.1970   23.7410 O   0  0  0  0  0  0  0  0  0  0  0  0
  -22.7690  -29.5070   22.5490 C   0  0  0  0  0  0  0  0  0  0  0  0
  -21.4420  -29.3240   22.4270 N   0  0  0  0  0  0  0  0  0  0  0  0
  -23.4450  -28.8840   23.3730 O   0  0  0  0  0  0  0  0  0  0  0  0
  -20.9530  -29.8870   21.7440 H   0  0  0  0  0  0  0  0  0  0  0  0
  -18.0740  -28.0830   22.9270 C   0  0  0  0  0  0  0  0  0  0  0  0
  -20.6290  -28.3790   23.1990 C   0  0  0  0  0  3  0  0  0  0  0  0
  -20.7510  -26.9470   22.6280 C   0  0  0  0  0  2  0  0  0  0  0  0
  -19.6550  -26.6070   21.6140 C   0  0  0  0  0  2  0  0  0  0  0  0
  -18.2700  -26.7350   22.2560 C   0  0  0  0  0  2  0  0  0  0  0  0
  -19.1830  -28.8610   23.3580 C   0  0  0  0  0  0  0  0  0  0  0  0
  -18.9470  -30.1190   23.9520 C   0  0  0  0  0  3  0  0  0  0  0  0
  -17.6360  -30.6020   24.1230 C   0  0  0  0  0  3  0  0  0  0  0  0
  -16.5430  -29.8200   23.7100 C   0  0  0  0  0  3  0  0  0  0  0  0
  -16.7630  -28.5660   23.1130 C   0  0  0  0  0  3  0  0  0  0  0  0
  -25.9080  -32.5590   23.8450 C   0  0  0  0  0  3  0  0  0  0  0  0
  -26.4170  -31.8000   25.1310 C   0  0  1  0  0  0  0  0  0  0  0  0
  -25.3140  -31.5660   26.1900 C   0  0  0  0  0  1  0  0  0  0  0  0
  -27.0110  -30.4220   24.7530 C   0  0  0  0  0  1  0  0  0  0  0  0
  -27.5660  -32.6000   25.7940 C   0  0  0  0  0  1  0  0  0  0  0  0
  -25.5890  -33.9590   24.1720 N   0  0  0  0  0  0  0  0  0  0  0  0
  -25.9140  -35.0190   23.4210 C   0  0  0  0  0  0  0  0  0  0  0  0
  -26.5780  -34.9230   22.3860 O   0  0  0  0  0  0  0  0  0  0  0  0
  -25.0020  -34.1050   24.9800 H   0  0  0  0  0  0  0  0  0  0  0  0
  -24.1740  -36.8090   23.0900 C   0  0  0  0  0  1  0  0  0  0  0  0
  -25.4210  -36.4050   23.8920 C   0  0  0  0  0  3  0  0  0  0  0  0
  -27.5550  -37.3020   24.7120 C   0  0  0  0  0  1  0  0  0  0  0  0
  -26.4470  -37.4620   23.7750 N   0  0  0  0  0  0  0  0  0  0  0  0
  -26.0390  -38.3780   23.9310 H   0  0  0  0  0  0  0  0  0  0  0  0
  1  2  1  0
  3  4  1  0
  3  5  1  0
  4 47  1  0
  4  1  1  0
  5  8  1  0
  5  2  1  0
  8  6  1  6
  8  9  1  0
  8  7  1  0
 10  9  1  0
 11 16  1  0
 12 13  1  0
 12 11  1  0
 14 13  1  0
 14 21  1  0
 14 15  1  0
 16 10  1  0
 16 15  1  0
 17 10  2  0
 18 19  2  0
 19 38  1  0
 20 19  1  0
 20 23  1  0
 21 18  1  0
 21 22  1  0
 22 20  2  0
 23 24  1  0
 24 25  2  0
 26 29  1  0
 26 25  1  0
 27 26  2  0
 28 27  1  0
 28 23  2  0
 29 30  1  0
 30 31  1  0
 31 32  2  0
 33 32  1  0
 33 37  1  0
 34 33  2  0
 35 30  2  0
 35 34  1  0
 36 35  1  0
 38 39  1  0
 39 42  1  0
 39 41  1  0
 40 38  2  0
 43 44  1  0
 43 18  1  0
 45 43  1  0
 47 46  1  0
 47 48  1  0
 49 60  2  0
 50 48  1  0
 50 55  1  0
 51 59  1  0
 51 61  1  0
 52 58  1  0
 52 54  1  0
 53 59  1  0
 54 55  2  0
 54 53  1  0
 56 50  2  0
 57 56  1  0
 57 52  2  0
 58 51  1  0
 59 49  1  0
 61 63  2  0
 62 61  1  0
 64 62  1  0
 65 74  2  0
 65 70  1  0
 66 62  1  0
 66 70  1  0
 67 66  1  0
 68 69  1  0
 68 67  1  0
 69 65  1  0
 70 71  2  0
 71 72  1  0
 73 72  2  0
 74 73  1  0
 75 49  1  0
 75 80  1  0
 75 76  1  0
 76 79  1  1
 76 77  1  0
 78 76  1  0
 80 83  1  0
 81 85  1  0
 81 80  1  0
 82 81  2  0
 85 84  1  0
 87 85  1  0
 87 88  1  0
 87 86  1  0
M  ISO  4   9 100  10 100  47 101  48 101
M  END
>  <TORSDO>  (72) 
F 19

>  <SCORE>  (72) 
-15.771

>  <name>  (72) 
72

>  <ligand_id>  (72) 
72

>  <original_smiles>  (72) 
[H]c1c([H])c([H])c2c(c1[H])C([H])([H])C([H])([H])C([H])([H])C2([H])N([H])C(=O)C1([H])N(C(=O)C([H])(N([H])C(=O)C([H])(N([H])C([H])([H])[H])C([H])([H])[H])C(C([H])([H])[H])(C([H])([H])[H])C([H])([H])[H])C([H])([H])c2c([H])c(OC([H])(C([H])([H])[H])C3([H])C([H])([H])C([H])([H])C([H])(C(C([H])([H])[H])(C([H])([H])[H])C([H])([H])C(=O)N4C([H])([H])C([H])([H])C([H])([H])C([H])(n5nc(-c6c([H])c([H])c(Oc7c([H])c([H])c(F)c([H])c7F)c([H])c6[H])c(C(=O)N([H])[H])c5N([H])[H])C4([H])[H])C3([H])[H])c([H])c([H])c2C1([H])[H]

>  <smiles>  (72) 
[H]c1c([H])c([H])c2c(c1[H])C([H])([H])C([H])([H])C([H])([H])C2([H])N([H])C(=O)C1([H])N(C(=O)C([H])(N([H])C(=O)C([H])(N([H])C([H])([H])[H])C([H])([H])[H])C(C([H])([H])[H])(C([H])([H])[H])C([H])([H])[H])C([H])([H])c2c([H])c(OC([H])(C([H])([H])[H])C3([H])C([H])([H])C([H])([H])C([H])(C(C([H])([H])[H])(C([H])([H])[H])C([H])([H])C(=O)N4C([H])([H])C([H])([H])C([H])([H])C([H])(n5nc(-c6c([H])c([H])c(Oc7c([H])c([H])c(F)c([H])c7F)c([H])c6[H])c(C(=O)N([H])[H])c5N([H])[H])C4([H])[H])C3([H])[H])c([H])c([H])c2C1([H])[H]

$$$$
73:0:0
     RDKit          3D

 90 98  0  0  1  0  0  0  0  0999 V2000
  -30.1170  -18.9120   19.4300 C   0  0  0  0  0  2  0  0  0  0  0  0
  -29.7440  -19.7110   21.5630 C   0  0  0  0  0  2  0  0  0  0  0  0
  -30.2090  -17.3500   20.3000 C   0  0  0  0  0  3  0  0  0  0  0  0
  -29.9850  -20.5170   20.2230 C   0  0  0  0  0  3  0  0  0  0  0  0
  -30.4880  -18.2300   21.6050 C   0  0  0  0  0  3  0  0  0  0  0  0
  -30.9390  -15.6660   19.9840 C   0  0  0  0  0  0  0  0  0  0  0  0
  -30.8650  -13.2160   18.9410 C   0  0  0  0  0  2  0  0  0  0  0  0
  -29.8870  -13.0250   17.7440 C   0  0  0  0  0  2  0  0  0  0  0  0
  -28.4640  -12.7100   18.2340 C   0  0  0  0  0  2  0  0  0  0  0  0
  -28.0700  -13.6290   19.4120 C   0  0  0  0  0  3  0  0  0  0  0  0
  -29.1670  -13.7380   20.4930 C   0  0  0  0  0  2  0  0  0  0  0  0
  -30.3690  -14.3310   19.8610 N   0  0  0  0  0  0  0  0  0  0  0  0
  -32.1410  -15.5870   19.6750 O   0  0  0  0  0  0  0  0  0  0  0  0
  -25.7570  -14.1980   20.3000 C   0  0  0  0  0  0  0  0  0  0  0  0
  -24.7020  -13.4330   20.7040 C   0  0  0  0  0  0  0  0  0  0  0  0
  -25.1420  -12.0750   20.6230 C   0  0  0  0  0  0  0  0  0  0  0  0
  -26.7670  -13.3110   19.9780 N   0  0  0  0  0  0  0  0  0  0  0  0
  -26.4160  -12.0250   20.2460 N   0  0  0  0  0  0  0  0  0  0  0  0
  -24.3990  -10.8250   20.8250 C   0  0  0  0  0  0  0  0  0  0  0  0
  -24.7960   -9.8770   21.7930 C   0  0  0  0  0  3  0  0  0  0  0  0
  -24.0520   -8.6920   21.9820 C   0  0  0  0  0  3  0  0  0  0  0  0
  -22.8960   -8.4470   21.2040 C   0  0  0  0  0  0  0  0  0  0  0  0
  -22.5180   -9.3830   20.2260 C   0  0  0  0  0  3  0  0  0  0  0  0
  -23.2620  -10.5600   20.0350 C   0  0  0  0  0  3  0  0  0  0  0  0
  -22.1260   -7.3120   21.3000 O   0  0  0  0  0  0  0  0  0  0  0  0
  -21.9480   -6.6630   22.4950 C   0  0  0  0  0  0  0  0  0  0  0  0
  -21.4030   -7.3130   23.6220 C   0  0  0  0  0  3  0  0  0  0  0  0
  -21.1690   -6.5900   24.8090 C   0  0  0  0  0  3  0  0  0  0  0  0
  -21.4720   -5.2160   24.8690 C   0  0  0  0  0  0  0  0  0  0  0  0
  -22.0110   -4.5650   23.7450 C   0  0  0  0  0  3  0  0  0  0  0  0
  -22.2450   -5.2860   22.5600 C   0  0  0  0  0  0  0  0  0  0  0  0
  -22.7450   -4.6490   21.4750 F   0  0  0  0  0  0  0  0  0  0  0  0
  -21.2420   -4.5190   26.0060 F   0  0  0  0  0  0  0  0  0  0  0  0
  -23.3280  -13.9310   21.0420 C   0  0  0  0  0  0  0  0  0  0  0  0
  -22.6310  -13.2530   21.9460 N   0  0  0  0  0  0  0  0  0  0  0  0
  -22.8820  -14.9620   20.5370 O   0  0  0  0  0  0  0  0  0  0  0  0
  -23.0060  -12.4240   22.3820 H   0  0  0  0  0  0  0  0  0  0  0  0
  -21.7080  -13.5690   22.2090 H   0  0  0  0  0  0  0  0  0  0  0  0
  -25.9390  -15.5710   20.1500 N   0  0  0  0  0  0  0  0  0  0  0  0
  -25.1830  -16.2300   20.3030 H   0  0  0  0  0  0  0  0  0  0  0  0
  -26.7630  -16.0000   19.7470 H   0  0  0  0  0  0  0  0  0  0  0  0
  -30.4210  -22.7200   18.7400 C   0  0  0  0  0  1  0  0  0  0  0  0
  -29.3330  -22.2670   19.7210 C   0  0  0  0  0  3  0  0  0  0  0  0
  -28.7230  -23.9540   20.4000 C   0  0  0  0  0  2  0  0  0  0  0  0
  -28.7010  -25.6600   20.0340 O   0  0  0  0  0  0  0  0  0  0  0  0
  -24.7670  -31.6080   23.0520 C   0  0  0  0  0  0  0  0  0  0  0  0
  -27.6280  -26.7660   20.0460 C   0  0  0  0  0  0  0  0  0  0  0  0
  -23.6810  -30.1590   21.3890 C   0  0  0  0  0  3  0  0  0  0  0  0
  -25.2380  -28.6270   19.9730 C   0  0  0  0  0  0  0  0  0  0  0  0
  -26.2430  -30.4740   21.2900 C   0  0  0  0  0  2  0  0  0  0  0  0
  -26.4030  -29.0600   20.6190 C   0  0  0  0  0  0  0  0  0  0  0  0
  -27.5870  -28.1610   20.6180 C   0  0  0  0  0  3  0  0  0  0  0  0
  -26.4150  -26.5270   19.3500 C   0  0  0  0  0  3  0  0  0  0  0  0
  -25.2780  -27.3870   19.3150 C   0  0  0  0  0  3  0  0  0  0  0  0
  -23.9730  -29.4980   20.0110 C   0  0  0  0  0  2  0  0  0  0  0  0
  -24.9190  -30.7790   21.9640 N   0  0  0  0  0  0  0  0  0  0  0  0
  -23.6540  -31.8390   23.5530 O   0  0  0  0  0  0  0  0  0  0  0  0
  -23.0210  -29.1270   22.3400 C   0  0  0  0  0  0  0  0  0  0  0  0
  -21.7050  -28.8790   22.1850 N   0  0  0  0  0  0  0  0  0  0  0  0
  -23.7010  -28.5480   23.1930 O   0  0  0  0  0  0  0  0  0  0  0  0
  -21.2030  -29.4040   21.4810 H   0  0  0  0  0  0  0  0  0  0  0  0
  -18.4090  -27.4030   22.5930 C   0  0  0  0  0  0  0  0  0  0  0  0
  -20.9300  -27.8820   22.9340 C   0  0  0  0  0  3  0  0  0  0  0  0
  -21.1660  -26.4600   22.3730 C   0  0  0  0  0  2  0  0  0  0  0  0
  -20.1290  -26.0450   21.3250 C   0  0  0  0  0  2  0  0  0  0  0  0
  -18.7200  -26.0730   21.9220 C   0  0  0  0  0  2  0  0  0  0  0  0
  -19.4470  -28.2590   23.0500 C   0  0  0  0  0  0  0  0  0  0  0  0
  -19.1030  -29.4950   23.6370 C   0  0  0  0  0  3  0  0  0  0  0  0
  -17.7550  -29.8820   23.7680 C   0  0  0  0  0  3  0  0  0  0  0  0
  -16.7330  -29.0260   23.3240 C   0  0  0  0  0  3  0  0  0  0  0  0
  -17.0600  -27.7860   22.7440 C   0  0  0  0  0  3  0  0  0  0  0  0
  -25.9860  -32.3240   23.7120 C   0  0  0  0  0  3  0  0  0  0  0  0
  -26.5200  -31.5760   24.9980 C   0  0  1  0  0  0  0  0  0  0  0  0
  -25.4200  -31.2710   26.0430 C   0  0  0  0  0  1  0  0  0  0  0  0
  -27.1870  -30.2330   24.6240 C   0  0  0  0  0  1  0  0  0  0  0  0
  -27.6130  -32.4310   25.6830 C   0  0  0  0  0  1  0  0  0  0  0  0
  -25.5760  -33.6970   24.0690 N   0  0  0  0  0  0  0  0  0  0  0  0
  -25.8510  -34.7960   23.3540 C   0  0  0  0  0  0  0  0  0  0  0  0
  -26.5340  -34.7660   22.3280 O   0  0  0  0  0  0  0  0  0  0  0  0
  -24.9650  -33.7900   24.8660 H   0  0  0  0  0  0  0  0  0  0  0  0
  -24.0160  -36.4990   23.0530 C   0  0  0  0  0  1  0  0  0  0  0  0
  -25.2810  -36.1410   23.8510 C   0  0  0  0  0  3  0  0  0  0  0  0
  -27.3560  -37.1380   24.7110 C   0  0  0  0  0  1  0  0  0  0  0  0
  -26.2470  -37.2600   23.7680 N   0  0  0  0  0  0  0  0  0  0  0  0
  -25.7840  -38.1490   23.9390 H   0  0  0  0  0  0  0  0  0  0  0  0
  -30.1530  -17.4630   22.9090 C   0  0  0  0  0  2  0  0  0  0  0  0
  -30.9300  -17.9140   24.0800 N   0  0  0  0  0  4  0  0  0  0  0  0
  -31.8940  -17.6450   23.9980 H   0  0  0  0  0  0  0  0  0  0  0  0
  -30.5690  -17.4810   24.9120 H   0  0  0  0  0  0  0  0  0  0  0  0
  -30.8830  -18.9080   24.2010 H   0  0  0  0  0  0  0  0  0  0  0  0
  1  4  1  0
  1  3  1  0
  2  5  1  0
  3  6  1  0
  3  5  1  0
  4 43  1  0
  4  2  1  0
  5 86  1  0
  7 12  1  0
  8  9  1  0
  8  7  1  0
 10  9  1  0
 10 17  1  0
 10 11  1  0
 12  6  1  0
 12 11  1  0
 13  6  2  0
 14 15  2  0
 15 34  1  0
 16 15  1  0
 16 19  1  0
 17 18  1  0
 17 14  1  0
 18 16  2  0
 19 20  1  0
 20 21  2  0
 22 25  1  0
 22 21  1  0
 23 22  2  0
 24 23  1  0
 24 19  2  0
 25 26  1  0
 26 31  2  0
 26 27  1  0
 27 28  2  0
 28 29  1  0
 29 33  1  0
 30 29  2  0
 31 30  1  0
 32 31  1  0
 34 35  1  0
 35 38  1  0
 35 37  1  0
 36 34  2  0
 39 14  1  0
 39 40  1  0
 41 39  1  0
 43 42  1  0
 43 44  1  0
 45 47  1  0
 45 44  1  0
 46 57  2  0
 47 52  1  0
 48 56  1  0
 48 58  1  0
 49 55  1  0
 49 51  1  0
 50 56  1  0
 51 50  1  0
 52 51  2  0
 53 47  2  0
 54 53  1  0
 54 49  2  0
 55 48  1  0
 56 46  1  0
 58 60  2  0
 59 58  1  0
 61 59  1  0
 62 71  2  0
 62 67  1  0
 63 59  1  0
 63 67  1  0
 64 63  1  0
 65 66  1  0
 65 64  1  0
 66 62  1  0
 67 68  2  0
 68 69  1  0
 70 69  2  0
 71 70  1  0
 72 46  1  0
 72 77  1  0
 72 73  1  0
 73 76  1  1
 73 74  1  0
 75 73  1  0
 77 80  1  0
 78 82  1  0
 78 77  1  0
 79 78  2  0
 82 81  1  0
 84 82  1  0
 84 85  1  0
 84 83  1  0
 86 87  1  0
 87 90  1  0
 87 89  1  0
 88 87  1  0
M  ISO  4   3 100   6 100  44 101  45 101
M  END
>  <TORSDO>  (73) 
F 20

>  <SCORE>  (73) 
-13.379

>  <name>  (73) 
73

>  <ligand_id>  (73) 
73

>  <original_smiles>  (73) 
[H]c1c([H])c([H])c2c(c1[H])C([H])([H])C([H])([H])C([H])([H])C2([H])N([H])C(=O)C1([H])N(C(=O)C([H])(N([H])C(=O)C([H])(N([H])C([H])([H])[H])C([H])([H])[H])C(C([H])([H])[H])(C([H])([H])[H])C([H])([H])[H])C([H])([H])c2c([H])c(OC([H])([H])C([H])(C([H])([H])[H])C3([H])C([H])([H])C([H])(C(=O)N4C([H])([H])C([H])([H])C([H])([H])C([H])(n5nc(-c6c([H])c([H])c(Oc7c([H])c([H])c(F)c([H])c7F)c([H])c6[H])c(C(=O)N([H])[H])c5N([H])[H])C4([H])[H])C([H])(C([H])([H])[N+]([H])([H])[H])C3([H])[H])c([H])c([H])c2C1([H])[H]

>  <smiles>  (73) 
[H]c1c([H])c([H])c2c(c1[H])C([H])([H])C([H])([H])C([H])([H])C2([H])N([H])C(=O)C1([H])N(C(=O)C([H])(N([H])C(=O)C([H])(N([H])C([H])([H])[H])C([H])([H])[H])C(C([H])([H])[H])(C([H])([H])[H])C([H])([H])[H])C([H])([H])c2c([H])c(OC([H])([H])C([H])(C([H])([H])[H])C3([H])C([H])([H])C([H])(C(=O)N4C([H])([H])C([H])([H])C([H])([H])C([H])(n5nc(-c6c([H])c([H])c(Oc7c([H])c([H])c(F)c([H])c7F)c([H])c6[H])c(C(=O)N([H])[H])c5N([H])[H])C4([H])[H])C([H])(C([H])([H])[N+]([H])([H])[H])C3([H])[H])c([H])c([H])c2C1([H])[H]

$$$$
74:0:0
     RDKit          3D

 87 95  0  0  1  0  0  0  0  0999 V2000
  -28.3530  -22.6170   21.7680 C   0  0  0  0  0  2  0  0  0  0  0  0
  -28.0740  -24.1720   21.7800 C   0  0  0  0  0  2  0  0  0  0  0  0
  -28.9190  -23.5690   19.6640 C   0  0  0  0  0  2  0  0  0  0  0  0
  -28.5940  -22.1200   20.3200 C   0  0  0  0  0  3  0  0  0  0  0  0
  -28.0220  -24.7310   20.3380 C   0  0  0  0  0  3  0  0  0  0  0  0
  -28.2680  -26.2550   20.2230 O   0  0  0  0  0  0  0  0  0  0  0  0
  -24.6370  -31.8850   23.2440 C   0  0  0  0  0  0  0  0  0  0  0  0
  -27.1970  -27.2070   20.1890 C   0  0  0  0  0  0  0  0  0  0  0  0
  -23.4300  -30.4960   21.6010 C   0  0  0  0  0  3  0  0  0  0  0  0
  -24.8720  -28.9300   20.1710 C   0  0  0  0  0  0  0  0  0  0  0  0
  -25.9800  -30.7730   21.4250 C   0  0  0  0  0  2  0  0  0  0  0  0
  -26.0500  -29.3810   20.7770 C   0  0  0  0  0  0  0  0  0  0  0  0
  -27.2160  -28.5330   20.7720 C   0  0  0  0  0  3  0  0  0  0  0  0
  -25.9990  -26.8630   19.5260 C   0  0  0  0  0  3  0  0  0  0  0  0
  -24.8550  -27.6850   19.5320 C   0  0  0  0  0  3  0  0  0  0  0  0
  -23.6470  -29.8260   20.2190 C   0  0  0  0  0  2  0  0  0  0  0  0
  -24.7020  -31.0720   22.1460 N   0  0  0  0  0  0  0  0  0  0  0  0
  -23.5510  -32.1650   23.7760 O   0  0  0  0  0  0  0  0  0  0  0  0
  -22.7570  -29.4820   22.5610 C   0  0  0  0  0  0  0  0  0  0  0  0
  -21.4290  -29.3100   22.4370 N   0  0  0  0  0  0  0  0  0  0  0  0
  -23.4310  -28.8530   23.3800 O   0  0  0  0  0  0  0  0  0  0  0  0
  -20.9410  -29.8660   21.7490 H   0  0  0  0  0  0  0  0  0  0  0  0
  -18.0520  -28.1050   22.9360 C   0  0  0  0  0  0  0  0  0  0  0  0
  -20.6090  -28.3700   23.2070 C   0  0  0  0  0  3  0  0  0  0  0  0
  -20.7130  -26.9380   22.6330 C   0  0  0  0  0  2  0  0  0  0  0  0
  -19.6120  -26.6130   21.6170 C   0  0  0  0  0  2  0  0  0  0  0  0
  -18.2300  -26.7550   22.2610 C   0  0  0  0  0  2  0  0  0  0  0  0
  -19.1670  -28.8690   23.3680 C   0  0  0  0  0  0  0  0  0  0  0  0
  -18.9430  -30.1300   23.9610 C   0  0  0  0  0  3  0  0  0  0  0  0
  -17.6370  -30.6270   24.1290 C   0  0  0  0  0  3  0  0  0  0  0  0
  -16.5350  -29.8590   23.7120 C   0  0  0  0  0  3  0  0  0  0  0  0
  -16.7440  -28.6000   23.1230 C   0  0  0  0  0  3  0  0  0  0  0  0
  -25.9180  -32.5170   23.8680 C   0  0  0  0  0  3  0  0  0  0  0  0
  -26.4270  -31.7470   25.1470 C   0  0  1  0  0  0  0  0  0  0  0  0
  -25.3300  -31.5210   26.2140 C   0  0  0  0  0  1  0  0  0  0  0  0
  -27.0030  -30.3660   24.7610 C   0  0  0  0  0  1  0  0  0  0  0  0
  -27.5790  -32.5370   25.8090 C   0  0  0  0  0  1  0  0  0  0  0  0
  -25.6100  -33.9170   24.1990 N   0  0  0  0  0  0  0  0  0  0  0  0
  -25.9350  -34.9710   23.4390 C   0  0  0  0  0  0  0  0  0  0  0  0
  -26.5940  -34.8680   22.4000 O   0  0  0  0  0  0  0  0  0  0  0  0
  -25.0270  -34.0710   25.0090 H   0  0  0  0  0  0  0  0  0  0  0  0
  -24.2040  -36.7670   23.1080 C   0  0  0  0  0  1  0  0  0  0  0  0
  -25.4550  -36.3610   23.9020 C   0  0  0  0  0  3  0  0  0  0  0  0
  -27.6020  -37.2460   24.7020 C   0  0  0  0  0  1  0  0  0  0  0  0
  -26.4870  -37.4140   23.7730 N   0  0  0  0  0  0  0  0  0  0  0  0
  -26.0840  -38.3330   23.9250 H   0  0  0  0  0  0  0  0  0  0  0  0
  -29.5310  -20.7430   20.1090 C   0  0  0  0  0  2  0  0  0  0  0  0
  -27.7510  -18.8820   19.8340 C   0  0  0  0  0  1  0  0  0  0  0  0
  -29.1070  -19.1710   20.4980 C   0  0  0  0  0  3  0  0  0  0  0  0
  -30.0930  -17.8420   20.2400 C   0  0  0  0  0  3  0  0  0  0  0  0
  -29.7270  -16.2830   20.7160 C   0  0  0  0  0  3  0  0  0  0  0  0
  -30.5800  -14.9250   20.3460 C   0  0  0  0  0  0  0  0  0  0  0  0
  -30.4880  -12.5960   19.3670 C   0  0  0  0  0  2  0  0  0  0  0  0
  -29.5650  -12.6270   18.1260 C   0  0  0  0  0  2  0  0  0  0  0  0
  -28.0960  -12.4060   18.5360 C   0  0  0  0  0  2  0  0  0  0  0  0
  -27.6830  -13.3050   19.7320 C   0  0  0  0  0  3  0  0  0  0  0  0
  -28.7270  -13.2610   20.8690 C   0  0  0  0  0  2  0  0  0  0  0  0
  -30.0220  -13.6550   20.3000 N   0  0  0  0  0  0  0  0  0  0  0  0
  -31.7570  -15.0420   19.9900 O   0  0  0  0  0  0  0  0  0  0  0  0
  -25.2840  -13.8790   20.4410 C   0  0  0  0  0  0  0  0  0  0  0  0
  -24.2240  -13.0960   20.8110 C   0  0  0  0  0  0  0  0  0  0  0  0
  -24.7020  -11.7510   20.7960 C   0  0  0  0  0  0  0  0  0  0  0  0
  -26.3380  -13.0080   20.2140 N   0  0  0  0  0  0  0  0  0  0  0  0
  -25.9950  -11.7230   20.4920 N   0  0  0  0  0  0  0  0  0  0  0  0
  -23.9840  -10.4830   20.9900 C   0  0  0  0  0  0  0  0  0  0  0  0
  -24.4090   -9.5320   21.9430 C   0  0  0  0  0  3  0  0  0  0  0  0
  -23.6910   -8.3310   22.1250 C   0  0  0  0  0  3  0  0  0  0  0  0
  -22.5340   -8.0720   21.3520 C   0  0  0  0  0  0  0  0  0  0  0  0
  -22.1280   -9.0120   20.3890 C   0  0  0  0  0  3  0  0  0  0  0  0
  -22.8470  -10.2050   20.2050 C   0  0  0  0  0  3  0  0  0  0  0  0
  -21.7880   -6.9210   21.4420 O   0  0  0  0  0  0  0  0  0  0  0  0
  -21.7190   -6.1980   22.6050 C   0  0  0  0  0  0  0  0  0  0  0  0
  -21.2550   -6.7680   23.8110 C   0  0  0  0  0  3  0  0  0  0  0  0
  -21.1320   -5.9700   24.9660 C   0  0  0  0  0  3  0  0  0  0  0  0
  -21.4630   -4.6020   24.9170 C   0  0  0  0  0  0  0  0  0  0  0  0
  -21.9200   -4.0310   23.7170 C   0  0  0  0  0  3  0  0  0  0  0  0
  -22.0450   -4.8270   22.5640 C   0  0  0  0  0  0  0  0  0  0  0  0
  -22.4650   -4.2670   21.4040 F   0  0  0  0  0  0  0  0  0  0  0  0
  -21.3400   -3.8330   26.0250 F   0  0  0  0  0  0  0  0  0  0  0  0
  -22.8190  -13.5640   21.0660 C   0  0  0  0  0  0  0  0  0  0  0  0
  -22.0890  -12.8700   21.9350 N   0  0  0  0  0  0  0  0  0  0  0  0
  -22.3780  -14.5800   20.5340 O   0  0  0  0  0  0  0  0  0  0  0  0
  -22.4590  -12.0480   22.3900 H   0  0  0  0  0  0  0  0  0  0  0  0
  -21.1470  -13.1660   22.1490 H   0  0  0  0  0  0  0  0  0  0  0  0
  -25.4280  -15.2510   20.2590 N   0  0  0  0  0  0  0  0  0  0  0  0
  -24.6410  -15.8800   20.3720 H   0  0  0  0  0  0  0  0  0  0  0  0
  -26.2700  -15.7180   19.9460 H   0  0  0  0  0  0  0  0  0  0  0  0
  1  2  1  0
  3  4  1  0
  3  5  1  0
  4 47  1  0
  4  1  1  0
  5  6  1  0
  5  2  1  0
  7 18  2  0
  8  6  1  0
  8 13  1  0
  9 17  1  0
  9 19  1  0
 10 16  1  0
 10 12  1  0
 11 17  1  0
 12 11  1  0
 13 12  2  0
 14 15  1  0
 14  8  2  0
 15 10  2  0
 16  9  1  0
 17  7  1  0
 19 21  2  0
 20 19  1  0
 22 20  1  0
 23 32  2  0
 23 28  1  0
 24 20  1  0
 24 28  1  0
 25 24  1  0
 26 27  1  0
 26 25  1  0
 27 23  1  0
 28 29  2  0
 29 30  1  0
 31 30  2  0
 32 31  1  0
 33  7  1  0
 33 38  1  0
 33 34  1  0
 34 37  1  1
 34 35  1  0
 36 34  1  0
 38 41  1  0
 39 43  1  0
 39 38  1  0
 40 39  2  0
 43 42  1  0
 45 43  1  0
 45 46  1  0
 45 44  1  0
 47 49  1  0
 49 48  1  0
 50 49  1  0
 50 51  2  0
 52 51  1  0
 53 58  1  0
 54 55  1  0
 54 53  1  0
 56 55  1  0
 56 63  1  0
 56 57  1  0
 58 52  1  0
 58 57  1  0
 59 52  2  0
 60 61  2  0
 61 80  1  0
 62 61  1  0
 62 65  1  0
 63 60  1  0
 63 64  1  0
 64 62  2  0
 65 66  1  0
 66 67  2  0
 68 71  1  0
 68 67  1  0
 69 68  2  0
 70 69  1  0
 70 65  2  0
 71 72  1  0
 72 73  1  0
 73 74  2  0
 75 74  1  0
 75 79  1  0
 76 75  2  0
 77 72  2  0
 77 76  1  0
 78 77  1  0
 80 81  1  0
 81 84  1  0
 81 83  1  0
 82 80  2  0
 85 86  1  0
 85 60  1  0
 87 85  1  0
M  ISO  4   5 101   6 101  51 100  52 100
M  END
>  <TORSDO>  (74) 
F 20

>  <SCORE>  (74) 
-13.795

>  <name>  (74) 
74

>  <ligand_id>  (74) 
74

>  <original_smiles>  (74) 
[H]c1c([H])c([H])c2c(c1[H])C([H])([H])C([H])([H])C([H])([H])C2([H])N([H])C(=O)C1([H])N(C(=O)C([H])(N([H])C(=O)C([H])(N([H])C([H])([H])[H])C([H])([H])[H])C(C([H])([H])[H])(C([H])([H])[H])C([H])([H])[H])C([H])([H])c2c([H])c(OC3([H])C([H])([H])C([H])([H])C([H])(C([H])([H])C([H])(C([H])([H])[H])C([H])([H])C([H])([H])C(=O)N4C([H])([H])C([H])([H])C([H])([H])C([H])(n5nc(-c6c([H])c([H])c(Oc7c([H])c([H])c(F)c([H])c7F)c([H])c6[H])c(C(=O)N([H])[H])c5N([H])[H])C4([H])[H])C3([H])[H])c([H])c([H])c2C1([H])[H]

>  <smiles>  (74) 
[H]c1c([H])c([H])c2c(c1[H])C([H])([H])C([H])([H])C([H])([H])C2([H])N([H])C(=O)C1([H])N(C(=O)C([H])(N([H])C(=O)C([H])(N([H])C([H])([H])[H])C([H])([H])[H])C(C([H])([H])[H])(C([H])([H])[H])C([H])([H])[H])C([H])([H])c2c([H])c(OC3([H])C([H])([H])C([H])([H])C([H])(C([H])([H])C([H])(C([H])([H])[H])C([H])([H])C([H])([H])C(=O)N4C([H])([H])C([H])([H])C([H])([H])C([H])(n5nc(-c6c([H])c([H])c(Oc7c([H])c([H])c(F)c([H])c7F)c([H])c6[H])c(C(=O)N([H])[H])c5N([H])[H])C4([H])[H])C3([H])[H])c([H])c([H])c2C1([H])[H]

$$$$
75:0:0
     RDKit          3D

 86 94  0  0  1  0  0  0  0  0999 V2000
  -29.2960  -20.5410   21.2470 C   0  0  0  0  0  0  0  0  0  0  0  0
  -29.0140  -20.4250   19.2190 C   0  0  0  0  0  2  0  0  0  0  0  0
  -28.9800  -19.2450   20.3190 C   0  0  0  0  0  3  0  0  0  0  0  0
  -28.5750  -21.6070   20.2400 C   0  0  0  0  0  3  0  0  0  0  0  0
  -29.9370  -20.6840   22.2890 O   0  0  0  0  0  0  0  0  0  0  0  0
  -29.5990  -16.4510   20.4310 C   0  0  0  0  0  3  0  0  0  0  0  0
  -29.9040  -17.8440   20.2570 C   0  0  0  0  0  3  0  0  0  0  0  0
  -30.4810  -15.1550   20.2820 C   0  0  0  0  0  0  0  0  0  0  0  0
  -30.4040  -12.7730   19.3740 C   0  0  0  0  0  2  0  0  0  0  0  0
  -29.4660  -12.7050   18.1440 C   0  0  0  0  0  2  0  0  0  0  0  0
  -28.0070  -12.4710   18.5800 C   0  0  0  0  0  2  0  0  0  0  0  0
  -27.5940  -13.3920   19.7580 C   0  0  0  0  0  3  0  0  0  0  0  0
  -28.6550  -13.4280   20.8760 C   0  0  0  0  0  2  0  0  0  0  0  0
  -29.9170  -13.8690   20.2680 N   0  0  0  0  0  0  0  0  0  0  0  0
  -31.6860  -15.1990   20.0030 O   0  0  0  0  0  0  0  0  0  0  0  0
  -25.2250  -13.9430   20.5460 C   0  0  0  0  0  0  0  0  0  0  0  0
  -24.1690  -13.1560   20.9150 C   0  0  0  0  0  0  0  0  0  0  0  0
  -24.6380  -11.8080   20.8540 C   0  0  0  0  0  0  0  0  0  0  0  0
  -26.2670  -13.0740   20.2710 N   0  0  0  0  0  0  0  0  0  0  0  0
  -25.9250  -11.7830   20.5250 N   0  0  0  0  0  0  0  0  0  0  0  0
  -23.9170  -10.5410   21.0310 C   0  0  0  0  0  0  0  0  0  0  0  0
  -24.3430   -9.5710   21.9650 C   0  0  0  0  0  3  0  0  0  0  0  0
  -23.6200   -8.3700   22.1310 C   0  0  0  0  0  3  0  0  0  0  0  0
  -22.4580   -8.1290   21.3590 C   0  0  0  0  0  0  0  0  0  0  0  0
  -22.0510   -9.0860   20.4130 C   0  0  0  0  0  3  0  0  0  0  0  0
  -22.7750  -10.2800   20.2470 C   0  0  0  0  0  3  0  0  0  0  0  0
  -21.7080   -6.9790   21.4320 O   0  0  0  0  0  0  0  0  0  0  0  0
  -21.6190   -6.2520   22.5920 C   0  0  0  0  0  0  0  0  0  0  0  0
  -21.1040   -6.8080   23.7830 C   0  0  0  0  0  3  0  0  0  0  0  0
  -20.9640   -6.0040   24.9320 C   0  0  0  0  0  3  0  0  0  0  0  0
  -21.3290   -4.6460   24.8900 C   0  0  0  0  0  0  0  0  0  0  0  0
  -21.8370   -4.0890   23.7040 C   0  0  0  0  0  3  0  0  0  0  0  0
  -21.9780   -4.8880   22.5570 C   0  0  0  0  0  0  0  0  0  0  0  0
  -22.4480   -4.3420   21.4100 F   0  0  0  0  0  0  0  0  0  0  0  0
  -21.1870   -3.8710   25.9930 F   0  0  0  0  0  0  0  0  0  0  0  0
  -22.7740  -13.6250   21.2090 C   0  0  0  0  0  0  0  0  0  0  0  0
  -22.0540  -12.9100   22.0670 N   0  0  0  0  0  0  0  0  0  0  0  0
  -22.3300  -14.6600   20.7140 O   0  0  0  0  0  0  0  0  0  0  0  0
  -22.4260  -12.0730   22.4910 H   0  0  0  0  0  0  0  0  0  0  0  0
  -21.1180  -13.2070   22.3070 H   0  0  0  0  0  0  0  0  0  0  0  0
  -25.3800  -15.3170   20.3920 N   0  0  0  0  0  0  0  0  0  0  0  0
  -24.6090  -15.9620   20.5260 H   0  0  0  0  0  0  0  0  0  0  0  0
  -26.2160  -15.7690   20.0440 H   0  0  0  0  0  0  0  0  0  0  0  0
  -28.9700  -23.2820   20.2280 C   0  0  0  0  0  3  0  0  0  0  0  0
  -27.9050  -24.6210   20.0570 C   0  0  0  0  0  3  0  0  0  0  0  0
  -28.1810  -26.1770   20.1740 O   0  0  0  0  0  0  0  0  0  0  0  0
  -24.6120  -31.9350   23.2180 C   0  0  0  0  0  0  0  0  0  0  0  0
  -27.1360  -27.1900   20.1330 C   0  0  0  0  0  0  0  0  0  0  0  0
  -23.3880  -30.5440   21.5930 C   0  0  0  0  0  3  0  0  0  0  0  0
  -24.8140  -28.9680   20.1420 C   0  0  0  0  0  0  0  0  0  0  0  0
  -25.9440  -30.7980   21.3930 C   0  0  0  0  0  2  0  0  0  0  0  0
  -26.0060  -29.4030   20.7350 C   0  0  0  0  0  0  0  0  0  0  0  0
  -27.1670  -28.5320   20.7090 C   0  0  0  0  0  3  0  0  0  0  0  0
  -25.9120  -26.8680   19.5050 C   0  0  0  0  0  3  0  0  0  0  0  0
  -24.7830  -27.7170   19.5100 C   0  0  0  0  0  3  0  0  0  0  0  0
  -23.5910  -29.8720   20.2090 C   0  0  0  0  0  2  0  0  0  0  0  0
  -24.6690  -31.1150   22.1230 N   0  0  0  0  0  0  0  0  0  0  0  0
  -23.5340  -32.2180   23.7620 O   0  0  0  0  0  0  0  0  0  0  0  0
  -22.7220  -29.5360   22.5640 C   0  0  0  0  0  0  0  0  0  0  0  0
  -21.3940  -29.3510   22.4430 N   0  0  0  0  0  0  0  0  0  0  0  0
  -23.4020  -28.9230   23.3900 O   0  0  0  0  0  0  0  0  0  0  0  0
  -20.8990  -29.8990   21.7540 H   0  0  0  0  0  0  0  0  0  0  0  0
  -18.0290  -28.1110   22.9670 C   0  0  0  0  0  0  0  0  0  0  0  0
  -20.5860  -28.4080   23.2220 C   0  0  0  0  0  3  0  0  0  0  0  0
  -20.7030  -26.9740   22.6570 C   0  0  0  0  0  2  0  0  0  0  0  0
  -19.6020  -26.6300   21.6490 C   0  0  0  0  0  2  0  0  0  0  0  0
  -18.2210  -26.7600   22.2960 C   0  0  0  0  0  2  0  0  0  0  0  0
  -19.1390  -28.8900   23.3880 C   0  0  0  0  0  0  0  0  0  0  0  0
  -18.9040  -30.1510   23.9780 C   0  0  0  0  0  3  0  0  0  0  0  0
  -17.5930  -30.6340   24.1490 C   0  0  0  0  0  3  0  0  0  0  0  0
  -16.4980  -29.8520   23.7410 C   0  0  0  0  0  3  0  0  0  0  0  0
  -16.7170  -28.5920   23.1580 C   0  0  0  0  0  3  0  0  0  0  0  0
  -25.8980  -32.5720   23.8290 C   0  0  0  0  0  3  0  0  0  0  0  0
  -26.4320  -31.7950   25.0950 C   0  0  1  0  0  0  0  0  0  0  0  0
  -25.3530  -31.5430   26.1740 C   0  0  0  0  0  1  0  0  0  0  0  0
  -27.0190  -30.4230   24.6910 C   0  0  0  0  0  1  0  0  0  0  0  0
  -27.5860  -32.5900   25.7490 C   0  0  0  0  0  1  0  0  0  0  0  0
  -25.5840  -33.9660   24.1810 N   0  0  0  0  0  0  0  0  0  0  0  0
  -25.8790  -35.0320   23.4250 C   0  0  0  0  0  0  0  0  0  0  0  0
  -26.5090  -34.9440   22.3670 O   0  0  0  0  0  0  0  0  0  0  0  0
  -25.0210  -34.1070   25.0070 H   0  0  0  0  0  0  0  0  0  0  0  0
  -24.1220  -36.8170   23.1680 C   0  0  0  0  0  1  0  0  0  0  0  0
  -25.4020  -36.4130   23.9170 C   0  0  0  0  0  3  0  0  0  0  0  0
  -27.5600  -37.3180   24.6650 C   0  0  0  0  0  1  0  0  0  0  0  0
  -26.4200  -37.4770   23.7670 N   0  0  0  0  0  0  0  0  0  0  0  0
  -26.0120  -38.3920   23.9320 H   0  0  0  0  0  0  0  0  0  0  0  0
  1  5  2  0
  2  4  1  0
  2  3  1  0
  3  7  1  0
  3  1  1  0
  4 44  1  0
  4  1  1  0
  7  6  2  0
  8  6  1  0
  9 14  1  0
 10 11  1  0
 10  9  1  0
 12 11  1  0
 12 19  1  0
 12 13  1  0
 14  8  1  0
 14 13  1  0
 15  8  2  0
 16 17  2  0
 17 36  1  0
 18 17  1  0
 18 21  1  0
 19 20  1  0
 19 16  1  0
 20 18  2  0
 21 22  1  0
 22 23  2  0
 24 27  1  0
 24 23  1  0
 25 24  2  0
 26 25  1  0
 26 21  2  0
 27 28  1  0
 28 29  1  0
 29 30  2  0
 31 30  1  0
 31 35  1  0
 32 31  2  0
 33 28  2  0
 33 32  1  0
 34 33  1  0
 36 37  1  0
 37 40  1  0
 37 39  1  0
 38 36  2  0
 41 42  1  0
 41 16  1  0
 43 41  1  0
 45 46  1  0
 45 44  2  0
 47 58  2  0
 48 46  1  0
 48 53  1  0
 49 57  1  0
 49 59  1  0
 50 56  1  0
 50 52  1  0
 51 57  1  0
 52 51  1  0
 53 52  2  0
 54 55  1  0
 54 48  2  0
 55 50  2  0
 56 49  1  0
 57 47  1  0
 59 61  2  0
 60 59  1  0
 62 60  1  0
 63 72  2  0
 63 68  1  0
 64 60  1  0
 64 68  1  0
 65 64  1  0
 66 67  1  0
 66 65  1  0
 67 63  1  0
 68 69  2  0
 69 70  1  0
 71 70  2  0
 72 71  1  0
 73 47  1  0
 73 78  1  0
 73 74  1  0
 74 77  1  1
 74 75  1  0
 76 74  1  0
 78 81  1  0
 79 83  1  0
 79 78  1  0
 80 79  2  0
 83 82  1  0
 85 83  1  0
 85 86  1  0
 85 84  1  0
M  ISO  4   6 100   8 100  45 101  46 101
M  END
>  <TORSDO>  (75) 
F 19

>  <SCORE>  (75) 
-15.069

>  <name>  (75) 
75

>  <ligand_id>  (75) 
75

>  <original_smiles>  (75) 
[H]C(C(=O)N1C([H])([H])C([H])([H])C([H])([H])C([H])(n2nc(-c3c([H])c([H])c(Oc4c([H])c([H])c(F)c([H])c4F)c([H])c3[H])c(C(=O)N([H])[H])c2N([H])[H])C1([H])[H])=C([H])C1([H])C(=O)C([H])(C([H])([H])C([H])([H])Oc2c([H])c([H])c3c(c2[H])C([H])([H])N(C(=O)C([H])(N([H])C(=O)C([H])(N([H])C([H])([H])[H])C([H])([H])[H])C(C([H])([H])[H])(C([H])([H])[H])C([H])([H])[H])C([H])(C(=O)N([H])C2([H])c4c([H])c([H])c([H])c([H])c4C([H])([H])C([H])([H])C2([H])[H])C3([H])[H])C1([H])[H]

>  <smiles>  (75) 
[H]C(C(=O)N1C([H])([H])C([H])([H])C([H])([H])C([H])(n2nc(-c3c([H])c([H])c(Oc4c([H])c([H])c(F)c([H])c4F)c([H])c3[H])c(C(=O)N([H])[H])c2N([H])[H])C1([H])[H])=C([H])C1([H])C(=O)C([H])(C([H])([H])C([H])([H])Oc2c([H])c([H])c3c(c2[H])C([H])([H])N(C(=O)C([H])(N([H])C(=O)C([H])(N([H])C([H])([H])[H])C([H])([H])[H])C(C([H])([H])[H])(C([H])([H])[H])C([H])([H])[H])C([H])(C(=O)N([H])C2([H])c4c([H])c([H])c([H])c([H])c4C([H])([H])C([H])([H])C2([H])[H])C3([H])[H])C1([H])[H]

$$$$
76:0:0
     RDKit          3D

 87 95  0  0  1  0  0  0  0  0999 V2000
  -27.0860  -21.9710   20.3490 C   0  0  0  0  0  2  0  0  0  0  0  0
  -27.5420  -22.9500   21.4760 C   0  0  0  0  0  2  0  0  0  0  0  0
  -28.6090  -21.9580   20.0130 C   0  0  0  0  0  3  0  0  0  0  0  0
  -28.6650  -23.5040   20.6030 C   0  0  0  0  0  3  0  0  0  0  0  0
  -29.4730  -20.6730   20.5540 C   0  0  0  0  0  0  0  0  0  0  0  0
  -30.4640  -20.8130   21.2750 O   0  0  0  0  0  0  0  0  0  0  0  0
  -29.0940  -19.1280   20.1840 C   0  0  0  0  0  3  0  0  0  0  0  0
  -30.0750  -17.8230   20.4920 C   0  0  0  0  0  3  0  0  0  0  0  0
  -29.5480  -16.2580   20.4440 C   0  0  0  0  0  2  0  0  0  0  0  0
  -30.4830  -14.9150   20.3310 C   0  0  0  0  0  0  0  0  0  0  0  0
  -30.3940  -12.6010   19.3440 C   0  0  0  0  0  2  0  0  0  0  0  0
  -29.4510  -12.6660   18.1220 C   0  0  0  0  0  2  0  0  0  0  0  0
  -27.9770  -12.4840   18.5440 C   0  0  0  0  0  2  0  0  0  0  0  0
  -27.5930  -13.3530   19.7690 C   0  0  0  0  0  3  0  0  0  0  0  0
  -28.6560  -13.2400   20.8770 C   0  0  0  0  0  2  0  0  0  0  0  0
  -29.9450  -13.6380   20.3040 N   0  0  0  0  0  0  0  0  0  0  0  0
  -31.6830  -15.0340   20.0580 O   0  0  0  0  0  0  0  0  0  0  0  0
  -25.2090  -13.9320   20.5110 C   0  0  0  0  0  0  0  0  0  0  0  0
  -24.1460  -13.1540   20.8800 C   0  0  0  0  0  0  0  0  0  0  0  0
  -24.6140  -11.8040   20.8390 C   0  0  0  0  0  0  0  0  0  0  0  0
  -26.2540  -13.0560   20.2670 N   0  0  0  0  0  0  0  0  0  0  0  0
  -25.9060  -11.7720   20.5330 N   0  0  0  0  0  0  0  0  0  0  0  0
  -23.8890  -10.5420   21.0250 C   0  0  0  0  0  0  0  0  0  0  0  0
  -24.3150   -9.5810   21.9680 C   0  0  0  0  0  3  0  0  0  0  0  0
  -23.5950   -8.3800   22.1420 C   0  0  0  0  0  3  0  0  0  0  0  0
  -22.4290   -8.1330   21.3800 C   0  0  0  0  0  0  0  0  0  0  0  0
  -22.0170   -9.0850   20.4320 C   0  0  0  0  0  3  0  0  0  0  0  0
  -22.7380  -10.2790   20.2540 C   0  0  0  0  0  3  0  0  0  0  0  0
  -21.6800   -6.9850   21.4680 O   0  0  0  0  0  0  0  0  0  0  0  0
  -21.6190   -6.2490   22.6270 C   0  0  0  0  0  0  0  0  0  0  0  0
  -21.1520   -6.8010   23.8380 C   0  0  0  0  0  3  0  0  0  0  0  0
  -21.0480   -5.9910   24.9880 C   0  0  0  0  0  3  0  0  0  0  0  0
  -21.3890   -4.6280   24.9230 C   0  0  0  0  0  0  0  0  0  0  0  0
  -21.8380   -4.0710   23.7130 C   0  0  0  0  0  3  0  0  0  0  0  0
  -21.9510   -4.8800   22.5670 C   0  0  0  0  0  0  0  0  0  0  0  0
  -22.3700   -4.3330   21.4020 F   0  0  0  0  0  0  0  0  0  0  0  0
  -21.2760   -3.8470   26.0230 F   0  0  0  0  0  0  0  0  0  0  0  0
  -22.7490  -13.6270   21.1500 C   0  0  0  0  0  0  0  0  0  0  0  0
  -22.0140  -12.9280   22.0100 N   0  0  0  0  0  0  0  0  0  0  0  0
  -22.3140  -14.6550   20.6330 O   0  0  0  0  0  0  0  0  0  0  0  0
  -22.3700  -12.0950   22.4530 H   0  0  0  0  0  0  0  0  0  0  0  0
  -21.0810  -13.2400   22.2400 H   0  0  0  0  0  0  0  0  0  0  0  0
  -25.3700  -15.3050   20.3380 N   0  0  0  0  0  0  0  0  0  0  0  0
  -24.6090  -15.9670   20.4630 H   0  0  0  0  0  0  0  0  0  0  0  0
  -26.2260  -15.7360   20.0130 H   0  0  0  0  0  0  0  0  0  0  0  0
  -28.3470  -24.8980   19.7680 C   0  0  0  0  0  2  0  0  0  0  0  0
  -28.3140  -26.3330   20.3240 O   0  0  0  0  0  0  0  0  0  0  0  0
  -24.5870  -31.9100   23.2390 C   0  0  0  0  0  0  0  0  0  0  0  0
  -27.2250  -27.2590   20.2120 C   0  0  0  0  0  0  0  0  0  0  0  0
  -23.4110  -30.5130   21.5840 C   0  0  0  0  0  3  0  0  0  0  0  0
  -24.8830  -28.9630   20.1690 C   0  0  0  0  0  0  0  0  0  0  0  0
  -25.9620  -30.8090   21.4400 C   0  0  0  0  0  2  0  0  0  0  0  0
  -26.0480  -29.4200   20.7960 C   0  0  0  0  0  0  0  0  0  0  0  0
  -27.2170  -28.5780   20.8050 C   0  0  0  0  0  3  0  0  0  0  0  0
  -26.0330  -26.8990   19.5360 C   0  0  0  0  0  3  0  0  0  0  0  0
  -24.8890  -27.7230   19.5190 C   0  0  0  0  0  3  0  0  0  0  0  0
  -23.6480  -29.8400   20.2080 C   0  0  0  0  0  2  0  0  0  0  0  0
  -24.6730  -31.0980   22.1460 N   0  0  0  0  0  0  0  0  0  0  0  0
  -23.4930  -32.1860   23.7570 O   0  0  0  0  0  0  0  0  0  0  0  0
  -22.7290  -29.4990   22.5380 C   0  0  0  0  0  0  0  0  0  0  0  0
  -21.4030  -29.3200   22.3930 N   0  0  0  0  0  0  0  0  0  0  0  0
  -23.3960  -28.8750   23.3660 O   0  0  0  0  0  0  0  0  0  0  0  0
  -20.9280  -29.8800   21.6990 H   0  0  0  0  0  0  0  0  0  0  0  0
  -18.0220  -28.1040   22.8570 C   0  0  0  0  0  0  0  0  0  0  0  0
  -20.5760  -28.3800   23.1530 C   0  0  0  0  0  3  0  0  0  0  0  0
  -20.6890  -26.9440   22.5850 C   0  0  0  0  0  2  0  0  0  0  0  0
  -19.6010  -26.6180   21.5570 C   0  0  0  0  0  2  0  0  0  0  0  0
  -18.2110  -26.7550   22.1860 C   0  0  0  0  0  2  0  0  0  0  0  0
  -19.1320  -28.8730   23.3000 C   0  0  0  0  0  0  0  0  0  0  0  0
  -18.8970  -30.1300   23.8960 C   0  0  0  0  0  3  0  0  0  0  0  0
  -17.5870  -30.6220   24.0470 C   0  0  0  0  0  3  0  0  0  0  0  0
  -16.4920  -29.8540   23.6140 C   0  0  0  0  0  3  0  0  0  0  0  0
  -16.7100  -28.5960   23.0270 C   0  0  0  0  0  3  0  0  0  0  0  0
  -25.8550  -32.5500   23.8830 C   0  0  0  0  0  3  0  0  0  0  0  0
  -25.5330  -33.9530   24.1930 N   0  0  0  0  0  0  0  0  0  0  0  0
  -25.8810  -35.0020   23.4350 C   0  0  0  0  0  0  0  0  0  0  0  0
  -26.5710  -34.8880   22.4190 O   0  0  0  0  0  0  0  0  0  0  0  0
  -24.9050  -34.1130   24.9670 H   0  0  0  0  0  0  0  0  0  0  0  0
  -24.1700  -36.8070   23.0360 C   0  0  0  0  0  1  0  0  0  0  0  0
  -25.3930  -36.3990   23.8720 C   0  0  0  0  0  3  0  0  0  0  0  0
  -27.5170  -37.2870   24.7310 C   0  0  0  0  0  1  0  0  0  0  0  0
  -26.4350  -37.4440   23.7630 N   0  0  0  0  0  0  0  0  0  0  0  0
  -26.0300  -38.3680   23.8920 H   0  0  0  0  0  0  0  0  0  0  0  0
  -26.3390  -31.7900   25.1780 C   0  0  1  0  0  0  0  0  0  0  0  0
  -25.2210  -31.5700   26.2240 C   0  0  0  0  0  1  0  0  0  0  0  0
  -26.9220  -30.4030   24.8150 C   0  0  0  0  0  1  0  0  0  0  0  0
  -27.4820  -32.5850   25.8520 C   0  0  0  0  0  1  0  0  0  0  0  0
  1  2  1  0
  3  1  1  0
  3  5  1  0
  3  4  1  0
  4 46  1  0
  4  2  1  0
  5  6  2  0
  7  8  2  0
  7  5  1  0
  9  8  1  0
 10  9  1  0
 11 16  1  0
 12 13  1  0
 12 11  1  0
 14 13  1  0
 14 21  1  0
 14 15  1  0
 16 10  1  0
 16 15  1  0
 17 10  2  0
 18 19  2  0
 19 38  1  0
 20 19  1  0
 20 23  1  0
 21 18  1  0
 21 22  1  0
 22 20  2  0
 23 24  1  0
 24 25  2  0
 26 29  1  0
 26 25  1  0
 27 26  2  0
 28 27  1  0
 28 23  2  0
 29 30  1  0
 30 31  1  0
 31 32  2  0
 33 32  1  0
 33 37  1  0
 34 33  2  0
 35 30  2  0
 35 34  1  0
 36 35  1  0
 38 39  1  0
 39 42  1  0
 39 41  1  0
 40 38  2  0
 43 44  1  0
 43 18  1  0
 45 43  1  0
 46 47  1  0
 48 59  2  0
 49 47  1  0
 49 54  1  0
 50 58  1  0
 50 60  1  0
 51 57  1  0
 51 53  1  0
 52 58  1  0
 53 54  2  0
 53 52  1  0
 55 49  2  0
 56 55  1  0
 56 51  2  0
 57 50  1  0
 58 48  1  0
 60 62  2  0
 61 60  1  0
 63 61  1  0
 64 73  2  0
 64 69  1  0
 65 61  1  0
 65 69  1  0
 66 65  1  0
 67 68  1  0
 67 66  1  0
 68 64  1  0
 69 70  2  0
 70 71  1  0
 72 71  2  0
 73 72  1  0
 74 48  1  0
 74 75  1  0
 74 84  1  0
 75 78  1  0
 76 80  1  0
 76 75  1  0
 77 76  2  0
 80 79  1  0
 82 80  1  0
 82 83  1  0
 82 81  1  0
 84 87  1  1
 84 85  1  0
 86 84  1  0
M  ISO  4   9 100  10 100  46 101  47 101
M  END
>  <TORSDO>  (76) 
F 21

>  <SCORE>  (76) 
-13.343

>  <name>  (76) 
76

>  <ligand_id>  (76) 
76

>  <original_smiles>  (76) 
[H]c1c([H])c([H])c2c(c1[H])C([H])([H])C([H])([H])C([H])([H])C2([H])N([H])C(=O)C1([H])N(C(=O)C([H])(N([H])C(=O)C([H])(N([H])C([H])([H])[H])C([H])([H])[H])C(C([H])([H])[H])(C([H])([H])[H])C([H])([H])[H])C([H])([H])c2c([H])c(OC([H])([H])C3([H])C([H])([H])C([H])([H])C3([H])C(=O)C([H])([H])C([H])([H])C([H])([H])C(=O)N3C([H])([H])C([H])([H])C([H])([H])C([H])(n4nc(-c5c([H])c([H])c(Oc6c([H])c([H])c(F)c([H])c6F)c([H])c5[H])c(C(=O)N([H])[H])c4N([H])[H])C3([H])[H])c([H])c([H])c2C1([H])[H]

>  <smiles>  (76) 
[H]c1c([H])c([H])c2c(c1[H])C([H])([H])C([H])([H])C([H])([H])C2([H])N([H])C(=O)C1([H])N(C(=O)C([H])(N([H])C(=O)C([H])(N([H])C([H])([H])[H])C([H])([H])[H])C(C([H])([H])[H])(C([H])([H])[H])C([H])([H])[H])C([H])([H])c2c([H])c(OC([H])([H])C3([H])C([H])([H])C([H])([H])C3([H])C(=O)C([H])([H])C([H])([H])C([H])([H])C(=O)N3C([H])([H])C([H])([H])C([H])([H])C([H])(n4nc(-c5c([H])c([H])c(Oc6c([H])c([H])c(F)c([H])c6F)c([H])c5[H])c(C(=O)N([H])[H])c4N([H])[H])C3([H])[H])c([H])c([H])c2C1([H])[H]

$$$$
77:0:0
     RDKit          3D

 87 95  0  0  1  0  0  0  0  0999 V2000
  -30.1440  -20.7080   21.4360 C   0  0  0  0  0  2  0  0  0  0  0  0
  -29.9510  -22.2910   21.1510 C   0  0  0  0  0  2  0  0  0  0  0  0
  -28.5400  -21.0870   19.7890 C   0  0  0  0  0  2  0  0  0  0  0  0
  -29.1620  -19.7450   20.6620 C   0  0  0  0  0  3  0  0  0  0  0  0
  -28.5620  -22.6450   20.5360 C   0  0  0  0  0  3  0  0  0  0  0  0
  -29.6380  -16.7550   20.5910 C   0  0  0  0  0  3  0  0  0  0  0  0
  -29.8140  -18.1760   20.2090 C   0  0  0  0  0  0  0  0  0  0  0  0
  -30.4110  -15.3480   20.2740 C   0  0  0  0  0  0  0  0  0  0  0  0
  -30.3920  -12.8820   19.4470 C   0  0  0  0  0  2  0  0  0  0  0  0
  -29.4870  -12.6820   18.2050 C   0  0  0  0  0  2  0  0  0  0  0  0
  -28.0360  -12.4060   18.6310 C   0  0  0  0  0  2  0  0  0  0  0  0
  -27.5760  -13.3680   19.7540 C   0  0  0  0  0  3  0  0  0  0  0  0
  -28.6130  -13.5300   20.8860 C   0  0  0  0  0  2  0  0  0  0  0  0
  -29.8560  -14.0300   20.2760 N   0  0  0  0  0  0  0  0  0  0  0  0
  -31.6110  -15.3160   19.9570 O   0  0  0  0  0  0  0  0  0  0  0  0
  -25.2040  -13.9080   20.5130 C   0  0  0  0  0  0  0  0  0  0  0  0
  -24.1450  -13.1240   20.8770 C   0  0  0  0  0  0  0  0  0  0  0  0
  -24.6170  -11.7760   20.8370 C   0  0  0  0  0  0  0  0  0  0  0  0
  -26.2500  -13.0390   20.2610 N   0  0  0  0  0  0  0  0  0  0  0  0
  -25.9090  -11.7490   20.5250 N   0  0  0  0  0  0  0  0  0  0  0  0
  -23.8950  -10.5090   21.0200 C   0  0  0  0  0  0  0  0  0  0  0  0
  -24.3280   -9.5350   21.9460 C   0  0  0  0  0  3  0  0  0  0  0  0
  -23.6010   -8.3370   22.1170 C   0  0  0  0  0  3  0  0  0  0  0  0
  -22.4270   -8.1040   21.3630 C   0  0  0  0  0  0  0  0  0  0  0  0
  -22.0130   -9.0660   20.4260 C   0  0  0  0  0  3  0  0  0  0  0  0
  -22.7400  -10.2560   20.2520 C   0  0  0  0  0  3  0  0  0  0  0  0
  -21.6730   -6.9580   21.4440 O   0  0  0  0  0  0  0  0  0  0  0  0
  -21.6250   -6.2070   22.5910 C   0  0  0  0  0  0  0  0  0  0  0  0
  -21.1970   -6.7520   23.8210 C   0  0  0  0  0  3  0  0  0  0  0  0
  -21.0970   -5.9270   24.9600 C   0  0  0  0  0  3  0  0  0  0  0  0
  -21.4140   -4.5590   24.8690 C   0  0  0  0  0  0  0  0  0  0  0  0
  -21.8350   -4.0130   23.6440 C   0  0  0  0  0  3  0  0  0  0  0  0
  -21.9360   -4.8350   22.5070 C   0  0  0  0  0  0  0  0  0  0  0  0
  -22.3220   -4.2990   21.3240 F   0  0  0  0  0  0  0  0  0  0  0  0
  -21.3110   -3.7650   25.9610 F   0  0  0  0  0  0  0  0  0  0  0  0
  -22.7470  -13.5940   21.1470 C   0  0  0  0  0  0  0  0  0  0  0  0
  -22.0190  -12.8920   22.0080 N   0  0  0  0  0  0  0  0  0  0  0  0
  -22.3080  -14.6220   20.6300 O   0  0  0  0  0  0  0  0  0  0  0  0
  -22.3880  -12.0620   22.4480 H   0  0  0  0  0  0  0  0  0  0  0  0
  -21.0810  -13.1890   22.2320 H   0  0  0  0  0  0  0  0  0  0  0  0
  -25.3620  -15.2810   20.3480 N   0  0  0  0  0  0  0  0  0  0  0  0
  -24.5940  -15.9310   20.4700 H   0  0  0  0  0  0  0  0  0  0  0  0
  -26.2110  -15.7270   20.0260 H   0  0  0  0  0  0  0  0  0  0  0  0
  -30.7390  -18.4570   19.2840 O   0  0  0  0  0  0  0  0  0  0  0  0
  -30.7440  -19.3990   19.1670 H   0  0  0  0  0  0  0  0  0  0  0  0
  -28.1680  -24.3050   19.8990 C   0  0  0  0  0  2  0  0  0  0  0  0
  -28.1960  -25.8880   20.3890 O   0  0  0  0  0  0  0  0  0  0  0  0
  -24.6260  -31.8880   23.2450 C   0  0  0  0  0  0  0  0  0  0  0  0
  -27.1890  -26.9870   20.2580 C   0  0  0  0  0  0  0  0  0  0  0  0
  -23.4360  -30.4820   21.6110 C   0  0  0  0  0  3  0  0  0  0  0  0
  -24.8890  -28.8720   20.1950 C   0  0  0  0  0  0  0  0  0  0  0  0
  -26.0020  -30.6910   21.4720 C   0  0  0  0  0  2  0  0  0  0  0  0
  -26.0730  -29.2780   20.8220 C   0  0  0  0  0  0  0  0  0  0  0  0
  -27.2130  -28.3530   20.8350 C   0  0  0  0  0  3  0  0  0  0  0  0
  -25.9800  -26.7430   19.5660 C   0  0  0  0  0  3  0  0  0  0  0  0
  -24.8690  -27.6270   19.5460 C   0  0  0  0  0  3  0  0  0  0  0  0
  -23.6690  -29.7920   20.2380 C   0  0  0  0  0  2  0  0  0  0  0  0
  -24.7090  -31.0490   22.1630 N   0  0  0  0  0  0  0  0  0  0  0  0
  -23.5360  -32.1800   23.7620 O   0  0  0  0  0  0  0  0  0  0  0  0
  -22.7410  -29.4920   22.5820 C   0  0  0  0  0  0  0  0  0  0  0  0
  -21.4100  -29.3270   22.4570 N   0  0  0  0  0  0  0  0  0  0  0  0
  -23.4050  -28.8720   23.4160 O   0  0  0  0  0  0  0  0  0  0  0  0
  -20.9270  -29.8790   21.7610 H   0  0  0  0  0  0  0  0  0  0  0  0
  -18.0280  -28.1160   22.9660 C   0  0  0  0  0  0  0  0  0  0  0  0
  -20.5870  -28.3930   23.2330 C   0  0  0  0  0  3  0  0  0  0  0  0
  -20.6940  -26.9570   22.6690 C   0  0  0  0  0  2  0  0  0  0  0  0
  -19.5960  -26.6230   21.6540 C   0  0  0  0  0  2  0  0  0  0  0  0
  -18.2120  -26.7650   22.2950 C   0  0  0  0  0  2  0  0  0  0  0  0
  -19.1420  -28.8870   23.3910 C   0  0  0  0  0  0  0  0  0  0  0  0
  -18.9140  -30.1490   23.9820 C   0  0  0  0  0  3  0  0  0  0  0  0
  -17.6060  -30.6410   24.1470 C   0  0  0  0  0  3  0  0  0  0  0  0
  -16.5070  -29.8680   23.7350 C   0  0  0  0  0  3  0  0  0  0  0  0
  -16.7180  -28.6070   23.1500 C   0  0  0  0  0  3  0  0  0  0  0  0
  -25.8960  -32.5360   23.8760 C   0  0  0  0  0  3  0  0  0  0  0  0
  -26.3950  -31.7830   25.1730 C   0  0  1  0  0  0  0  0  0  0  0  0
  -25.2890  -31.5670   26.2330 C   0  0  0  0  0  1  0  0  0  0  0  0
  -26.9780  -30.3970   24.8180 C   0  0  0  0  0  1  0  0  0  0  0  0
  -27.5400  -32.5850   25.8340 C   0  0  0  0  0  1  0  0  0  0  0  0
  -25.5770  -33.9390   24.1970 N   0  0  0  0  0  0  0  0  0  0  0  0
  -25.9050  -34.9930   23.4400 C   0  0  0  0  0  0  0  0  0  0  0  0
  -26.5700  -34.8890   22.4060 O   0  0  0  0  0  0  0  0  0  0  0  0
  -24.9840  -34.0920   25.0000 H   0  0  0  0  0  0  0  0  0  0  0  0
  -24.1690  -36.7900   23.1080 C   0  0  0  0  0  1  0  0  0  0  0  0
  -25.4240  -36.3850   23.9010 C   0  0  0  0  0  3  0  0  0  0  0  0
  -27.5670  -37.2830   24.6990 C   0  0  0  0  0  1  0  0  0  0  0  0
  -26.4520  -37.4410   23.7670 N   0  0  0  0  0  0  0  0  0  0  0  0
  -26.0460  -38.3610   23.9130 H   0  0  0  0  0  0  0  0  0  0  0  0
  2  1  1  0
  3  5  1  0
  3  4  1  0
  4  7  1  0
  4  1  1  0
  5 46  1  0
  5  2  1  0
  7  6  2  0
  8 14  1  0
  8  6  1  0
  9 14  1  0
 10 11  1  0
 10  9  1  0
 12 11  1  0
 12 19  1  0
 12 13  1  0
 14 13  1  0
 15  8  2  0
 16 17  2  0
 17 36  1  0
 18 17  1  0
 18 21  1  0
 19 16  1  0
 19 20  1  0
 20 18  2  0
 21 22  1  0
 22 23  2  0
 24 27  1  0
 24 23  1  0
 25 24  2  0
 26 25  1  0
 26 21  2  0
 27 28  1  0
 28 29  1  0
 29 30  2  0
 31 30  1  0
 31 35  1  0
 32 31  2  0
 33 28  2  0
 33 32  1  0
 34 33  1  0
 36 37  1  0
 37 40  1  0
 37 39  1  0
 38 36  2  0
 41 42  1  0
 41 16  1  0
 43 41  1  0
 44  7  1  0
 45 44  1  0
 46 47  1  0
 48 59  2  0
 49 47  1  0
 49 54  1  0
 50 58  1  0
 50 60  1  0
 51 57  1  0
 51 53  1  0
 52 58  1  0
 53 54  2  0
 53 52  1  0
 55 49  2  0
 56 55  1  0
 56 51  2  0
 57 50  1  0
 58 48  1  0
 60 62  2  0
 61 60  1  0
 63 61  1  0
 64 73  2  0
 64 69  1  0
 65 61  1  0
 65 69  1  0
 66 65  1  0
 67 68  1  0
 67 66  1  0
 68 64  1  0
 69 70  2  0
 70 71  1  0
 72 71  2  0
 73 72  1  0
 74 48  1  0
 74 79  1  0
 74 75  1  0
 75 78  1  1
 75 76  1  0
 77 75  1  0
 79 82  1  0
 80 84  1  0
 80 79  1  0
 81 80  2  0
 84 83  1  0
 86 84  1  0
 86 87  1  0
 86 85  1  0
M  ISO  4   6 100   8 100  46 101  47 101
M  END
>  <TORSDO>  (77) 
F 19

>  <SCORE>  (77) 
-15.878

>  <name>  (77) 
77

>  <ligand_id>  (77) 
77

>  <original_smiles>  (77) 
[H]OC(=C([H])C(=O)N1C([H])([H])C([H])([H])C([H])([H])C([H])(n2nc(-c3c([H])c([H])c(Oc4c([H])c([H])c(F)c([H])c4F)c([H])c3[H])c(C(=O)N([H])[H])c2N([H])[H])C1([H])[H])C1([H])C([H])([H])C([H])([H])C([H])(C([H])([H])Oc2c([H])c([H])c3c(c2[H])C([H])([H])N(C(=O)C([H])(N([H])C(=O)C([H])(N([H])C([H])([H])[H])C([H])([H])[H])C(C([H])([H])[H])(C([H])([H])[H])C([H])([H])[H])C([H])(C(=O)N([H])C2([H])c4c([H])c([H])c([H])c([H])c4C([H])([H])C([H])([H])C2([H])[H])C3([H])[H])C1([H])[H]

>  <smiles>  (77) 
[H]OC(=C([H])C(=O)N1C([H])([H])C([H])([H])C([H])([H])C([H])(n2nc(-c3c([H])c([H])c(Oc4c([H])c([H])c(F)c([H])c4F)c([H])c3[H])c(C(=O)N([H])[H])c2N([H])[H])C1([H])[H])C1([H])C([H])([H])C([H])([H])C([H])(C([H])([H])Oc2c([H])c([H])c3c(c2[H])C([H])([H])N(C(=O)C([H])(N([H])C(=O)C([H])(N([H])C([H])([H])[H])C([H])([H])[H])C(C([H])([H])[H])(C([H])([H])[H])C([H])([H])[H])C([H])(C(=O)N([H])C2([H])c4c([H])c([H])c([H])c([H])c4C([H])([H])C([H])([H])C2([H])[H])C3([H])[H])C1([H])[H]

$$$$
78:0:0
     RDKit          3D

 88 96  0  0  1  0  0  0  0  0999 V2000
  -29.7630  -22.2760   18.0230 C   0  0  0  0  0  3  0  0  0  0  0  0
  -29.2430  -23.4200   18.6790 C   0  0  0  0  0  3  0  0  0  0  0  0
  -29.7160  -20.9730   18.5860 C   0  0  0  0  0  3  0  0  0  0  0  0
  -28.6240  -21.9540   20.5070 C   0  0  0  0  0  3  0  0  0  0  0  0
  -28.6500  -23.3320   19.9540 C   0  0  0  0  0  0  0  0  0  0  0  0
  -29.1430  -20.7280   19.8540 C   0  0  0  0  0  0  0  0  0  0  0  0
  -27.5440  -18.7950   20.3740 C   0  0  0  0  0  1  0  0  0  0  0  0
  -29.0300  -19.1810   20.4200 C   0  0  0  0  0  3  0  0  0  0  0  0
  -29.9110  -17.8420   19.8830 C   0  0  0  0  0  3  0  0  0  0  0  0
  -29.7180  -16.2730   20.4790 C   0  0  0  0  0  3  0  0  0  0  0  0
  -30.5250  -14.8940   20.0270 C   0  0  0  0  0  0  0  0  0  0  0  0
  -30.3950  -12.5560   19.0560 C   0  0  0  0  0  2  0  0  0  0  0  0
  -29.3990  -12.5590   17.8720 C   0  0  0  0  0  2  0  0  0  0  0  0
  -27.9510  -12.3510   18.3620 C   0  0  0  0  0  2  0  0  0  0  0  0
  -27.6100  -13.2380   19.5880 C   0  0  0  0  0  3  0  0  0  0  0  0
  -28.7210  -13.1980   20.6580 C   0  0  0  0  0  2  0  0  0  0  0  0
  -29.9700  -13.6170   20.0100 N   0  0  0  0  0  0  0  0  0  0  0  0
  -31.6840  -14.9990   19.6100 O   0  0  0  0  0  0  0  0  0  0  0  0
  -25.2640  -13.8030   20.4470 C   0  0  0  0  0  0  0  0  0  0  0  0
  -24.2170  -13.0180   20.8530 C   0  0  0  0  0  0  0  0  0  0  0  0
  -24.6790  -11.6690   20.7740 C   0  0  0  0  0  0  0  0  0  0  0  0
  -26.2940  -12.9290   20.1410 N   0  0  0  0  0  0  0  0  0  0  0  0
  -25.9570  -11.6400   20.4030 N   0  0  0  0  0  0  0  0  0  0  0  0
  -23.9610  -10.4030   20.9770 C   0  0  0  0  0  0  0  0  0  0  0  0
  -24.4190   -9.4330   21.8950 C   0  0  0  0  0  3  0  0  0  0  0  0
  -23.7030   -8.2310   22.0870 C   0  0  0  0  0  3  0  0  0  0  0  0
  -22.5140   -7.9910   21.3580 C   0  0  0  0  0  0  0  0  0  0  0  0
  -22.0720   -8.9500   20.4280 C   0  0  0  0  0  3  0  0  0  0  0  0
  -22.7900  -10.1420   20.2360 C   0  0  0  0  0  3  0  0  0  0  0  0
  -21.7660   -6.8420   21.4580 O   0  0  0  0  0  0  0  0  0  0  0  0
  -21.7270   -6.1070   22.6160 C   0  0  0  0  0  0  0  0  0  0  0  0
  -21.2880   -6.6640   23.8380 C   0  0  0  0  0  3  0  0  0  0  0  0
  -21.2000   -5.8550   24.9880 C   0  0  0  0  0  3  0  0  0  0  0  0
  -21.5390   -4.4900   24.9190 C   0  0  0  0  0  0  0  0  0  0  0  0
  -21.9670   -3.9320   23.7010 C   0  0  0  0  0  3  0  0  0  0  0  0
  -22.0590   -4.7390   22.5530 C   0  0  0  0  0  0  0  0  0  0  0  0
  -22.4530   -4.1930   21.3780 F   0  0  0  0  0  0  0  0  0  0  0  0
  -21.4450   -3.7110   26.0200 F   0  0  0  0  0  0  0  0  0  0  0  0
  -22.8340  -13.4870   21.1970 C   0  0  0  0  0  0  0  0  0  0  0  0
  -22.1480  -12.7800   22.0880 N   0  0  0  0  0  0  0  0  0  0  0  0
  -22.3700  -14.5160   20.7110 O   0  0  0  0  0  0  0  0  0  0  0  0
  -22.5360  -11.9460   22.5030 H   0  0  0  0  0  0  0  0  0  0  0  0
  -21.2220  -13.0820   22.3560 H   0  0  0  0  0  0  0  0  0  0  0  0
  -25.4160  -15.1770   20.2870 N   0  0  0  0  0  0  0  0  0  0  0  0
  -24.6550  -15.8270   20.4500 H   0  0  0  0  0  0  0  0  0  0  0  0
  -26.2460  -15.6250   19.9200 H   0  0  0  0  0  0  0  0  0  0  0  0
  -27.9870  -24.6790   20.6130 C   0  0  0  0  0  2  0  0  0  0  0  0
  -28.2750  -26.1450   20.2030 O   0  0  0  0  0  0  0  0  0  0  0  0
  -24.6500  -31.8060   23.2310 C   0  0  0  0  0  0  0  0  0  0  0  0
  -27.2220  -27.1210   20.1910 C   0  0  0  0  0  0  0  0  0  0  0  0
  -23.4530  -30.4230   21.5800 C   0  0  0  0  0  3  0  0  0  0  0  0
  -24.9020  -28.8570   20.1500 C   0  0  0  0  0  0  0  0  0  0  0  0
  -26.0070  -30.6910   21.4210 C   0  0  0  0  0  2  0  0  0  0  0  0
  -26.0820  -29.3040   20.7640 C   0  0  0  0  0  0  0  0  0  0  0  0
  -27.2490  -28.4550   20.7600 C   0  0  0  0  0  3  0  0  0  0  0  0
  -26.0220  -26.7680   19.5410 C   0  0  0  0  0  3  0  0  0  0  0  0
  -24.8860  -27.6050   19.5180 C   0  0  0  0  0  3  0  0  0  0  0  0
  -23.6780  -29.7560   20.1970 C   0  0  0  0  0  2  0  0  0  0  0  0
  -24.7240  -30.9930   22.1340 N   0  0  0  0  0  0  0  0  0  0  0  0
  -23.5640  -32.0890   23.7570 O   0  0  0  0  0  0  0  0  0  0  0  0
  -22.7690  -29.4110   22.5320 C   0  0  0  0  0  0  0  0  0  0  0  0
  -21.4400  -29.2490   22.4010 N   0  0  0  0  0  0  0  0  0  0  0  0
  -23.4340  -28.7730   23.3530 O   0  0  0  0  0  0  0  0  0  0  0  0
  -20.9610  -29.8070   21.7080 H   0  0  0  0  0  0  0  0  0  0  0  0
  -18.0480  -28.0750   22.8860 C   0  0  0  0  0  0  0  0  0  0  0  0
  -20.6080  -28.3150   23.1640 C   0  0  0  0  0  3  0  0  0  0  0  0
  -20.7020  -26.8870   22.5790 C   0  0  0  0  0  2  0  0  0  0  0  0
  -19.6000  -26.5800   21.5600 C   0  0  0  0  0  2  0  0  0  0  0  0
  -18.2170  -26.7300   22.2000 C   0  0  0  0  0  2  0  0  0  0  0  0
  -19.1700  -28.8270   23.3240 C   0  0  0  0  0  0  0  0  0  0  0  0
  -18.9570  -30.0860   23.9260 C   0  0  0  0  0  3  0  0  0  0  0  0
  -17.6530  -30.5920   24.0950 C   0  0  0  0  0  3  0  0  0  0  0  0
  -16.5460  -29.8380   23.6720 C   0  0  0  0  0  3  0  0  0  0  0  0
  -16.7440  -28.5810   23.0730 C   0  0  0  0  0  3  0  0  0  0  0  0
  -25.9270  -32.4340   23.8670 C   0  0  0  0  0  3  0  0  0  0  0  0
  -26.4230  -31.6580   25.1480 C   0  0  1  0  0  0  0  0  0  0  0  0
  -25.3160  -31.4250   26.2030 C   0  0  0  0  0  1  0  0  0  0  0  0
  -26.9990  -30.2760   24.7620 C   0  0  0  0  0  1  0  0  0  0  0  0
  -27.5770  -32.4400   25.8200 C   0  0  0  0  0  1  0  0  0  0  0  0
  -25.6210  -33.8330   24.2020 N   0  0  0  0  0  0  0  0  0  0  0  0
  -25.9610  -34.8900   23.4510 C   0  0  0  0  0  0  0  0  0  0  0  0
  -26.6310  -34.7870   22.4200 O   0  0  0  0  0  0  0  0  0  0  0  0
  -25.0250  -33.9880   25.0020 H   0  0  0  0  0  0  0  0  0  0  0  0
  -24.2410  -36.6950   23.1080 C   0  0  0  0  0  1  0  0  0  0  0  0
  -25.4820  -36.2810   23.9150 C   0  0  0  0  0  3  0  0  0  0  0  0
  -27.6220  -37.1500   24.7470 C   0  0  0  0  0  1  0  0  0  0  0  0
  -26.5210  -37.3290   23.8040 N   0  0  0  0  0  0  0  0  0  0  0  0
  -26.1220  -38.2510   23.9540 H   0  0  0  0  0  0  0  0  0  0  0  0
  1  3  2  0
  1  2  1  0
  2  5  2  0
  3  6  1  0
  5  4  1  0
  5 47  1  0
  6  8  1  0
  6  4  2  0
  8  7  1  0
  9  8  1  0
  9 10  2  0
 11 10  1  0
 12 17  1  0
 13 14  1  0
 13 12  1  0
 15 14  1  0
 15 22  1  0
 15 16  1  0
 17 11  1  0
 17 16  1  0
 18 11  2  0
 19 20  2  0
 20 39  1  0
 21 20  1  0
 21 24  1  0
 22 23  1  0
 22 19  1  0
 23 21  2  0
 24 25  1  0
 25 26  2  0
 27 30  1  0
 27 26  1  0
 28 27  2  0
 29 28  1  0
 29 24  2  0
 30 31  1  0
 31 32  1  0
 32 33  2  0
 34 33  1  0
 34 38  1  0
 35 34  2  0
 36 31  2  0
 36 35  1  0
 37 36  1  0
 39 40  1  0
 40 43  1  0
 40 42  1  0
 41 39  2  0
 44 19  1  0
 44 45  1  0
 46 44  1  0
 48 47  1  0
 49 60  2  0
 50 48  1  0
 50 55  1  0
 51 59  1  0
 51 61  1  0
 52 58  1  0
 52 54  1  0
 53 59  1  0
 54 53  1  0
 55 54  2  0
 56 50  2  0
 57 56  1  0
 57 52  2  0
 58 51  1  0
 59 49  1  0
 61 63  2  0
 62 61  1  0
 64 62  1  0
 65 74  2  0
 65 70  1  0
 66 62  1  0
 66 70  1  0
 67 66  1  0
 68 69  1  0
 68 67  1  0
 69 65  1  0
 70 71  2  0
 71 72  1  0
 73 72  2  0
 74 73  1  0
 75 49  1  0
 75 80  1  0
 75 76  1  0
 76 79  1  1
 76 77  1  0
 78 76  1  0
 80 83  1  0
 81 85  1  0
 81 80  1  0
 82 81  2  0
 85 84  1  0
 87 85  1  0
 87 88  1  0
 87 86  1  0
M  ISO  4  10 100  11 100  47 101  48 101
M  END
>  <TORSDO>  (78) 
F 20

>  <SCORE>  (78) 
-13.494

>  <name>  (78) 
78

>  <ligand_id>  (78) 
78

>  <original_smiles>  (78) 
[H]c1c([H])c([H])c2c(c1[H])C([H])([H])C([H])([H])C([H])([H])C2([H])N([H])C(=O)C1([H])N(C(=O)C([H])(N([H])C(=O)C([H])(N([H])C([H])([H])[H])C([H])([H])[H])C(C([H])([H])[H])(C([H])([H])[H])C([H])([H])[H])C([H])([H])c2c([H])c(OC([H])([H])c3c([H])c([H])c([H])c(C([H])(C([H])([H])[H])C([H])([H])C([H])([H])C(=O)N4C([H])([H])C([H])([H])C([H])([H])C([H])(n5nc(-c6c([H])c([H])c(Oc7c([H])c([H])c(F)c([H])c7F)c([H])c6[H])c(C(=O)N([H])[H])c5N([H])[H])C4([H])[H])c3[H])c([H])c([H])c2C1([H])[H]

>  <smiles>  (78) 
[H]c1c([H])c([H])c2c(c1[H])C([H])([H])C([H])([H])C([H])([H])C2([H])N([H])C(=O)C1([H])N(C(=O)C([H])(N([H])C(=O)C([H])(N([H])C([H])([H])[H])C([H])([H])[H])C(C([H])([H])[H])(C([H])([H])[H])C([H])([H])[H])C([H])([H])c2c([H])c(OC([H])([H])c3c([H])c([H])c([H])c(C([H])(C([H])([H])[H])C([H])([H])C([H])([H])C(=O)N4C([H])([H])C([H])([H])C([H])([H])C([H])(n5nc(-c6c([H])c([H])c(Oc7c([H])c([H])c(F)c([H])c7F)c([H])c6[H])c(C(=O)N([H])[H])c5N([H])[H])C4([H])[H])c3[H])c([H])c([H])c2C1([H])[H]

$$$$
79:0:0
     RDKit          3D

 87 95  0  0  1  0  0  0  0  0999 V2000
  -29.1080  -22.3040   20.3540 C   0  0  0  0  0  0  0  0  0  0  0  0
  -30.1850  -22.5970   20.8820 O   0  0  0  0  0  0  0  0  0  0  0  0
  -30.4330  -15.7650   20.1300 C   0  0  0  0  0  0  0  0  0  0  0  0
  -30.5520  -13.2140   19.3010 C   0  0  0  0  0  2  0  0  0  0  0  0
  -29.6420  -12.7550   18.1250 C   0  0  0  0  0  2  0  0  0  0  0  0
  -28.2460  -12.3600   18.6270 C   0  0  0  0  0  2  0  0  0  0  0  0
  -27.7300  -13.3670   19.6750 C   0  0  0  0  0  3  0  0  0  0  0  0
  -28.7790  -13.7330   20.7550 C   0  0  0  0  0  2  0  0  0  0  0  0
  -29.9110  -14.3920   20.0540 N   0  0  0  0  0  0  0  0  0  0  0  0
  -31.6700  -15.6800   19.9740 O   0  0  0  0  0  0  0  0  0  0  0  0
  -27.6830  -19.8360   20.4940 C   0  0  0  0  0  2  0  0  0  0  0  0
  -30.0500  -18.8810   20.2490 C   0  0  0  0  0  2  0  0  0  0  0  0
  -28.2070  -17.1860   20.2590 C   0  0  0  0  0  2  0  0  0  0  0  0
  -29.0030  -20.4570   20.0370 C   0  0  0  0  0  3  0  0  0  0  0  0
  -27.4370  -18.4820   19.7400 C   0  0  0  0  0  3  0  0  0  0  0  0
  -25.9210  -18.2640   19.6490 C   0  0  0  0  0  1  0  0  0  0  0  0
  -29.6940  -17.1660   20.1850 N   0  0  0  0  0  0  0  0  0  0  0  0
  -25.3880  -13.8500   20.5310 C   0  0  0  0  0  0  0  0  0  0  0  0
  -24.3440  -13.0560   20.9010 C   0  0  0  0  0  0  0  0  0  0  0  0
  -24.8310  -11.7150   20.8240 C   0  0  0  0  0  0  0  0  0  0  0  0
  -26.4360  -13.0020   20.2320 N   0  0  0  0  0  0  0  0  0  0  0  0
  -26.1160  -11.7050   20.4780 N   0  0  0  0  0  0  0  0  0  0  0  0
  -24.1210  -10.4440   21.0020 C   0  0  0  0  0  0  0  0  0  0  0  0
  -24.5560   -9.4840   21.9380 C   0  0  0  0  0  3  0  0  0  0  0  0
  -23.8430   -8.2780   22.1110 C   0  0  0  0  0  3  0  0  0  0  0  0
  -22.6790   -8.0280   21.3460 C   0  0  0  0  0  0  0  0  0  0  0  0
  -22.2630   -8.9790   20.3970 C   0  0  0  0  0  3  0  0  0  0  0  0
  -22.9790  -10.1750   20.2240 C   0  0  0  0  0  3  0  0  0  0  0  0
  -21.9360   -6.8750   21.4250 O   0  0  0  0  0  0  0  0  0  0  0  0
  -21.8320   -6.1660   22.5950 C   0  0  0  0  0  0  0  0  0  0  0  0
  -21.2750   -6.7320   23.7630 C   0  0  0  0  0  3  0  0  0  0  0  0
  -21.1250   -5.9450   24.9220 C   0  0  0  0  0  3  0  0  0  0  0  0
  -21.5210   -4.5950   24.9150 C   0  0  0  0  0  0  0  0  0  0  0  0
  -22.0700   -4.0270   23.7520 C   0  0  0  0  0  3  0  0  0  0  0  0
  -22.2230   -4.8110   22.5950 C   0  0  0  0  0  0  0  0  0  0  0  0
  -22.7320   -4.2540   21.4700 F   0  0  0  0  0  0  0  0  0  0  0  0
  -21.3690   -3.8390   26.0280 F   0  0  0  0  0  0  0  0  0  0  0  0
  -22.9510  -13.5160   21.2090 C   0  0  0  0  0  0  0  0  0  0  0  0
  -22.2550  -12.8080   22.0900 N   0  0  0  0  0  0  0  0  0  0  0  0
  -22.4890  -14.5400   20.7060 O   0  0  0  0  0  0  0  0  0  0  0  0
  -22.6480  -11.9850   22.5230 H   0  0  0  0  0  0  0  0  0  0  0  0
  -21.3210  -13.0970   22.3430 H   0  0  0  0  0  0  0  0  0  0  0  0
  -25.5190  -15.2240   20.3980 N   0  0  0  0  0  0  0  0  0  0  0  0
  -24.7460  -15.8560   20.5670 H   0  0  0  0  0  0  0  0  0  0  0  0
  -26.3580  -15.6970   20.0940 H   0  0  0  0  0  0  0  0  0  0  0  0
  -28.0460  -23.8190   20.0810 C   0  0  0  0  0  2  0  0  0  0  0  0
  -28.2440  -25.5590   20.2800 O   0  0  0  0  0  0  0  0  0  0  0  0
  -24.6760  -31.8130   23.1820 C   0  0  0  0  0  0  0  0  0  0  0  0
  -27.2620  -26.7640   20.2060 C   0  0  0  0  0  0  0  0  0  0  0  0
  -23.5100  -30.4180   21.5270 C   0  0  0  0  0  3  0  0  0  0  0  0
  -24.9780  -28.7810   20.1250 C   0  0  0  0  0  0  0  0  0  0  0  0
  -26.0890  -30.5740   21.4310 C   0  0  0  0  0  2  0  0  0  0  0  0
  -26.1660  -29.1440   20.7720 C   0  0  0  0  0  0  0  0  0  0  0  0
  -27.2900  -28.1650   20.7780 C   0  0  0  0  0  3  0  0  0  0  0  0
  -26.0390  -26.6090   19.5010 C   0  0  0  0  0  3  0  0  0  0  0  0
  -24.9540  -27.5390   19.4650 C   0  0  0  0  0  3  0  0  0  0  0  0
  -23.7660  -29.7270   20.1560 C   0  0  0  0  0  2  0  0  0  0  0  0
  -24.7830  -30.9700   22.0980 N   0  0  0  0  0  0  0  0  0  0  0  0
  -23.5780  -32.1050   23.6830 O   0  0  0  0  0  0  0  0  0  0  0  0
  -22.7870  -29.4340   22.4880 C   0  0  0  0  0  0  0  0  0  0  0  0
  -21.4560  -29.2850   22.3570 N   0  0  0  0  0  0  0  0  0  0  0  0
  -23.4390  -28.8020   23.3230 O   0  0  0  0  0  0  0  0  0  0  0  0
  -20.9790  -29.8410   21.6610 H   0  0  0  0  0  0  0  0  0  0  0  0
  -18.0570  -28.1040   22.8740 C   0  0  0  0  0  0  0  0  0  0  0  0
  -20.6230  -28.3430   23.1170 C   0  0  0  0  0  3  0  0  0  0  0  0
  -20.7050  -26.9200   22.5190 C   0  0  0  0  0  2  0  0  0  0  0  0
  -19.5920  -26.6270   21.5080 C   0  0  0  0  0  2  0  0  0  0  0  0
  -18.2160  -26.7690   22.1660 C   0  0  0  0  0  2  0  0  0  0  0  0
  -19.1860  -28.8510   23.3060 C   0  0  0  0  0  0  0  0  0  0  0  0
  -18.9790  -30.0990   23.9320 C   0  0  0  0  0  3  0  0  0  0  0  0
  -17.6780  -30.6000   24.1280 C   0  0  0  0  0  3  0  0  0  0  0  0
  -16.5650  -29.8530   23.7060 C   0  0  0  0  0  3  0  0  0  0  0  0
  -16.7560  -28.6050   23.0870 C   0  0  0  0  0  3  0  0  0  0  0  0
  -25.9290  -32.4640   23.8380 C   0  0  0  0  0  3  0  0  0  0  0  0
  -25.6070  -33.8710   24.1490 N   0  0  0  0  0  0  0  0  0  0  0  0
  -25.9580  -34.9290   23.4050 C   0  0  0  0  0  0  0  0  0  0  0  0
  -26.6420  -34.8230   22.3840 O   0  0  0  0  0  0  0  0  0  0  0  0
  -25.0000  -34.0280   24.9400 H   0  0  0  0  0  0  0  0  0  0  0  0
  -24.2490  -36.7460   23.0330 C   0  0  0  0  0  1  0  0  0  0  0  0
  -25.4770  -36.3240   23.8590 C   0  0  0  0  0  3  0  0  0  0  0  0
  -27.5970  -37.2090   24.7300 C   0  0  0  0  0  1  0  0  0  0  0  0
  -26.5180  -37.3700   23.7590 N   0  0  0  0  0  0  0  0  0  0  0  0
  -26.1150  -38.2950   23.8820 H   0  0  0  0  0  0  0  0  0  0  0  0
  -26.3980  -31.7200   25.1500 C   0  0  1  0  0  0  0  0  0  0  0  0
  -25.2690  -31.5170   26.1880 C   0  0  0  0  0  1  0  0  0  0  0  0
  -26.9820  -30.3280   24.8200 C   0  0  0  0  0  1  0  0  0  0  0  0
  -27.5340  -32.5220   25.8290 C   0  0  0  0  0  1  0  0  0  0  0  0
  1  2  2  0
  3 17  1  0
  4  9  1  0
  5  6  1  0
  5  4  1  0
  7  6  1  0
  7 21  1  0
  7  8  1  0
  9  3  1  0
  9  8  1  0
 10  3  2  0
 14 12  1  0
 14  1  1  0
 14 11  1  0
 15 16  1  0
 15 13  1  0
 15 11  1  0
 17 12  1  0
 17 13  1  0
 18 19  2  0
 19 38  1  0
 20 19  1  0
 20 23  1  0
 21 22  1  0
 21 18  1  0
 22 20  2  0
 23 24  1  0
 24 25  2  0
 26 29  1  0
 26 25  1  0
 27 26  2  0
 28 27  1  0
 28 23  2  0
 29 30  1  0
 30 35  2  0
 30 31  1  0
 31 32  2  0
 33 32  1  0
 33 37  1  0
 34 33  2  0
 35 34  1  0
 36 35  1  0
 38 39  1  0
 39 42  1  0
 39 41  1  0
 40 38  2  0
 43 18  1  0
 43 44  1  0
 45 43  1  0
 46 47  1  0
 46  1  1  0
 48 59  2  0
 49 47  1  0
 49 54  1  0
 50 58  1  0
 50 60  1  0
 51 57  1  0
 51 53  1  0
 52 58  1  0
 53 54  2  0
 53 52  1  0
 55 49  2  0
 56 55  1  0
 56 51  2  0
 57 50  1  0
 58 48  1  0
 60 62  2  0
 61 60  1  0
 63 61  1  0
 64 73  2  0
 64 69  1  0
 65 61  1  0
 65 69  1  0
 66 65  1  0
 67 68  1  0
 67 66  1  0
 68 64  1  0
 69 70  2  0
 70 71  1  0
 72 71  2  0
 73 72  1  0
 74 48  1  0
 74 75  1  0
 74 84  1  0
 75 78  1  0
 76 80  1  0
 76 75  1  0
 77 76  2  0
 80 79  1  0
 82 80  1  0
 82 83  1  0
 82 81  1  0
 84 87  1  1
 84 85  1  0
 86 84  1  0
M  ISO  4   3 100  17 100  46 101  47 101
M  END
>  <TORSDO>  (79) 
F 17

>  <SCORE>  (79) 
-15.912

>  <name>  (79) 
79

>  <ligand_id>  (79) 
79

>  <original_smiles>  (79) 
[H]c1c([H])c([H])c2c(c1[H])C([H])([H])C([H])([H])C([H])([H])C2([H])N([H])C(=O)C1([H])N(C(=O)C([H])(N([H])C(=O)C([H])(N([H])C([H])([H])[H])C([H])([H])[H])C(C([H])([H])[H])(C([H])([H])[H])C([H])([H])[H])C([H])([H])c2c([H])c(OC([H])([H])C(=O)C3([H])C([H])([H])N(C(=O)N4C([H])([H])C([H])([H])C([H])([H])C([H])(n5nc(-c6c([H])c([H])c(Oc7c([H])c([H])c(F)c([H])c7F)c([H])c6[H])c(C(=O)N([H])[H])c5N([H])[H])C4([H])[H])C([H])([H])C([H])(C([H])([H])[H])C3([H])[H])c([H])c([H])c2C1([H])[H]

>  <smiles>  (79) 
[H]c1c([H])c([H])c2c(c1[H])C([H])([H])C([H])([H])C([H])([H])C2([H])N([H])C(=O)C1([H])N(C(=O)C([H])(N([H])C(=O)C([H])(N([H])C([H])([H])[H])C([H])([H])[H])C(C([H])([H])[H])(C([H])([H])[H])C([H])([H])[H])C([H])([H])c2c([H])c(OC([H])([H])C(=O)C3([H])C([H])([H])N(C(=O)N4C([H])([H])C([H])([H])C([H])([H])C([H])(n5nc(-c6c([H])c([H])c(Oc7c([H])c([H])c(F)c([H])c7F)c([H])c6[H])c(C(=O)N([H])[H])c5N([H])[H])C4([H])[H])C([H])([H])C([H])(C([H])([H])[H])C3([H])[H])c([H])c([H])c2C1([H])[H]

$$$$
80:0:0
     RDKit          3D

 88 96  0  0  1  0  0  0  0  0999 V2000
  -28.7580  -23.6060   20.0450 C   0  0  0  0  0  0  0  0  0  0  0  0
  -29.5560  -23.8080   19.1240 O   0  0  0  0  0  0  0  0  0  0  0  0
  -28.5780  -22.0840   20.5820 C   0  0  0  0  0  3  0  0  0  0  0  0
  -29.3310  -20.8500   19.8160 C   0  0  0  0  0  3  0  0  0  0  0  0
  -30.8520  -17.3540   21.0420 C   0  0  0  0  0  3  0  0  0  0  0  0
  -28.8740  -16.8430   19.8460 C   0  0  0  0  0  3  0  0  0  0  0  0
  -30.5650  -18.7630   20.9360 C   0  0  0  0  0  3  0  0  0  0  0  0
  -28.5750  -18.2580   19.7480 C   0  0  0  0  0  3  0  0  0  0  0  0
  -30.0390  -16.3100   20.4850 C   0  0  0  0  0  0  0  0  0  0  0  0
  -29.4290  -19.2910   20.2560 C   0  0  0  0  0  0  0  0  0  0  0  0
  -30.6070  -14.8350   20.3200 C   0  0  0  0  0  0  0  0  0  0  0  0
  -30.3350  -12.5170   19.3980 C   0  0  0  0  0  2  0  0  0  0  0  0
  -29.4230  -12.5290   18.1530 C   0  0  0  0  0  2  0  0  0  0  0  0
  -27.9560  -12.3400   18.5780 C   0  0  0  0  0  2  0  0  0  0  0  0
  -27.5540  -13.2710   19.7510 C   0  0  0  0  0  3  0  0  0  0  0  0
  -28.6080  -13.3160   20.8790 C   0  0  0  0  0  2  0  0  0  0  0  0
  -29.9070  -13.6380   20.2790 N   0  0  0  0  0  0  0  0  0  0  0  0
  -31.8090  -14.7840   20.0540 O   0  0  0  0  0  0  0  0  0  0  0  0
  -25.1790  -13.8640   20.4950 C   0  0  0  0  0  0  0  0  0  0  0  0
  -24.1140  -13.0940   20.8660 C   0  0  0  0  0  0  0  0  0  0  0  0
  -24.5790  -11.7430   20.8510 C   0  0  0  0  0  0  0  0  0  0  0  0
  -26.2210  -12.9820   20.2590 N   0  0  0  0  0  0  0  0  0  0  0  0
  -25.8700  -11.7020   20.5430 N   0  0  0  0  0  0  0  0  0  0  0  0
  -23.8530  -10.4830   21.0490 C   0  0  0  0  0  0  0  0  0  0  0  0
  -24.2960   -9.5110   21.9730 C   0  0  0  0  0  3  0  0  0  0  0  0
  -23.5690   -8.3160   22.1590 C   0  0  0  0  0  3  0  0  0  0  0  0
  -22.3850   -8.0830   21.4180 C   0  0  0  0  0  0  0  0  0  0  0  0
  -21.9620   -9.0420   20.4820 C   0  0  0  0  0  3  0  0  0  0  0  0
  -22.6900  -10.2290   20.2950 C   0  0  0  0  0  3  0  0  0  0  0  0
  -21.6290   -6.9390   21.5140 O   0  0  0  0  0  0  0  0  0  0  0  0
  -21.6100   -6.1830   22.6580 C   0  0  0  0  0  0  0  0  0  0  0  0
  -21.2440   -6.7280   23.9070 C   0  0  0  0  0  3  0  0  0  0  0  0
  -21.1700   -5.8980   25.0440 C   0  0  0  0  0  3  0  0  0  0  0  0
  -21.4530   -4.5230   24.9330 C   0  0  0  0  0  0  0  0  0  0  0  0
  -21.8140   -3.9770   23.6890 C   0  0  0  0  0  3  0  0  0  0  0  0
  -21.8890   -4.8040   22.5550 C   0  0  0  0  0  0  0  0  0  0  0  0
  -22.2140   -4.2680   21.3540 F   0  0  0  0  0  0  0  0  0  0  0  0
  -21.3770   -3.7250   26.0230 F   0  0  0  0  0  0  0  0  0  0  0  0
  -22.7150  -13.5730   21.1280 C   0  0  0  0  0  0  0  0  0  0  0  0
  -21.9830  -12.8870   21.9980 N   0  0  0  0  0  0  0  0  0  0  0  0
  -22.2780  -14.5920   20.5940 O   0  0  0  0  0  0  0  0  0  0  0  0
  -22.3530  -12.0670   22.4540 H   0  0  0  0  0  0  0  0  0  0  0  0
  -21.0460  -13.1930   22.2190 H   0  0  0  0  0  0  0  0  0  0  0  0
  -25.3460  -15.2340   20.3160 N   0  0  0  0  0  0  0  0  0  0  0  0
  -24.5900  -15.8930   20.4630 H   0  0  0  0  0  0  0  0  0  0  0  0
  -26.2130  -15.6810   20.0490 H   0  0  0  0  0  0  0  0  0  0  0  0
  -27.9380  -24.8660   20.6470 C   0  0  0  0  0  2  0  0  0  0  0  0
  -28.2580  -26.2910   20.2020 O   0  0  0  0  0  0  0  0  0  0  0  0
  -24.6390  -31.8780   23.2100 C   0  0  0  0  0  0  0  0  0  0  0  0
  -27.1950  -27.2300   20.1680 C   0  0  0  0  0  0  0  0  0  0  0  0
  -23.4220  -30.4750   21.5850 C   0  0  0  0  0  3  0  0  0  0  0  0
  -24.8580  -28.9100   20.1480 C   0  0  0  0  0  0  0  0  0  0  0  0
  -25.9660  -30.7650   21.3890 C   0  0  0  0  0  2  0  0  0  0  0  0
  -26.0370  -29.3780   20.7460 C   0  0  0  0  0  0  0  0  0  0  0  0
  -27.2100  -28.5510   20.7430 C   0  0  0  0  0  3  0  0  0  0  0  0
  -26.0010  -26.8470   19.5230 C   0  0  0  0  0  3  0  0  0  0  0  0
  -24.8470  -27.6550   19.5210 C   0  0  0  0  0  3  0  0  0  0  0  0
  -23.6290  -29.7960   20.2040 C   0  0  0  0  0  2  0  0  0  0  0  0
  -24.6960  -31.0600   22.1170 N   0  0  0  0  0  0  0  0  0  0  0  0
  -23.5600  -32.1610   23.7500 O   0  0  0  0  0  0  0  0  0  0  0  0
  -22.7620  -29.4670   22.5560 C   0  0  0  0  0  0  0  0  0  0  0  0
  -21.4340  -29.2960   22.4450 N   0  0  0  0  0  0  0  0  0  0  0  0
  -23.4430  -28.8430   23.3720 O   0  0  0  0  0  0  0  0  0  0  0  0
  -20.9410  -29.8560   21.7640 H   0  0  0  0  0  0  0  0  0  0  0  0
  -18.0590  -28.0900   22.9670 C   0  0  0  0  0  0  0  0  0  0  0  0
  -20.6190  -28.3610   23.2250 C   0  0  0  0  0  3  0  0  0  0  0  0
  -20.7200  -26.9240   22.6580 C   0  0  0  0  0  2  0  0  0  0  0  0
  -19.6160  -26.5890   21.6520 C   0  0  0  0  0  2  0  0  0  0  0  0
  -18.2370  -26.7360   22.3020 C   0  0  0  0  0  2  0  0  0  0  0  0
  -19.1780  -28.8590   23.3880 C   0  0  0  0  0  0  0  0  0  0  0  0
  -18.9570  -30.1240   23.9750 C   0  0  0  0  0  3  0  0  0  0  0  0
  -17.6500  -30.6220   24.1440 C   0  0  0  0  0  3  0  0  0  0  0  0
  -16.5470  -29.8510   23.7360 C   0  0  0  0  0  3  0  0  0  0  0  0
  -16.7520  -28.5870   23.1560 C   0  0  0  0  0  3  0  0  0  0  0  0
  -25.9250  -32.5130   23.8230 C   0  0  0  0  0  3  0  0  0  0  0  0
  -26.4610  -31.7340   25.0850 C   0  0  1  0  0  0  0  0  0  0  0  0
  -25.3840  -31.4870   26.1670 C   0  0  0  0  0  1  0  0  0  0  0  0
  -27.0420  -30.3600   24.6760 C   0  0  0  0  0  1  0  0  0  0  0  0
  -27.6210  -32.5260   25.7320 C   0  0  0  0  0  1  0  0  0  0  0  0
  -25.6120  -33.9070   24.1730 N   0  0  0  0  0  0  0  0  0  0  0  0
  -25.9240  -34.9710   23.4220 C   0  0  0  0  0  0  0  0  0  0  0  0
  -26.5770  -34.8840   22.3780 O   0  0  0  0  0  0  0  0  0  0  0  0
  -25.0340  -34.0470   24.9880 H   0  0  0  0  0  0  0  0  0  0  0  0
  -24.1780  -36.7570   23.1260 C   0  0  0  0  0  1  0  0  0  0  0  0
  -25.4390  -36.3520   23.9060 C   0  0  0  0  0  3  0  0  0  0  0  0
  -27.5880  -37.2400   24.6940 C   0  0  0  0  0  1  0  0  0  0  0  0
  -26.4620  -37.4140   23.7810 N   0  0  0  0  0  0  0  0  0  0  0  0
  -26.0550  -38.3300   23.9470 H   0  0  0  0  0  0  0  0  0  0  0  0
  1  3  1  0
  1 47  1  0
  2  1  2  0
  4 10  1  0
  4  3  2  0
  6  9  1  0
  7  5  1  0
  8  6  2  0
  8 10  1  0
  9  5  2  0
 10  7  2  0
 11  9  1  0
 12 17  1  0
 13 14  1  0
 13 12  1  0
 15 14  1  0
 15 22  1  0
 15 16  1  0
 17 11  1  0
 17 16  1  0
 18 11  2  0
 19 20  2  0
 20 39  1  0
 21 20  1  0
 21 24  1  0
 22 19  1  0
 22 23  1  0
 23 21  2  0
 24 25  1  0
 25 26  2  0
 27 30  1  0
 27 26  1  0
 28 27  2  0
 29 28  1  0
 29 24  2  0
 30 31  1  0
 31 32  1  0
 32 33  2  0
 34 33  1  0
 34 38  1  0
 35 34  2  0
 36 31  2  0
 36 35  1  0
 37 36  1  0
 39 40  1  0
 40 43  1  0
 40 42  1  0
 41 39  2  0
 44 45  1  0
 44 19  1  0
 46 44  1  0
 48 47  1  0
 49 60  2  0
 50 48  1  0
 50 55  1  0
 51 59  1  0
 51 61  1  0
 52 58  1  0
 52 54  1  0
 53 59  1  0
 54 53  1  0
 55 54  2  0
 56 50  2  0
 57 56  1  0
 57 52  2  0
 58 51  1  0
 59 49  1  0
 61 63  2  0
 62 61  1  0
 64 62  1  0
 65 74  2  0
 65 70  1  0
 66 62  1  0
 66 70  1  0
 67 66  1  0
 68 69  1  0
 68 67  1  0
 69 65  1  0
 70 71  2  0
 71 72  1  0
 73 72  2  0
 74 73  1  0
 75 49  1  0
 75 80  1  0
 75 76  1  0
 76 79  1  1
 76 77  1  0
 78 76  1  0
 80 83  1  0
 81 85  1  0
 81 80  1  0
 82 81  2  0
 85 84  1  0
 87 85  1  0
 87 88  1  0
 87 86  1  0
M  ISO  4   9 100  11 100  47 101  48 101
M  END
>  <TORSDO>  (80) 
F 20

>  <SCORE>  (80) 
-13.868

>  <name>  (80) 
80

>  <ligand_id>  (80) 
80

>  <original_smiles>  (80) 
[H]c1c([H])c([H])c2c(c1[H])C([H])([H])C([H])([H])C([H])([H])C2([H])N([H])C(=O)C1([H])N(C(=O)C([H])(N([H])C(=O)C([H])(N([H])C([H])([H])[H])C([H])([H])[H])C(C([H])([H])[H])(C([H])([H])[H])C([H])([H])[H])C([H])([H])c2c([H])c(OC([H])([H])C(=O)C([H])([H])C([H])([H])c3c([H])c([H])c(C(=O)N4C([H])([H])C([H])([H])C([H])([H])C([H])(n5nc(-c6c([H])c([H])c(Oc7c([H])c([H])c(F)c([H])c7F)c([H])c6[H])c(C(=O)N([H])[H])c5N([H])[H])C4([H])[H])c([H])c3[H])c([H])c([H])c2C1([H])[H]

>  <smiles>  (80) 
[H]c1c([H])c([H])c2c(c1[H])C([H])([H])C([H])([H])C([H])([H])C2([H])N([H])C(=O)C1([H])N(C(=O)C([H])(N([H])C(=O)C([H])(N([H])C([H])([H])[H])C([H])([H])[H])C(C([H])([H])[H])(C([H])([H])[H])C([H])([H])[H])C([H])([H])c2c([H])c(OC([H])([H])C(=O)C([H])([H])C([H])([H])c3c([H])c([H])c(C(=O)N4C([H])([H])C([H])([H])C([H])([H])C([H])(n5nc(-c6c([H])c([H])c(Oc7c([H])c([H])c(F)c([H])c7F)c([H])c6[H])c(C(=O)N([H])[H])c5N([H])[H])C4([H])[H])c([H])c3[H])c([H])c([H])c2C1([H])[H]

$$$$
81:0:0
     RDKit          3D

 90 98  0  0  1  0  0  0  0  0999 V2000
  -29.4850  -20.0310   18.8640 C   0  0  0  0  0  2  0  0  0  0  0  0
  -29.4830  -19.1230   21.0230 C   0  0  0  0  0  2  0  0  0  0  0  0
  -29.5260  -18.4410   18.7890 C   0  0  0  0  0  3  0  0  0  0  0  0
  -30.1080  -17.8940   20.1230 C   0  0  0  0  0  3  0  0  0  0  0  0
  -29.5660  -20.4960   20.2860 N   0  0  2  0  0  4  0  0  0  0  0  0
  -30.5260  -20.7830   20.4230 H   0  0  0  0  0  0  0  0  0  0  0  0
  -30.6610  -15.1580   20.1600 C   0  0  0  0  0  0  0  0  0  0  0  0
  -30.5180  -12.8330   19.1490 C   0  0  0  0  0  2  0  0  0  0  0  0
  -29.5490  -12.8350   17.9440 C   0  0  0  0  0  2  0  0  0  0  0  0
  -28.1030  -12.6030   18.4200 C   0  0  0  0  0  2  0  0  0  0  0  0
  -27.7330  -13.4890   19.6370 C   0  0  0  0  0  3  0  0  0  0  0  0
  -28.8210  -13.4590   20.7320 C   0  0  0  0  0  2  0  0  0  0  0  0
  -30.0710  -13.8960   20.0990 N   0  0  0  0  0  0  0  0  0  0  0  0
  -31.8450  -15.2370   19.8170 O   0  0  0  0  0  0  0  0  0  0  0  0
  -29.8870  -16.3350   20.3900 N   0  0  0  0  0  0  0  0  0  0  0  0
  -28.9470  -16.1140   20.6800 H   0  0  0  0  0  0  0  0  0  0  0  0
  -25.3670  -14.0350   20.4400 C   0  0  0  0  0  0  0  0  0  0  0  0
  -24.3180  -13.2440   20.8270 C   0  0  0  0  0  0  0  0  0  0  0  0
  -24.7950  -11.9000   20.7710 C   0  0  0  0  0  0  0  0  0  0  0  0
  -26.4120  -13.1690   20.1690 N   0  0  0  0  0  0  0  0  0  0  0  0
  -26.0800  -11.8790   20.4340 N   0  0  0  0  0  0  0  0  0  0  0  0
  -24.0880  -10.6260   20.9630 C   0  0  0  0  0  0  0  0  0  0  0  0
  -24.5230   -9.6720   21.9080 C   0  0  0  0  0  3  0  0  0  0  0  0
  -23.8100   -8.4670   22.0860 C   0  0  0  0  0  3  0  0  0  0  0  0
  -22.6520   -8.2060   21.3180 C   0  0  0  0  0  0  0  0  0  0  0  0
  -22.2380   -9.1500   20.3620 C   0  0  0  0  0  3  0  0  0  0  0  0
  -22.9500  -10.3460   20.1820 C   0  0  0  0  0  3  0  0  0  0  0  0
  -21.9130   -7.0510   21.4020 O   0  0  0  0  0  0  0  0  0  0  0  0
  -21.8270   -6.3360   22.5690 C   0  0  0  0  0  0  0  0  0  0  0  0
  -21.3110   -6.9060   23.7550 C   0  0  0  0  0  3  0  0  0  0  0  0
  -21.1770   -6.1170   24.9140 C   0  0  0  0  0  3  0  0  0  0  0  0
  -21.5480   -4.7580   24.8890 C   0  0  0  0  0  0  0  0  0  0  0  0
  -22.0580   -4.1900   23.7090 C   0  0  0  0  0  3  0  0  0  0  0  0
  -22.1930   -4.9750   22.5510 C   0  0  0  0  0  0  0  0  0  0  0  0
  -22.6640   -4.4170   21.4100 F   0  0  0  0  0  0  0  0  0  0  0  0
  -21.4120   -3.9960   26.0010 F   0  0  0  0  0  0  0  0  0  0  0  0
  -22.9240  -13.7040   21.1350 C   0  0  0  0  0  0  0  0  0  0  0  0
  -22.2220  -12.9900   22.0090 N   0  0  0  0  0  0  0  0  0  0  0  0
  -22.4670  -14.7320   20.6410 O   0  0  0  0  0  0  0  0  0  0  0  0
  -22.5990  -12.1500   22.4220 H   0  0  0  0  0  0  0  0  0  0  0  0
  -21.2930  -13.2920   22.2720 H   0  0  0  0  0  0  0  0  0  0  0  0
  -25.5100  -15.4080   20.2680 N   0  0  0  0  0  0  0  0  0  0  0  0
  -24.7160  -16.0360   20.3450 H   0  0  0  0  0  0  0  0  0  0  0  0
  -26.3330  -15.8540   19.8890 H   0  0  0  0  0  0  0  0  0  0  0  0
  -29.5120  -18.3330   16.2060 C   0  0  0  0  0  1  0  0  0  0  0  0
  -30.2060  -17.8950   17.5120 C   0  0  0  0  0  2  0  0  0  0  0  0
  -28.6860  -21.7760   20.6780 C   0  0  0  0  0  2  0  0  0  0  0  0
  -29.0750  -23.4030   20.3480 C   0  0  0  0  0  3  0  0  0  0  0  0
  -28.0660  -24.7500   20.6070 C   0  0  0  0  0  3  0  0  0  0  0  0
  -28.3380  -26.2900   20.4080 O   0  0  0  0  0  0  0  0  0  0  0  0
  -24.6290  -32.0300   23.2740 C   0  0  0  0  0  0  0  0  0  0  0  0
  -27.2780  -27.2720   20.3470 C   0  0  0  0  0  0  0  0  0  0  0  0
  -23.4570  -30.5830   21.6570 C   0  0  0  0  0  3  0  0  0  0  0  0
  -24.9350  -29.0080   20.2630 C   0  0  0  0  0  0  0  0  0  0  0  0
  -26.0070  -30.8790   21.5000 C   0  0  0  0  0  2  0  0  0  0  0  0
  -26.1060  -29.4750   20.8710 C   0  0  0  0  0  0  0  0  0  0  0  0
  -27.2790  -28.6260   20.8920 C   0  0  0  0  0  3  0  0  0  0  0  0
  -26.0780  -26.9150   19.6920 C   0  0  0  0  0  3  0  0  0  0  0  0
  -24.9360  -27.7430   19.6550 C   0  0  0  0  0  3  0  0  0  0  0  0
  -23.6990  -29.8950   20.2880 C   0  0  0  0  0  2  0  0  0  0  0  0
  -24.7170  -31.1870   22.1980 N   0  0  0  0  0  0  0  0  0  0  0  0
  -23.5380  -32.3090   23.7920 O   0  0  0  0  0  0  0  0  0  0  0  0
  -22.7880  -29.5810   22.6320 C   0  0  0  0  0  0  0  0  0  0  0  0
  -21.4680  -29.3730   22.4890 N   0  0  0  0  0  0  0  0  0  0  0  0
  -23.4600  -28.9970   23.4850 O   0  0  0  0  0  0  0  0  0  0  0  0
  -20.9800  -29.9060   21.7830 H   0  0  0  0  0  0  0  0  0  0  0  0
  -18.1070  -28.1020   22.9700 C   0  0  0  0  0  0  0  0  0  0  0  0
  -20.6580  -28.4350   23.2680 C   0  0  0  0  0  3  0  0  0  0  0  0
  -20.8000  -26.9890   22.7360 C   0  0  0  0  0  2  0  0  0  0  0  0
  -19.7230  -26.6140   21.7140 C   0  0  0  0  0  2  0  0  0  0  0  0
  -18.3270  -26.7420   22.3330 C   0  0  0  0  0  2  0  0  0  0  0  0
  -19.2010  -28.9020   23.3940 C   0  0  0  0  0  0  0  0  0  0  0  0
  -18.9410  -30.1750   23.9500 C   0  0  0  0  0  3  0  0  0  0  0  0
  -17.6210  -30.6430   24.0890 C   0  0  0  0  0  3  0  0  0  0  0  0
  -16.5430  -29.8380   23.6820 C   0  0  0  0  0  3  0  0  0  0  0  0
  -16.7880  -28.5710   23.1230 C   0  0  0  0  0  3  0  0  0  0  0  0
  -25.8980  -32.6920   23.8920 C   0  0  0  0  0  3  0  0  0  0  0  0
  -26.4140  -31.9590   25.1890 C   0  0  1  0  0  0  0  0  0  0  0  0
  -25.3070  -31.7120   26.2420 C   0  0  0  0  0  1  0  0  0  0  0  0
  -27.0400  -30.5930   24.8320 C   0  0  0  0  0  1  0  0  0  0  0  0
  -27.5430  -32.7880   25.8470 C   0  0  0  0  0  1  0  0  0  0  0  0
  -25.5690  -34.0940   24.1930 N   0  0  0  0  0  0  0  0  0  0  0  0
  -25.9040  -35.1380   23.4240 C   0  0  0  0  0  0  0  0  0  0  0  0
  -26.5840  -35.0220   22.4000 O   0  0  0  0  0  0  0  0  0  0  0  0
  -24.9650  -34.2560   24.9850 H   0  0  0  0  0  0  0  0  0  0  0  0
  -24.1770  -36.9190   23.0090 C   0  0  0  0  0  1  0  0  0  0  0  0
  -25.3990  -36.5290   23.8560 C   0  0  0  0  0  3  0  0  0  0  0  0
  -27.5050  -37.4360   24.7280 C   0  0  0  0  0  1  0  0  0  0  0  0
  -26.4280  -37.5860   23.7550 N   0  0  0  0  0  0  0  0  0  0  0  0
  -26.0130  -38.5050   23.8820 H   0  0  0  0  0  0  0  0  0  0  0  0
  1  5  1  0
  3 46  1  0
  3  1  1  0
  3  4  1  0
  4 15  1  0
  4  2  1  0
  5  6  1  6
  5 47  1  0
  5  2  1  0
  7 15  1  0
  8 13  1  0
  9 10  1  0
  9  8  1  0
 11 10  1  0
 11 20  1  0
 11 12  1  0
 13  7  1  0
 13 12  1  0
 14  7  2  0
 15 16  1  0
 17 18  2  0
 18 37  1  0
 19 18  1  0
 19 22  1  0
 20 21  1  0
 20 17  1  0
 21 19  2  0
 22 23  1  0
 23 24  2  0
 25 28  1  0
 25 24  1  0
 26 25  2  0
 27 26  1  0
 27 22  2  0
 28 29  1  0
 29 30  1  0
 30 31  2  0
 32 31  1  0
 32 36  1  0
 33 32  2  0
 34 29  2  0
 34 33  1  0
 35 34  1  0
 37 38  1  0
 38 41  1  0
 38 40  1  0
 39 37  2  0
 42 43  1  0
 42 17  1  0
 44 42  1  0
 45 46  1  0
 48 49  2  0
 48 47  1  0
 50 49  1  0
 51 62  2  0
 52 50  1  0
 52 57  1  0
 53 61  1  0
 53 63  1  0
 54 60  1  0
 54 56  1  0
 55 61  1  0
 56 57  2  0
 56 55  1  0
 58 52  2  0
 59 58  1  0
 59 54  2  0
 60 53  1  0
 61 51  1  0
 63 65  2  0
 64 63  1  0
 66 64  1  0
 67 76  2  0
 67 72  1  0
 68 64  1  0
 68 72  1  0
 69 68  1  0
 70 71  1  0
 70 69  1  0
 71 67  1  0
 72 73  2  0
 73 74  1  0
 75 74  2  0
 76 75  1  0
 77 51  1  0
 77 82  1  0
 77 78  1  0
 78 81  1  1
 78 79  1  0
 80 78  1  0
 82 85  1  0
 83 87  1  0
 83 82  1  0
 84 83  2  0
 87 86  1  0
 89 87  1  0
 89 90  1  0
 89 88  1  0
M  ISO  4   7 100  15 100  49 101  50 101
M  END
>  <TORSDO>  (81) 
F 20

>  <SCORE>  (81) 
-14.464

>  <name>  (81) 
81

>  <ligand_id>  (81) 
81

>  <original_smiles>  (81) 
[H]c1c([H])c([H])c2c(c1[H])C([H])([H])C([H])([H])C([H])([H])C2([H])N([H])C(=O)C1([H])N(C(=O)C([H])(N([H])C(=O)C([H])(N([H])C([H])([H])[H])C([H])([H])[H])C(C([H])([H])[H])(C([H])([H])[H])C([H])([H])[H])C([H])([H])c2c([H])c(OC([H])([H])C([H])([H])C([H])([H])[N+]3([H])C([H])([H])C([H])(N([H])C(=O)N4C([H])([H])C([H])([H])C([H])([H])C([H])(n5nc(-c6c([H])c([H])c(Oc7c([H])c([H])c(F)c([H])c7F)c([H])c6[H])c(C(=O)N([H])[H])c5N([H])[H])C4([H])[H])C([H])(C([H])([H])C([H])([H])[H])C3([H])[H])c([H])c([H])c2C1([H])[H]

>  <smiles>  (81) 
[H]c1c([H])c([H])c2c(c1[H])C([H])([H])C([H])([H])C([H])([H])C2([H])N([H])C(=O)C1([H])N(C(=O)C([H])(N([H])C(=O)C([H])(N([H])C([H])([H])[H])C([H])([H])[H])C(C([H])([H])[H])(C([H])([H])[H])C([H])([H])[H])C([H])([H])c2c([H])c(OC([H])([H])C([H])([H])C([H])([H])[N+]3([H])C([H])([H])C([H])(N([H])C(=O)N4C([H])([H])C([H])([H])C([H])([H])C([H])(n5nc(-c6c([H])c([H])c(Oc7c([H])c([H])c(F)c([H])c7F)c([H])c6[H])c(C(=O)N([H])[H])c5N([H])[H])C4([H])[H])C([H])(C([H])([H])C([H])([H])[H])C3([H])[H])c([H])c([H])c2C1([H])[H]

$$$$
82:0:0
     RDKit          3D

 91 99  0  0  1  0  0  0  0  0999 V2000
  -29.6830  -20.1750   21.9720 C   0  0  0  0  0  2  0  0  0  0  0  0
  -28.2390  -20.6620   21.7460 C   0  0  0  0  0  2  0  0  0  0  0  0
  -30.3930  -20.1690   20.6110 C   0  0  0  0  0  3  0  0  0  0  0  0
  -29.6380  -21.6050   19.9270 C   0  0  0  0  0  3  0  0  0  0  0  0
  -28.1740  -21.3810   20.3790 C   0  0  0  0  0  3  0  0  0  0  0  0
  -27.3780  -20.6380   19.3810 N   0  0  0  0  0  4  0  0  0  0  0  0
  -27.7520  -19.7230   19.2090 H   0  0  0  0  0  0  0  0  0  0  0  0
  -27.3460  -21.1460   18.5130 H   0  0  0  0  0  0  0  0  0  0  0  0
  -26.4300  -20.5400   19.6990 H   0  0  0  0  0  0  0  0  0  0  0  0
  -31.2210  -18.5080   18.6910 C   0  0  0  0  0  1  0  0  0  0  0  0
  -30.4820  -18.4970   20.0340 C   0  0  0  0  0  3  0  0  0  0  0  0
  -30.8780  -17.0050   20.8880 C   0  0  0  0  0  2  0  0  0  0  0  0
  -31.4310  -15.4290   20.4590 C   0  0  0  0  0  0  0  0  0  0  0  0
  -31.3050  -12.9520   19.7420 C   0  0  0  0  0  2  0  0  0  0  0  0
  -30.4670  -12.7710   18.4500 C   0  0  0  0  0  2  0  0  0  0  0  0
  -28.9800  -12.5990   18.7940 C   0  0  0  0  0  2  0  0  0  0  0  0
  -28.5140  -13.6370   19.8400 C   0  0  0  0  0  3  0  0  0  0  0  0
  -29.4860  -13.8060   21.0310 C   0  0  0  0  0  2  0  0  0  0  0  0
  -30.8030  -14.1630   20.4860 N   0  0  0  0  0  0  0  0  0  0  0  0
  -32.6180  -15.3530   20.1210 O   0  0  0  0  0  0  0  0  0  0  0  0
  -26.1490  -14.3380   20.4880 C   0  0  0  0  0  0  0  0  0  0  0  0
  -25.0250  -13.6230   20.7870 C   0  0  0  0  0  0  0  0  0  0  0  0
  -25.4040  -12.2470   20.7520 C   0  0  0  0  0  0  0  0  0  0  0  0
  -27.1440  -13.4020   20.2750 N   0  0  0  0  0  0  0  0  0  0  0  0
  -26.7020  -12.1380   20.5000 N   0  0  0  0  0  0  0  0  0  0  0  0
  -24.5860  -11.0330   20.8830 C   0  0  0  0  0  0  0  0  0  0  0  0
  -24.9110  -10.0170   21.8100 C   0  0  0  0  0  3  0  0  0  0  0  0
  -24.0990   -8.8700   21.9310 C   0  0  0  0  0  3  0  0  0  0  0  0
  -22.9450   -8.7290   21.1220 C   0  0  0  0  0  0  0  0  0  0  0  0
  -22.6400   -9.7300   20.1810 C   0  0  0  0  0  3  0  0  0  0  0  0
  -23.4520  -10.8700   20.0600 C   0  0  0  0  0  3  0  0  0  0  0  0
  -22.1070   -7.6400   21.1540 O   0  0  0  0  0  0  0  0  0  0  0  0
  -21.9390   -6.8910   22.2920 C   0  0  0  0  0  0  0  0  0  0  0  0
  -21.4840   -7.4650   23.4990 C   0  0  0  0  0  3  0  0  0  0  0  0
  -21.2580   -6.6500   24.6260 C   0  0  0  0  0  3  0  0  0  0  0  0
  -21.4770   -5.2620   24.5450 C   0  0  0  0  0  0  0  0  0  0  0  0
  -21.9260   -4.6860   23.3430 C   0  0  0  0  0  3  0  0  0  0  0  0
  -22.1530   -5.4990   22.2190 C   0  0  0  0  0  0  0  0  0  0  0  0
  -22.5640   -4.9370   21.0550 F   0  0  0  0  0  0  0  0  0  0  0  0
  -21.2530   -4.4770   25.6250 F   0  0  0  0  0  0  0  0  0  0  0  0
  -23.6480  -14.1810   21.0070 C   0  0  0  0  0  0  0  0  0  0  0  0
  -22.8480  -13.5210   21.8360 N   0  0  0  0  0  0  0  0  0  0  0  0
  -23.2970  -15.2380   20.4850 O   0  0  0  0  0  0  0  0  0  0  0  0
  -23.1590  -12.6700   22.2840 H   0  0  0  0  0  0  0  0  0  0  0  0
  -21.9170  -13.8670   22.0260 H   0  0  0  0  0  0  0  0  0  0  0  0
  -26.4130  -15.6990   20.3530 N   0  0  0  0  0  0  0  0  0  0  0  0
  -25.6870  -16.4030   20.4160 H   0  0  0  0  0  0  0  0  0  0  0  0
  -27.3040  -16.0700   20.0540 H   0  0  0  0  0  0  0  0  0  0  0  0
  -29.9290  -23.3160   20.2190 C   0  0  0  0  0  3  0  0  0  0  0  0
  -28.9320  -24.7130   19.8510 C   0  0  0  0  0  3  0  0  0  0  0  0
  -29.0720  -26.2810   20.1670 O   0  0  0  0  0  0  0  0  0  0  0  0
  -24.9150  -31.6560   23.2430 C   0  0  0  0  0  0  0  0  0  0  0  0
  -27.9720  -27.2520   20.0930 C   0  0  0  0  0  0  0  0  0  0  0  0
  -23.9140  -30.3050   21.4420 C   0  0  0  0  0  3  0  0  0  0  0  0
  -25.5500  -28.9160   20.0070 C   0  0  0  0  0  0  0  0  0  0  0  0
  -26.4560  -30.7140   21.4680 C   0  0  0  0  0  2  0  0  0  0  0  0
  -26.6630  -29.3720   20.7280 C   0  0  0  0  0  0  0  0  0  0  0  0
  -27.8680  -28.5570   20.7560 C   0  0  0  0  0  3  0  0  0  0  0  0
  -26.8300  -26.9250   19.3290 C   0  0  0  0  0  3  0  0  0  0  0  0
  -25.6530  -27.7150   19.2880 C   0  0  0  0  0  3  0  0  0  0  0  0
  -24.2650  -29.7380   20.0390 C   0  0  0  0  0  2  0  0  0  0  0  0
  -25.1110  -30.9150   22.1070 N   0  0  0  0  0  0  0  0  0  0  0  0
  -23.7820  -31.8350   23.7160 O   0  0  0  0  0  0  0  0  0  0  0  0
  -23.2440  -29.1960   22.2910 C   0  0  0  0  0  0  0  0  0  0  0  0
  -21.9250  -29.0010   22.1200 N   0  0  0  0  0  0  0  0  0  0  0  0
  -23.9170  -28.5120   23.0680 O   0  0  0  0  0  0  0  0  0  0  0  0
  -21.4340  -29.6060   21.4730 H   0  0  0  0  0  0  0  0  0  0  0  0
  -18.5590  -27.7080   22.5110 C   0  0  0  0  0  0  0  0  0  0  0  0
  -21.1190  -27.9700   22.7810 C   0  0  0  0  0  3  0  0  0  0  0  0
  -21.2260  -26.6180   22.0380 C   0  0  0  0  0  2  0  0  0  0  0  0
  -20.1180  -26.4070   21.0010 C   0  0  0  0  0  2  0  0  0  0  0  0
  -18.7410  -26.4560   21.6680 C   0  0  0  0  0  2  0  0  0  0  0  0
  -19.6750  -28.4280   23.0160 C   0  0  0  0  0  0  0  0  0  0  0  0
  -19.4490  -29.6040   23.7640 C   0  0  0  0  0  3  0  0  0  0  0  0
  -18.1420  -30.0670   24.0040 C   0  0  0  0  0  3  0  0  0  0  0  0
  -17.0410  -29.3460   23.5120 C   0  0  0  0  0  3  0  0  0  0  0  0
  -17.2490  -28.1660   22.7750 C   0  0  0  0  0  3  0  0  0  0  0  0
  -26.1070  -32.3270   23.9930 C   0  0  0  0  0  3  0  0  0  0  0  0
  -25.7060  -33.7030   24.3420 N   0  0  0  0  0  0  0  0  0  0  0  0
  -26.0280  -34.7960   23.6370 C   0  0  0  0  0  0  0  0  0  0  0  0
  -26.7600  -34.7580   22.6440 O   0  0  0  0  0  0  0  0  0  0  0  0
  -25.0680  -33.8070   25.1180 H   0  0  0  0  0  0  0  0  0  0  0  0
  -24.2290  -36.5090   23.2430 C   0  0  0  0  0  1  0  0  0  0  0  0
  -25.4500  -36.1480   24.1020 C   0  0  0  0  0  3  0  0  0  0  0  0
  -27.4930  -37.1160   25.0630 C   0  0  0  0  0  1  0  0  0  0  0  0
  -26.4320  -37.2550   24.0680 N   0  0  0  0  0  0  0  0  0  0  0  0
  -25.9720  -38.1490   24.2180 H   0  0  0  0  0  0  0  0  0  0  0  0
  -26.5400  -31.5460   25.2940 C   0  0  1  0  0  0  0  0  0  0  0  0
  -25.3720  -31.2420   26.2600 C   0  0  0  0  0  1  0  0  0  0  0  0
  -27.2070  -30.2000   24.9300 C   0  0  0  0  0  1  0  0  0  0  0  0
  -27.6000  -32.3670   26.0680 C   0  0  0  0  0  1  0  0  0  0  0  0
  2  1  1  0
  3 11  1  0
  3  1  1  0
  4 49  1  0
  4  5  1  0
  4  3  1  0
  5  6  1  0
  5  2  1  0
  6  9  1  0
  7  6  1  0
  8  6  1  0
 11 10  1  0
 11 12  1  0
 13 19  1  0
 13 12  1  0
 14 19  1  0
 15 16  1  0
 15 14  1  0
 17 16  1  0
 17 24  1  0
 17 18  1  0
 19 18  1  0
 20 13  2  0
 21 22  2  0
 22 41  1  0
 23 22  1  0
 23 26  1  0
 24 21  1  0
 24 25  1  0
 25 23  2  0
 26 27  1  0
 27 28  2  0
 29 32  1  0
 29 28  1  0
 30 29  2  0
 31 30  1  0
 31 26  2  0
 32 33  1  0
 33 34  1  0
 34 35  2  0
 36 35  1  0
 36 40  1  0
 37 36  2  0
 38 33  2  0
 38 37  1  0
 39 38  1  0
 41 42  1  0
 42 45  1  0
 42 44  1  0
 43 41  2  0
 46 47  1  0
 46 21  1  0
 48 46  1  0
 50 51  1  0
 50 49  2  0
 52 63  2  0
 53 51  1  0
 53 58  1  0
 54 62  1  0
 54 64  1  0
 55 61  1  0
 55 57  1  0
 56 62  1  0
 57 58  2  0
 57 56  1  0
 59 53  2  0
 60 59  1  0
 60 55  2  0
 61 54  1  0
 62 52  1  0
 64 66  2  0
 65 64  1  0
 67 65  1  0
 68 77  2  0
 68 73  1  0
 69 65  1  0
 69 73  1  0
 70 69  1  0
 71 72  1  0
 71 70  1  0
 72 68  1  0
 73 74  2  0
 74 75  1  0
 76 75  2  0
 77 76  1  0
 78 52  1  0
 78 79  1  0
 78 88  1  0
 79 82  1  0
 80 84  1  0
 80 79  1  0
 81 80  2  0
 84 83  1  0
 86 84  1  0
 86 87  1  0
 86 85  1  0
 88 91  1  1
 88 89  1  0
 90 88  1  0
M  ISO  4  12 100  13 100  50 101  51 101
M  END
>  <TORSDO>  (82) 
F 21

>  <SCORE>  (82) 
-12.595

>  <name>  (82) 
82

>  <ligand_id>  (82) 
82

>  <original_smiles>  (82) 
[H]c1c([H])c([H])c2c(c1[H])C([H])([H])C([H])([H])C([H])([H])C2([H])N([H])C(=O)C1([H])N(C(=O)C([H])(N([H])C(=O)C([H])(N([H])C([H])([H])[H])C([H])([H])[H])C(C([H])([H])[H])(C([H])([H])[H])C([H])([H])[H])C([H])([H])c2c([H])c(OC([H])([H])C([H])([H])C3([H])C([H])(C([H])(C([H])([H])[H])C([H])([H])C(=O)N4C([H])([H])C([H])([H])C([H])([H])C([H])(n5nc(-c6c([H])c([H])c(Oc7c([H])c([H])c(F)c([H])c7F)c([H])c6[H])c(C(=O)N([H])[H])c5N([H])[H])C4([H])[H])C([H])([H])C([H])([H])C3([H])[N+]([H])([H])[H])c([H])c([H])c2C1([H])[H]

>  <smiles>  (82) 
[H]c1c([H])c([H])c2c(c1[H])C([H])([H])C([H])([H])C([H])([H])C2([H])N([H])C(=O)C1([H])N(C(=O)C([H])(N([H])C(=O)C([H])(N([H])C([H])([H])[H])C([H])([H])[H])C(C([H])([H])[H])(C([H])([H])[H])C([H])([H])[H])C([H])([H])c2c([H])c(OC([H])([H])C([H])([H])C3([H])C([H])(C([H])(C([H])([H])[H])C([H])([H])C(=O)N4C([H])([H])C([H])([H])C([H])([H])C([H])(n5nc(-c6c([H])c([H])c(Oc7c([H])c([H])c(F)c([H])c7F)c([H])c6[H])c(C(=O)N([H])[H])c5N([H])[H])C4([H])[H])C([H])([H])C([H])([H])C3([H])[N+]([H])([H])[H])c([H])c([H])c2C1([H])[H]

$$$$
83:0:0
     RDKit          3D

 91 99  0  0  1  0  0  0  0  0999 V2000
  -28.9090  -21.3980   20.6370 N   0  0  0  0  0  4  0  0  0  0  0  0
  -29.5790  -21.4790   21.3870 H   0  0  0  0  0  0  0  0  0  0  0  0
  -28.0280  -21.2560   21.1070 H   0  0  0  0  0  0  0  0  0  0  0  0
  -30.8110  -18.6260   19.1150 C   0  0  0  0  0  2  0  0  0  0  0  0
  -30.5360  -20.1340   19.0730 C   0  0  0  0  0  3  0  0  0  0  0  0
  -29.9510  -18.4050   20.3730 C   0  0  0  0  0  3  0  0  0  0  0  0
  -29.2300  -19.9640   19.8780 C   0  0  0  0  0  3  0  0  0  0  0  0
  -30.4480  -20.7220   17.6640 C   0  0  0  0  0  0  0  0  0  0  0  0
  -31.7650  -21.1640   17.0630 C   0  0  0  0  0  1  0  0  0  0  0  0
  -29.3700  -20.8300   17.0090 N   0  0  0  0  0  0  0  0  0  0  0  0
  -28.5620  -20.4820   17.5120 H   0  0  0  0  0  0  0  0  0  0  0  0
  -29.4970  -16.6930   20.4660 C   0  0  0  0  0  2  0  0  0  0  0  0
  -30.3770  -15.2070   20.2620 C   0  0  0  0  0  0  0  0  0  0  0  0
  -30.3560  -12.7840   19.3540 C   0  0  0  0  0  2  0  0  0  0  0  0
  -29.4200  -12.6580   18.1240 C   0  0  0  0  0  2  0  0  0  0  0  0
  -27.9640  -12.4090   18.5600 C   0  0  0  0  0  2  0  0  0  0  0  0
  -27.5390  -13.3390   19.7240 C   0  0  0  0  0  3  0  0  0  0  0  0
  -28.5960  -13.4180   20.8420 C   0  0  0  0  0  2  0  0  0  0  0  0
  -29.8480  -13.8930   20.2340 N   0  0  0  0  0  0  0  0  0  0  0  0
  -31.5820  -15.2460   19.9790 O   0  0  0  0  0  0  0  0  0  0  0  0
  -25.1660  -13.8930   20.4860 C   0  0  0  0  0  0  0  0  0  0  0  0
  -24.1090  -13.1130   20.8600 C   0  0  0  0  0  0  0  0  0  0  0  0
  -24.5810  -11.7640   20.8300 C   0  0  0  0  0  0  0  0  0  0  0  0
  -26.2110  -13.0220   20.2360 N   0  0  0  0  0  0  0  0  0  0  0  0
  -25.8720  -11.7350   20.5110 N   0  0  0  0  0  0  0  0  0  0  0  0
  -23.8610  -10.4990   21.0260 C   0  0  0  0  0  0  0  0  0  0  0  0
  -24.2990   -9.5320   21.9560 C   0  0  0  0  0  3  0  0  0  0  0  0
  -23.5730   -8.3360   22.1410 C   0  0  0  0  0  3  0  0  0  0  0  0
  -22.3970   -8.0960   21.3920 C   0  0  0  0  0  0  0  0  0  0  0  0
  -21.9770   -9.0520   20.4510 C   0  0  0  0  0  3  0  0  0  0  0  0
  -22.7030  -10.2400   20.2640 C   0  0  0  0  0  3  0  0  0  0  0  0
  -21.6430   -6.9500   21.4860 O   0  0  0  0  0  0  0  0  0  0  0  0
  -21.6030   -6.2060   22.6390 C   0  0  0  0  0  0  0  0  0  0  0  0
  -21.1850   -6.7600   23.8690 C   0  0  0  0  0  3  0  0  0  0  0  0
  -21.0930   -5.9430   25.0130 C   0  0  0  0  0  3  0  0  0  0  0  0
  -21.4090   -4.5730   24.9290 C   0  0  0  0  0  0  0  0  0  0  0  0
  -21.8200   -4.0190   23.7050 C   0  0  0  0  0  3  0  0  0  0  0  0
  -21.9150   -4.8340   22.5620 C   0  0  0  0  0  0  0  0  0  0  0  0
  -22.2900   -4.2910   21.3790 F   0  0  0  0  0  0  0  0  0  0  0  0
  -21.3140   -3.7870   26.0260 F   0  0  0  0  0  0  0  0  0  0  0  0
  -22.7110  -13.5850   21.1350 C   0  0  0  0  0  0  0  0  0  0  0  0
  -21.9890  -12.8850   22.0040 N   0  0  0  0  0  0  0  0  0  0  0  0
  -22.2700  -14.6090   20.6150 O   0  0  0  0  0  0  0  0  0  0  0  0
  -22.3590  -12.0560   22.4430 H   0  0  0  0  0  0  0  0  0  0  0  0
  -21.0520  -13.1820   22.2320 H   0  0  0  0  0  0  0  0  0  0  0  0
  -25.3230  -15.2640   20.3080 N   0  0  0  0  0  0  0  0  0  0  0  0
  -24.5550  -15.9170   20.4250 H   0  0  0  0  0  0  0  0  0  0  0  0
  -26.1700  -15.7070   19.9750 H   0  0  0  0  0  0  0  0  0  0  0  0
  -28.8220  -22.9100   19.9690 C   0  0  0  0  0  3  0  0  0  0  0  0
  -28.1030  -24.3980   20.6100 C   0  0  0  0  0  3  0  0  0  0  0  0
  -28.2610  -25.9850   20.2700 O   0  0  0  0  0  0  0  0  0  0  0  0
  -24.6290  -31.8750   23.2140 C   0  0  0  0  0  0  0  0  0  0  0  0
  -27.2110  -27.0240   20.2590 C   0  0  0  0  0  0  0  0  0  0  0  0
  -23.4400  -30.4620   21.5850 C   0  0  0  0  0  3  0  0  0  0  0  0
  -24.8960  -28.8540   20.1860 C   0  0  0  0  0  0  0  0  0  0  0  0
  -26.0020  -30.6980   21.4330 C   0  0  0  0  0  2  0  0  0  0  0  0
  -26.0790  -29.2850   20.7970 C   0  0  0  0  0  0  0  0  0  0  0  0
  -27.2350  -28.3930   20.8040 C   0  0  0  0  0  3  0  0  0  0  0  0
  -25.9950  -26.7240   19.6070 C   0  0  0  0  0  3  0  0  0  0  0  0
  -24.8740  -27.5910   19.5710 C   0  0  0  0  0  3  0  0  0  0  0  0
  -23.6720  -29.7660   20.2180 C   0  0  0  0  0  2  0  0  0  0  0  0
  -24.7110  -31.0380   22.1320 N   0  0  0  0  0  0  0  0  0  0  0  0
  -23.5400  -32.1670   23.7330 O   0  0  0  0  0  0  0  0  0  0  0  0
  -22.7500  -29.4720   22.5590 C   0  0  0  0  0  0  0  0  0  0  0  0
  -21.4210  -29.2980   22.4280 N   0  0  0  0  0  0  0  0  0  0  0  0
  -23.4150  -28.8580   23.3970 O   0  0  0  0  0  0  0  0  0  0  0  0
  -20.9400  -29.8400   21.7240 H   0  0  0  0  0  0  0  0  0  0  0  0
  -18.0440  -28.0660   22.9150 C   0  0  0  0  0  0  0  0  0  0  0  0
  -20.5980  -28.3640   23.2060 C   0  0  0  0  0  3  0  0  0  0  0  0
  -20.7220  -26.9240   22.6580 C   0  0  0  0  0  2  0  0  0  0  0  0
  -19.6350  -26.5730   21.6370 C   0  0  0  0  0  2  0  0  0  0  0  0
  -18.2440  -26.7110   22.2620 C   0  0  0  0  0  2  0  0  0  0  0  0
  -19.1490  -28.8490   23.3450 C   0  0  0  0  0  0  0  0  0  0  0  0
  -18.9070  -30.1160   23.9200 C   0  0  0  0  0  3  0  0  0  0  0  0
  -17.5940  -30.6000   24.0680 C   0  0  0  0  0  3  0  0  0  0  0  0
  -16.5040  -29.8150   23.6560 C   0  0  0  0  0  3  0  0  0  0  0  0
  -16.7290  -28.5500   23.0840 C   0  0  0  0  0  3  0  0  0  0  0  0
  -25.8990  -32.5250   23.8430 C   0  0  0  0  0  3  0  0  0  0  0  0
  -25.5790  -33.9270   24.1640 N   0  0  0  0  0  0  0  0  0  0  0  0
  -25.9130  -34.9810   23.4090 C   0  0  0  0  0  0  0  0  0  0  0  0
  -26.5870  -34.8780   22.3810 O   0  0  0  0  0  0  0  0  0  0  0  0
  -24.9790  -34.0810   24.9610 H   0  0  0  0  0  0  0  0  0  0  0  0
  -24.1860  -36.7790   23.0570 C   0  0  0  0  0  1  0  0  0  0  0  0
  -25.4270  -36.3720   23.8670 C   0  0  0  0  0  3  0  0  0  0  0  0
  -27.5610  -37.2600   24.6970 C   0  0  0  0  0  1  0  0  0  0  0  0
  -26.4580  -37.4260   23.7540 N   0  0  0  0  0  0  0  0  0  0  0  0
  -26.0510  -38.3460   23.9020 H   0  0  0  0  0  0  0  0  0  0  0  0
  -26.4040  -31.7720   25.1360 C   0  0  1  0  0  0  0  0  0  0  0  0
  -25.3010  -31.5510   26.1990 C   0  0  0  0  0  1  0  0  0  0  0  0
  -26.9880  -30.3880   24.7750 C   0  0  0  0  0  1  0  0  0  0  0  0
  -27.5520  -32.5740   25.7930 C   0  0  0  0  0  1  0  0  0  0  0  0
  1  3  1  0
  1  2  1  0
  4  6  1  0
  5  8  1  0
  5  4  1  0
  5  7  1  0
  6 12  1  0
  7  6  1  0
  7  1  1  0
  9  8  1  0
 10 11  1  0
 10  8  2  0
 13 12  1  0
 14 19  1  0
 15 16  1  0
 15 14  1  0
 17 16  1  0
 17 24  1  0
 17 18  1  0
 19 13  1  0
 19 18  1  0
 20 13  2  0
 21 22  2  0
 22 41  1  0
 23 22  1  0
 23 26  1  0
 24 21  1  0
 24 25  1  0
 25 23  2  0
 26 27  1  0
 27 28  2  0
 29 32  1  0
 29 28  1  0
 30 29  2  0
 31 30  1  0
 31 26  2  0
 32 33  1  0
 33 34  1  0
 34 35  2  0
 36 35  1  0
 36 40  1  0
 37 36  2  0
 38 33  2  0
 38 37  1  0
 39 38  1  0
 41 42  1  0
 42 45  1  0
 42 44  1  0
 43 41  2  0
 46 47  1  0
 46 21  1  0
 48 46  1  0
 49 50  2  0
 49  1  1  0
 51 50  1  0
 52 63  2  0
 53 51  1  0
 53 58  1  0
 54 62  1  0
 54 64  1  0
 55 61  1  0
 55 57  1  0
 56 62  1  0
 57 58  2  0
 57 56  1  0
 59 53  2  0
 60 59  1  0
 60 55  2  0
 61 54  1  0
 62 52  1  0
 64 66  2  0
 65 64  1  0
 67 65  1  0
 68 77  2  0
 68 73  1  0
 69 65  1  0
 69 73  1  0
 70 69  1  0
 71 72  1  0
 71 70  1  0
 72 68  1  0
 73 74  2  0
 74 75  1  0
 76 75  2  0
 77 76  1  0
 78 52  1  0
 78 79  1  0
 78 88  1  0
 79 82  1  0
 80 84  1  0
 80 79  1  0
 81 80  2  0
 84 83  1  0
 86 84  1  0
 86 87  1  0
 86 85  1  0
 88 91  1  1
 88 89  1  0
 90 88  1  0
M  ISO  4  12 100  13 100  50 101  51 101
M  END
>  <TORSDO>  (83) 
F 21

>  <SCORE>  (83) 
-14.965

>  <name>  (83) 
83

>  <ligand_id>  (83) 
83

>  <original_smiles>  (83) 
[H]N=C(C([H])([H])[H])C1([H])C([H])([H])C([H])(C([H])([H])C(=O)N2C([H])([H])C([H])([H])C([H])([H])C([H])(n3nc(-c4c([H])c([H])c(Oc5c([H])c([H])c(F)c([H])c5F)c([H])c4[H])c(C(=O)N([H])[H])c3N([H])[H])C2([H])[H])C1([H])[N+]([H])([H])C([H])([H])C([H])([H])Oc1c([H])c([H])c2c(c1[H])C([H])([H])N(C(=O)C([H])(N([H])C(=O)C([H])(N([H])C([H])([H])[H])C([H])([H])[H])C(C([H])([H])[H])(C([H])([H])[H])C([H])([H])[H])C([H])(C(=O)N([H])C1([H])c3c([H])c([H])c([H])c([H])c3C([H])([H])C([H])([H])C1([H])[H])C2([H])[H]

>  <smiles>  (83) 
[H]N=C(C([H])([H])[H])C1([H])C([H])([H])C([H])(C([H])([H])C(=O)N2C([H])([H])C([H])([H])C([H])([H])C([H])(n3nc(-c4c([H])c([H])c(Oc5c([H])c([H])c(F)c([H])c5F)c([H])c4[H])c(C(=O)N([H])[H])c3N([H])[H])C2([H])[H])C1([H])[N+]([H])([H])C([H])([H])C([H])([H])Oc1c([H])c([H])c2c(c1[H])C([H])([H])N(C(=O)C([H])(N([H])C(=O)C([H])(N([H])C([H])([H])[H])C([H])([H])[H])C(C([H])([H])[H])(C([H])([H])[H])C([H])([H])[H])C([H])(C(=O)N([H])C1([H])c3c([H])c([H])c([H])c([H])c3C([H])([H])C([H])([H])C1([H])[H])C2([H])[H]

$$$$
84:0:0
     RDKit          3D

 90 98  0  0  1  0  0  0  0  0999 V2000
  -29.6570  -20.5430   20.2690 N   0  0  0  0  0  4  0  0  0  0  0  0
  -30.4810  -20.7520   19.7300 H   0  0  0  0  0  0  0  0  0  0  0  0
  -29.9400  -20.6190   21.2330 H   0  0  0  0  0  0  0  0  0  0  0  0
  -30.6140  -15.1020   20.1070 C   0  0  0  0  0  0  0  0  0  0  0  0
  -30.4280  -12.7580   19.1370 C   0  0  0  0  0  2  0  0  0  0  0  0
  -29.4570  -12.6970   17.9370 C   0  0  0  0  0  2  0  0  0  0  0  0
  -28.0130  -12.4620   18.4200 C   0  0  0  0  0  2  0  0  0  0  0  0
  -27.6390  -13.3750   19.6180 C   0  0  0  0  0  3  0  0  0  0  0  0
  -28.7400  -13.3950   20.7000 C   0  0  0  0  0  2  0  0  0  0  0  0
  -29.9660  -13.8590   20.0380 N   0  0  0  0  0  0  0  0  0  0  0  0
  -31.8140  -15.0810   19.8160 O   0  0  0  0  0  0  0  0  0  0  0  0
  -28.3930  -18.2510   20.9150 C   0  0  0  0  0  2  0  0  0  0  0  0
  -28.5850  -16.6940   20.7060 C   0  0  0  0  0  2  0  0  0  0  0  0
  -30.5270  -17.8250   20.0410 C   0  0  0  0  0  3  0  0  0  0  0  0
  -29.3660  -18.9920   19.9910 C   0  0  0  0  0  3  0  0  0  0  0  0
  -29.9590  -16.3830   20.2430 N   0  0  0  0  0  0  0  0  0  0  0  0
  -25.2920  -13.9350   20.4700 C   0  0  0  0  0  0  0  0  0  0  0  0
  -24.2430  -13.1540   20.8630 C   0  0  0  0  0  0  0  0  0  0  0  0
  -24.7040  -11.8050   20.7820 C   0  0  0  0  0  0  0  0  0  0  0  0
  -26.3250  -13.0640   20.1670 N   0  0  0  0  0  0  0  0  0  0  0  0
  -25.9820  -11.7750   20.4210 N   0  0  0  0  0  0  0  0  0  0  0  0
  -23.9840  -10.5400   20.9670 C   0  0  0  0  0  0  0  0  0  0  0  0
  -24.4110   -9.5790   21.9080 C   0  0  0  0  0  3  0  0  0  0  0  0
  -23.6900   -8.3780   22.0820 C   0  0  0  0  0  3  0  0  0  0  0  0
  -22.5260   -8.1320   21.3150 C   0  0  0  0  0  0  0  0  0  0  0  0
  -22.1200   -9.0810   20.3620 C   0  0  0  0  0  3  0  0  0  0  0  0
  -22.8420  -10.2730   20.1840 C   0  0  0  0  0  3  0  0  0  0  0  0
  -21.7760   -6.9850   21.3980 O   0  0  0  0  0  0  0  0  0  0  0  0
  -21.6530   -6.2910   22.5750 C   0  0  0  0  0  0  0  0  0  0  0  0
  -21.0840   -6.8740   23.7290 C   0  0  0  0  0  3  0  0  0  0  0  0
  -20.9110   -6.1010   24.8950 C   0  0  0  0  0  3  0  0  0  0  0  0
  -21.2970   -4.7470   24.9080 C   0  0  0  0  0  0  0  0  0  0  0  0
  -21.8590   -4.1640   23.7590 C   0  0  0  0  0  3  0  0  0  0  0  0
  -22.0330   -4.9340   22.5950 C   0  0  0  0  0  0  0  0  0  0  0  0
  -22.5560   -4.3610   21.4840 F   0  0  0  0  0  0  0  0  0  0  0  0
  -21.1230   -4.0040   26.0260 F   0  0  0  0  0  0  0  0  0  0  0  0
  -22.8570  -13.6280   21.1930 C   0  0  0  0  0  0  0  0  0  0  0  0
  -22.1630  -12.9220   22.0780 N   0  0  0  0  0  0  0  0  0  0  0  0
  -22.4020  -14.6600   20.7020 O   0  0  0  0  0  0  0  0  0  0  0  0
  -22.5460  -12.0900   22.5010 H   0  0  0  0  0  0  0  0  0  0  0  0
  -21.2350  -13.2220   22.3390 H   0  0  0  0  0  0  0  0  0  0  0  0
  -25.4370  -15.3100   20.3160 N   0  0  0  0  0  0  0  0  0  0  0  0
  -24.6570  -15.9430   20.4600 H   0  0  0  0  0  0  0  0  0  0  0  0
  -26.2390  -15.7560   19.8970 H   0  0  0  0  0  0  0  0  0  0  0  0
  -31.4310  -17.9300   18.8020 C   0  0  0  0  0  3  0  0  0  0  0  0
  -32.1880  -18.8810   18.5900 O   0  0  0  0  0  0  0  0  0  0  0  0
  -28.6650  -21.7560   19.9830 C   0  0  0  0  0  2  0  0  0  0  0  0
  -29.0410  -23.3940   20.2640 C   0  0  0  0  0  3  0  0  0  0  0  0
  -28.0270  -24.7270   19.9960 C   0  0  0  0  0  3  0  0  0  0  0  0
  -28.2810  -26.2480   20.2730 O   0  0  0  0  0  0  0  0  0  0  0  0
  -24.6470  -31.9280   23.2950 C   0  0  0  0  0  0  0  0  0  0  0  0
  -27.2280  -27.2370   20.2160 C   0  0  0  0  0  0  0  0  0  0  0  0
  -23.4490  -30.5520   21.6380 C   0  0  0  0  0  3  0  0  0  0  0  0
  -24.8990  -28.9880   20.2000 C   0  0  0  0  0  0  0  0  0  0  0  0
  -26.0050  -30.8110   21.4840 C   0  0  0  0  0  2  0  0  0  0  0  0
  -26.0780  -29.4250   20.8160 C   0  0  0  0  0  0  0  0  0  0  0  0
  -27.2420  -28.5660   20.8090 C   0  0  0  0  0  3  0  0  0  0  0  0
  -26.0210  -26.9060   19.5590 C   0  0  0  0  0  3  0  0  0  0  0  0
  -24.8830  -27.7420   19.5570 C   0  0  0  0  0  3  0  0  0  0  0  0
  -23.6730  -29.8890   20.2530 C   0  0  0  0  0  2  0  0  0  0  0  0
  -24.7200  -31.1190   22.1930 N   0  0  0  0  0  0  0  0  0  0  0  0
  -23.5600  -32.2110   23.8210 O   0  0  0  0  0  0  0  0  0  0  0  0
  -22.7660  -29.5370   22.5880 C   0  0  0  0  0  0  0  0  0  0  0  0
  -21.4410  -29.3600   22.4460 N   0  0  0  0  0  0  0  0  0  0  0  0
  -23.4330  -28.9100   23.4160 O   0  0  0  0  0  0  0  0  0  0  0  0
  -20.9600  -29.9180   21.7550 H   0  0  0  0  0  0  0  0  0  0  0  0
  -18.0560  -28.1600   22.9260 C   0  0  0  0  0  0  0  0  0  0  0  0
  -20.6150  -28.4160   23.2040 C   0  0  0  0  0  3  0  0  0  0  0  0
  -20.7170  -26.9900   22.6150 C   0  0  0  0  0  2  0  0  0  0  0  0
  -19.6170  -26.6790   21.5930 C   0  0  0  0  0  2  0  0  0  0  0  0
  -18.2330  -26.8180   22.2350 C   0  0  0  0  0  2  0  0  0  0  0  0
  -19.1750  -28.9170   23.3670 C   0  0  0  0  0  0  0  0  0  0  0  0
  -18.9530  -30.1710   23.9750 C   0  0  0  0  0  3  0  0  0  0  0  0
  -17.6480  -30.6700   24.1470 C   0  0  0  0  0  3  0  0  0  0  0  0
  -16.5450  -29.9100   23.7210 C   0  0  0  0  0  3  0  0  0  0  0  0
  -16.7500  -28.6580   23.1150 C   0  0  0  0  0  3  0  0  0  0  0  0
  -25.9240  -32.5550   23.9320 C   0  0  0  0  0  3  0  0  0  0  0  0
  -26.4120  -31.7890   25.2220 C   0  0  1  0  0  0  0  0  0  0  0  0
  -25.3000  -31.5630   26.2740 C   0  0  0  0  0  1  0  0  0  0  0  0
  -26.9960  -30.4050   24.8530 C   0  0  0  0  0  1  0  0  0  0  0  0
  -27.5550  -32.5810   25.9000 C   0  0  0  0  0  1  0  0  0  0  0  0
  -25.6210  -33.9590   24.2550 N   0  0  0  0  0  0  0  0  0  0  0  0
  -25.9330  -35.0070   23.4790 C   0  0  0  0  0  0  0  0  0  0  0  0
  -26.5730  -34.8930   22.4310 O   0  0  0  0  0  0  0  0  0  0  0  0
  -25.0480  -34.1220   25.0690 H   0  0  0  0  0  0  0  0  0  0  0  0
  -24.1840  -36.7930   23.1800 C   0  0  0  0  0  1  0  0  0  0  0  0
  -25.4630  -36.4020   23.9390 C   0  0  0  0  0  3  0  0  0  0  0  0
  -27.6210  -37.3160   24.6690 C   0  0  0  0  0  1  0  0  0  0  0  0
  -26.4850  -37.4560   23.7620 N   0  0  0  0  0  0  0  0  0  0  0  0
  -26.0790  -38.3770   23.9010 H   0  0  0  0  0  0  0  0  0  0  0  0
  1  3  1  0
  2  1  1  0
  4 16  1  0
  5 10  1  0
  6  7  1  0
  6  5  1  0
  8  7  1  0
  8 20  1  0
  8  9  1  0
 10  4  1  0
 10  9  1  0
 11  4  2  0
 13 12  1  0
 14 45  1  0
 14 16  1  0
 15 14  1  0
 15  1  1  0
 15 12  1  0
 16 13  1  0
 17 18  2  0
 18 37  1  0
 19 18  1  0
 19 22  1  0
 20 21  1  0
 20 17  1  0
 21 19  2  0
 22 23  1  0
 23 24  2  0
 25 28  1  0
 25 24  1  0
 26 25  2  0
 27 26  1  0
 27 22  2  0
 28 29  1  0
 29 34  2  0
 29 30  1  0
 30 31  2  0
 31 32  1  0
 32 36  1  0
 33 32  2  0
 34 33  1  0
 35 34  1  0
 37 38  1  0
 38 41  1  0
 38 40  1  0
 39 37  2  0
 42 43  1  0
 42 17  1  0
 44 42  1  0
 46 45  2  0
 47 48  1  0
 47  1  1  0
 49 48  2  0
 49 50  1  0
 51 62  2  0
 52 50  1  0
 52 57  1  0
 53 61  1  0
 53 63  1  0
 54 60  1  0
 54 56  1  0
 55 61  1  0
 56 55  1  0
 57 56  2  0
 58 52  2  0
 59 58  1  0
 59 54  2  0
 60 53  1  0
 61 51  1  0
 63 65  2  0
 64 63  1  0
 66 64  1  0
 67 76  2  0
 67 72  1  0
 68 64  1  0
 68 72  1  0
 69 68  1  0
 70 71  1  0
 70 69  1  0
 71 67  1  0
 72 73  2  0
 73 74  1  0
 75 74  2  0
 76 75  1  0
 77 51  1  0
 77 82  1  0
 77 78  1  0
 78 81  1  1
 78 79  1  0
 80 78  1  0
 82 85  1  0
 83 87  1  0
 83 82  1  0
 84 83  2  0
 87 86  1  0
 89 90  1  0
 89 87  1  0
 89 88  1  0
M  ISO  4   4 100  16 100  49 101  50 101
M  END
>  <TORSDO>  (84) 
F 20

>  <SCORE>  (84) 
-14.598

>  <name>  (84) 
84

>  <ligand_id>  (84) 
84

>  <original_smiles>  (84) 
[H]C(=O)C1([H])N(C(=O)N2C([H])([H])C([H])([H])C([H])([H])C([H])(n3nc(-c4c([H])c([H])c(Oc5c([H])c([H])c(F)c([H])c5F)c([H])c4[H])c(C(=O)N([H])[H])c3N([H])[H])C2([H])[H])C([H])([H])C([H])([H])C1([H])[N+]([H])([H])C([H])([H])C([H])([H])C([H])([H])Oc1c([H])c([H])c2c(c1[H])C([H])([H])N(C(=O)C([H])(N([H])C(=O)C([H])(N([H])C([H])([H])[H])C([H])([H])[H])C(C([H])([H])[H])(C([H])([H])[H])C([H])([H])[H])C([H])(C(=O)N([H])C1([H])c3c([H])c([H])c([H])c([H])c3C([H])([H])C([H])([H])C1([H])[H])C2([H])[H]

>  <smiles>  (84) 
[H]C(=O)C1([H])N(C(=O)N2C([H])([H])C([H])([H])C([H])([H])C([H])(n3nc(-c4c([H])c([H])c(Oc5c([H])c([H])c(F)c([H])c5F)c([H])c4[H])c(C(=O)N([H])[H])c3N([H])[H])C2([H])[H])C([H])([H])C([H])([H])C1([H])[N+]([H])([H])C([H])([H])C([H])([H])C([H])([H])Oc1c([H])c([H])c2c(c1[H])C([H])([H])N(C(=O)C([H])(N([H])C(=O)C([H])(N([H])C([H])([H])[H])C([H])([H])[H])C(C([H])([H])[H])(C([H])([H])[H])C([H])([H])[H])C([H])(C(=O)N([H])C1([H])c3c([H])c([H])c([H])c([H])c3C([H])([H])C([H])([H])C1([H])[H])C2([H])[H]

$$$$
85:0:0
     RDKit          3D

 86 94  0  0  1  0  0  0  0  0999 V2000
  -28.7320  -20.8070   20.5350 C   0  0  0  0  0  2  0  0  0  0  0  0
  -30.4310  -15.3580   20.2720 C   0  0  0  0  0  0  0  0  0  0  0  0
  -30.3280  -12.9000   19.4170 C   0  0  0  0  0  2  0  0  0  0  0  0
  -29.4100  -12.6110   18.2080 C   0  0  0  0  0  2  0  0  0  0  0  0
  -27.9690  -12.3360   18.6690 C   0  0  0  0  0  2  0  0  0  0  0  0
  -27.5180  -13.3280   19.7740 C   0  0  0  0  0  3  0  0  0  0  0  0
  -28.5800  -13.5660   20.8700 C   0  0  0  0  0  2  0  0  0  0  0  0
  -29.7740  -14.0880   20.1780 N   0  0  0  0  0  0  0  0  0  0  0  0
  -31.6550  -15.2120   20.1500 O   0  0  0  0  0  0  0  0  0  0  0  0
  -28.6400  -17.6440   20.4860 C   0  0  0  0  0  2  0  0  0  0  0  0
  -29.2430  -19.1150   19.9940 C   0  0  0  0  0  3  0  0  0  0  0  0
  -30.5850  -18.1830   20.1830 C   0  0  0  0  0  3  0  0  0  0  0  0
  -29.8890  -16.7750   20.1990 N   0  0  0  0  0  0  0  0  0  0  0  0
  -25.1660  -13.8770   20.5680 C   0  0  0  0  0  0  0  0  0  0  0  0
  -24.1070  -13.1000   20.9420 C   0  0  0  0  0  0  0  0  0  0  0  0
  -24.5740  -11.7490   20.9050 C   0  0  0  0  0  0  0  0  0  0  0  0
  -26.2060  -13.0020   20.3140 N   0  0  0  0  0  0  0  0  0  0  0  0
  -25.8640  -11.7140   20.5880 N   0  0  0  0  0  0  0  0  0  0  0  0
  -23.8470  -10.4860   21.0960 C   0  0  0  0  0  0  0  0  0  0  0  0
  -24.2970   -9.4990   22.0000 C   0  0  0  0  0  3  0  0  0  0  0  0
  -23.5650   -8.3060   22.1810 C   0  0  0  0  0  3  0  0  0  0  0  0
  -22.3690   -8.0910   21.4560 C   0  0  0  0  0  0  0  0  0  0  0  0
  -21.9360   -9.0660   20.5410 C   0  0  0  0  0  3  0  0  0  0  0  0
  -22.6690  -10.2500   20.3590 C   0  0  0  0  0  3  0  0  0  0  0  0
  -21.6040   -6.9520   21.5510 O   0  0  0  0  0  0  0  0  0  0  0  0
  -21.6020   -6.1750   22.6830 C   0  0  0  0  0  0  0  0  0  0  0  0
  -21.2690   -6.7040   23.9490 C   0  0  0  0  0  3  0  0  0  0  0  0
  -21.2140   -5.8570   25.0720 C   0  0  0  0  0  3  0  0  0  0  0  0
  -21.4800   -4.4820   24.9330 C   0  0  0  0  0  0  0  0  0  0  0  0
  -21.8080   -3.9530   23.6720 C   0  0  0  0  0  3  0  0  0  0  0  0
  -21.8640   -4.7970   22.5500 C   0  0  0  0  0  0  0  0  0  0  0  0
  -22.1580   -4.2780   21.3340 F   0  0  0  0  0  0  0  0  0  0  0  0
  -21.4210   -3.6660   26.0110 F   0  0  0  0  0  0  0  0  0  0  0  0
  -22.7120  -13.5760   21.2160 C   0  0  0  0  0  0  0  0  0  0  0  0
  -21.9900  -12.8830   22.0890 N   0  0  0  0  0  0  0  0  0  0  0  0
  -22.2730  -14.5990   20.6930 O   0  0  0  0  0  0  0  0  0  0  0  0
  -22.3600  -12.0550   22.5310 H   0  0  0  0  0  0  0  0  0  0  0  0
  -21.0550  -13.1860   22.3210 H   0  0  0  0  0  0  0  0  0  0  0  0
  -25.3310  -15.2480   20.3890 N   0  0  0  0  0  0  0  0  0  0  0  0
  -24.5690  -15.9090   20.4970 H   0  0  0  0  0  0  0  0  0  0  0  0
  -26.1860  -15.6760   20.0610 H   0  0  0  0  0  0  0  0  0  0  0  0
  -32.2320  -19.6470   18.8530 C   0  0  0  0  0  1  0  0  0  0  0  0
  -31.6740  -18.2400   19.0980 C   0  0  0  0  0  2  0  0  0  0  0  0
  -28.9230  -22.5530   20.0040 C   0  0  0  0  0  3  0  0  0  0  0  0
  -28.0010  -24.1200   20.3150 C   0  0  0  0  0  3  0  0  0  0  0  0
  -28.2350  -25.7820   20.1950 O   0  0  0  0  0  0  0  0  0  0  0  0
  -24.6960  -31.8630   23.1540 C   0  0  0  0  0  0  0  0  0  0  0  0
  -27.2250  -26.9000   20.1800 C   0  0  0  0  0  0  0  0  0  0  0  0
  -23.4950  -30.4610   21.5270 C   0  0  0  0  0  3  0  0  0  0  0  0
  -24.9340  -28.8230   20.1220 C   0  0  0  0  0  0  0  0  0  0  0  0
  -26.0670  -30.6400   21.3800 C   0  0  0  0  0  2  0  0  0  0  0  0
  -26.1300  -29.2180   20.7400 C   0  0  0  0  0  0  0  0  0  0  0  0
  -27.2690  -28.2820   20.7380 C   0  0  0  0  0  3  0  0  0  0  0  0
  -25.9960  -26.6690   19.5210 C   0  0  0  0  0  3  0  0  0  0  0  0
  -24.8970  -27.5680   19.4920 C   0  0  0  0  0  3  0  0  0  0  0  0
  -23.7210  -29.7570   20.1600 C   0  0  0  0  0  2  0  0  0  0  0  0
  -24.7750  -31.0160   22.0730 N   0  0  0  0  0  0  0  0  0  0  0  0
  -23.6080  -32.1680   23.6690 O   0  0  0  0  0  0  0  0  0  0  0  0
  -22.7880  -29.4810   22.5010 C   0  0  0  0  0  0  0  0  0  0  0  0
  -21.4560  -29.3340   22.3850 N   0  0  0  0  0  0  0  0  0  0  0  0
  -23.4480  -28.8490   23.3310 O   0  0  0  0  0  0  0  0  0  0  0  0
  -20.9800  -29.8960   21.6930 H   0  0  0  0  0  0  0  0  0  0  0  0
  -18.0640  -28.1490   22.8990 C   0  0  0  0  0  0  0  0  0  0  0  0
  -20.6260  -28.4080   23.1610 C   0  0  0  0  0  3  0  0  0  0  0  0
  -20.7190  -26.9700   22.6010 C   0  0  0  0  0  2  0  0  0  0  0  0
  -19.6140  -26.6390   21.5890 C   0  0  0  0  0  2  0  0  0  0  0  0
  -18.2340  -26.7950   22.2300 C   0  0  0  0  0  2  0  0  0  0  0  0
  -19.1860  -28.9130   23.3190 C   0  0  0  0  0  0  0  0  0  0  0  0
  -18.9700  -30.1800   23.9070 C   0  0  0  0  0  3  0  0  0  0  0  0
  -17.6660  -30.6810   24.0800 C   0  0  0  0  0  3  0  0  0  0  0  0
  -16.5590  -29.9160   23.6710 C   0  0  0  0  0  3  0  0  0  0  0  0
  -16.7590  -28.6530   23.0850 C   0  0  0  0  0  3  0  0  0  0  0  0
  -25.9660  -32.5070   23.7840 C   0  0  0  0  0  3  0  0  0  0  0  0
  -26.4840  -31.7310   25.0610 C   0  0  1  0  0  0  0  0  0  0  0  0
  -25.3900  -31.4920   26.1300 C   0  0  0  0  0  1  0  0  0  0  0  0
  -27.0690  -30.3550   24.6700 C   0  0  0  0  0  1  0  0  0  0  0  0
  -27.6360  -32.5270   25.7220 C   0  0  0  0  0  1  0  0  0  0  0  0
  -25.6450  -33.9000   24.1400 N   0  0  0  0  0  0  0  0  0  0  0  0
  -25.9600  -34.9750   23.4070 C   0  0  0  0  0  0  0  0  0  0  0  0
  -26.6180  -34.9010   22.3660 O   0  0  0  0  0  0  0  0  0  0  0  0
  -25.0650  -34.0320   24.9560 H   0  0  0  0  0  0  0  0  0  0  0  0
  -24.2120  -36.7720   23.1320 C   0  0  0  0  0  1  0  0  0  0  0  0
  -25.4720  -36.3520   23.9050 C   0  0  0  0  0  3  0  0  0  0  0  0
  -27.6190  -37.2370   24.7060 C   0  0  0  0  0  1  0  0  0  0  0  0
  -26.4940  -37.4170   23.7940 N   0  0  0  0  0  0  0  0  0  0  0  0
  -26.0820  -38.3280   23.9740 H   0  0  0  0  0  0  0  0  0  0  0  0
  3  8  1  0
  4  5  1  0
  4  3  1  0
  6  5  1  0
  6 17  1  0
  6  7  1  0
  8  2  1  0
  8  7  1  0
  9  2  2  0
 11 12  1  0
 11 10  1  0
 11  1  1  0
 12 43  1  0
 12 13  1  0
 13  2  1  0
 13 10  1  0
 14 15  2  0
 15 34  1  0
 16 15  1  0
 16 19  1  0
 17 14  1  0
 17 18  1  0
 18 16  2  0
 19 20  1  0
 20 21  2  0
 22 25  1  0
 22 21  1  0
 23 22  2  0
 24 23  1  0
 24 19  2  0
 25 26  1  0
 26 27  1  0
 27 28  2  0
 29 28  1  0
 29 33  1  0
 30 29  2  0
 31 26  2  0
 31 30  1  0
 32 31  1  0
 34 35  1  0
 35 38  1  0
 35 37  1  0
 36 34  2  0
 39 40  1  0
 39 14  1  0
 41 39  1  0
 42 43  1  0
 44 45  2  0
 44  1  1  0
 46 45  1  0
 47 58  2  0
 48 46  1  0
 48 53  1  0
 49 57  1  0
 49 59  1  0
 50 56  1  0
 50 52  1  0
 51 57  1  0
 52 51  1  0
 53 52  2  0
 54 48  2  0
 55 54  1  0
 55 50  2  0
 56 49  1  0
 57 47  1  0
 59 61  2  0
 60 59  1  0
 62 60  1  0
 63 72  2  0
 63 68  1  0
 64 60  1  0
 64 68  1  0
 65 64  1  0
 66 67  1  0
 66 65  1  0
 67 63  1  0
 68 69  2  0
 69 70  1  0
 71 70  2  0
 72 71  1  0
 73 47  1  0
 73 78  1  0
 73 74  1  0
 74 77  1  1
 74 75  1  0
 76 74  1  0
 78 81  1  0
 79 83  1  0
 79 78  1  0
 80 79  2  0
 83 82  1  0
 85 83  1  0
 85 86  1  0
 85 84  1  0
M  ISO  4   2 100  13 100  45 101  46 101
M  END
>  <TORSDO>  (85) 
F 19

>  <SCORE>  (85) 
-16.084

>  <name>  (85) 
85

>  <ligand_id>  (85) 
85

>  <original_smiles>  (85) 
[H]c1c([H])c([H])c2c(c1[H])C([H])([H])C([H])([H])C([H])([H])C2([H])N([H])C(=O)C1([H])N(C(=O)C([H])(N([H])C(=O)C([H])(N([H])C([H])([H])[H])C([H])([H])[H])C(C([H])([H])[H])(C([H])([H])[H])C([H])([H])[H])C([H])([H])c2c([H])c(OC([H])([H])C([H])([H])C([H])([H])C3([H])C([H])([H])N(C(=O)N4C([H])([H])C([H])([H])C([H])([H])C([H])(n5nc(-c6c([H])c([H])c(Oc7c([H])c([H])c(F)c([H])c7F)c([H])c6[H])c(C(=O)N([H])[H])c5N([H])[H])C4([H])[H])C3([H])C([H])([H])C([H])([H])[H])c([H])c([H])c2C1([H])[H]

>  <smiles>  (85) 
[H]c1c([H])c([H])c2c(c1[H])C([H])([H])C([H])([H])C([H])([H])C2([H])N([H])C(=O)C1([H])N(C(=O)C([H])(N([H])C(=O)C([H])(N([H])C([H])([H])[H])C([H])([H])[H])C(C([H])([H])[H])(C([H])([H])[H])C([H])([H])[H])C([H])([H])c2c([H])c(OC([H])([H])C([H])([H])C([H])([H])C3([H])C([H])([H])N(C(=O)N4C([H])([H])C([H])([H])C([H])([H])C([H])(n5nc(-c6c([H])c([H])c(Oc7c([H])c([H])c(F)c([H])c7F)c([H])c6[H])c(C(=O)N([H])[H])c5N([H])[H])C4([H])[H])C3([H])C([H])([H])C([H])([H])[H])c([H])c([H])c2C1([H])[H]

$$$$
86:0:0
     RDKit          3D

 93101  0  0  1  0  0  0  0  0999 V2000
  -30.7590  -19.9310   19.7600 C   0  0  0  0  0  2  0  0  0  0  0  0
  -30.2290  -21.1300   20.5800 C   0  0  0  0  0  2  0  0  0  0  0  0
  -27.9530  -20.7080   19.7440 C   0  0  0  0  0  2  0  0  0  0  0  0
  -29.6870  -18.8380   19.5180 C   0  0  0  0  0  3  0  0  0  0  0  0
  -28.4630  -19.5350   18.8770 C   0  0  0  0  0  3  0  0  0  0  0  0
  -27.3420  -18.5610   18.4690 C   0  0  0  0  0  1  0  0  0  0  0  0
  -29.0090  -21.7330   19.9770 N   0  0  1  0  0  4  0  0  0  0  0  0
  -29.2680  -22.0760   19.0640 H   0  0  0  0  0  0  0  0  0  0  0  0
  -29.3810  -17.9290   20.7570 C   0  0  0  0  0  2  0  0  0  0  0  0
  -30.7240  -14.4630   20.4620 C   0  0  0  0  0  0  0  0  0  0  0  0
  -30.3700  -12.3300   19.2890 C   0  0  0  0  0  2  0  0  0  0  0  0
  -29.4280  -12.5700   18.0930 C   0  0  0  0  0  2  0  0  0  0  0  0
  -27.9550  -12.4380   18.5250 C   0  0  0  0  0  2  0  0  0  0  0  0
  -27.6280  -13.2640   19.7960 C   0  0  0  0  0  3  0  0  0  0  0  0
  -28.6860  -13.0370   20.9000 C   0  0  0  0  0  2  0  0  0  0  0  0
  -30.0120  -13.3130   20.3210 N   0  0  0  0  0  0  0  0  0  0  0  0
  -31.8900  -14.5580   20.0720 O   0  0  0  0  0  0  0  0  0  0  0  0
  -30.4230  -16.8100   20.9470 C   0  0  0  0  0  0  0  0  0  0  0  0
  -29.9920  -15.5370   20.8200 N   0  0  0  0  0  0  0  0  0  0  0  0
  -31.5930  -17.1260   21.1860 O   0  0  0  0  0  0  0  0  0  0  0  0
  -28.9990  -15.3870   20.8630 H   0  0  0  0  0  0  0  0  0  0  0  0
  -25.2300  -13.8790   20.4950 C   0  0  0  0  0  0  0  0  0  0  0  0
  -24.1590  -13.1110   20.8660 C   0  0  0  0  0  0  0  0  0  0  0  0
  -24.6180  -11.7580   20.8440 C   0  0  0  0  0  0  0  0  0  0  0  0
  -26.2750  -12.9950   20.2740 N   0  0  0  0  0  0  0  0  0  0  0  0
  -25.9090  -11.7150   20.5420 N   0  0  0  0  0  0  0  0  0  0  0  0
  -23.8900  -10.4980   21.0360 C   0  0  0  0  0  0  0  0  0  0  0  0
  -24.3200   -9.5330   21.9720 C   0  0  0  0  0  3  0  0  0  0  0  0
  -23.5910   -8.3360   22.1510 C   0  0  0  0  0  3  0  0  0  0  0  0
  -22.4190   -8.0990   21.3950 C   0  0  0  0  0  0  0  0  0  0  0  0
  -22.0090   -9.0530   20.4470 C   0  0  0  0  0  3  0  0  0  0  0  0
  -22.7370  -10.2410   20.2660 C   0  0  0  0  0  3  0  0  0  0  0  0
  -21.6630   -6.9540   21.4830 O   0  0  0  0  0  0  0  0  0  0  0  0
  -21.6170   -6.2110   22.6350 C   0  0  0  0  0  0  0  0  0  0  0  0
  -21.1950   -6.7640   23.8640 C   0  0  0  0  0  3  0  0  0  0  0  0
  -21.0960   -5.9460   25.0070 C   0  0  0  0  0  3  0  0  0  0  0  0
  -21.4090   -4.5750   24.9230 C   0  0  0  0  0  0  0  0  0  0  0  0
  -21.8240   -4.0210   23.6990 C   0  0  0  0  0  3  0  0  0  0  0  0
  -21.9250   -4.8370   22.5580 C   0  0  0  0  0  0  0  0  0  0  0  0
  -22.3050   -4.2940   21.3770 F   0  0  0  0  0  0  0  0  0  0  0  0
  -21.3080   -3.7870   26.0180 F   0  0  0  0  0  0  0  0  0  0  0  0
  -22.7610  -13.5920   21.1290 C   0  0  0  0  0  0  0  0  0  0  0  0
  -22.0280  -12.9000   21.9940 N   0  0  0  0  0  0  0  0  0  0  0  0
  -22.3290  -14.6160   20.6010 O   0  0  0  0  0  0  0  0  0  0  0  0
  -22.3920  -12.0700   22.4390 H   0  0  0  0  0  0  0  0  0  0  0  0
  -21.0910  -13.2040   22.2160 H   0  0  0  0  0  0  0  0  0  0  0  0
  -25.3950  -15.2470   20.3030 N   0  0  0  0  0  0  0  0  0  0  0  0
  -24.6110  -15.8860   20.3700 H   0  0  0  0  0  0  0  0  0  0  0  0
  -26.2160  -15.6690   19.8910 H   0  0  0  0  0  0  0  0  0  0  0  0
  -28.5030  -22.9090   20.7450 C   0  0  0  0  0  2  0  0  0  0  0  0
  -28.9200  -24.2750   20.1440 C   0  0  0  0  0  2  0  0  0  0  0  0
  -28.3390  -25.4640   20.9410 C   0  0  0  0  0  2  0  0  0  0  0  0
  -28.4590  -26.7140   20.2450 O   0  0  0  0  0  0  0  0  0  0  0  0
  -24.6100  -31.8920   23.2320 C   0  0  0  0  0  0  0  0  0  0  0  0
  -27.2990  -27.4560   20.2090 C   0  0  0  0  0  0  0  0  0  0  0  0
  -23.4240  -30.4780   21.5850 C   0  0  0  0  0  3  0  0  0  0  0  0
  -24.8970  -28.9400   20.1820 C   0  0  0  0  0  0  0  0  0  0  0  0
  -25.9480  -30.8520   21.4060 C   0  0  0  0  0  2  0  0  0  0  0  0
  -26.0460  -29.4790   20.7750 C   0  0  0  0  0  0  0  0  0  0  0  0
  -27.2540  -28.7450   20.7820 C   0  0  0  0  0  3  0  0  0  0  0  0
  -26.1380  -26.9290   19.6050 C   0  0  0  0  0  3  0  0  0  0  0  0
  -24.9380  -27.6640   19.5930 C   0  0  0  0  0  3  0  0  0  0  0  0
  -23.6470  -29.7880   20.2120 C   0  0  0  0  0  2  0  0  0  0  0  0
  -24.6780  -31.0900   22.1330 N   0  0  0  0  0  0  0  0  0  0  0  0
  -23.5240  -32.1590   23.7630 O   0  0  0  0  0  0  0  0  0  0  0  0
  -22.7690  -29.4610   22.5480 C   0  0  0  0  0  0  0  0  0  0  0  0
  -21.4450  -29.2790   22.4150 N   0  0  0  0  0  0  0  0  0  0  0  0
  -23.4490  -28.8360   23.3660 O   0  0  0  0  0  0  0  0  0  0  0  0
  -20.9560  -29.8310   21.7220 H   0  0  0  0  0  0  0  0  0  0  0  0
  -18.0650  -28.1070   22.9190 C   0  0  0  0  0  0  0  0  0  0  0  0
  -20.6260  -28.3450   23.1850 C   0  0  0  0  0  3  0  0  0  0  0  0
  -20.7160  -26.9160   22.6020 C   0  0  0  0  0  2  0  0  0  0  0  0
  -19.6080  -26.6060   21.5900 C   0  0  0  0  0  2  0  0  0  0  0  0
  -18.2290  -26.7600   22.2380 C   0  0  0  0  0  2  0  0  0  0  0  0
  -19.1900  -28.8580   23.3500 C   0  0  0  0  0  0  0  0  0  0  0  0
  -18.9820  -30.1220   23.9440 C   0  0  0  0  0  3  0  0  0  0  0  0
  -17.6820  -30.6330   24.1160 C   0  0  0  0  0  3  0  0  0  0  0  0
  -16.5720  -29.8780   23.7020 C   0  0  0  0  0  3  0  0  0  0  0  0
  -16.7630  -28.6180   23.1080 C   0  0  0  0  0  3  0  0  0  0  0  0
  -25.8880  -32.5330   23.8600 C   0  0  0  0  0  3  0  0  0  0  0  0
  -26.3970  -31.7710   25.1430 C   0  0  1  0  0  0  0  0  0  0  0  0
  -25.2960  -31.5340   26.2040 C   0  0  0  0  0  1  0  0  0  0  0  0
  -26.9860  -30.3940   24.7580 C   0  0  0  0  0  1  0  0  0  0  0  0
  -27.5400  -32.5720   25.8080 C   0  0  0  0  0  1  0  0  0  0  0  0
  -25.5720  -33.9320   24.1760 N   0  0  0  0  0  0  0  0  0  0  0  0
  -25.9080  -34.9810   23.4120 C   0  0  0  0  0  0  0  0  0  0  0  0
  -26.5880  -34.8720   22.3880 O   0  0  0  0  0  0  0  0  0  0  0  0
  -24.9720  -34.0920   24.9720 H   0  0  0  0  0  0  0  0  0  0  0  0
  -24.1800  -36.7650   23.0220 C   0  0  0  0  0  1  0  0  0  0  0  0
  -25.4110  -36.3710   23.8540 C   0  0  0  0  0  3  0  0  0  0  0  0
  -27.5300  -37.2650   24.7080 C   0  0  0  0  0  1  0  0  0  0  0  0
  -26.4410  -37.4260   23.7490 N   0  0  0  0  0  0  0  0  0  0  0  0
  -26.0300  -38.3450   23.8880 H   0  0  0  0  0  0  0  0  0  0  0  0
  1  2  1  0
  3  7  1  0
  4  1  1  0
  4  9  1  0
  5  6  1  0
  5  4  1  0
  5  3  1  0
  7  2  1  0
  7 50  1  0
  7  8  1  6
  9 18  1  0
 10 19  1  0
 11 16  1  0
 12 13  1  0
 12 11  1  0
 14 13  1  0
 14 25  1  0
 14 15  1  0
 16 10  1  0
 16 15  1  0
 17 10  2  0
 18 20  2  0
 19 21  1  0
 19 18  1  0
 22 23  2  0
 23 42  1  0
 24 23  1  0
 24 27  1  0
 25 22  1  0
 25 26  1  0
 26 24  2  0
 27 28  1  0
 28 29  2  0
 30 33  1  0
 30 29  1  0
 31 30  2  0
 32 31  1  0
 32 27  2  0
 33 34  1  0
 34 35  1  0
 35 36  2  0
 37 36  1  0
 37 41  1  0
 38 37  2  0
 39 34  2  0
 39 38  1  0
 40 39  1  0
 42 43  1  0
 43 46  1  0
 43 45  1  0
 44 42  2  0
 47 48  1  0
 47 22  1  0
 49 47  1  0
 51 50  1  0
 51 52  1  0
 53 52  1  0
 54 65  2  0
 55 53  1  0
 55 60  1  0
 56 64  1  0
 56 66  1  0
 57 63  1  0
 57 59  1  0
 58 64  1  0
 59 60  2  0
 59 58  1  0
 61 55  2  0
 62 61  1  0
 62 57  2  0
 63 56  1  0
 64 54  1  0
 66 68  2  0
 67 66  1  0
 69 67  1  0
 70 79  2  0
 70 75  1  0
 71 67  1  0
 71 75  1  0
 72 71  1  0
 73 74  1  0
 73 72  1  0
 74 70  1  0
 75 76  2  0
 76 77  1  0
 78 77  2  0
 79 78  1  0
 80 54  1  0
 80 85  1  0
 80 81  1  0
 81 84  1  1
 81 82  1  0
 83 81  1  0
 85 88  1  0
 86 90  1  0
 86 85  1  0
 87 86  2  0
 90 89  1  0
 92 90  1  0
 92 93  1  0
 92 91  1  0
M  ISO  4  10 100  19 100  52 101  53 101
M  END
>  <TORSDO>  (86) 
F 20

>  <SCORE>  (86) 
-13.996

>  <name>  (86) 
86

>  <ligand_id>  (86) 
86

>  <original_smiles>  (86) 
[H]c1c([H])c([H])c2c(c1[H])C([H])([H])C([H])([H])C([H])([H])C2([H])N([H])C(=O)C1([H])N(C(=O)C([H])(N([H])C(=O)C([H])(N([H])C([H])([H])[H])C([H])([H])[H])C(C([H])([H])[H])(C([H])([H])[H])C([H])([H])[H])C([H])([H])c2c([H])c(OC([H])([H])C([H])([H])C([H])([H])[N+]3([H])C([H])([H])C([H])([H])C([H])(C([H])([H])C(=O)N([H])C(=O)N4C([H])([H])C([H])([H])C([H])([H])C([H])(n5nc(-c6c([H])c([H])c(Oc7c([H])c([H])c(F)c([H])c7F)c([H])c6[H])c(C(=O)N([H])[H])c5N([H])[H])C4([H])[H])C([H])(C([H])([H])[H])C3([H])[H])c([H])c([H])c2C1([H])[H]

>  <smiles>  (86) 
[H]c1c([H])c([H])c2c(c1[H])C([H])([H])C([H])([H])C([H])([H])C2([H])N([H])C(=O)C1([H])N(C(=O)C([H])(N([H])C(=O)C([H])(N([H])C([H])([H])[H])C([H])([H])[H])C(C([H])([H])[H])(C([H])([H])[H])C([H])([H])[H])C([H])([H])c2c([H])c(OC([H])([H])C([H])([H])C([H])([H])[N+]3([H])C([H])([H])C([H])([H])C([H])(C([H])([H])C(=O)N([H])C(=O)N4C([H])([H])C([H])([H])C([H])([H])C([H])(n5nc(-c6c([H])c([H])c(Oc7c([H])c([H])c(F)c([H])c7F)c([H])c6[H])c(C(=O)N([H])[H])c5N([H])[H])C4([H])[H])C([H])(C([H])([H])[H])C3([H])[H])c([H])c([H])c2C1([H])[H]

$$$$
87:0:0
     RDKit          3D

 89 97  0  0  1  0  0  0  0  0999 V2000
  -29.7560  -20.8410   19.6310 C   0  0  0  0  0  2  0  0  0  0  0  0
  -29.0580  -21.4930   21.7710 C   0  0  0  0  0  2  0  0  0  0  0  0
  -28.9130  -22.0380   20.3160 C   0  0  0  0  0  3  0  0  0  0  0  0
  -29.4770  -19.4520   20.4080 C   0  0  0  0  0  3  0  0  0  0  0  0
  -29.2940  -19.9980   21.7800 N   0  0  0  0  0  4  0  0  0  0  0  0
  -28.5250  -19.5300   22.2330 H   0  0  0  0  0  0  0  0  0  0  0  0
  -30.1200  -19.8210   22.3290 H   0  0  0  0  0  0  0  0  0  0  0  0
  -31.8130  -18.3530   20.8910 C   0  0  0  0  0  1  0  0  0  0  0  0
  -30.4370  -18.0770   20.2570 C   0  0  0  0  0  3  0  0  0  0  0  0
  -29.9560  -16.5130   20.6250 C   0  0  0  0  0  2  0  0  0  0  0  0
  -30.7380  -15.1260   20.1850 C   0  0  0  0  0  0  0  0  0  0  0  0
  -30.5420  -12.8470   19.1060 C   0  0  0  0  0  2  0  0  0  0  0  0
  -29.5590  -12.9130   17.9120 C   0  0  0  0  0  2  0  0  0  0  0  0
  -28.1060  -12.7080   18.3830 C   0  0  0  0  0  2  0  0  0  0  0  0
  -27.7660  -13.5710   19.6260 C   0  0  0  0  0  3  0  0  0  0  0  0
  -28.8600  -13.4820   20.7100 C   0  0  0  0  0  2  0  0  0  0  0  0
  -30.1340  -13.8780   20.0970 N   0  0  0  0  0  0  0  0  0  0  0  0
  -31.9080  -15.2050   19.7910 O   0  0  0  0  0  0  0  0  0  0  0  0
  -25.4070  -14.1420   20.4470 C   0  0  0  0  0  0  0  0  0  0  0  0
  -24.3520  -13.3620   20.8340 C   0  0  0  0  0  0  0  0  0  0  0  0
  -24.8130  -12.0120   20.7670 C   0  0  0  0  0  0  0  0  0  0  0  0
  -26.4400  -13.2680   20.1580 N   0  0  0  0  0  0  0  0  0  0  0  0
  -26.0940  -11.9790   20.4180 N   0  0  0  0  0  0  0  0  0  0  0  0
  -24.0910  -10.7460   20.9570 C   0  0  0  0  0  0  0  0  0  0  0  0
  -24.5110   -9.7890   21.9060 C   0  0  0  0  0  3  0  0  0  0  0  0
  -23.7880   -8.5900   22.0830 C   0  0  0  0  0  3  0  0  0  0  0  0
  -22.6290   -8.3390   21.3100 C   0  0  0  0  0  0  0  0  0  0  0  0
  -22.2270   -9.2850   20.3500 C   0  0  0  0  0  3  0  0  0  0  0  0
  -22.9520  -10.4750   20.1720 C   0  0  0  0  0  3  0  0  0  0  0  0
  -21.8780   -7.1910   21.3940 O   0  0  0  0  0  0  0  0  0  0  0  0
  -21.7630   -6.4930   22.5690 C   0  0  0  0  0  0  0  0  0  0  0  0
  -21.2110   -7.0760   23.7310 C   0  0  0  0  0  3  0  0  0  0  0  0
  -21.0460   -6.3000   24.8960 C   0  0  0  0  0  3  0  0  0  0  0  0
  -21.4230   -4.9450   24.8990 C   0  0  0  0  0  0  0  0  0  0  0  0
  -21.9670   -4.3610   23.7430 C   0  0  0  0  0  3  0  0  0  0  0  0
  -22.1330   -5.1330   22.5790 C   0  0  0  0  0  0  0  0  0  0  0  0
  -22.6380   -4.5600   21.4600 F   0  0  0  0  0  0  0  0  0  0  0  0
  -21.2570   -4.1970   26.0160 F   0  0  0  0  0  0  0  0  0  0  0  0
  -22.9640  -13.8360   21.1530 C   0  0  0  0  0  0  0  0  0  0  0  0
  -22.2620  -13.1290   22.0330 N   0  0  0  0  0  0  0  0  0  0  0  0
  -22.5100  -14.8670   20.6580 O   0  0  0  0  0  0  0  0  0  0  0  0
  -22.6430  -12.2930   22.4530 H   0  0  0  0  0  0  0  0  0  0  0  0
  -21.3300  -13.4260   22.2870 H   0  0  0  0  0  0  0  0  0  0  0  0
  -25.5710  -15.5150   20.2900 N   0  0  0  0  0  0  0  0  0  0  0  0
  -24.8140  -16.1740   20.4370 H   0  0  0  0  0  0  0  0  0  0  0  0
  -26.4110  -15.9520   19.9350 H   0  0  0  0  0  0  0  0  0  0  0  0
  -29.2120  -23.6720   20.0670 C   0  0  0  0  0  3  0  0  0  0  0  0
  -28.0730  -24.8900   20.1090 C   0  0  0  0  0  3  0  0  0  0  0  0
  -28.3280  -26.4150   20.0700 O   0  0  0  0  0  0  0  0  0  0  0  0
  -24.6280  -31.9320   23.2180 C   0  0  0  0  0  0  0  0  0  0  0  0
  -27.2380  -27.3530   20.0520 C   0  0  0  0  0  0  0  0  0  0  0  0
  -23.4250  -30.5560   21.5650 C   0  0  0  0  0  3  0  0  0  0  0  0
  -24.8760  -29.0380   20.0910 C   0  0  0  0  0  0  0  0  0  0  0  0
  -25.9690  -30.8730   21.3670 C   0  0  0  0  0  2  0  0  0  0  0  0
  -26.0560  -29.4980   20.6870 C   0  0  0  0  0  0  0  0  0  0  0  0
  -27.2390  -28.6730   20.6480 C   0  0  0  0  0  3  0  0  0  0  0  0
  -26.0270  -26.9860   19.4210 C   0  0  0  0  0  3  0  0  0  0  0  0
  -24.8720  -27.7950   19.4430 C   0  0  0  0  0  3  0  0  0  0  0  0
  -23.6340  -29.9090   20.1710 C   0  0  0  0  0  2  0  0  0  0  0  0
  -24.6950  -31.1400   22.1060 N   0  0  0  0  0  0  0  0  0  0  0  0
  -23.5450  -32.1890   23.7660 O   0  0  0  0  0  0  0  0  0  0  0  0
  -22.7730  -29.5180   22.5110 C   0  0  0  0  0  0  0  0  0  0  0  0
  -21.4480  -29.3240   22.3880 N   0  0  0  0  0  0  0  0  0  0  0  0
  -23.4620  -28.8900   23.3190 O   0  0  0  0  0  0  0  0  0  0  0  0
  -20.9480  -29.8830   21.7100 H   0  0  0  0  0  0  0  0  0  0  0  0
  -18.0910  -28.0660   22.9020 C   0  0  0  0  0  0  0  0  0  0  0  0
  -20.6490  -28.3600   23.1470 C   0  0  0  0  0  3  0  0  0  0  0  0
  -20.7650  -26.9420   22.5430 C   0  0  0  0  0  2  0  0  0  0  0  0
  -19.6570  -26.6240   21.5330 C   0  0  0  0  0  2  0  0  0  0  0  0
  -18.2800  -26.7340   22.1950 C   0  0  0  0  0  2  0  0  0  0  0  0
  -19.2030  -28.8360   23.3350 C   0  0  0  0  0  0  0  0  0  0  0  0
  -18.9710  -30.0810   23.9580 C   0  0  0  0  0  3  0  0  0  0  0  0
  -17.6610  -30.5590   24.1480 C   0  0  0  0  0  3  0  0  0  0  0  0
  -16.5640  -29.7860   23.7310 C   0  0  0  0  0  3  0  0  0  0  0  0
  -16.7800  -28.5410   23.1130 C   0  0  0  0  0  3  0  0  0  0  0  0
  -25.9050  -32.5700   23.8430 C   0  0  0  0  0  3  0  0  0  0  0  0
  -26.4350  -31.7860   25.1050 C   0  0  1  0  0  0  0  0  0  0  0  0
  -25.3480  -31.5130   26.1720 C   0  0  0  0  0  1  0  0  0  0  0  0
  -27.0340  -30.4220   24.6920 C   0  0  0  0  0  1  0  0  0  0  0  0
  -27.5820  -32.5810   25.7720 C   0  0  0  0  0  1  0  0  0  0  0  0
  -25.5830  -33.9590   24.1990 N   0  0  0  0  0  0  0  0  0  0  0  0
  -25.8690  -35.0280   23.4420 C   0  0  0  0  0  0  0  0  0  0  0  0
  -26.4970  -34.9460   22.3820 O   0  0  0  0  0  0  0  0  0  0  0  0
  -25.0090  -34.0940   25.0190 H   0  0  0  0  0  0  0  0  0  0  0  0
  -24.0880  -36.7900   23.1940 C   0  0  0  0  0  1  0  0  0  0  0  0
  -25.3800  -36.4050   23.9340 C   0  0  0  0  0  3  0  0  0  0  0  0
  -27.5340  -37.3330   24.6650 C   0  0  0  0  0  1  0  0  0  0  0  0
  -26.3860  -37.4780   23.7730 N   0  0  0  0  0  0  0  0  0  0  0  0
  -25.9700  -38.3910   23.9370 H   0  0  0  0  0  0  0  0  0  0  0  0
  1  3  1  0
  1  4  1  0
  2  5  1  0
  3 47  1  0
  3  2  1  0
  4  9  1  0
  4  5  1  0
  5  6  1  0
  5  7  1  0
  9 10  1  0
  9  8  1  0
 11 10  1  0
 12 17  1  0
 13 14  1  0
 13 12  1  0
 15 14  1  0
 15 22  1  0
 15 16  1  0
 17 11  1  0
 17 16  1  0
 18 11  2  0
 19 20  2  0
 20 39  1  0
 21 20  1  0
 21 24  1  0
 22 23  1  0
 22 19  1  0
 23 21  2  0
 24 25  1  0
 25 26  2  0
 27 30  1  0
 27 26  1  0
 28 27  2  0
 29 28  1  0
 29 24  2  0
 30 31  1  0
 31 36  2  0
 31 32  1  0
 32 33  2  0
 33 34  1  0
 34 38  1  0
 35 34  2  0
 36 35  1  0
 37 36  1  0
 39 40  1  0
 40 43  1  0
 40 42  1  0
 41 39  2  0
 44 45  1  0
 44 19  1  0
 46 44  1  0
 47 48  2  0
 49 48  1  0
 50 61  2  0
 51 49  1  0
 51 56  1  0
 52 60  1  0
 52 62  1  0
 53 59  1  0
 53 55  1  0
 54 60  1  0
 55 54  1  0
 56 55  2  0
 57 58  1  0
 57 51  2  0
 58 53  2  0
 59 52  1  0
 60 50  1  0
 62 64  2  0
 63 62  1  0
 65 63  1  0
 66 75  2  0
 66 71  1  0
 67 63  1  0
 67 71  1  0
 68 67  1  0
 69 70  1  0
 69 68  1  0
 70 66  1  0
 71 72  2  0
 72 73  1  0
 74 73  2  0
 75 74  1  0
 76 50  1  0
 76 81  1  0
 76 77  1  0
 77 80  1  1
 77 78  1  0
 79 77  1  0
 81 84  1  0
 82 86  1  0
 82 81  1  0
 83 82  2  0
 86 85  1  0
 88 86  1  0
 88 89  1  0
 88 87  1  0
M  ISO  4  10 100  11 100  48 101  49 101
M  END
>  <TORSDO>  (87) 
F 20

>  <SCORE>  (87) 
-13.486

>  <name>  (87) 
87

>  <ligand_id>  (87) 
87

>  <original_smiles>  (87) 
[H]c1c([H])c([H])c2c(c1[H])C([H])([H])C([H])([H])C([H])([H])C2([H])N([H])C(=O)C1([H])N(C(=O)C([H])(N([H])C(=O)C([H])(N([H])C([H])([H])[H])C([H])([H])[H])C(C([H])([H])[H])(C([H])([H])[H])C([H])([H])[H])C([H])([H])c2c([H])c(OC([H])([H])C([H])([H])C3([H])C([H])([H])C([H])(C([H])(C([H])([H])[H])C([H])([H])C(=O)N4C([H])([H])C([H])([H])C([H])([H])C([H])(n5nc(-c6c([H])c([H])c(Oc7c([H])c([H])c(F)c([H])c7F)c([H])c6[H])c(C(=O)N([H])[H])c5N([H])[H])C4([H])[H])[N+]([H])([H])C3([H])[H])c([H])c([H])c2C1([H])[H]

>  <smiles>  (87) 
[H]c1c([H])c([H])c2c(c1[H])C([H])([H])C([H])([H])C([H])([H])C2([H])N([H])C(=O)C1([H])N(C(=O)C([H])(N([H])C(=O)C([H])(N([H])C([H])([H])[H])C([H])([H])[H])C(C([H])([H])[H])(C([H])([H])[H])C([H])([H])[H])C([H])([H])c2c([H])c(OC([H])([H])C([H])([H])C3([H])C([H])([H])C([H])(C([H])(C([H])([H])[H])C([H])([H])C(=O)N4C([H])([H])C([H])([H])C([H])([H])C([H])(n5nc(-c6c([H])c([H])c(Oc7c([H])c([H])c(F)c([H])c7F)c([H])c6[H])c(C(=O)N([H])[H])c5N([H])[H])C4([H])[H])[N+]([H])([H])C3([H])[H])c([H])c([H])c2C1([H])[H]

$$$$
88:0:0
     RDKit          3D

 92100  0  0  1  0  0  0  0  0999 V2000
  -30.2350  -20.4550   19.7280 C   0  0  0  0  0  2  0  0  0  0  0  0
  -28.9580  -20.5540   21.8460 C   0  0  0  0  0  2  0  0  0  0  0  0
  -30.7630  -21.9000   19.9390 C   0  0  0  0  0  2  0  0  0  0  0  0
  -29.4630  -21.9910   22.1360 C   0  0  0  0  0  2  0  0  0  0  0  0
  -30.0010  -19.7240   21.0680 C   0  0  0  0  0  3  0  0  0  0  0  0
  -29.9170  -22.7980   20.8870 C   0  0  0  0  0  3  0  0  0  0  0  0
  -28.8100  -23.5100   20.1790 N   0  0  0  0  0  4  0  0  0  0  0  0
  -28.1010  -22.8210   19.9710 H   0  0  0  0  0  0  0  0  0  0  0  0
  -29.1480  -23.8490   19.2940 H   0  0  0  0  0  0  0  0  0  0  0  0
  -28.1480  -24.6540   20.8900 C   0  0  0  0  0  2  0  0  0  0  0  0
  -28.9140  -26.0170   20.8930 C   0  0  0  0  0  2  0  0  0  0  0  0
  -28.6520  -26.9110   19.7890 O   0  0  0  0  0  0  0  0  0  0  0  0
  -24.6480  -31.7900   23.1720 C   0  0  0  0  0  0  0  0  0  0  0  0
  -27.4820  -27.6400   19.8570 C   0  0  0  0  0  0  0  0  0  0  0  0
  -23.5100  -30.4490   21.4330 C   0  0  0  0  0  3  0  0  0  0  0  0
  -25.0350  -29.0600   19.9310 C   0  0  0  0  0  0  0  0  0  0  0  0
  -26.0220  -30.9180   21.2800 C   0  0  0  0  0  2  0  0  0  0  0  0
  -26.1680  -29.5890   20.5640 C   0  0  0  0  0  0  0  0  0  0  0  0
  -27.3970  -28.8850   20.5290 C   0  0  0  0  0  3  0  0  0  0  0  0
  -26.3390  -27.1400   19.2000 C   0  0  0  0  0  3  0  0  0  0  0  0
  -25.1150  -27.8340   19.2470 C   0  0  0  0  0  3  0  0  0  0  0  0
  -23.7590  -29.8660   20.0150 C   0  0  0  0  0  2  0  0  0  0  0  0
  -24.7440  -31.0660   22.0220 N   0  0  0  0  0  0  0  0  0  0  0  0
  -23.5540  -31.9790   23.7210 O   0  0  0  0  0  0  0  0  0  0  0  0
  -22.8950  -29.3420   22.3220 C   0  0  0  0  0  0  0  0  0  0  0  0
  -21.5780  -29.1240   22.1830 N   0  0  0  0  0  0  0  0  0  0  0  0
  -23.6010  -28.6870   23.0920 O   0  0  0  0  0  0  0  0  0  0  0  0
  -21.0660  -29.7090   21.5380 H   0  0  0  0  0  0  0  0  0  0  0  0
  -18.2450  -27.7930   22.6190 C   0  0  0  0  0  0  0  0  0  0  0  0
  -20.7970  -28.1070   22.8900 C   0  0  0  0  0  3  0  0  0  0  0  0
  -20.9360  -26.7260   22.2100 C   0  0  0  0  0  2  0  0  0  0  0  0
  -19.8350  -26.4460   21.1820 C   0  0  0  0  0  2  0  0  0  0  0  0
  -18.4550  -26.5020   21.8440 C   0  0  0  0  0  2  0  0  0  0  0  0
  -19.3460  -28.5530   23.0960 C   0  0  0  0  0  0  0  0  0  0  0  0
  -19.0950  -29.7630   23.7810 C   0  0  0  0  0  3  0  0  0  0  0  0
  -17.7770  -30.2100   23.9930 C   0  0  0  0  0  3  0  0  0  0  0  0
  -16.6930  -29.4470   23.5300 C   0  0  0  0  0  3  0  0  0  0  0  0
  -16.9270  -28.2390   22.8490 C   0  0  0  0  0  3  0  0  0  0  0  0
  -25.9040  -32.4320   23.8400 C   0  0  0  0  0  3  0  0  0  0  0  0
  -25.5600  -33.8210   24.1800 N   0  0  0  0  0  0  0  0  0  0  0  0
  -25.8960  -34.8880   23.4440 C   0  0  0  0  0  0  0  0  0  0  0  0
  -26.5960  -34.8100   22.4300 O   0  0  0  0  0  0  0  0  0  0  0  0
  -24.9390  -33.9540   24.9640 H   0  0  0  0  0  0  0  0  0  0  0  0
  -24.1430  -36.6530   23.0710 C   0  0  0  0  0  1  0  0  0  0  0  0
  -25.3730  -36.2630   23.9060 C   0  0  0  0  0  3  0  0  0  0  0  0
  -27.4630  -37.1820   24.8060 C   0  0  0  0  0  1  0  0  0  0  0  0
  -26.3880  -37.3350   23.8290 N   0  0  0  0  0  0  0  0  0  0  0  0
  -25.9600  -38.2470   23.9660 H   0  0  0  0  0  0  0  0  0  0  0  0
  -26.4010  -31.6520   25.1190 C   0  0  1  0  0  0  0  0  0  0  0  0
  -25.2840  -31.3740   26.1530 C   0  0  0  0  0  1  0  0  0  0  0  0
  -27.0240  -30.2930   24.7230 C   0  0  0  0  0  1  0  0  0  0  0  0
  -27.5170  -32.4590   25.8240 C   0  0  0  0  0  1  0  0  0  0  0  0
  -29.6030  -18.2190   20.9290 C   0  0  0  0  0  2  0  0  0  0  0  0
  -30.7840  -17.2490   20.6330 C   0  0  0  0  0  2  0  0  0  0  0  0
  -31.1250  -14.7960   20.1590 C   0  0  0  0  0  0  0  0  0  0  0  0
  -30.8240  -12.6080   19.0510 C   0  0  0  0  0  2  0  0  0  0  0  0
  -29.8580  -12.7890   17.8600 C   0  0  0  0  0  2  0  0  0  0  0  0
  -28.3900  -12.6720   18.3210 C   0  0  0  0  0  2  0  0  0  0  0  0
  -28.0820  -13.5300   19.5760 C   0  0  0  0  0  3  0  0  0  0  0  0
  -29.1540  -13.3140   20.6670 C   0  0  0  0  0  2  0  0  0  0  0  0
  -30.4660  -13.6080   20.0680 N   0  0  0  0  0  0  0  0  0  0  0  0
  -32.2560  -14.9730   19.6950 O   0  0  0  0  0  0  0  0  0  0  0  0
  -30.3900  -15.8270   20.6240 N   0  0  0  0  0  0  0  0  0  0  0  0
  -29.4590  -15.6030   20.9420 H   0  0  0  0  0  0  0  0  0  0  0  0
  -25.7100  -14.1740   20.3410 C   0  0  0  0  0  0  0  0  0  0  0  0
  -24.6390  -13.4150   20.7300 C   0  0  0  0  0  0  0  0  0  0  0  0
  -25.0790  -12.0570   20.6850 C   0  0  0  0  0  0  0  0  0  0  0  0
  -26.7360  -13.2760   20.0840 N   0  0  0  0  0  0  0  0  0  0  0  0
  -26.3610  -12.0000   20.3470 N   0  0  0  0  0  0  0  0  0  0  0  0
  -24.3410  -10.8040   20.8850 C   0  0  0  0  0  0  0  0  0  0  0  0
  -24.7330   -9.8620   21.8610 C   0  0  0  0  0  3  0  0  0  0  0  0
  -23.9930   -8.6740   22.0480 C   0  0  0  0  0  3  0  0  0  0  0  0
  -22.8470   -8.4210   21.2560 C   0  0  0  0  0  0  0  0  0  0  0  0
  -22.4750   -9.3520   20.2700 C   0  0  0  0  0  3  0  0  0  0  0  0
  -23.2160  -10.5300   20.0830 C   0  0  0  0  0  3  0  0  0  0  0  0
  -22.0860   -7.2810   21.3460 O   0  0  0  0  0  0  0  0  0  0  0  0
  -21.9400   -6.6060   22.5320 C   0  0  0  0  0  0  0  0  0  0  0  0
  -21.3660   -7.2140   23.6690 C   0  0  0  0  0  3  0  0  0  0  0  0
  -21.1690   -6.4630   24.8450 C   0  0  0  0  0  3  0  0  0  0  0  0
  -21.5390   -5.1060   24.8830 C   0  0  0  0  0  0  0  0  0  0  0  0
  -22.1060   -4.4960   23.7500 C   0  0  0  0  0  3  0  0  0  0  0  0
  -22.3030   -5.2440   22.5770 C   0  0  0  0  0  0  0  0  0  0  0  0
  -22.8310   -4.6480   21.4800 F   0  0  0  0  0  0  0  0  0  0  0  0
  -21.3420   -4.3810   26.0110 F   0  0  0  0  0  0  0  0  0  0  0  0
  -23.2540  -13.9130   21.0330 C   0  0  0  0  0  0  0  0  0  0  0  0
  -22.5400  -13.2330   21.9220 N   0  0  0  0  0  0  0  0  0  0  0  0
  -22.8160  -14.9390   20.5160 O   0  0  0  0  0  0  0  0  0  0  0  0
  -22.9070  -12.4030   22.3640 H   0  0  0  0  0  0  0  0  0  0  0  0
  -21.6140  -13.5510   22.1690 H   0  0  0  0  0  0  0  0  0  0  0  0
  -25.8890  -15.5430   20.1670 N   0  0  0  0  0  0  0  0  0  0  0  0
  -25.1330  -16.2040   20.3010 H   0  0  0  0  0  0  0  0  0  0  0  0
  -26.7320  -15.9740   19.8060 H   0  0  0  0  0  0  0  0  0  0  0  0
  1  3  1  0
  1  5  1  0
  2  4  1  0
  3  6  1  0
  5 53  1  0
  5  2  1  0
  6  7  1  0
  6  4  1  0
  7 10  1  0
  8  7  1  0
  9  7  1  0
 10 11  1  0
 12 14  1  0
 12 11  1  0
 13 24  2  0
 14 19  1  0
 15 23  1  0
 15 25  1  0
 16 22  1  0
 16 18  1  0
 17 23  1  0
 18 17  1  0
 19 18  2  0
 20 21  1  0
 20 14  2  0
 21 16  2  0
 22 15  1  0
 23 13  1  0
 25 27  2  0
 26 25  1  0
 28 26  1  0
 29 38  2  0
 29 34  1  0
 30 26  1  0
 30 34  1  0
 31 30  1  0
 32 33  1  0
 32 31  1  0
 33 29  1  0
 34 35  2  0
 35 36  1  0
 37 36  2  0
 38 37  1  0
 39 13  1  0
 39 40  1  0
 39 49  1  0
 40 43  1  0
 41 45  1  0
 41 40  1  0
 42 41  2  0
 45 44  1  0
 47 45  1  0
 47 48  1  0
 47 46  1  0
 49 52  1  1
 49 50  1  0
 51 49  1  0
 54 53  1  0
 55 63  1  0
 56 61  1  0
 57 58  1  0
 57 56  1  0
 59 58  1  0
 59 68  1  0
 59 60  1  0
 61 55  1  0
 61 60  1  0
 62 55  2  0
 63 54  1  0
 63 64  1  0
 65 66  2  0
 66 85  1  0
 67 66  1  0
 67 70  1  0
 68 65  1  0
 68 69  1  0
 69 67  2  0
 70 71  1  0
 71 72  2  0
 73 76  1  0
 73 72  1  0
 74 73  2  0
 75 74  1  0
 75 70  2  0
 76 77  1  0
 77 82  2  0
 77 78  1  0
 78 79  2  0
 79 80  1  0
 80 84  1  0
 81 80  2  0
 82 81  1  0
 83 82  1  0
 85 86  1  0
 86 89  1  0
 86 88  1  0
 87 85  2  0
 90 91  1  0
 90 65  1  0
 92 90  1  0
M  ISO  4  11 101  12 101  55 100  63 100
M  END
>  <TORSDO>  (88) 
F 21

>  <SCORE>  (88) 
-12.233

>  <name>  (88) 
88

>  <ligand_id>  (88) 
88

>  <original_smiles>  (88) 
[H]c1c([H])c([H])c2c(c1[H])C([H])([H])C([H])([H])C([H])([H])C2([H])N([H])C(=O)C1([H])N(C(=O)C([H])(N([H])C(=O)C([H])(N([H])C([H])([H])[H])C([H])([H])[H])C(C([H])([H])[H])(C([H])([H])[H])C([H])([H])[H])C([H])([H])c2c([H])c(OC([H])([H])C([H])([H])[N+]([H])([H])C3([H])C([H])([H])C([H])([H])C([H])(C([H])([H])C([H])([H])N([H])C(=O)N4C([H])([H])C([H])([H])C([H])([H])C([H])(n5nc(-c6c([H])c([H])c(Oc7c([H])c([H])c(F)c([H])c7F)c([H])c6[H])c(C(=O)N([H])[H])c5N([H])[H])C4([H])[H])C([H])([H])C3([H])[H])c([H])c([H])c2C1([H])[H]

>  <smiles>  (88) 
[H]c1c([H])c([H])c2c(c1[H])C([H])([H])C([H])([H])C([H])([H])C2([H])N([H])C(=O)C1([H])N(C(=O)C([H])(N([H])C(=O)C([H])(N([H])C([H])([H])[H])C([H])([H])[H])C(C([H])([H])[H])(C([H])([H])[H])C([H])([H])[H])C([H])([H])c2c([H])c(OC([H])([H])C([H])([H])[N+]([H])([H])C3([H])C([H])([H])C([H])([H])C([H])(C([H])([H])C([H])([H])N([H])C(=O)N4C([H])([H])C([H])([H])C([H])([H])C([H])(n5nc(-c6c([H])c([H])c(Oc7c([H])c([H])c(F)c([H])c7F)c([H])c6[H])c(C(=O)N([H])[H])c5N([H])[H])C4([H])[H])C([H])([H])C3([H])[H])c([H])c([H])c2C1([H])[H]

$$$$
89:0:0
     RDKit          3D

 91 99  0  0  1  0  0  0  0  0999 V2000
  -30.6100  -15.2780   20.2920 C   0  0  0  0  0  0  0  0  0  0  0  0
  -30.4140  -12.8350   19.4760 C   0  0  0  0  0  2  0  0  0  0  0  0
  -29.5280  -12.5400   18.2480 C   0  0  0  0  0  2  0  0  0  0  0  0
  -28.0810  -12.2920   18.6930 C   0  0  0  0  0  2  0  0  0  0  0  0
  -27.6080  -13.3310   19.7420 C   0  0  0  0  0  3  0  0  0  0  0  0
  -28.6440  -13.6000   20.8600 C   0  0  0  0  0  2  0  0  0  0  0  0
  -29.8710  -14.0640   20.1810 N   0  0  0  0  0  0  0  0  0  0  0  0
  -31.8240  -15.0260   20.2700 O   0  0  0  0  0  0  0  0  0  0  0  0
  -31.0090  -19.2400   20.1330 C   0  0  0  0  0  2  0  0  0  0  0  0
  -31.3740  -17.7190   20.4470 C   0  0  0  0  0  2  0  0  0  0  0  0
  -29.1610  -17.8670   19.8940 C   0  0  0  0  0  3  0  0  0  0  0  0
  -29.5100  -19.5190   20.2970 C   0  0  0  0  0  3  0  0  0  0  0  0
  -30.2600  -16.7420   20.2290 N   0  0  0  0  0  0  0  0  0  0  0  0
  -25.2230  -13.9090   20.4300 C   0  0  0  0  0  0  0  0  0  0  0  0
  -24.1460  -13.1560   20.7830 C   0  0  0  0  0  0  0  0  0  0  0  0
  -24.6060  -11.8060   20.8040 C   0  0  0  0  0  0  0  0  0  0  0  0
  -26.2730  -13.0320   20.2470 N   0  0  0  0  0  0  0  0  0  0  0  0
  -25.9090  -11.7560   20.5410 N   0  0  0  0  0  0  0  0  0  0  0  0
  -23.8590  -10.5610   21.0000 C   0  0  0  0  0  0  0  0  0  0  0  0
  -24.2670   -9.5980   21.9480 C   0  0  0  0  0  3  0  0  0  0  0  0
  -23.5160   -8.4190   22.1380 C   0  0  0  0  0  3  0  0  0  0  0  0
  -22.3430   -8.1960   21.3780 C   0  0  0  0  0  0  0  0  0  0  0  0
  -21.9500   -9.1500   20.4220 C   0  0  0  0  0  3  0  0  0  0  0  0
  -22.7020  -10.3200   20.2310 C   0  0  0  0  0  3  0  0  0  0  0  0
  -21.5640   -7.0690   21.4760 O   0  0  0  0  0  0  0  0  0  0  0  0
  -21.5210   -6.3240   22.6280 C   0  0  0  0  0  0  0  0  0  0  0  0
  -21.1590   -6.8900   23.8710 C   0  0  0  0  0  3  0  0  0  0  0  0
  -21.0620   -6.0750   25.0150 C   0  0  0  0  0  3  0  0  0  0  0  0
  -21.3130   -4.6930   24.9180 C   0  0  0  0  0  0  0  0  0  0  0  0
  -21.6680   -4.1250   23.6810 C   0  0  0  0  0  3  0  0  0  0  0  0
  -21.7700   -4.9390   22.5400 C   0  0  0  0  0  0  0  0  0  0  0  0
  -22.0910   -4.3850   21.3460 F   0  0  0  0  0  0  0  0  0  0  0  0
  -21.2110   -3.9060   26.0150 F   0  0  0  0  0  0  0  0  0  0  0  0
  -22.7480  -13.6620   20.9900 C   0  0  0  0  0  0  0  0  0  0  0  0
  -21.9870  -13.0130   21.8630 N   0  0  0  0  0  0  0  0  0  0  0  0
  -22.3450  -14.6740   20.4170 O   0  0  0  0  0  0  0  0  0  0  0  0
  -22.3310  -12.2000   22.3510 H   0  0  0  0  0  0  0  0  0  0  0  0
  -21.0490  -13.3390   22.0480 H   0  0  0  0  0  0  0  0  0  0  0  0
  -25.3730  -15.2660   20.2270 N   0  0  0  0  0  0  0  0  0  0  0  0
  -24.6100  -15.8760   20.4930 H   0  0  0  0  0  0  0  0  0  0  0  0
  -26.2890  -15.6980   20.3070 H   0  0  0  0  0  0  0  0  0  0  0  0
  -27.7910  -17.4550   20.4030 C   0  0  0  0  0  0  0  0  0  0  0  0
  -26.7530  -17.7940   19.6520 N   0  0  0  0  0  0  0  0  0  0  0  0
  -27.6610  -16.8330   21.4520 O   0  0  0  0  0  0  0  0  0  0  0  0
  -26.8980  -18.2990   18.7900 H   0  0  0  0  0  0  0  0  0  0  0  0
  -25.8130  -17.5390   19.9160 H   0  0  0  0  0  0  0  0  0  0  0  0
  -27.3660  -20.9010   19.4680 C   0  0  0  0  0  1  0  0  0  0  0  0
  -28.8720  -21.0940   19.6780 C   0  0  0  0  0  3  0  0  0  0  0  0
  -29.0170  -22.8060   20.1930 C   0  0  0  0  0  3  0  0  0  0  0  0
  -28.1300  -24.2960   19.7250 C   0  0  0  0  0  3  0  0  0  0  0  0
  -28.2950  -25.9030   19.9950 O   0  0  0  0  0  0  0  0  0  0  0  0
  -24.5500  -31.6960   22.9900 C   0  0  0  0  0  0  0  0  0  0  0  0
  -27.2470  -26.9540   19.9200 C   0  0  0  0  0  0  0  0  0  0  0  0
  -23.3970  -30.2980   21.3200 C   0  0  0  0  0  3  0  0  0  0  0  0
  -24.8930  -28.7500   19.8850 C   0  0  0  0  0  0  0  0  0  0  0  0
  -25.9550  -30.5810   21.1910 C   0  0  0  0  0  2  0  0  0  0  0  0
  -26.0650  -29.1850   20.5180 C   0  0  0  0  0  0  0  0  0  0  0  0
  -27.2350  -28.3070   20.5150 C   0  0  0  0  0  3  0  0  0  0  0  0
  -26.0440  -26.6630   19.2390 C   0  0  0  0  0  3  0  0  0  0  0  0
  -24.9050  -27.5090   19.2280 C   0  0  0  0  0  3  0  0  0  0  0  0
  -23.6500  -29.6370   19.9370 C   0  0  0  0  0  2  0  0  0  0  0  0
  -24.6550  -30.8850   21.8880 N   0  0  0  0  0  0  0  0  0  0  0  0
  -23.4530  -31.9500   23.5110 O   0  0  0  0  0  0  0  0  0  0  0  0
  -22.7220  -29.2720   22.2680 C   0  0  0  0  0  0  0  0  0  0  0  0
  -21.3910  -29.1030   22.1560 N   0  0  0  0  0  0  0  0  0  0  0  0
  -23.4020  -28.6280   23.0720 O   0  0  0  0  0  0  0  0  0  0  0  0
  -20.8940  -29.6750   21.4880 H   0  0  0  0  0  0  0  0  0  0  0  0
  -18.0220  -27.8680   22.6900 C   0  0  0  0  0  0  0  0  0  0  0  0
  -20.5860  -28.1380   22.9130 C   0  0  0  0  0  3  0  0  0  0  0  0
  -20.6800  -26.7240   22.2950 C   0  0  0  0  0  2  0  0  0  0  0  0
  -19.5620  -26.4270   21.2910 C   0  0  0  0  0  2  0  0  0  0  0  0
  -18.1920  -26.5430   21.9650 C   0  0  0  0  0  2  0  0  0  0  0  0
  -19.1450  -28.6240   23.1210 C   0  0  0  0  0  0  0  0  0  0  0  0
  -18.9290  -29.8630   23.7640 C   0  0  0  0  0  3  0  0  0  0  0  0
  -17.6240  -30.3480   23.9740 C   0  0  0  0  0  3  0  0  0  0  0  0
  -16.5170  -29.5900   23.5560 C   0  0  0  0  0  3  0  0  0  0  0  0
  -16.7160  -28.3510   22.9210 C   0  0  0  0  0  3  0  0  0  0  0  0
  -25.8050  -32.3570   23.6390 C   0  0  0  0  0  3  0  0  0  0  0  0
  -26.3500  -31.5590   24.8890 C   0  0  1  0  0  0  0  0  0  0  0  0
  -25.2710  -31.2530   25.9540 C   0  0  0  0  0  1  0  0  0  0  0  0
  -26.9730  -30.2130   24.4550 C   0  0  0  0  0  1  0  0  0  0  0  0
  -27.4840  -32.3630   25.5700 C   0  0  0  0  0  1  0  0  0  0  0  0
  -25.4410  -33.7290   24.0360 N   0  0  0  0  0  0  0  0  0  0  0  0
  -25.7270  -34.8330   23.3320 C   0  0  0  0  0  0  0  0  0  0  0  0
  -26.3900  -34.8050   22.2920 O   0  0  0  0  0  0  0  0  0  0  0  0
  -24.8490  -33.8210   24.8490 H   0  0  0  0  0  0  0  0  0  0  0  0
  -23.9310  -36.5810   23.0930 C   0  0  0  0  0  1  0  0  0  0  0  0
  -25.2000  -36.1820   23.8640 C   0  0  0  0  0  3  0  0  0  0  0  0
  -27.3180  -37.1040   24.6990 C   0  0  0  0  0  1  0  0  0  0  0  0
  -26.1920  -37.2760   23.7850 N   0  0  0  0  0  0  0  0  0  0  0  0
  -25.7580  -38.1740   23.9820 H   0  0  0  0  0  0  0  0  0  0  0  0
  2  7  1  0
  3  4  1  0
  3  2  1  0
  5  4  1  0
  5 17  1  0
  5  6  1  0
  7  1  1  0
  7  6  1  0
  8  1  2  0
  9 12  1  0
  9 10  1  0
 11 13  1  0
 11 12  1  0
 11 42  1  0
 12 48  1  0
 13  1  1  0
 13 10  1  0
 14 15  2  0
 15 16  1  0
 15 34  1  0
 16 19  1  0
 17 14  1  0
 17 18  1  0
 18 16  2  0
 19 20  1  0
 20 21  2  0
 22 25  1  0
 22 21  1  0
 23 22  2  0
 24 23  1  0
 24 19  2  0
 25 26  1  0
 26 27  1  0
 27 28  2  0
 29 28  1  0
 29 33  1  0
 30 29  2  0
 31 26  2  0
 31 30  1  0
 32 31  1  0
 34 35  1  0
 35 38  1  0
 35 37  1  0
 36 34  2  0
 39 41  1  0
 39 14  1  0
 39 40  1  0
 42 44  2  0
 43 46  1  0
 43 42  1  0
 45 43  1  0
 48 47  1  0
 48 49  1  0
 50 51  1  0
 50 49  2  0
 52 63  2  0
 53 51  1  0
 53 58  1  0
 54 62  1  0
 54 64  1  0
 55 61  1  0
 55 57  1  0
 56 62  1  0
 57 56  1  0
 58 57  2  0
 59 53  2  0
 60 59  1  0
 60 55  2  0
 61 54  1  0
 62 52  1  0
 64 66  2  0
 65 64  1  0
 67 65  1  0
 68 77  2  0
 68 73  1  0
 69 65  1  0
 69 73  1  0
 70 69  1  0
 71 72  1  0
 71 70  1  0
 72 68  1  0
 73 74  2  0
 74 75  1  0
 76 75  2  0
 77 76  1  0
 78 52  1  0
 78 83  1  0
 78 79  1  0
 79 82  1  1
 79 80  1  0
 81 79  1  0
 83 86  1  0
 84 88  1  0
 84 83  1  0
 85 84  2  0
 88 87  1  0
 90 88  1  0
 90 91  1  0
 90 89  1  0
M  ISO  4   1 100  13 100  50 101  51 101
M  END
>  <TORSDO>  (89) 
F 19

>  <SCORE>  (89) 
-14.494

>  <name>  (89) 
89

>  <ligand_id>  (89) 
89

>  <original_smiles>  (89) 
[H]c1c([H])c([H])c2c(c1[H])C([H])([H])C([H])([H])C([H])([H])C2([H])N([H])C(=O)C1([H])N(C(=O)C([H])(N([H])C(=O)C([H])(N([H])C([H])([H])[H])C([H])([H])[H])C(C([H])([H])[H])(C([H])([H])[H])C([H])([H])[H])C([H])([H])c2c([H])c(OC([H])([H])C([H])([H])C([H])(C([H])([H])[H])C3([H])C([H])(C(=O)N([H])[H])N(C(=O)N4C([H])([H])C([H])([H])C([H])([H])C([H])(n5nc(-c6c([H])c([H])c(Oc7c([H])c([H])c(F)c([H])c7F)c([H])c6[H])c(C(=O)N([H])[H])c5N([H])[H])C4([H])[H])C([H])([H])C3([H])[H])c([H])c([H])c2C1([H])[H]

>  <smiles>  (89) 
[H]c1c([H])c([H])c2c(c1[H])C([H])([H])C([H])([H])C([H])([H])C2([H])N([H])C(=O)C1([H])N(C(=O)C([H])(N([H])C(=O)C([H])(N([H])C([H])([H])[H])C([H])([H])[H])C(C([H])([H])[H])(C([H])([H])[H])C([H])([H])[H])C([H])([H])c2c([H])c(OC([H])([H])C([H])([H])C([H])(C([H])([H])[H])C3([H])C([H])(C(=O)N([H])[H])N(C(=O)N4C([H])([H])C([H])([H])C([H])([H])C([H])(n5nc(-c6c([H])c([H])c(Oc7c([H])c([H])c(F)c([H])c7F)c([H])c6[H])c(C(=O)N([H])[H])c5N([H])[H])C4([H])[H])C([H])([H])C3([H])[H])c([H])c([H])c2C1([H])[H]

$$$$
90:0:0
     RDKit          3D

 88 96  0  0  1  0  0  0  0  0999 V2000
  -29.9160  -20.5390   19.7820 C   0  0  0  0  0  0  0  0  0  0  0  0
  -31.1250  -20.7830   19.8000 O   0  0  0  0  0  0  0  0  0  0  0  0
  -30.8590  -14.9720   19.7020 C   0  0  0  0  0  0  0  0  0  0  0  0
  -30.6100  -12.6630   18.6790 C   0  0  0  0  0  2  0  0  0  0  0  0
  -29.5320  -12.6590   17.5680 C   0  0  0  0  0  2  0  0  0  0  0  0
  -28.1230  -12.4460   18.1550 C   0  0  0  0  0  2  0  0  0  0  0  0
  -27.8730  -13.3170   19.4130 C   0  0  0  0  0  3  0  0  0  0  0  0
  -29.0540  -13.2190   20.3980 C   0  0  0  0  0  2  0  0  0  0  0  0
  -30.2440  -13.7120   19.6790 N   0  0  0  0  0  0  0  0  0  0  0  0
  -31.9730  -15.0440   19.1690 O   0  0  0  0  0  0  0  0  0  0  0  0
  -29.4020  -17.5870   22.0470 C   0  0  0  0  0  2  0  0  0  0  0  0
  -28.7350  -18.6920   21.2140 C   0  0  0  0  0  2  0  0  0  0  0  0
  -29.4160  -16.2210   21.3250 C   0  0  0  0  0  2  0  0  0  0  0  0
  -30.4640  -17.6460   19.5530 C   0  0  0  0  0  2  0  0  0  0  0  0
  -29.4570  -18.9530   19.8740 C   0  0  0  0  0  3  0  0  0  0  0  0
  -30.1680  -16.1810   20.0550 N   0  0  0  0  0  0  0  0  0  0  0  0
  -25.6450  -13.8870   20.5410 C   0  0  0  0  0  0  0  0  0  0  0  0
  -24.5990  -13.1110   20.9570 C   0  0  0  0  0  0  0  0  0  0  0  0
  -24.9800  -11.7590   20.6890 C   0  0  0  0  0  0  0  0  0  0  0  0
  -26.5960  -13.0100   20.0490 N   0  0  0  0  0  0  0  0  0  0  0  0
  -26.2120  -11.7160   20.1980 N   0  0  0  0  0  0  0  0  0  0  0  0
  -24.2160  -10.5120   20.8170 C   0  0  0  0  0  0  0  0  0  0  0  0
  -24.6170   -9.4860   21.7030 C   0  0  0  0  0  3  0  0  0  0  0  0
  -23.8540   -8.3050   21.8220 C   0  0  0  0  0  3  0  0  0  0  0  0
  -22.6750   -8.1400   21.0560 C   0  0  0  0  0  0  0  0  0  0  0  0
  -22.2930   -9.1550   20.1590 C   0  0  0  0  0  3  0  0  0  0  0  0
  -23.0570  -10.3270   20.0370 C   0  0  0  0  0  3  0  0  0  0  0  0
  -21.8850   -7.0160   21.0890 O   0  0  0  0  0  0  0  0  0  0  0  0
  -21.6720   -6.3200   22.2520 C   0  0  0  0  0  0  0  0  0  0  0  0
  -21.1170   -6.9320   23.3960 C   0  0  0  0  0  3  0  0  0  0  0  0
  -20.8490   -6.1640   24.5470 C   0  0  0  0  0  3  0  0  0  0  0  0
  -21.1260   -4.7840   24.5520 C   0  0  0  0  0  0  0  0  0  0  0  0
  -21.6750   -4.1710   23.4120 C   0  0  0  0  0  3  0  0  0  0  0  0
  -21.9440   -4.9370   22.2630 C   0  0  0  0  0  0  0  0  0  0  0  0
  -22.4530   -4.3380   21.1600 F   0  0  0  0  0  0  0  0  0  0  0  0
  -20.8620   -4.0430   25.6530 F   0  0  0  0  0  0  0  0  0  0  0  0
  -23.2800  -13.6000   21.4800 C   0  0  0  0  0  0  0  0  0  0  0  0
  -22.6660  -12.8500   22.3880 N   0  0  0  0  0  0  0  0  0  0  0  0
  -22.8110  -14.6790   21.1200 O   0  0  0  0  0  0  0  0  0  0  0  0
  -23.0630  -11.9750   22.6960 H   0  0  0  0  0  0  0  0  0  0  0  0
  -21.7890  -13.1580   22.7830 H   0  0  0  0  0  0  0  0  0  0  0  0
  -25.8580  -15.2630   20.5160 N   0  0  0  0  0  0  0  0  0  0  0  0
  -25.1550  -15.9230   20.8260 H   0  0  0  0  0  0  0  0  0  0  0  0
  -26.6720  -15.7090   20.1150 H   0  0  0  0  0  0  0  0  0  0  0  0
  -28.8900  -21.8220   19.6500 C   0  0  0  0  0  2  0  0  0  0  0  0
  -29.3220  -23.4430   19.7590 C   0  0  0  0  0  3  0  0  0  0  0  0
  -28.2730  -24.7270   19.5130 C   0  0  0  0  0  3  0  0  0  0  0  0
  -28.5110  -26.2340   19.7900 O   0  0  0  0  0  0  0  0  0  0  0  0
  -24.6970  -31.5970   23.0890 C   0  0  0  0  0  0  0  0  0  0  0  0
  -27.4270  -27.1790   19.7780 C   0  0  0  0  0  0  0  0  0  0  0  0
  -23.5520  -30.2920   21.3390 C   0  0  0  0  0  3  0  0  0  0  0  0
  -25.0560  -28.8560   19.8340 C   0  0  0  0  0  0  0  0  0  0  0  0
  -26.1000  -30.6270   21.2340 C   0  0  0  0  0  2  0  0  0  0  0  0
  -26.2160  -29.2880   20.4880 C   0  0  0  0  0  0  0  0  0  0  0  0
  -27.4030  -28.4680   20.4450 C   0  0  0  0  0  3  0  0  0  0  0  0
  -26.2360  -26.8440   19.0950 C   0  0  0  0  0  3  0  0  0  0  0  0
  -25.0780  -27.6480   19.1220 C   0  0  0  0  0  3  0  0  0  0  0  0
  -23.8080  -29.7170   19.9210 C   0  0  0  0  0  2  0  0  0  0  0  0
  -24.8020  -30.8560   21.9440 N   0  0  0  0  0  0  0  0  0  0  0  0
  -23.5970  -31.8210   23.6170 O   0  0  0  0  0  0  0  0  0  0  0  0
  -22.8820  -29.2060   22.2180 C   0  0  0  0  0  0  0  0  0  0  0  0
  -21.5540  -29.0410   22.0840 N   0  0  0  0  0  0  0  0  0  0  0  0
  -23.5600  -28.5160   22.9850 O   0  0  0  0  0  0  0  0  0  0  0  0
  -21.0640  -29.6500   21.4450 H   0  0  0  0  0  0  0  0  0  0  0  0
  -18.1610  -27.8910   22.6150 C   0  0  0  0  0  0  0  0  0  0  0  0
  -20.7380  -28.0440   22.7810 C   0  0  0  0  0  3  0  0  0  0  0  0
  -20.7620  -26.6880   22.0380 C   0  0  0  0  0  2  0  0  0  0  0  0
  -19.6030  -26.5200   21.0510 C   0  0  0  0  0  2  0  0  0  0  0  0
  -18.2590  -26.6270   21.7770 C   0  0  0  0  0  2  0  0  0  0  0  0
  -19.3250  -28.5640   23.0730 C   0  0  0  0  0  0  0  0  0  0  0  0
  -19.1760  -29.7510   23.8230 C   0  0  0  0  0  3  0  0  0  0  0  0
  -17.8980  -30.2640   24.1150 C   0  0  0  0  0  3  0  0  0  0  0  0
  -16.7500  -29.5860   23.6700 C   0  0  0  0  0  3  0  0  0  0  0  0
  -16.8820  -28.4000   22.9270 C   0  0  0  0  0  3  0  0  0  0  0  0
  -25.9510  -32.2150   23.7780 C   0  0  0  0  0  3  0  0  0  0  0  0
  -26.4180  -31.4090   25.0530 C   0  0  1  0  0  0  0  0  0  0  0  0
  -25.2820  -31.1360   26.0670 C   0  0  0  0  0  1  0  0  0  0  0  0
  -27.0240  -30.0450   24.6510 C   0  0  0  0  0  1  0  0  0  0  0  0
  -27.5360  -32.1900   25.7840 C   0  0  0  0  0  1  0  0  0  0  0  0
  -25.6260  -33.6030   24.1400 N   0  0  0  0  0  0  0  0  0  0  0  0
  -25.9290  -34.6770   23.3990 C   0  0  0  0  0  0  0  0  0  0  0  0
  -26.5800  -34.6030   22.3540 O   0  0  0  0  0  0  0  0  0  0  0  0
  -25.0420  -33.7330   24.9530 H   0  0  0  0  0  0  0  0  0  0  0  0
  -24.1490  -36.4390   23.1500 C   0  0  0  0  0  1  0  0  0  0  0  0
  -25.4360  -36.0500   23.8960 C   0  0  0  0  0  3  0  0  0  0  0  0
  -27.5790  -36.9830   24.6500 C   0  0  0  0  0  1  0  0  0  0  0  0
  -26.4380  -37.1270   23.7480 N   0  0  0  0  0  0  0  0  0  0  0  0
  -26.0160  -38.0360   23.9130 H   0  0  0  0  0  0  0  0  0  0  0  0
  1  2  2  0
  3 16  1  0
  4  9  1  0
  5  6  1  0
  5  4  1  0
  7  6  1  0
  7 20  1  0
  7  8  1  0
  9  3  1  0
  9  8  1  0
 10  3  2  0
 12 11  1  0
 13 11  1  0
 14 15  1  0
 14 16  1  0
 15  1  1  0
 15 12  1  0
 16 13  1  0
 17 18  2  0
 18 37  1  0
 19 22  1  0
 19 18  1  0
 20 21  1  0
 20 17  1  0
 21 19  2  0
 22 23  1  0
 23 24  2  0
 25 28  1  0
 25 24  1  0
 26 25  2  0
 27 26  1  0
 27 22  2  0
 28 29  1  0
 29 34  2  0
 29 30  1  0
 30 31  2  0
 31 32  1  0
 32 36  1  0
 33 32  2  0
 34 33  1  0
 35 34  1  0
 37 38  1  0
 38 40  1  0
 38 41  1  0
 39 37  2  0
 42 17  1  0
 42 43  1  0
 44 42  1  0
 45 46  1  0
 45  1  1  0
 47 46  2  0
 47 48  1  0
 49 60  2  0
 50 48  1  0
 50 55  1  0
 51 59  1  0
 51 61  1  0
 52 58  1  0
 52 54  1  0
 53 59  1  0
 54 53  1  0
 55 54  2  0
 56 57  1  0
 56 50  2  0
 57 52  2  0
 58 51  1  0
 59 49  1  0
 61 63  2  0
 62 61  1  0
 64 62  1  0
 65 74  2  0
 65 70  1  0
 66 62  1  0
 66 70  1  0
 67 66  1  0
 68 69  1  0
 68 67  1  0
 69 65  1  0
 70 71  2  0
 71 72  1  0
 73 72  2  0
 74 73  1  0
 75 49  1  0
 75 80  1  0
 75 76  1  0
 76 79  1  1
 76 77  1  0
 78 76  1  0
 80 83  1  0
 81 85  1  0
 81 80  1  0
 82 81  2  0
 85 84  1  0
 87 85  1  0
 87 88  1  0
 87 86  1  0
M  ISO  4   3 100  16 100  47 101  48 101
M  END
>  <TORSDO>  (90) 
F 19

>  <SCORE>  (90) 
-11.048

>  <name>  (90) 
90

>  <ligand_id>  (90) 
90

>  <original_smiles>  (90) 
[H]c1c([H])c([H])c2c(c1[H])C([H])([H])C([H])([H])C([H])([H])C2([H])N([H])C(=O)C1([H])N(C(=O)C([H])(N([H])C(=O)C([H])(N([H])C([H])([H])[H])C([H])([H])[H])C(C([H])([H])[H])(C([H])([H])[H])C([H])([H])[H])C([H])([H])c2c([H])c(OC([H])([H])C([H])([H])C([H])([H])C(=O)C3([H])C([H])([H])N(C(=O)N4C([H])([H])C([H])([H])C([H])([H])C([H])(n5nc(-c6c([H])c([H])c(Oc7c([H])c([H])c(F)c([H])c7F)c([H])c6[H])c(C(=O)N([H])[H])c5N([H])[H])C4([H])[H])C([H])([H])C([H])([H])C3([H])[H])c([H])c([H])c2C1([H])[H]

>  <smiles>  (90) 
[H]c1c([H])c([H])c2c(c1[H])C([H])([H])C([H])([H])C([H])([H])C2([H])N([H])C(=O)C1([H])N(C(=O)C([H])(N([H])C(=O)C([H])(N([H])C([H])([H])[H])C([H])([H])[H])C(C([H])([H])[H])(C([H])([H])[H])C([H])([H])[H])C([H])([H])c2c([H])c(OC([H])([H])C([H])([H])C([H])([H])C(=O)C3([H])C([H])([H])N(C(=O)N4C([H])([H])C([H])([H])C([H])([H])C([H])(n5nc(-c6c([H])c([H])c(Oc7c([H])c([H])c(F)c([H])c7F)c([H])c6[H])c(C(=O)N([H])[H])c5N([H])[H])C4([H])[H])C([H])([H])C([H])([H])C3([H])[H])c([H])c([H])c2C1([H])[H]

$$$$
91:0:0
     RDKit          3D

 88 96  0  0  1  0  0  0  0  0999 V2000
  -27.5370  -21.9470   21.4270 C   0  0  0  0  0  1  0  0  0  0  0  0
  -28.7540  -22.1960   20.5230 C   0  0  0  0  0  3  0  0  0  0  0  0
  -28.9800  -20.8690   19.5970 C   0  0  0  0  0  2  0  0  0  0  0  0
  -30.7980  -14.9160   20.0660 C   0  0  0  0  0  0  0  0  0  0  0  0
  -30.5100  -12.6390   19.0610 C   0  0  0  0  0  2  0  0  0  0  0  0
  -29.5220  -12.6710   17.8770 C   0  0  0  0  0  2  0  0  0  0  0  0
  -28.0810  -12.4790   18.3830 C   0  0  0  0  0  2  0  0  0  0  0  0
  -27.7510  -13.3760   19.6070 C   0  0  0  0  0  3  0  0  0  0  0  0
  -28.8650  -13.3400   20.6730 C   0  0  0  0  0  2  0  0  0  0  0  0
  -30.1040  -13.7230   19.9920 N   0  0  0  0  0  0  0  0  0  0  0  0
  -31.9990  -14.8770   19.7790 O   0  0  0  0  0  0  0  0  0  0  0  0
  -30.1060  -18.5800   18.8470 C   0  0  0  0  0  2  0  0  0  0  0  0
  -28.7440  -18.3210   20.7850 C   0  0  0  0  0  2  0  0  0  0  0  0
  -30.8490  -17.2270   19.1690 C   0  0  0  0  0  2  0  0  0  0  0  0
  -29.4070  -16.8780   21.0720 C   0  0  0  0  0  2  0  0  0  0  0  0
  -29.6130  -19.4180   20.0630 C   0  0  0  0  0  3  0  0  0  0  0  0
  -30.1460  -16.1710   19.9710 N   0  0  0  0  0  0  0  0  0  0  0  0
  -25.4130  -13.9370   20.4840 C   0  0  0  0  0  0  0  0  0  0  0  0
  -24.3660  -13.1510   20.8810 C   0  0  0  0  0  0  0  0  0  0  0  0
  -24.8260  -11.8010   20.7840 C   0  0  0  0  0  0  0  0  0  0  0  0
  -26.4410  -13.0660   20.1660 N   0  0  0  0  0  0  0  0  0  0  0  0
  -26.1010  -11.7740   20.4120 N   0  0  0  0  0  0  0  0  0  0  0  0
  -24.1080  -10.5320   20.9680 C   0  0  0  0  0  0  0  0  0  0  0  0
  -24.5390   -9.5670   21.9050 C   0  0  0  0  0  3  0  0  0  0  0  0
  -23.8190   -8.3660   22.0780 C   0  0  0  0  0  3  0  0  0  0  0  0
  -22.6530   -8.1210   21.3150 C   0  0  0  0  0  0  0  0  0  0  0  0
  -22.2410   -9.0750   20.3670 C   0  0  0  0  0  3  0  0  0  0  0  0
  -22.9620  -10.2680   20.1920 C   0  0  0  0  0  3  0  0  0  0  0  0
  -21.9040   -6.9710   21.3960 O   0  0  0  0  0  0  0  0  0  0  0  0
  -21.7920   -6.2670   22.5680 C   0  0  0  0  0  0  0  0  0  0  0  0
  -21.2710   -6.8530   23.7420 C   0  0  0  0  0  3  0  0  0  0  0  0
  -21.1080   -6.0750   24.9050 C   0  0  0  0  0  3  0  0  0  0  0  0
  -21.4580   -4.7110   24.8950 C   0  0  0  0  0  0  0  0  0  0  0  0
  -21.9740   -4.1240   23.7250 C   0  0  0  0  0  3  0  0  0  0  0  0
  -22.1370   -4.9010   22.5650 C   0  0  0  0  0  0  0  0  0  0  0  0
  -22.6140   -4.3260   21.4350 F   0  0  0  0  0  0  0  0  0  0  0  0
  -21.2960   -3.9600   26.0100 F   0  0  0  0  0  0  0  0  0  0  0  0
  -22.9850  -13.6180   21.2320 C   0  0  0  0  0  0  0  0  0  0  0  0
  -22.2960  -12.8910   22.1050 N   0  0  0  0  0  0  0  0  0  0  0  0
  -22.5270  -14.6640   20.7710 O   0  0  0  0  0  0  0  0  0  0  0  0
  -22.6800  -12.0450   22.4980 H   0  0  0  0  0  0  0  0  0  0  0  0
  -21.3710  -13.1870   22.3860 H   0  0  0  0  0  0  0  0  0  0  0  0
  -25.5740  -15.3120   20.3420 N   0  0  0  0  0  0  0  0  0  0  0  0
  -24.8190  -15.9680   20.5160 H   0  0  0  0  0  0  0  0  0  0  0  0
  -26.4170  -15.7570   20.0030 H   0  0  0  0  0  0  0  0  0  0  0  0
  -28.6230  -23.6800   19.8210 C   0  0  0  0  0  3  0  0  0  0  0  0
  -28.2040  -25.0200   20.6620 C   0  0  0  0  0  3  0  0  0  0  0  0
  -28.3840  -26.4480   20.1900 O   0  0  0  0  0  0  0  0  0  0  0  0
  -24.6470  -31.9360   23.2110 C   0  0  0  0  0  0  0  0  0  0  0  0
  -27.2830  -27.3340   20.1850 C   0  0  0  0  0  0  0  0  0  0  0  0
  -23.4550  -30.5180   21.5790 C   0  0  0  0  0  3  0  0  0  0  0  0
  -24.9190  -28.9670   20.1570 C   0  0  0  0  0  0  0  0  0  0  0  0
  -25.9950  -30.8460   21.3930 C   0  0  0  0  0  2  0  0  0  0  0  0
  -26.0880  -29.4600   20.7530 C   0  0  0  0  0  0  0  0  0  0  0  0
  -27.2760  -28.6580   20.7490 C   0  0  0  0  0  3  0  0  0  0  0  0
  -26.0920  -26.9080   19.5660 C   0  0  0  0  0  3  0  0  0  0  0  0
  -24.9260  -27.7000   19.5510 C   0  0  0  0  0  3  0  0  0  0  0  0
  -23.6760  -29.8370   20.2030 C   0  0  0  0  0  2  0  0  0  0  0  0
  -24.7180  -31.1200   22.1180 N   0  0  0  0  0  0  0  0  0  0  0  0
  -23.5610  -32.2070   23.7450 O   0  0  0  0  0  0  0  0  0  0  0  0
  -22.8010  -29.5020   22.5470 C   0  0  0  0  0  0  0  0  0  0  0  0
  -21.4760  -29.3150   22.4260 N   0  0  0  0  0  0  0  0  0  0  0  0
  -23.4860  -28.8860   23.3670 O   0  0  0  0  0  0  0  0  0  0  0  0
  -20.9810  -29.8660   21.7380 H   0  0  0  0  0  0  0  0  0  0  0  0
  -18.1090  -28.0960   22.9510 C   0  0  0  0  0  0  0  0  0  0  0  0
  -20.6670  -28.3720   23.2020 C   0  0  0  0  0  3  0  0  0  0  0  0
  -20.7740  -26.9410   22.6260 C   0  0  0  0  0  2  0  0  0  0  0  0
  -19.6680  -26.6120   21.6190 C   0  0  0  0  0  2  0  0  0  0  0  0
  -18.2900  -26.7480   22.2740 C   0  0  0  0  0  2  0  0  0  0  0  0
  -19.2250  -28.8650   23.3720 C   0  0  0  0  0  0  0  0  0  0  0  0
  -19.0040  -30.1260   23.9670 C   0  0  0  0  0  3  0  0  0  0  0  0
  -17.6960  -30.6190   24.1430 C   0  0  0  0  0  3  0  0  0  0  0  0
  -16.5940  -29.8470   23.7360 C   0  0  0  0  0  3  0  0  0  0  0  0
  -16.8010  -28.5870   23.1470 C   0  0  0  0  0  3  0  0  0  0  0  0
  -25.9240  -32.5870   23.8290 C   0  0  0  0  0  3  0  0  0  0  0  0
  -26.4510  -31.8250   25.1070 C   0  0  1  0  0  0  0  0  0  0  0  0
  -25.3610  -31.5740   26.1750 C   0  0  0  0  0  1  0  0  0  0  0  0
  -27.0540  -30.4550   24.7200 C   0  0  0  0  0  1  0  0  0  0  0  0
  -27.5900  -32.6370   25.7680 C   0  0  0  0  0  1  0  0  0  0  0  0
  -25.5970  -33.9820   24.1580 N   0  0  0  0  0  0  0  0  0  0  0  0
  -25.9210  -35.0400   23.4040 C   0  0  0  0  0  0  0  0  0  0  0  0
  -26.5940  -34.9450   22.3740 O   0  0  0  0  0  0  0  0  0  0  0  0
  -24.9950  -34.1270   24.9560 H   0  0  0  0  0  0  0  0  0  0  0  0
  -24.1840  -36.8250   23.0410 C   0  0  0  0  0  1  0  0  0  0  0  0
  -25.4190  -36.4230   23.8640 C   0  0  0  0  0  3  0  0  0  0  0  0
  -27.5350  -37.3210   24.7260 C   0  0  0  0  0  1  0  0  0  0  0  0
  -26.4450  -37.4840   23.7680 N   0  0  0  0  0  0  0  0  0  0  0  0
  -26.0300  -38.4000   23.9130 H   0  0  0  0  0  0  0  0  0  0  0  0
  2  1  1  0
  3  2  1  0
  5 10  1  0
  6  7  1  0
  6  5  1  0
  8  7  1  0
  8 21  1  0
  8  9  1  0
 10  4  1  0
 10  9  1  0
 11  4  2  0
 12 14  1  0
 12 16  1  0
 13 15  1  0
 14 17  1  0
 16  3  1  0
 16 13  1  0
 17  4  1  0
 17 15  1  0
 18 19  2  0
 19 38  1  0
 20 19  1  0
 20 23  1  0
 21 22  1  0
 21 18  1  0
 22 20  2  0
 23 24  1  0
 24 25  2  0
 26 29  1  0
 26 25  1  0
 27 26  2  0
 28 27  1  0
 28 23  2  0
 29 30  1  0
 30 31  1  0
 31 32  2  0
 33 32  1  0
 33 37  1  0
 34 33  2  0
 35 30  2  0
 35 34  1  0
 36 35  1  0
 38 39  1  0
 39 42  1  0
 39 41  1  0
 40 38  2  0
 43 18  1  0
 43 44  1  0
 45 43  1  0
 46  2  1  0
 46 47  2  0
 48 47  1  0
 49 60  2  0
 50 48  1  0
 50 55  1  0
 51 59  1  0
 51 61  1  0
 52 58  1  0
 52 54  1  0
 53 59  1  0
 54 53  1  0
 55 54  2  0
 56 50  2  0
 57 56  1  0
 57 52  2  0
 58 51  1  0
 59 49  1  0
 61 63  2  0
 62 61  1  0
 64 62  1  0
 65 74  2  0
 65 70  1  0
 66 62  1  0
 66 70  1  0
 67 66  1  0
 68 69  1  0
 68 67  1  0
 69 65  1  0
 70 71  2  0
 71 72  1  0
 73 72  2  0
 74 73  1  0
 75 49  1  0
 75 80  1  0
 75 76  1  0
 76 79  1  1
 76 77  1  0
 78 76  1  0
 80 83  1  0
 81 85  1  0
 81 80  1  0
 82 81  2  0
 85 84  1  0
 87 85  1  0
 87 88  1  0
 87 86  1  0
M  ISO  4   4 100  17 100  47 101  48 101
M  END
>  <TORSDO>  (91) 
F 19

>  <SCORE>  (91) 
-13.838

>  <name>  (91) 
91

>  <ligand_id>  (91) 
91

>  <original_smiles>  (91) 
[H]c1c([H])c([H])c2c(c1[H])C([H])([H])C([H])([H])C([H])([H])C2([H])N([H])C(=O)C1([H])N(C(=O)C([H])(N([H])C(=O)C([H])(N([H])C([H])([H])[H])C([H])([H])[H])C(C([H])([H])[H])(C([H])([H])[H])C([H])([H])[H])C([H])([H])c2c([H])c(OC([H])([H])C([H])([H])C([H])(C([H])([H])[H])C([H])([H])C3([H])C([H])([H])C([H])([H])N(C(=O)N4C([H])([H])C([H])([H])C([H])([H])C([H])(n5nc(-c6c([H])c([H])c(Oc7c([H])c([H])c(F)c([H])c7F)c([H])c6[H])c(C(=O)N([H])[H])c5N([H])[H])C4([H])[H])C([H])([H])C3([H])[H])c([H])c([H])c2C1([H])[H]

>  <smiles>  (91) 
[H]c1c([H])c([H])c2c(c1[H])C([H])([H])C([H])([H])C([H])([H])C2([H])N([H])C(=O)C1([H])N(C(=O)C([H])(N([H])C(=O)C([H])(N([H])C([H])([H])[H])C([H])([H])[H])C(C([H])([H])[H])(C([H])([H])[H])C([H])([H])[H])C([H])([H])c2c([H])c(OC([H])([H])C([H])([H])C([H])(C([H])([H])[H])C([H])([H])C3([H])C([H])([H])C([H])([H])N(C(=O)N4C([H])([H])C([H])([H])C([H])([H])C([H])(n5nc(-c6c([H])c([H])c(Oc7c([H])c([H])c(F)c([H])c7F)c([H])c6[H])c(C(=O)N([H])[H])c5N([H])[H])C4([H])[H])C([H])([H])C3([H])[H])c([H])c([H])c2C1([H])[H]

$$$$
92:0:0
     RDKit          3D

 93101  0  0  1  0  0  0  0  0999 V2000
  -29.2270  -19.0250   19.0020 C   0  0  0  0  0  2  0  0  0  0  0  0
  -29.5930  -19.8120   21.2430 C   0  0  0  0  0  2  0  0  0  0  0  0
  -29.3250  -18.4550   20.4350 C   0  0  0  0  0  3  0  0  0  0  0  0
  -28.7200  -20.4930   19.1060 C   0  0  0  0  0  3  0  0  0  0  0  0
  -29.4750  -21.1040   20.3090 C   0  0  0  0  0  3  0  0  0  0  0  0
  -30.6710  -14.7360   20.3550 C   0  0  0  0  0  0  0  0  0  0  0  0
  -30.4230  -12.4920   19.2900 C   0  0  0  0  0  2  0  0  0  0  0  0
  -29.4810  -12.5850   18.0710 C   0  0  0  0  0  2  0  0  0  0  0  0
  -28.0130  -12.4180   18.5050 C   0  0  0  0  0  2  0  0  0  0  0  0
  -27.6470  -13.2890   19.7360 C   0  0  0  0  0  3  0  0  0  0  0  0
  -28.7110  -13.1820   20.8510 C   0  0  0  0  0  2  0  0  0  0  0  0
  -30.0050  -13.5360   20.2540 N   0  0  0  0  0  0  0  0  0  0  0  0
  -31.8710  -14.7680   20.0670 O   0  0  0  0  0  0  0  0  0  0  0  0
  -30.3480  -17.2260   20.5450 C   0  0  0  0  0  0  0  0  0  0  0  0
  -29.9300  -15.8980   20.5360 N   0  0  0  0  0  0  0  0  0  0  0  0
  -31.5420  -17.5330   20.6150 O   0  0  0  0  0  0  0  0  0  0  0  0
  -28.9350  -15.7640   20.5960 H   0  0  0  0  0  0  0  0  0  0  0  0
  -25.2500  -13.8740   20.4420 C   0  0  0  0  0  0  0  0  0  0  0  0
  -24.1870  -13.0970   20.8110 C   0  0  0  0  0  0  0  0  0  0  0  0
  -24.6580  -11.7490   20.7940 C   0  0  0  0  0  0  0  0  0  0  0  0
  -26.3010  -12.9990   20.2220 N   0  0  0  0  0  0  0  0  0  0  0  0
  -25.9510  -11.7160   20.4980 N   0  0  0  0  0  0  0  0  0  0  0  0
  -23.9360  -10.4830   20.9870 C   0  0  0  0  0  0  0  0  0  0  0  0
  -24.3550   -9.5320   21.9420 C   0  0  0  0  0  3  0  0  0  0  0  0
  -23.6330   -8.3320   22.1230 C   0  0  0  0  0  3  0  0  0  0  0  0
  -22.4760   -8.0750   21.3470 C   0  0  0  0  0  0  0  0  0  0  0  0
  -22.0760   -9.0160   20.3830 C   0  0  0  0  0  3  0  0  0  0  0  0
  -22.7990  -10.2080   20.2000 C   0  0  0  0  0  3  0  0  0  0  0  0
  -21.7280   -6.9270   21.4360 O   0  0  0  0  0  0  0  0  0  0  0  0
  -21.6470   -6.2090   22.6020 C   0  0  0  0  0  0  0  0  0  0  0  0
  -21.1400   -6.7740   23.7920 C   0  0  0  0  0  3  0  0  0  0  0  0
  -21.0110   -5.9800   24.9500 C   0  0  0  0  0  3  0  0  0  0  0  0
  -21.3790   -4.6210   24.9170 C   0  0  0  0  0  0  0  0  0  0  0  0
  -21.8780   -4.0550   23.7310 C   0  0  0  0  0  3  0  0  0  0  0  0
  -22.0100   -4.8470   22.5770 C   0  0  0  0  0  0  0  0  0  0  0  0
  -22.4730   -4.2910   21.4300 F   0  0  0  0  0  0  0  0  0  0  0  0
  -21.2480   -3.8570   26.0260 F   0  0  0  0  0  0  0  0  0  0  0  0
  -22.7840  -13.5680   21.0640 C   0  0  0  0  0  0  0  0  0  0  0  0
  -22.0490  -12.8760   21.9270 N   0  0  0  0  0  0  0  0  0  0  0  0
  -22.3450  -14.5870   20.5310 O   0  0  0  0  0  0  0  0  0  0  0  0
  -22.4160  -12.0520   22.3830 H   0  0  0  0  0  0  0  0  0  0  0  0
  -21.1090  -13.1740   22.1390 H   0  0  0  0  0  0  0  0  0  0  0  0
  -25.4070  -15.2440   20.2520 N   0  0  0  0  0  0  0  0  0  0  0  0
  -24.6270  -15.8870   20.3350 H   0  0  0  0  0  0  0  0  0  0  0  0
  -26.2350  -15.6820   19.8740 H   0  0  0  0  0  0  0  0  0  0  0  0
  -28.8130  -22.3690   20.8880 N   0  0  0  0  0  4  0  0  0  0  0  0
  -28.9920  -22.3590   21.8800 H   0  0  0  0  0  0  0  0  0  0  0  0
  -27.8180  -22.2530   20.7890 H   0  0  0  0  0  0  0  0  0  0  0  0
  -29.1960  -23.7850   20.4080 C   0  0  0  0  0  3  0  0  0  0  0  0
  -28.1540  -24.9780   20.7200 C   0  0  0  0  0  3  0  0  0  0  0  0
  -28.4260  -26.4080   20.3480 O   0  0  0  0  0  0  0  0  0  0  0  0
  -24.6440  -31.8770   23.2410 C   0  0  0  0  0  0  0  0  0  0  0  0
  -27.3250  -27.2890   20.2740 C   0  0  0  0  0  0  0  0  0  0  0  0
  -23.4780  -30.4630   21.5870 C   0  0  0  0  0  3  0  0  0  0  0  0
  -24.9620  -28.9150   20.1930 C   0  0  0  0  0  0  0  0  0  0  0  0
  -26.0200  -30.7840   21.4560 C   0  0  0  0  0  2  0  0  0  0  0  0
  -26.1180  -29.4020   20.8190 C   0  0  0  0  0  0  0  0  0  0  0  0
  -27.3030  -28.6010   20.8500 C   0  0  0  0  0  3  0  0  0  0  0  0
  -26.1580  -26.8780   19.5920 C   0  0  0  0  0  3  0  0  0  0  0  0
  -24.9890  -27.6610   19.5650 C   0  0  0  0  0  3  0  0  0  0  0  0
  -23.7200  -29.7830   20.2130 C   0  0  0  0  0  2  0  0  0  0  0  0
  -24.7320  -31.0610   22.1500 N   0  0  0  0  0  0  0  0  0  0  0  0
  -23.5500  -32.1520   23.7540 O   0  0  0  0  0  0  0  0  0  0  0  0
  -22.8030  -29.4490   22.5410 C   0  0  0  0  0  0  0  0  0  0  0  0
  -21.4760  -29.2820   22.4080 N   0  0  0  0  0  0  0  0  0  0  0  0
  -23.4720  -28.8150   23.3610 O   0  0  0  0  0  0  0  0  0  0  0  0
  -20.9930  -29.8450   21.7210 H   0  0  0  0  0  0  0  0  0  0  0  0
  -18.0800  -28.1460   22.9190 C   0  0  0  0  0  0  0  0  0  0  0  0
  -20.6460  -28.3510   23.1730 C   0  0  0  0  0  3  0  0  0  0  0  0
  -20.7130  -26.9260   22.5780 C   0  0  0  0  0  2  0  0  0  0  0  0
  -19.5980  -26.6400   21.5660 C   0  0  0  0  0  2  0  0  0  0  0  0
  -18.2240  -26.8030   22.2240 C   0  0  0  0  0  2  0  0  0  0  0  0
  -19.2170  -28.8800   23.3510 C   0  0  0  0  0  0  0  0  0  0  0  0
  -19.0270  -30.1380   23.9630 C   0  0  0  0  0  3  0  0  0  0  0  0
  -17.7330  -30.6620   24.1470 C   0  0  0  0  0  3  0  0  0  0  0  0
  -16.6110  -29.9230   23.7320 C   0  0  0  0  0  3  0  0  0  0  0  0
  -16.7850  -28.6670   23.1230 C   0  0  0  0  0  3  0  0  0  0  0  0
  -25.9130  -32.5190   23.8830 C   0  0  0  0  0  3  0  0  0  0  0  0
  -26.4110  -31.7570   25.1720 C   0  0  1  0  0  0  0  0  0  0  0  0
  -25.3020  -31.5180   26.2220 C   0  0  0  0  0  1  0  0  0  0  0  0
  -27.0090  -30.3800   24.8000 C   0  0  0  0  0  1  0  0  0  0  0  0
  -27.5430  -32.5640   25.8520 C   0  0  0  0  0  1  0  0  0  0  0  0
  -25.5890  -33.9160   24.2010 N   0  0  0  0  0  0  0  0  0  0  0  0
  -25.9150  -34.9670   23.4380 C   0  0  0  0  0  0  0  0  0  0  0  0
  -26.5880  -34.8640   22.4080 O   0  0  0  0  0  0  0  0  0  0  0  0
  -24.9900  -34.0710   24.9990 H   0  0  0  0  0  0  0  0  0  0  0  0
  -24.1740  -36.7430   23.0690 C   0  0  0  0  0  1  0  0  0  0  0  0
  -25.4160  -36.3540   23.8860 C   0  0  0  0  0  3  0  0  0  0  0  0
  -27.5360  -37.2660   24.7240 C   0  0  0  0  0  1  0  0  0  0  0  0
  -26.4390  -37.4160   23.7720 N   0  0  0  0  0  0  0  0  0  0  0  0
  -26.0230  -38.3330   23.9130 H   0  0  0  0  0  0  0  0  0  0  0  0
  -28.0910  -20.7010   16.6170 C   0  0  0  0  0  1  0  0  0  0  0  0
  -28.8800  -21.2880   17.7940 C   0  0  0  0  0  2  0  0  0  0  0  0
  1  4  1  0
  1  3  1  0
  3 14  1  0
  3  2  1  0
  4 93  1  0
  4  5  1  0
  5 46  1  0
  5  2  1  0
  6 15  1  0
  7 12  1  0
  8  9  1  0
  8  7  1  0
 10  9  1  0
 10 21  1  0
 10 11  1  0
 12  6  1  0
 12 11  1  0
 13  6  2  0
 14 16  2  0
 15 14  1  0
 15 17  1  0
 18 19  2  0
 19 38  1  0
 20 19  1  0
 20 23  1  0
 21 18  1  0
 21 22  1  0
 22 20  2  0
 23 24  1  0
 24 25  2  0
 26 29  1  0
 26 25  1  0
 27 26  2  0
 28 27  1  0
 28 23  2  0
 29 30  1  0
 30 31  1  0
 31 32  2  0
 33 32  1  0
 33 37  1  0
 34 33  2  0
 35 30  2  0
 35 34  1  0
 36 35  1  0
 38 39  1  0
 39 42  1  0
 39 41  1  0
 40 38  2  0
 43 44  1  0
 43 18  1  0
 45 43  1  0
 46 47  1  0
 48 46  1  0
 49 50  2  0
 49 46  1  0
 51 50  1  0
 52 63  2  0
 53 51  1  0
 53 58  1  0
 54 62  1  0
 54 64  1  0
 55 61  1  0
 55 57  1  0
 56 62  1  0
 57 58  2  0
 57 56  1  0
 59 53  2  0
 60 59  1  0
 60 55  2  0
 61 54  1  0
 62 52  1  0
 64 66  2  0
 65 64  1  0
 67 65  1  0
 68 77  2  0
 68 73  1  0
 69 65  1  0
 69 73  1  0
 70 69  1  0
 71 72  1  0
 71 70  1  0
 72 68  1  0
 73 74  2  0
 74 75  1  0
 76 75  2  0
 77 76  1  0
 78 52  1  0
 78 83  1  0
 78 79  1  0
 79 82  1  1
 79 80  1  0
 81 79  1  0
 83 86  1  0
 84 88  1  0
 84 83  1  0
 85 84  2  0
 88 87  1  0
 90 88  1  0
 90 91  1  0
 90 89  1  0
 92 93  1  0
M  ISO  4   6 100  15 100  50 101  51 101
M  END
>  <TORSDO>  (92) 
F 20

>  <SCORE>  (92) 
-13.510

>  <name>  (92) 
92

>  <ligand_id>  (92) 
92

>  <original_smiles>  (92) 
[H]c1c([H])c([H])c2c(c1[H])C([H])([H])C([H])([H])C([H])([H])C2([H])N([H])C(=O)C1([H])N(C(=O)C([H])(N([H])C(=O)C([H])(N([H])C([H])([H])[H])C([H])([H])[H])C(C([H])([H])[H])(C([H])([H])[H])C([H])([H])[H])C([H])([H])c2c([H])c(OC([H])([H])C([H])([H])[N+]([H])([H])C3([H])C([H])([H])C([H])(C(=O)N([H])C(=O)N4C([H])([H])C([H])([H])C([H])([H])C([H])(n5nc(-c6c([H])c([H])c(Oc7c([H])c([H])c(F)c([H])c7F)c([H])c6[H])c(C(=O)N([H])[H])c5N([H])[H])C4([H])[H])C([H])([H])C3([H])C([H])([H])C([H])([H])[H])c([H])c([H])c2C1([H])[H]

>  <smiles>  (92) 
[H]c1c([H])c([H])c2c(c1[H])C([H])([H])C([H])([H])C([H])([H])C2([H])N([H])C(=O)C1([H])N(C(=O)C([H])(N([H])C(=O)C([H])(N([H])C([H])([H])[H])C([H])([H])[H])C(C([H])([H])[H])(C([H])([H])[H])C([H])([H])[H])C([H])([H])c2c([H])c(OC([H])([H])C([H])([H])[N+]([H])([H])C3([H])C([H])([H])C([H])(C(=O)N([H])C(=O)N4C([H])([H])C([H])([H])C([H])([H])C([H])(n5nc(-c6c([H])c([H])c(Oc7c([H])c([H])c(F)c([H])c7F)c([H])c6[H])c(C(=O)N([H])[H])c5N([H])[H])C4([H])[H])C([H])([H])C3([H])C([H])([H])C([H])([H])[H])c([H])c([H])c2C1([H])[H]

$$$$
93:0:0
     RDKit          3D

 85 93  0  0  1  0  0  0  0  0999 V2000
  -29.1000  -22.3180   20.1230 C   0  0  0  0  0  3  0  0  0  0  0  0
  -30.4510  -15.7790   19.9030 C   0  0  0  0  0  0  0  0  0  0  0  0
  -30.5050  -13.2480   19.0460 C   0  0  0  0  0  2  0  0  0  0  0  0
  -29.5620  -12.8680   17.8690 C   0  0  0  0  0  2  0  0  0  0  0  0
  -28.1530  -12.5180   18.3720 C   0  0  0  0  0  2  0  0  0  0  0  0
  -27.6960  -13.4910   19.4830 C   0  0  0  0  0  3  0  0  0  0  0  0
  -28.7830  -13.7700   20.5510 C   0  0  0  0  0  2  0  0  0  0  0  0
  -29.9170  -14.4160   19.8440 N   0  0  0  0  0  0  0  0  0  0  0  0
  -31.6720  -15.7130   19.6620 O   0  0  0  0  0  0  0  0  0  0  0  0
  -27.3900  -18.3480   20.0600 C   0  0  0  0  0  2  0  0  0  0  0  0
  -27.7050  -19.8130   20.5170 C   0  0  0  0  0  2  0  0  0  0  0  0
  -28.3290  -17.1700   20.5190 C   0  0  0  0  0  2  0  0  0  0  0  0
  -30.0430  -18.8670   19.9670 C   0  0  0  0  0  2  0  0  0  0  0  0
  -28.9590  -20.4090   19.8490 C   0  0  0  0  0  3  0  0  0  0  0  0
  -29.7140  -17.1610   20.0100 N   0  0  0  0  0  0  0  0  0  0  0  0
  -25.3650  -13.9880   20.3690 C   0  0  0  0  0  0  0  0  0  0  0  0
  -24.3330  -13.1930   20.7730 C   0  0  0  0  0  0  0  0  0  0  0  0
  -24.8120  -11.8500   20.6800 C   0  0  0  0  0  0  0  0  0  0  0  0
  -26.4060  -13.1340   20.0580 N   0  0  0  0  0  0  0  0  0  0  0  0
  -26.0890  -11.8360   20.3100 N   0  0  0  0  0  0  0  0  0  0  0  0
  -24.1000  -10.5800   20.8630 C   0  0  0  0  0  0  0  0  0  0  0  0
  -24.5010   -9.6400   21.8350 C   0  0  0  0  0  3  0  0  0  0  0  0
  -23.7820   -8.4380   22.0080 C   0  0  0  0  0  3  0  0  0  0  0  0
  -22.6450   -8.1700   21.2100 C   0  0  0  0  0  0  0  0  0  0  0  0
  -22.2630   -9.1010   20.2290 C   0  0  0  0  0  3  0  0  0  0  0  0
  -22.9840  -10.2920   20.0530 C   0  0  0  0  0  3  0  0  0  0  0  0
  -21.8980   -7.0180   21.2920 O   0  0  0  0  0  0  0  0  0  0  0  0
  -21.6870   -6.3830   22.4890 C   0  0  0  0  0  0  0  0  0  0  0  0
  -20.9920   -7.0030   23.5510 C   0  0  0  0  0  3  0  0  0  0  0  0
  -20.7350   -6.2900   24.7380 C   0  0  0  0  0  3  0  0  0  0  0  0
  -21.1590   -4.9540   24.8630 C   0  0  0  0  0  0  0  0  0  0  0  0
  -21.8460   -4.3300   23.8050 C   0  0  0  0  0  3  0  0  0  0  0  0
  -22.1050   -5.0420   22.6210 C   0  0  0  0  0  0  0  0  0  0  0  0
  -22.7460   -4.4300   21.5960 F   0  0  0  0  0  0  0  0  0  0  0  0
  -20.9080   -4.2670   26.0010 F   0  0  0  0  0  0  0  0  0  0  0  0
  -22.9480  -13.6560   21.1110 C   0  0  0  0  0  0  0  0  0  0  0  0
  -22.2640  -12.9480   22.0030 N   0  0  0  0  0  0  0  0  0  0  0  0
  -22.4820  -14.6840   20.6200 O   0  0  0  0  0  0  0  0  0  0  0  0
  -22.6550  -12.1190   22.4240 H   0  0  0  0  0  0  0  0  0  0  0  0
  -21.3350  -13.2400   22.2710 H   0  0  0  0  0  0  0  0  0  0  0  0
  -25.4730  -15.3630   20.2040 N   0  0  0  0  0  0  0  0  0  0  0  0
  -24.6720  -15.9670   20.3480 H   0  0  0  0  0  0  0  0  0  0  0  0
  -26.2560  -15.8450   19.7860 H   0  0  0  0  0  0  0  0  0  0  0  0
  -28.1230  -23.9740   19.9280 C   0  0  0  0  0  3  0  0  0  0  0  0
  -28.2810  -25.7000   20.1780 O   0  0  0  0  0  0  0  0  0  0  0  0
  -24.7320  -31.8490   23.2550 C   0  0  0  0  0  0  0  0  0  0  0  0
  -27.2990  -26.8940   20.1390 C   0  0  0  0  0  0  0  0  0  0  0  0
  -23.5600  -30.4960   21.5710 C   0  0  0  0  0  3  0  0  0  0  0  0
  -25.0200  -28.9010   20.1200 C   0  0  0  0  0  0  0  0  0  0  0  0
  -26.1360  -30.6610   21.4680 C   0  0  0  0  0  2  0  0  0  0  0  0
  -26.2090  -29.2510   20.7710 C   0  0  0  0  0  0  0  0  0  0  0  0
  -27.3340  -28.2770   20.7480 C   0  0  0  0  0  3  0  0  0  0  0  0
  -26.0740  -26.7460   19.4400 C   0  0  0  0  0  3  0  0  0  0  0  0
  -24.9910  -27.6760   19.4300 C   0  0  0  0  0  3  0  0  0  0  0  0
  -23.8080  -29.8440   20.1810 C   0  0  0  0  0  2  0  0  0  0  0  0
  -24.8330  -31.0330   22.1510 N   0  0  0  0  0  0  0  0  0  0  0  0
  -23.6360  -32.1300   23.7660 O   0  0  0  0  0  0  0  0  0  0  0  0
  -22.8430  -29.4870   22.5080 C   0  0  0  0  0  0  0  0  0  0  0  0
  -21.5130  -29.3240   22.3640 N   0  0  0  0  0  0  0  0  0  0  0  0
  -23.4950  -28.8490   23.3380 O   0  0  0  0  0  0  0  0  0  0  0  0
  -21.0370  -29.8870   21.6730 H   0  0  0  0  0  0  0  0  0  0  0  0
  -18.1190  -28.1180   22.8470 C   0  0  0  0  0  0  0  0  0  0  0  0
  -20.6830  -28.3640   23.1040 C   0  0  0  0  0  3  0  0  0  0  0  0
  -20.7740  -26.9530   22.4770 C   0  0  0  0  0  2  0  0  0  0  0  0
  -19.6660  -26.6750   21.4570 C   0  0  0  0  0  2  0  0  0  0  0  0
  -18.2880  -26.7970   22.1130 C   0  0  0  0  0  2  0  0  0  0  0  0
  -19.2430  -28.8600   23.2980 C   0  0  0  0  0  0  0  0  0  0  0  0
  -19.0270  -30.0940   23.9490 C   0  0  0  0  0  3  0  0  0  0  0  0
  -17.7240  -30.5850   24.1510 C   0  0  0  0  0  3  0  0  0  0  0  0
  -16.6160  -29.8400   23.7130 C   0  0  0  0  0  3  0  0  0  0  0  0
  -16.8140  -28.6070   23.0650 C   0  0  0  0  0  3  0  0  0  0  0  0
  -25.9900  -32.4840   23.9210 C   0  0  0  0  0  3  0  0  0  0  0  0
  -25.6780  -33.8910   24.2460 N   0  0  0  0  0  0  0  0  0  0  0  0
  -25.9970  -34.9470   23.4850 C   0  0  0  0  0  0  0  0  0  0  0  0
  -26.6420  -34.8410   22.4400 O   0  0  0  0  0  0  0  0  0  0  0  0
  -25.0990  -34.0480   25.0560 H   0  0  0  0  0  0  0  0  0  0  0  0
  -24.2560  -36.7450   23.2000 C   0  0  0  0  0  1  0  0  0  0  0  0
  -25.5310  -36.3410   23.9570 C   0  0  0  0  0  3  0  0  0  0  0  0
  -27.6840  -37.2550   24.7100 C   0  0  0  0  0  1  0  0  0  0  0  0
  -26.5570  -37.3950   23.7920 N   0  0  0  0  0  0  0  0  0  0  0  0
  -26.1510  -38.3180   23.9260 H   0  0  0  0  0  0  0  0  0  0  0  0
  -26.4470  -31.7230   25.2270 C   0  0  1  0  0  0  0  0  0  0  0  0
  -25.3140  -31.5090   26.2590 C   0  0  0  0  0  1  0  0  0  0  0  0
  -27.0290  -30.3320   24.8830 C   0  0  0  0  0  1  0  0  0  0  0  0
  -27.5820  -32.5110   25.9230 C   0  0  0  0  0  1  0  0  0  0  0  0
  2 15  1  0
  3  8  1  0
  4  5  1  0
  4  3  1  0
  6  5  1  0
  6 19  1  0
  6  7  1  0
  8  2  1  0
  8  7  1  0
  9  2  2  0
 10 11  1  0
 10 12  1  0
 13 15  1  0
 14 13  1  0
 14  1  1  0
 14 11  1  0
 15 12  1  0
 16 17  2  0
 17 36  1  0
 18 17  1  0
 18 21  1  0
 19 20  1  0
 19 16  1  0
 20 18  2  0
 21 22  1  0
 22 23  2  0
 24 27  1  0
 24 23  1  0
 25 24  2  0
 26 25  1  0
 26 21  2  0
 27 28  1  0
 28 33  2  0
 28 29  1  0
 29 30  2  0
 30 31  1  0
 31 35  1  0
 32 31  2  0
 33 32  1  0
 34 33  1  0
 36 37  1  0
 37 40  1  0
 37 39  1  0
 38 36  2  0
 41 42  1  0
 41 16  1  0
 43 41  1  0
 44  1  2  0
 44 45  1  0
 46 57  2  0
 47 45  1  0
 47 52  1  0
 48 56  1  0
 48 58  1  0
 49 55  1  0
 49 51  1  0
 50 56  1  0
 51 50  1  0
 52 51  2  0
 53 47  2  0
 54 53  1  0
 54 49  2  0
 55 48  1  0
 56 46  1  0
 58 60  2  0
 59 58  1  0
 61 59  1  0
 62 71  2  0
 62 67  1  0
 63 59  1  0
 63 67  1  0
 64 63  1  0
 65 66  1  0
 65 64  1  0
 66 62  1  0
 67 68  2  0
 68 69  1  0
 70 69  2  0
 71 70  1  0
 72 46  1  0
 72 73  1  0
 72 82  1  0
 73 76  1  0
 74 78  1  0
 74 73  1  0
 75 74  2  0
 78 77  1  0
 80 81  1  0
 80 78  1  0
 80 79  1  0
 82 85  1  1
 82 83  1  0
 84 82  1  0
M  ISO  4   2 100  15 100  44 101  45 101
M  END
>  <TORSDO>  (93) 
F 17

>  <SCORE>  (93) 
-15.922

>  <name>  (93) 
93

>  <ligand_id>  (93) 
93

>  <original_smiles>  (93) 
[H]c1c([H])c([H])c2c(c1[H])C([H])([H])C([H])([H])C([H])([H])C2([H])N([H])C(=O)C1([H])N(C(=O)C([H])(N([H])C(=O)C([H])(N([H])C([H])([H])[H])C([H])([H])[H])C(C([H])([H])[H])(C([H])([H])[H])C([H])([H])[H])C([H])([H])c2c([H])c(OC([H])([H])C([H])([H])C3([H])C([H])([H])N(C(=O)N4C([H])([H])C([H])([H])C([H])([H])C([H])(n5nc(-c6c([H])c([H])c(Oc7c([H])c([H])c(F)c([H])c7F)c([H])c6[H])c(C(=O)N([H])[H])c5N([H])[H])C4([H])[H])C([H])([H])C([H])([H])C3([H])[H])c([H])c([H])c2C1([H])[H]

>  <smiles>  (93) 
[H]c1c([H])c([H])c2c(c1[H])C([H])([H])C([H])([H])C([H])([H])C2([H])N([H])C(=O)C1([H])N(C(=O)C([H])(N([H])C(=O)C([H])(N([H])C([H])([H])[H])C([H])([H])[H])C(C([H])([H])[H])(C([H])([H])[H])C([H])([H])[H])C([H])([H])c2c([H])c(OC([H])([H])C([H])([H])C3([H])C([H])([H])N(C(=O)N4C([H])([H])C([H])([H])C([H])([H])C([H])(n5nc(-c6c([H])c([H])c(Oc7c([H])c([H])c(F)c([H])c7F)c([H])c6[H])c(C(=O)N([H])[H])c5N([H])[H])C4([H])[H])C([H])([H])C([H])([H])C3([H])[H])c([H])c([H])c2C1([H])[H]

$$$$
94:0:0
     RDKit          3D

 91 99  0  0  1  0  0  0  0  0999 V2000
  -28.5350  -19.0700   20.8770 C   0  0  0  0  0  2  0  0  0  0  0  0
  -28.2100  -20.5360   20.3820 C   0  0  0  0  0  2  0  0  0  0  0  0
  -30.6390  -20.8520   20.6670 C   0  0  0  0  0  2  0  0  0  0  0  0
  -29.7440  -18.3900   20.1570 C   0  0  0  0  0  3  0  0  0  0  0  0
  -30.7580  -19.5400   19.8040 C   0  0  0  0  0  3  0  0  0  0  0  0
  -30.7580  -19.8540   18.2950 C   0  0  0  0  0  1  0  0  0  0  0  0
  -29.2970  -21.5260   20.6840 N   0  0  1  0  0  4  0  0  0  0  0  0
  -29.1810  -21.7640   21.6580 H   0  0  0  0  0  0  0  0  0  0  0  0
  -30.4150  -17.1460   20.9080 C   0  0  0  0  0  2  0  0  0  0  0  0
  -30.6420  -14.6540   20.3120 C   0  0  0  0  0  0  0  0  0  0  0  0
  -30.3740  -12.4570   19.1870 C   0  0  0  0  0  2  0  0  0  0  0  0
  -29.4160  -12.6160   17.9870 C   0  0  0  0  0  2  0  0  0  0  0  0
  -27.9480  -12.4620   18.4350 C   0  0  0  0  0  2  0  0  0  0  0  0
  -27.6130  -13.3050   19.6950 C   0  0  0  0  0  3  0  0  0  0  0  0
  -28.6850  -13.1270   20.7910 C   0  0  0  0  0  2  0  0  0  0  0  0
  -29.9830  -13.4620   20.1940 N   0  0  0  0  0  0  0  0  0  0  0  0
  -31.8150  -14.7720   19.9490 O   0  0  0  0  0  0  0  0  0  0  0  0
  -29.9030  -15.7510   20.6690 N   0  0  0  0  0  0  0  0  0  0  0  0
  -28.9300  -15.5780   20.8730 H   0  0  0  0  0  0  0  0  0  0  0  0
  -25.2260  -13.8920   20.4370 C   0  0  0  0  0  0  0  0  0  0  0  0
  -24.1670  -13.1150   20.8210 C   0  0  0  0  0  0  0  0  0  0  0  0
  -24.6360  -11.7660   20.7930 C   0  0  0  0  0  0  0  0  0  0  0  0
  -26.2720  -13.0170   20.1970 N   0  0  0  0  0  0  0  0  0  0  0  0
  -25.9250  -11.7330   20.4730 N   0  0  0  0  0  0  0  0  0  0  0  0
  -23.9190  -10.5010   20.9940 C   0  0  0  0  0  0  0  0  0  0  0  0
  -24.3610   -9.5410   21.9310 C   0  0  0  0  0  3  0  0  0  0  0  0
  -23.6430   -8.3410   22.1190 C   0  0  0  0  0  3  0  0  0  0  0  0
  -22.4690   -8.0910   21.3720 C   0  0  0  0  0  0  0  0  0  0  0  0
  -22.0450   -9.0400   20.4240 C   0  0  0  0  0  3  0  0  0  0  0  0
  -22.7640  -10.2320   20.2330 C   0  0  0  0  0  3  0  0  0  0  0  0
  -21.7220   -6.9430   21.4690 O   0  0  0  0  0  0  0  0  0  0  0  0
  -21.6820   -6.2060   22.6260 C   0  0  0  0  0  0  0  0  0  0  0  0
  -21.2500   -6.7640   23.8490 C   0  0  0  0  0  3  0  0  0  0  0  0
  -21.1580   -5.9530   24.9970 C   0  0  0  0  0  3  0  0  0  0  0  0
  -21.4880   -4.5860   24.9240 C   0  0  0  0  0  0  0  0  0  0  0  0
  -21.9140   -4.0290   23.7070 C   0  0  0  0  0  3  0  0  0  0  0  0
  -22.0080   -4.8370   22.5590 C   0  0  0  0  0  0  0  0  0  0  0  0
  -22.3990   -4.2900   21.3830 F   0  0  0  0  0  0  0  0  0  0  0  0
  -21.3920   -3.8060   26.0260 F   0  0  0  0  0  0  0  0  0  0  0  0
  -22.7700  -13.5870   21.0990 C   0  0  0  0  0  0  0  0  0  0  0  0
  -22.0500  -12.8910   21.9720 N   0  0  0  0  0  0  0  0  0  0  0  0
  -22.3250  -14.6080   20.5760 O   0  0  0  0  0  0  0  0  0  0  0  0
  -22.4240  -12.0660   22.4170 H   0  0  0  0  0  0  0  0  0  0  0  0
  -21.1120  -13.1900   22.1970 H   0  0  0  0  0  0  0  0  0  0  0  0
  -25.3810  -15.2630   20.2520 N   0  0  0  0  0  0  0  0  0  0  0  0
  -24.6070  -15.9080   20.3640 H   0  0  0  0  0  0  0  0  0  0  0  0
  -26.2150  -15.7040   19.8840 H   0  0  0  0  0  0  0  0  0  0  0  0
  -29.2670  -22.8780   19.9690 C   0  0  0  0  0  2  0  0  0  0  0  0
  -28.0830  -23.9050   20.2590 C   0  0  0  0  0  2  0  0  0  0  0  0
  -28.3850  -25.3050   20.9580 C   0  0  0  0  0  2  0  0  0  0  0  0
  -28.4080  -26.5750   20.2180 O   0  0  0  0  0  0  0  0  0  0  0  0
  -24.5830  -31.8930   23.2520 C   0  0  0  0  0  0  0  0  0  0  0  0
  -27.2650  -27.3720   20.2370 C   0  0  0  0  0  0  0  0  0  0  0  0
  -23.4050  -30.4760   21.6050 C   0  0  0  0  0  3  0  0  0  0  0  0
  -24.8810  -28.9290   20.2070 C   0  0  0  0  0  0  0  0  0  0  0  0
  -25.9380  -30.8270   21.4370 C   0  0  0  0  0  2  0  0  0  0  0  0
  -26.0380  -29.4470   20.8030 C   0  0  0  0  0  0  0  0  0  0  0  0
  -27.2380  -28.6800   20.8040 C   0  0  0  0  0  3  0  0  0  0  0  0
  -26.0870  -26.8880   19.6370 C   0  0  0  0  0  3  0  0  0  0  0  0
  -24.9040  -27.6530   19.6170 C   0  0  0  0  0  3  0  0  0  0  0  0
  -23.6360  -29.7910   20.2320 C   0  0  0  0  0  2  0  0  0  0  0  0
  -24.6610  -31.0840   22.1560 N   0  0  0  0  0  0  0  0  0  0  0  0
  -23.4920  -32.1610   23.7780 O   0  0  0  0  0  0  0  0  0  0  0  0
  -22.7420  -29.4600   22.5650 C   0  0  0  0  0  0  0  0  0  0  0  0
  -21.4190  -29.2770   22.4300 N   0  0  0  0  0  0  0  0  0  0  0  0
  -23.4190  -28.8370   23.3880 O   0  0  0  0  0  0  0  0  0  0  0  0
  -20.9350  -29.8310   21.7370 H   0  0  0  0  0  0  0  0  0  0  0  0
  -18.0390  -28.0820   22.9170 C   0  0  0  0  0  0  0  0  0  0  0  0
  -20.5960  -28.3380   23.1950 C   0  0  0  0  0  3  0  0  0  0  0  0
  -20.6990  -26.9090   22.6150 C   0  0  0  0  0  2  0  0  0  0  0  0
  -19.6000  -26.5900   21.5980 C   0  0  0  0  0  2  0  0  0  0  0  0
  -18.2170  -26.7340   22.2380 C   0  0  0  0  0  2  0  0  0  0  0  0
  -19.1560  -28.8430   23.3520 C   0  0  0  0  0  0  0  0  0  0  0  0
  -18.9370  -30.1030   23.9460 C   0  0  0  0  0  3  0  0  0  0  0  0
  -17.6320  -30.6050   24.1100 C   0  0  0  0  0  3  0  0  0  0  0  0
  -16.5280  -29.8410   23.6920 C   0  0  0  0  0  3  0  0  0  0  0  0
  -16.7330  -28.5820   23.1010 C   0  0  0  0  0  3  0  0  0  0  0  0
  -25.8550  -32.5370   23.8850 C   0  0  0  0  0  3  0  0  0  0  0  0
  -26.3540  -31.7850   25.1800 C   0  0  1  0  0  0  0  0  0  0  0  0
  -25.2460  -31.5590   26.2360 C   0  0  0  0  0  1  0  0  0  0  0  0
  -26.9430  -30.4030   24.8150 C   0  0  0  0  0  1  0  0  0  0  0  0
  -27.4930  -32.5910   25.8470 C   0  0  0  0  0  1  0  0  0  0  0  0
  -25.5390  -33.9390   24.1900 N   0  0  0  0  0  0  0  0  0  0  0  0
  -25.8840  -34.9830   23.4230 C   0  0  0  0  0  0  0  0  0  0  0  0
  -26.5700  -34.8650   22.4040 O   0  0  0  0  0  0  0  0  0  0  0  0
  -24.9320  -34.1050   24.9810 H   0  0  0  0  0  0  0  0  0  0  0  0
  -24.1630  -36.7710   23.0120 C   0  0  0  0  0  1  0  0  0  0  0  0
  -25.3880  -36.3770   23.8530 C   0  0  0  0  0  3  0  0  0  0  0  0
  -27.5050  -37.2720   24.7170 C   0  0  0  0  0  1  0  0  0  0  0  0
  -26.4230  -37.4280   23.7470 N   0  0  0  0  0  0  0  0  0  0  0  0
  -26.0140  -38.3490   23.8750 H   0  0  0  0  0  0  0  0  0  0  0  0
  2  7  1  0
  2  1  1  0
  3  7  1  0
  4  1  1  0
  4  9  1  0
  5  6  1  0
  5  4  1  0
  5  3  1  0
  7  8  1  1
 10 18  1  0
 11 16  1  0
 12 13  1  0
 12 11  1  0
 14 13  1  0
 14 23  1  0
 14 15  1  0
 16 10  1  0
 16 15  1  0
 17 10  2  0
 18 19  1  0
 18  9  1  0
 20 21  2  0
 21 40  1  0
 22 21  1  0
 22 25  1  0
 23 20  1  0
 23 24  1  0
 24 22  2  0
 25 26  1  0
 26 27  2  0
 28 31  1  0
 28 27  1  0
 29 28  2  0
 30 29  1  0
 30 25  2  0
 31 32  1  0
 32 33  1  0
 33 34  2  0
 35 34  1  0
 35 39  1  0
 36 35  2  0
 37 32  2  0
 37 36  1  0
 38 37  1  0
 40 41  1  0
 41 44  1  0
 41 43  1  0
 42 40  2  0
 45 46  1  0
 45 20  1  0
 47 45  1  0
 48 49  1  0
 48  7  1  0
 49 50  1  0
 51 53  1  0
 51 50  1  0
 52 63  2  0
 53 58  1  0
 54 62  1  0
 54 64  1  0
 55 61  1  0
 55 57  1  0
 56 62  1  0
 57 58  2  0
 57 56  1  0
 59 53  2  0
 60 59  1  0
 60 55  2  0
 61 54  1  0
 62 52  1  0
 64 66  2  0
 65 64  1  0
 67 65  1  0
 68 77  2  0
 68 73  1  0
 69 65  1  0
 69 73  1  0
 70 69  1  0
 71 72  1  0
 71 70  1  0
 72 68  1  0
 73 74  2  0
 74 75  1  0
 76 75  2  0
 77 76  1  0
 78 52  1  0
 78 83  1  0
 78 79  1  0
 79 82  1  1
 79 80  1  0
 81 79  1  0
 83 86  1  0
 84 88  1  0
 84 83  1  0
 85 84  2  0
 88 87  1  0
 90 88  1  0
 90 91  1  0
 90 89  1  0
M  ISO  4  10 100  18 100  50 101  51 101
M  END
>  <TORSDO>  (94) 
F 20

>  <SCORE>  (94) 
-13.638

>  <name>  (94) 
94

>  <ligand_id>  (94) 
94

>  <original_smiles>  (94) 
[H]c1c([H])c([H])c2c(c1[H])C([H])([H])C([H])([H])C([H])([H])C2([H])N([H])C(=O)C1([H])N(C(=O)C([H])(N([H])C(=O)C([H])(N([H])C([H])([H])[H])C([H])([H])[H])C(C([H])([H])[H])(C([H])([H])[H])C([H])([H])[H])C([H])([H])c2c([H])c(OC([H])([H])C([H])([H])C([H])([H])[N+]3([H])C([H])([H])C([H])([H])C([H])(C([H])([H])N([H])C(=O)N4C([H])([H])C([H])([H])C([H])([H])C([H])(n5nc(-c6c([H])c([H])c(Oc7c([H])c([H])c(F)c([H])c7F)c([H])c6[H])c(C(=O)N([H])[H])c5N([H])[H])C4([H])[H])C([H])(C([H])([H])[H])C3([H])[H])c([H])c([H])c2C1([H])[H]

>  <smiles>  (94) 
[H]c1c([H])c([H])c2c(c1[H])C([H])([H])C([H])([H])C([H])([H])C2([H])N([H])C(=O)C1([H])N(C(=O)C([H])(N([H])C(=O)C([H])(N([H])C([H])([H])[H])C([H])([H])[H])C(C([H])([H])[H])(C([H])([H])[H])C([H])([H])[H])C([H])([H])c2c([H])c(OC([H])([H])C([H])([H])C([H])([H])[N+]3([H])C([H])([H])C([H])([H])C([H])(C([H])([H])N([H])C(=O)N4C([H])([H])C([H])([H])C([H])([H])C([H])(n5nc(-c6c([H])c([H])c(Oc7c([H])c([H])c(F)c([H])c7F)c([H])c6[H])c(C(=O)N([H])[H])c5N([H])[H])C4([H])[H])C([H])(C([H])([H])[H])C3([H])[H])c([H])c([H])c2C1([H])[H]

$$$$
95:0:0
     RDKit          3D

 91 99  0  0  1  0  0  0  0  0999 V2000
  -30.8240  -18.9780   19.7000 C   0  0  0  0  0  2  0  0  0  0  0  0
  -30.6310  -20.5000   20.1630 C   0  0  0  0  0  2  0  0  0  0  0  0
  -28.6050  -19.9260   21.2700 C   0  0  0  0  0  2  0  0  0  0  0  0
  -30.1130  -17.8170   20.5190 C   0  0  0  0  0  3  0  0  0  0  0  0
  -28.6670  -18.4240   20.7690 C   0  0  0  0  0  3  0  0  0  0  0  0
  -27.6950  -18.2740   19.5800 C   0  0  0  0  0  1  0  0  0  0  0  0
  -29.2070  -20.9530   20.3490 N   0  0  1  0  0  4  0  0  0  0  0  0
  -28.7360  -20.8560   19.4620 H   0  0  0  0  0  0  0  0  0  0  0  0
  -28.9490  -22.4160   20.8260 C   0  0  0  0  0  2  0  0  0  0  0  0
  -28.6880  -23.6740   19.8200 C   0  0  0  0  0  3  0  0  0  0  0  0
  -28.1120  -25.0690   20.4480 C   0  0  0  0  0  3  0  0  0  0  0  0
  -28.1630  -26.4130   19.7700 O   0  0  0  0  0  0  0  0  0  0  0  0
  -24.5250  -31.7410   23.1420 C   0  0  0  0  0  0  0  0  0  0  0  0
  -27.0520  -27.2830   19.8440 C   0  0  0  0  0  0  0  0  0  0  0  0
  -23.2790  -30.4240   21.4650 C   0  0  0  0  0  3  0  0  0  0  0  0
  -24.6950  -28.9240   19.9430 C   0  0  0  0  0  0  0  0  0  0  0  0
  -25.8170  -30.7370   21.2390 C   0  0  0  0  0  2  0  0  0  0  0  0
  -25.8800  -29.3820   20.5340 C   0  0  0  0  0  0  0  0  0  0  0  0
  -27.0630  -28.5760   20.4680 C   0  0  0  0  0  3  0  0  0  0  0  0
  -25.8430  -26.8850   19.2360 C   0  0  0  0  0  3  0  0  0  0  0  0
  -24.6810  -27.6840   19.2820 C   0  0  0  0  0  3  0  0  0  0  0  0
  -23.4630  -29.8040   20.0530 C   0  0  0  0  0  2  0  0  0  0  0  0
  -24.5610  -30.9830   22.0060 N   0  0  0  0  0  0  0  0  0  0  0  0
  -23.4560  -31.9970   23.7140 O   0  0  0  0  0  0  0  0  0  0  0  0
  -22.6300  -29.3710   22.3950 C   0  0  0  0  0  0  0  0  0  0  0  0
  -21.3000  -29.2050   22.2890 N   0  0  0  0  0  0  0  0  0  0  0  0
  -23.3210  -28.7080   23.1730 O   0  0  0  0  0  0  0  0  0  0  0  0
  -20.7990  -29.7920   21.6360 H   0  0  0  0  0  0  0  0  0  0  0  0
  -17.9310  -27.9910   22.8040 C   0  0  0  0  0  0  0  0  0  0  0  0
  -20.4950  -28.2340   23.0320 C   0  0  0  0  0  3  0  0  0  0  0  0
  -20.5820  -26.8300   22.3880 C   0  0  0  0  0  2  0  0  0  0  0  0
  -19.4580  -26.5560   21.3840 C   0  0  0  0  0  2  0  0  0  0  0  0
  -18.0910  -26.6740   22.0630 C   0  0  0  0  0  2  0  0  0  0  0  0
  -19.0600  -28.7310   23.2460 C   0  0  0  0  0  0  0  0  0  0  0  0
  -18.8570  -29.9650   23.9000 C   0  0  0  0  0  3  0  0  0  0  0  0
  -17.5580  -30.4600   24.1140 C   0  0  0  0  0  3  0  0  0  0  0  0
  -16.4430  -29.7170   23.6900 C   0  0  0  0  0  3  0  0  0  0  0  0
  -16.6310  -28.4840   23.0410 C   0  0  0  0  0  3  0  0  0  0  0  0
  -25.8240  -32.3400   23.7660 C   0  0  0  0  0  3  0  0  0  0  0  0
  -25.5410  -33.7360   24.1310 N   0  0  0  0  0  0  0  0  0  0  0  0
  -25.8930  -34.8020   23.3990 C   0  0  0  0  0  0  0  0  0  0  0  0
  -26.5590  -34.7110   22.3640 O   0  0  0  0  0  0  0  0  0  0  0  0
  -24.9500  -33.8820   24.9370 H   0  0  0  0  0  0  0  0  0  0  0  0
  -24.2290  -36.6580   23.0660 C   0  0  0  0  0  1  0  0  0  0  0  0
  -25.4360  -36.1880   23.8930 C   0  0  0  0  0  3  0  0  0  0  0  0
  -27.5660  -36.9870   24.8170 C   0  0  0  0  0  1  0  0  0  0  0  0
  -26.5020  -37.2120   23.8440 N   0  0  0  0  0  0  0  0  0  0  0  0
  -26.1180  -38.1390   24.0030 H   0  0  0  0  0  0  0  0  0  0  0  0
  -26.3390  -31.5330   25.0210 C   0  0  1  0  0  0  0  0  0  0  0  0
  -25.2520  -31.2930   26.0940 C   0  0  0  0  0  1  0  0  0  0  0  0
  -26.8930  -30.1530   24.5960 C   0  0  0  0  0  1  0  0  0  0  0  0
  -27.5100  -32.2920   25.6880 C   0  0  0  0  0  1  0  0  0  0  0  0
  -30.1080  -16.2600   19.9320 C   0  0  0  0  0  3  0  0  0  0  0  0
  -30.9860  -14.9780   20.4380 C   0  0  0  0  0  0  0  0  0  0  0  0
  -30.9400  -12.5740   19.7600 C   0  0  0  0  0  2  0  0  0  0  0  0
  -30.0980  -12.4540   18.4670 C   0  0  0  0  0  2  0  0  0  0  0  0
  -28.5940  -12.3190   18.7880 C   0  0  0  0  0  2  0  0  0  0  0  0
  -28.1050  -13.3220   19.8670 C   0  0  0  0  0  3  0  0  0  0  0  0
  -29.0800  -13.4050   21.0590 C   0  0  0  0  0  2  0  0  0  0  0  0
  -30.4190  -13.7210   20.5400 N   0  0  0  0  0  0  0  0  0  0  0  0
  -32.2160  -15.0650   20.3950 O   0  0  0  0  0  0  0  0  0  0  0  0
  -25.6930  -13.9590   20.4590 C   0  0  0  0  0  0  0  0  0  0  0  0
  -24.5950  -13.2090   20.7680 C   0  0  0  0  0  0  0  0  0  0  0  0
  -25.0380  -11.8510   20.7810 C   0  0  0  0  0  0  0  0  0  0  0  0
  -26.7340  -13.0610   20.2900 N   0  0  0  0  0  0  0  0  0  0  0  0
  -26.3430  -11.7880   20.5510 N   0  0  0  0  0  0  0  0  0  0  0  0
  -24.2810  -10.6030   20.9370 C   0  0  0  0  0  0  0  0  0  0  0  0
  -24.6330   -9.6460   21.9150 C   0  0  0  0  0  3  0  0  0  0  0  0
  -23.8780   -8.4620   22.0590 C   0  0  0  0  0  3  0  0  0  0  0  0
  -22.7590   -8.2270   21.2230 C   0  0  0  0  0  0  0  0  0  0  0  0
  -22.4280   -9.1730   20.2360 C   0  0  0  0  0  3  0  0  0  0  0  0
  -23.1850  -10.3480   20.0900 C   0  0  0  0  0  3  0  0  0  0  0  0
  -21.9840   -7.0940   21.2750 O   0  0  0  0  0  0  0  0  0  0  0  0
  -21.8340   -6.3780   22.4350 C   0  0  0  0  0  0  0  0  0  0  0  0
  -21.2750   -6.9500   23.5980 C   0  0  0  0  0  3  0  0  0  0  0  0
  -21.0720   -6.1580   24.7450 C   0  0  0  0  0  3  0  0  0  0  0  0
  -21.4200   -4.7930   24.7290 C   0  0  0  0  0  0  0  0  0  0  0  0
  -21.9740   -4.2210   23.5700 C   0  0  0  0  0  3  0  0  0  0  0  0
  -22.1770   -5.0100   22.4250 C   0  0  0  0  0  0  0  0  0  0  0  0
  -22.6900   -4.4480   21.3040 F   0  0  0  0  0  0  0  0  0  0  0  0
  -21.2210   -4.0310   25.8290 F   0  0  0  0  0  0  0  0  0  0  0  0
  -23.1920  -13.7120   20.9480 C   0  0  0  0  0  0  0  0  0  0  0  0
  -22.4040  -13.0440   21.7820 N   0  0  0  0  0  0  0  0  0  0  0  0
  -22.8000  -14.7330   20.3830 O   0  0  0  0  0  0  0  0  0  0  0  0
  -22.7340  -12.2190   22.2610 H   0  0  0  0  0  0  0  0  0  0  0  0
  -21.4580  -13.3610   21.9450 H   0  0  0  0  0  0  0  0  0  0  0  0
  -25.8870  -15.3260   20.2810 N   0  0  0  0  0  0  0  0  0  0  0  0
  -25.1250  -15.9920   20.3470 H   0  0  0  0  0  0  0  0  0  0  0  0
  -26.7650  -15.7540   20.0220 H   0  0  0  0  0  0  0  0  0  0  0  0
  -31.5240  -16.3730   17.6850 C   0  0  0  0  0  1  0  0  0  0  0  0
  -30.1430  -16.2880   18.3670 C   0  0  0  0  0  2  0  0  0  0  0  0
  1  2  1  0
  1  4  1  0
  2  7  1  0
  4 53  1  0
  4  5  1  0
  5  6  1  0
  5  3  1  0
  7  9  1  0
  7  3  1  0
  7  8  1  6
 10 11  2  0
 10  9  1  0
 12 14  1  0
 12 11  1  0
 13 24  2  0
 14 19  1  0
 15 23  1  0
 15 25  1  0
 16 22  1  0
 16 18  1  0
 17 23  1  0
 18 17  1  0
 19 18  2  0
 20 21  1  0
 20 14  2  0
 21 16  2  0
 22 15  1  0
 23 13  1  0
 25 27  2  0
 26 25  1  0
 28 26  1  0
 29 38  2  0
 29 34  1  0
 30 26  1  0
 30 34  1  0
 31 30  1  0
 32 33  1  0
 32 31  1  0
 33 29  1  0
 34 35  2  0
 35 36  1  0
 37 36  2  0
 38 37  1  0
 39 13  1  0
 39 40  1  0
 39 49  1  0
 40 43  1  0
 41 45  1  0
 41 40  1  0
 42 41  2  0
 45 44  1  0
 47 45  1  0
 47 48  1  0
 47 46  1  0
 49 52  1  1
 49 50  1  0
 51 49  1  0
 53 91  1  0
 53 54  1  0
 54 60  1  0
 55 60  1  0
 56 57  1  0
 56 55  1  0
 58 57  1  0
 58 65  1  0
 58 59  1  0
 60 59  1  0
 61 54  2  0
 62 63  2  0
 63 64  1  0
 63 82  1  0
 64 67  1  0
 65 62  1  0
 65 66  1  0
 66 64  2  0
 67 68  1  0
 68 69  2  0
 70 73  1  0
 70 69  1  0
 71 70  2  0
 72 71  1  0
 72 67  2  0
 73 74  1  0
 74 75  1  0
 75 76  2  0
 77 76  1  0
 77 81  1  0
 78 77  2  0
 79 74  2  0
 79 78  1  0
 80 79  1  0
 82 83  1  0
 83 86  1  0
 83 85  1  0
 84 82  2  0
 87 88  1  0
 87 62  1  0
 89 87  1  0
 90 91  1  0
M  ISO  4  11 101  12 101  53 100  54 100
M  END
>  <TORSDO>  (95) 
F 21

>  <SCORE>  (95) 
-11.981

>  <name>  (95) 
95

>  <ligand_id>  (95) 
95

>  <original_smiles>  (95) 
[H]c1c([H])c([H])c2c(c1[H])C([H])([H])C([H])([H])C([H])([H])C2([H])N([H])C(=O)C1([H])N(C(=O)C([H])(N([H])C(=O)C([H])(N([H])C([H])([H])[H])C([H])([H])[H])C(C([H])([H])[H])(C([H])([H])[H])C([H])([H])[H])C([H])([H])c2c([H])c(OC([H])([H])C([H])([H])C([H])([H])[N+]3([H])C([H])([H])C([H])([H])C([H])(C([H])(C(=O)N4C([H])([H])C([H])([H])C([H])([H])C([H])(n5nc(-c6c([H])c([H])c(Oc7c([H])c([H])c(F)c([H])c7F)c([H])c6[H])c(C(=O)N([H])[H])c5N([H])[H])C4([H])[H])C([H])([H])C([H])([H])[H])C([H])(C([H])([H])[H])C3([H])[H])c([H])c([H])c2C1([H])[H]

>  <smiles>  (95) 
[H]c1c([H])c([H])c2c(c1[H])C([H])([H])C([H])([H])C([H])([H])C2([H])N([H])C(=O)C1([H])N(C(=O)C([H])(N([H])C(=O)C([H])(N([H])C([H])([H])[H])C([H])([H])[H])C(C([H])([H])[H])(C([H])([H])[H])C([H])([H])[H])C([H])([H])c2c([H])c(OC([H])([H])C([H])([H])C([H])([H])[N+]3([H])C([H])([H])C([H])([H])C([H])(C([H])(C(=O)N4C([H])([H])C([H])([H])C([H])([H])C([H])(n5nc(-c6c([H])c([H])c(Oc7c([H])c([H])c(F)c([H])c7F)c([H])c6[H])c(C(=O)N([H])[H])c5N([H])[H])C4([H])[H])C([H])([H])C([H])([H])[H])C([H])(C([H])([H])[H])C3([H])[H])c([H])c([H])c2C1([H])[H]

$$$$
96:0:0
     RDKit          3D

 89 97  0  0  1  0  0  0  0  0999 V2000
  -27.2450  -20.0570   20.7440 C   0  0  0  0  0  3  0  0  0  0  0  0
  -27.5780  -21.4160   20.5080 C   0  0  0  0  0  3  0  0  0  0  0  0
  -28.1270  -18.9780   20.4700 C   0  0  0  0  0  3  0  0  0  0  0  0
  -29.7240  -20.6340   19.7130 C   0  0  0  0  0  3  0  0  0  0  0  0
  -28.8270  -21.7990   19.9700 C   0  0  0  0  0  0  0  0  0  0  0  0
  -29.4230  -19.1900   19.9540 C   0  0  0  0  0  0  0  0  0  0  0  0
  -30.8300  -17.9870   18.1770 C   0  0  0  0  0  1  0  0  0  0  0  0
  -30.4090  -17.8870   19.6550 C   0  0  0  0  0  3  0  0  0  0  0  0
  -30.9160  -15.1770   19.8160 C   0  0  0  0  0  0  0  0  0  0  0  0
  -30.7920  -12.8020   18.9370 C   0  0  0  0  0  2  0  0  0  0  0  0
  -29.7780  -12.7140   17.7750 C   0  0  0  0  0  2  0  0  0  0  0  0
  -28.3550  -12.4770   18.3120 C   0  0  0  0  0  2  0  0  0  0  0  0
  -28.0110  -13.4130   19.5000 C   0  0  0  0  0  3  0  0  0  0  0  0
  -29.1410  -13.4710   20.5470 C   0  0  0  0  0  2  0  0  0  0  0  0
  -30.3500  -13.9030   19.8400 N   0  0  0  0  0  0  0  0  0  0  0  0
  -32.0960  -15.2480   19.4600 O   0  0  0  0  0  0  0  0  0  0  0  0
  -30.1210  -16.3560   19.9690 N   0  0  0  0  0  0  0  0  0  0  0  0
  -29.1780  -16.1660   20.2660 H   0  0  0  0  0  0  0  0  0  0  0  0
  -25.7210  -13.9610   20.4990 C   0  0  0  0  0  0  0  0  0  0  0  0
  -24.6860  -13.1720   20.9200 C   0  0  0  0  0  0  0  0  0  0  0  0
  -25.1280  -11.8220   20.7590 C   0  0  0  0  0  0  0  0  0  0  0  0
  -26.7240  -13.0930   20.1020 N   0  0  0  0  0  0  0  0  0  0  0  0
  -26.3840  -11.7960   20.3250 N   0  0  0  0  0  0  0  0  0  0  0  0
  -24.4060  -10.5560   20.9360 C   0  0  0  0  0  0  0  0  0  0  0  0
  -24.8250   -9.5910   21.8780 C   0  0  0  0  0  3  0  0  0  0  0  0
  -24.1040   -8.3890   22.0440 C   0  0  0  0  0  3  0  0  0  0  0  0
  -22.9490   -8.1420   21.2640 C   0  0  0  0  0  0  0  0  0  0  0  0
  -22.5490   -9.0950   20.3090 C   0  0  0  0  0  3  0  0  0  0  0  0
  -23.2710  -10.2890   20.1440 C   0  0  0  0  0  3  0  0  0  0  0  0
  -22.2000   -6.9930   21.3370 O   0  0  0  0  0  0  0  0  0  0  0  0
  -21.9980   -6.3390   22.5260 C   0  0  0  0  0  0  0  0  0  0  0  0
  -21.3690   -6.9670   23.6230 C   0  0  0  0  0  3  0  0  0  0  0  0
  -21.1170   -6.2360   24.8020 C   0  0  0  0  0  3  0  0  0  0  0  0
  -21.4880   -4.8800   24.8830 C   0  0  0  0  0  0  0  0  0  0  0  0
  -22.1100   -4.2520   23.7900 C   0  0  0  0  0  3  0  0  0  0  0  0
  -22.3610   -4.9800   22.6140 C   0  0  0  0  0  0  0  0  0  0  0  0
  -22.9420   -4.3640   21.5560 F   0  0  0  0  0  0  0  0  0  0  0  0
  -21.2390   -4.1780   26.0130 F   0  0  0  0  0  0  0  0  0  0  0  0
  -23.3250  -13.6410   21.3450 C   0  0  0  0  0  0  0  0  0  0  0  0
  -22.6710  -12.9000   22.2310 N   0  0  0  0  0  0  0  0  0  0  0  0
  -22.8540  -14.6970   20.9270 O   0  0  0  0  0  0  0  0  0  0  0  0
  -23.0670  -12.0460   22.5940 H   0  0  0  0  0  0  0  0  0  0  0  0
  -21.7590  -13.1940   22.5540 H   0  0  0  0  0  0  0  0  0  0  0  0
  -25.8850  -15.3400   20.3930 N   0  0  0  0  0  0  0  0  0  0  0  0
  -25.1340  -15.9880   20.6070 H   0  0  0  0  0  0  0  0  0  0  0  0
  -26.6730  -15.7830   19.9380 H   0  0  0  0  0  0  0  0  0  0  0  0
  -29.1530  -23.4170   19.7530 C   0  0  0  0  0  3  0  0  0  0  0  0
  -28.0710  -24.7220   19.8130 C   0  0  0  0  0  3  0  0  0  0  0  0
  -28.3780  -26.2660   19.7750 O   0  0  0  0  0  0  0  0  0  0  0  0
  -24.7250  -31.7710   23.0900 C   0  0  0  0  0  0  0  0  0  0  0  0
  -27.3280  -27.2610   19.7760 C   0  0  0  0  0  0  0  0  0  0  0  0
  -23.5340  -30.4660   21.3740 C   0  0  0  0  0  3  0  0  0  0  0  0
  -24.9940  -29.0000   19.8470 C   0  0  0  0  0  0  0  0  0  0  0  0
  -26.0890  -30.7620   21.2200 C   0  0  0  0  0  2  0  0  0  0  0  0
  -26.1720  -29.4140   20.4810 C   0  0  0  0  0  0  0  0  0  0  0  0
  -27.3440  -28.5640   20.4280 C   0  0  0  0  0  3  0  0  0  0  0  0
  -26.1250  -26.9640   19.1000 C   0  0  0  0  0  3  0  0  0  0  0  0
  -24.9850  -27.7930   19.1360 C   0  0  0  0  0  3  0  0  0  0  0  0
  -23.7560  -29.8790   19.9550 C   0  0  0  0  0  2  0  0  0  0  0  0
  -24.8030  -31.0200   21.9480 N   0  0  0  0  0  0  0  0  0  0  0  0
  -23.6380  -32.0060   23.6400 O   0  0  0  0  0  0  0  0  0  0  0  0
  -22.8760  -29.3910   22.2750 C   0  0  0  0  0  0  0  0  0  0  0  0
  -21.5490  -29.2080   22.1470 N   0  0  0  0  0  0  0  0  0  0  0  0
  -23.5620  -28.7210   23.0520 O   0  0  0  0  0  0  0  0  0  0  0  0
  -21.0500  -29.7950   21.4930 H   0  0  0  0  0  0  0  0  0  0  0  0
  -18.1790  -27.9740   22.6380 C   0  0  0  0  0  0  0  0  0  0  0  0
  -20.7450  -28.2160   22.8650 C   0  0  0  0  0  3  0  0  0  0  0  0
  -20.8330  -26.8300   22.1840 C   0  0  0  0  0  2  0  0  0  0  0  0
  -19.7080  -26.5820   21.1750 C   0  0  0  0  0  2  0  0  0  0  0  0
  -18.3410  -26.6800   21.8570 C   0  0  0  0  0  2  0  0  0  0  0  0
  -19.3080  -28.7040   23.0970 C   0  0  0  0  0  0  0  0  0  0  0  0
  -19.1020  -29.9180   23.7860 C   0  0  0  0  0  3  0  0  0  0  0  0
  -17.8010  -30.4020   24.0190 C   0  0  0  0  0  3  0  0  0  0  0  0
  -16.6870  -29.6680   23.5760 C   0  0  0  0  0  3  0  0  0  0  0  0
  -16.8780  -28.4550   22.8910 C   0  0  0  0  0  3  0  0  0  0  0  0
  -25.9990  -32.3860   23.7460 C   0  0  0  0  0  3  0  0  0  0  0  0
  -26.5020  -31.5730   25.0000 C   0  0  1  0  0  0  0  0  0  0  0  0
  -25.3970  -31.3000   26.0510 C   0  0  0  0  0  1  0  0  0  0  0  0
  -27.0910  -30.2110   24.5730 C   0  0  0  0  0  1  0  0  0  0  0  0
  -27.6480  -32.3440   25.6960 C   0  0  0  0  0  1  0  0  0  0  0  0
  -25.6780  -33.7710   24.1300 N   0  0  0  0  0  0  0  0  0  0  0  0
  -25.9790  -34.8550   23.4020 C   0  0  0  0  0  0  0  0  0  0  0  0
  -26.6190  -34.7970   22.3490 O   0  0  0  0  0  0  0  0  0  0  0  0
  -25.1070  -33.8870   24.9530 H   0  0  0  0  0  0  0  0  0  0  0  0
  -24.2140  -36.6340   23.1740 C   0  0  0  0  0  1  0  0  0  0  0  0
  -25.4920  -36.2230   23.9230 C   0  0  0  0  0  3  0  0  0  0  0  0
  -27.6400  -37.1220   24.7030 C   0  0  0  0  0  1  0  0  0  0  0  0
  -26.5060  -37.2950   23.8000 N   0  0  0  0  0  0  0  0  0  0  0  0
  -26.0900  -38.2040   23.9830 H   0  0  0  0  0  0  0  0  0  0  0  0
  2  1  1  0
  3  1  2  0
  4  6  2  0
  4  5  1  0
  5  2  2  0
  6  3  1  0
  8  7  1  0
  8  6  1  0
  8 17  1  0
  9 15  1  0
  9 17  1  0
 10 15  1  0
 11 12  1  0
 11 10  1  0
 13 12  1  0
 13 22  1  0
 13 14  1  0
 15 14  1  0
 16  9  2  0
 17 18  1  0
 19 20  2  0
 20 39  1  0
 21 20  1  0
 21 24  1  0
 22 23  1  0
 22 19  1  0
 23 21  2  0
 24 25  1  0
 25 26  2  0
 27 30  1  0
 27 26  1  0
 28 27  2  0
 29 28  1  0
 29 24  2  0
 30 31  1  0
 31 36  2  0
 31 32  1  0
 32 33  2  0
 33 34  1  0
 34 38  1  0
 35 34  2  0
 36 35  1  0
 37 36  1  0
 39 40  1  0
 40 43  1  0
 40 42  1  0
 41 39  2  0
 44 19  1  0
 44 45  1  0
 46 44  1  0
 47 48  2  0
 47  5  1  0
 49 51  1  0
 49 48  1  0
 50 61  2  0
 51 56  1  0
 52 60  1  0
 52 62  1  0
 53 59  1  0
 53 55  1  0
 54 60  1  0
 55 54  1  0
 56 55  2  0
 57 58  1  0
 57 51  2  0
 58 53  2  0
 59 52  1  0
 60 50  1  0
 62 64  2  0
 63 62  1  0
 65 63  1  0
 66 75  2  0
 66 71  1  0
 67 63  1  0
 67 71  1  0
 68 67  1  0
 69 70  1  0
 69 68  1  0
 70 66  1  0
 71 72  2  0
 72 73  1  0
 74 73  2  0
 75 74  1  0
 76 50  1  0
 76 81  1  0
 76 77  1  0
 77 80  1  1
 77 78  1  0
 79 77  1  0
 81 84  1  0
 82 86  1  0
 82 81  1  0
 83 82  2  0
 86 85  1  0
 88 86  1  0
 88 89  1  0
 88 87  1  0
M  ISO  4   9 100  17 100  48 101  49 101
M  END
>  <TORSDO>  (96) 
F 19

>  <SCORE>  (96) 
-12.751

>  <name>  (96) 
96

>  <ligand_id>  (96) 
96

>  <original_smiles>  (96) 
[H]c1c([H])c([H])c2c(c1[H])C([H])([H])C([H])([H])C([H])([H])C2([H])N([H])C(=O)C1([H])N(C(=O)C([H])(N([H])C(=O)C([H])(N([H])C([H])([H])[H])C([H])([H])[H])C(C([H])([H])[H])(C([H])([H])[H])C([H])([H])[H])C([H])([H])c2c([H])c(OC([H])([H])C([H])([H])c3c([H])c([H])c([H])c(C([H])(N([H])C(=O)N4C([H])([H])C([H])([H])C([H])([H])C([H])(n5nc(-c6c([H])c([H])c(Oc7c([H])c([H])c(F)c([H])c7F)c([H])c6[H])c(C(=O)N([H])[H])c5N([H])[H])C4([H])[H])C([H])([H])[H])c3[H])c([H])c([H])c2C1([H])[H]

>  <smiles>  (96) 
[H]c1c([H])c([H])c2c(c1[H])C([H])([H])C([H])([H])C([H])([H])C2([H])N([H])C(=O)C1([H])N(C(=O)C([H])(N([H])C(=O)C([H])(N([H])C([H])([H])[H])C([H])([H])[H])C(C([H])([H])[H])(C([H])([H])[H])C([H])([H])[H])C([H])([H])c2c([H])c(OC([H])([H])C([H])([H])c3c([H])c([H])c([H])c(C([H])(N([H])C(=O)N4C([H])([H])C([H])([H])C([H])([H])C([H])(n5nc(-c6c([H])c([H])c(Oc7c([H])c([H])c(F)c([H])c7F)c([H])c6[H])c(C(=O)N([H])[H])c5N([H])[H])C4([H])[H])C([H])([H])[H])c3[H])c([H])c([H])c2C1([H])[H]

$$$$
