0:0:0
     RDKit          3D

 87 95  0  0  1  0  0  0  0  0999 V2000
  -28.6930  -22.5750   21.2720 C   0  0  0  0  0  2  0  0  0  0  0  0
  -29.5090  -22.7410   19.3400 C   0  0  0  0  0  2  0  0  0  0  0  0
  -28.9680  -21.5170   20.1540 C   0  0  0  0  0  3  0  0  0  0  0  0
  -29.0620  -23.8190   20.3830 C   0  0  0  0  0  3  0  0  0  0  0  0
  -29.9190  -20.2840   20.4230 C   0  0  0  0  0  0  0  0  0  0  0  0
  -31.1430  -20.3960   20.5330 O   0  0  0  0  0  0  0  0  0  0  0  0
  -29.3260  -18.8110   20.5310 C   0  0  0  0  0  3  0  0  0  0  0  0
  -30.3170  -17.5330   20.5020 C   0  0  0  0  0  3  0  0  0  0  0  0
  -29.7390  -16.0590   20.8130 C   0  0  0  0  0  2  0  0  0  0  0  0
  -30.5610  -14.7420   20.4240 C   0  0  0  0  0  0  0  0  0  0  0  0
  -30.3560  -12.4910   19.3570 C   0  0  0  0  0  2  0  0  0  0  0  0
  -29.4130  -12.6160   18.1380 C   0  0  0  0  0  2  0  0  0  0  0  0
  -27.9410  -12.4500   18.5610 C   0  0  0  0  0  2  0  0  0  0  0  0
  -27.5770  -13.3160   19.7940 C   0  0  0  0  0  3  0  0  0  0  0  0
  -28.6340  -13.1810   20.9120 C   0  0  0  0  0  2  0  0  0  0  0  0
  -29.9470  -13.5130   20.3430 N   0  0  0  0  0  0  0  0  0  0  0  0
  -31.7320  -14.8670   20.0520 O   0  0  0  0  0  0  0  0  0  0  0  0
  -25.1900  -13.9250   20.5200 C   0  0  0  0  0  0  0  0  0  0  0  0
  -24.1190  -13.1580   20.8850 C   0  0  0  0  0  0  0  0  0  0  0  0
  -24.5740  -11.8030   20.8530 C   0  0  0  0  0  0  0  0  0  0  0  0
  -26.2290  -13.0390   20.2810 N   0  0  0  0  0  0  0  0  0  0  0  0
  -25.8640  -11.7580   20.5450 N   0  0  0  0  0  0  0  0  0  0  0  0
  -23.8400  -10.5460   21.0390 C   0  0  0  0  0  0  0  0  0  0  0  0
  -24.2660   -9.5730   21.9700 C   0  0  0  0  0  3  0  0  0  0  0  0
  -23.5340   -8.3790   22.1440 C   0  0  0  0  0  3  0  0  0  0  0  0
  -22.3610   -8.1490   21.3850 C   0  0  0  0  0  0  0  0  0  0  0  0
  -21.9550   -9.1100   20.4430 C   0  0  0  0  0  3  0  0  0  0  0  0
  -22.6870  -10.2960   20.2680 C   0  0  0  0  0  3  0  0  0  0  0  0
  -21.5990   -7.0080   21.4680 O   0  0  0  0  0  0  0  0  0  0  0  0
  -21.5430   -6.2640   22.6180 C   0  0  0  0  0  0  0  0  0  0  0  0
  -21.1110   -6.8160   23.8440 C   0  0  0  0  0  3  0  0  0  0  0  0
  -21.0020   -5.9970   24.9860 C   0  0  0  0  0  3  0  0  0  0  0  0
  -21.3160   -4.6260   24.9020 C   0  0  0  0  0  0  0  0  0  0  0  0
  -21.7400   -4.0740   23.6810 C   0  0  0  0  0  3  0  0  0  0  0  0
  -21.8510   -4.8890   22.5420 C   0  0  0  0  0  0  0  0  0  0  0  0
  -22.2410   -4.3480   21.3640 F   0  0  0  0  0  0  0  0  0  0  0  0
  -21.2030   -3.8380   25.9970 F   0  0  0  0  0  0  0  0  0  0  0  0
  -22.7230  -13.6430   21.1550 C   0  0  0  0  0  0  0  0  0  0  0  0
  -21.9900  -12.9480   22.0180 N   0  0  0  0  0  0  0  0  0  0  0  0
  -22.2920  -14.6700   20.6340 O   0  0  0  0  0  0  0  0  0  0  0  0
  -22.3510  -12.1160   22.4590 H   0  0  0  0  0  0  0  0  0  0  0  0
  -21.0530  -13.2550   22.2410 H   0  0  0  0  0  0  0  0  0  0  0  0
  -25.3640  -15.2960   20.3500 N   0  0  0  0  0  0  0  0  0  0  0  0
  -24.6070  -15.9590   20.4710 H   0  0  0  0  0  0  0  0  0  0  0  0
  -26.2260  -15.7310   20.0460 H   0  0  0  0  0  0  0  0  0  0  0  0
  -28.0160  -24.9740   20.0160 C   0  0  0  0  0  2  0  0  0  0  0  0
  -28.2830  -26.4310   20.2410 O   0  0  0  0  0  0  0  0  0  0  0  0
  -24.6200  -31.9190   23.2440 C   0  0  0  0  0  0  0  0  0  0  0  0
  -27.1880  -27.3220   20.1780 C   0  0  0  0  0  0  0  0  0  0  0  0
  -23.4030  -30.5280   21.6100 C   0  0  0  0  0  3  0  0  0  0  0  0
  -24.8390  -28.9720   20.1760 C   0  0  0  0  0  0  0  0  0  0  0  0
  -25.9480  -30.8240   21.4210 C   0  0  0  0  0  2  0  0  0  0  0  0
  -26.0160  -29.4450   20.7700 C   0  0  0  0  0  0  0  0  0  0  0  0
  -27.1920  -28.6310   20.7630 C   0  0  0  0  0  3  0  0  0  0  0  0
  -25.9860  -26.9210   19.5470 C   0  0  0  0  0  3  0  0  0  0  0  0
  -24.8280  -27.7180   19.5530 C   0  0  0  0  0  3  0  0  0  0  0  0
  -23.6080  -29.8560   20.2280 C   0  0  0  0  0  2  0  0  0  0  0  0
  -24.6760  -31.1080   22.1480 N   0  0  0  0  0  0  0  0  0  0  0  0
  -23.5390  -32.2020   23.7820 O   0  0  0  0  0  0  0  0  0  0  0  0
  -22.7390  -29.5130   22.5720 C   0  0  0  0  0  0  0  0  0  0  0  0
  -21.4110  -29.3420   22.4500 N   0  0  0  0  0  0  0  0  0  0  0  0
  -23.4160  -28.8830   23.3880 O   0  0  0  0  0  0  0  0  0  0  0  0
  -20.9220  -29.9030   21.7650 H   0  0  0  0  0  0  0  0  0  0  0  0
  -18.0280  -28.1650   22.9630 C   0  0  0  0  0  0  0  0  0  0  0  0
  -20.5890  -28.4110   23.2240 C   0  0  0  0  0  3  0  0  0  0  0  0
  -20.6810  -26.9780   22.6500 C   0  0  0  0  0  2  0  0  0  0  0  0
  -19.5730  -26.6590   21.6410 C   0  0  0  0  0  2  0  0  0  0  0  0
  -18.1950  -26.8130   22.2890 C   0  0  0  0  0  2  0  0  0  0  0  0
  -19.1520  -28.9210   23.3880 C   0  0  0  0  0  0  0  0  0  0  0  0
  -18.9420  -30.1860   23.9790 C   0  0  0  0  0  3  0  0  0  0  0  0
  -17.6400  -30.6940   24.1490 C   0  0  0  0  0  3  0  0  0  0  0  0
  -16.5310  -29.9340   23.7390 C   0  0  0  0  0  3  0  0  0  0  0  0
  -16.7250  -28.6710   23.1520 C   0  0  0  0  0  3  0  0  0  0  0  0
  -25.9070  -32.5460   23.8610 C   0  0  0  0  0  3  0  0  0  0  0  0
  -25.6030  -33.9440   24.1970 N   0  0  0  0  0  0  0  0  0  0  0  0
  -25.9180  -34.9980   23.4330 C   0  0  0  0  0  0  0  0  0  0  0  0
  -26.5660  -34.8940   22.3880 O   0  0  0  0  0  0  0  0  0  0  0  0
  -25.0240  -34.0970   25.0100 H   0  0  0  0  0  0  0  0  0  0  0  0
  -24.1760  -36.7860   23.1260 C   0  0  0  0  0  1  0  0  0  0  0  0
  -25.4420  -36.3860   23.9010 C   0  0  0  0  0  3  0  0  0  0  0  0
  -27.5950  -37.2810   24.6690 C   0  0  0  0  0  1  0  0  0  0  0  0
  -26.4680  -37.4410   23.7550 N   0  0  0  0  0  0  0  0  0  0  0  0
  -26.0640  -38.3600   23.9060 H   0  0  0  0  0  0  0  0  0  0  0  0
  -26.4270  -31.7690   25.1340 C   0  0  1  0  0  0  0  0  0  0  0  0
  -25.3360  -31.5320   26.2040 C   0  0  0  0  0  1  0  0  0  0  0  0
  -27.0020  -30.3890   24.7380 C   0  0  0  0  0  1  0  0  0  0  0  0
  -27.5820  -32.5570   25.7930 C   0  0  0  0  0  1  0  0  0  0  0  0
  2  3  1  0
  2  4  1  0
  3  5  1  0
  3  1  1  0
  4 46  1  0
  4  1  1  0
  5  7  1  0
  5  6  2  0
  8  7  2  0
  8  9  1  0
 10  9  1  0
 11 16  1  0
 12 13  1  0
 12 11  1  0
 14 13  1  0
 14 21  1  0
 14 15  1  0
 16 10  1  0
 16 15  1  0
 17 10  2  0
 18 19  2  0
 19 38  1  0
 20 19  1  0
 20 23  1  0
 21 18  1  0
 21 22  1  0
 22 20  2  0
 23 24  1  0
 24 25  2  0
 26 29  1  0
 26 25  1  0
 27 26  2  0
 28 27  1  0
 28 23  2  0
 29 30  1  0
 30 31  1  0
 31 32  2  0
 33 32  1  0
 33 37  1  0
 34 33  2  0
 35 30  2  0
 35 34  1  0
 36 35  1  0
 38 39  1  0
 39 42  1  0
 39 41  1  0
 40 38  2  0
 43 44  1  0
 43 18  1  0
 45 43  1  0
 46 47  1  0
 48 59  2  0
 49 47  1  0
 49 54  1  0
 50 58  1  0
 50 60  1  0
 51 57  1  0
 51 53  1  0
 52 58  1  0
 53 52  1  0
 54 53  2  0
 55 56  1  0
 55 49  2  0
 56 51  2  0
 57 50  1  0
 58 48  1  0
 60 62  2  0
 61 60  1  0
 63 61  1  0
 64 73  2  0
 64 69  1  0
 65 61  1  0
 65 69  1  0
 66 65  1  0
 67 68  1  0
 67 66  1  0
 68 64  1  0
 69 70  2  0
 70 71  1  0
 72 71  2  0
 73 72  1  0
 74 48  1  0
 74 75  1  0
 74 84  1  0
 75 78  1  0
 76 80  1  0
 76 75  1  0
 77 76  2  0
 80 79  1  0
 82 80  1  0
 82 83  1  0
 82 81  1  0
 84 87  1  1
 84 85  1  0
 86 84  1  0
M  ISO  4   9 100  10 100  46 101  47 101
M  END
>  <TORSDO>  (1) 
F 21

>  <SCORE>  (1) 
-13.385

>  <name>  (1) 
0

>  <ligand_id>  (1) 
0

>  <original_smiles>  (1) 
[H]c1c([H])c([H])c2c(c1[H])C([H])([H])C([H])([H])C([H])([H])C2([H])N([H])C(=O)C1([H])N(C(=O)C([H])(N([H])C(=O)C([H])(N([H])C([H])([H])[H])C([H])([H])[H])C(C([H])([H])[H])(C([H])([H])[H])C([H])([H])[H])C([H])([H])c2c([H])c(OC([H])([H])C3([H])C([H])([H])C([H])(C(=O)C([H])([H])C([H])([H])C([H])([H])C(=O)N4C([H])([H])C([H])([H])C([H])([H])C([H])(n5nc(-c6c([H])c([H])c(Oc7c([H])c([H])c(F)c([H])c7F)c([H])c6[H])c(C(=O)N([H])[H])c5N([H])[H])C4([H])[H])C3([H])[H])c([H])c([H])c2C1([H])[H]

>  <smiles>  (1) 
[H]c1c([H])c([H])c2c(c1[H])C([H])([H])C([H])([H])C([H])([H])C2([H])N([H])C(=O)C1([H])N(C(=O)C([H])(N([H])C(=O)C([H])(N([H])C([H])([H])[H])C([H])([H])[H])C(C([H])([H])[H])(C([H])([H])[H])C([H])([H])[H])C([H])([H])c2c([H])c(OC([H])([H])C3([H])C([H])([H])C([H])(C(=O)C([H])([H])C([H])([H])C([H])([H])C(=O)N4C([H])([H])C([H])([H])C([H])([H])C([H])(n5nc(-c6c([H])c([H])c(Oc7c([H])c([H])c(F)c([H])c7F)c([H])c6[H])c(C(=O)N([H])[H])c5N([H])[H])C4([H])[H])C3([H])[H])c([H])c([H])c2C1([H])[H]

$$$$
1:0:0
     RDKit          3D

 86 95  0  0  1  0  0  0  0  0999 V2000
  -29.8180  -21.4330   19.9260 C   0  0  0  0  0  3  0  0  0  0  0  0
  -28.1310  -20.9750   20.8230 C   0  0  0  0  0  3  0  0  0  0  0  0
  -29.0850  -19.9300   19.9670 C   0  0  0  0  0  3  0  0  0  0  0  0
  -28.4950  -22.4350   20.0740 C   0  0  0  0  0  3  0  0  0  0  0  0
  -29.5690  -16.8820   20.1240 C   0  0  0  0  0  3  0  0  0  0  0  0
  -29.8390  -18.3440   20.3200 C   0  0  0  0  0  0  0  0  0  0  0  0
  -30.4010  -15.4460   20.2090 C   0  0  0  0  0  0  0  0  0  0  0  0
  -30.4200  -12.9580   19.3780 C   0  0  0  0  0  2  0  0  0  0  0  0
  -29.5140  -12.6840   18.1490 C   0  0  0  0  0  2  0  0  0  0  0  0
  -28.0700  -12.3860   18.5880 C   0  0  0  0  0  2  0  0  0  0  0  0
  -27.5910  -13.3680   19.6840 C   0  0  0  0  0  3  0  0  0  0  0  0
  -28.6280  -13.5880   20.8020 C   0  0  0  0  0  2  0  0  0  0  0  0
  -29.8490  -14.1200   20.1690 N   0  0  0  0  0  0  0  0  0  0  0  0
  -31.6340  -15.3850   20.0680 O   0  0  0  0  0  0  0  0  0  0  0  0
  -25.2240  -13.9040   20.4490 C   0  0  0  0  0  0  0  0  0  0  0  0
  -24.1690  -13.1200   20.8200 C   0  0  0  0  0  0  0  0  0  0  0  0
  -24.6470  -11.7730   20.7970 C   0  0  0  0  0  0  0  0  0  0  0  0
  -26.2720  -13.0360   20.2040 N   0  0  0  0  0  0  0  0  0  0  0  0
  -25.9400  -11.7480   20.4860 N   0  0  0  0  0  0  0  0  0  0  0  0
  -23.9280  -10.5070   20.9930 C   0  0  0  0  0  0  0  0  0  0  0  0
  -24.3560   -9.5500   21.9390 C   0  0  0  0  0  3  0  0  0  0  0  0
  -23.6340   -8.3510   22.1230 C   0  0  0  0  0  3  0  0  0  0  0  0
  -22.4680   -8.1010   21.3610 C   0  0  0  0  0  0  0  0  0  0  0  0
  -22.0590   -9.0450   20.4030 C   0  0  0  0  0  3  0  0  0  0  0  0
  -22.7820  -10.2350   20.2180 C   0  0  0  0  0  3  0  0  0  0  0  0
  -21.7180   -6.9530   21.4530 O   0  0  0  0  0  0  0  0  0  0  0  0
  -21.6580   -6.2230   22.6140 C   0  0  0  0  0  0  0  0  0  0  0  0
  -21.2040   -6.7880   23.8260 C   0  0  0  0  0  3  0  0  0  0  0  0
  -21.0920   -5.9840   24.9780 C   0  0  0  0  0  3  0  0  0  0  0  0
  -21.4240   -4.6180   24.9190 C   0  0  0  0  0  0  0  0  0  0  0  0
  -21.8710   -4.0530   23.7120 C   0  0  0  0  0  3  0  0  0  0  0  0
  -21.9840   -4.8530   22.5620 C   0  0  0  0  0  0  0  0  0  0  0  0
  -22.3950   -4.2990   21.3960 F   0  0  0  0  0  0  0  0  0  0  0  0
  -21.3090   -3.8440   26.0240 F   0  0  0  0  0  0  0  0  0  0  0  0
  -22.7680  -13.5880   21.0810 C   0  0  0  0  0  0  0  0  0  0  0  0
  -22.0390  -12.8930   21.9470 N   0  0  0  0  0  0  0  0  0  0  0  0
  -22.3270  -14.6080   20.5510 O   0  0  0  0  0  0  0  0  0  0  0  0
  -22.4090  -12.0690   22.3970 H   0  0  0  0  0  0  0  0  0  0  0  0
  -21.0980  -13.1900   22.1640 H   0  0  0  0  0  0  0  0  0  0  0  0
  -25.3760  -15.2760   20.2670 N   0  0  0  0  0  0  0  0  0  0  0  0
  -24.6060  -15.9250   20.3860 H   0  0  0  0  0  0  0  0  0  0  0  0
  -26.2250  -15.7230   19.9460 H   0  0  0  0  0  0  0  0  0  0  0  0
  -31.0340  -18.6700   20.8250 O   0  0  0  0  0  0  0  0  0  0  0  0
  -31.0870  -19.6180   20.8340 H   0  0  0  0  0  0  0  0  0  0  0  0
  -28.1330  -24.1720   20.6390 C   0  0  0  0  0  2  0  0  0  0  0  0
  -28.2490  -25.8020   20.2230 O   0  0  0  0  0  0  0  0  0  0  0  0
  -24.6430  -31.8660   23.1880 C   0  0  0  0  0  0  0  0  0  0  0  0
  -27.2250  -26.9130   20.2430 C   0  0  0  0  0  0  0  0  0  0  0  0
  -23.4650  -30.4510   21.5570 C   0  0  0  0  0  3  0  0  0  0  0  0
  -24.9260  -28.8250   20.1640 C   0  0  0  0  0  0  0  0  0  0  0  0
  -26.0350  -30.6540   21.4250 C   0  0  0  0  0  2  0  0  0  0  0  0
  -26.1130  -29.2300   20.7850 C   0  0  0  0  0  0  0  0  0  0  0  0
  -27.2580  -28.3000   20.7910 C   0  0  0  0  0  3  0  0  0  0  0  0
  -26.0010  -26.6720   19.5800 C   0  0  0  0  0  3  0  0  0  0  0  0
  -24.8980  -27.5670   19.5390 C   0  0  0  0  0  3  0  0  0  0  0  0
  -23.7070  -29.7510   20.1900 C   0  0  0  0  0  2  0  0  0  0  0  0
  -24.7370  -31.0190   22.1090 N   0  0  0  0  0  0  0  0  0  0  0  0
  -23.5490  -32.1570   23.6990 O   0  0  0  0  0  0  0  0  0  0  0  0
  -22.7650  -29.4650   22.5290 C   0  0  0  0  0  0  0  0  0  0  0  0
  -21.4330  -29.3020   22.4050 N   0  0  0  0  0  0  0  0  0  0  0  0
  -23.4270  -28.8440   23.3640 O   0  0  0  0  0  0  0  0  0  0  0  0
  -20.9510  -29.8540   21.7080 H   0  0  0  0  0  0  0  0  0  0  0  0
  -18.0500  -28.0950   22.9220 C   0  0  0  0  0  0  0  0  0  0  0  0
  -20.6090  -28.3680   23.1810 C   0  0  0  0  0  3  0  0  0  0  0  0
  -20.7120  -26.9330   22.6130 C   0  0  0  0  0  2  0  0  0  0  0  0
  -19.6100  -26.6040   21.6020 C   0  0  0  0  0  2  0  0  0  0  0  0
  -18.2290  -26.7450   22.2470 C   0  0  0  0  0  2  0  0  0  0  0  0
  -19.1670  -28.8640   23.3460 C   0  0  0  0  0  0  0  0  0  0  0  0
  -18.9420  -30.1240   23.9420 C   0  0  0  0  0  3  0  0  0  0  0  0
  -17.6350  -30.6160   24.1150 C   0  0  0  0  0  3  0  0  0  0  0  0
  -16.5330  -29.8470   23.7050 C   0  0  0  0  0  3  0  0  0  0  0  0
  -16.7410  -28.5870   23.1160 C   0  0  0  0  0  3  0  0  0  0  0  0
  -25.9050  -32.5220   23.8250 C   0  0  0  0  0  3  0  0  0  0  0  0
  -26.4050  -31.7710   25.1210 C   0  0  1  0  0  0  0  0  0  0  0  0
  -25.2980  -31.5470   26.1790 C   0  0  0  0  0  1  0  0  0  0  0  0
  -26.9970  -30.3880   24.7670 C   0  0  0  0  0  1  0  0  0  0  0  0
  -27.5450  -32.5780   25.7870 C   0  0  0  0  0  1  0  0  0  0  0  0
  -25.5770  -33.9220   24.1490 N   0  0  0  0  0  0  0  0  0  0  0  0
  -25.9100  -34.9830   23.4000 C   0  0  0  0  0  0  0  0  0  0  0  0
  -26.5860  -34.8860   22.3740 O   0  0  0  0  0  0  0  0  0  0  0  0
  -24.9750  -34.0700   24.9450 H   0  0  0  0  0  0  0  0  0  0  0  0
  -24.1790  -36.7800   23.0490 C   0  0  0  0  0  1  0  0  0  0  0  0
  -25.4190  -36.3710   23.8620 C   0  0  0  0  0  3  0  0  0  0  0  0
  -27.5450  -37.2640   24.7090 C   0  0  0  0  0  1  0  0  0  0  0  0
  -26.4490  -37.4280   23.7580 N   0  0  0  0  0  0  0  0  0  0  0  0
  -26.0390  -38.3470   23.9010 H   0  0  0  0  0  0  0  0  0  0  0  0
  1  3  1  0
  1  4  1  0
  1  2  1  0
  3  6  1  0
  3  2  1  0
  4 45  1  0
  4  2  1  0
  5  7  1  0
  5  6  2  0
  6 43  1  0
  8 13  1  0
  9 10  1  0
  9  8  1  0
 10 11  1  0
 11 18  1  0
 11 12  1  0
 13  7  1  0
 13 12  1  0
 14  7  2  0
 15 16  2  0
 16 35  1  0
 17 16  1  0
 17 20  1  0
 18 15  1  0
 18 19  1  0
 19 17  2  0
 20 21  1  0
 21 22  2  0
 23 26  1  0
 23 22  1  0
 24 23  2  0
 25 24  1  0
 25 20  2  0
 26 27  1  0
 27 28  1  0
 28 29  2  0
 30 29  1  0
 30 34  1  0
 31 30  2  0
 32 27  2  0
 32 31  1  0
 33 32  1  0
 35 36  1  0
 36 39  1  0
 36 38  1  0
 37 35  2  0
 40 41  1  0
 40 15  1  0
 42 40  1  0
 43 44  1  0
 46 48  1  0
 46 45  1  0
 47 58  2  0
 47 73  1  0
 48 53  1  0
 49 57  1  0
 49 59  1  0
 50 56  1  0
 50 52  1  0
 51 57  1  0
 52 53  2  0
 52 51  1  0
 54 48  2  0
 55 54  1  0
 55 50  2  0
 56 49  1  0
 57 47  1  0
 59 61  2  0
 60 59  1  0
 60 64  1  0
 62 60  1  0
 63 72  2  0
 63 68  1  0
 64 68  1  0
 65 64  1  0
 66 67  1  0
 66 65  1  0
 67 63  1  0
 68 69  2  0
 69 70  1  0
 71 70  2  0
 72 71  1  0
 73 78  1  0
 73 74  1  0
 74 77  1  1
 74 75  1  0
 76 74  1  0
 78 81  1  0
 79 83  1  0
 79 78  1  0
 80 79  2  0
 82 83  1  0
 85 83  1  0
 85 86  1  0
 85 84  1  0
M  ISO  4   5 100   7 100  45 101  46 101
M  END
>  <TORSDO>  (2) 
F 19

>  <SCORE>  (2) 
-15.742

>  <name>  (2) 
1

>  <ligand_id>  (2) 
1

>  <original_smiles>  (2) 
[H]OC(=C([H])C(=O)N1C([H])([H])C([H])([H])C([H])([H])C([H])(n2nc(-c3c([H])c([H])c(Oc4c([H])c([H])c(F)c([H])c4F)c([H])c3[H])c(C(=O)N([H])[H])c2N([H])[H])C1([H])[H])C1([H])C([H])([H])C([H])(C([H])([H])Oc2c([H])c([H])c3c(c2[H])C([H])([H])N(C(=O)C([H])(N([H])C(=O)C([H])(N([H])C([H])([H])[H])C([H])([H])[H])C(C([H])([H])[H])(C([H])([H])[H])C([H])([H])[H])C([H])(C(=O)N([H])C2([H])c4c([H])c([H])c([H])c([H])c4C([H])([H])C([H])([H])C2([H])[H])C3([H])[H])C1([H])[H]

>  <smiles>  (2) 
[H]OC(=C([H])C(=O)N1C([H])([H])C([H])([H])C([H])([H])C([H])(n2nc(-c3c([H])c([H])c(Oc4c([H])c([H])c(F)c([H])c4F)c([H])c3[H])c(C(=O)N([H])[H])c2N([H])[H])C1([H])[H])C1([H])C([H])([H])C([H])(C([H])([H])Oc2c([H])c([H])c3c(c2[H])C([H])([H])N(C(=O)C([H])(N([H])C(=O)C([H])(N([H])C([H])([H])[H])C([H])([H])[H])C(C([H])([H])[H])(C([H])([H])[H])C([H])([H])[H])C([H])(C(=O)N([H])C2([H])c4c([H])c([H])c([H])c([H])c4C([H])([H])C([H])([H])C2([H])[H])C3([H])[H])C1([H])[H]

$$$$
2:0:0
     RDKit          3D

 88 96  0  0  1  0  0  0  0  0999 V2000
  -28.7870  -22.1220   20.5560 C   0  0  0  0  0  3  0  0  0  0  0  0
  -30.0170  -23.9570   19.1930 C   0  0  0  0  0  1  0  0  0  0  0  0
  -28.6730  -23.6170   19.8560 C   0  0  0  0  0  3  0  0  0  0  0  0
  -28.1730  -24.9350   20.6970 C   0  0  0  0  0  2  0  0  0  0  0  0
  -28.3360  -26.3730   20.2320 O   0  0  0  0  0  0  0  0  0  0  0  0
  -24.6170  -31.8910   23.2420 C   0  0  0  0  0  0  0  0  0  0  0  0
  -27.2350  -27.2650   20.2290 C   0  0  0  0  0  0  0  0  0  0  0  0
  -23.4250  -30.4860   21.6010 C   0  0  0  0  0  3  0  0  0  0  0  0
  -24.8820  -28.9200   20.1880 C   0  0  0  0  0  0  0  0  0  0  0  0
  -25.9690  -30.7910   21.4310 C   0  0  0  0  0  2  0  0  0  0  0  0
  -26.0530  -29.4030   20.7900 C   0  0  0  0  0  0  0  0  0  0  0  0
  -27.2350  -28.5900   20.7900 C   0  0  0  0  0  3  0  0  0  0  0  0
  -26.0430  -26.8480   19.6030 C   0  0  0  0  0  3  0  0  0  0  0  0
  -24.8840  -27.6530   19.5820 C   0  0  0  0  0  3  0  0  0  0  0  0
  -23.6480  -29.8040   20.2250 C   0  0  0  0  0  2  0  0  0  0  0  0
  -24.6900  -31.0750   22.1480 N   0  0  0  0  0  0  0  0  0  0  0  0
  -23.5300  -32.1690   23.7700 O   0  0  0  0  0  0  0  0  0  0  0  0
  -22.7550  -29.4740   22.5630 C   0  0  0  0  0  0  0  0  0  0  0  0
  -21.4280  -29.2970   22.4340 N   0  0  0  0  0  0  0  0  0  0  0  0
  -23.4300  -28.8510   23.3870 O   0  0  0  0  0  0  0  0  0  0  0  0
  -20.9420  -29.8530   21.7430 H   0  0  0  0  0  0  0  0  0  0  0  0
  -18.0500  -28.0960   22.9290 C   0  0  0  0  0  0  0  0  0  0  0  0
  -20.6080  -28.3600   23.2040 C   0  0  0  0  0  3  0  0  0  0  0  0
  -20.7120  -26.9270   22.6320 C   0  0  0  0  0  2  0  0  0  0  0  0
  -19.6140  -26.6010   21.6150 C   0  0  0  0  0  2  0  0  0  0  0  0
  -18.2300  -26.7460   22.2560 C   0  0  0  0  0  2  0  0  0  0  0  0
  -19.1670  -28.8610   23.3610 C   0  0  0  0  0  0  0  0  0  0  0  0
  -18.9440  -30.1230   23.9530 C   0  0  0  0  0  3  0  0  0  0  0  0
  -17.6380  -30.6220   24.1150 C   0  0  0  0  0  3  0  0  0  0  0  0
  -16.5360  -29.8550   23.6980 C   0  0  0  0  0  3  0  0  0  0  0  0
  -16.7440  -28.5930   23.1120 C   0  0  0  0  0  3  0  0  0  0  0  0
  -25.8940  -32.5290   23.8700 C   0  0  0  0  0  3  0  0  0  0  0  0
  -26.4020  -31.7650   25.1540 C   0  0  1  0  0  0  0  0  0  0  0  0
  -25.3030  -31.5330   26.2170 C   0  0  0  0  0  1  0  0  0  0  0  0
  -26.9880  -30.3850   24.7750 C   0  0  0  0  0  1  0  0  0  0  0  0
  -27.5490  -32.5630   25.8190 C   0  0  0  0  0  1  0  0  0  0  0  0
  -25.5800  -33.9280   24.1950 N   0  0  0  0  0  0  0  0  0  0  0  0
  -25.9160  -34.9810   23.4400 C   0  0  0  0  0  0  0  0  0  0  0  0
  -26.5930  -34.8780   22.4120 O   0  0  0  0  0  0  0  0  0  0  0  0
  -24.9800  -34.0840   24.9930 H   0  0  0  0  0  0  0  0  0  0  0  0
  -24.1910  -36.7760   23.0730 C   0  0  0  0  0  1  0  0  0  0  0  0
  -25.4270  -36.3710   23.8920 C   0  0  0  0  0  3  0  0  0  0  0  0
  -27.5560  -37.2570   24.7370 C   0  0  0  0  0  1  0  0  0  0  0  0
  -26.4600  -37.4240   23.7840 N   0  0  0  0  0  0  0  0  0  0  0  0
  -26.0530  -38.3440   23.9270 H   0  0  0  0  0  0  0  0  0  0  0  0
  -28.8630  -20.7660   19.6420 C   0  0  0  0  0  3  0  0  0  0  0  0
  -28.7600  -16.8000   20.4690 C   0  0  0  0  0  3  0  0  0  0  0  0
  -31.0060  -17.4300   20.0550 C   0  0  0  0  0  3  0  0  0  0  0  0
  -28.3760  -18.1970   20.3700 C   0  0  0  0  0  3  0  0  0  0  0  0
  -30.6300  -18.8140   19.9680 C   0  0  0  0  0  3  0  0  0  0  0  0
  -30.1010  -16.3370   20.2720 C   0  0  0  0  0  0  0  0  0  0  0  0
  -29.2910  -19.2690   20.0890 C   0  0  0  0  0  0  0  0  0  0  0  0
  -30.6510  -14.8430   20.2060 C   0  0  0  0  0  0  0  0  0  0  0  0
  -30.3600  -12.5420   19.2650 C   0  0  0  0  0  2  0  0  0  0  0  0
  -29.4190  -12.5700   18.0430 C   0  0  0  0  0  2  0  0  0  0  0  0
  -27.9610  -12.3850   18.4990 C   0  0  0  0  0  2  0  0  0  0  0  0
  -27.5910  -13.3000   19.6960 C   0  0  0  0  0  3  0  0  0  0  0  0
  -28.6690  -13.3020   20.7990 C   0  0  0  0  0  2  0  0  0  0  0  0
  -29.9460  -13.6500   20.1710 N   0  0  0  0  0  0  0  0  0  0  0  0
  -31.8530  -14.7700   19.9350 O   0  0  0  0  0  0  0  0  0  0  0  0
  -25.2240  -13.8620   20.4950 C   0  0  0  0  0  0  0  0  0  0  0  0
  -24.1730  -13.0790   20.8860 C   0  0  0  0  0  0  0  0  0  0  0  0
  -24.6440  -11.7320   20.8390 C   0  0  0  0  0  0  0  0  0  0  0  0
  -26.2670  -12.9920   20.2270 N   0  0  0  0  0  0  0  0  0  0  0  0
  -25.9290  -11.7040   20.5010 N   0  0  0  0  0  0  0  0  0  0  0  0
  -23.9270  -10.4640   21.0340 C   0  0  0  0  0  0  0  0  0  0  0  0
  -24.3810   -9.4910   21.9510 C   0  0  0  0  0  3  0  0  0  0  0  0
  -23.6610   -8.2900   22.1370 C   0  0  0  0  0  3  0  0  0  0  0  0
  -22.4720   -8.0550   21.4040 C   0  0  0  0  0  0  0  0  0  0  0  0
  -22.0370   -9.0170   20.4770 C   0  0  0  0  0  3  0  0  0  0  0  0
  -22.7580  -10.2090   20.2890 C   0  0  0  0  0  3  0  0  0  0  0  0
  -21.7220   -6.9080   21.5010 O   0  0  0  0  0  0  0  0  0  0  0  0
  -21.7020   -6.1550   22.6470 C   0  0  0  0  0  0  0  0  0  0  0  0
  -21.3060   -6.6980   23.8890 C   0  0  0  0  0  3  0  0  0  0  0  0
  -21.2330   -5.8710   25.0280 C   0  0  0  0  0  3  0  0  0  0  0  0
  -21.5460   -4.5020   24.9270 C   0  0  0  0  0  0  0  0  0  0  0  0
  -21.9350   -3.9590   23.6890 C   0  0  0  0  0  3  0  0  0  0  0  0
  -22.0100   -4.7820   22.5530 C   0  0  0  0  0  0  0  0  0  0  0  0
  -22.3650   -4.2490   21.3590 F   0  0  0  0  0  0  0  0  0  0  0  0
  -21.4680   -3.7070   26.0190 F   0  0  0  0  0  0  0  0  0  0  0  0
  -22.7800  -13.5490   21.1850 C   0  0  0  0  0  0  0  0  0  0  0  0
  -22.0700  -12.8460   22.0610 N   0  0  0  0  0  0  0  0  0  0  0  0
  -22.3290  -14.5740   20.6760 O   0  0  0  0  0  0  0  0  0  0  0  0
  -22.4500  -12.0180   22.4950 H   0  0  0  0  0  0  0  0  0  0  0  0
  -21.1350  -13.1440   22.3030 H   0  0  0  0  0  0  0  0  0  0  0  0
  -25.3680  -15.2340   20.3150 N   0  0  0  0  0  0  0  0  0  0  0  0
  -24.5840  -15.8690   20.4350 H   0  0  0  0  0  0  0  0  0  0  0  0
  -26.1720  -15.6760   19.8920 H   0  0  0  0  0  0  0  0  0  0  0  0
  3  2  1  0
  3  1  1  0
  3  4  1  0
  5  4  1  0
  6 17  2  0
  7  5  1  0
  7 12  1  0
  8 16  1  0
  8 18  1  0
  9 15  1  0
  9 11  1  0
 10 16  1  0
 11 12  2  0
 11 10  1  0
 13  7  2  0
 14 13  1  0
 14  9  2  0
 15  8  1  0
 16  6  1  0
 18 20  2  0
 19 18  1  0
 21 19  1  0
 22 31  2  0
 22 27  1  0
 23 19  1  0
 23 27  1  0
 24 23  1  0
 25 26  1  0
 25 24  1  0
 26 22  1  0
 27 28  2  0
 28 29  1  0
 30 29  2  0
 31 30  1  0
 32  6  1  0
 32 37  1  0
 32 33  1  0
 33 36  1  1
 33 34  1  0
 35 33  1  0
 37 40  1  0
 38 42  1  0
 38 37  1  0
 39 38  2  0
 42 41  1  0
 44 42  1  0
 44 45  1  0
 44 43  1  0
 46 52  1  0
 46  1  2  0
 48 51  1  0
 49 47  1  0
 50 48  2  0
 50 52  1  0
 51 47  2  0
 52 49  2  0
 53 51  1  0
 54 59  1  0
 55 56  1  0
 55 54  1  0
 57 56  1  0
 57 64  1  0
 57 58  1  0
 59 53  1  0
 59 58  1  0
 60 53  2  0
 61 62  2  0
 62 81  1  0
 63 62  1  0
 63 66  1  0
 64 61  1  0
 64 65  1  0
 65 63  2  0
 66 67  1  0
 67 68  2  0
 69 72  1  0
 69 68  1  0
 70 69  2  0
 71 70  1  0
 71 66  2  0
 72 73  1  0
 73 74  1  0
 74 75  2  0
 76 75  1  0
 76 80  1  0
 77 76  2  0
 78 73  2  0
 78 77  1  0
 79 78  1  0
 81 82  1  0
 82 85  1  0
 82 84  1  0
 83 81  2  0
 86 87  1  0
 86 61  1  0
 88 86  1  0
M  ISO  4   4 101   5 101  51 100  53 100
M  END
>  <TORSDO>  (3) 
F 20

>  <SCORE>  (3) 
-13.893

>  <name>  (3) 
2

>  <ligand_id>  (3) 
2

>  <original_smiles>  (3) 
[H]c1c([H])c([H])c2c(c1[H])C([H])([H])C([H])([H])C([H])([H])C2([H])N([H])C(=O)C1([H])N(C(=O)C([H])(N([H])C(=O)C([H])(N([H])C([H])([H])[H])C([H])([H])[H])C(C([H])([H])[H])(C([H])([H])[H])C([H])([H])[H])C([H])([H])c2c([H])c(OC([H])([H])C([H])(C([H])([H])[H])C([H])([H])C([H])([H])c3c([H])c([H])c(C(=O)N4C([H])([H])C([H])([H])C([H])([H])C([H])(n5nc(-c6c([H])c([H])c(Oc7c([H])c([H])c(F)c([H])c7F)c([H])c6[H])c(C(=O)N([H])[H])c5N([H])[H])C4([H])[H])c([H])c3[H])c([H])c([H])c2C1([H])[H]

>  <smiles>  (3) 
[H]c1c([H])c([H])c2c(c1[H])C([H])([H])C([H])([H])C([H])([H])C2([H])N([H])C(=O)C1([H])N(C(=O)C([H])(N([H])C(=O)C([H])(N([H])C([H])([H])[H])C([H])([H])[H])C(C([H])([H])[H])(C([H])([H])[H])C([H])([H])[H])C([H])([H])c2c([H])c(OC([H])([H])C([H])(C([H])([H])[H])C([H])([H])C([H])([H])c3c([H])c([H])c(C(=O)N4C([H])([H])C([H])([H])C([H])([H])C([H])(n5nc(-c6c([H])c([H])c(Oc7c([H])c([H])c(F)c([H])c7F)c([H])c6[H])c(C(=O)N([H])[H])c5N([H])[H])C4([H])[H])c([H])c3[H])c([H])c([H])c2C1([H])[H]

$$$$
3:0:0
     RDKit          3D

 88 96  0  0  1  0  0  0  0  0999 V2000
  -29.4900  -20.6050   19.8520 N   0  0  0  0  0  4  0  0  0  0  0  0
  -30.3420  -20.6200   20.3900 H   0  0  0  0  0  0  0  0  0  0  0  0
  -29.8100  -20.7890   18.9160 H   0  0  0  0  0  0  0  0  0  0  0  0
  -29.6980  -17.1230   20.0520 C   0  0  0  0  0  0  0  0  0  0  0  0
  -28.9240  -17.1690   21.1410 C   0  0  0  0  0  0  0  0  0  0  0  0
  -28.3520  -18.5930   21.1340 C   0  0  0  0  0  2  0  0  0  0  0  0
  -29.0730  -18.8960   19.7800 C   0  0  0  0  0  3  0  0  0  0  0  0
  -30.3070  -15.6280   19.4690 C   0  0  0  0  0  0  0  0  0  0  0  0
  -30.2230  -13.1310   18.5330 C   0  0  0  0  0  2  0  0  0  0  0  0
  -29.1640  -12.8630   17.4210 C   0  0  0  0  0  2  0  0  0  0  0  0
  -27.7960  -12.5200   18.0290 C   0  0  0  0  0  2  0  0  0  0  0  0
  -27.4770  -13.4400   19.2260 C   0  0  0  0  0  3  0  0  0  0  0  0
  -28.6560  -13.6140   20.2060 C   0  0  0  0  0  2  0  0  0  0  0  0
  -29.7700  -14.2610   19.4720 N   0  0  0  0  0  0  0  0  0  0  0  0
  -31.4410  -15.5480   18.9600 O   0  0  0  0  0  0  0  0  0  0  0  0
  -25.2530  -13.9520   20.3420 C   0  0  0  0  0  0  0  0  0  0  0  0
  -24.2400  -13.1620   20.8060 C   0  0  0  0  0  0  0  0  0  0  0  0
  -24.6740  -11.8120   20.6250 C   0  0  0  0  0  0  0  0  0  0  0  0
  -26.2350  -13.0870   19.8980 N   0  0  0  0  0  0  0  0  0  0  0  0
  -25.9100  -11.7870   20.1330 N   0  0  0  0  0  0  0  0  0  0  0  0
  -23.9540  -10.5490   20.8370 C   0  0  0  0  0  0  0  0  0  0  0  0
  -24.4270   -9.5670   21.7350 C   0  0  0  0  0  3  0  0  0  0  0  0
  -23.7030   -8.3720   21.9370 C   0  0  0  0  0  3  0  0  0  0  0  0
  -22.4910   -8.1500   21.2420 C   0  0  0  0  0  0  0  0  0  0  0  0
  -22.0350   -9.1200   20.3320 C   0  0  0  0  0  3  0  0  0  0  0  0
  -22.7590  -10.3060   20.1280 C   0  0  0  0  0  3  0  0  0  0  0  0
  -21.7330   -7.0080   21.3550 O   0  0  0  0  0  0  0  0  0  0  0  0
  -21.6520   -6.3120   22.5350 C   0  0  0  0  0  0  0  0  0  0  0  0
  -21.1940   -6.9160   23.7260 C   0  0  0  0  0  3  0  0  0  0  0  0
  -21.0590   -6.1480   24.8990 C   0  0  0  0  0  3  0  0  0  0  0  0
  -21.3740   -4.7760   24.8830 C   0  0  0  0  0  0  0  0  0  0  0  0
  -21.8240   -4.1700   23.6950 C   0  0  0  0  0  3  0  0  0  0  0  0
  -21.9600   -4.9370   22.5250 C   0  0  0  0  0  0  0  0  0  0  0  0
  -22.3740   -4.3450   21.3790 F   0  0  0  0  0  0  0  0  0  0  0  0
  -21.2380   -4.0340   26.0060 F   0  0  0  0  0  0  0  0  0  0  0  0
  -22.9030  -13.6380   21.2930 C   0  0  0  0  0  0  0  0  0  0  0  0
  -22.2990  -12.9130   22.2270 N   0  0  0  0  0  0  0  0  0  0  0  0
  -22.4100  -14.6870   20.8810 O   0  0  0  0  0  0  0  0  0  0  0  0
  -22.7170  -12.0640   22.5790 H   0  0  0  0  0  0  0  0  0  0  0  0
  -21.4090  -13.2130   22.5990 H   0  0  0  0  0  0  0  0  0  0  0  0
  -25.4160  -15.3300   20.2330 N   0  0  0  0  0  0  0  0  0  0  0  0
  -24.6910  -15.9850   20.5090 H   0  0  0  0  0  0  0  0  0  0  0  0
  -26.2390  -15.7840   19.8570 H   0  0  0  0  0  0  0  0  0  0  0  0
  -28.5690  -16.3280   22.1230 O   0  0  0  0  0  0  0  0  0  0  0  0
  -29.0430  -15.5130   22.0100 H   0  0  0  0  0  0  0  0  0  0  0  0
  -28.6870  -22.1060   20.3150 C   0  0  0  0  0  2  0  0  0  0  0  0
  -28.5080  -23.9190   19.6740 C   0  0  0  0  0  2  0  0  0  0  0  0
  -28.3210  -25.6020   20.1520 O   0  0  0  0  0  0  0  0  0  0  0  0
  -24.5650  -31.7110   22.9940 C   0  0  0  0  0  0  0  0  0  0  0  0
  -27.3060  -26.7610   20.0110 C   0  0  0  0  0  0  0  0  0  0  0  0
  -23.4440  -30.2820   21.3370 C   0  0  0  0  0  3  0  0  0  0  0  0
  -24.9640  -28.6930   19.9300 C   0  0  0  0  0  0  0  0  0  0  0  0
  -26.0150  -30.5180   21.2490 C   0  0  0  0  0  2  0  0  0  0  0  0
  -26.1340  -29.0950   20.5850 C   0  0  0  0  0  0  0  0  0  0  0  0
  -27.2850  -28.1520   20.5990 C   0  0  0  0  0  3  0  0  0  0  0  0
  -26.1020  -26.5650   19.2890 C   0  0  0  0  0  3  0  0  0  0  0  0
  -24.9850  -27.4570   19.2600 C   0  0  0  0  0  3  0  0  0  0  0  0
  -23.7220  -29.5980   19.9650 C   0  0  0  0  0  2  0  0  0  0  0  0
  -24.6960  -30.8710   21.9120 N   0  0  0  0  0  0  0  0  0  0  0  0
  -23.4580  -31.9730   23.4940 O   0  0  0  0  0  0  0  0  0  0  0  0
  -22.7510  -29.2760   22.2970 C   0  0  0  0  0  0  0  0  0  0  0  0
  -21.4210  -29.1020   22.1780 N   0  0  0  0  0  0  0  0  0  0  0  0
  -23.4230  -28.6510   23.1210 O   0  0  0  0  0  0  0  0  0  0  0  0
  -20.9280  -29.6590   21.4940 H   0  0  0  0  0  0  0  0  0  0  0  0
  -18.0510  -27.8530   22.7160 C   0  0  0  0  0  0  0  0  0  0  0  0
  -20.6140  -28.1420   22.9410 C   0  0  0  0  0  3  0  0  0  0  0  0
  -20.7170  -26.7220   22.3330 C   0  0  0  0  0  2  0  0  0  0  0  0
  -19.6020  -26.4130   21.3280 C   0  0  0  0  0  2  0  0  0  0  0  0
  -18.2300  -26.5240   21.9980 C   0  0  0  0  0  2  0  0  0  0  0  0
  -19.1690  -28.6190   23.1430 C   0  0  0  0  0  0  0  0  0  0  0  0
  -18.9430  -29.8590   23.7800 C   0  0  0  0  0  3  0  0  0  0  0  0
  -17.6340  -30.3340   23.9880 C   0  0  0  0  0  3  0  0  0  0  0  0
  -16.5320  -29.5660   23.5710 C   0  0  0  0  0  3  0  0  0  0  0  0
  -16.7420  -28.3270   22.9420 C   0  0  0  0  0  3  0  0  0  0  0  0
  -25.8000  -32.4000   23.6520 C   0  0  0  0  0  3  0  0  0  0  0  0
  -26.3340  -31.6290   24.9230 C   0  0  1  0  0  0  0  0  0  0  0  0
  -25.2400  -31.3240   25.9750 C   0  0  0  0  0  1  0  0  0  0  0  0
  -26.9830  -30.2840   24.5270 C   0  0  0  0  0  1  0  0  0  0  0  0
  -27.4410  -32.4600   25.6140 C   0  0  0  0  0  1  0  0  0  0  0  0
  -25.4130  -33.7740   24.0290 N   0  0  0  0  0  0  0  0  0  0  0  0
  -25.6890  -34.8760   23.3180 C   0  0  0  0  0  0  0  0  0  0  0  0
  -26.3500  -34.8460   22.2770 O   0  0  0  0  0  0  0  0  0  0  0  0
  -24.8180  -33.8660   24.8380 H   0  0  0  0  0  0  0  0  0  0  0  0
  -23.8720  -36.6060   23.0680 C   0  0  0  0  0  1  0  0  0  0  0  0
  -25.1470  -36.2250   23.8390 C   0  0  0  0  0  3  0  0  0  0  0  0
  -27.2490  -37.1880   24.6700 C   0  0  0  0  0  1  0  0  0  0  0  0
  -26.1250  -37.3300   23.7470 N   0  0  0  0  0  0  0  0  0  0  0  0
  -25.6780  -38.2250   23.9290 H   0  0  0  0  0  0  0  0  0  0  0  0
  1 46  1  0
  1  2  1  0
  3  1  1  0
  4  5  2  0
  5 44  1  0
  6  5  1  0
  7  1  1  0
  7  4  1  0
  7  6  1  0
  8 14  1  0
  8  4  1  0
  9 14  1  0
 10 11  1  0
 10  9  1  0
 12 11  1  0
 12 19  1  0
 12 13  1  0
 14 13  1  0
 15  8  2  0
 16 17  2  0
 17 36  1  0
 18 17  1  0
 18 21  1  0
 19 20  1  0
 19 16  1  0
 20 18  2  0
 21 22  1  0
 22 23  2  0
 24 27  1  0
 24 23  1  0
 25 24  2  0
 26 25  1  0
 26 21  2  0
 27 28  1  0
 28 29  1  0
 29 30  2  0
 31 30  1  0
 31 35  1  0
 32 31  2  0
 33 28  2  0
 33 32  1  0
 34 33  1  0
 36 37  1  0
 37 39  1  0
 37 40  1  0
 38 36  2  0
 41 16  1  0
 41 42  1  0
 43 41  1  0
 45 44  1  0
 47 48  1  0
 47 46  1  0
 49 60  2  0
 50 48  1  0
 50 55  1  0
 51 59  1  0
 51 61  1  0
 52 58  1  0
 52 54  1  0
 53 59  1  0
 54 55  2  0
 54 53  1  0
 56 50  2  0
 57 56  1  0
 57 52  2  0
 58 51  1  0
 59 49  1  0
 61 63  2  0
 62 61  1  0
 64 62  1  0
 65 74  2  0
 65 70  1  0
 66 62  1  0
 66 70  1  0
 67 66  1  0
 68 69  1  0
 68 67  1  0
 69 65  1  0
 70 71  2  0
 71 72  1  0
 73 72  2  0
 74 73  1  0
 75 49  1  0
 75 80  1  0
 75 76  1  0
 76 79  1  1
 76 77  1  0
 78 76  1  0
 80 83  1  0
 81 85  1  0
 81 80  1  0
 82 81  2  0
 85 84  1  0
 87 85  1  0
 87 88  1  0
 87 86  1  0
M  ISO  4   4 100   8 100  47 101  48 101
M  END
>  <TORSDO>  (4) 
F 20

>  <SCORE>  (4) 
-13.060

>  <name>  (4) 
3

>  <ligand_id>  (4) 
3

>  <original_smiles>  (4) 
[H]OC1=C(C(=O)N2C([H])([H])C([H])([H])C([H])([H])C([H])(n3nc(-c4c([H])c([H])c(Oc5c([H])c([H])c(F)c([H])c5F)c([H])c4[H])c(C(=O)N([H])[H])c3N([H])[H])C2([H])[H])C([H])([N+]([H])([H])C([H])([H])C([H])([H])Oc2c([H])c([H])c3c(c2[H])C([H])([H])N(C(=O)C([H])(N([H])C(=O)C([H])(N([H])C([H])([H])[H])C([H])([H])[H])C(C([H])([H])[H])(C([H])([H])[H])C([H])([H])[H])C([H])(C(=O)N([H])C2([H])c4c([H])c([H])c([H])c([H])c4C([H])([H])C([H])([H])C2([H])[H])C3([H])[H])C1([H])[H]

>  <smiles>  (4) 
[H]OC1=C(C(=O)N2C([H])([H])C([H])([H])C([H])([H])C([H])(n3nc(-c4c([H])c([H])c(Oc5c([H])c([H])c(F)c([H])c5F)c([H])c4[H])c(C(=O)N([H])[H])c3N([H])[H])C2([H])[H])C([H])([N+]([H])([H])C([H])([H])C([H])([H])Oc2c([H])c([H])c3c(c2[H])C([H])([H])N(C(=O)C([H])(N([H])C(=O)C([H])(N([H])C([H])([H])[H])C([H])([H])[H])C(C([H])([H])[H])(C([H])([H])[H])C([H])([H])[H])C([H])(C(=O)N([H])C2([H])c4c([H])c([H])c([H])c([H])c4C([H])([H])C([H])([H])C2([H])[H])C3([H])[H])C1([H])[H]

$$$$
4:0:0
     RDKit          3D

 85 93  0  0  1  0  0  0  0  0999 V2000
  -29.9890  -22.3920   20.1530 C   0  0  0  0  0  2  0  0  0  0  0  0
  -28.5830  -22.9380   19.9490 C   0  0  0  0  0  3  0  0  0  0  0  0
  -28.9620  -21.3540   20.5520 C   0  0  0  0  0  3  0  0  0  0  0  0
  -27.4700  -19.3240   19.8900 C   0  0  0  0  0  1  0  0  0  0  0  0
  -28.9470  -19.7330   19.9320 C   0  0  0  0  0  3  0  0  0  0  0  0
  -29.8280  -18.3010   20.4490 C   0  0  0  0  0  2  0  0  0  0  0  0
  -29.4820  -16.5980   20.1630 C   0  0  0  0  0  2  0  0  0  0  0  0
  -30.4120  -15.1480   20.1590 C   0  0  0  0  0  0  0  0  0  0  0  0
  -30.4030  -12.7310   19.2830 C   0  0  0  0  0  2  0  0  0  0  0  0
  -29.4570  -12.6050   18.0600 C   0  0  0  0  0  2  0  0  0  0  0  0
  -28.0020  -12.3630   18.5040 C   0  0  0  0  0  2  0  0  0  0  0  0
  -27.5840  -13.3040   19.6630 C   0  0  0  0  0  3  0  0  0  0  0  0
  -28.6460  -13.3700   20.7770 C   0  0  0  0  0  2  0  0  0  0  0  0
  -29.8960  -13.8350   20.1610 N   0  0  0  0  0  0  0  0  0  0  0  0
  -31.6270  -15.2060   19.9280 O   0  0  0  0  0  0  0  0  0  0  0  0
  -25.2130  -13.8670   20.4290 C   0  0  0  0  0  0  0  0  0  0  0  0
  -24.1570  -13.0870   20.8130 C   0  0  0  0  0  0  0  0  0  0  0  0
  -24.6300  -11.7390   20.7860 C   0  0  0  0  0  0  0  0  0  0  0  0
  -26.2560  -12.9930   20.1810 N   0  0  0  0  0  0  0  0  0  0  0  0
  -25.9180  -11.7080   20.4640 N   0  0  0  0  0  0  0  0  0  0  0  0
  -23.9090  -10.4740   20.9890 C   0  0  0  0  0  0  0  0  0  0  0  0
  -24.3540   -9.5100   21.9200 C   0  0  0  0  0  3  0  0  0  0  0  0
  -23.6320   -8.3130   22.1120 C   0  0  0  0  0  3  0  0  0  0  0  0
  -22.4520   -8.0690   21.3710 C   0  0  0  0  0  0  0  0  0  0  0  0
  -22.0250   -9.0220   20.4280 C   0  0  0  0  0  3  0  0  0  0  0  0
  -22.7480  -10.2110   20.2360 C   0  0  0  0  0  3  0  0  0  0  0  0
  -21.7000   -6.9230   21.4710 O   0  0  0  0  0  0  0  0  0  0  0  0
  -21.6690   -6.1810   22.6240 C   0  0  0  0  0  0  0  0  0  0  0  0
  -21.2600   -6.7350   23.8560 C   0  0  0  0  0  3  0  0  0  0  0  0
  -21.1780   -5.9200   25.0020 C   0  0  0  0  0  3  0  0  0  0  0  0
  -21.4930   -4.5510   24.9170 C   0  0  0  0  0  0  0  0  0  0  0  0
  -21.8960   -3.9960   23.6900 C   0  0  0  0  0  3  0  0  0  0  0  0
  -21.9800   -4.8080   22.5450 C   0  0  0  0  0  0  0  0  0  0  0  0
  -22.3480   -4.2640   21.3610 F   0  0  0  0  0  0  0  0  0  0  0  0
  -21.4070   -3.7640   26.0160 F   0  0  0  0  0  0  0  0  0  0  0  0
  -22.7600  -13.5600   21.0900 C   0  0  0  0  0  0  0  0  0  0  0  0
  -22.0420  -12.8670   21.9670 N   0  0  0  0  0  0  0  0  0  0  0  0
  -22.3140  -14.5790   20.5650 O   0  0  0  0  0  0  0  0  0  0  0  0
  -22.4160  -12.0400   22.4110 H   0  0  0  0  0  0  0  0  0  0  0  0
  -21.1050  -13.1660   22.1990 H   0  0  0  0  0  0  0  0  0  0  0  0
  -25.3680  -15.2370   20.2440 N   0  0  0  0  0  0  0  0  0  0  0  0
  -24.5980  -15.8870   20.3620 H   0  0  0  0  0  0  0  0  0  0  0  0
  -26.2130  -15.6810   19.9070 H   0  0  0  0  0  0  0  0  0  0  0  0
  -28.0750  -24.4590   20.6120 C   0  0  0  0  0  2  0  0  0  0  0  0
  -28.2720  -26.0140   20.2410 O   0  0  0  0  0  0  0  0  0  0  0  0
  -24.6390  -31.8540   23.2190 C   0  0  0  0  0  0  0  0  0  0  0  0
  -27.2250  -27.0420   20.2400 C   0  0  0  0  0  0  0  0  0  0  0  0
  -23.4520  -30.4470   21.5820 C   0  0  0  0  0  3  0  0  0  0  0  0
  -24.9090  -28.8470   20.1780 C   0  0  0  0  0  0  0  0  0  0  0  0
  -26.0130  -30.6910   21.4330 C   0  0  0  0  0  2  0  0  0  0  0  0
  -26.0920  -29.2840   20.7900 C   0  0  0  0  0  0  0  0  0  0  0  0
  -27.2510  -28.4030   20.7900 C   0  0  0  0  0  3  0  0  0  0  0  0
  -26.0100  -26.7270   19.5950 C   0  0  0  0  0  3  0  0  0  0  0  0
  -24.8870  -27.5860   19.5630 C   0  0  0  0  0  3  0  0  0  0  0  0
  -23.6870  -29.7580   20.2090 C   0  0  0  0  0  2  0  0  0  0  0  0
  -24.7230  -31.0230   22.1320 N   0  0  0  0  0  0  0  0  0  0  0  0
  -23.5480  -32.1420   23.7360 O   0  0  0  0  0  0  0  0  0  0  0  0
  -22.7620  -29.4510   22.5480 C   0  0  0  0  0  0  0  0  0  0  0  0
  -21.4320  -29.2880   22.4250 N   0  0  0  0  0  0  0  0  0  0  0  0
  -23.4300  -28.8220   23.3740 O   0  0  0  0  0  0  0  0  0  0  0  0
  -20.9480  -29.8480   21.7370 H   0  0  0  0  0  0  0  0  0  0  0  0
  -18.0450  -28.0960   22.9350 C   0  0  0  0  0  0  0  0  0  0  0  0
  -20.6070  -28.3530   23.1980 C   0  0  0  0  0  3  0  0  0  0  0  0
  -20.7020  -26.9190   22.6270 C   0  0  0  0  0  2  0  0  0  0  0  0
  -19.5980  -26.5980   21.6130 C   0  0  0  0  0  2  0  0  0  0  0  0
  -18.2180  -26.7460   22.2590 C   0  0  0  0  0  2  0  0  0  0  0  0
  -19.1670  -28.8570   23.3620 C   0  0  0  0  0  0  0  0  0  0  0  0
  -18.9500  -30.1180   23.9570 C   0  0  0  0  0  3  0  0  0  0  0  0
  -17.6460  -30.6190   24.1300 C   0  0  0  0  0  3  0  0  0  0  0  0
  -16.5390  -29.8550   23.7190 C   0  0  0  0  0  3  0  0  0  0  0  0
  -16.7410  -28.5950   23.1270 C   0  0  0  0  0  3  0  0  0  0  0  0
  -25.9090  -32.5000   23.8500 C   0  0  0  0  0  3  0  0  0  0  0  0
  -26.4090  -31.7420   25.1430 C   0  0  1  0  0  0  0  0  0  0  0  0
  -25.3060  -31.5190   26.2050 C   0  0  0  0  0  1  0  0  0  0  0  0
  -26.9960  -30.3610   24.7800 C   0  0  0  0  0  1  0  0  0  0  0  0
  -27.5550  -32.5440   25.8080 C   0  0  0  0  0  1  0  0  0  0  0  0
  -25.5880  -33.9000   24.1760 N   0  0  0  0  0  0  0  0  0  0  0  0
  -25.9180  -34.9570   23.4230 C   0  0  0  0  0  0  0  0  0  0  0  0
  -26.5890  -34.8560   22.3930 O   0  0  0  0  0  0  0  0  0  0  0  0
  -24.9890  -34.0490   24.9760 H   0  0  0  0  0  0  0  0  0  0  0  0
  -24.1850  -36.7520   23.0800 C   0  0  0  0  0  1  0  0  0  0  0  0
  -25.4310  -36.3460   23.8840 C   0  0  0  0  0  3  0  0  0  0  0  0
  -27.5680  -37.2390   24.7040 C   0  0  0  0  0  1  0  0  0  0  0  0
  -26.4600  -37.4030   23.7650 N   0  0  0  0  0  0  0  0  0  0  0  0
  -26.0520  -38.3210   23.9150 H   0  0  0  0  0  0  0  0  0  0  0  0
  1  3  1  0
  2  1  1  0
  2  3  1  0
  2 44  1  0
  3  5  1  0
  5  4  1  0
  5  6  1  0
  7  6  1  0
  8 14  1  0
  8  7  1  0
  9 14  1  0
 10 11  1  0
 10  9  1  0
 12 11  1  0
 12 19  1  0
 12 13  1  0
 14 13  1  0
 15  8  2  0
 16 17  2  0
 17 36  1  0
 18 17  1  0
 18 21  1  0
 19 16  1  0
 19 20  1  0
 20 18  2  0
 21 22  1  0
 22 23  2  0
 24 27  1  0
 24 23  1  0
 25 24  2  0
 26 25  1  0
 26 21  2  0
 27 28  1  0
 28 29  1  0
 29 30  2  0
 31 30  1  0
 31 35  1  0
 32 31  2  0
 33 28  2  0
 33 32  1  0
 34 33  1  0
 36 37  1  0
 37 40  1  0
 37 39  1  0
 38 36  2  0
 41 42  1  0
 41 16  1  0
 43 41  1  0
 45 44  1  0
 46 57  2  0
 47 45  1  0
 47 52  1  0
 48 56  1  0
 48 58  1  0
 49 55  1  0
 49 51  1  0
 50 56  1  0
 51 52  2  0
 51 50  1  0
 53 47  2  0
 54 53  1  0
 54 49  2  0
 55 48  1  0
 56 46  1  0
 58 60  2  0
 59 58  1  0
 61 59  1  0
 62 71  2  0
 62 67  1  0
 63 59  1  0
 63 67  1  0
 64 63  1  0
 65 66  1  0
 65 64  1  0
 66 62  1  0
 67 68  2  0
 68 69  1  0
 70 69  2  0
 71 70  1  0
 72 46  1  0
 72 77  1  0
 72 73  1  0
 73 76  1  1
 73 74  1  0
 75 73  1  0
 77 80  1  0
 78 82  1  0
 78 77  1  0
 79 78  2  0
 82 81  1  0
 84 82  1  0
 84 85  1  0
 84 83  1  0
M  ISO  4   7 100   8 100  44 101  45 101
M  END
>  <TORSDO>  (5) 
F 20

>  <SCORE>  (5) 
-15.864

>  <name>  (5) 
4

>  <ligand_id>  (5) 
4

>  <original_smiles>  (5) 
[H]c1c([H])c([H])c2c(c1[H])C([H])([H])C([H])([H])C([H])([H])C2([H])N([H])C(=O)C1([H])N(C(=O)C([H])(N([H])C(=O)C([H])(N([H])C([H])([H])[H])C([H])([H])[H])C(C([H])([H])[H])(C([H])([H])[H])C([H])([H])[H])C([H])([H])c2c([H])c(OC([H])([H])C3([H])C([H])([H])C3([H])C([H])(C([H])([H])[H])C([H])([H])C([H])([H])C(=O)N3C([H])([H])C([H])([H])C([H])([H])C([H])(n4nc(-c5c([H])c([H])c(Oc6c([H])c([H])c(F)c([H])c6F)c([H])c5[H])c(C(=O)N([H])[H])c4N([H])[H])C3([H])[H])c([H])c([H])c2C1([H])[H]

>  <smiles>  (5) 
[H]c1c([H])c([H])c2c(c1[H])C([H])([H])C([H])([H])C([H])([H])C2([H])N([H])C(=O)C1([H])N(C(=O)C([H])(N([H])C(=O)C([H])(N([H])C([H])([H])[H])C([H])([H])[H])C(C([H])([H])[H])(C([H])([H])[H])C([H])([H])[H])C([H])([H])c2c([H])c(OC([H])([H])C3([H])C([H])([H])C3([H])C([H])(C([H])([H])[H])C([H])([H])C([H])([H])C(=O)N3C([H])([H])C([H])([H])C([H])([H])C([H])(n4nc(-c5c([H])c([H])c(Oc6c([H])c([H])c(F)c([H])c6F)c([H])c5[H])c(C(=O)N([H])[H])c4N([H])[H])C3([H])[H])c([H])c([H])c2C1([H])[H]

$$$$
5:0:0
     RDKit          3D

 93101  0  0  1  0  0  0  0  0999 V2000
  -30.8310  -22.4660   23.4240 C   0  0  0  0  0  2  0  0  0  0  0  0
  -30.8650  -23.7620   22.6100 C   0  0  0  0  0  2  0  0  0  0  0  0
  -29.7610  -22.6670   20.7160 C   0  0  0  0  0  2  0  0  0  0  0  0
  -30.8740  -21.2260   22.5090 C   0  0  0  0  0  3  0  0  0  0  0  0
  -29.7390  -21.3040   21.4480 C   0  0  0  0  0  3  0  0  0  0  0  0
  -29.7920  -20.1680   20.4050 C   0  0  0  0  0  1  0  0  0  0  0  0
  -29.7270  -23.8150   21.6600 N   0  0  2  0  0  4  0  0  0  0  0  0
  -28.8930  -23.7190   22.2210 H   0  0  0  0  0  0  0  0  0  0  0  0
  -30.8190  -19.9430   23.3550 C   0  0  0  0  0  0  0  0  0  0  0  0
  -30.1830  -19.8880   24.4110 O   0  0  0  0  0  0  0  0  0  0  0  0
  -31.5720  -18.7250   22.8270 C   0  0  0  0  0  2  0  0  0  0  0  0
  -30.6880  -17.4680   22.7500 C   0  0  0  0  0  2  0  0  0  0  0  0
  -31.0910  -16.5700   21.5750 C   0  0  0  0  0  2  0  0  0  0  0  0
  -30.1430  -15.3740   21.3920 C   0  0  0  0  0  2  0  0  0  0  0  0
  -30.5480  -14.4470   20.2360 C   0  0  0  0  0  0  0  0  0  0  0  0
  -30.1480  -12.3880   18.9300 C   0  0  0  0  0  2  0  0  0  0  0  0
  -29.1300  -12.6260   17.8010 C   0  0  0  0  0  2  0  0  0  0  0  0
  -27.6900  -12.4500   18.3200 C   0  0  0  0  0  2  0  0  0  0  0  0
  -27.4260  -13.2500   19.6220 C   0  0  0  0  0  3  0  0  0  0  0  0
  -28.5430  -12.9950   20.6580 C   0  0  0  0  0  2  0  0  0  0  0  0
  -29.8350  -13.3120   20.0270 N   0  0  0  0  0  0  0  0  0  0  0  0
  -31.5170  -14.7580   19.5340 O   0  0  0  0  0  0  0  0  0  0  0  0
  -25.0540  -13.8120   20.4610 C   0  0  0  0  0  0  0  0  0  0  0  0
  -24.0220  -13.0170   20.8810 C   0  0  0  0  0  0  0  0  0  0  0  0
  -24.5050  -11.6740   20.8100 C   0  0  0  0  0  0  0  0  0  0  0  0
  -26.1020  -12.9530   20.1690 N   0  0  0  0  0  0  0  0  0  0  0  0
  -25.7750  -11.6610   20.4320 N   0  0  0  0  0  0  0  0  0  0  0  0
  -23.8130  -10.3970   21.0280 C   0  0  0  0  0  0  0  0  0  0  0  0
  -24.2940   -9.4460   21.9540 C   0  0  0  0  0  3  0  0  0  0  0  0
  -23.6030   -8.2320   22.1580 C   0  0  0  0  0  3  0  0  0  0  0  0
  -22.4160   -7.9620   21.4370 C   0  0  0  0  0  0  0  0  0  0  0  0
  -21.9550   -8.9020   20.4990 C   0  0  0  0  0  3  0  0  0  0  0  0
  -22.6470  -10.1060   20.2920 C   0  0  0  0  0  3  0  0  0  0  0  0
  -21.6930   -6.8000   21.5510 O   0  0  0  0  0  0  0  0  0  0  0  0
  -21.6710   -6.0770   22.7170 C   0  0  0  0  0  0  0  0  0  0  0  0
  -21.2480   -6.6450   23.9380 C   0  0  0  0  0  3  0  0  0  0  0  0
  -21.1750   -5.8470   25.0980 C   0  0  0  0  0  3  0  0  0  0  0  0
  -21.5150   -4.4830   25.0370 C   0  0  0  0  0  0  0  0  0  0  0  0
  -21.9300   -3.9140   23.8210 C   0  0  0  0  0  3  0  0  0  0  0  0
  -22.0050   -4.7080   22.6630 C   0  0  0  0  0  0  0  0  0  0  0  0
  -22.3860   -4.1500   21.4880 F   0  0  0  0  0  0  0  0  0  0  0  0
  -21.4370   -3.7140   26.1490 F   0  0  0  0  0  0  0  0  0  0  0  0
  -22.6330  -13.4650   21.2350 C   0  0  0  0  0  0  0  0  0  0  0  0
  -21.9670  -12.7440   22.1310 N   0  0  0  0  0  0  0  0  0  0  0  0
  -22.1480  -14.4890   20.7550 O   0  0  0  0  0  0  0  0  0  0  0  0
  -22.3730  -11.9150   22.5410 H   0  0  0  0  0  0  0  0  0  0  0  0
  -21.0380  -13.0250   22.4110 H   0  0  0  0  0  0  0  0  0  0  0  0
  -25.1860  -15.1870   20.2890 N   0  0  0  0  0  0  0  0  0  0  0  0
  -24.4170  -15.8290   20.4440 H   0  0  0  0  0  0  0  0  0  0  0  0
  -26.0170  -15.6430   19.9340 H   0  0  0  0  0  0  0  0  0  0  0  0
  -29.6370  -25.1350   20.9810 C   0  0  0  0  0  2  0  0  0  0  0  0
  -28.2340  -25.4550   20.4390 C   0  0  0  0  0  2  0  0  0  0  0  0
  -28.2580  -26.8300   20.0770 O   0  0  0  0  0  0  0  0  0  0  0  0
  -24.4970  -31.9520   23.2220 C   0  0  0  0  0  0  0  0  0  0  0  0
  -27.0620  -27.5000   20.1210 C   0  0  0  0  0  0  0  0  0  0  0  0
  -23.2460  -30.5370   21.6220 C   0  0  0  0  0  3  0  0  0  0  0  0
  -24.6610  -28.9790   20.1840 C   0  0  0  0  0  0  0  0  0  0  0  0
  -25.7630  -30.8960   21.3570 C   0  0  0  0  0  2  0  0  0  0  0  0
  -25.8310  -29.5190   20.7320 C   0  0  0  0  0  0  0  0  0  0  0  0
  -27.0350  -28.7880   20.6930 C   0  0  0  0  0  3  0  0  0  0  0  0
  -25.8760  -26.9580   19.5790 C   0  0  0  0  0  3  0  0  0  0  0  0
  -24.6750  -27.6950   19.6080 C   0  0  0  0  0  3  0  0  0  0  0  0
  -23.4200  -29.8390   20.2470 C   0  0  0  0  0  2  0  0  0  0  0  0
  -24.5220  -31.1430   22.1260 N   0  0  0  0  0  0  0  0  0  0  0  0
  -23.4290  -32.2340   23.7840 O   0  0  0  0  0  0  0  0  0  0  0  0
  -22.6150  -29.5300   22.6070 C   0  0  0  0  0  0  0  0  0  0  0  0
  -21.2940  -29.3250   22.4840 N   0  0  0  0  0  0  0  0  0  0  0  0
  -23.3100  -28.9340   23.4350 O   0  0  0  0  0  0  0  0  0  0  0  0
  -20.7970  -29.8580   21.7850 H   0  0  0  0  0  0  0  0  0  0  0  0
  -17.9440  -28.0660   22.9760 C   0  0  0  0  0  0  0  0  0  0  0  0
  -20.4910  -28.3920   23.2730 C   0  0  0  0  0  3  0  0  0  0  0  0
  -20.6350  -26.9470   22.7450 C   0  0  0  0  0  2  0  0  0  0  0  0
  -19.5540  -26.5660   21.7270 C   0  0  0  0  0  2  0  0  0  0  0  0
  -18.1610  -26.7000   22.3480 C   0  0  0  0  0  2  0  0  0  0  0  0
  -19.0390  -28.8680   23.3960 C   0  0  0  0  0  0  0  0  0  0  0  0
  -18.7850  -30.1460   23.9400 C   0  0  0  0  0  3  0  0  0  0  0  0
  -17.4670  -30.6230   24.0700 C   0  0  0  0  0  3  0  0  0  0  0  0
  -16.3860  -29.8190   23.6680 C   0  0  0  0  0  3  0  0  0  0  0  0
  -16.6260  -28.5440   23.1280 C   0  0  0  0  0  3  0  0  0  0  0  0
  -25.8010  -32.5800   23.8080 C   0  0  0  0  0  3  0  0  0  0  0  0
  -25.5050  -33.9800   24.1370 N   0  0  0  0  0  0  0  0  0  0  0  0
  -25.8490  -35.0290   23.3770 C   0  0  0  0  0  0  0  0  0  0  0  0
  -26.5180  -34.9170   22.3460 O   0  0  0  0  0  0  0  0  0  0  0  0
  -24.9110  -34.1410   24.9380 H   0  0  0  0  0  0  0  0  0  0  0  0
  -24.1490  -36.8420   23.0060 C   0  0  0  0  0  1  0  0  0  0  0  0
  -25.3730  -36.4210   23.8330 C   0  0  0  0  0  3  0  0  0  0  0  0
  -27.5100  -37.2720   24.6910 C   0  0  0  0  0  1  0  0  0  0  0  0
  -26.4210  -37.4610   23.7380 N   0  0  0  0  0  0  0  0  0  0  0  0
  -26.0250  -38.3860   23.8860 H   0  0  0  0  0  0  0  0  0  0  0  0
  -26.3490  -31.8100   25.0720 C   0  0  1  0  0  0  0  0  0  0  0  0
  -25.2830  -31.5780   26.1690 C   0  0  0  0  0  1  0  0  0  0  0  0
  -26.9170  -30.4310   24.6640 C   0  0  0  0  0  1  0  0  0  0  0  0
  -27.5170  -32.6030   25.7030 C   0  0  0  0  0  1  0  0  0  0  0  0
  2  1  1  0
  3  5  1  0
  3  7  1  0
  4  9  1  0
  4  1  1  0
  5  6  1  0
  5  4  1  0
  7  8  1  1
  7  2  1  0
  9 10  2  0
 11  9  1  0
 12 11  1  0
 13 12  1  0
 14 13  1  0
 15 14  1  0
 16 21  1  0
 17 18  1  0
 17 16  1  0
 19 18  1  0
 19 26  1  0
 19 20  1  0
 21 15  1  0
 21 20  1  0
 22 15  2  0
 23 24  2  0
 24 43  1  0
 25 24  1  0
 25 28  1  0
 26 27  1  0
 26 23  1  0
 27 25  2  0
 28 29  1  0
 29 30  2  0
 31 34  1  0
 31 30  1  0
 32 31  2  0
 33 32  1  0
 33 28  2  0
 34 35  1  0
 35 36  1  0
 36 37  2  0
 38 37  1  0
 38 42  1  0
 39 38  2  0
 40 35  2  0
 40 39  1  0
 41 40  1  0
 43 44  1  0
 44 47  1  0
 44 46  1  0
 45 43  2  0
 48 49  1  0
 48 23  1  0
 50 48  1  0
 51  7  1  0
 52 51  1  0
 53 55  1  0
 53 52  1  0
 54 65  2  0
 55 60  1  0
 56 64  1  0
 56 66  1  0
 57 63  1  0
 57 59  1  0
 58 64  1  0
 59 58  1  0
 60 59  2  0
 61 62  1  0
 61 55  2  0
 62 57  2  0
 63 56  1  0
 64 54  1  0
 66 68  2  0
 67 66  1  0
 69 67  1  0
 70 79  2  0
 70 75  1  0
 71 67  1  0
 71 75  1  0
 72 71  1  0
 73 74  1  0
 73 72  1  0
 74 70  1  0
 75 76  2  0
 76 77  1  0
 78 77  2  0
 79 78  1  0
 80 54  1  0
 80 81  1  0
 80 90  1  0
 81 84  1  0
 82 86  1  0
 82 81  1  0
 83 82  2  0
 86 85  1  0
 88 86  1  0
 88 89  1  0
 88 87  1  0
 90 93  1  1
 90 91  1  0
 92 90  1  0
M  ISO  4  14 100  15 100  52 101  53 101
M  END
>  <TORSDO>  (6) 
F 23

>  <SCORE>  (6) 
-11.048

>  <name>  (6) 
5

>  <ligand_id>  (6) 
5

>  <original_smiles>  (6) 
[H]c1c([H])c([H])c2c(c1[H])C([H])([H])C([H])([H])C([H])([H])C2([H])N([H])C(=O)C1([H])N(C(=O)C([H])(N([H])C(=O)C([H])(N([H])C([H])([H])[H])C([H])([H])[H])C(C([H])([H])[H])(C([H])([H])[H])C([H])([H])[H])C([H])([H])c2c([H])c(OC([H])([H])C([H])([H])[N+]3([H])C([H])([H])C([H])([H])C([H])(C(=O)C([H])([H])C([H])([H])C([H])([H])C([H])([H])C(=O)N4C([H])([H])C([H])([H])C([H])([H])C([H])(n5nc(-c6c([H])c([H])c(Oc7c([H])c([H])c(F)c([H])c7F)c([H])c6[H])c(C(=O)N([H])[H])c5N([H])[H])C4([H])[H])C([H])(C([H])([H])[H])C3([H])[H])c([H])c([H])c2C1([H])[H]

>  <smiles>  (6) 
[H]c1c([H])c([H])c2c(c1[H])C([H])([H])C([H])([H])C([H])([H])C2([H])N([H])C(=O)C1([H])N(C(=O)C([H])(N([H])C(=O)C([H])(N([H])C([H])([H])[H])C([H])([H])[H])C(C([H])([H])[H])(C([H])([H])[H])C([H])([H])[H])C([H])([H])c2c([H])c(OC([H])([H])C([H])([H])[N+]3([H])C([H])([H])C([H])([H])C([H])(C(=O)C([H])([H])C([H])([H])C([H])([H])C([H])([H])C(=O)N4C([H])([H])C([H])([H])C([H])([H])C([H])(n5nc(-c6c([H])c([H])c(Oc7c([H])c([H])c(F)c([H])c7F)c([H])c6[H])c(C(=O)N([H])[H])c5N([H])[H])C4([H])[H])C([H])(C([H])([H])[H])C3([H])[H])c([H])c([H])c2C1([H])[H]

$$$$
6:0:0
     RDKit          3D

 87 95  0  0  1  0  0  0  0  0999 V2000
  -29.6600  -19.5310   17.9790 C   0  0  0  0  0  2  0  0  0  0  0  0
  -30.3210  -18.7610   18.8530 C   0  0  0  0  0  2  0  0  0  0  0  0
  -28.5680  -20.2680   18.6040 C   0  0  0  0  0  0  0  0  0  0  0  0
  -29.7580  -18.6940   20.2540 C   0  0  0  0  0  3  0  0  0  0  0  0
  -28.7270  -20.3180   20.1190 C   0  0  0  0  0  3  0  0  0  0  0  0
  -27.6500  -20.8390   18.0110 O   0  0  0  0  0  0  0  0  0  0  0  0
  -30.2780  -15.5970   20.3750 C   0  0  0  0  0  0  0  0  0  0  0  0
  -30.3740  -13.0560   19.6030 C   0  0  0  0  0  2  0  0  0  0  0  0
  -29.5070  -12.6650   18.3740 C   0  0  0  0  0  2  0  0  0  0  0  0
  -28.0700  -12.3310   18.8020 C   0  0  0  0  0  2  0  0  0  0  0  0
  -27.5440  -13.3430   19.8460 C   0  0  0  0  0  3  0  0  0  0  0  0
  -28.5520  -13.6530   20.9770 C   0  0  0  0  0  2  0  0  0  0  0  0
  -29.7470  -14.2430   20.3360 N   0  0  0  0  0  0  0  0  0  0  0  0
  -31.5110  -15.5420   20.2090 O   0  0  0  0  0  0  0  0  0  0  0  0
  -29.5260  -16.9500   20.4090 N   0  0  0  0  0  0  0  0  0  0  0  0
  -28.5440  -16.7500   20.5350 H   0  0  0  0  0  0  0  0  0  0  0  0
  -25.1640  -13.8760   20.5610 C   0  0  0  0  0  0  0  0  0  0  0  0
  -24.1020  -13.0940   20.9160 C   0  0  0  0  0  0  0  0  0  0  0  0
  -24.5800  -11.7460   20.9070 C   0  0  0  0  0  0  0  0  0  0  0  0
  -26.2170  -13.0080   20.3440 N   0  0  0  0  0  0  0  0  0  0  0  0
  -25.8780  -11.7200   20.6190 N   0  0  0  0  0  0  0  0  0  0  0  0
  -23.8550  -10.4820   21.0920 C   0  0  0  0  0  0  0  0  0  0  0  0
  -24.2890   -9.5090   22.0190 C   0  0  0  0  0  3  0  0  0  0  0  0
  -23.5590   -8.3130   22.1950 C   0  0  0  0  0  3  0  0  0  0  0  0
  -22.3820   -8.0810   21.4450 C   0  0  0  0  0  0  0  0  0  0  0  0
  -21.9670   -9.0430   20.5080 C   0  0  0  0  0  3  0  0  0  0  0  0
  -22.6970  -10.2300   20.3290 C   0  0  0  0  0  3  0  0  0  0  0  0
  -21.6250   -6.9380   21.5310 O   0  0  0  0  0  0  0  0  0  0  0  0
  -21.6010   -6.1740   22.6710 C   0  0  0  0  0  0  0  0  0  0  0  0
  -21.2310   -6.7130   23.9220 C   0  0  0  0  0  3  0  0  0  0  0  0
  -21.1530   -5.8770   25.0540 C   0  0  0  0  0  3  0  0  0  0  0  0
  -21.4350   -4.5040   24.9360 C   0  0  0  0  0  0  0  0  0  0  0  0
  -21.7990   -3.9630   23.6900 C   0  0  0  0  0  3  0  0  0  0  0  0
  -21.8780   -4.7970   22.5600 C   0  0  0  0  0  0  0  0  0  0  0  0
  -22.2090   -4.2670   21.3580 F   0  0  0  0  0  0  0  0  0  0  0  0
  -21.3540   -3.6980   26.0210 F   0  0  0  0  0  0  0  0  0  0  0  0
  -22.6970  -13.5660   21.1470 C   0  0  0  0  0  0  0  0  0  0  0  0
  -21.9540  -12.8810   22.0090 N   0  0  0  0  0  0  0  0  0  0  0  0
  -22.2660  -14.5790   20.5970 O   0  0  0  0  0  0  0  0  0  0  0  0
  -22.3150  -12.0620   22.4750 H   0  0  0  0  0  0  0  0  0  0  0  0
  -21.0100  -13.1810   22.2070 H   0  0  0  0  0  0  0  0  0  0  0  0
  -25.3190  -15.2460   20.3720 N   0  0  0  0  0  0  0  0  0  0  0  0
  -24.5410  -15.8920   20.4560 H   0  0  0  0  0  0  0  0  0  0  0  0
  -26.1600  -15.6830   20.0190 H   0  0  0  0  0  0  0  0  0  0  0  0
  -28.9080  -22.2180   20.3730 C   0  0  0  0  0  3  0  0  0  0  0  0
  -27.9590  -23.8650   20.0740 C   0  0  0  0  0  3  0  0  0  0  0  0
  -28.1300  -25.5910   20.2430 O   0  0  0  0  0  0  0  0  0  0  0  0
  -24.6310  -31.8440   23.1320 C   0  0  0  0  0  0  0  0  0  0  0  0
  -27.1480  -26.7780   20.1690 C   0  0  0  0  0  0  0  0  0  0  0  0
  -23.4320  -30.4320   21.5150 C   0  0  0  0  0  3  0  0  0  0  0  0
  -24.8710  -28.7790   20.1070 C   0  0  0  0  0  0  0  0  0  0  0  0
  -26.0080  -30.5870   21.3710 C   0  0  0  0  0  2  0  0  0  0  0  0
  -26.0690  -29.1530   20.7270 C   0  0  0  0  0  0  0  0  0  0  0  0
  -27.1920  -28.1790   20.7260 C   0  0  0  0  0  3  0  0  0  0  0  0
  -25.9160  -26.6020   19.4910 C   0  0  0  0  0  3  0  0  0  0  0  0
  -24.8300  -27.5280   19.4640 C   0  0  0  0  0  3  0  0  0  0  0  0
  -23.6600  -29.7230   20.1490 C   0  0  0  0  0  2  0  0  0  0  0  0
  -24.7140  -30.9860   22.0580 N   0  0  0  0  0  0  0  0  0  0  0  0
  -23.5420  -32.1460   23.6490 O   0  0  0  0  0  0  0  0  0  0  0  0
  -22.7260  -29.4590   22.5000 C   0  0  0  0  0  0  0  0  0  0  0  0
  -21.3910  -29.3140   22.3950 N   0  0  0  0  0  0  0  0  0  0  0  0
  -23.3900  -28.8350   23.3300 O   0  0  0  0  0  0  0  0  0  0  0  0
  -20.9060  -29.8670   21.7020 H   0  0  0  0  0  0  0  0  0  0  0  0
  -18.0040  -28.1240   22.9530 C   0  0  0  0  0  0  0  0  0  0  0  0
  -20.5690  -28.3880   23.1820 C   0  0  0  0  0  3  0  0  0  0  0  0
  -20.6570  -26.9490   22.6200 C   0  0  0  0  0  2  0  0  0  0  0  0
  -19.5440  -26.6230   21.6190 C   0  0  0  0  0  2  0  0  0  0  0  0
  -18.1700  -26.7730   22.2780 C   0  0  0  0  0  2  0  0  0  0  0  0
  -19.1290  -28.8890   23.3630 C   0  0  0  0  0  0  0  0  0  0  0  0
  -18.9160  -30.1510   23.9580 C   0  0  0  0  0  3  0  0  0  0  0  0
  -17.6130  -30.6490   24.1450 C   0  0  0  0  0  3  0  0  0  0  0  0
  -16.5030  -29.8830   23.7480 C   0  0  0  0  0  3  0  0  0  0  0  0
  -16.7000  -28.6220   23.1580 C   0  0  0  0  0  3  0  0  0  0  0  0
  -25.9000  -32.4990   23.7580 C   0  0  0  0  0  3  0  0  0  0  0  0
  -25.5680  -33.8910   24.1180 N   0  0  0  0  0  0  0  0  0  0  0  0
  -25.8760  -34.9710   23.3880 C   0  0  0  0  0  0  0  0  0  0  0  0
  -26.5290  -34.9030   22.3440 O   0  0  0  0  0  0  0  0  0  0  0  0
  -24.9830  -34.0160   24.9310 H   0  0  0  0  0  0  0  0  0  0  0  0
  -24.1200  -36.7610   23.1310 C   0  0  0  0  0  1  0  0  0  0  0  0
  -25.3890  -36.3470   23.8940 C   0  0  0  0  0  3  0  0  0  0  0  0
  -27.5390  -37.2420   24.6790 C   0  0  0  0  0  1  0  0  0  0  0  0
  -26.4060  -37.4150   23.7740 N   0  0  0  0  0  0  0  0  0  0  0  0
  -25.9940  -38.3270   23.9540 H   0  0  0  0  0  0  0  0  0  0  0  0
  -26.4290  -31.7290   25.0320 C   0  0  1  0  0  0  0  0  0  0  0  0
  -25.3450  -31.4850   26.1100 C   0  0  0  0  0  1  0  0  0  0  0  0
  -27.0150  -30.3530   24.6450 C   0  0  0  0  0  1  0  0  0  0  0  0
  -27.5810  -32.5270   25.6850 C   0  0  0  0  0  1  0  0  0  0  0  0
  1  3  1  0
  1  2  1  0
  2  4  1  0
  3  5  1  0
  4 15  1  0
  5  4  1  0
  5 45  1  0
  6  3  2  0
  7 15  1  0
  8 13  1  0
  9 10  1  0
  9  8  1  0
 11 10  1  0
 11 20  1  0
 11 12  1  0
 13  7  1  0
 13 12  1  0
 14  7  2  0
 15 16  1  0
 17 18  2  0
 18 37  1  0
 19 18  1  0
 19 22  1  0
 20 17  1  0
 20 21  1  0
 21 19  2  0
 22 23  1  0
 23 24  2  0
 25 28  1  0
 25 24  1  0
 26 25  2  0
 27 26  1  0
 27 22  2  0
 28 29  1  0
 29 30  1  0
 30 31  2  0
 32 31  1  0
 32 36  1  0
 33 32  2  0
 34 29  2  0
 34 33  1  0
 35 34  1  0
 37 38  1  0
 38 41  1  0
 38 40  1  0
 39 37  2  0
 42 43  1  0
 42 17  1  0
 44 42  1  0
 46 47  1  0
 46 45  2  0
 48 59  2  0
 49 47  1  0
 49 54  1  0
 50 58  1  0
 50 60  1  0
 51 57  1  0
 51 53  1  0
 52 58  1  0
 53 52  1  0
 54 53  2  0
 55 49  2  0
 56 55  1  0
 56 51  2  0
 57 50  1  0
 58 48  1  0
 60 62  2  0
 61 60  1  0
 63 61  1  0
 64 73  2  0
 64 69  1  0
 65 61  1  0
 65 69  1  0
 66 65  1  0
 67 68  1  0
 67 66  1  0
 68 64  1  0
 69 70  2  0
 70 71  1  0
 72 71  2  0
 73 72  1  0
 74 48  1  0
 74 75  1  0
 74 84  1  0
 75 78  1  0
 76 80  1  0
 76 75  1  0
 77 76  2  0
 80 79  1  0
 82 80  1  0
 82 83  1  0
 82 81  1  0
 84 87  1  1
 84 85  1  0
 86 84  1  0
M  ISO  4   7 100  15 100  46 101  47 101
M  END
>  <TORSDO>  (7) 
F 18

>  <SCORE>  (7) 
-16.515

>  <name>  (7) 
6

>  <ligand_id>  (7) 
6

>  <original_smiles>  (7) 
[H]C1=C([H])C([H])(N([H])C(=O)N2C([H])([H])C([H])([H])C([H])([H])C([H])(n3nc(-c4c([H])c([H])c(Oc5c([H])c([H])c(F)c([H])c5F)c([H])c4[H])c(C(=O)N([H])[H])c3N([H])[H])C2([H])[H])C([H])(C([H])([H])C([H])([H])Oc2c([H])c([H])c3c(c2[H])C([H])([H])N(C(=O)C([H])(N([H])C(=O)C([H])(N([H])C([H])([H])[H])C([H])([H])[H])C(C([H])([H])[H])(C([H])([H])[H])C([H])([H])[H])C([H])(C(=O)N([H])C2([H])c4c([H])c([H])c([H])c([H])c4C([H])([H])C([H])([H])C2([H])[H])C3([H])[H])C1=O

>  <smiles>  (7) 
[H]C1=C([H])C([H])(N([H])C(=O)N2C([H])([H])C([H])([H])C([H])([H])C([H])(n3nc(-c4c([H])c([H])c(Oc5c([H])c([H])c(F)c([H])c5F)c([H])c4[H])c(C(=O)N([H])[H])c3N([H])[H])C2([H])[H])C([H])(C([H])([H])C([H])([H])Oc2c([H])c([H])c3c(c2[H])C([H])([H])N(C(=O)C([H])(N([H])C(=O)C([H])(N([H])C([H])([H])[H])C([H])([H])[H])C(C([H])([H])[H])(C([H])([H])[H])C([H])([H])[H])C([H])(C(=O)N([H])C2([H])c4c([H])c([H])c([H])c([H])c4C([H])([H])C([H])([H])C2([H])[H])C3([H])[H])C1=O

$$$$
7:0:0
     RDKit          3D

 85 93  0  0  1  0  0  0  0  0999 V2000
  -28.6720  -21.3330   21.4010 C   0  0  0  0  0  2  0  0  0  0  0  0
  -28.8800  -22.3100   20.2490 C   0  0  0  0  0  3  0  0  0  0  0  0
  -28.7660  -20.4070   20.2000 C   0  0  0  0  0  3  0  0  0  0  0  0
  -30.9210  -19.0480   21.2280 C   0  0  0  0  0  1  0  0  0  0  0  0
  -29.7770  -18.8000   20.2360 C   0  0  0  0  0  0  0  0  0  0  0  0
  -30.2990  -15.6990   20.1700 C   0  0  0  0  0  0  0  0  0  0  0  0
  -30.3720  -13.1790   19.3290 C   0  0  0  0  0  2  0  0  0  0  0  0
  -29.4500  -12.8060   18.1340 C   0  0  0  0  0  2  0  0  0  0  0  0
  -28.0360  -12.4530   18.6200 C   0  0  0  0  0  2  0  0  0  0  0  0
  -27.5540  -13.4380   19.7100 C   0  0  0  0  0  3  0  0  0  0  0  0
  -28.6110  -13.7300   20.7990 C   0  0  0  0  0  2  0  0  0  0  0  0
  -29.7700  -14.3430   20.1140 N   0  0  0  0  0  0  0  0  0  0  0  0
  -31.5250  -15.6490   19.9630 O   0  0  0  0  0  0  0  0  0  0  0  0
  -29.5450  -17.0490   20.2650 N   0  0  0  0  0  4  0  0  0  0  0  0
  -28.5610  -16.8450   20.3710 H   0  0  0  0  0  0  0  0  0  0  0  0
  -25.2100  -13.9410   20.5520 C   0  0  0  0  0  0  0  0  0  0  0  0
  -24.1680  -13.1460   20.9330 C   0  0  0  0  0  0  0  0  0  0  0  0
  -24.6470  -11.8010   20.8600 C   0  0  0  0  0  0  0  0  0  0  0  0
  -26.2540  -13.0830   20.2600 N   0  0  0  0  0  0  0  0  0  0  0  0
  -25.9300  -11.7870   20.5130 N   0  0  0  0  0  0  0  0  0  0  0  0
  -23.9330  -10.5290   21.0410 C   0  0  0  0  0  0  0  0  0  0  0  0
  -24.3720   -9.5600   21.9700 C   0  0  0  0  0  3  0  0  0  0  0  0
  -23.6530   -8.3570   22.1430 C   0  0  0  0  0  3  0  0  0  0  0  0
  -22.4830   -8.1140   21.3850 C   0  0  0  0  0  0  0  0  0  0  0  0
  -22.0630   -9.0710   20.4450 C   0  0  0  0  0  3  0  0  0  0  0  0
  -22.7830  -10.2660   20.2710 C   0  0  0  0  0  3  0  0  0  0  0  0
  -21.7370   -6.9630   21.4660 O   0  0  0  0  0  0  0  0  0  0  0  0
  -21.6590   -6.2360   22.6280 C   0  0  0  0  0  0  0  0  0  0  0  0
  -21.1510   -6.7920   23.8220 C   0  0  0  0  0  3  0  0  0  0  0  0
  -21.0230   -5.9890   24.9730 C   0  0  0  0  0  3  0  0  0  0  0  0
  -21.3930   -4.6320   24.9310 C   0  0  0  0  0  0  0  0  0  0  0  0
  -21.8940   -4.0750   23.7410 C   0  0  0  0  0  3  0  0  0  0  0  0
  -22.0230   -4.8750   22.5920 C   0  0  0  0  0  0  0  0  0  0  0  0
  -22.4860   -4.3270   21.4420 F   0  0  0  0  0  0  0  0  0  0  0  0
  -21.2640   -3.8590   26.0350 F   0  0  0  0  0  0  0  0  0  0  0  0
  -22.7740  -13.6060   21.2430 C   0  0  0  0  0  0  0  0  0  0  0  0
  -22.0730  -12.8920   22.1160 N   0  0  0  0  0  0  0  0  0  0  0  0
  -22.3180  -14.6360   20.7480 O   0  0  0  0  0  0  0  0  0  0  0  0
  -22.4570  -12.0590   22.5380 H   0  0  0  0  0  0  0  0  0  0  0  0
  -21.1390  -13.1830   22.3670 H   0  0  0  0  0  0  0  0  0  0  0  0
  -25.3520  -15.3170   20.3970 N   0  0  0  0  0  0  0  0  0  0  0  0
  -24.5760  -15.9550   20.5330 H   0  0  0  0  0  0  0  0  0  0  0  0
  -26.1730  -15.7690   20.0140 H   0  0  0  0  0  0  0  0  0  0  0  0
  -27.9180  -23.9480   20.2220 C   0  0  0  0  0  2  0  0  0  0  0  0
  -28.1210  -25.6790   20.3210 O   0  0  0  0  0  0  0  0  0  0  0  0
  -24.6280  -31.9260   23.2530 C   0  0  0  0  0  0  0  0  0  0  0  0
  -27.1390  -26.8690   20.2690 C   0  0  0  0  0  0  0  0  0  0  0  0
  -23.4310  -30.5270   21.6250 C   0  0  0  0  0  3  0  0  0  0  0  0
  -24.8690  -28.8770   20.2120 C   0  0  0  0  0  0  0  0  0  0  0  0
  -26.0070  -30.6750   21.4900 C   0  0  0  0  0  2  0  0  0  0  0  0
  -26.0660  -29.2440   20.8370 C   0  0  0  0  0  0  0  0  0  0  0  0
  -27.1880  -28.2670   20.8330 C   0  0  0  0  0  3  0  0  0  0  0  0
  -25.9070  -26.7010   19.5900 C   0  0  0  0  0  3  0  0  0  0  0  0
  -24.8250  -27.6310   19.5650 C   0  0  0  0  0  3  0  0  0  0  0  0
  -23.6620  -29.8260   20.2560 C   0  0  0  0  0  2  0  0  0  0  0  0
  -24.7120  -31.0740   22.1750 N   0  0  0  0  0  0  0  0  0  0  0  0
  -23.5380  -32.2290   23.7680 O   0  0  0  0  0  0  0  0  0  0  0  0
  -22.7190  -29.5510   22.6010 C   0  0  0  0  0  0  0  0  0  0  0  0
  -21.3880  -29.3850   22.4690 N   0  0  0  0  0  0  0  0  0  0  0  0
  -23.3750  -28.9410   23.4490 O   0  0  0  0  0  0  0  0  0  0  0  0
  -20.9090  -29.9270   21.7650 H   0  0  0  0  0  0  0  0  0  0  0  0
  -18.0070  -28.1540   22.9730 C   0  0  0  0  0  0  0  0  0  0  0  0
  -20.5630  -28.4520   23.2470 C   0  0  0  0  0  3  0  0  0  0  0  0
  -20.6810  -27.0120   22.6920 C   0  0  0  0  0  2  0  0  0  0  0  0
  -19.5900  -26.6670   21.6750 C   0  0  0  0  0  2  0  0  0  0  0  0
  -18.2020  -26.8010   22.3080 C   0  0  0  0  0  2  0  0  0  0  0  0
  -19.1150  -28.9350   23.3980 C   0  0  0  0  0  0  0  0  0  0  0  0
  -18.8750  -30.1980   23.9850 C   0  0  0  0  0  3  0  0  0  0  0  0
  -17.5630  -30.6790   24.1460 C   0  0  0  0  0  3  0  0  0  0  0  0
  -16.4700  -29.8980   23.7320 C   0  0  0  0  0  3  0  0  0  0  0  0
  -16.6940  -28.6370   23.1510 C   0  0  0  0  0  3  0  0  0  0  0  0
  -25.8960  -32.5740   23.8870 C   0  0  0  0  0  3  0  0  0  0  0  0
  -25.5780  -33.9760   24.2200 N   0  0  0  0  0  0  0  0  0  0  0  0
  -25.8810  -35.0390   23.4610 C   0  0  0  0  0  0  0  0  0  0  0  0
  -26.5160  -34.9420   22.4080 O   0  0  0  0  0  0  0  0  0  0  0  0
  -25.0070  -34.1230   25.0390 H   0  0  0  0  0  0  0  0  0  0  0  0
  -24.1250  -36.8270   23.2000 C   0  0  0  0  0  1  0  0  0  0  0  0
  -25.4100  -36.4280   23.9430 C   0  0  0  0  0  3  0  0  0  0  0  0
  -27.5720  -37.3420   24.6670 C   0  0  0  0  0  1  0  0  0  0  0  0
  -26.4270  -37.4900   23.7730 N   0  0  0  0  0  0  0  0  0  0  0  0
  -26.0200  -38.4080   23.9290 H   0  0  0  0  0  0  0  0  0  0  0  0
  -26.3970  -31.8180   25.1800 C   0  0  1  0  0  0  0  0  0  0  0  0
  -25.2920  -31.5950   26.2410 C   0  0  0  0  0  1  0  0  0  0  0  0
  -26.9810  -30.4330   24.8210 C   0  0  0  0  0  1  0  0  0  0  0  0
  -27.5430  -32.6160   25.8440 C   0  0  0  0  0  1  0  0  0  0  0  0
  2 44  1  0
  2  1  1  0
  3  5  1  0
  3  2  1  0
  3  1  1  0
  5 14  2  0
  5  4  1  0
  6 14  1  0
  7 12  1  0
  8  9  1  0
  8  7  1  0
 10  9  1  0
 10 19  1  0
 10 11  1  0
 12  6  1  0
 12 11  1  0
 13  6  2  0
 14 15  1  0
 16 17  2  0
 17 36  1  0
 18 17  1  0
 18 21  1  0
 19 20  1  0
 19 16  1  0
 20 18  2  0
 21 22  1  0
 22 23  2  0
 24 27  1  0
 24 23  1  0
 25 24  2  0
 26 25  1  0
 26 21  2  0
 27 28  1  0
 28 29  1  0
 29 30  2  0
 31 30  1  0
 31 35  1  0
 32 31  2  0
 33 28  2  0
 33 32  1  0
 34 33  1  0
 36 37  1  0
 37 40  1  0
 37 39  1  0
 38 36  2  0
 41 42  1  0
 41 16  1  0
 43 41  1  0
 44 45  1  0
 46 57  2  0
 47 45  1  0
 47 52  1  0
 48 56  1  0
 48 58  1  0
 49 55  1  0
 49 51  1  0
 50 56  1  0
 51 50  1  0
 52 51  2  0
 53 47  2  0
 54 53  1  0
 54 49  2  0
 55 48  1  0
 56 46  1  0
 58 60  2  0
 59 58  1  0
 61 59  1  0
 62 71  2  0
 62 67  1  0
 63 59  1  0
 63 67  1  0
 64 63  1  0
 65 66  1  0
 65 64  1  0
 66 62  1  0
 67 68  2  0
 68 69  1  0
 70 69  2  0
 71 70  1  0
 72 46  1  0
 72 73  1  0
 72 82  1  0
 73 76  1  0
 74 78  1  0
 74 73  1  0
 75 74  2  0
 78 77  1  0
 80 81  1  0
 80 78  1  0
 80 79  1  0
 82 85  1  1
 82 83  1  0
 84 82  1  0
M  ISO  4   6 100  14 100  44 101  45 101
M  END
>  <TORSDO>  (8) 
F 18

>  <SCORE>  (8) 
-16.596

>  <name>  (8) 
7

>  <ligand_id>  (8) 
7

>  <original_smiles>  (8) 
[H]c1c([H])c([H])c2c(c1[H])C([H])([H])C([H])([H])C([H])([H])C2([H])N([H])C(=O)C1([H])N(C(=O)C([H])(N([H])C(=O)C([H])(N([H])C([H])([H])[H])C([H])([H])[H])C(C([H])([H])[H])(C([H])([H])[H])C([H])([H])[H])C([H])([H])c2c([H])c(OC([H])([H])C3([H])C([H])([H])C3([H])C([H])(N([H])C(=O)N3C([H])([H])C([H])([H])C([H])([H])C([H])(n4nc(-c5c([H])c([H])c(Oc6c([H])c([H])c(F)c([H])c6F)c([H])c5[H])c(C(=O)N([H])[H])c4N([H])[H])C3([H])[H])C([H])([H])[H])c([H])c([H])c2C1([H])[H]

>  <smiles>  (8) 
[H]c1c([H])c([H])c2c(c1[H])C([H])([H])C([H])([H])C([H])([H])C2([H])N([H])C(=O)C1([H])N(C(=O)C([H])(N([H])C(=O)C([H])(N([H])C([H])([H])[H])C([H])([H])[H])C(C([H])([H])[H])(C([H])([H])[H])C([H])([H])[H])C([H])([H])c2c([H])c(OC([H])([H])C3([H])C([H])([H])C3([H])C([H])(N([H])C(=O)N3C([H])([H])C([H])([H])C([H])([H])C([H])(n4nc(-c5c([H])c([H])c(Oc6c([H])c([H])c(F)c([H])c6F)c([H])c5[H])c(C(=O)N([H])[H])c4N([H])[H])C3([H])[H])C([H])([H])[H])c([H])c([H])c2C1([H])[H]

$$$$
8:0:0
     RDKit          3D

 90 98  0  0  1  0  0  0  0  0999 V2000
  -30.6710  -15.0270   20.2410 C   0  0  0  0  0  0  0  0  0  0  0  0
  -30.5440  -12.5550   19.6590 C   0  0  0  0  0  2  0  0  0  0  0  0
  -29.6710  -12.3100   18.4070 C   0  0  0  0  0  2  0  0  0  0  0  0
  -28.1870  -12.1740   18.7960 C   0  0  0  0  0  2  0  0  0  0  0  0
  -27.7400  -13.2740   19.7940 C   0  0  0  0  0  3  0  0  0  0  0  0
  -28.7410  -13.4380   20.9560 C   0  0  0  0  0  2  0  0  0  0  0  0
  -30.0300  -13.7850   20.3410 N   0  0  0  0  0  0  0  0  0  0  0  0
  -31.8830  -14.9800   19.9990 O   0  0  0  0  0  0  0  0  0  0  0  0
  -30.5130  -17.6130   19.4580 C   0  0  0  0  0  2  0  0  0  0  0  0
  -28.8750  -16.8260   20.8850 C   0  0  0  0  0  2  0  0  0  0  0  0
  -29.4460  -18.8670   19.3970 C   0  0  0  0  0  3  0  0  0  0  0  0
  -28.4110  -18.2580   20.3790 C   0  0  0  0  0  3  0  0  0  0  0  0
  -29.9830  -16.2880   20.0710 N   0  0  0  0  0  0  0  0  0  0  0  0
  -25.3790  -14.0100   20.4410 C   0  0  0  0  0  0  0  0  0  0  0  0
  -24.2620  -13.3070   20.7980 C   0  0  0  0  0  0  0  0  0  0  0  0
  -24.6500  -11.9320   20.8250 C   0  0  0  0  0  0  0  0  0  0  0  0
  -26.3760  -13.0670   20.2590 N   0  0  0  0  0  0  0  0  0  0  0  0
  -25.9450  -11.8140   20.5570 N   0  0  0  0  0  0  0  0  0  0  0  0
  -23.8470  -10.7210   21.0330 C   0  0  0  0  0  0  0  0  0  0  0  0
  -24.2360   -9.7260   21.9560 C   0  0  0  0  0  3  0  0  0  0  0  0
  -23.4370   -8.5790   22.1530 C   0  0  0  0  0  3  0  0  0  0  0  0
  -22.2330   -8.4200   21.4260 C   0  0  0  0  0  0  0  0  0  0  0  0
  -21.8630   -9.4030   20.4900 C   0  0  0  0  0  3  0  0  0  0  0  0
  -22.6610  -10.5420   20.2930 C   0  0  0  0  0  3  0  0  0  0  0  0
  -21.4060   -7.3290   21.5320 O   0  0  0  0  0  0  0  0  0  0  0  0
  -21.3880   -6.5450   22.6570 C   0  0  0  0  0  0  0  0  0  0  0  0
  -21.1120   -7.0810   23.9350 C   0  0  0  0  0  3  0  0  0  0  0  0
  -21.0330   -6.2270   25.0520 C   0  0  0  0  0  3  0  0  0  0  0  0
  -21.2220   -4.8400   24.8950 C   0  0  0  0  0  0  0  0  0  0  0  0
  -21.4930   -4.3060   23.6220 C   0  0  0  0  0  3  0  0  0  0  0  0
  -21.5710   -5.1560   22.5070 C   0  0  0  0  0  0  0  0  0  0  0  0
  -21.8100   -4.6330   21.2800 F   0  0  0  0  0  0  0  0  0  0  0  0
  -21.1410   -4.0200   25.9680 F   0  0  0  0  0  0  0  0  0  0  0  0
  -22.8870  -13.8710   21.0040 C   0  0  0  0  0  0  0  0  0  0  0  0
  -22.0990  -13.2550   21.8760 N   0  0  0  0  0  0  0  0  0  0  0  0
  -22.5230  -14.8940   20.4260 O   0  0  0  0  0  0  0  0  0  0  0  0
  -22.4050  -12.4230   22.3570 H   0  0  0  0  0  0  0  0  0  0  0  0
  -21.1760  -13.6220   22.0630 H   0  0  0  0  0  0  0  0  0  0  0  0
  -25.6230  -15.3620   20.2230 N   0  0  0  0  0  0  0  0  0  0  0  0
  -24.8670  -16.0380   20.2370 H   0  0  0  0  0  0  0  0  0  0  0  0
  -26.4630  -15.7140   19.7870 H   0  0  0  0  0  0  0  0  0  0  0  0
  -27.9960  -19.1590   21.4710 N   0  0  0  0  0  4  0  0  0  0  0  0
  -28.7810  -19.4500   22.0250 H   0  0  0  0  0  0  0  0  0  0  0  0
  -27.3330  -18.7030   22.0730 H   0  0  0  0  0  0  0  0  0  0  0  0
  -27.5520  -19.9790   21.0980 H   0  0  0  0  0  0  0  0  0  0  0  0
  -29.8340  -20.5280   19.4460 C   0  0  0  0  0  2  0  0  0  0  0  0
  -28.8450  -21.8300   19.1640 C   0  0  0  0  0  3  0  0  0  0  0  0
  -29.0130  -23.2400   19.3290 C   0  0  0  0  0  3  0  0  0  0  0  0
  -28.0000  -24.5130   19.0110 C   0  0  0  0  0  2  0  0  0  0  0  0
  -28.2660  -26.0380   19.2780 O   0  0  0  0  0  0  0  0  0  0  0  0
  -24.4910  -31.3180   22.8290 C   0  0  0  0  0  0  0  0  0  0  0  0
  -27.1790  -26.9990   19.3170 C   0  0  0  0  0  0  0  0  0  0  0  0
  -23.3030  -30.0040   21.1150 C   0  0  0  0  0  3  0  0  0  0  0  0
  -24.7730  -28.6370   19.5090 C   0  0  0  0  0  0  0  0  0  0  0  0
  -25.8350  -30.4070   20.8960 C   0  0  0  0  0  2  0  0  0  0  0  0
  -25.9510  -29.0800   20.1220 C   0  0  0  0  0  0  0  0  0  0  0  0
  -27.1520  -28.2790   20.0120 C   0  0  0  0  0  3  0  0  0  0  0  0
  -25.9700  -26.6740   18.6610 C   0  0  0  0  0  3  0  0  0  0  0  0
  -24.7970  -27.4520   18.7600 C   0  0  0  0  0  3  0  0  0  0  0  0
  -23.5050  -29.4610   19.6770 C   0  0  0  0  0  2  0  0  0  0  0  0
  -24.5640  -30.5970   21.6680 N   0  0  0  0  0  0  0  0  0  0  0  0
  -23.4110  -31.4990   23.4130 O   0  0  0  0  0  0  0  0  0  0  0  0
  -22.7110  -28.8850   22.0090 C   0  0  0  0  0  0  0  0  0  0  0  0
  -21.3810  -28.6900   21.9490 N   0  0  0  0  0  0  0  0  0  0  0  0
  -23.4470  -28.1990   22.7230 O   0  0  0  0  0  0  0  0  0  0  0  0
  -20.8390  -29.3030   21.3570 H   0  0  0  0  0  0  0  0  0  0  0  0
  -18.0630  -27.3630   22.5590 C   0  0  0  0  0  0  0  0  0  0  0  0
  -20.6320  -27.6530   22.6670 C   0  0  0  0  0  3  0  0  0  0  0  0
  -20.7100  -26.2940   21.9330 C   0  0  0  0  0  2  0  0  0  0  0  0
  -19.5430  -26.0600   20.9710 C   0  0  0  0  0  2  0  0  0  0  0  0
  -18.2090  -26.1020   21.7210 C   0  0  0  0  0  2  0  0  0  0  0  0
  -19.1990  -28.1000   22.9880 C   0  0  0  0  0  0  0  0  0  0  0  0
  -19.0050  -29.2830   23.7330 C   0  0  0  0  0  3  0  0  0  0  0  0
  -17.7090  -29.7310   24.0510 C   0  0  0  0  0  3  0  0  0  0  0  0
  -16.5890  -28.9890   23.6360 C   0  0  0  0  0  3  0  0  0  0  0  0
  -16.7670  -27.8060   22.8960 C   0  0  0  0  0  3  0  0  0  0  0  0
  -25.7570  -31.9650   23.4670 C   0  0  0  0  0  3  0  0  0  0  0  0
  -26.3760  -31.1000   24.6340 C   0  0  1  0  0  0  0  0  0  0  0  0
  -25.3520  -30.6880   25.7190 C   0  0  0  0  0  1  0  0  0  0  0  0
  -27.0140  -29.8050   24.0790 C   0  0  0  0  0  1  0  0  0  0  0  0
  -27.5150  -31.8890   25.3220 C   0  0  0  0  0  1  0  0  0  0  0  0
  -25.3770  -33.2960   23.9680 N   0  0  0  0  0  0  0  0  0  0  0  0
  -25.6150  -34.4510   23.3300 C   0  0  0  0  0  0  0  0  0  0  0  0
  -26.2460  -34.5110   22.2720 O   0  0  0  0  0  0  0  0  0  0  0  0
  -24.8140  -33.3200   24.8040 H   0  0  0  0  0  0  0  0  0  0  0  0
  -23.7670  -36.1580   23.2660 C   0  0  0  0  0  1  0  0  0  0  0  0
  -25.0690  -35.7430   23.9690 C   0  0  0  0  0  3  0  0  0  0  0  0
  -27.1860  -36.6640   24.8050 C   0  0  0  0  0  1  0  0  0  0  0  0
  -26.0280  -36.8690   23.9380 N   0  0  0  0  0  0  0  0  0  0  0  0
  -25.5760  -37.7350   24.2170 H   0  0  0  0  0  0  0  0  0  0  0  0
  1  7  1  0
  2  7  1  0
  3  4  1  0
  3  2  1  0
  5  4  1  0
  5 17  1  0
  5  6  1  0
  7  6  1  0
  8  1  2  0
  9 13  1  0
 11 46  1  0
 11  9  1  0
 11 12  1  0
 12 10  1  0
 12 42  1  0
 13  1  1  0
 13 10  1  0
 14 15  2  0
 15 16  1  0
 15 34  1  0
 16 19  1  0
 17 14  1  0
 17 18  1  0
 18 16  2  0
 19 20  1  0
 20 21  2  0
 22 25  1  0
 22 21  1  0
 23 22  2  0
 24 23  1  0
 24 19  2  0
 25 26  1  0
 26 27  1  0
 27 28  2  0
 29 28  1  0
 29 33  1  0
 30 29  2  0
 31 26  2  0
 31 30  1  0
 32 31  1  0
 34 35  1  0
 35 38  1  0
 35 37  1  0
 36 34  2  0
 39 40  1  0
 39 14  1  0
 41 39  1  0
 42 43  1  0
 42 44  1  0
 45 42  1  0
 47 48  2  0
 47 46  1  0
 49 50  1  0
 49 48  1  0
 50 52  1  0
 51 62  2  0
 52 57  1  0
 53 61  1  0
 53 63  1  0
 54 60  1  0
 54 56  1  0
 55 61  1  0
 56 55  1  0
 57 56  2  0
 58 59  1  0
 58 52  2  0
 59 54  2  0
 60 53  1  0
 61 51  1  0
 63 65  2  0
 64 63  1  0
 66 64  1  0
 67 76  2  0
 67 72  1  0
 68 64  1  0
 68 72  1  0
 69 68  1  0
 70 71  1  0
 70 69  1  0
 71 67  1  0
 72 73  2  0
 73 74  1  0
 75 74  2  0
 76 75  1  0
 77 51  1  0
 77 82  1  0
 77 78  1  0
 78 81  1  1
 78 79  1  0
 80 78  1  0
 82 85  1  0
 83 82  1  0
 83 87  1  0
 84 83  2  0
 87 86  1  0
 89 87  1  0
 89 90  1  0
 89 88  1  0
M  ISO  4   1 100  13 100  49 101  50 101
M  END
>  <TORSDO>  (9) 
F 19

>  <SCORE>  (9) 
-11.991

>  <name>  (9) 
8

>  <ligand_id>  (9) 
8

>  <original_smiles>  (9) 
[H]C(=C([H])C([H])([H])C1([H])C([H])([H])N(C(=O)N2C([H])([H])C([H])([H])C([H])([H])C([H])(n3nc(-c4c([H])c([H])c(Oc5c([H])c([H])c(F)c([H])c5F)c([H])c4[H])c(C(=O)N([H])[H])c3N([H])[H])C2([H])[H])C([H])([H])C1([H])[N+]([H])([H])[H])C([H])([H])Oc1c([H])c([H])c2c(c1[H])C([H])([H])N(C(=O)C([H])(N([H])C(=O)C([H])(N([H])C([H])([H])[H])C([H])([H])[H])C(C([H])([H])[H])(C([H])([H])[H])C([H])([H])[H])C([H])(C(=O)N([H])C1([H])c3c([H])c([H])c([H])c([H])c3C([H])([H])C([H])([H])C1([H])[H])C2([H])[H]

>  <smiles>  (9) 
[H]C(=C([H])C([H])([H])C1([H])C([H])([H])N(C(=O)N2C([H])([H])C([H])([H])C([H])([H])C([H])(n3nc(-c4c([H])c([H])c(Oc5c([H])c([H])c(F)c([H])c5F)c([H])c4[H])c(C(=O)N([H])[H])c3N([H])[H])C2([H])[H])C([H])([H])C1([H])[N+]([H])([H])[H])C([H])([H])Oc1c([H])c([H])c2c(c1[H])C([H])([H])N(C(=O)C([H])(N([H])C(=O)C([H])(N([H])C([H])([H])[H])C([H])([H])[H])C(C([H])([H])[H])(C([H])([H])[H])C([H])([H])[H])C([H])(C(=O)N([H])C1([H])c3c([H])c([H])c([H])c([H])c3C([H])([H])C([H])([H])C1([H])[H])C2([H])[H]

$$$$
9:0:0
     RDKit          3D

 86 94  0  0  1  0  0  0  0  0999 V2000
  -29.1800  -21.0830   19.5790 C   0  0  0  0  0  2  0  0  0  0  0  0
  -29.4450  -17.9980   22.1540 C   0  0  0  0  0  3  0  0  0  0  0  0
  -29.8360  -16.8080   21.4820 C   0  0  0  0  0  3  0  0  0  0  0  0
  -29.3020  -19.2660   21.5330 C   0  0  0  0  0  3  0  0  0  0  0  0
  -29.9780  -18.1560   19.4900 C   0  0  0  0  0  3  0  0  0  0  0  0
  -30.1340  -16.7470   20.1020 C   0  0  0  0  0  0  0  0  0  0  0  0
  -29.5430  -19.4800   20.1620 C   0  0  0  0  0  0  0  0  0  0  0  0
  -30.7120  -15.2780   19.5140 C   0  0  0  0  0  0  0  0  0  0  0  0
  -30.4550  -12.9000   18.5020 C   0  0  0  0  0  2  0  0  0  0  0  0
  -29.3680  -12.8450   17.3950 C   0  0  0  0  0  2  0  0  0  0  0  0
  -27.9780  -12.6000   18.0060 C   0  0  0  0  0  2  0  0  0  0  0  0
  -27.7370  -13.4840   19.2540 C   0  0  0  0  0  3  0  0  0  0  0  0
  -28.9300  -13.4800   20.2290 C   0  0  0  0  0  2  0  0  0  0  0  0
  -30.1040  -13.9850   19.4950 N   0  0  0  0  0  0  0  0  0  0  0  0
  -31.8290  -15.2710   18.9750 O   0  0  0  0  0  0  0  0  0  0  0  0
  -25.5330  -14.0700   20.3950 C   0  0  0  0  0  0  0  0  0  0  0  0
  -24.4930  -13.3070   20.8480 C   0  0  0  0  0  0  0  0  0  0  0  0
  -24.8750  -11.9480   20.6320 C   0  0  0  0  0  0  0  0  0  0  0  0
  -26.4780  -13.1780   19.9210 N   0  0  0  0  0  0  0  0  0  0  0  0
  -26.1050  -11.8880   20.1300 N   0  0  0  0  0  0  0  0  0  0  0  0
  -24.1140  -10.7050   20.8190 C   0  0  0  0  0  0  0  0  0  0  0  0
  -24.5850   -9.6660   21.6530 C   0  0  0  0  0  3  0  0  0  0  0  0
  -23.8220   -8.4910   21.8330 C   0  0  0  0  0  3  0  0  0  0  0  0
  -22.5750   -8.3470   21.1810 C   0  0  0  0  0  0  0  0  0  0  0  0
  -22.1210   -9.3740   20.3350 C   0  0  0  0  0  3  0  0  0  0  0  0
  -22.8840  -10.5400   20.1520 C   0  0  0  0  0  3  0  0  0  0  0  0
  -21.7800   -7.2300   21.2760 O   0  0  0  0  0  0  0  0  0  0  0  0
  -21.7500   -6.4620   22.4120 C   0  0  0  0  0  0  0  0  0  0  0  0
  -21.4130   -7.0050   23.6700 C   0  0  0  0  0  3  0  0  0  0  0  0
  -21.3260   -6.1660   24.7990 C   0  0  0  0  0  3  0  0  0  0  0  0
  -21.5670   -4.7860   24.6710 C   0  0  0  0  0  0  0  0  0  0  0  0
  -21.8980   -4.2420   23.4170 C   0  0  0  0  0  3  0  0  0  0  0  0
  -21.9860   -5.0780   22.2910 C   0  0  0  0  0  0  0  0  0  0  0  0
  -22.2840   -4.5450   21.0810 F   0  0  0  0  0  0  0  0  0  0  0  0
  -21.4770   -3.9780   25.7540 F   0  0  0  0  0  0  0  0  0  0  0  0
  -23.1780  -13.8170   21.3610 C   0  0  0  0  0  0  0  0  0  0  0  0
  -22.5550  -13.0880   22.2790 N   0  0  0  0  0  0  0  0  0  0  0  0
  -22.7200  -14.8940   20.9840 O   0  0  0  0  0  0  0  0  0  0  0  0
  -22.9420  -12.2140   22.6040 H   0  0  0  0  0  0  0  0  0  0  0  0
  -21.6780  -13.4080   22.6650 H   0  0  0  0  0  0  0  0  0  0  0  0
  -25.7460  -15.4430   20.3190 N   0  0  0  0  0  0  0  0  0  0  0  0
  -25.0510  -16.1170   20.6200 H   0  0  0  0  0  0  0  0  0  0  0  0
  -26.5850  -15.8770   19.9540 H   0  0  0  0  0  0  0  0  0  0  0  0
  -28.9150  -22.6840   20.3590 C   0  0  0  0  0  3  0  0  0  0  0  0
  -28.1630  -24.2320   19.8170 C   0  0  0  0  0  3  0  0  0  0  0  0
  -28.2070  -25.8110   20.2870 O   0  0  0  0  0  0  0  0  0  0  0  0
  -24.5220  -31.7220   23.1360 C   0  0  0  0  0  0  0  0  0  0  0  0
  -27.1780  -26.8810   20.1630 C   0  0  0  0  0  0  0  0  0  0  0  0
  -23.3630  -30.3020   21.4920 C   0  0  0  0  0  3  0  0  0  0  0  0
  -24.8490  -28.7170   20.0850 C   0  0  0  0  0  0  0  0  0  0  0  0
  -25.9260  -30.5540   21.3690 C   0  0  0  0  0  2  0  0  0  0  0  0
  -26.0210  -29.1440   20.7180 C   0  0  0  0  0  0  0  0  0  0  0  0
  -27.1770  -28.2450   20.7370 C   0  0  0  0  0  3  0  0  0  0  0  0
  -25.9780  -26.6070   19.4680 C   0  0  0  0  0  3  0  0  0  0  0  0
  -24.8510  -27.4690   19.4390 C   0  0  0  0  0  3  0  0  0  0  0  0
  -23.6150  -29.6180   20.1200 C   0  0  0  0  0  2  0  0  0  0  0  0
  -24.6240  -30.8870   22.0530 N   0  0  0  0  0  0  0  0  0  0  0  0
  -23.4240  -31.9970   23.6470 O   0  0  0  0  0  0  0  0  0  0  0  0
  -22.6760  -29.3000   22.4560 C   0  0  0  0  0  0  0  0  0  0  0  0
  -21.3530  -29.0980   22.3050 N   0  0  0  0  0  0  0  0  0  0  0  0
  -23.3390  -28.7040   23.3080 O   0  0  0  0  0  0  0  0  0  0  0  0
  -20.8700  -29.6310   21.5950 H   0  0  0  0  0  0  0  0  0  0  0  0
  -18.0000  -27.7800   22.7320 C   0  0  0  0  0  0  0  0  0  0  0  0
  -20.5390  -28.1490   23.0710 C   0  0  0  0  0  3  0  0  0  0  0  0
  -20.7120  -26.7090   22.5350 C   0  0  0  0  0  2  0  0  0  0  0  0
  -19.6570  -26.3220   21.4940 C   0  0  0  0  0  2  0  0  0  0  0  0
  -18.2500  -26.4250   22.0900 C   0  0  0  0  0  2  0  0  0  0  0  0
  -19.0750  -28.5950   23.1780 C   0  0  0  0  0  0  0  0  0  0  0  0
  -18.7860  -29.8580   23.7400 C   0  0  0  0  0  3  0  0  0  0  0  0
  -17.4580  -30.3070   23.8590 C   0  0  0  0  0  3  0  0  0  0  0  0
  -16.3980  -29.4910   23.4260 C   0  0  0  0  0  3  0  0  0  0  0  0
  -16.6700  -28.2290   22.8690 C   0  0  0  0  0  3  0  0  0  0  0  0
  -25.7790  -32.3850   23.7780 C   0  0  0  0  0  3  0  0  0  0  0  0
  -26.2670  -31.6490   25.0870 C   0  0  1  0  0  0  0  0  0  0  0  0
  -25.1490  -31.4290   26.1340 C   0  0  0  0  0  1  0  0  0  0  0  0
  -26.8700  -30.2650   24.7520 C   0  0  0  0  0  1  0  0  0  0  0  0
  -27.3960  -32.4680   25.7580 C   0  0  0  0  0  1  0  0  0  0  0  0
  -25.4450  -33.7890   24.0810 N   0  0  0  0  0  0  0  0  0  0  0  0
  -25.7780  -34.8380   23.3180 C   0  0  0  0  0  0  0  0  0  0  0  0
  -26.4580  -34.7290   22.2960 O   0  0  0  0  0  0  0  0  0  0  0  0
  -24.8400  -33.9460   24.8730 H   0  0  0  0  0  0  0  0  0  0  0  0
  -24.0340  -36.6170   22.9410 C   0  0  0  0  0  1  0  0  0  0  0  0
  -25.2780  -36.2310   23.7580 C   0  0  0  0  0  3  0  0  0  0  0  0
  -27.4040  -37.1490   24.5780 C   0  0  0  0  0  1  0  0  0  0  0  0
  -26.3010  -37.2920   23.6310 N   0  0  0  0  0  0  0  0  0  0  0  0
  -25.8860  -38.2100   23.7650 H   0  0  0  0  0  0  0  0  0  0  0  0
  1  7  1  0
  1 44  1  0
  3  2  2  0
  4  2  1  0
  5  6  2  0
  5  7  1  0
  6  3  1  0
  7  4  2  0
  8  6  1  0
  9 14  1  0
 10 11  1  0
 10  9  1  0
 12 11  1  0
 12 19  1  0
 12 13  1  0
 14  8  1  0
 14 13  1  0
 15  8  2  0
 16 17  2  0
 17 36  1  0
 18 21  1  0
 18 17  1  0
 19 20  1  0
 19 16  1  0
 20 18  2  0
 21 22  1  0
 22 23  2  0
 24 27  1  0
 24 23  1  0
 25 24  2  0
 26 25  1  0
 26 21  2  0
 27 28  1  0
 28 29  1  0
 29 30  2  0
 31 30  1  0
 31 35  1  0
 32 31  2  0
 33 28  2  0
 33 32  1  0
 34 33  1  0
 36 37  1  0
 37 39  1  0
 37 40  1  0
 38 36  2  0
 41 16  1  0
 41 42  1  0
 43 41  1  0
 45 46  1  0
 45 44  2  0
 47 58  2  0
 48 46  1  0
 48 53  1  0
 49 57  1  0
 49 59  1  0
 50 56  1  0
 50 52  1  0
 51 57  1  0
 52 53  2  0
 52 51  1  0
 54 48  2  0
 55 54  1  0
 55 50  2  0
 56 49  1  0
 57 47  1  0
 59 61  2  0
 60 59  1  0
 62 60  1  0
 63 72  2  0
 63 68  1  0
 64 60  1  0
 64 68  1  0
 65 64  1  0
 66 67  1  0
 66 65  1  0
 67 63  1  0
 68 69  2  0
 69 70  1  0
 71 70  2  0
 72 71  1  0
 73 47  1  0
 73 78  1  0
 73 74  1  0
 74 77  1  1
 74 75  1  0
 76 74  1  0
 78 81  1  0
 79 83  1  0
 79 78  1  0
 80 79  2  0
 83 82  1  0
 85 83  1  0
 85 86  1  0
 85 84  1  0
M  ISO  4   6 100   8 100  45 101  46 101
M  END
>  <TORSDO>  (10) 
F 19

>  <SCORE>  (10) 
-12.249

>  <name>  (10) 
9

>  <ligand_id>  (10) 
9

>  <original_smiles>  (10) 
[H]c1c([H])c(C(=O)N2C([H])([H])C([H])([H])C([H])([H])C([H])(n3nc(-c4c([H])c([H])c(Oc5c([H])c([H])c(F)c([H])c5F)c([H])c4[H])c(C(=O)N([H])[H])c3N([H])[H])C2([H])[H])c([H])c(C([H])([H])C([H])([H])C([H])([H])Oc2c([H])c([H])c3c(c2[H])C([H])([H])N(C(=O)C([H])(N([H])C(=O)C([H])(N([H])C([H])([H])[H])C([H])([H])[H])C(C([H])([H])[H])(C([H])([H])[H])C([H])([H])[H])C([H])(C(=O)N([H])C2([H])c4c([H])c([H])c([H])c([H])c4C([H])([H])C([H])([H])C2([H])[H])C3([H])[H])c1[H]

>  <smiles>  (10) 
[H]c1c([H])c(C(=O)N2C([H])([H])C([H])([H])C([H])([H])C([H])(n3nc(-c4c([H])c([H])c(Oc5c([H])c([H])c(F)c([H])c5F)c([H])c4[H])c(C(=O)N([H])[H])c3N([H])[H])C2([H])[H])c([H])c(C([H])([H])C([H])([H])C([H])([H])Oc2c([H])c([H])c3c(c2[H])C([H])([H])N(C(=O)C([H])(N([H])C(=O)C([H])(N([H])C([H])([H])[H])C([H])([H])[H])C(C([H])([H])[H])(C([H])([H])[H])C([H])([H])[H])C([H])(C(=O)N([H])C2([H])c4c([H])c([H])c([H])c([H])c4C([H])([H])C([H])([H])C2([H])[H])C3([H])[H])c1[H]

$$$$
10:0:0
     RDKit          3D

 90 99  0  0  1  0  0  0  0  0999 V2000
  -29.8710  -21.5930   19.5240 C   0  0  0  0  0  3  0  0  0  0  0  0
  -28.1150  -20.9620   20.1450 C   0  0  0  0  0  3  0  0  0  0  0  0
  -28.7200  -22.4980   20.2760 C   0  0  0  0  0  3  0  0  0  0  0  0
  -29.5030  -20.0740   20.0780 C   0  0  0  0  0  3  0  0  0  0  0  0
  -27.9290  -24.0830   19.8780 C   0  0  0  0  0  2  0  0  0  0  0  0
  -28.0780  -25.6760   20.2850 O   0  0  0  0  0  0  0  0  0  0  0  0
  -24.3580  -31.6150   23.0980 C   0  0  0  0  0  0  0  0  0  0  0  0
  -27.0540  -26.7580   20.1700 C   0  0  0  0  0  0  0  0  0  0  0  0
  -23.2210  -30.1800   21.4530 C   0  0  0  0  0  3  0  0  0  0  0  0
  -24.7230  -28.5940   20.0650 C   0  0  0  0  0  0  0  0  0  0  0  0
  -25.7840  -30.4360   21.3540 C   0  0  0  0  0  2  0  0  0  0  0  0
  -25.8910  -29.0240   20.7070 C   0  0  0  0  0  0  0  0  0  0  0  0
  -27.0490  -28.1250   20.7360 C   0  0  0  0  0  3  0  0  0  0  0  0
  -25.8570  -26.4800   19.4700 C   0  0  0  0  0  3  0  0  0  0  0  0
  -24.7300  -27.3430   19.4280 C   0  0  0  0  0  3  0  0  0  0  0  0
  -23.4860  -29.4930   20.0860 C   0  0  0  0  0  2  0  0  0  0  0  0
  -24.4750  -30.7730   22.0220 N   0  0  0  0  0  0  0  0  0  0  0  0
  -23.2540  -31.8900   23.5950 O   0  0  0  0  0  0  0  0  0  0  0  0
  -22.5290  -29.1800   22.4150 C   0  0  0  0  0  0  0  0  0  0  0  0
  -21.2010  -29.0030   22.2770 N   0  0  0  0  0  0  0  0  0  0  0  0
  -23.1920  -28.5640   23.2520 O   0  0  0  0  0  0  0  0  0  0  0  0
  -20.7180  -29.5490   21.5770 H   0  0  0  0  0  0  0  0  0  0  0  0
  -17.8210  -27.7810   22.7810 C   0  0  0  0  0  0  0  0  0  0  0  0
  -20.3790  -28.0590   23.0450 C   0  0  0  0  0  3  0  0  0  0  0  0
  -20.4870  -26.6290   22.4670 C   0  0  0  0  0  2  0  0  0  0  0  0
  -19.3870  -26.3030   21.4510 C   0  0  0  0  0  2  0  0  0  0  0  0
  -18.0040  -26.4380   22.0950 C   0  0  0  0  0  2  0  0  0  0  0  0
  -18.9360  -28.5500   23.2120 C   0  0  0  0  0  0  0  0  0  0  0  0
  -18.7060  -29.8050   23.8150 C   0  0  0  0  0  3  0  0  0  0  0  0
  -17.3980  -30.2950   23.9860 C   0  0  0  0  0  3  0  0  0  0  0  0
  -16.2980  -29.5250   23.5690 C   0  0  0  0  0  3  0  0  0  0  0  0
  -16.5100  -28.2680   22.9740 C   0  0  0  0  0  3  0  0  0  0  0  0
  -25.6060  -32.2860   23.7460 C   0  0  0  0  0  3  0  0  0  0  0  0
  -25.2570  -33.6820   24.0620 N   0  0  0  0  0  0  0  0  0  0  0  0
  -25.5800  -34.7440   23.3110 C   0  0  0  0  0  0  0  0  0  0  0  0
  -26.2670  -34.6500   22.2900 O   0  0  0  0  0  0  0  0  0  0  0  0
  -24.6430  -33.8240   24.8500 H   0  0  0  0  0  0  0  0  0  0  0  0
  -23.8190  -36.5040   22.9390 C   0  0  0  0  0  1  0  0  0  0  0  0
  -25.0620  -36.1260   23.7590 C   0  0  0  0  0  3  0  0  0  0  0  0
  -27.1730  -37.0560   24.6020 C   0  0  0  0  0  1  0  0  0  0  0  0
  -26.0760  -37.2000   23.6500 N   0  0  0  0  0  0  0  0  0  0  0  0
  -25.6500  -38.1120   23.7950 H   0  0  0  0  0  0  0  0  0  0  0  0
  -26.1000  -31.5440   25.0510 C   0  0  1  0  0  0  0  0  0  0  0  0
  -24.9790  -31.2980   26.0910 C   0  0  0  0  0  1  0  0  0  0  0  0
  -26.7250  -30.1730   24.7070 C   0  0  0  0  0  1  0  0  0  0  0  0
  -27.2150  -32.3730   25.7330 C   0  0  0  0  0  1  0  0  0  0  0  0
  -29.8940  -18.4530   19.3580 C   0  0  0  0  0  3  0  0  0  0  0  0
  -29.0060  -18.2760   18.1980 N   0  0  0  0  0  4  0  0  0  0  0  0
  -28.0440  -18.2510   18.4830 H   0  0  0  0  0  0  0  0  0  0  0  0
  -29.2210  -17.4280   17.7080 H   0  0  0  0  0  0  0  0  0  0  0  0
  -29.1270  -19.0360   17.5520 H   0  0  0  0  0  0  0  0  0  0  0  0
  -30.2090  -16.8230   20.0780 C   0  0  0  0  0  3  0  0  0  0  0  0
  -30.6500  -15.2110   19.4630 C   0  0  0  0  0  0  0  0  0  0  0  0
  -30.3880  -12.8010   18.5050 C   0  0  0  0  0  2  0  0  0  0  0  0
  -29.3160  -12.7040   17.3890 C   0  0  0  0  0  2  0  0  0  0  0  0
  -27.9210  -12.4690   17.9920 C   0  0  0  0  0  2  0  0  0  0  0  0
  -27.6640  -13.3730   19.2240 C   0  0  0  0  0  3  0  0  0  0  0  0
  -28.8580  -13.4140   20.2060 C   0  0  0  0  0  2  0  0  0  0  0  0
  -30.0250  -13.9200   19.4610 N   0  0  0  0  0  0  0  0  0  0  0  0
  -31.7660  -15.1370   18.9250 O   0  0  0  0  0  0  0  0  0  0  0  0
  -25.4090  -13.9420   20.2760 C   0  0  0  0  0  0  0  0  0  0  0  0
  -24.3920  -13.1740   20.7610 C   0  0  0  0  0  0  0  0  0  0  0  0
  -24.8150  -11.8180   20.6120 C   0  0  0  0  0  0  0  0  0  0  0  0
  -26.4000  -13.0620   19.8790 N   0  0  0  0  0  0  0  0  0  0  0  0
  -26.0570  -11.7710   20.1400 N   0  0  0  0  0  0  0  0  0  0  0  0
  -24.0760  -10.5680   20.8340 C   0  0  0  0  0  0  0  0  0  0  0  0
  -24.5500   -9.5740   21.7190 C   0  0  0  0  0  3  0  0  0  0  0  0
  -23.8060   -8.3940   21.9330 C   0  0  0  0  0  3  0  0  0  0  0  0
  -22.5740   -8.1980   21.2640 C   0  0  0  0  0  0  0  0  0  0  0  0
  -22.1200   -9.1780   20.3650 C   0  0  0  0  0  3  0  0  0  0  0  0
  -22.8630  -10.3500   20.1490 C   0  0  0  0  0  3  0  0  0  0  0  0
  -21.7980   -7.0710   21.3920 O   0  0  0  0  0  0  0  0  0  0  0  0
  -21.7620   -6.3500   22.5590 C   0  0  0  0  0  0  0  0  0  0  0  0
  -21.3840   -6.9350   23.7860 C   0  0  0  0  0  3  0  0  0  0  0  0
  -21.2940   -6.1430   24.9470 C   0  0  0  0  0  3  0  0  0  0  0  0
  -21.5750   -4.7660   24.8840 C   0  0  0  0  0  0  0  0  0  0  0  0
  -21.9480   -4.1790   23.6620 C   0  0  0  0  0  3  0  0  0  0  0  0
  -22.0380   -4.9690   22.5020 C   0  0  0  0  0  0  0  0  0  0  0  0
  -22.3770   -4.3940   21.3230 F   0  0  0  0  0  0  0  0  0  0  0  0
  -21.4820   -4.0020   25.9970 F   0  0  0  0  0  0  0  0  0  0  0  0
  -23.0580  -13.6740   21.2290 C   0  0  0  0  0  0  0  0  0  0  0  0
  -22.4380  -12.9740   22.1700 N   0  0  0  0  0  0  0  0  0  0  0  0
  -22.5820  -14.7240   20.7980 O   0  0  0  0  0  0  0  0  0  0  0  0
  -22.8430  -12.1270   22.5420 H   0  0  0  0  0  0  0  0  0  0  0  0
  -21.5470  -13.2880   22.5270 H   0  0  0  0  0  0  0  0  0  0  0  0
  -25.5460  -15.3130   20.1070 N   0  0  0  0  0  0  0  0  0  0  0  0
  -24.8000  -15.9560   20.3520 H   0  0  0  0  0  0  0  0  0  0  0  0
  -26.3250  -15.7620   19.6500 H   0  0  0  0  0  0  0  0  0  0  0  0
  -28.0850  -16.7380   21.5600 C   0  0  0  0  0  1  0  0  0  0  0  0
  -29.6110  -16.7390   21.4980 C   0  0  0  0  0  2  0  0  0  0  0  0
  1  4  1  0
  1  2  1  0
  1  3  1  0
  2  3  1  0
  4  2  1  0
  5  3  1  0
  5  6  1  0
  7 18  2  0
  7 33  1  0
  8  6  1  0
  8 13  1  0
  9 17  1  0
  9 19  1  0
 10 16  1  0
 10 12  1  0
 11 17  1  0
 12 13  2  0
 12 11  1  0
 14  8  2  0
 15 14  1  0
 15 10  2  0
 16  9  1  0
 17  7  1  0
 19 21  2  0
 20 19  1  0
 20 24  1  0
 22 20  1  0
 23 32  2  0
 23 28  1  0
 24 28  1  0
 25 24  1  0
 26 27  1  0
 26 25  1  0
 27 23  1  0
 28 29  2  0
 29 30  1  0
 31 30  2  0
 32 31  1  0
 33 34  1  0
 33 43  1  0
 34 37  1  0
 35 39  1  0
 35 34  1  0
 36 35  2  0
 38 39  1  0
 41 39  1  0
 41 42  1  0
 41 40  1  0
 43 46  1  1
 43 44  1  0
 45 43  1  0
 47 52  1  0
 47  4  1  0
 48 49  1  0
 48 47  1  0
 50 48  1  0
 51 48  1  0
 52 90  1  0
 53 52  1  0
 54 59  1  0
 55 56  1  0
 55 54  1  0
 56 57  1  0
 57 64  1  0
 57 58  1  0
 59 53  1  0
 59 58  1  0
 60 53  2  0
 61 62  2  0
 62 81  1  0
 63 62  1  0
 63 66  1  0
 64 65  1  0
 64 61  1  0
 65 63  2  0
 66 67  1  0
 67 68  2  0
 69 72  1  0
 69 68  1  0
 70 69  2  0
 71 70  1  0
 71 66  2  0
 72 73  1  0
 73 74  1  0
 74 75  2  0
 76 75  1  0
 76 80  1  0
 77 76  2  0
 78 73  2  0
 78 77  1  0
 79 78  1  0
 81 82  1  0
 82 85  1  0
 82 84  1  0
 83 81  2  0
 86 61  1  0
 86 87  1  0
 88 86  1  0
 90 89  1  0
M  ISO  4   5 101   6 101  52 100  53 100
M  END
>  <TORSDO>  (11) 
F 21

>  <SCORE>  (11) 
-13.108

>  <name>  (11) 
10

>  <ligand_id>  (11) 
10

>  <original_smiles>  (11) 
[H]c1c([H])c([H])c2c(c1[H])C([H])([H])C([H])([H])C([H])([H])C2([H])N([H])C(=O)C1([H])N(C(=O)C([H])(N([H])C(=O)C([H])(N([H])C([H])([H])[H])C([H])([H])[H])C(C([H])([H])[H])(C([H])([H])[H])C([H])([H])[H])C([H])([H])c2c([H])c(OC([H])([H])C3([H])C([H])([H])C([H])(C([H])(C([H])(C(=O)N4C([H])([H])C([H])([H])C([H])([H])C([H])(n5nc(-c6c([H])c([H])c(Oc7c([H])c([H])c(F)c([H])c7F)c([H])c6[H])c(C(=O)N([H])[H])c5N([H])[H])C4([H])[H])C([H])([H])C([H])([H])[H])[N+]([H])([H])[H])C3([H])[H])c([H])c([H])c2C1([H])[H]

>  <smiles>  (11) 
[H]c1c([H])c([H])c2c(c1[H])C([H])([H])C([H])([H])C([H])([H])C2([H])N([H])C(=O)C1([H])N(C(=O)C([H])(N([H])C(=O)C([H])(N([H])C([H])([H])[H])C([H])([H])[H])C(C([H])([H])[H])(C([H])([H])[H])C([H])([H])[H])C([H])([H])c2c([H])c(OC([H])([H])C3([H])C([H])([H])C([H])(C([H])(C([H])(C(=O)N4C([H])([H])C([H])([H])C([H])([H])C([H])(n5nc(-c6c([H])c([H])c(Oc7c([H])c([H])c(F)c([H])c7F)c([H])c6[H])c(C(=O)N([H])[H])c5N([H])[H])C4([H])[H])C([H])([H])C([H])([H])[H])[N+]([H])([H])[H])C3([H])[H])c([H])c([H])c2C1([H])[H]

$$$$
11:0:0
     RDKit          3D

 89 97  0  0  1  0  0  0  0  0999 V2000
  -29.6570  -22.8520   18.8350 C   0  0  0  0  0  2  0  0  0  0  0  0
  -29.8500  -21.2830   18.6760 C   0  0  0  0  0  2  0  0  0  0  0  0
  -28.4250  -21.7060   20.4850 C   0  0  0  0  0  2  0  0  0  0  0  0
  -28.9450  -23.2190   20.1700 C   0  0  0  0  0  3  0  0  0  0  0  0
  -29.4280  -20.5250   19.9600 C   0  0  0  0  0  3  0  0  0  0  0  0
  -27.9670  -18.6310   20.9630 C   0  0  0  0  0  1  0  0  0  0  0  0
  -28.9710  -18.8950   19.8300 C   0  0  0  0  0  3  0  0  0  0  0  0
  -29.6610  -16.1790   19.8560 C   0  0  0  0  0  3  0  0  0  0  0  0
  -29.9520  -17.5670   19.7060 C   0  0  0  0  0  0  0  0  0  0  0  0
  -30.5470  -14.9060   19.7050 C   0  0  0  0  0  0  0  0  0  0  0  0
  -30.4540  -12.4780   18.9740 C   0  0  0  0  0  2  0  0  0  0  0  0
  -29.4620  -12.3330   17.7950 C   0  0  0  0  0  2  0  0  0  0  0  0
  -28.0250  -12.1220   18.3140 C   0  0  0  0  0  2  0  0  0  0  0  0
  -27.6550  -13.1190   19.4430 C   0  0  0  0  0  3  0  0  0  0  0  0
  -28.7660  -13.2280   20.5080 C   0  0  0  0  0  2  0  0  0  0  0  0
  -30.0000  -13.6240   19.8160 N   0  0  0  0  0  0  0  0  0  0  0  0
  -31.7220  -14.9670   19.3290 O   0  0  0  0  0  0  0  0  0  0  0  0
  -25.3420  -13.7080   20.3680 C   0  0  0  0  0  0  0  0  0  0  0  0
  -24.3030  -12.9370   20.8110 C   0  0  0  0  0  0  0  0  0  0  0  0
  -24.7510  -11.5840   20.7300 C   0  0  0  0  0  0  0  0  0  0  0  0
  -26.3550  -12.8250   20.0370 N   0  0  0  0  0  0  0  0  0  0  0  0
  -26.0140  -11.5410   20.3200 N   0  0  0  0  0  0  0  0  0  0  0  0
  -24.0290  -10.3250   20.9580 C   0  0  0  0  0  0  0  0  0  0  0  0
  -24.4450   -9.4010   21.9420 C   0  0  0  0  0  3  0  0  0  0  0  0
  -23.7210   -8.2090   22.1580 C   0  0  0  0  0  3  0  0  0  0  0  0
  -22.5670   -7.9310   21.3880 C   0  0  0  0  0  0  0  0  0  0  0  0
  -22.1700   -8.8420   20.3930 C   0  0  0  0  0  3  0  0  0  0  0  0
  -22.8960  -10.0260   20.1770 C   0  0  0  0  0  3  0  0  0  0  0  0
  -21.8160   -6.7870   21.5100 O   0  0  0  0  0  0  0  0  0  0  0  0
  -21.6400   -6.1650   22.7210 C   0  0  0  0  0  0  0  0  0  0  0  0
  -21.0420   -6.8250   23.8170 C   0  0  0  0  0  3  0  0  0  0  0  0
  -20.8180   -6.1290   25.0210 C   0  0  0  0  0  3  0  0  0  0  0  0
  -21.1810   -4.7720   25.1280 C   0  0  0  0  0  0  0  0  0  0  0  0
  -21.7710   -4.1120   24.0360 C   0  0  0  0  0  3  0  0  0  0  0  0
  -21.9970   -4.8060   22.8350 C   0  0  0  0  0  0  0  0  0  0  0  0
  -22.5460   -4.1590   21.7780 F   0  0  0  0  0  0  0  0  0  0  0  0
  -20.9570   -4.1000   26.2820 F   0  0  0  0  0  0  0  0  0  0  0  0
  -22.9320  -13.4220   21.1900 C   0  0  0  0  0  0  0  0  0  0  0  0
  -22.2630  -12.7260   22.1010 N   0  0  0  0  0  0  0  0  0  0  0  0
  -22.4650  -14.4540   20.7090 O   0  0  0  0  0  0  0  0  0  0  0  0
  -22.6520  -11.8870   22.5070 H   0  0  0  0  0  0  0  0  0  0  0  0
  -21.3490  -13.0390   22.3980 H   0  0  0  0  0  0  0  0  0  0  0  0
  -25.5060  -15.0790   20.1920 N   0  0  0  0  0  0  0  0  0  0  0  0
  -24.7580  -15.7420   20.3640 H   0  0  0  0  0  0  0  0  0  0  0  0
  -26.3140  -15.5060   19.7600 H   0  0  0  0  0  0  0  0  0  0  0  0
  -31.1920  -17.9900   19.4220 O   0  0  0  0  0  0  0  0  0  0  0  0
  -31.7540  -17.2240   19.3700 H   0  0  0  0  0  0  0  0  0  0  0  0
  -27.9400  -24.5790   20.1790 C   0  0  0  0  0  2  0  0  0  0  0  0
  -28.2750  -26.1010   20.2440 O   0  0  0  0  0  0  0  0  0  0  0  0
  -24.6630  -31.7600   23.2990 C   0  0  0  0  0  0  0  0  0  0  0  0
  -27.2330  -27.1000   20.1940 C   0  0  0  0  0  0  0  0  0  0  0  0
  -23.4720  -30.4290   21.6000 C   0  0  0  0  0  3  0  0  0  0  0  0
  -24.9270  -28.8740   20.1620 C   0  0  0  0  0  0  0  0  0  0  0  0
  -26.0320  -30.6630   21.4920 C   0  0  0  0  0  2  0  0  0  0  0  0
  -26.1010  -29.2900   20.8030 C   0  0  0  0  0  0  0  0  0  0  0  0
  -27.2560  -28.4200   20.8040 C   0  0  0  0  0  3  0  0  0  0  0  0
  -26.0350  -26.7940   19.5080 C   0  0  0  0  0  3  0  0  0  0  0  0
  -24.9070  -27.6400   19.4980 C   0  0  0  0  0  3  0  0  0  0  0  0
  -23.7090  -29.7840   20.2100 C   0  0  0  0  0  2  0  0  0  0  0  0
  -24.7420  -30.9710   22.1860 N   0  0  0  0  0  0  0  0  0  0  0  0
  -23.5710  -32.0460   23.8140 O   0  0  0  0  0  0  0  0  0  0  0  0
  -22.7610  -29.4060   22.5200 C   0  0  0  0  0  0  0  0  0  0  0  0
  -21.4330  -29.2660   22.3690 N   0  0  0  0  0  0  0  0  0  0  0  0
  -23.4080  -28.7420   23.3350 O   0  0  0  0  0  0  0  0  0  0  0  0
  -20.9710  -29.8480   21.6840 H   0  0  0  0  0  0  0  0  0  0  0  0
  -18.0130  -28.1600   22.8250 C   0  0  0  0  0  0  0  0  0  0  0  0
  -20.5800  -28.3250   23.0990 C   0  0  0  0  0  3  0  0  0  0  0  0
  -20.6360  -26.9170   22.4610 C   0  0  0  0  0  2  0  0  0  0  0  0
  -19.5210  -26.6740   21.4380 C   0  0  0  0  0  2  0  0  0  0  0  0
  -18.1440  -26.8380   22.0870 C   0  0  0  0  0  2  0  0  0  0  0  0
  -19.1560  -28.8660   23.2840 C   0  0  0  0  0  0  0  0  0  0  0  0
  -18.9770  -30.1080   23.9320 C   0  0  0  0  0  3  0  0  0  0  0  0
  -17.6890  -30.6400   24.1270 C   0  0  0  0  0  3  0  0  0  0  0  0
  -16.5600  -29.9290   23.6840 C   0  0  0  0  0  3  0  0  0  0  0  0
  -16.7240  -28.6900   23.0380 C   0  0  0  0  0  3  0  0  0  0  0  0
  -25.9370  -32.3590   23.9690 C   0  0  0  0  0  3  0  0  0  0  0  0
  -26.4000  -31.5610   25.2500 C   0  0  1  0  0  0  0  0  0  0  0  0
  -25.2730  -31.3300   26.2830 C   0  0  0  0  0  1  0  0  0  0  0  0
  -26.9720  -30.1790   24.8600 C   0  0  0  0  0  1  0  0  0  0  0  0
  -27.5430  -32.3260   25.9580 C   0  0  0  0  0  1  0  0  0  0  0  0
  -25.6460  -33.7580   24.3190 N   0  0  0  0  0  0  0  0  0  0  0  0
  -25.9810  -34.8190   23.5720 C   0  0  0  0  0  0  0  0  0  0  0  0
  -26.6350  -34.7220   22.5310 O   0  0  0  0  0  0  0  0  0  0  0  0
  -25.0770  -33.9110   25.1390 H   0  0  0  0  0  0  0  0  0  0  0  0
  -24.2550  -36.6260   23.2870 C   0  0  0  0  0  1  0  0  0  0  0  0
  -25.5160  -36.2060   24.0590 C   0  0  0  0  0  3  0  0  0  0  0  0
  -27.6740  -37.0730   24.8440 C   0  0  0  0  0  1  0  0  0  0  0  0
  -26.5510  -37.2550   23.9290 N   0  0  0  0  0  0  0  0  0  0  0  0
  -26.1530  -38.1760   24.0950 H   0  0  0  0  0  0  0  0  0  0  0  0
  1  4  1  0
  2  1  1  0
  2  5  1  0
  4 48  1  0
  4  3  1  0
  5  7  1  0
  5  3  1  0
  7  6  1  0
  9  7  1  0
  9  8  2  0
 10 16  1  0
 10  8  1  0
 11 16  1  0
 12 13  1  0
 12 11  1  0
 14 13  1  0
 14 21  1  0
 14 15  1  0
 16 15  1  0
 17 10  2  0
 18 19  2  0
 19 38  1  0
 20 19  1  0
 20 23  1  0
 21 22  1  0
 21 18  1  0
 22 20  2  0
 23 24  1  0
 24 25  2  0
 26 29  1  0
 26 25  1  0
 27 26  2  0
 28 27  1  0
 28 23  2  0
 29 30  1  0
 30 35  2  0
 30 31  1  0
 31 32  2  0
 32 33  1  0
 33 37  1  0
 34 33  2  0
 35 34  1  0
 36 35  1  0
 38 39  1  0
 39 42  1  0
 39 41  1  0
 40 38  2  0
 43 44  1  0
 43 18  1  0
 45 43  1  0
 46  9  1  0
 47 46  1  0
 48 49  1  0
 50 61  2  0
 51 49  1  0
 51 56  1  0
 52 60  1  0
 52 62  1  0
 53 59  1  0
 53 55  1  0
 54 60  1  0
 55 56  2  0
 55 54  1  0
 57 51  2  0
 58 57  1  0
 58 53  2  0
 59 52  1  0
 60 50  1  0
 62 64  2  0
 63 62  1  0
 65 63  1  0
 66 75  2  0
 66 71  1  0
 67 63  1  0
 67 71  1  0
 68 67  1  0
 69 70  1  0
 69 68  1  0
 70 66  1  0
 71 72  2  0
 72 73  1  0
 74 73  2  0
 75 74  1  0
 76 50  1  0
 76 81  1  0
 76 77  1  0
 77 80  1  1
 77 78  1  0
 79 77  1  0
 81 84  1  0
 82 86  1  0
 82 81  1  0
 83 82  2  0
 86 85  1  0
 88 86  1  0
 88 89  1  0
 88 87  1  0
M  ISO  4   8 100  10 100  48 101  49 101
M  END
>  <TORSDO>  (12) 
F 20

>  <SCORE>  (12) 
-13.148

>  <name>  (12) 
11

>  <ligand_id>  (12) 
11

>  <original_smiles>  (12) 
[H]OC(=C([H])C(=O)N1C([H])([H])C([H])([H])C([H])([H])C([H])(n2nc(-c3c([H])c([H])c(Oc4c([H])c([H])c(F)c([H])c4F)c([H])c3[H])c(C(=O)N([H])[H])c2N([H])[H])C1([H])[H])C([H])(C([H])([H])[H])C1([H])C([H])([H])C([H])([H])C([H])(C([H])([H])Oc2c([H])c([H])c3c(c2[H])C([H])([H])N(C(=O)C([H])(N([H])C(=O)C([H])(N([H])C([H])([H])[H])C([H])([H])[H])C(C([H])([H])[H])(C([H])([H])[H])C([H])([H])[H])C([H])(C(=O)N([H])C2([H])c4c([H])c([H])c([H])c([H])c4C([H])([H])C([H])([H])C2([H])[H])C3([H])[H])C1([H])[H]

>  <smiles>  (12) 
[H]OC(=C([H])C(=O)N1C([H])([H])C([H])([H])C([H])([H])C([H])(n2nc(-c3c([H])c([H])c(Oc4c([H])c([H])c(F)c([H])c4F)c([H])c3[H])c(C(=O)N([H])[H])c2N([H])[H])C1([H])[H])C([H])(C([H])([H])[H])C1([H])C([H])([H])C([H])([H])C([H])(C([H])([H])Oc2c([H])c([H])c3c(c2[H])C([H])([H])N(C(=O)C([H])(N([H])C(=O)C([H])(N([H])C([H])([H])[H])C([H])([H])[H])C(C([H])([H])[H])(C([H])([H])[H])C([H])([H])[H])C([H])(C(=O)N([H])C2([H])c4c([H])c([H])c([H])c([H])c4C([H])([H])C([H])([H])C2([H])[H])C3([H])[H])C1([H])[H]

$$$$
12:0:0
     RDKit          3D

 88 96  0  0  1  0  0  0  0  0999 V2000
  -28.7870  -22.1220   20.5560 C   0  0  0  0  0  3  0  0  0  0  0  0
  -30.0170  -23.9570   19.1930 C   0  0  0  0  0  1  0  0  0  0  0  0
  -28.6730  -23.6170   19.8560 C   0  0  0  0  0  3  0  0  0  0  0  0
  -28.1730  -24.9350   20.6970 C   0  0  0  0  0  2  0  0  0  0  0  0
  -28.3360  -26.3730   20.2320 O   0  0  0  0  0  0  0  0  0  0  0  0
  -24.6170  -31.8910   23.2420 C   0  0  0  0  0  0  0  0  0  0  0  0
  -27.2350  -27.2650   20.2290 C   0  0  0  0  0  0  0  0  0  0  0  0
  -23.4250  -30.4860   21.6010 C   0  0  0  0  0  3  0  0  0  0  0  0
  -24.8820  -28.9200   20.1880 C   0  0  0  0  0  0  0  0  0  0  0  0
  -25.9690  -30.7910   21.4310 C   0  0  0  0  0  2  0  0  0  0  0  0
  -26.0530  -29.4030   20.7900 C   0  0  0  0  0  0  0  0  0  0  0  0
  -27.2350  -28.5900   20.7900 C   0  0  0  0  0  3  0  0  0  0  0  0
  -26.0430  -26.8480   19.6030 C   0  0  0  0  0  3  0  0  0  0  0  0
  -24.8840  -27.6530   19.5820 C   0  0  0  0  0  3  0  0  0  0  0  0
  -23.6480  -29.8040   20.2250 C   0  0  0  0  0  2  0  0  0  0  0  0
  -24.6900  -31.0750   22.1480 N   0  0  0  0  0  0  0  0  0  0  0  0
  -23.5300  -32.1690   23.7700 O   0  0  0  0  0  0  0  0  0  0  0  0
  -22.7550  -29.4740   22.5630 C   0  0  0  0  0  0  0  0  0  0  0  0
  -21.4280  -29.2970   22.4340 N   0  0  0  0  0  0  0  0  0  0  0  0
  -23.4300  -28.8510   23.3870 O   0  0  0  0  0  0  0  0  0  0  0  0
  -20.9420  -29.8530   21.7430 H   0  0  0  0  0  0  0  0  0  0  0  0
  -18.0500  -28.0960   22.9290 C   0  0  0  0  0  0  0  0  0  0  0  0
  -20.6080  -28.3600   23.2040 C   0  0  0  0  0  3  0  0  0  0  0  0
  -20.7120  -26.9270   22.6320 C   0  0  0  0  0  2  0  0  0  0  0  0
  -19.6140  -26.6010   21.6150 C   0  0  0  0  0  2  0  0  0  0  0  0
  -18.2300  -26.7460   22.2560 C   0  0  0  0  0  2  0  0  0  0  0  0
  -19.1670  -28.8610   23.3610 C   0  0  0  0  0  0  0  0  0  0  0  0
  -18.9440  -30.1230   23.9530 C   0  0  0  0  0  3  0  0  0  0  0  0
  -17.6380  -30.6220   24.1150 C   0  0  0  0  0  3  0  0  0  0  0  0
  -16.5360  -29.8550   23.6980 C   0  0  0  0  0  3  0  0  0  0  0  0
  -16.7440  -28.5930   23.1120 C   0  0  0  0  0  3  0  0  0  0  0  0
  -25.8940  -32.5290   23.8700 C   0  0  0  0  0  3  0  0  0  0  0  0
  -26.4020  -31.7650   25.1540 C   0  0  1  0  0  0  0  0  0  0  0  0
  -25.3030  -31.5330   26.2170 C   0  0  0  0  0  1  0  0  0  0  0  0
  -26.9880  -30.3850   24.7750 C   0  0  0  0  0  1  0  0  0  0  0  0
  -27.5490  -32.5630   25.8190 C   0  0  0  0  0  1  0  0  0  0  0  0
  -25.5800  -33.9280   24.1950 N   0  0  0  0  0  0  0  0  0  0  0  0
  -25.9160  -34.9810   23.4400 C   0  0  0  0  0  0  0  0  0  0  0  0
  -26.5930  -34.8780   22.4120 O   0  0  0  0  0  0  0  0  0  0  0  0
  -24.9800  -34.0840   24.9930 H   0  0  0  0  0  0  0  0  0  0  0  0
  -24.1910  -36.7760   23.0730 C   0  0  0  0  0  1  0  0  0  0  0  0
  -25.4270  -36.3710   23.8920 C   0  0  0  0  0  3  0  0  0  0  0  0
  -27.5560  -37.2570   24.7370 C   0  0  0  0  0  1  0  0  0  0  0  0
  -26.4600  -37.4240   23.7840 N   0  0  0  0  0  0  0  0  0  0  0  0
  -26.0530  -38.3440   23.9270 H   0  0  0  0  0  0  0  0  0  0  0  0
  -28.8630  -20.7660   19.6420 C   0  0  0  0  0  3  0  0  0  0  0  0
  -28.7600  -16.8000   20.4690 C   0  0  0  0  0  3  0  0  0  0  0  0
  -31.0060  -17.4300   20.0550 C   0  0  0  0  0  3  0  0  0  0  0  0
  -28.3760  -18.1970   20.3700 C   0  0  0  0  0  3  0  0  0  0  0  0
  -30.6300  -18.8140   19.9680 C   0  0  0  0  0  3  0  0  0  0  0  0
  -30.1010  -16.3370   20.2720 C   0  0  0  0  0  0  0  0  0  0  0  0
  -29.2910  -19.2690   20.0890 C   0  0  0  0  0  0  0  0  0  0  0  0
  -30.6510  -14.8430   20.2060 C   0  0  0  0  0  0  0  0  0  0  0  0
  -30.3600  -12.5420   19.2650 C   0  0  0  0  0  2  0  0  0  0  0  0
  -29.4190  -12.5700   18.0430 C   0  0  0  0  0  2  0  0  0  0  0  0
  -27.9610  -12.3850   18.4990 C   0  0  0  0  0  2  0  0  0  0  0  0
  -27.5910  -13.3000   19.6960 C   0  0  0  0  0  3  0  0  0  0  0  0
  -28.6690  -13.3020   20.7990 C   0  0  0  0  0  2  0  0  0  0  0  0
  -29.9460  -13.6500   20.1710 N   0  0  0  0  0  0  0  0  0  0  0  0
  -31.8530  -14.7700   19.9350 O   0  0  0  0  0  0  0  0  0  0  0  0
  -25.2240  -13.8620   20.4950 C   0  0  0  0  0  0  0  0  0  0  0  0
  -24.1730  -13.0790   20.8860 C   0  0  0  0  0  0  0  0  0  0  0  0
  -24.6440  -11.7320   20.8390 C   0  0  0  0  0  0  0  0  0  0  0  0
  -26.2670  -12.9920   20.2270 N   0  0  0  0  0  0  0  0  0  0  0  0
  -25.9290  -11.7040   20.5010 N   0  0  0  0  0  0  0  0  0  0  0  0
  -23.9270  -10.4640   21.0340 C   0  0  0  0  0  0  0  0  0  0  0  0
  -24.3810   -9.4910   21.9510 C   0  0  0  0  0  3  0  0  0  0  0  0
  -23.6610   -8.2900   22.1370 C   0  0  0  0  0  3  0  0  0  0  0  0
  -22.4720   -8.0550   21.4040 C   0  0  0  0  0  0  0  0  0  0  0  0
  -22.0370   -9.0170   20.4770 C   0  0  0  0  0  3  0  0  0  0  0  0
  -22.7580  -10.2090   20.2890 C   0  0  0  0  0  3  0  0  0  0  0  0
  -21.7220   -6.9080   21.5010 O   0  0  0  0  0  0  0  0  0  0  0  0
  -21.7020   -6.1550   22.6470 C   0  0  0  0  0  0  0  0  0  0  0  0
  -21.3060   -6.6980   23.8890 C   0  0  0  0  0  3  0  0  0  0  0  0
  -21.2330   -5.8710   25.0280 C   0  0  0  0  0  3  0  0  0  0  0  0
  -21.5460   -4.5020   24.9270 C   0  0  0  0  0  0  0  0  0  0  0  0
  -21.9350   -3.9590   23.6890 C   0  0  0  0  0  3  0  0  0  0  0  0
  -22.0100   -4.7820   22.5530 C   0  0  0  0  0  0  0  0  0  0  0  0
  -22.3650   -4.2490   21.3590 F   0  0  0  0  0  0  0  0  0  0  0  0
  -21.4680   -3.7070   26.0190 F   0  0  0  0  0  0  0  0  0  0  0  0
  -22.7800  -13.5490   21.1850 C   0  0  0  0  0  0  0  0  0  0  0  0
  -22.0700  -12.8460   22.0610 N   0  0  0  0  0  0  0  0  0  0  0  0
  -22.3290  -14.5740   20.6760 O   0  0  0  0  0  0  0  0  0  0  0  0
  -22.4500  -12.0180   22.4950 H   0  0  0  0  0  0  0  0  0  0  0  0
  -21.1350  -13.1440   22.3030 H   0  0  0  0  0  0  0  0  0  0  0  0
  -25.3680  -15.2340   20.3150 N   0  0  0  0  0  0  0  0  0  0  0  0
  -24.5840  -15.8690   20.4350 H   0  0  0  0  0  0  0  0  0  0  0  0
  -26.1720  -15.6760   19.8920 H   0  0  0  0  0  0  0  0  0  0  0  0
  3  2  1  0
  3  1  1  0
  3  4  1  0
  5  4  1  0
  6 17  2  0
  7  5  1  0
  7 12  1  0
  8 16  1  0
  8 18  1  0
  9 15  1  0
  9 11  1  0
 10 16  1  0
 11 12  2  0
 11 10  1  0
 13  7  2  0
 14 13  1  0
 14  9  2  0
 15  8  1  0
 16  6  1  0
 18 20  2  0
 19 18  1  0
 21 19  1  0
 22 31  2  0
 22 27  1  0
 23 19  1  0
 23 27  1  0
 24 23  1  0
 25 26  1  0
 25 24  1  0
 26 22  1  0
 27 28  2  0
 28 29  1  0
 30 29  2  0
 31 30  1  0
 32  6  1  0
 32 37  1  0
 32 33  1  0
 33 36  1  1
 33 34  1  0
 35 33  1  0
 37 40  1  0
 38 42  1  0
 38 37  1  0
 39 38  2  0
 42 41  1  0
 44 42  1  0
 44 45  1  0
 44 43  1  0
 46 52  1  0
 46  1  2  0
 48 51  1  0
 49 47  1  0
 50 48  2  0
 50 52  1  0
 51 47  2  0
 52 49  2  0
 53 51  1  0
 54 59  1  0
 55 56  1  0
 55 54  1  0
 57 56  1  0
 57 64  1  0
 57 58  1  0
 59 53  1  0
 59 58  1  0
 60 53  2  0
 61 62  2  0
 62 81  1  0
 63 62  1  0
 63 66  1  0
 64 61  1  0
 64 65  1  0
 65 63  2  0
 66 67  1  0
 67 68  2  0
 69 72  1  0
 69 68  1  0
 70 69  2  0
 71 70  1  0
 71 66  2  0
 72 73  1  0
 73 74  1  0
 74 75  2  0
 76 75  1  0
 76 80  1  0
 77 76  2  0
 78 73  2  0
 78 77  1  0
 79 78  1  0
 81 82  1  0
 82 85  1  0
 82 84  1  0
 83 81  2  0
 86 87  1  0
 86 61  1  0
 88 86  1  0
M  ISO  4   4 101   5 101  51 100  53 100
M  END
>  <TORSDO>  (13) 
F 20

>  <SCORE>  (13) 
-13.893

>  <name>  (13) 
12

>  <ligand_id>  (13) 
12

>  <original_smiles>  (13) 
[H]c1c([H])c([H])c2c(c1[H])C([H])([H])C([H])([H])C([H])([H])C2([H])N([H])C(=O)C1([H])N(C(=O)C([H])(N([H])C(=O)C([H])(N([H])C([H])([H])[H])C([H])([H])[H])C(C([H])([H])[H])(C([H])([H])[H])C([H])([H])[H])C([H])([H])c2c([H])c(OC([H])([H])C([H])(C([H])([H])[H])C([H])([H])C([H])([H])c3c([H])c([H])c(C(=O)N4C([H])([H])C([H])([H])C([H])([H])C([H])(n5nc(-c6c([H])c([H])c(Oc7c([H])c([H])c(F)c([H])c7F)c([H])c6[H])c(C(=O)N([H])[H])c5N([H])[H])C4([H])[H])c([H])c3[H])c([H])c([H])c2C1([H])[H]

>  <smiles>  (13) 
[H]c1c([H])c([H])c2c(c1[H])C([H])([H])C([H])([H])C([H])([H])C2([H])N([H])C(=O)C1([H])N(C(=O)C([H])(N([H])C(=O)C([H])(N([H])C([H])([H])[H])C([H])([H])[H])C(C([H])([H])[H])(C([H])([H])[H])C([H])([H])[H])C([H])([H])c2c([H])c(OC([H])([H])C([H])(C([H])([H])[H])C([H])([H])C([H])([H])c3c([H])c([H])c(C(=O)N4C([H])([H])C([H])([H])C([H])([H])C([H])(n5nc(-c6c([H])c([H])c(Oc7c([H])c([H])c(F)c([H])c7F)c([H])c6[H])c(C(=O)N([H])[H])c5N([H])[H])C4([H])[H])c([H])c3[H])c([H])c([H])c2C1([H])[H]

$$$$
13:0:0
     RDKit          3D

 85 93  0  0  1  0  0  0  0  0999 V2000
  -28.8740  -22.1500   20.4190 C   0  0  0  0  0  0  0  0  0  0  0  0
  -29.7360  -22.3670   21.2770 O   0  0  0  0  0  0  0  0  0  0  0  0
  -30.2920  -15.7910   20.1180 C   0  0  0  0  0  0  0  0  0  0  0  0
  -30.3970  -13.2310   19.2990 C   0  0  0  0  0  2  0  0  0  0  0  0
  -29.5160  -12.8120   18.0870 C   0  0  0  0  0  2  0  0  0  0  0  0
  -28.0960  -12.4410   18.5460 C   0  0  0  0  0  2  0  0  0  0  0  0
  -27.5810  -13.4300   19.6210 C   0  0  0  0  0  3  0  0  0  0  0  0
  -28.6170  -13.7620   20.7220 C   0  0  0  0  0  2  0  0  0  0  0  0
  -29.7580  -14.4200   20.0400 N   0  0  0  0  0  0  0  0  0  0  0  0
  -31.5270  -15.6790   19.9570 O   0  0  0  0  0  0  0  0  0  0  0  0
  -27.8110  -19.2490   20.4570 C   0  0  0  0  0  2  0  0  0  0  0  0
  -28.1540  -17.6350   20.2460 C   0  0  0  0  0  2  0  0  0  0  0  0
  -30.0140  -18.8760   20.1650 C   0  0  0  0  0  2  0  0  0  0  0  0
  -28.8860  -20.3040   19.9500 C   0  0  0  0  0  3  0  0  0  0  0  0
  -29.6070  -17.2240   20.1750 N   0  0  0  0  0  0  0  0  0  0  0  0
  -25.2330  -13.9230   20.4330 C   0  0  0  0  0  0  0  0  0  0  0  0
  -24.1900  -13.1310   20.8120 C   0  0  0  0  0  0  0  0  0  0  0  0
  -24.6750  -11.7860   20.7660 C   0  0  0  0  0  0  0  0  0  0  0  0
  -26.2820  -13.0670   20.1630 N   0  0  0  0  0  0  0  0  0  0  0  0
  -25.9660  -11.7740   20.4360 N   0  0  0  0  0  0  0  0  0  0  0  0
  -23.9650  -10.5150   20.9570 C   0  0  0  0  0  0  0  0  0  0  0  0
  -24.3920   -9.5610   21.9050 C   0  0  0  0  0  3  0  0  0  0  0  0
  -23.6720   -8.3610   22.0900 C   0  0  0  0  0  3  0  0  0  0  0  0
  -22.5110   -8.1030   21.3260 C   0  0  0  0  0  0  0  0  0  0  0  0
  -22.0980   -9.0500   20.3710 C   0  0  0  0  0  3  0  0  0  0  0  0
  -22.8180  -10.2410   20.1840 C   0  0  0  0  0  3  0  0  0  0  0  0
  -21.7630   -6.9530   21.4180 O   0  0  0  0  0  0  0  0  0  0  0  0
  -21.6840   -6.2380   22.5860 C   0  0  0  0  0  0  0  0  0  0  0  0
  -21.1700   -6.8050   23.7740 C   0  0  0  0  0  3  0  0  0  0  0  0
  -21.0450   -6.0130   24.9330 C   0  0  0  0  0  3  0  0  0  0  0  0
  -21.4220   -4.6560   24.9050 C   0  0  0  0  0  0  0  0  0  0  0  0
  -21.9250   -4.0890   23.7210 C   0  0  0  0  0  3  0  0  0  0  0  0
  -22.0540   -4.8790   22.5650 C   0  0  0  0  0  0  0  0  0  0  0  0
  -22.5240   -4.3230   21.4210 F   0  0  0  0  0  0  0  0  0  0  0  0
  -21.2890   -3.8920   26.0140 F   0  0  0  0  0  0  0  0  0  0  0  0
  -22.7900  -13.5920   21.0890 C   0  0  0  0  0  0  0  0  0  0  0  0
  -22.0810  -12.9050   21.9760 N   0  0  0  0  0  0  0  0  0  0  0  0
  -22.3360  -14.6050   20.5540 O   0  0  0  0  0  0  0  0  0  0  0  0
  -22.4640  -12.0900   22.4340 H   0  0  0  0  0  0  0  0  0  0  0  0
  -21.1420  -13.2000   22.2000 H   0  0  0  0  0  0  0  0  0  0  0  0
  -25.3680  -15.2970   20.2600 N   0  0  0  0  0  0  0  0  0  0  0  0
  -24.5810  -15.9250   20.3840 H   0  0  0  0  0  0  0  0  0  0  0  0
  -26.1920  -15.7620   19.9020 H   0  0  0  0  0  0  0  0  0  0  0  0
  -27.9580  -23.7510   19.9870 C   0  0  0  0  0  2  0  0  0  0  0  0
  -28.1390  -25.4960   20.3280 O   0  0  0  0  0  0  0  0  0  0  0  0
  -24.6780  -31.8520   23.2530 C   0  0  0  0  0  0  0  0  0  0  0  0
  -27.1920  -26.7440   20.2480 C   0  0  0  0  0  0  0  0  0  0  0  0
  -23.4900  -30.4630   21.6110 C   0  0  0  0  0  3  0  0  0  0  0  0
  -24.9360  -28.8120   20.1910 C   0  0  0  0  0  0  0  0  0  0  0  0
  -26.0720  -30.5840   21.4990 C   0  0  0  0  0  2  0  0  0  0  0  0
  -26.1300  -29.1520   20.8340 C   0  0  0  0  0  0  0  0  0  0  0  0
  -27.2410  -28.1460   20.8330 C   0  0  0  0  0  3  0  0  0  0  0  0
  -25.9670  -26.6290   19.5390 C   0  0  0  0  0  3  0  0  0  0  0  0
  -24.8950  -27.5770   19.5200 C   0  0  0  0  0  3  0  0  0  0  0  0
  -23.7330  -29.7710   20.2370 C   0  0  0  0  0  2  0  0  0  0  0  0
  -24.7720  -31.0000   22.1730 N   0  0  0  0  0  0  0  0  0  0  0  0
  -23.5840  -32.1530   23.7620 O   0  0  0  0  0  0  0  0  0  0  0  0
  -22.7700  -29.4850   22.5770 C   0  0  0  0  0  0  0  0  0  0  0  0
  -21.4390  -29.3240   22.4430 N   0  0  0  0  0  0  0  0  0  0  0  0
  -23.4230  -28.8630   23.4170 O   0  0  0  0  0  0  0  0  0  0  0  0
  -20.9600  -29.8720   21.7430 H   0  0  0  0  0  0  0  0  0  0  0  0
  -18.0570  -28.0930   22.9420 C   0  0  0  0  0  0  0  0  0  0  0  0
  -20.6120  -28.3860   23.2160 C   0  0  0  0  0  3  0  0  0  0  0  0
  -20.7290  -26.9510   22.6520 C   0  0  0  0  0  2  0  0  0  0  0  0
  -19.6400  -26.6140   21.6300 C   0  0  0  0  0  2  0  0  0  0  0  0
  -18.2510  -26.7450   22.2640 C   0  0  0  0  0  2  0  0  0  0  0  0
  -19.1640  -28.8690   23.3740 C   0  0  0  0  0  0  0  0  0  0  0  0
  -18.9260  -30.1240   23.9740 C   0  0  0  0  0  3  0  0  0  0  0  0
  -17.6160  -30.6060   24.1430 C   0  0  0  0  0  3  0  0  0  0  0  0
  -16.5210  -29.8290   23.7230 C   0  0  0  0  0  3  0  0  0  0  0  0
  -16.7420  -28.5740   23.1280 C   0  0  0  0  0  3  0  0  0  0  0  0
  -25.9380  -32.5040   23.8970 C   0  0  0  0  0  3  0  0  0  0  0  0
  -25.6230  -33.9130   24.2090 N   0  0  0  0  0  0  0  0  0  0  0  0
  -25.9550  -34.9660   23.4500 C   0  0  0  0  0  0  0  0  0  0  0  0
  -26.6130  -34.8560   22.4140 O   0  0  0  0  0  0  0  0  0  0  0  0
  -25.0310  -34.0720   25.0110 H   0  0  0  0  0  0  0  0  0  0  0  0
  -24.2270  -36.7760   23.1290 C   0  0  0  0  0  1  0  0  0  0  0  0
  -25.4870  -36.3660   23.9100 C   0  0  0  0  0  3  0  0  0  0  0  0
  -27.6390  -37.2620   24.6830 C   0  0  0  0  0  1  0  0  0  0  0  0
  -26.5190  -37.4150   23.7580 N   0  0  0  0  0  0  0  0  0  0  0  0
  -26.1200  -38.3390   23.8990 H   0  0  0  0  0  0  0  0  0  0  0  0
  -26.4130  -31.7630   25.2090 C   0  0  1  0  0  0  0  0  0  0  0  0
  -25.2900  -31.5670   26.2550 C   0  0  0  0  0  1  0  0  0  0  0  0
  -26.9900  -30.3680   24.8840 C   0  0  0  0  0  1  0  0  0  0  0  0
  -27.5560  -32.5620   25.8790 C   0  0  0  0  0  1  0  0  0  0  0  0
  1  2  2  0
  3 15  1  0
  4  9  1  0
  5  6  1  0
  5  4  1  0
  7  6  1  0
  7 19  1  0
  7  8  1  0
  9  3  1  0
  9  8  1  0
 10  3  2  0
 12 11  1  0
 13 15  1  0
 14 13  1  0
 14  1  1  0
 14 11  1  0
 15 12  1  0
 16 17  2  0
 17 36  1  0
 18 17  1  0
 18 21  1  0
 19 16  1  0
 19 20  1  0
 20 18  2  0
 21 22  1  0
 22 23  2  0
 24 27  1  0
 24 23  1  0
 25 24  2  0
 26 25  1  0
 26 21  2  0
 27 28  1  0
 28 29  1  0
 29 30  2  0
 31 30  1  0
 31 35  1  0
 32 31  2  0
 33 28  2  0
 33 32  1  0
 34 33  1  0
 36 37  1  0
 37 40  1  0
 37 39  1  0
 38 36  2  0
 41 42  1  0
 41 16  1  0
 43 41  1  0
 44 45  1  0
 44  1  1  0
 46 57  2  0
 47 45  1  0
 47 52  1  0
 48 56  1  0
 48 58  1  0
 49 55  1  0
 49 51  1  0
 50 56  1  0
 51 50  1  0
 52 51  2  0
 53 47  2  0
 54 53  1  0
 54 49  2  0
 55 48  1  0
 56 46  1  0
 58 60  2  0
 59 58  1  0
 61 59  1  0
 62 71  2  0
 62 67  1  0
 63 59  1  0
 63 67  1  0
 64 63  1  0
 65 66  1  0
 65 64  1  0
 66 62  1  0
 67 68  2  0
 68 69  1  0
 70 69  2  0
 71 70  1  0
 72 46  1  0
 72 73  1  0
 72 82  1  0
 73 76  1  0
 74 78  1  0
 74 73  1  0
 75 74  2  0
 78 77  1  0
 80 81  1  0
 80 78  1  0
 80 79  1  0
 82 85  1  1
 82 83  1  0
 84 82  1  0
M  ISO  4   3 100  15 100  44 101  45 101
M  END
>  <TORSDO>  (14) 
F 17

>  <SCORE>  (14) 
-16.382

>  <name>  (14) 
13

>  <ligand_id>  (14) 
13

>  <original_smiles>  (14) 
[H]c1c([H])c([H])c2c(c1[H])C([H])([H])C([H])([H])C([H])([H])C2([H])N([H])C(=O)C1([H])N(C(=O)C([H])(N([H])C(=O)C([H])(N([H])C([H])([H])[H])C([H])([H])[H])C(C([H])([H])[H])(C([H])([H])[H])C([H])([H])[H])C([H])([H])c2c([H])c(OC([H])([H])C(=O)C3([H])C([H])([H])N(C(=O)N4C([H])([H])C([H])([H])C([H])([H])C([H])(n5nc(-c6c([H])c([H])c(Oc7c([H])c([H])c(F)c([H])c7F)c([H])c6[H])c(C(=O)N([H])[H])c5N([H])[H])C4([H])[H])C([H])([H])C3([H])[H])c([H])c([H])c2C1([H])[H]

>  <smiles>  (14) 
[H]c1c([H])c([H])c2c(c1[H])C([H])([H])C([H])([H])C([H])([H])C2([H])N([H])C(=O)C1([H])N(C(=O)C([H])(N([H])C(=O)C([H])(N([H])C([H])([H])[H])C([H])([H])[H])C(C([H])([H])[H])(C([H])([H])[H])C([H])([H])[H])C([H])([H])c2c([H])c(OC([H])([H])C(=O)C3([H])C([H])([H])N(C(=O)N4C([H])([H])C([H])([H])C([H])([H])C([H])(n5nc(-c6c([H])c([H])c(Oc7c([H])c([H])c(F)c([H])c7F)c([H])c6[H])c(C(=O)N([H])[H])c5N([H])[H])C4([H])[H])C([H])([H])C3([H])[H])c([H])c([H])c2C1([H])[H]

$$$$
14:0:0
     RDKit          3D

 88 96  0  0  1  0  0  0  0  0999 V2000
  -30.5580  -20.6760   20.1370 C   0  0  0  0  0  3  0  0  0  0  0  0
  -28.2760  -20.3300   20.3140 C   0  0  0  0  0  3  0  0  0  0  0  0
  -30.8100  -19.2220   20.1400 C   0  0  0  0  0  3  0  0  0  0  0  0
  -28.5280  -18.8710   20.3090 C   0  0  0  0  0  3  0  0  0  0  0  0
  -29.2810  -21.3690   20.2500 C   0  0  0  0  0  0  0  0  0  0  0  0
  -29.8120  -18.1790   20.2430 C   0  0  0  0  0  0  0  0  0  0  0  0
  -29.1740  -23.0700   20.4710 C   0  0  0  0  0  3  0  0  0  0  0  0
  -28.0700  -24.3630   20.0720 C   0  0  0  0  0  3  0  0  0  0  0  0
  -28.2600  -25.9530   20.2440 O   0  0  0  0  0  0  0  0  0  0  0  0
  -24.6490  -31.8410   23.0710 C   0  0  0  0  0  0  0  0  0  0  0  0
  -27.2110  -26.9770   20.1540 C   0  0  0  0  0  0  0  0  0  0  0  0
  -23.4410  -30.3930   21.4850 C   0  0  0  0  0  3  0  0  0  0  0  0
  -24.8820  -28.7710   20.0880 C   0  0  0  0  0  0  0  0  0  0  0  0
  -25.9970  -30.6410   21.2930 C   0  0  0  0  0  2  0  0  0  0  0  0
  -26.0700  -29.2230   20.6760 C   0  0  0  0  0  0  0  0  0  0  0  0
  -27.2310  -28.3450   20.6840 C   0  0  0  0  0  3  0  0  0  0  0  0
  -25.9930  -26.6470   19.5210 C   0  0  0  0  0  3  0  0  0  0  0  0
  -24.8630  -27.5000   19.4910 C   0  0  0  0  0  3  0  0  0  0  0  0
  -23.6540  -29.6750   20.1250 C   0  0  0  0  0  2  0  0  0  0  0  0
  -24.7170  -30.9850   22.0030 N   0  0  0  0  0  0  0  0  0  0  0  0
  -23.5660  -32.1360   23.6000 O   0  0  0  0  0  0  0  0  0  0  0  0
  -22.7710  -29.4170   22.4850 C   0  0  0  0  0  0  0  0  0  0  0  0
  -21.4410  -29.2400   22.3790 N   0  0  0  0  0  0  0  0  0  0  0  0
  -23.4510  -28.8200   23.3230 O   0  0  0  0  0  0  0  0  0  0  0  0
  -20.9470  -29.7730   21.6760 H   0  0  0  0  0  0  0  0  0  0  0  0
  -18.0720  -28.0290   22.9530 C   0  0  0  0  0  0  0  0  0  0  0  0
  -20.6310  -28.3190   23.1830 C   0  0  0  0  0  3  0  0  0  0  0  0
  -20.7380  -26.8720   22.6500 C   0  0  0  0  0  2  0  0  0  0  0  0
  -19.6280  -26.5110   21.6570 C   0  0  0  0  0  2  0  0  0  0  0  0
  -18.2520  -26.6640   22.3100 C   0  0  0  0  0  2  0  0  0  0  0  0
  -19.1880  -28.8130   23.3480 C   0  0  0  0  0  0  0  0  0  0  0  0
  -18.9640  -30.0870   23.9120 C   0  0  0  0  0  3  0  0  0  0  0  0
  -17.6570  -30.5790   24.0820 C   0  0  0  0  0  3  0  0  0  0  0  0
  -16.5540  -29.7940   23.7010 C   0  0  0  0  0  3  0  0  0  0  0  0
  -16.7630  -28.5210   23.1420 C   0  0  0  0  0  3  0  0  0  0  0  0
  -25.9270  -32.5030   23.6700 C   0  0  0  0  0  3  0  0  0  0  0  0
  -26.5040  -31.7220   24.9160 C   0  0  1  0  0  0  0  0  0  0  0  0
  -25.4490  -31.4290   26.0100 C   0  0  0  0  0  1  0  0  0  0  0  0
  -27.1190  -30.3710   24.4850 C   0  0  0  0  0  1  0  0  0  0  0  0
  -27.6480  -32.5400   25.5600 C   0  0  0  0  0  1  0  0  0  0  0  0
  -25.5840  -33.8840   24.0490 N   0  0  0  0  0  0  0  0  0  0  0  0
  -25.8750  -34.9740   23.3260 C   0  0  0  0  0  0  0  0  0  0  0  0
  -26.5250  -34.9220   22.2780 O   0  0  0  0  0  0  0  0  0  0  0  0
  -25.0000  -33.9930   24.8650 H   0  0  0  0  0  0  0  0  0  0  0  0
  -24.1090  -36.7490   23.0650 C   0  0  0  0  0  1  0  0  0  0  0  0
  -25.3670  -36.3350   23.8430 C   0  0  0  0  0  3  0  0  0  0  0  0
  -27.4940  -37.2310   24.6830 C   0  0  0  0  0  1  0  0  0  0  0  0
  -26.3790  -37.4120   23.7600 N   0  0  0  0  0  0  0  0  0  0  0  0
  -25.9570  -38.3170   23.9460 H   0  0  0  0  0  0  0  0  0  0  0  0
  -30.0260  -16.5240   20.6530 C   0  0  0  0  0  3  0  0  0  0  0  0
  -30.6820  -15.1290   19.8830 C   0  0  0  0  0  0  0  0  0  0  0  0
  -30.4890  -12.7880   18.8010 C   0  0  0  0  0  2  0  0  0  0  0  0
  -29.4400  -12.7640   17.6610 C   0  0  0  0  0  2  0  0  0  0  0  0
  -28.0250  -12.5190   18.2160 C   0  0  0  0  0  2  0  0  0  0  0  0
  -27.7360  -13.3930   19.4620 C   0  0  0  0  0  3  0  0  0  0  0  0
  -28.8900  -13.3560   20.4820 C   0  0  0  0  0  2  0  0  0  0  0  0
  -30.0980  -13.8430   19.7960 N   0  0  0  0  0  0  0  0  0  0  0  0
  -31.8080  -15.1960   19.3680 O   0  0  0  0  0  0  0  0  0  0  0  0
  -25.4570  -13.9660   20.4670 C   0  0  0  0  0  0  0  0  0  0  0  0
  -24.4160  -13.1910   20.8970 C   0  0  0  0  0  0  0  0  0  0  0  0
  -24.8440  -11.8350   20.7490 C   0  0  0  0  0  0  0  0  0  0  0  0
  -26.4490  -13.0840   20.0740 N   0  0  0  0  0  0  0  0  0  0  0  0
  -26.0970  -11.7930   20.3110 N   0  0  0  0  0  0  0  0  0  0  0  0
  -24.1080  -10.5790   20.9420 C   0  0  0  0  0  0  0  0  0  0  0  0
  -24.5700   -9.5800   21.8290 C   0  0  0  0  0  3  0  0  0  0  0  0
  -23.8330   -8.3900   22.0120 C   0  0  0  0  0  3  0  0  0  0  0  0
  -22.6220   -8.1890   21.3110 C   0  0  0  0  0  0  0  0  0  0  0  0
  -22.1770   -9.1760   20.4130 C   0  0  0  0  0  3  0  0  0  0  0  0
  -22.9140  -10.3580   20.2270 C   0  0  0  0  0  3  0  0  0  0  0  0
  -21.8540   -7.0530   21.4060 O   0  0  0  0  0  0  0  0  0  0  0  0
  -21.8090   -6.3090   22.5580 C   0  0  0  0  0  0  0  0  0  0  0  0
  -21.4100   -6.8690   23.7910 C   0  0  0  0  0  3  0  0  0  0  0  0
  -21.3100   -6.0530   24.9350 C   0  0  0  0  0  3  0  0  0  0  0  0
  -21.6000   -4.6780   24.8490 C   0  0  0  0  0  0  0  0  0  0  0  0
  -21.9920   -4.1170   23.6200 C   0  0  0  0  0  3  0  0  0  0  0  0
  -22.0930   -4.9310   22.4770 C   0  0  0  0  0  0  0  0  0  0  0  0
  -22.4510   -4.3810   21.2910 F   0  0  0  0  0  0  0  0  0  0  0  0
  -21.4960   -3.8920   25.9450 F   0  0  0  0  0  0  0  0  0  0  0  0
  -23.0630  -13.6790   21.3250 C   0  0  0  0  0  0  0  0  0  0  0  0
  -22.4210  -12.9730   22.2490 N   0  0  0  0  0  0  0  0  0  0  0  0
  -22.5890  -14.7210   20.8750 O   0  0  0  0  0  0  0  0  0  0  0  0
  -22.8200  -12.1290   22.6320 H   0  0  0  0  0  0  0  0  0  0  0  0
  -21.5180  -13.2820   22.5780 H   0  0  0  0  0  0  0  0  0  0  0  0
  -25.6360  -15.3410   20.3480 N   0  0  0  0  0  0  0  0  0  0  0  0
  -24.8970  -16.0010   20.5680 H   0  0  0  0  0  0  0  0  0  0  0  0
  -26.4510  -15.7810   19.9430 H   0  0  0  0  0  0  0  0  0  0  0  0
  -30.6150  -15.3720   22.9520 C   0  0  0  0  0  1  0  0  0  0  0  0
  -30.7280  -16.6030   22.0360 C   0  0  0  0  0  2  0  0  0  0  0  0
  1  3  2  0
  1  5  1  0
  3  6  1  0
  4  2  1  0
  5  2  2  0
  5  7  1  0
  6  4  2  0
  6 50  1  0
  8  9  1  0
  8  7  2  0
 10 21  2  0
 11  9  1  0
 11 16  1  0
 12 20  1  0
 12 22  1  0
 13 19  1  0
 13 15  1  0
 14 20  1  0
 15 16  2  0
 15 14  1  0
 17 11  2  0
 18 17  1  0
 18 13  2  0
 19 12  1  0
 20 10  1  0
 22 24  2  0
 23 22  1  0
 25 23  1  0
 26 35  2  0
 26 31  1  0
 27 23  1  0
 27 31  1  0
 28 27  1  0
 29 30  1  0
 29 28  1  0
 30 26  1  0
 31 32  2  0
 32 33  1  0
 34 33  2  0
 35 34  1  0
 36 10  1  0
 36 41  1  0
 36 37  1  0
 37 40  1  1
 37 38  1  0
 39 37  1  0
 41 44  1  0
 42 46  1  0
 42 41  1  0
 43 42  2  0
 46 45  1  0
 48 46  1  0
 48 49  1  0
 48 47  1  0
 50 88  1  0
 51 50  1  0
 52 57  1  0
 53 54  1  0
 53 52  1  0
 55 54  1  0
 55 62  1  0
 55 56  1  0
 57 51  1  0
 57 56  1  0
 58 51  2  0
 59 60  2  0
 60 79  1  0
 61 60  1  0
 61 64  1  0
 62 63  1  0
 62 59  1  0
 63 61  2  0
 64 65  1  0
 65 66  2  0
 67 70  1  0
 67 66  1  0
 68 67  2  0
 69 68  1  0
 69 64  2  0
 70 71  1  0
 71 72  1  0
 72 73  2  0
 74 73  1  0
 74 78  1  0
 75 74  2  0
 76 71  2  0
 76 75  1  0
 77 76  1  0
 79 80  1  0
 80 83  1  0
 80 82  1  0
 81 79  2  0
 84 59  1  0
 84 85  1  0
 86 84  1  0
 88 87  1  0
M  ISO  4   8 101   9 101  50 100  51 100
M  END
>  <TORSDO>  (15) 
F 20

>  <SCORE>  (15) 
-13.590

>  <name>  (15) 
14

>  <ligand_id>  (15) 
14

>  <original_smiles>  (15) 
[H]c1c([H])c([H])c2c(c1[H])C([H])([H])C([H])([H])C([H])([H])C2([H])N([H])C(=O)C1([H])N(C(=O)C([H])(N([H])C(=O)C([H])(N([H])C([H])([H])[H])C([H])([H])[H])C(C([H])([H])[H])(C([H])([H])[H])C([H])([H])[H])C([H])([H])c2c([H])c(OC([H])([H])C([H])([H])c3c([H])c([H])c(C([H])(C(=O)N4C([H])([H])C([H])([H])C([H])([H])C([H])(n5nc(-c6c([H])c([H])c(Oc7c([H])c([H])c(F)c([H])c7F)c([H])c6[H])c(C(=O)N([H])[H])c5N([H])[H])C4([H])[H])C([H])([H])C([H])([H])[H])c([H])c3[H])c([H])c([H])c2C1([H])[H]

>  <smiles>  (15) 
[H]c1c([H])c([H])c2c(c1[H])C([H])([H])C([H])([H])C([H])([H])C2([H])N([H])C(=O)C1([H])N(C(=O)C([H])(N([H])C(=O)C([H])(N([H])C([H])([H])[H])C([H])([H])[H])C(C([H])([H])[H])(C([H])([H])[H])C([H])([H])[H])C([H])([H])c2c([H])c(OC([H])([H])C([H])([H])c3c([H])c([H])c(C([H])(C(=O)N4C([H])([H])C([H])([H])C([H])([H])C([H])(n5nc(-c6c([H])c([H])c(Oc7c([H])c([H])c(F)c([H])c7F)c([H])c6[H])c(C(=O)N([H])[H])c5N([H])[H])C4([H])[H])C([H])([H])C([H])([H])[H])c([H])c3[H])c([H])c([H])c2C1([H])[H]

$$$$
15:0:0
     RDKit          3D

 86 95  0  0  1  0  0  0  0  0999 V2000
  -29.8180  -21.4330   19.9260 C   0  0  0  0  0  3  0  0  0  0  0  0
  -28.1310  -20.9750   20.8230 C   0  0  0  0  0  3  0  0  0  0  0  0
  -29.0850  -19.9300   19.9670 C   0  0  0  0  0  3  0  0  0  0  0  0
  -28.4950  -22.4350   20.0740 C   0  0  0  0  0  3  0  0  0  0  0  0
  -29.5690  -16.8820   20.1240 C   0  0  0  0  0  3  0  0  0  0  0  0
  -29.8390  -18.3440   20.3200 C   0  0  0  0  0  0  0  0  0  0  0  0
  -30.4010  -15.4460   20.2090 C   0  0  0  0  0  0  0  0  0  0  0  0
  -30.4200  -12.9580   19.3780 C   0  0  0  0  0  2  0  0  0  0  0  0
  -29.5140  -12.6840   18.1490 C   0  0  0  0  0  2  0  0  0  0  0  0
  -28.0700  -12.3860   18.5880 C   0  0  0  0  0  2  0  0  0  0  0  0
  -27.5910  -13.3680   19.6840 C   0  0  0  0  0  3  0  0  0  0  0  0
  -28.6280  -13.5880   20.8020 C   0  0  0  0  0  2  0  0  0  0  0  0
  -29.8490  -14.1200   20.1690 N   0  0  0  0  0  0  0  0  0  0  0  0
  -31.6340  -15.3850   20.0680 O   0  0  0  0  0  0  0  0  0  0  0  0
  -25.2240  -13.9040   20.4490 C   0  0  0  0  0  0  0  0  0  0  0  0
  -24.1690  -13.1200   20.8200 C   0  0  0  0  0  0  0  0  0  0  0  0
  -24.6470  -11.7730   20.7970 C   0  0  0  0  0  0  0  0  0  0  0  0
  -26.2720  -13.0360   20.2040 N   0  0  0  0  0  0  0  0  0  0  0  0
  -25.9400  -11.7480   20.4860 N   0  0  0  0  0  0  0  0  0  0  0  0
  -23.9280  -10.5070   20.9930 C   0  0  0  0  0  0  0  0  0  0  0  0
  -24.3560   -9.5500   21.9390 C   0  0  0  0  0  3  0  0  0  0  0  0
  -23.6340   -8.3510   22.1230 C   0  0  0  0  0  3  0  0  0  0  0  0
  -22.4680   -8.1010   21.3610 C   0  0  0  0  0  0  0  0  0  0  0  0
  -22.0590   -9.0450   20.4030 C   0  0  0  0  0  3  0  0  0  0  0  0
  -22.7820  -10.2350   20.2180 C   0  0  0  0  0  3  0  0  0  0  0  0
  -21.7180   -6.9530   21.4530 O   0  0  0  0  0  0  0  0  0  0  0  0
  -21.6580   -6.2230   22.6140 C   0  0  0  0  0  0  0  0  0  0  0  0
  -21.2040   -6.7880   23.8260 C   0  0  0  0  0  3  0  0  0  0  0  0
  -21.0920   -5.9840   24.9780 C   0  0  0  0  0  3  0  0  0  0  0  0
  -21.4240   -4.6180   24.9190 C   0  0  0  0  0  0  0  0  0  0  0  0
  -21.8710   -4.0530   23.7120 C   0  0  0  0  0  3  0  0  0  0  0  0
  -21.9840   -4.8530   22.5620 C   0  0  0  0  0  0  0  0  0  0  0  0
  -22.3950   -4.2990   21.3960 F   0  0  0  0  0  0  0  0  0  0  0  0
  -21.3090   -3.8440   26.0240 F   0  0  0  0  0  0  0  0  0  0  0  0
  -22.7680  -13.5880   21.0810 C   0  0  0  0  0  0  0  0  0  0  0  0
  -22.0390  -12.8930   21.9470 N   0  0  0  0  0  0  0  0  0  0  0  0
  -22.3270  -14.6080   20.5510 O   0  0  0  0  0  0  0  0  0  0  0  0
  -22.4090  -12.0690   22.3970 H   0  0  0  0  0  0  0  0  0  0  0  0
  -21.0980  -13.1900   22.1640 H   0  0  0  0  0  0  0  0  0  0  0  0
  -25.3760  -15.2760   20.2670 N   0  0  0  0  0  0  0  0  0  0  0  0
  -24.6060  -15.9250   20.3860 H   0  0  0  0  0  0  0  0  0  0  0  0
  -26.2250  -15.7230   19.9460 H   0  0  0  0  0  0  0  0  0  0  0  0
  -31.0340  -18.6700   20.8250 O   0  0  0  0  0  0  0  0  0  0  0  0
  -31.0870  -19.6180   20.8340 H   0  0  0  0  0  0  0  0  0  0  0  0
  -28.1330  -24.1720   20.6390 C   0  0  0  0  0  2  0  0  0  0  0  0
  -28.2490  -25.8020   20.2230 O   0  0  0  0  0  0  0  0  0  0  0  0
  -24.6430  -31.8660   23.1880 C   0  0  0  0  0  0  0  0  0  0  0  0
  -27.2250  -26.9130   20.2430 C   0  0  0  0  0  0  0  0  0  0  0  0
  -23.4650  -30.4510   21.5570 C   0  0  0  0  0  3  0  0  0  0  0  0
  -24.9260  -28.8250   20.1640 C   0  0  0  0  0  0  0  0  0  0  0  0
  -26.0350  -30.6540   21.4250 C   0  0  0  0  0  2  0  0  0  0  0  0
  -26.1130  -29.2300   20.7850 C   0  0  0  0  0  0  0  0  0  0  0  0
  -27.2580  -28.3000   20.7910 C   0  0  0  0  0  3  0  0  0  0  0  0
  -26.0010  -26.6720   19.5800 C   0  0  0  0  0  3  0  0  0  0  0  0
  -24.8980  -27.5670   19.5390 C   0  0  0  0  0  3  0  0  0  0  0  0
  -23.7070  -29.7510   20.1900 C   0  0  0  0  0  2  0  0  0  0  0  0
  -24.7370  -31.0190   22.1090 N   0  0  0  0  0  0  0  0  0  0  0  0
  -23.5490  -32.1570   23.6990 O   0  0  0  0  0  0  0  0  0  0  0  0
  -22.7650  -29.4650   22.5290 C   0  0  0  0  0  0  0  0  0  0  0  0
  -21.4330  -29.3020   22.4050 N   0  0  0  0  0  0  0  0  0  0  0  0
  -23.4270  -28.8440   23.3640 O   0  0  0  0  0  0  0  0  0  0  0  0
  -20.9510  -29.8540   21.7080 H   0  0  0  0  0  0  0  0  0  0  0  0
  -18.0500  -28.0950   22.9220 C   0  0  0  0  0  0  0  0  0  0  0  0
  -20.6090  -28.3680   23.1810 C   0  0  0  0  0  3  0  0  0  0  0  0
  -20.7120  -26.9330   22.6130 C   0  0  0  0  0  2  0  0  0  0  0  0
  -19.6100  -26.6040   21.6020 C   0  0  0  0  0  2  0  0  0  0  0  0
  -18.2290  -26.7450   22.2470 C   0  0  0  0  0  2  0  0  0  0  0  0
  -19.1670  -28.8640   23.3460 C   0  0  0  0  0  0  0  0  0  0  0  0
  -18.9420  -30.1240   23.9420 C   0  0  0  0  0  3  0  0  0  0  0  0
  -17.6350  -30.6160   24.1150 C   0  0  0  0  0  3  0  0  0  0  0  0
  -16.5330  -29.8470   23.7050 C   0  0  0  0  0  3  0  0  0  0  0  0
  -16.7410  -28.5870   23.1160 C   0  0  0  0  0  3  0  0  0  0  0  0
  -25.9050  -32.5220   23.8250 C   0  0  0  0  0  3  0  0  0  0  0  0
  -26.4050  -31.7710   25.1210 C   0  0  1  0  0  0  0  0  0  0  0  0
  -25.2980  -31.5470   26.1790 C   0  0  0  0  0  1  0  0  0  0  0  0
  -26.9970  -30.3880   24.7670 C   0  0  0  0  0  1  0  0  0  0  0  0
  -27.5450  -32.5780   25.7870 C   0  0  0  0  0  1  0  0  0  0  0  0
  -25.5770  -33.9220   24.1490 N   0  0  0  0  0  0  0  0  0  0  0  0
  -25.9100  -34.9830   23.4000 C   0  0  0  0  0  0  0  0  0  0  0  0
  -26.5860  -34.8860   22.3740 O   0  0  0  0  0  0  0  0  0  0  0  0
  -24.9750  -34.0700   24.9450 H   0  0  0  0  0  0  0  0  0  0  0  0
  -24.1790  -36.7800   23.0490 C   0  0  0  0  0  1  0  0  0  0  0  0
  -25.4190  -36.3710   23.8620 C   0  0  0  0  0  3  0  0  0  0  0  0
  -27.5450  -37.2640   24.7090 C   0  0  0  0  0  1  0  0  0  0  0  0
  -26.4490  -37.4280   23.7580 N   0  0  0  0  0  0  0  0  0  0  0  0
  -26.0390  -38.3470   23.9010 H   0  0  0  0  0  0  0  0  0  0  0  0
  1  3  1  0
  1  4  1  0
  1  2  1  0
  3  6  1  0
  3  2  1  0
  4 45  1  0
  4  2  1  0
  5  7  1  0
  5  6  2  0
  6 43  1  0
  8 13  1  0
  9 10  1  0
  9  8  1  0
 10 11  1  0
 11 18  1  0
 11 12  1  0
 13  7  1  0
 13 12  1  0
 14  7  2  0
 15 16  2  0
 16 35  1  0
 17 16  1  0
 17 20  1  0
 18 15  1  0
 18 19  1  0
 19 17  2  0
 20 21  1  0
 21 22  2  0
 23 26  1  0
 23 22  1  0
 24 23  2  0
 25 24  1  0
 25 20  2  0
 26 27  1  0
 27 28  1  0
 28 29  2  0
 30 29  1  0
 30 34  1  0
 31 30  2  0
 32 27  2  0
 32 31  1  0
 33 32  1  0
 35 36  1  0
 36 39  1  0
 36 38  1  0
 37 35  2  0
 40 41  1  0
 40 15  1  0
 42 40  1  0
 43 44  1  0
 46 48  1  0
 46 45  1  0
 47 58  2  0
 47 73  1  0
 48 53  1  0
 49 57  1  0
 49 59  1  0
 50 56  1  0
 50 52  1  0
 51 57  1  0
 52 53  2  0
 52 51  1  0
 54 48  2  0
 55 54  1  0
 55 50  2  0
 56 49  1  0
 57 47  1  0
 59 61  2  0
 60 59  1  0
 60 64  1  0
 62 60  1  0
 63 72  2  0
 63 68  1  0
 64 68  1  0
 65 64  1  0
 66 67  1  0
 66 65  1  0
 67 63  1  0
 68 69  2  0
 69 70  1  0
 71 70  2  0
 72 71  1  0
 73 78  1  0
 73 74  1  0
 74 77  1  1
 74 75  1  0
 76 74  1  0
 78 81  1  0
 79 83  1  0
 79 78  1  0
 80 79  2  0
 82 83  1  0
 85 83  1  0
 85 86  1  0
 85 84  1  0
M  ISO  4   5 100   7 100  45 101  46 101
M  END
>  <TORSDO>  (16) 
F 19

>  <SCORE>  (16) 
-15.742

>  <name>  (16) 
15

>  <ligand_id>  (16) 
15

>  <original_smiles>  (16) 
[H]OC(=C([H])C(=O)N1C([H])([H])C([H])([H])C([H])([H])C([H])(n2nc(-c3c([H])c([H])c(Oc4c([H])c([H])c(F)c([H])c4F)c([H])c3[H])c(C(=O)N([H])[H])c2N([H])[H])C1([H])[H])C1([H])C([H])([H])C([H])(C([H])([H])Oc2c([H])c([H])c3c(c2[H])C([H])([H])N(C(=O)C([H])(N([H])C(=O)C([H])(N([H])C([H])([H])[H])C([H])([H])[H])C(C([H])([H])[H])(C([H])([H])[H])C([H])([H])[H])C([H])(C(=O)N([H])C2([H])c4c([H])c([H])c([H])c([H])c4C([H])([H])C([H])([H])C2([H])[H])C3([H])[H])C1([H])[H]

>  <smiles>  (16) 
[H]OC(=C([H])C(=O)N1C([H])([H])C([H])([H])C([H])([H])C([H])(n2nc(-c3c([H])c([H])c(Oc4c([H])c([H])c(F)c([H])c4F)c([H])c3[H])c(C(=O)N([H])[H])c2N([H])[H])C1([H])[H])C1([H])C([H])([H])C([H])(C([H])([H])Oc2c([H])c([H])c3c(c2[H])C([H])([H])N(C(=O)C([H])(N([H])C(=O)C([H])(N([H])C([H])([H])[H])C([H])([H])[H])C(C([H])([H])[H])(C([H])([H])[H])C([H])([H])[H])C([H])(C(=O)N([H])C2([H])c4c([H])c([H])c([H])c([H])c4C([H])([H])C([H])([H])C2([H])[H])C3([H])[H])C1([H])[H]

$$$$
16:0:0
     RDKit          3D

 95103  0  0  1  0  0  0  0  0999 V2000
  -30.4870  -21.6020   19.2990 C   0  0  0  0  0  2  0  0  0  0  0  0
  -29.1380  -23.5980   18.4990 C   0  0  0  0  0  3  0  0  0  0  0  0
  -29.6490  -23.4460   20.8740 C   0  0  0  0  0  3  0  0  0  0  0  0
  -28.6200  -24.8970   18.6870 C   0  0  0  0  0  3  0  0  0  0  0  0
  -29.1280  -24.7460   21.0600 C   0  0  0  0  0  3  0  0  0  0  0  0
  -29.6950  -22.8780   19.5820 C   0  0  0  0  0  0  0  0  0  0  0  0
  -28.6460  -25.4920   19.9640 C   0  0  0  0  0  0  0  0  0  0  0  0
  -28.4470  -26.8430   20.1110 O   0  0  0  0  0  0  0  0  0  0  0  0
  -24.5750  -31.8880   23.2400 C   0  0  0  0  0  0  0  0  0  0  0  0
  -27.2160  -27.4560   20.1540 C   0  0  0  0  0  0  0  0  0  0  0  0
  -23.3590  -30.4820   21.6040 C   0  0  0  0  0  3  0  0  0  0  0  0
  -24.8050  -28.9310   20.1830 C   0  0  0  0  0  0  0  0  0  0  0  0
  -25.8770  -30.8460   21.3870 C   0  0  0  0  0  2  0  0  0  0  0  0
  -25.9590  -29.4700   20.7600 C   0  0  0  0  0  0  0  0  0  0  0  0
  -27.1620  -28.7360   20.7450 C   0  0  0  0  0  3  0  0  0  0  0  0
  -26.0430  -26.9160   19.5800 C   0  0  0  0  0  3  0  0  0  0  0  0
  -24.8390  -27.6520   19.5950 C   0  0  0  0  0  3  0  0  0  0  0  0
  -23.5600  -29.7880   20.2280 C   0  0  0  0  0  2  0  0  0  0  0  0
  -24.6220  -31.0880   22.1370 N   0  0  0  0  0  0  0  0  0  0  0  0
  -23.4990  -32.1610   23.7880 O   0  0  0  0  0  0  0  0  0  0  0  0
  -22.7110  -29.4680   22.5730 C   0  0  0  0  0  0  0  0  0  0  0  0
  -21.3860  -29.2850   22.4480 N   0  0  0  0  0  0  0  0  0  0  0  0
  -23.3960  -28.8450   23.3870 O   0  0  0  0  0  0  0  0  0  0  0  0
  -20.8940  -29.8410   21.7620 H   0  0  0  0  0  0  0  0  0  0  0  0
  -18.0160  -28.0860   22.9400 C   0  0  0  0  0  0  0  0  0  0  0  0
  -20.5710  -28.3490   23.2200 C   0  0  0  0  0  3  0  0  0  0  0  0
  -20.6790  -26.9150   22.6500 C   0  0  0  0  0  2  0  0  0  0  0  0
  -19.5810  -26.5870   21.6340 C   0  0  0  0  0  2  0  0  0  0  0  0
  -18.1970  -26.7340   22.2720 C   0  0  0  0  0  2  0  0  0  0  0  0
  -19.1320  -28.8520   23.3700 C   0  0  0  0  0  0  0  0  0  0  0  0
  -18.9090  -30.1210   23.9500 C   0  0  0  0  0  3  0  0  0  0  0  0
  -17.6030  -30.6200   24.1070 C   0  0  0  0  0  3  0  0  0  0  0  0
  -16.5010  -29.8510   23.6940 C   0  0  0  0  0  3  0  0  0  0  0  0
  -16.7100  -28.5870   23.1140 C   0  0  0  0  0  3  0  0  0  0  0  0
  -25.8670  -32.5150   23.8520 C   0  0  0  0  0  3  0  0  0  0  0  0
  -26.3930  -31.7360   25.1210 C   0  0  1  0  0  0  0  0  0  0  0  0
  -25.3100  -31.4980   26.1990 C   0  0  0  0  0  1  0  0  0  0  0  0
  -26.9680  -30.3590   24.7150 C   0  0  0  0  0  1  0  0  0  0  0  0
  -27.5510  -32.5230   25.7770 C   0  0  0  0  0  1  0  0  0  0  0  0
  -25.5650  -33.9120   24.1880 N   0  0  0  0  0  0  0  0  0  0  0  0
  -25.9020  -34.9640   23.4300 C   0  0  0  0  0  0  0  0  0  0  0  0
  -26.5700  -34.8600   22.3970 O   0  0  0  0  0  0  0  0  0  0  0  0
  -24.9690  -34.0670   24.9880 H   0  0  0  0  0  0  0  0  0  0  0  0
  -24.1790  -36.7630   23.0770 C   0  0  0  0  0  1  0  0  0  0  0  0
  -25.4190  -36.3540   23.8890 C   0  0  0  0  0  3  0  0  0  0  0  0
  -27.5590  -37.2280   24.7170 C   0  0  0  0  0  1  0  0  0  0  0  0
  -26.4570  -37.4020   23.7760 N   0  0  0  0  0  0  0  0  0  0  0  0
  -26.0560  -38.3240   23.9250 H   0  0  0  0  0  0  0  0  0  0  0  0
  -30.3490  -20.4110   20.2880 C   0  0  0  0  0  2  0  0  0  0  0  0
  -31.3090  -19.2590   19.9220 C   0  0  0  0  0  0  0  0  0  0  0  0
  -32.0870  -19.3970   18.9670 O   0  0  0  0  0  0  0  0  0  0  0  0
  -31.2750  -17.9250   20.7210 C   0  0  0  0  0  3  0  0  0  0  0  0
  -32.5200  -17.2430   20.3380 N   0  0  0  0  0  4  0  0  0  0  0  0
  -32.7260  -17.5650   19.4040 H   0  0  0  0  0  0  0  0  0  0  0  0
  -32.4080  -16.2340   20.3330 H   0  0  0  0  0  0  0  0  0  0  0  0
  -33.2830  -17.5140   20.9330 H   0  0  0  0  0  0  0  0  0  0  0  0
  -29.6740  -16.8840   18.9190 C   0  0  0  0  0  1  0  0  0  0  0  0
  -30.0170  -17.0420   20.4220 C   0  0  0  0  0  3  0  0  0  0  0  0
  -29.9580  -15.6720   21.1880 C   0  0  0  0  0  2  0  0  0  0  0  0
  -30.6520  -14.4590   20.5100 C   0  0  0  0  0  0  0  0  0  0  0  0
  -30.3570  -12.3450   19.2710 C   0  0  0  0  0  2  0  0  0  0  0  0
  -29.4070  -12.6100   18.0810 C   0  0  0  0  0  2  0  0  0  0  0  0
  -27.9300  -12.4830   18.5080 C   0  0  0  0  0  2  0  0  0  0  0  0
  -27.6130  -13.2690   19.8080 C   0  0  0  0  0  3  0  0  0  0  0  0
  -28.6670  -12.9630   20.8960 C   0  0  0  0  0  2  0  0  0  0  0  0
  -29.9900  -13.2840   20.3420 N   0  0  0  0  0  0  0  0  0  0  0  0
  -31.7740  -14.6470   20.0300 O   0  0  0  0  0  0  0  0  0  0  0  0
  -25.2140  -13.9020   20.4900 C   0  0  0  0  0  0  0  0  0  0  0  0
  -24.1390  -13.1420   20.8600 C   0  0  0  0  0  0  0  0  0  0  0  0
  -24.5890  -11.7860   20.8420 C   0  0  0  0  0  0  0  0  0  0  0  0
  -26.2540  -13.0110   20.2770 N   0  0  0  0  0  0  0  0  0  0  0  0
  -25.8810  -11.7330   20.5390 N   0  0  0  0  0  0  0  0  0  0  0  0
  -23.8540  -10.5310   21.0400 C   0  0  0  0  0  0  0  0  0  0  0  0
  -24.2850   -9.5640   21.9750 C   0  0  0  0  0  3  0  0  0  0  0  0
  -23.5520   -8.3720   22.1600 C   0  0  0  0  0  3  0  0  0  0  0  0
  -22.3760   -8.1390   21.4100 C   0  0  0  0  0  0  0  0  0  0  0  0
  -21.9640   -9.0950   20.4640 C   0  0  0  0  0  3  0  0  0  0  0  0
  -22.6970  -10.2790   20.2770 C   0  0  0  0  0  3  0  0  0  0  0  0
  -21.6140   -6.9980   21.5030 O   0  0  0  0  0  0  0  0  0  0  0  0
  -21.5730   -6.2520   22.6530 C   0  0  0  0  0  0  0  0  0  0  0  0
  -21.1790   -6.8110   23.8890 C   0  0  0  0  0  3  0  0  0  0  0  0
  -21.0830   -5.9930   25.0320 C   0  0  0  0  0  3  0  0  0  0  0  0
  -21.3730   -4.6180   24.9420 C   0  0  0  0  0  0  0  0  0  0  0  0
  -21.7610   -4.0600   23.7110 C   0  0  0  0  0  3  0  0  0  0  0  0
  -21.8580   -4.8750   22.5700 C   0  0  0  0  0  0  0  0  0  0  0  0
  -22.2130   -4.3270   21.3830 F   0  0  0  0  0  0  0  0  0  0  0  0
  -21.2730   -3.8310   26.0390 F   0  0  0  0  0  0  0  0  0  0  0  0
  -22.7440  -13.6300   21.1240 C   0  0  0  0  0  0  0  0  0  0  0  0
  -22.0100  -12.9450   21.9950 N   0  0  0  0  0  0  0  0  0  0  0  0
  -22.3140  -14.6560   20.5970 O   0  0  0  0  0  0  0  0  0  0  0  0
  -22.3720  -12.1180   22.4440 H   0  0  0  0  0  0  0  0  0  0  0  0
  -21.0730  -13.2540   22.2150 H   0  0  0  0  0  0  0  0  0  0  0  0
  -25.3910  -15.2710   20.3040 N   0  0  0  0  0  0  0  0  0  0  0  0
  -24.6310  -15.9340   20.3990 H   0  0  0  0  0  0  0  0  0  0  0  0
  -26.2490  -15.7010   19.9840 H   0  0  0  0  0  0  0  0  0  0  0  0
  1  6  1  0
  1 49  1  0
  2  4  2  0
  2  6  1  0
  3  5  1  0
  4  7  1  0
  6  3  2  0
  7  8  1  0
  7  5  2  0
  8 10  1  0
  9 20  2  0
 10 15  1  0
 11 19  1  0
 11 21  1  0
 12 18  1  0
 12 14  1  0
 13 19  1  0
 14 13  1  0
 15 14  2  0
 16 17  1  0
 16 10  2  0
 17 12  2  0
 18 11  1  0
 19  9  1  0
 21 23  2  0
 22 21  1  0
 24 22  1  0
 25 34  2  0
 25 30  1  0
 26 22  1  0
 26 30  1  0
 27 26  1  0
 28 29  1  0
 28 27  1  0
 29 25  1  0
 30 31  2  0
 31 32  1  0
 33 32  2  0
 34 33  1  0
 35  9  1  0
 35 40  1  0
 35 36  1  0
 36 39  1  1
 36 37  1  0
 38 36  1  0
 40 43  1  0
 41 45  1  0
 41 40  1  0
 42 41  2  0
 45 44  1  0
 47 45  1  0
 47 48  1  0
 47 46  1  0
 50 49  1  0
 51 50  2  0
 52 50  1  0
 53 52  1  0
 53 56  1  0
 54 53  1  0
 55 53  1  0
 58 57  1  0
 58 52  1  0
 58 59  1  0
 60 59  1  0
 61 66  1  0
 62 63  1  0
 62 61  1  0
 64 63  1  0
 64 71  1  0
 64 65  1  0
 66 60  1  0
 66 65  1  0
 67 60  2  0
 68 69  2  0
 69 88  1  0
 70 69  1  0
 70 73  1  0
 71 68  1  0
 71 72  1  0
 72 70  2  0
 73 74  1  0
 74 75  2  0
 76 79  1  0
 76 75  1  0
 77 76  2  0
 78 77  1  0
 78 73  2  0
 79 80  1  0
 80 81  1  0
 81 82  2  0
 83 82  1  0
 83 87  1  0
 84 83  2  0
 85 80  2  0
 85 84  1  0
 86 85  1  0
 88 89  1  0
 89 92  1  0
 89 91  1  0
 90 88  2  0
 93 94  1  0
 93 68  1  0
 95 93  1  0
M  ISO  4   7 101   8 101  59 100  60 100
M  END
>  <TORSDO>  (17) 
F 23

>  <SCORE>  (17) 
-12.952

>  <name>  (17) 
16

>  <ligand_id>  (17) 
16

>  <original_smiles>  (17) 
[H]c1c([H])c([H])c2c(c1[H])C([H])([H])C([H])([H])C([H])([H])C2([H])N([H])C(=O)C1([H])N(C(=O)C([H])(N([H])C(=O)C([H])(N([H])C([H])([H])[H])C([H])([H])[H])C(C([H])([H])[H])(C([H])([H])[H])C([H])([H])[H])C([H])([H])c2c([H])c(Oc3c([H])c([H])c(C([H])([H])C([H])([H])C(=O)C([H])(C([H])(C([H])([H])[H])C([H])([H])C(=O)N4C([H])([H])C([H])([H])C([H])([H])C([H])(n5nc(-c6c([H])c([H])c(Oc7c([H])c([H])c(F)c([H])c7F)c([H])c6[H])c(C(=O)N([H])[H])c5N([H])[H])C4([H])[H])[N+]([H])([H])[H])c([H])c3[H])c([H])c([H])c2C1([H])[H]

>  <smiles>  (17) 
[H]c1c([H])c([H])c2c(c1[H])C([H])([H])C([H])([H])C([H])([H])C2([H])N([H])C(=O)C1([H])N(C(=O)C([H])(N([H])C(=O)C([H])(N([H])C([H])([H])[H])C([H])([H])[H])C(C([H])([H])[H])(C([H])([H])[H])C([H])([H])[H])C([H])([H])c2c([H])c(Oc3c([H])c([H])c(C([H])([H])C([H])([H])C(=O)C([H])(C([H])(C([H])([H])[H])C([H])([H])C(=O)N4C([H])([H])C([H])([H])C([H])([H])C([H])(n5nc(-c6c([H])c([H])c(Oc7c([H])c([H])c(F)c([H])c7F)c([H])c6[H])c(C(=O)N([H])[H])c5N([H])[H])C4([H])[H])[N+]([H])([H])[H])c([H])c3[H])c([H])c([H])c2C1([H])[H]

$$$$
17:0:0
     RDKit          3D

 86 94  0  0  1  0  0  0  0  0999 V2000
  -28.2400  -22.5600   18.4910 C   0  0  0  0  0  1  0  0  0  0  0  0
  -28.7910  -22.7350   19.9100 C   0  0  0  0  0  3  0  0  0  0  0  0
  -28.9070  -21.0770   20.6040 C   0  0  0  0  0  2  0  0  0  0  0  0
  -30.4720  -15.2590   20.1370 C   0  0  0  0  0  0  0  0  0  0  0  0
  -30.3590  -12.8370   19.2150 C   0  0  0  0  0  2  0  0  0  0  0  0
  -29.4160  -12.6280   18.0100 C   0  0  0  0  0  2  0  0  0  0  0  0
  -27.9780  -12.3620   18.4890 C   0  0  0  0  0  2  0  0  0  0  0  0
  -27.5540  -13.3260   19.6250 C   0  0  0  0  0  3  0  0  0  0  0  0
  -28.6310  -13.4910   20.7170 C   0  0  0  0  0  2  0  0  0  0  0  0
  -29.8330  -13.9920   20.0330 N   0  0  0  0  0  0  0  0  0  0  0  0
  -31.7000  -15.1530   19.9730 O   0  0  0  0  0  0  0  0  0  0  0  0
  -30.3450  -19.0370   19.0770 C   0  0  0  0  0  2  0  0  0  0  0  0
  -30.3570  -17.4600   18.7990 C   0  0  0  0  0  2  0  0  0  0  0  0
  -29.2970  -17.8640   20.7530 C   0  0  0  0  0  2  0  0  0  0  0  0
  -29.1530  -19.4000   19.9760 C   0  0  0  0  0  3  0  0  0  0  0  0
  -29.8460  -16.6010   19.9180 N   0  0  0  0  0  0  0  0  0  0  0  0
  -25.2050  -13.8770   20.4350 C   0  0  0  0  0  0  0  0  0  0  0  0
  -24.1510  -13.0960   20.8190 C   0  0  0  0  0  0  0  0  0  0  0  0
  -24.6200  -11.7470   20.7770 C   0  0  0  0  0  0  0  0  0  0  0  0
  -26.2430  -13.0050   20.1690 N   0  0  0  0  0  0  0  0  0  0  0  0
  -25.9060  -11.7170   20.4440 N   0  0  0  0  0  0  0  0  0  0  0  0
  -23.8980  -10.4830   20.9750 C   0  0  0  0  0  0  0  0  0  0  0  0
  -24.3330   -9.5210   21.9130 C   0  0  0  0  0  3  0  0  0  0  0  0
  -23.6080   -8.3230   22.1000 C   0  0  0  0  0  3  0  0  0  0  0  0
  -22.4330   -8.0800   21.3490 C   0  0  0  0  0  0  0  0  0  0  0  0
  -22.0170   -9.0310   20.4000 C   0  0  0  0  0  3  0  0  0  0  0  0
  -22.7430  -10.2190   20.2110 C   0  0  0  0  0  3  0  0  0  0  0  0
  -21.6790   -6.9360   21.4450 O   0  0  0  0  0  0  0  0  0  0  0  0
  -21.6220   -6.2080   22.6060 C   0  0  0  0  0  0  0  0  0  0  0  0
  -21.1650   -6.7720   23.8170 C   0  0  0  0  0  3  0  0  0  0  0  0
  -21.0560   -5.9700   24.9700 C   0  0  0  0  0  3  0  0  0  0  0  0
  -21.3920   -4.6040   24.9140 C   0  0  0  0  0  0  0  0  0  0  0  0
  -21.8420   -4.0390   23.7080 C   0  0  0  0  0  3  0  0  0  0  0  0
  -21.9530   -4.8380   22.5560 C   0  0  0  0  0  0  0  0  0  0  0  0
  -22.3660   -4.2840   21.3910 F   0  0  0  0  0  0  0  0  0  0  0  0
  -21.2800   -3.8310   26.0190 F   0  0  0  0  0  0  0  0  0  0  0  0
  -22.7570  -13.5700   21.1120 C   0  0  0  0  0  0  0  0  0  0  0  0
  -22.0430  -12.8690   21.9840 N   0  0  0  0  0  0  0  0  0  0  0  0
  -22.3130  -14.5970   20.6010 O   0  0  0  0  0  0  0  0  0  0  0  0
  -22.4180  -12.0400   22.4190 H   0  0  0  0  0  0  0  0  0  0  0  0
  -21.1080  -13.1680   22.2220 H   0  0  0  0  0  0  0  0  0  0  0  0
  -25.3640  -15.2490   20.2620 N   0  0  0  0  0  0  0  0  0  0  0  0
  -24.6040  -15.9060   20.3980 H   0  0  0  0  0  0  0  0  0  0  0  0
  -26.2150  -15.6890   19.9340 H   0  0  0  0  0  0  0  0  0  0  0  0
  -28.0800  -24.2750   20.5220 C   0  0  0  0  0  2  0  0  0  0  0  0
  -28.2770  -25.8840   20.2380 O   0  0  0  0  0  0  0  0  0  0  0  0
  -24.6390  -31.8240   23.1860 C   0  0  0  0  0  0  0  0  0  0  0  0
  -27.2430  -26.9540   20.2280 C   0  0  0  0  0  0  0  0  0  0  0  0
  -23.4670  -30.4160   21.5420 C   0  0  0  0  0  3  0  0  0  0  0  0
  -24.9350  -28.8110   20.1460 C   0  0  0  0  0  0  0  0  0  0  0  0
  -26.0330  -30.6430   21.4170 C   0  0  0  0  0  2  0  0  0  0  0  0
  -26.1160  -29.2300   20.7730 C   0  0  0  0  0  0  0  0  0  0  0  0
  -27.2690  -28.3260   20.7820 C   0  0  0  0  0  3  0  0  0  0  0  0
  -26.0310  -26.6780   19.5590 C   0  0  0  0  0  3  0  0  0  0  0  0
  -24.9170  -27.5550   19.5190 C   0  0  0  0  0  3  0  0  0  0  0  0
  -23.7130  -29.7270   20.1720 C   0  0  0  0  0  2  0  0  0  0  0  0
  -24.7350  -30.9880   22.1030 N   0  0  0  0  0  0  0  0  0  0  0  0
  -23.5430  -32.1130   23.6950 O   0  0  0  0  0  0  0  0  0  0  0  0
  -22.7670  -29.4220   22.5050 C   0  0  0  0  0  0  0  0  0  0  0  0
  -21.4360  -29.2690   22.3820 N   0  0  0  0  0  0  0  0  0  0  0  0
  -23.4300  -28.7880   23.3310 O   0  0  0  0  0  0  0  0  0  0  0  0
  -20.9560  -29.8320   21.6940 H   0  0  0  0  0  0  0  0  0  0  0  0
  -18.0410  -28.1020   22.9060 C   0  0  0  0  0  0  0  0  0  0  0  0
  -20.6060  -28.3360   23.1500 C   0  0  0  0  0  3  0  0  0  0  0  0
  -20.6850  -26.9080   22.5620 C   0  0  0  0  0  2  0  0  0  0  0  0
  -19.5710  -26.6070   21.5540 C   0  0  0  0  0  2  0  0  0  0  0  0
  -18.1970  -26.7600   22.2120 C   0  0  0  0  0  2  0  0  0  0  0  0
  -19.1710  -28.8490   23.3320 C   0  0  0  0  0  0  0  0  0  0  0  0
  -18.9700  -30.1050   23.9460 C   0  0  0  0  0  3  0  0  0  0  0  0
  -17.6710  -30.6140   24.1340 C   0  0  0  0  0  3  0  0  0  0  0  0
  -16.5550  -29.8660   23.7220 C   0  0  0  0  0  3  0  0  0  0  0  0
  -16.7420  -28.6110   23.1140 C   0  0  0  0  0  3  0  0  0  0  0  0
  -25.9020  -32.4750   23.8290 C   0  0  0  0  0  3  0  0  0  0  0  0
  -25.5770  -33.8750   24.1530 N   0  0  0  0  0  0  0  0  0  0  0  0
  -25.9170  -34.9350   23.4060 C   0  0  0  0  0  0  0  0  0  0  0  0
  -26.6000  -34.8360   22.3840 O   0  0  0  0  0  0  0  0  0  0  0  0
  -24.9700  -34.0240   24.9450 H   0  0  0  0  0  0  0  0  0  0  0  0
  -24.1930  -36.7340   23.0390 C   0  0  0  0  0  1  0  0  0  0  0  0
  -25.4230  -36.3230   23.8630 C   0  0  0  0  0  3  0  0  0  0  0  0
  -27.5440  -37.2090   24.7290 C   0  0  0  0  0  1  0  0  0  0  0  0
  -26.4580  -37.3770   23.7690 N   0  0  0  0  0  0  0  0  0  0  0  0
  -26.0500  -38.2970   23.9100 H   0  0  0  0  0  0  0  0  0  0  0  0
  -26.3940  -31.7200   25.1260 C   0  0  1  0  0  0  0  0  0  0  0  0
  -25.2810  -31.4930   26.1770 C   0  0  0  0  0  1  0  0  0  0  0  0
  -26.9870  -30.3380   24.7690 C   0  0  0  0  0  1  0  0  0  0  0  0
  -27.5310  -32.5230   25.8000 C   0  0  0  0  0  1  0  0  0  0  0  0
  2  1  1  0
  2 45  1  0
  2  3  1  0
  5 10  1  0
  6  7  1  0
  6  5  1  0
  8  7  1  0
  8 20  1  0
  8  9  1  0
 10  4  1  0
 10  9  1  0
 11  4  2  0
 12 15  1  0
 13 12  1  0
 13 16  1  0
 15  3  1  0
 15 14  1  0
 16  4  1  0
 16 14  1  0
 17 18  2  0
 18 37  1  0
 19 18  1  0
 19 22  1  0
 20 17  1  0
 20 21  1  0
 21 19  2  0
 22 23  1  0
 23 24  2  0
 25 28  1  0
 25 24  1  0
 26 25  2  0
 27 26  1  0
 27 22  2  0
 28 29  1  0
 29 30  1  0
 30 31  2  0
 32 31  1  0
 32 36  1  0
 33 32  2  0
 34 29  2  0
 34 33  1  0
 35 34  1  0
 37 38  1  0
 38 41  1  0
 38 40  1  0
 39 37  2  0
 42 43  1  0
 42 17  1  0
 44 42  1  0
 46 45  1  0
 47 58  2  0
 48 46  1  0
 48 53  1  0
 49 57  1  0
 49 59  1  0
 50 56  1  0
 50 52  1  0
 51 57  1  0
 52 53  2  0
 52 51  1  0
 54 48  2  0
 55 54  1  0
 55 50  2  0
 56 49  1  0
 57 47  1  0
 59 61  2  0
 60 59  1  0
 62 60  1  0
 63 72  2  0
 63 68  1  0
 64 60  1  0
 64 68  1  0
 65 64  1  0
 66 67  1  0
 66 65  1  0
 67 63  1  0
 68 69  2  0
 69 70  1  0
 71 70  2  0
 72 71  1  0
 73 47  1  0
 73 74  1  0
 73 83  1  0
 74 77  1  0
 75 79  1  0
 75 74  1  0
 76 75  2  0
 79 78  1  0
 81 79  1  0
 81 82  1  0
 81 80  1  0
 83 86  1  1
 83 84  1  0
 85 83  1  0
M  ISO  4   4 100  16 100  45 101  46 101
M  END
>  <TORSDO>  (18) 
F 18

>  <SCORE>  (18) 
-16.123

>  <name>  (18) 
17

>  <ligand_id>  (18) 
17

>  <original_smiles>  (18) 
[H]c1c([H])c([H])c2c(c1[H])C([H])([H])C([H])([H])C([H])([H])C2([H])N([H])C(=O)C1([H])N(C(=O)C([H])(N([H])C(=O)C([H])(N([H])C([H])([H])[H])C([H])([H])[H])C(C([H])([H])[H])(C([H])([H])[H])C([H])([H])[H])C([H])([H])c2c([H])c(OC([H])([H])C([H])(C([H])([H])[H])C([H])([H])C3([H])C([H])([H])N(C(=O)N4C([H])([H])C([H])([H])C([H])([H])C([H])(n5nc(-c6c([H])c([H])c(Oc7c([H])c([H])c(F)c([H])c7F)c([H])c6[H])c(C(=O)N([H])[H])c5N([H])[H])C4([H])[H])C([H])([H])C3([H])[H])c([H])c([H])c2C1([H])[H]

>  <smiles>  (18) 
[H]c1c([H])c([H])c2c(c1[H])C([H])([H])C([H])([H])C([H])([H])C2([H])N([H])C(=O)C1([H])N(C(=O)C([H])(N([H])C(=O)C([H])(N([H])C([H])([H])[H])C([H])([H])[H])C(C([H])([H])[H])(C([H])([H])[H])C([H])([H])[H])C([H])([H])c2c([H])c(OC([H])([H])C([H])(C([H])([H])[H])C([H])([H])C3([H])C([H])([H])N(C(=O)N4C([H])([H])C([H])([H])C([H])([H])C([H])(n5nc(-c6c([H])c([H])c(Oc7c([H])c([H])c(F)c([H])c7F)c([H])c6[H])c(C(=O)N([H])[H])c5N([H])[H])C4([H])[H])C([H])([H])C3([H])[H])c([H])c([H])c2C1([H])[H]

$$$$
18:0:0
     RDKit          3D

 93101  0  0  1  0  0  0  0  0999 V2000
  -29.7560  -21.6220   20.3140 C   0  0  0  0  0  2  0  0  0  0  0  0
  -27.5390  -21.8900   19.7120 C   0  0  0  0  0  2  0  0  0  0  0  0
  -28.7580  -22.8670   19.7260 C   0  0  0  0  0  3  0  0  0  0  0  0
  -29.2370  -19.9870   20.2500 C   0  0  0  0  0  3  0  0  0  0  0  0
  -27.9230  -20.3560   19.4670 C   0  0  0  0  0  3  0  0  0  0  0  0
  -26.7760  -19.4950   19.8300 N   0  0  0  0  0  4  0  0  0  0  0  0
  -26.5180  -19.6080   20.7960 H   0  0  0  0  0  0  0  0  0  0  0  0
  -26.9700  -18.5230   19.6700 H   0  0  0  0  0  0  0  0  0  0  0  0
  -25.9710  -19.7380   19.2800 H   0  0  0  0  0  0  0  0  0  0  0  0
  -28.3150  -24.5000   20.2890 C   0  0  0  0  0  2  0  0  0  0  0  0
  -28.4330  -26.0460   19.8360 O   0  0  0  0  0  0  0  0  0  0  0  0
  -24.5690  -31.6640   22.9690 C   0  0  0  0  0  0  0  0  0  0  0  0
  -27.3580  -27.0510   19.8590 C   0  0  0  0  0  0  0  0  0  0  0  0
  -23.4510  -30.2840   21.2630 C   0  0  0  0  0  3  0  0  0  0  0  0
  -24.9830  -28.7920   19.8150 C   0  0  0  0  0  0  0  0  0  0  0  0
  -26.0000  -30.6190   21.1540 C   0  0  0  0  0  2  0  0  0  0  0  0
  -26.1380  -29.2370   20.4680 C   0  0  0  0  0  0  0  0  0  0  0  0
  -27.3250  -28.3890   20.4680 C   0  0  0  0  0  3  0  0  0  0  0  0
  -26.1710  -26.7370   19.1630 C   0  0  0  0  0  3  0  0  0  0  0  0
  -25.0200  -27.5600   19.1420 C   0  0  0  0  0  3  0  0  0  0  0  0
  -23.7250  -29.6540   19.8690 C   0  0  0  0  0  2  0  0  0  0  0  0
  -24.6930  -30.8790   21.8510 N   0  0  0  0  0  0  0  0  0  0  0  0
  -23.4650  -31.8930   23.4870 O   0  0  0  0  0  0  0  0  0  0  0  0
  -22.7910  -29.2250   22.1840 C   0  0  0  0  0  0  0  0  0  0  0  0
  -21.4640  -29.0410   22.0660 N   0  0  0  0  0  0  0  0  0  0  0  0
  -23.4790  -28.5670   22.9690 O   0  0  0  0  0  0  0  0  0  0  0  0
  -20.9590  -29.6360   21.4250 H   0  0  0  0  0  0  0  0  0  0  0  0
  -18.1000  -27.8050   22.5850 C   0  0  0  0  0  0  0  0  0  0  0  0
  -20.6680  -28.0410   22.7860 C   0  0  0  0  0  3  0  0  0  0  0  0
  -20.7420  -26.6630   22.0860 C   0  0  0  0  0  2  0  0  0  0  0  0
  -19.6030  -26.4350   21.0850 C   0  0  0  0  0  2  0  0  0  0  0  0
  -18.2460  -26.5200   21.7860 C   0  0  0  0  0  2  0  0  0  0  0  0
  -19.2350  -28.5280   23.0400 C   0  0  0  0  0  0  0  0  0  0  0  0
  -19.0380  -29.7350   23.7440 C   0  0  0  0  0  3  0  0  0  0  0  0
  -17.7400  -30.2200   23.9960 C   0  0  0  0  0  3  0  0  0  0  0  0
  -16.6210  -29.4960   23.5530 C   0  0  0  0  0  3  0  0  0  0  0  0
  -16.8010  -28.2900   22.8540 C   0  0  0  0  0  3  0  0  0  0  0  0
  -25.8080  -32.3290   23.6430 C   0  0  0  0  0  3  0  0  0  0  0  0
  -25.4310  -33.6960   24.0380 N   0  0  0  0  0  0  0  0  0  0  0  0
  -25.7200  -34.8030   23.3400 C   0  0  0  0  0  0  0  0  0  0  0  0
  -26.3960  -34.7810   22.3080 O   0  0  0  0  0  0  0  0  0  0  0  0
  -24.8270  -33.7830   24.8430 H   0  0  0  0  0  0  0  0  0  0  0  0
  -23.9130  -36.5390   23.0770 C   0  0  0  0  0  1  0  0  0  0  0  0
  -25.1750  -36.1460   23.8660 C   0  0  0  0  0  3  0  0  0  0  0  0
  -27.2670  -37.0980   24.7390 C   0  0  0  0  0  1  0  0  0  0  0  0
  -26.1590  -37.2490   23.7990 N   0  0  0  0  0  0  0  0  0  0  0  0
  -25.7140  -38.1460   23.9750 H   0  0  0  0  0  0  0  0  0  0  0  0
  -26.3310  -31.5250   24.8970 C   0  0  1  0  0  0  0  0  0  0  0  0
  -25.2290  -31.2040   25.9350 C   0  0  0  0  0  1  0  0  0  0  0  0
  -26.9720  -30.1860   24.4660 C   0  0  0  0  0  1  0  0  0  0  0  0
  -27.4390  -32.3330   25.6140 C   0  0  0  0  0  1  0  0  0  0  0  0
  -30.1610  -18.4890   19.8950 C   0  0  0  0  0  3  0  0  0  0  0  0
  -31.5420  -18.7510   20.3490 N   0  0  0  0  0  4  0  0  0  0  0  0
  -31.6150  -18.7130   21.3480 H   0  0  0  0  0  0  0  0  0  0  0  0
  -31.8620  -19.6550   20.0510 H   0  0  0  0  0  0  0  0  0  0  0  0
  -32.1690  -18.0660   19.9660 H   0  0  0  0  0  0  0  0  0  0  0  0
  -29.8350  -16.7610   20.2070 C   0  0  0  0  0  2  0  0  0  0  0  0
  -30.6630  -15.2770   19.8080 C   0  0  0  0  0  0  0  0  0  0  0  0
  -30.6220  -12.8420   18.9210 C   0  0  0  0  0  2  0  0  0  0  0  0
  -29.6130  -12.6740   17.7550 C   0  0  0  0  0  2  0  0  0  0  0  0
  -28.1960  -12.3940   18.2860 C   0  0  0  0  0  2  0  0  0  0  0  0
  -27.8290  -13.3470   19.4480 C   0  0  0  0  0  3  0  0  0  0  0  0
  -28.9460  -13.4670   20.5030 C   0  0  0  0  0  2  0  0  0  0  0  0
  -30.1490  -13.9560   19.8190 N   0  0  0  0  0  0  0  0  0  0  0  0
  -31.8310  -15.3290   19.3970 O   0  0  0  0  0  0  0  0  0  0  0  0
  -25.5360  -13.8990   20.4220 C   0  0  0  0  0  0  0  0  0  0  0  0
  -24.5010  -13.1170   20.8500 C   0  0  0  0  0  0  0  0  0  0  0  0
  -24.9460  -11.7640   20.7160 C   0  0  0  0  0  0  0  0  0  0  0  0
  -26.5390  -13.0260   20.0430 N   0  0  0  0  0  0  0  0  0  0  0  0
  -26.2040  -11.7330   20.2920 N   0  0  0  0  0  0  0  0  0  0  0  0
  -24.2160  -10.5030   20.9100 C   0  0  0  0  0  0  0  0  0  0  0  0
  -24.6380   -9.5480   21.8630 C   0  0  0  0  0  3  0  0  0  0  0  0
  -23.9130   -8.3500   22.0440 C   0  0  0  0  0  3  0  0  0  0  0  0
  -22.7470   -8.1030   21.2810 C   0  0  0  0  0  0  0  0  0  0  0  0
  -22.3460   -9.0460   20.3200 C   0  0  0  0  0  3  0  0  0  0  0  0
  -23.0720  -10.2350   20.1350 C   0  0  0  0  0  3  0  0  0  0  0  0
  -21.9910   -6.9600   21.3740 O   0  0  0  0  0  0  0  0  0  0  0  0
  -21.8190   -6.3070   22.5690 C   0  0  0  0  0  0  0  0  0  0  0  0
  -21.2370   -6.9400   23.6890 C   0  0  0  0  0  3  0  0  0  0  0  0
  -21.0140   -6.2100   24.8740 C   0  0  0  0  0  3  0  0  0  0  0  0
  -21.3660   -4.8480   24.9400 C   0  0  0  0  0  0  0  0  0  0  0  0
  -21.9400   -4.2140   23.8240 C   0  0  0  0  0  3  0  0  0  0  0  0
  -22.1620   -4.9410   22.6400 C   0  0  0  0  0  0  0  0  0  0  0  0
  -22.6940   -4.3200   21.5600 F   0  0  0  0  0  0  0  0  0  0  0  0
  -21.1480   -4.1450   26.0770 F   0  0  0  0  0  0  0  0  0  0  0  0
  -23.1350  -13.5940   21.2480 C   0  0  0  0  0  0  0  0  0  0  0  0
  -22.4730  -12.8750   22.1500 N   0  0  0  0  0  0  0  0  0  0  0  0
  -22.6640  -14.6350   20.7940 O   0  0  0  0  0  0  0  0  0  0  0  0
  -22.8690  -12.0320   22.5360 H   0  0  0  0  0  0  0  0  0  0  0  0
  -21.5590  -13.1780   22.4580 H   0  0  0  0  0  0  0  0  0  0  0  0
  -25.6980  -15.2750   20.2940 N   0  0  0  0  0  0  0  0  0  0  0  0
  -24.9220  -15.9000   20.4810 H   0  0  0  0  0  0  0  0  0  0  0  0
  -26.4140  -15.6900   19.7120 H   0  0  0  0  0  0  0  0  0  0  0  0
  2  3  1  0
  3 10  1  0
  3  1  1  0
  4 52  1  0
  4  1  1  0
  5  2  1  0
  5  6  1  0
  5  4  1  0
  6  7  1  0
  8  6  1  0
  9  6  1  0
 11 13  1  0
 11 10  1  0
 12 23  2  0
 13 18  1  0
 14 22  1  0
 14 24  1  0
 15 21  1  0
 15 17  1  0
 16 22  1  0
 17 18  2  0
 17 16  1  0
 19 13  2  0
 20 19  1  0
 20 15  2  0
 21 14  1  0
 22 12  1  0
 24 26  2  0
 25 24  1  0
 27 25  1  0
 28 37  2  0
 28 33  1  0
 29 25  1  0
 29 33  1  0
 30 29  1  0
 31 32  1  0
 31 30  1  0
 32 28  1  0
 33 34  2  0
 34 35  1  0
 36 35  2  0
 37 36  1  0
 38 12  1  0
 38 39  1  0
 38 48  1  0
 39 42  1  0
 40 44  1  0
 40 39  1  0
 41 40  2  0
 44 43  1  0
 46 44  1  0
 46 47  1  0
 46 45  1  0
 48 51  1  1
 48 49  1  0
 50 48  1  0
 52 57  1  0
 52 53  1  0
 53 54  1  0
 55 53  1  0
 56 53  1  0
 58 64  1  0
 58 57  1  0
 59 64  1  0
 60 61  1  0
 60 59  1  0
 62 61  1  0
 62 69  1  0
 62 63  1  0
 64 63  1  0
 65 58  2  0
 66 67  2  0
 67 86  1  0
 68 67  1  0
 68 71  1  0
 69 70  1  0
 69 66  1  0
 70 68  2  0
 71 72  1  0
 72 73  2  0
 74 77  1  0
 74 73  1  0
 75 74  2  0
 76 75  1  0
 76 71  2  0
 77 78  1  0
 78 83  2  0
 78 79  1  0
 79 80  2  0
 80 81  1  0
 81 85  1  0
 82 81  2  0
 83 82  1  0
 84 83  1  0
 86 87  1  0
 87 90  1  0
 87 89  1  0
 88 86  2  0
 91 66  1  0
 91 92  1  0
 93 91  1  0
M  ISO  4  10 101  11 101  57 100  58 100
M  END
>  <TORSDO>  (19) 
F 21

>  <SCORE>  (19) 
-14.911

>  <name>  (19) 
18

>  <ligand_id>  (19) 
18

>  <original_smiles>  (19) 
[H]c1c([H])c([H])c2c(c1[H])C([H])([H])C([H])([H])C([H])([H])C2([H])N([H])C(=O)C1([H])N(C(=O)C([H])(N([H])C(=O)C([H])(N([H])C([H])([H])[H])C([H])([H])[H])C(C([H])([H])[H])(C([H])([H])[H])C([H])([H])[H])C([H])([H])c2c([H])c(OC([H])([H])C3([H])C([H])([H])C([H])(C([H])(C([H])([H])C(=O)N4C([H])([H])C([H])([H])C([H])([H])C([H])(n5nc(-c6c([H])c([H])c(Oc7c([H])c([H])c(F)c([H])c7F)c([H])c6[H])c(C(=O)N([H])[H])c5N([H])[H])C4([H])[H])[N+]([H])([H])[H])C([H])([N+]([H])([H])[H])C3([H])[H])c([H])c([H])c2C1([H])[H]

>  <smiles>  (19) 
[H]c1c([H])c([H])c2c(c1[H])C([H])([H])C([H])([H])C([H])([H])C2([H])N([H])C(=O)C1([H])N(C(=O)C([H])(N([H])C(=O)C([H])(N([H])C([H])([H])[H])C([H])([H])[H])C(C([H])([H])[H])(C([H])([H])[H])C([H])([H])[H])C([H])([H])c2c([H])c(OC([H])([H])C3([H])C([H])([H])C([H])(C([H])(C([H])([H])C(=O)N4C([H])([H])C([H])([H])C([H])([H])C([H])(n5nc(-c6c([H])c([H])c(Oc7c([H])c([H])c(F)c([H])c7F)c([H])c6[H])c(C(=O)N([H])[H])c5N([H])[H])C4([H])[H])[N+]([H])([H])[H])C([H])([N+]([H])([H])[H])C3([H])[H])c([H])c([H])c2C1([H])[H]

$$$$
19:0:0
     RDKit          3D

 90 98  0  0  1  0  0  0  0  0999 V2000
  -29.4110  -22.6880   19.3290 C   0  0  0  0  0  2  0  0  0  0  0  0
  -30.0130  -21.2680   19.7160 C   0  0  0  0  0  2  0  0  0  0  0  0
  -27.8640  -22.4740   21.2290 C   0  0  0  0  0  2  0  0  0  0  0  0
  -28.7680  -23.5340   20.4890 C   0  0  0  0  0  3  0  0  0  0  0  0
  -29.0570  -20.2980   20.4950 C   0  0  0  0  0  3  0  0  0  0  0  0
  -28.5110  -21.1560   21.6030 N   0  0  0  0  0  4  0  0  0  0  0  0
  -27.8150  -20.6200   22.0950 H   0  0  0  0  0  0  0  0  0  0  0  0
  -29.2460  -21.3440   22.2640 H   0  0  0  0  0  0  0  0  0  0  0  0
  -27.9310  -24.8600   20.0270 C   0  0  0  0  0  2  0  0  0  0  0  0
  -28.2580  -26.3180   20.2560 O   0  0  0  0  0  0  0  0  0  0  0  0
  -24.6090  -31.8600   23.2350 C   0  0  0  0  0  0  0  0  0  0  0  0
  -27.1900  -27.2510   20.1700 C   0  0  0  0  0  0  0  0  0  0  0  0
  -23.4010  -30.4660   21.5990 C   0  0  0  0  0  3  0  0  0  0  0  0
  -24.8460  -28.9210   20.1580 C   0  0  0  0  0  0  0  0  0  0  0  0
  -25.9480  -30.7640   21.4190 C   0  0  0  0  0  2  0  0  0  0  0  0
  -26.0210  -29.3850   20.7650 C   0  0  0  0  0  0  0  0  0  0  0  0
  -27.1950  -28.5600   20.7650 C   0  0  0  0  0  3  0  0  0  0  0  0
  -25.9980  -26.8800   19.5020 C   0  0  0  0  0  3  0  0  0  0  0  0
  -24.8410  -27.6790   19.5140 C   0  0  0  0  0  3  0  0  0  0  0  0
  -23.6120  -29.8000   20.2160 C   0  0  0  0  0  2  0  0  0  0  0  0
  -24.6720  -31.0490   22.1390 N   0  0  0  0  0  0  0  0  0  0  0  0
  -23.5270  -32.1410   23.7710 O   0  0  0  0  0  0  0  0  0  0  0  0
  -22.7380  -29.4470   22.5580 C   0  0  0  0  0  0  0  0  0  0  0  0
  -21.4110  -29.2730   22.4360 N   0  0  0  0  0  0  0  0  0  0  0  0
  -23.4180  -28.8200   23.3750 O   0  0  0  0  0  0  0  0  0  0  0  0
  -20.9220  -29.8320   21.7500 H   0  0  0  0  0  0  0  0  0  0  0  0
  -18.0340  -28.0760   22.9420 C   0  0  0  0  0  0  0  0  0  0  0  0
  -20.5920  -28.3370   23.2090 C   0  0  0  0  0  3  0  0  0  0  0  0
  -20.6940  -26.9050   22.6360 C   0  0  0  0  0  2  0  0  0  0  0  0
  -19.5910  -26.5800   21.6240 C   0  0  0  0  0  2  0  0  0  0  0  0
  -18.2100  -26.7260   22.2690 C   0  0  0  0  0  2  0  0  0  0  0  0
  -19.1530  -28.8390   23.3700 C   0  0  0  0  0  0  0  0  0  0  0  0
  -18.9340  -30.1020   23.9600 C   0  0  0  0  0  3  0  0  0  0  0  0
  -17.6290  -30.6020   24.1280 C   0  0  0  0  0  3  0  0  0  0  0  0
  -16.5240  -29.8360   23.7170 C   0  0  0  0  0  3  0  0  0  0  0  0
  -16.7280  -28.5750   23.1290 C   0  0  0  0  0  3  0  0  0  0  0  0
  -25.8940  -32.4910   23.8540 C   0  0  0  0  0  3  0  0  0  0  0  0
  -26.4110  -31.7170   25.1290 C   0  0  1  0  0  0  0  0  0  0  0  0
  -25.3200  -31.4820   26.1990 C   0  0  0  0  0  1  0  0  0  0  0  0
  -26.9910  -30.3380   24.7380 C   0  0  0  0  0  1  0  0  0  0  0  0
  -27.5640  -32.5090   25.7890 C   0  0  0  0  0  1  0  0  0  0  0  0
  -25.5850  -33.8900   24.1890 N   0  0  0  0  0  0  0  0  0  0  0  0
  -25.9120  -34.9440   23.4300 C   0  0  0  0  0  0  0  0  0  0  0  0
  -26.5750  -34.8420   22.3950 O   0  0  0  0  0  0  0  0  0  0  0  0
  -24.9950  -34.0420   24.9930 H   0  0  0  0  0  0  0  0  0  0  0  0
  -24.1810  -36.7370   23.0940 C   0  0  0  0  0  1  0  0  0  0  0  0
  -25.4290  -36.3320   23.8940 C   0  0  0  0  0  3  0  0  0  0  0  0
  -27.5690  -37.2170   24.7080 C   0  0  0  0  0  1  0  0  0  0  0  0
  -26.4590  -37.3850   23.7730 N   0  0  0  0  0  0  0  0  0  0  0  0
  -26.0550  -38.3060   23.9240 H   0  0  0  0  0  0  0  0  0  0  0  0
  -29.6390  -18.8620   21.0410 C   0  0  0  0  0  2  0  0  0  0  0  0
  -31.1600  -17.7690   19.2660 C   0  0  0  0  0  1  0  0  0  0  0  0
  -29.9260  -17.5250   20.1510 C   0  0  0  0  0  3  0  0  0  0  0  0
  -29.9920  -16.0790   20.9280 C   0  0  0  0  0  2  0  0  0  0  0  0
  -30.6600  -14.7350   20.3230 C   0  0  0  0  0  0  0  0  0  0  0  0
  -30.4330  -12.4840   19.2410 C   0  0  0  0  0  2  0  0  0  0  0  0
  -29.4900  -12.6130   18.0230 C   0  0  0  0  0  2  0  0  0  0  0  0
  -28.0240  -12.4380   18.4540 C   0  0  0  0  0  2  0  0  0  0  0  0
  -27.6680  -13.2950   19.6990 C   0  0  0  0  0  3  0  0  0  0  0  0
  -28.7300  -13.1480   20.8120 C   0  0  0  0  0  2  0  0  0  0  0  0
  -30.0270  -13.5120   20.2300 N   0  0  0  0  0  0  0  0  0  0  0  0
  -31.8120  -14.8220   19.8870 O   0  0  0  0  0  0  0  0  0  0  0  0
  -25.2750  -13.8950   20.4070 C   0  0  0  0  0  0  0  0  0  0  0  0
  -24.2060  -13.1280   20.7800 C   0  0  0  0  0  0  0  0  0  0  0  0
  -24.6690  -11.7760   20.7680 C   0  0  0  0  0  0  0  0  0  0  0  0
  -26.3210  -13.0140   20.1860 N   0  0  0  0  0  0  0  0  0  0  0  0
  -25.9610  -11.7330   20.4650 N   0  0  0  0  0  0  0  0  0  0  0  0
  -23.9420  -10.5170   20.9750 C   0  0  0  0  0  0  0  0  0  0  0  0
  -24.3790   -9.5570   21.9120 C   0  0  0  0  0  3  0  0  0  0  0  0
  -23.6490   -8.3640   22.1090 C   0  0  0  0  0  3  0  0  0  0  0  0
  -22.4710   -8.1230   21.3630 C   0  0  0  0  0  0  0  0  0  0  0  0
  -22.0540   -9.0720   20.4140 C   0  0  0  0  0  3  0  0  0  0  0  0
  -22.7840  -10.2560   20.2170 C   0  0  0  0  0  3  0  0  0  0  0  0
  -21.7110   -6.9820   21.4660 O   0  0  0  0  0  0  0  0  0  0  0  0
  -21.6770   -6.2440   22.6220 C   0  0  0  0  0  0  0  0  0  0  0  0
  -21.2790   -6.8080   23.8540 C   0  0  0  0  0  3  0  0  0  0  0  0
  -21.1870   -5.9980   25.0030 C   0  0  0  0  0  3  0  0  0  0  0  0
  -21.4830   -4.6240   24.9210 C   0  0  0  0  0  0  0  0  0  0  0  0
  -21.8760   -4.0590   23.6960 C   0  0  0  0  0  3  0  0  0  0  0  0
  -21.9690   -4.8670   22.5490 C   0  0  0  0  0  0  0  0  0  0  0  0
  -22.3270   -4.3110   21.3670 F   0  0  0  0  0  0  0  0  0  0  0  0
  -21.3890   -3.8450   26.0250 F   0  0  0  0  0  0  0  0  0  0  0  0
  -22.8080  -13.6100   21.0430 C   0  0  0  0  0  0  0  0  0  0  0  0
  -22.0830  -12.9260   21.9210 N   0  0  0  0  0  0  0  0  0  0  0  0
  -22.3730  -14.6280   20.5090 O   0  0  0  0  0  0  0  0  0  0  0  0
  -22.4530  -12.1010   22.3700 H   0  0  0  0  0  0  0  0  0  0  0  0
  -21.1470  -13.2300   22.1500 H   0  0  0  0  0  0  0  0  0  0  0  0
  -25.4410  -15.2650   20.2180 N   0  0  0  0  0  0  0  0  0  0  0  0
  -24.6650  -15.9110   20.3100 H   0  0  0  0  0  0  0  0  0  0  0  0
  -26.2910  -15.7080   19.8920 H   0  0  0  0  0  0  0  0  0  0  0  0
  1  2  1  0
  1  4  1  0
  2  5  1  0
  3  6  1  0
  4  9  1  0
  4  3  1  0
  5 51  1  0
  5  6  1  0
  6  7  1  0
  6  8  1  0
  9 10  1  0
 11 22  2  0
 12 10  1  0
 12 17  1  0
 13 21  1  0
 13 23  1  0
 14 20  1  0
 14 16  1  0
 15 21  1  0
 16 15  1  0
 17 16  2  0
 18 19  1  0
 18 12  2  0
 19 14  2  0
 20 13  1  0
 21 11  1  0
 23 25  2  0
 24 23  1  0
 26 24  1  0
 27 36  2  0
 27 32  1  0
 28 24  1  0
 28 32  1  0
 29 28  1  0
 30 31  1  0
 30 29  1  0
 31 27  1  0
 32 33  2  0
 33 34  1  0
 35 34  2  0
 36 35  1  0
 37 11  1  0
 37 42  1  0
 37 38  1  0
 38 41  1  1
 38 39  1  0
 40 38  1  0
 42 45  1  0
 43 47  1  0
 43 42  1  0
 44 43  2  0
 47 46  1  0
 49 47  1  0
 49 50  1  0
 49 48  1  0
 53 52  1  0
 53 54  1  0
 53 51  1  0
 55 54  1  0
 56 61  1  0
 57 58  1  0
 57 56  1  0
 59 58  1  0
 59 66  1  0
 59 60  1  0
 61 55  1  0
 61 60  1  0
 62 55  2  0
 63 64  2  0
 64 83  1  0
 65 64  1  0
 65 68  1  0
 66 63  1  0
 66 67  1  0
 67 65  2  0
 68 69  1  0
 69 70  2  0
 71 74  1  0
 71 70  1  0
 72 71  2  0
 73 72  1  0
 73 68  2  0
 74 75  1  0
 75 76  1  0
 76 77  2  0
 78 77  1  0
 78 82  1  0
 79 78  2  0
 80 75  2  0
 80 79  1  0
 81 80  1  0
 83 84  1  0
 84 87  1  0
 84 86  1  0
 85 83  2  0
 88 89  1  0
 88 63  1  0
 90 88  1  0
M  ISO  4   9 101  10 101  54 100  55 100
M  END
>  <TORSDO>  (20) 
F 20

>  <SCORE>  (20) 
-13.826

>  <name>  (20) 
19

>  <ligand_id>  (20) 
19

>  <original_smiles>  (20) 
[H]c1c([H])c([H])c2c(c1[H])C([H])([H])C([H])([H])C([H])([H])C2([H])N([H])C(=O)C1([H])N(C(=O)C([H])(N([H])C(=O)C([H])(N([H])C([H])([H])[H])C([H])([H])[H])C(C([H])([H])[H])(C([H])([H])[H])C([H])([H])[H])C([H])([H])c2c([H])c(OC([H])([H])C3([H])C([H])([H])C([H])([H])C([H])(C([H])([H])C([H])(C([H])([H])[H])C([H])([H])C(=O)N4C([H])([H])C([H])([H])C([H])([H])C([H])(n5nc(-c6c([H])c([H])c(Oc7c([H])c([H])c(F)c([H])c7F)c([H])c6[H])c(C(=O)N([H])[H])c5N([H])[H])C4([H])[H])[N+]([H])([H])C3([H])[H])c([H])c([H])c2C1([H])[H]

>  <smiles>  (20) 
[H]c1c([H])c([H])c2c(c1[H])C([H])([H])C([H])([H])C([H])([H])C2([H])N([H])C(=O)C1([H])N(C(=O)C([H])(N([H])C(=O)C([H])(N([H])C([H])([H])[H])C([H])([H])[H])C(C([H])([H])[H])(C([H])([H])[H])C([H])([H])[H])C([H])([H])c2c([H])c(OC([H])([H])C3([H])C([H])([H])C([H])([H])C([H])(C([H])([H])C([H])(C([H])([H])[H])C([H])([H])C(=O)N4C([H])([H])C([H])([H])C([H])([H])C([H])(n5nc(-c6c([H])c([H])c(Oc7c([H])c([H])c(F)c([H])c7F)c([H])c6[H])c(C(=O)N([H])[H])c5N([H])[H])C4([H])[H])[N+]([H])([H])C3([H])[H])c([H])c([H])c2C1([H])[H]

$$$$
20:0:0
     RDKit          3D

 93101  0  0  1  0  0  0  0  0999 V2000
  -28.3130  -21.6130   19.6670 C   0  0  0  0  0  3  0  0  0  0  0  0
  -30.6190  -22.2980   19.8180 C   0  0  0  0  0  3  0  0  0  0  0  0
  -27.9210  -22.9820   19.5670 C   0  0  0  0  0  3  0  0  0  0  0  0
  -30.2290  -23.6630   19.7140 C   0  0  0  0  0  3  0  0  0  0  0  0
  -29.6780  -21.2360   19.7590 C   0  0  0  0  0  0  0  0  0  0  0  0
  -28.8740  -24.0360   19.5520 C   0  0  0  0  0  0  0  0  0  0  0  0
  -30.1810  -19.7700   19.5380 C   0  0  0  0  0  2  0  0  0  0  0  0
  -29.9630  -18.5870   20.5730 C   0  0  0  0  0  3  0  0  0  0  0  0
  -30.2550  -19.0120   21.9590 N   0  0  0  0  0  4  0  0  0  0  0  0
  -31.2440  -19.1230   22.1030 H   0  0  0  0  0  0  0  0  0  0  0  0
  -29.9120  -18.3370   22.6200 H   0  0  0  0  0  0  0  0  0  0  0  0
  -29.8070  -19.8890   22.1590 H   0  0  0  0  0  0  0  0  0  0  0  0
  -32.2930  -17.4410   20.5640 C   0  0  0  0  0  1  0  0  0  0  0  0
  -30.7950  -17.2750   20.1830 C   0  0  0  0  0  3  0  0  0  0  0  0
  -30.2140  -15.8610   20.6370 C   0  0  0  0  0  2  0  0  0  0  0  0
  -30.8610  -14.5690   20.0000 C   0  0  0  0  0  0  0  0  0  0  0  0
  -30.4980  -12.3590   18.9220 C   0  0  0  0  0  2  0  0  0  0  0  0
  -29.4960  -12.5420   17.7630 C   0  0  0  0  0  2  0  0  0  0  0  0
  -28.0470  -12.4130   18.2730 C   0  0  0  0  0  2  0  0  0  0  0  0
  -27.7820  -13.2680   19.5420 C   0  0  0  0  0  3  0  0  0  0  0  0
  -28.9010  -13.0910   20.5930 C   0  0  0  0  0  2  0  0  0  0  0  0
  -30.1870  -13.3800   19.9430 N   0  0  0  0  0  0  0  0  0  0  0  0
  -31.9560  -14.6840   19.4440 O   0  0  0  0  0  0  0  0  0  0  0  0
  -25.4560  -13.8980   20.4390 C   0  0  0  0  0  0  0  0  0  0  0  0
  -24.3960  -13.1350   20.8480 C   0  0  0  0  0  0  0  0  0  0  0  0
  -24.8160  -11.7760   20.7340 C   0  0  0  0  0  0  0  0  0  0  0  0
  -26.4610  -13.0020   20.1030 N   0  0  0  0  0  0  0  0  0  0  0  0
  -26.0830  -11.7180   20.3390 N   0  0  0  0  0  0  0  0  0  0  0  0
  -24.0680  -10.5280   20.9320 C   0  0  0  0  0  0  0  0  0  0  0  0
  -24.4910   -9.5550   21.8620 C   0  0  0  0  0  3  0  0  0  0  0  0
  -23.7470   -8.3690   22.0480 C   0  0  0  0  0  3  0  0  0  0  0  0
  -22.5660   -8.1500   21.3000 C   0  0  0  0  0  0  0  0  0  0  0  0
  -22.1620   -9.1120   20.3550 C   0  0  0  0  0  3  0  0  0  0  0  0
  -22.9080  -10.2870   20.1700 C   0  0  0  0  0  3  0  0  0  0  0  0
  -21.7900   -7.0190   21.3950 O   0  0  0  0  0  0  0  0  0  0  0  0
  -21.6820   -6.3170   22.5690 C   0  0  0  0  0  0  0  0  0  0  0  0
  -21.1760   -6.9080   23.7470 C   0  0  0  0  0  3  0  0  0  0  0  0
  -21.0140   -6.1300   24.9100 C   0  0  0  0  0  3  0  0  0  0  0  0
  -21.3500   -4.7640   24.8970 C   0  0  0  0  0  0  0  0  0  0  0  0
  -21.8490   -4.1720   23.7230 C   0  0  0  0  0  3  0  0  0  0  0  0
  -22.0090   -4.9460   22.5610 C   0  0  0  0  0  0  0  0  0  0  0  0
  -22.4720   -4.3660   21.4270 F   0  0  0  0  0  0  0  0  0  0  0  0
  -21.1850   -4.0170   26.0120 F   0  0  0  0  0  0  0  0  0  0  0  0
  -23.0360  -13.6360   21.2390 C   0  0  0  0  0  0  0  0  0  0  0  0
  -22.3610  -12.9250   22.1370 N   0  0  0  0  0  0  0  0  0  0  0  0
  -22.5860  -14.6870   20.7880 O   0  0  0  0  0  0  0  0  0  0  0  0
  -22.7410  -12.0680   22.5130 H   0  0  0  0  0  0  0  0  0  0  0  0
  -21.4580  -13.2440   22.4570 H   0  0  0  0  0  0  0  0  0  0  0  0
  -25.6350  -15.2720   20.3080 N   0  0  0  0  0  0  0  0  0  0  0  0
  -24.8850  -15.9270   20.5050 H   0  0  0  0  0  0  0  0  0  0  0  0
  -26.4570  -15.7240   19.9310 H   0  0  0  0  0  0  0  0  0  0  0  0
  -28.4900  -25.4890   19.1190 C   0  0  0  0  0  2  0  0  0  0  0  0
  -28.2400  -26.5210   20.1270 O   0  0  0  0  0  0  0  0  0  0  0  0
  -24.5170  -31.8390   23.2010 C   0  0  0  0  0  0  0  0  0  0  0  0
  -27.0950  -27.3240   20.0730 C   0  0  0  0  0  0  0  0  0  0  0  0
  -23.2990  -30.4790   21.5400 C   0  0  0  0  0  3  0  0  0  0  0  0
  -24.7330  -28.9330   20.0980 C   0  0  0  0  0  0  0  0  0  0  0  0
  -25.8390  -30.7770   21.3660 C   0  0  0  0  0  2  0  0  0  0  0  0
  -25.9030  -29.4100   20.6990 C   0  0  0  0  0  0  0  0  0  0  0  0
  -27.0830  -28.6150   20.6810 C   0  0  0  0  0  3  0  0  0  0  0  0
  -25.8900  -26.8770   19.4800 C   0  0  0  0  0  3  0  0  0  0  0  0
  -24.7240  -27.6710   19.4870 C   0  0  0  0  0  3  0  0  0  0  0  0
  -23.5090  -29.8270   20.1500 C   0  0  0  0  0  2  0  0  0  0  0  0
  -24.5690  -31.0470   22.0920 N   0  0  0  0  0  0  0  0  0  0  0  0
  -23.4360  -32.1230   23.7390 O   0  0  0  0  0  0  0  0  0  0  0  0
  -22.6240  -29.4550   22.4830 C   0  0  0  0  0  0  0  0  0  0  0  0
  -21.2990  -29.2790   22.3360 N   0  0  0  0  0  0  0  0  0  0  0  0
  -23.2910  -28.8240   23.3070 O   0  0  0  0  0  0  0  0  0  0  0  0
  -20.8200  -29.8460   21.6490 H   0  0  0  0  0  0  0  0  0  0  0  0
  -17.9190  -28.0670   22.7570 C   0  0  0  0  0  0  0  0  0  0  0  0
  -20.4670  -28.3430   23.0940 C   0  0  0  0  0  3  0  0  0  0  0  0
  -20.5910  -26.9060   22.5350 C   0  0  0  0  0  2  0  0  0  0  0  0
  -19.5210  -26.5720   21.4910 C   0  0  0  0  0  2  0  0  0  0  0  0
  -18.1210  -26.7150   22.0940 C   0  0  0  0  0  2  0  0  0  0  0  0
  -19.0210  -28.8370   23.2120 C   0  0  0  0  0  0  0  0  0  0  0  0
  -18.7800  -30.1030   23.7900 C   0  0  0  0  0  3  0  0  0  0  0  0
  -17.4690  -30.5990   23.9180 C   0  0  0  0  0  3  0  0  0  0  0  0
  -16.3810  -29.8250   23.4750 C   0  0  0  0  0  3  0  0  0  0  0  0
  -16.6060  -28.5620   22.9020 C   0  0  0  0  0  3  0  0  0  0  0  0
  -25.8070  -32.4480   23.8330 C   0  0  0  0  0  3  0  0  0  0  0  0
  -25.5130  -33.8450   24.1780 N   0  0  0  0  0  0  0  0  0  0  0  0
  -25.8500  -34.9010   23.4260 C   0  0  0  0  0  0  0  0  0  0  0  0
  -26.5100  -34.8010   22.3860 O   0  0  0  0  0  0  0  0  0  0  0  0
  -24.9110  -33.9970   24.9730 H   0  0  0  0  0  0  0  0  0  0  0  0
  -24.1290  -36.7100   23.1140 C   0  0  0  0  0  1  0  0  0  0  0  0
  -25.3820  -36.2900   23.9000 C   0  0  0  0  0  3  0  0  0  0  0  0
  -27.5330  -37.1550   24.7060 C   0  0  0  0  0  1  0  0  0  0  0  0
  -26.4190  -37.3370   23.7790 N   0  0  0  0  0  0  0  0  0  0  0  0
  -26.0220  -38.2590   23.9410 H   0  0  0  0  0  0  0  0  0  0  0  0
  -26.3110  -31.6520   25.0990 C   0  0  1  0  0  0  0  0  0  0  0  0
  -25.2100  -31.4090   26.1580 C   0  0  0  0  0  1  0  0  0  0  0  0
  -26.8770  -30.2710   24.6920 C   0  0  0  0  0  1  0  0  0  0  0  0
  -27.4720  -32.4210   25.7710 C   0  0  0  0  0  1  0  0  0  0  0  0
  1  5  1  0
  3  1  2  0
  4  2  1  0
  5  2  2  0
  6  3  1  0
  6  4  2  0
  7  5  1  0
  8  7  1  0
  8  9  1  0
  9 10  1  0
  9 12  1  0
  9 11  1  0
 14 13  1  0
 14  8  1  0
 14 15  1  0
 16 15  1  0
 17 22  1  0
 18 19  1  0
 18 17  1  0
 20 19  1  0
 20 27  1  0
 20 21  1  0
 22 16  1  0
 22 21  1  0
 23 16  2  0
 24 25  2  0
 25 44  1  0
 26 25  1  0
 26 29  1  0
 27 28  1  0
 27 24  1  0
 28 26  2  0
 29 30  1  0
 30 31  2  0
 32 35  1  0
 32 31  1  0
 33 32  2  0
 34 33  1  0
 34 29  2  0
 35 36  1  0
 36 37  1  0
 37 38  2  0
 39 38  1  0
 39 43  1  0
 40 39  2  0
 41 36  2  0
 41 40  1  0
 42 41  1  0
 44 45  1  0
 45 48  1  0
 45 47  1  0
 46 44  2  0
 49 24  1  0
 49 50  1  0
 51 49  1  0
 52  6  1  0
 52 53  1  0
 54 65  2  0
 55 53  1  0
 55 60  1  0
 56 64  1  0
 56 66  1  0
 57 63  1  0
 57 59  1  0
 58 64  1  0
 59 58  1  0
 60 59  2  0
 61 62  1  0
 61 55  2  0
 62 57  2  0
 63 56  1  0
 64 54  1  0
 66 68  2  0
 67 66  1  0
 69 67  1  0
 70 79  2  0
 70 75  1  0
 71 67  1  0
 71 75  1  0
 72 71  1  0
 73 74  1  0
 73 72  1  0
 74 70  1  0
 75 76  2  0
 76 77  1  0
 78 77  2  0
 79 78  1  0
 80 54  1  0
 80 81  1  0
 80 90  1  0
 81 84  1  0
 82 86  1  0
 82 81  1  0
 83 82  2  0
 86 85  1  0
 88 86  1  0
 88 89  1  0
 88 87  1  0
 90 93  1  1
 90 91  1  0
 92 90  1  0
M  ISO  4  15 100  16 100  52 101  53 101
M  END
>  <TORSDO>  (21) 
F 22

>  <SCORE>  (21) 
-13.063

>  <name>  (21) 
20

>  <ligand_id>  (21) 
20

>  <original_smiles>  (21) 
[H]c1c([H])c([H])c2c(c1[H])C([H])([H])C([H])([H])C([H])([H])C2([H])N([H])C(=O)C1([H])N(C(=O)C([H])(N([H])C(=O)C([H])(N([H])C([H])([H])[H])C([H])([H])[H])C(C([H])([H])[H])(C([H])([H])[H])C([H])([H])[H])C([H])([H])c2c([H])c(OC([H])([H])c3c([H])c([H])c(C([H])([H])C([H])(C([H])(C([H])([H])[H])C([H])([H])C(=O)N4C([H])([H])C([H])([H])C([H])([H])C([H])(n5nc(-c6c([H])c([H])c(Oc7c([H])c([H])c(F)c([H])c7F)c([H])c6[H])c(C(=O)N([H])[H])c5N([H])[H])C4([H])[H])[N+]([H])([H])[H])c([H])c3[H])c([H])c([H])c2C1([H])[H]

>  <smiles>  (21) 
[H]c1c([H])c([H])c2c(c1[H])C([H])([H])C([H])([H])C([H])([H])C2([H])N([H])C(=O)C1([H])N(C(=O)C([H])(N([H])C(=O)C([H])(N([H])C([H])([H])[H])C([H])([H])[H])C(C([H])([H])[H])(C([H])([H])[H])C([H])([H])[H])C([H])([H])c2c([H])c(OC([H])([H])c3c([H])c([H])c(C([H])([H])C([H])(C([H])(C([H])([H])[H])C([H])([H])C(=O)N4C([H])([H])C([H])([H])C([H])([H])C([H])(n5nc(-c6c([H])c([H])c(Oc7c([H])c([H])c(F)c([H])c7F)c([H])c6[H])c(C(=O)N([H])[H])c5N([H])[H])C4([H])[H])[N+]([H])([H])[H])c([H])c3[H])c([H])c([H])c2C1([H])[H]

$$$$
21:0:0
     RDKit          3D

 86 94  0  0  1  0  0  0  0  0999 V2000
  -30.0510  -19.7090   20.9520 C   0  0  0  0  0  0  0  0  0  0  0  0
  -28.4320  -19.4210   19.7700 C   0  0  0  0  0  2  0  0  0  0  0  0
  -29.1940  -20.8770   20.0710 C   0  0  0  0  0  3  0  0  0  0  0  0
  -29.7260  -18.3860   19.9800 C   0  0  0  0  0  3  0  0  0  0  0  0
  -30.6500  -19.7860   22.0270 O   0  0  0  0  0  0  0  0  0  0  0  0
  -30.4080  -15.4440   20.2220 C   0  0  0  0  0  0  0  0  0  0  0  0
  -30.4220  -12.9690   19.3680 C   0  0  0  0  0  2  0  0  0  0  0  0
  -29.5030  -12.7240   18.1420 C   0  0  0  0  0  2  0  0  0  0  0  0
  -28.0630  -12.4250   18.5920 C   0  0  0  0  0  2  0  0  0  0  0  0
  -27.6030  -13.3860   19.7150 C   0  0  0  0  0  3  0  0  0  0  0  0
  -28.6530  -13.5710   20.8330 C   0  0  0  0  0  2  0  0  0  0  0  0
  -29.8660  -14.1140   20.1960 N   0  0  0  0  0  0  0  0  0  0  0  0
  -31.6140  -15.4430   19.9290 O   0  0  0  0  0  0  0  0  0  0  0  0
  -29.6370  -16.7280   20.3750 N   0  0  0  0  0  0  0  0  0  0  0  0
  -28.7070  -16.5070   20.6950 H   0  0  0  0  0  0  0  0  0  0  0  0
  -25.2360  -13.9170   20.4880 C   0  0  0  0  0  0  0  0  0  0  0  0
  -24.1830  -13.1300   20.8620 C   0  0  0  0  0  0  0  0  0  0  0  0
  -24.6620  -11.7840   20.8240 C   0  0  0  0  0  0  0  0  0  0  0  0
  -26.2830  -13.0520   20.2330 N   0  0  0  0  0  0  0  0  0  0  0  0
  -25.9520  -11.7620   20.5040 N   0  0  0  0  0  0  0  0  0  0  0  0
  -23.9450  -10.5160   21.0140 C   0  0  0  0  0  0  0  0  0  0  0  0
  -24.3770   -9.5540   21.9540 C   0  0  0  0  0  3  0  0  0  0  0  0
  -23.6560   -8.3540   22.1340 C   0  0  0  0  0  3  0  0  0  0  0  0
  -22.4890   -8.1060   21.3740 C   0  0  0  0  0  0  0  0  0  0  0  0
  -22.0760   -9.0550   20.4230 C   0  0  0  0  0  3  0  0  0  0  0  0
  -22.7970  -10.2470   20.2410 C   0  0  0  0  0  3  0  0  0  0  0  0
  -21.7400   -6.9570   21.4620 O   0  0  0  0  0  0  0  0  0  0  0  0
  -21.6760   -6.2270   22.6230 C   0  0  0  0  0  0  0  0  0  0  0  0
  -21.2100   -6.7880   23.8310 C   0  0  0  0  0  3  0  0  0  0  0  0
  -21.0950   -5.9840   24.9830 C   0  0  0  0  0  3  0  0  0  0  0  0
  -21.4350   -4.6200   24.9260 C   0  0  0  0  0  0  0  0  0  0  0  0
  -21.8940   -4.0570   23.7220 C   0  0  0  0  0  3  0  0  0  0  0  0
  -22.0100   -4.8590   22.5730 C   0  0  0  0  0  0  0  0  0  0  0  0
  -22.4330   -4.3060   21.4100 F   0  0  0  0  0  0  0  0  0  0  0  0
  -21.3170   -3.8450   26.0310 F   0  0  0  0  0  0  0  0  0  0  0  0
  -22.7850  -13.5960   21.1380 C   0  0  0  0  0  0  0  0  0  0  0  0
  -22.0630  -12.8910   22.0010 N   0  0  0  0  0  0  0  0  0  0  0  0
  -22.3410  -14.6220   20.6240 O   0  0  0  0  0  0  0  0  0  0  0  0
  -22.4360  -12.0620   22.4390 H   0  0  0  0  0  0  0  0  0  0  0  0
  -21.1240  -13.1860   22.2290 H   0  0  0  0  0  0  0  0  0  0  0  0
  -25.3840  -15.2900   20.3110 N   0  0  0  0  0  0  0  0  0  0  0  0
  -24.6060  -15.9310   20.4220 H   0  0  0  0  0  0  0  0  0  0  0  0
  -26.2100  -15.7330   19.9310 H   0  0  0  0  0  0  0  0  0  0  0  0
  -28.7250  -22.5630   20.6870 C   0  0  0  0  0  2  0  0  0  0  0  0
  -28.1530  -24.1720   19.9860 C   0  0  0  0  0  2  0  0  0  0  0  0
  -28.1880  -25.8050   20.4080 O   0  0  0  0  0  0  0  0  0  0  0  0
  -24.6200  -31.8830   23.2420 C   0  0  0  0  0  0  0  0  0  0  0  0
  -27.1880  -26.9310   20.2800 C   0  0  0  0  0  0  0  0  0  0  0  0
  -23.4390  -30.4780   21.6020 C   0  0  0  0  0  3  0  0  0  0  0  0
  -24.8980  -28.8540   20.1980 C   0  0  0  0  0  0  0  0  0  0  0  0
  -26.0090  -30.6670   21.4820 C   0  0  0  0  0  2  0  0  0  0  0  0
  -26.0810  -29.2480   20.8330 C   0  0  0  0  0  0  0  0  0  0  0  0
  -27.2140  -28.3070   20.8510 C   0  0  0  0  0  3  0  0  0  0  0  0
  -25.9790  -26.7080   19.5810 C   0  0  0  0  0  3  0  0  0  0  0  0
  -24.8760  -27.6060   19.5500 C   0  0  0  0  0  3  0  0  0  0  0  0
  -23.6810  -29.7820   20.2320 C   0  0  0  0  0  2  0  0  0  0  0  0
  -24.7110  -31.0390   22.1620 N   0  0  0  0  0  0  0  0  0  0  0  0
  -23.5270  -32.1790   23.7500 O   0  0  0  0  0  0  0  0  0  0  0  0
  -22.7300  -29.4940   22.5700 C   0  0  0  0  0  0  0  0  0  0  0  0
  -21.4000  -29.3390   22.4410 N   0  0  0  0  0  0  0  0  0  0  0  0
  -23.3870  -28.8700   23.4080 O   0  0  0  0  0  0  0  0  0  0  0  0
  -20.9220  -29.8920   21.7440 H   0  0  0  0  0  0  0  0  0  0  0  0
  -18.0080  -28.1490   22.9480 C   0  0  0  0  0  0  0  0  0  0  0  0
  -20.5680  -28.4070   23.2130 C   0  0  0  0  0  3  0  0  0  0  0  0
  -20.6640  -26.9730   22.6420 C   0  0  0  0  0  2  0  0  0  0  0  0
  -19.5620  -26.6520   21.6270 C   0  0  0  0  0  2  0  0  0  0  0  0
  -18.1810  -26.8010   22.2690 C   0  0  0  0  0  2  0  0  0  0  0  0
  -19.1280  -28.9110   23.3760 C   0  0  0  0  0  0  0  0  0  0  0  0
  -18.9100  -30.1710   23.9750 C   0  0  0  0  0  3  0  0  0  0  0  0
  -17.6050  -30.6700   24.1460 C   0  0  0  0  0  3  0  0  0  0  0  0
  -16.4990  -29.9080   23.7300 C   0  0  0  0  0  3  0  0  0  0  0  0
  -16.7020  -28.6490   23.1380 C   0  0  0  0  0  3  0  0  0  0  0  0
  -25.8840  -32.5310   23.8830 C   0  0  0  0  0  3  0  0  0  0  0  0
  -25.5690  -33.9370   24.1960 N   0  0  0  0  0  0  0  0  0  0  0  0
  -25.9130  -34.9890   23.4420 C   0  0  0  0  0  0  0  0  0  0  0  0
  -26.5910  -34.8790   22.4170 O   0  0  0  0  0  0  0  0  0  0  0  0
  -24.9650  -34.0950   24.9890 H   0  0  0  0  0  0  0  0  0  0  0  0
  -24.1980  -36.7990   23.0750 C   0  0  0  0  0  1  0  0  0  0  0  0
  -25.4330  -36.3850   23.8930 C   0  0  0  0  0  3  0  0  0  0  0  0
  -27.5650  -37.2670   24.7360 C   0  0  0  0  0  1  0  0  0  0  0  0
  -26.4730  -37.4320   23.7810 N   0  0  0  0  0  0  0  0  0  0  0  0
  -26.0700  -38.3550   23.9170 H   0  0  0  0  0  0  0  0  0  0  0  0
  -26.3680  -31.7840   25.1890 C   0  0  1  0  0  0  0  0  0  0  0  0
  -25.2510  -31.5770   26.2400 C   0  0  0  0  0  1  0  0  0  0  0  0
  -26.9500  -30.3940   24.8480 C   0  0  0  0  0  1  0  0  0  0  0  0
  -27.5100  -32.5850   25.8580 C   0  0  0  0  0  1  0  0  0  0  0  0
  1  5  2  0
  2  4  1  0
  2  3  1  0
  3 44  1  0
  3  1  1  0
  4 14  1  0
  4  1  1  0
  6 14  1  0
  7 12  1  0
  8  9  1  0
  8  7  1  0
 10  9  1  0
 10 19  1  0
 10 11  1  0
 12  6  1  0
 12 11  1  0
 13  6  2  0
 14 15  1  0
 16 17  2  0
 17 36  1  0
 18 17  1  0
 18 21  1  0
 19 16  1  0
 19 20  1  0
 20 18  2  0
 21 22  1  0
 22 23  2  0
 24 27  1  0
 24 23  1  0
 25 24  2  0
 26 25  1  0
 26 21  2  0
 27 28  1  0
 28 29  1  0
 29 30  2  0
 31 30  1  0
 31 35  1  0
 32 31  2  0
 33 28  2  0
 33 32  1  0
 34 33  1  0
 36 37  1  0
 37 40  1  0
 37 39  1  0
 38 36  2  0
 41 42  1  0
 41 16  1  0
 43 41  1  0
 45 46  1  0
 45 44  1  0
 47 58  2  0
 48 46  1  0
 48 53  1  0
 49 57  1  0
 49 59  1  0
 50 56  1  0
 50 52  1  0
 51 57  1  0
 52 53  2  0
 52 51  1  0
 54 48  2  0
 55 54  1  0
 55 50  2  0
 56 49  1  0
 57 47  1  0
 59 61  2  0
 60 59  1  0
 62 60  1  0
 63 72  2  0
 63 68  1  0
 64 60  1  0
 64 68  1  0
 65 64  1  0
 66 67  1  0
 66 65  1  0
 67 63  1  0
 68 69  2  0
 69 70  1  0
 71 70  2  0
 72 71  1  0
 73 47  1  0
 73 74  1  0
 73 83  1  0
 74 77  1  0
 75 79  1  0
 75 74  1  0
 76 75  2  0
 79 78  1  0
 81 79  1  0
 81 82  1  0
 81 80  1  0
 83 86  1  1
 83 84  1  0
 85 83  1  0
M  ISO  4   6 100  14 100  45 101  46 101
M  END
>  <TORSDO>  (22) 
F 18

>  <SCORE>  (22) 
-16.585

>  <name>  (22) 
21

>  <ligand_id>  (22) 
21

>  <original_smiles>  (22) 
[H]c1c([H])c([H])c2c(c1[H])C([H])([H])C([H])([H])C([H])([H])C2([H])N([H])C(=O)C1([H])N(C(=O)C([H])(N([H])C(=O)C([H])(N([H])C([H])([H])[H])C([H])([H])[H])C(C([H])([H])[H])(C([H])([H])[H])C([H])([H])[H])C([H])([H])c2c([H])c(OC([H])([H])C([H])([H])C3([H])C(=O)C([H])(N([H])C(=O)N4C([H])([H])C([H])([H])C([H])([H])C([H])(n5nc(-c6c([H])c([H])c(Oc7c([H])c([H])c(F)c([H])c7F)c([H])c6[H])c(C(=O)N([H])[H])c5N([H])[H])C4([H])[H])C3([H])[H])c([H])c([H])c2C1([H])[H]

>  <smiles>  (22) 
[H]c1c([H])c([H])c2c(c1[H])C([H])([H])C([H])([H])C([H])([H])C2([H])N([H])C(=O)C1([H])N(C(=O)C([H])(N([H])C(=O)C([H])(N([H])C([H])([H])[H])C([H])([H])[H])C(C([H])([H])[H])(C([H])([H])[H])C([H])([H])[H])C([H])([H])c2c([H])c(OC([H])([H])C([H])([H])C3([H])C(=O)C([H])(N([H])C(=O)N4C([H])([H])C([H])([H])C([H])([H])C([H])(n5nc(-c6c([H])c([H])c(Oc7c([H])c([H])c(F)c([H])c7F)c([H])c6[H])c(C(=O)N([H])[H])c5N([H])[H])C4([H])[H])C3([H])[H])c([H])c([H])c2C1([H])[H]

$$$$
22:0:0
     RDKit          3D

 88 96  0  0  1  0  0  0  0  0999 V2000
  -29.1620  -21.2640   20.5860 N   0  0  0  0  0  4  0  0  0  0  0  0
  -30.1600  -21.4120   20.5670 H   0  0  0  0  0  0  0  0  0  0  0  0
  -28.9250  -21.2880   21.5670 H   0  0  0  0  0  0  0  0  0  0  0  0
  -30.4480  -15.3510   20.2990 C   0  0  0  0  0  0  0  0  0  0  0  0
  -30.4460  -12.8980   19.4410 C   0  0  0  0  0  2  0  0  0  0  0  0
  -29.5490  -12.6860   18.1990 C   0  0  0  0  0  2  0  0  0  0  0  0
  -28.0890  -12.4190   18.6120 C   0  0  0  0  0  2  0  0  0  0  0  0
  -27.6140  -13.3650   19.7480 C   0  0  0  0  0  3  0  0  0  0  0  0
  -28.6540  -13.5340   20.8740 C   0  0  0  0  0  2  0  0  0  0  0  0
  -29.8760  -14.0470   20.2330 N   0  0  0  0  0  0  0  0  0  0  0  0
  -31.6870  -15.3270   20.2460 O   0  0  0  0  0  0  0  0  0  0  0  0
  -28.2950  -17.9760   18.3820 C   0  0  0  0  0  2  0  0  0  0  0  0
  -28.8070  -19.4210   18.6550 C   0  0  0  0  0  2  0  0  0  0  0  0
  -29.2560  -16.7900   18.7210 C   0  0  0  0  0  2  0  0  0  0  0  0
  -29.9070  -18.2070   20.6400 C   0  0  0  0  0  2  0  0  0  0  0  0
  -28.9730  -19.6490   20.1610 C   0  0  0  0  0  3  0  0  0  0  0  0
  -29.7060  -16.6410   20.1300 N   0  0  0  0  0  0  0  0  0  0  0  0
  -25.2340  -13.9050   20.4830 C   0  0  0  0  0  0  0  0  0  0  0  0
  -24.1740  -13.1200   20.8410 C   0  0  0  0  0  0  0  0  0  0  0  0
  -24.6560  -11.7720   20.8230 C   0  0  0  0  0  0  0  0  0  0  0  0
  -26.2880  -13.0370   20.2510 N   0  0  0  0  0  0  0  0  0  0  0  0
  -25.9520  -11.7510   20.5280 N   0  0  0  0  0  0  0  0  0  0  0  0
  -23.9400  -10.5030   21.0050 C   0  0  0  0  0  0  0  0  0  0  0  0
  -24.3540   -9.5530   21.9640 C   0  0  0  0  0  3  0  0  0  0  0  0
  -23.6330   -8.3510   22.1380 C   0  0  0  0  0  3  0  0  0  0  0  0
  -22.4860   -8.0910   21.3530 C   0  0  0  0  0  0  0  0  0  0  0  0
  -22.0930   -9.0290   20.3820 C   0  0  0  0  0  3  0  0  0  0  0  0
  -22.8140  -10.2230   20.2060 C   0  0  0  0  0  3  0  0  0  0  0  0
  -21.7410   -6.9390   21.4320 O   0  0  0  0  0  0  0  0  0  0  0  0
  -21.6490   -6.2190   22.5970 C   0  0  0  0  0  0  0  0  0  0  0  0
  -21.1360   -6.7880   23.7850 C   0  0  0  0  0  3  0  0  0  0  0  0
  -20.9940   -5.9950   24.9410 C   0  0  0  0  0  3  0  0  0  0  0  0
  -21.3510   -4.6330   24.9110 C   0  0  0  0  0  0  0  0  0  0  0  0
  -21.8570   -4.0650   23.7280 C   0  0  0  0  0  3  0  0  0  0  0  0
  -22.0020   -4.8560   22.5740 C   0  0  0  0  0  0  0  0  0  0  0  0
  -22.4670   -4.2970   21.4310 F   0  0  0  0  0  0  0  0  0  0  0  0
  -21.2100   -3.8700   26.0190 F   0  0  0  0  0  0  0  0  0  0  0  0
  -22.7680  -13.5820   21.0810 C   0  0  0  0  0  0  0  0  0  0  0  0
  -22.0250  -12.8800   21.9290 N   0  0  0  0  0  0  0  0  0  0  0  0
  -22.3330  -14.6030   20.5500 O   0  0  0  0  0  0  0  0  0  0  0  0
  -22.3890  -12.0610   22.3950 H   0  0  0  0  0  0  0  0  0  0  0  0
  -21.0760  -13.1690   22.1180 H   0  0  0  0  0  0  0  0  0  0  0  0
  -25.3900  -15.2780   20.3050 N   0  0  0  0  0  0  0  0  0  0  0  0
  -24.6230  -15.9330   20.4170 H   0  0  0  0  0  0  0  0  0  0  0  0
  -26.2520  -15.7230   20.0200 H   0  0  0  0  0  0  0  0  0  0  0  0
  -28.5360  -22.6850   19.9460 C   0  0  0  0  0  2  0  0  0  0  0  0
  -28.1800  -24.3050   20.6860 C   0  0  0  0  0  2  0  0  0  0  0  0
  -28.2430  -25.9170   20.2810 O   0  0  0  0  0  0  0  0  0  0  0  0
  -24.5930  -31.8860   23.2450 C   0  0  0  0  0  0  0  0  0  0  0  0
  -27.1970  -26.9850   20.3040 C   0  0  0  0  0  0  0  0  0  0  0  0
  -23.4210  -30.4710   21.6040 C   0  0  0  0  0  3  0  0  0  0  0  0
  -24.8870  -28.8540   20.2190 C   0  0  0  0  0  0  0  0  0  0  0  0
  -25.9850  -30.6900   21.4820 C   0  0  0  0  0  2  0  0  0  0  0  0
  -26.0680  -29.2720   20.8450 C   0  0  0  0  0  0  0  0  0  0  0  0
  -27.2180  -28.3600   20.8590 C   0  0  0  0  0  3  0  0  0  0  0  0
  -25.9800  -26.7140   19.6400 C   0  0  0  0  0  3  0  0  0  0  0  0
  -24.8660  -27.5950   19.5970 C   0  0  0  0  0  3  0  0  0  0  0  0
  -23.6670  -29.7740   20.2380 C   0  0  0  0  0  2  0  0  0  0  0  0
  -24.6870  -31.0450   22.1640 N   0  0  0  0  0  0  0  0  0  0  0  0
  -23.4980  -32.1750   23.7560 O   0  0  0  0  0  0  0  0  0  0  0  0
  -22.7230  -29.4840   22.5740 C   0  0  0  0  0  0  0  0  0  0  0  0
  -21.3930  -29.3110   22.4400 N   0  0  0  0  0  0  0  0  0  0  0  0
  -23.3820  -28.8700   23.4180 O   0  0  0  0  0  0  0  0  0  0  0  0
  -20.9130  -29.8560   21.7350 H   0  0  0  0  0  0  0  0  0  0  0  0
  -18.0150  -28.0810   22.9280 C   0  0  0  0  0  0  0  0  0  0  0  0
  -20.5700  -28.3750   23.2120 C   0  0  0  0  0  3  0  0  0  0  0  0
  -20.6900  -26.9380   22.6530 C   0  0  0  0  0  2  0  0  0  0  0  0
  -19.5990  -26.5940   21.6330 C   0  0  0  0  0  2  0  0  0  0  0  0
  -18.2110  -26.7280   22.2640 C   0  0  0  0  0  2  0  0  0  0  0  0
  -19.1210  -28.8590   23.3610 C   0  0  0  0  0  0  0  0  0  0  0  0
  -18.8800  -30.1210   23.9460 C   0  0  0  0  0  3  0  0  0  0  0  0
  -17.5670  -30.6030   24.1050 C   0  0  0  0  0  3  0  0  0  0  0  0
  -16.4760  -29.8220   23.6870 C   0  0  0  0  0  3  0  0  0  0  0  0
  -16.7010  -28.5620   23.1030 C   0  0  0  0  0  3  0  0  0  0  0  0
  -25.8570  -32.5420   23.8820 C   0  0  0  0  0  3  0  0  0  0  0  0
  -25.5350  -33.9480   24.1860 N   0  0  0  0  0  0  0  0  0  0  0  0
  -25.8850  -34.9980   23.4280 C   0  0  0  0  0  0  0  0  0  0  0  0
  -26.5740  -34.8820   22.4120 O   0  0  0  0  0  0  0  0  0  0  0  0
  -24.9230  -34.1080   24.9730 H   0  0  0  0  0  0  0  0  0  0  0  0
  -24.1790  -36.8060   23.0240 C   0  0  0  0  0  1  0  0  0  0  0  0
  -25.3970  -36.3940   23.8670 C   0  0  0  0  0  3  0  0  0  0  0  0
  -27.5140  -37.2770   24.7460 C   0  0  0  0  0  1  0  0  0  0  0  0
  -26.4380  -37.4410   23.7730 N   0  0  0  0  0  0  0  0  0  0  0  0
  -26.0310  -38.3630   23.9010 H   0  0  0  0  0  0  0  0  0  0  0  0
  -26.3420  -31.8020   25.1920 C   0  0  1  0  0  0  0  0  0  0  0  0
  -25.2270  -31.5960   26.2430 C   0  0  0  0  0  1  0  0  0  0  0  0
  -26.9300  -30.4120   24.8590 C   0  0  0  0  0  1  0  0  0  0  0  0
  -27.4820  -32.6100   25.8550 C   0  0  0  0  0  1  0  0  0  0  0  0
  1  3  1  0
  2  1  1  0
  5 10  1  0
  6  7  1  0
  6  5  1  0
  8  7  1  0
  8 21  1  0
  8  9  1  0
 10  4  1  0
 10  9  1  0
 11  4  2  0
 12 13  1  0
 12 14  1  0
 13 16  1  0
 14 17  1  0
 16  1  1  0
 16 15  1  0
 17  4  1  0
 17 15  1  0
 18 19  2  0
 19 38  1  0
 20 19  1  0
 20 23  1  0
 21 18  1  0
 21 22  1  0
 22 20  2  0
 23 24  1  0
 24 25  2  0
 26 29  1  0
 26 25  1  0
 27 26  2  0
 28 27  1  0
 28 23  2  0
 29 30  1  0
 30 31  1  0
 31 32  2  0
 33 32  1  0
 33 37  1  0
 34 33  2  0
 35 30  2  0
 35 34  1  0
 36 35  1  0
 38 39  1  0
 39 42  1  0
 39 41  1  0
 40 38  2  0
 43 44  1  0
 43 18  1  0
 45 43  1  0
 46  1  1  0
 46 47  1  0
 48 50  1  0
 48 47  1  0
 49 60  2  0
 50 55  1  0
 51 59  1  0
 51 61  1  0
 52 58  1  0
 52 54  1  0
 53 59  1  0
 54 55  2  0
 54 53  1  0
 56 50  2  0
 57 56  1  0
 57 52  2  0
 58 51  1  0
 59 49  1  0
 61 63  2  0
 62 61  1  0
 64 62  1  0
 65 74  2  0
 65 70  1  0
 66 62  1  0
 66 70  1  0
 67 66  1  0
 68 69  1  0
 68 67  1  0
 69 65  1  0
 70 71  2  0
 71 72  1  0
 73 72  2  0
 74 73  1  0
 75 49  1  0
 75 76  1  0
 75 85  1  0
 76 79  1  0
 77 81  1  0
 77 76  1  0
 78 77  2  0
 81 80  1  0
 83 81  1  0
 83 84  1  0
 83 82  1  0
 85 88  1  1
 85 86  1  0
 87 85  1  0
M  ISO  4   4 100  17 100  47 101  48 101
M  END
>  <TORSDO>  (23) 
F 18

>  <SCORE>  (23) 
-16.560

>  <name>  (23) 
22

>  <ligand_id>  (23) 
22

>  <original_smiles>  (23) 
[H]c1c([H])c([H])c2c(c1[H])C([H])([H])C([H])([H])C([H])([H])C2([H])N([H])C(=O)C1([H])N(C(=O)C([H])(N([H])C(=O)C([H])(N([H])C([H])([H])[H])C([H])([H])[H])C(C([H])([H])[H])(C([H])([H])[H])C([H])([H])[H])C([H])([H])c2c([H])c(OC([H])([H])C([H])([H])[N+]([H])([H])C3([H])C([H])([H])N(C(=O)N4C([H])([H])C([H])([H])C([H])([H])C([H])(n5nc(-c6c([H])c([H])c(Oc7c([H])c([H])c(F)c([H])c7F)c([H])c6[H])c(C(=O)N([H])[H])c5N([H])[H])C4([H])[H])C([H])([H])C([H])([H])C3([H])[H])c([H])c([H])c2C1([H])[H]

>  <smiles>  (23) 
[H]c1c([H])c([H])c2c(c1[H])C([H])([H])C([H])([H])C([H])([H])C2([H])N([H])C(=O)C1([H])N(C(=O)C([H])(N([H])C(=O)C([H])(N([H])C([H])([H])[H])C([H])([H])[H])C(C([H])([H])[H])(C([H])([H])[H])C([H])([H])[H])C([H])([H])c2c([H])c(OC([H])([H])C([H])([H])[N+]([H])([H])C3([H])C([H])([H])N(C(=O)N4C([H])([H])C([H])([H])C([H])([H])C([H])(n5nc(-c6c([H])c([H])c(Oc7c([H])c([H])c(F)c([H])c7F)c([H])c6[H])c(C(=O)N([H])[H])c5N([H])[H])C4([H])[H])C([H])([H])C([H])([H])C3([H])[H])c([H])c([H])c2C1([H])[H]

$$$$
23:0:0
     RDKit          3D

 89 97  0  0  1  0  0  0  0  0999 V2000
  -30.0720  -22.4500   20.9530 C   0  0  0  0  0  2  0  0  0  0  0  0
  -30.2810  -20.8790   21.2510 C   0  0  0  0  0  2  0  0  0  0  0  0
  -28.4600  -21.2570   19.8160 C   0  0  0  0  0  2  0  0  0  0  0  0
  -28.6090  -22.7860   20.5350 C   0  0  0  0  0  3  0  0  0  0  0  0
  -29.2040  -19.9420   20.5840 C   0  0  0  0  0  3  0  0  0  0  0  0
  -28.1210  -24.3820   19.8980 C   0  0  0  0  0  2  0  0  0  0  0  0
  -28.2170  -25.9460   20.3460 O   0  0  0  0  0  0  0  0  0  0  0  0
  -24.6550  -31.8760   23.2200 C   0  0  0  0  0  0  0  0  0  0  0  0
  -27.2000  -27.0170   20.2240 C   0  0  0  0  0  0  0  0  0  0  0  0
  -23.4540  -30.4740   21.5890 C   0  0  0  0  0  3  0  0  0  0  0  0
  -24.8960  -28.8690   20.1670 C   0  0  0  0  0  0  0  0  0  0  0  0
  -26.0160  -30.6920   21.4340 C   0  0  0  0  0  2  0  0  0  0  0  0
  -26.0800  -29.2840   20.7880 C   0  0  0  0  0  0  0  0  0  0  0  0
  -27.2240  -28.3730   20.8000 C   0  0  0  0  0  3  0  0  0  0  0  0
  -25.9940  -26.7510   19.5360 C   0  0  0  0  0  3  0  0  0  0  0  0
  -24.8760  -27.6220   19.5210 C   0  0  0  0  0  3  0  0  0  0  0  0
  -23.6770  -29.7860   20.2140 C   0  0  0  0  0  2  0  0  0  0  0  0
  -24.7300  -31.0410   22.1340 N   0  0  0  0  0  0  0  0  0  0  0  0
  -23.5680  -32.1700   23.7420 O   0  0  0  0  0  0  0  0  0  0  0  0
  -22.7630  -29.4840   22.5620 C   0  0  0  0  0  0  0  0  0  0  0  0
  -21.4310  -29.3230   22.4440 N   0  0  0  0  0  0  0  0  0  0  0  0
  -23.4300  -28.8580   23.3910 O   0  0  0  0  0  0  0  0  0  0  0  0
  -20.9450  -29.8790   21.7550 H   0  0  0  0  0  0  0  0  0  0  0  0
  -18.0460  -28.1270   22.9640 C   0  0  0  0  0  0  0  0  0  0  0  0
  -20.6070  -28.3910   23.2220 C   0  0  0  0  0  3  0  0  0  0  0  0
  -20.7050  -26.9550   22.6570 C   0  0  0  0  0  2  0  0  0  0  0  0
  -19.6020  -26.6270   21.6470 C   0  0  0  0  0  2  0  0  0  0  0  0
  -18.2210  -26.7770   22.2910 C   0  0  0  0  0  2  0  0  0  0  0  0
  -19.1660  -28.8930   23.3870 C   0  0  0  0  0  0  0  0  0  0  0  0
  -18.9470  -30.1570   23.9760 C   0  0  0  0  0  3  0  0  0  0  0  0
  -17.6410  -30.6550   24.1460 C   0  0  0  0  0  3  0  0  0  0  0  0
  -16.5370  -29.8870   23.7380 C   0  0  0  0  0  3  0  0  0  0  0  0
  -16.7400  -28.6250   23.1530 C   0  0  0  0  0  3  0  0  0  0  0  0
  -25.9310  -32.5180   23.8470 C   0  0  0  0  0  3  0  0  0  0  0  0
  -26.4400  -31.7560   25.1330 C   0  0  1  0  0  0  0  0  0  0  0  0
  -25.3420  -31.5350   26.2010 C   0  0  0  0  0  1  0  0  0  0  0  0
  -27.0160  -30.3720   24.7590 C   0  0  0  0  0  1  0  0  0  0  0  0
  -27.5940  -32.5500   25.7900 C   0  0  0  0  0  1  0  0  0  0  0  0
  -25.6180  -33.9180   24.1790 N   0  0  0  0  0  0  0  0  0  0  0  0
  -25.9390  -34.9760   23.4240 C   0  0  0  0  0  0  0  0  0  0  0  0
  -26.5950  -34.8790   22.3840 O   0  0  0  0  0  0  0  0  0  0  0  0
  -25.0380  -34.0700   24.9920 H   0  0  0  0  0  0  0  0  0  0  0  0
  -24.2010  -36.7720   23.1160 C   0  0  0  0  0  1  0  0  0  0  0  0
  -25.4600  -36.3650   23.8970 C   0  0  0  0  0  3  0  0  0  0  0  0
  -27.6110  -37.2540   24.6820 C   0  0  0  0  0  1  0  0  0  0  0  0
  -26.4870  -37.4210   23.7650 N   0  0  0  0  0  0  0  0  0  0  0  0
  -26.0820  -38.3400   23.9220 H   0  0  0  0  0  0  0  0  0  0  0  0
  -29.6800  -18.3310   19.9700 C   0  0  0  0  0  3  0  0  0  0  0  0
  -30.9360  -18.4990   19.2200 N   0  0  0  0  0  4  0  0  0  0  0  0
  -31.7200  -18.5670   19.8440 H   0  0  0  0  0  0  0  0  0  0  0  0
  -30.8980  -19.3320   18.6590 H   0  0  0  0  0  0  0  0  0  0  0  0
  -31.0910  -17.7210   18.6040 H   0  0  0  0  0  0  0  0  0  0  0  0
  -29.6730  -16.7090   20.6980 C   0  0  0  0  0  2  0  0  0  0  0  0
  -30.4260  -15.2020   20.2840 C   0  0  0  0  0  0  0  0  0  0  0  0
  -30.3900  -12.7770   19.3860 C   0  0  0  0  0  2  0  0  0  0  0  0
  -29.4670  -12.6410   18.1480 C   0  0  0  0  0  2  0  0  0  0  0  0
  -28.0100  -12.3930   18.5770 C   0  0  0  0  0  2  0  0  0  0  0  0
  -27.5750  -13.3380   19.7260 C   0  0  0  0  0  3  0  0  0  0  0  0
  -28.6200  -13.4250   20.8570 C   0  0  0  0  0  2  0  0  0  0  0  0
  -29.8770  -13.8950   20.2560 N   0  0  0  0  0  0  0  0  0  0  0  0
  -31.6120  -15.2290   19.9270 O   0  0  0  0  0  0  0  0  0  0  0  0
  -25.1970  -13.8970   20.4620 C   0  0  0  0  0  0  0  0  0  0  0  0
  -24.1350  -13.1190   20.8310 C   0  0  0  0  0  0  0  0  0  0  0  0
  -24.6060  -11.7700   20.8080 C   0  0  0  0  0  0  0  0  0  0  0  0
  -26.2420  -13.0240   20.2260 N   0  0  0  0  0  0  0  0  0  0  0  0
  -25.8990  -11.7390   20.5020 N   0  0  0  0  0  0  0  0  0  0  0  0
  -23.8800  -10.5070   21.0020 C   0  0  0  0  0  0  0  0  0  0  0  0
  -24.3150   -9.5380   21.9330 C   0  0  0  0  0  3  0  0  0  0  0  0
  -23.5880   -8.3430   22.1150 C   0  0  0  0  0  3  0  0  0  0  0  0
  -22.4110   -8.1070   21.3650 C   0  0  0  0  0  0  0  0  0  0  0  0
  -21.9950   -9.0640   20.4230 C   0  0  0  0  0  3  0  0  0  0  0  0
  -22.7240  -10.2510   20.2400 C   0  0  0  0  0  3  0  0  0  0  0  0
  -21.6550   -6.9630   21.4560 O   0  0  0  0  0  0  0  0  0  0  0  0
  -21.6190   -6.2130   22.6050 C   0  0  0  0  0  0  0  0  0  0  0  0
  -21.2170   -6.7640   23.8410 C   0  0  0  0  0  3  0  0  0  0  0  0
  -21.1270   -5.9410   24.9830 C   0  0  0  0  0  3  0  0  0  0  0  0
  -21.4300   -4.5690   24.8870 C   0  0  0  0  0  0  0  0  0  0  0  0
  -21.8260   -4.0190   23.6550 C   0  0  0  0  0  3  0  0  0  0  0  0
  -21.9180   -4.8390   22.5170 C   0  0  0  0  0  0  0  0  0  0  0  0
  -22.2780   -4.2990   21.3280 F   0  0  0  0  0  0  0  0  0  0  0  0
  -21.3380   -3.7770   25.9800 F   0  0  0  0  0  0  0  0  0  0  0  0
  -22.7350  -13.5940   21.0920 C   0  0  0  0  0  0  0  0  0  0  0  0
  -22.0050  -12.9010   21.9580 N   0  0  0  0  0  0  0  0  0  0  0  0
  -22.2990  -14.6170   20.5650 O   0  0  0  0  0  0  0  0  0  0  0  0
  -22.3710  -12.0720   22.4040 H   0  0  0  0  0  0  0  0  0  0  0  0
  -21.0670  -13.2020   22.1790 H   0  0  0  0  0  0  0  0  0  0  0  0
  -25.3540  -15.2680   20.2780 N   0  0  0  0  0  0  0  0  0  0  0  0
  -24.5810  -15.9160   20.3830 H   0  0  0  0  0  0  0  0  0  0  0  0
  -26.1970  -15.7110   19.9350 H   0  0  0  0  0  0  0  0  0  0  0  0
  1  2  1  0
  3  4  1  0
  3  5  1  0
  4  6  1  0
  4  1  1  0
  5 48  1  0
  5  2  1  0
  6  7  1  0
  8 19  2  0
  9  7  1  0
  9 14  1  0
 10 18  1  0
 10 20  1  0
 11 17  1  0
 11 13  1  0
 12 18  1  0
 13 14  2  0
 13 12  1  0
 15  9  2  0
 16 15  1  0
 16 11  2  0
 17 10  1  0
 18  8  1  0
 20 22  2  0
 21 20  1  0
 23 21  1  0
 24 33  2  0
 24 29  1  0
 25 21  1  0
 25 29  1  0
 26 25  1  0
 27 28  1  0
 27 26  1  0
 28 24  1  0
 29 30  2  0
 30 31  1  0
 32 31  2  0
 33 32  1  0
 34  8  1  0
 34 39  1  0
 34 35  1  0
 35 38  1  1
 35 36  1  0
 37 35  1  0
 39 42  1  0
 40 44  1  0
 40 39  1  0
 41 40  2  0
 44 43  1  0
 46 44  1  0
 46 47  1  0
 46 45  1  0
 48 53  1  0
 49 50  1  0
 49 48  1  0
 51 49  1  0
 52 49  1  0
 54 53  1  0
 55 60  1  0
 56 57  1  0
 56 55  1  0
 58 57  1  0
 58 65  1  0
 58 59  1  0
 60 54  1  0
 60 59  1  0
 61 54  2  0
 62 63  2  0
 63 82  1  0
 64 63  1  0
 64 67  1  0
 65 62  1  0
 65 66  1  0
 66 64  2  0
 67 68  1  0
 68 69  2  0
 70 73  1  0
 70 69  1  0
 71 70  2  0
 72 71  1  0
 72 67  2  0
 73 74  1  0
 74 75  1  0
 75 76  2  0
 77 76  1  0
 77 81  1  0
 78 77  2  0
 79 74  2  0
 79 78  1  0
 80 79  1  0
 82 83  1  0
 83 86  1  0
 83 85  1  0
 84 82  2  0
 87 88  1  0
 87 62  1  0
 89 87  1  0
M  ISO  4   6 101   7 101  53 100  54 100
M  END
>  <TORSDO>  (24) 
F 20

>  <SCORE>  (24) 
-16.124

>  <name>  (24) 
23

>  <ligand_id>  (24) 
23

>  <original_smiles>  (24) 
[H]c1c([H])c([H])c2c(c1[H])C([H])([H])C([H])([H])C([H])([H])C2([H])N([H])C(=O)C1([H])N(C(=O)C([H])(N([H])C(=O)C([H])(N([H])C([H])([H])[H])C([H])([H])[H])C(C([H])([H])[H])(C([H])([H])[H])C([H])([H])[H])C([H])([H])c2c([H])c(OC([H])([H])C3([H])C([H])([H])C([H])([H])C([H])(C([H])(C([H])([H])C(=O)N4C([H])([H])C([H])([H])C([H])([H])C([H])(n5nc(-c6c([H])c([H])c(Oc7c([H])c([H])c(F)c([H])c7F)c([H])c6[H])c(C(=O)N([H])[H])c5N([H])[H])C4([H])[H])[N+]([H])([H])[H])C3([H])[H])c([H])c([H])c2C1([H])[H]

>  <smiles>  (24) 
[H]c1c([H])c([H])c2c(c1[H])C([H])([H])C([H])([H])C([H])([H])C2([H])N([H])C(=O)C1([H])N(C(=O)C([H])(N([H])C(=O)C([H])(N([H])C([H])([H])[H])C([H])([H])[H])C(C([H])([H])[H])(C([H])([H])[H])C([H])([H])[H])C([H])([H])c2c([H])c(OC([H])([H])C3([H])C([H])([H])C([H])([H])C([H])(C([H])(C([H])([H])C(=O)N4C([H])([H])C([H])([H])C([H])([H])C([H])(n5nc(-c6c([H])c([H])c(Oc7c([H])c([H])c(F)c([H])c7F)c([H])c6[H])c(C(=O)N([H])[H])c5N([H])[H])C4([H])[H])[N+]([H])([H])[H])C3([H])[H])c([H])c([H])c2C1([H])[H]

$$$$
24:0:0
     RDKit          3D

 86 94  0  0  1  0  0  0  0  0999 V2000
  -28.8530  -20.7350   20.3430 C   0  0  0  0  0  0  0  0  0  0  0  0
  -27.6590  -20.4840   20.1610 O   0  0  0  0  0  0  0  0  0  0  0  0
  -29.4190  -18.2030   21.5730 C   0  0  0  0  0  2  0  0  0  0  0  0
  -29.8450  -19.1960   20.4930 C   0  0  0  0  0  3  0  0  0  0  0  0
  -29.6080  -17.3470   20.3390 C   0  0  1  0  0  0  0  0  0  0  0  0
  -30.5010  -15.7540   20.5140 C   0  0  0  0  0  0  0  0  0  0  0  0
  -30.6580  -13.2120   19.7660 C   0  0  0  0  0  2  0  0  0  0  0  0
  -29.8110  -12.7830   18.5340 C   0  0  0  0  0  2  0  0  0  0  0  0
  -28.3650  -12.4470   18.9360 C   0  0  0  0  0  2  0  0  0  0  0  0
  -27.8050  -13.4640   19.9520 C   0  0  0  0  0  3  0  0  0  0  0  0
  -28.7910  -13.8060   21.0910 C   0  0  0  0  0  2  0  0  0  0  0  0
  -30.0070  -14.3880   20.4830 N   0  0  0  0  0  0  0  0  0  0  0  0
  -31.7430  -15.7150   20.4350 O   0  0  0  0  0  0  0  0  0  0  0  0
  -25.4210  -13.9800   20.6890 C   0  0  0  0  0  0  0  0  0  0  0  0
  -24.3610  -13.1870   21.0200 C   0  0  0  0  0  0  0  0  0  0  0  0
  -24.8460  -11.8430   20.9770 C   0  0  0  0  0  0  0  0  0  0  0  0
  -26.4790  -13.1210   20.4450 N   0  0  0  0  0  0  0  0  0  0  0  0
  -26.1450  -11.8280   20.6920 N   0  0  0  0  0  0  0  0  0  0  0  0
  -24.1290  -10.5710   21.1260 C   0  0  0  0  0  0  0  0  0  0  0  0
  -24.5210   -9.6110   22.0850 C   0  0  0  0  0  3  0  0  0  0  0  0
  -23.8000   -8.4050   22.2240 C   0  0  0  0  0  3  0  0  0  0  0  0
  -22.6760   -8.1510   21.4030 C   0  0  0  0  0  0  0  0  0  0  0  0
  -22.3040   -9.1020   20.4350 C   0  0  0  0  0  3  0  0  0  0  0  0
  -23.0250  -10.2980   20.2940 C   0  0  0  0  0  3  0  0  0  0  0  0
  -21.9320   -6.9980   21.4510 O   0  0  0  0  0  0  0  0  0  0  0  0
  -21.7790   -6.2880   22.6150 C   0  0  0  0  0  0  0  0  0  0  0  0
  -21.1660   -6.8500   23.7550 C   0  0  0  0  0  3  0  0  0  0  0  0
  -20.9660   -6.0640   24.9080 C   0  0  0  0  0  3  0  0  0  0  0  0
  -21.3670   -4.7150   24.9180 C   0  0  0  0  0  0  0  0  0  0  0  0
  -21.9730   -4.1510   23.7810 C   0  0  0  0  0  3  0  0  0  0  0  0
  -22.1750   -4.9350   22.6310 C   0  0  0  0  0  0  0  0  0  0  0  0
  -22.7390   -4.3810   21.5310 F   0  0  0  0  0  0  0  0  0  0  0  0
  -21.1690   -3.9570   26.0210 F   0  0  0  0  0  0  0  0  0  0  0  0
  -22.9520  -13.6450   21.2590 C   0  0  0  0  0  0  0  0  0  0  0  0
  -22.2150  -12.9410   22.1080 N   0  0  0  0  0  0  0  0  0  0  0  0
  -22.5160  -14.6660   20.7280 O   0  0  0  0  0  0  0  0  0  0  0  0
  -22.5810  -12.1160   22.5610 H   0  0  0  0  0  0  0  0  0  0  0  0
  -21.2680  -13.2300   22.3100 H   0  0  0  0  0  0  0  0  0  0  0  0
  -25.5660  -15.3560   20.5450 N   0  0  0  0  0  0  0  0  0  0  0  0
  -24.7870  -15.9950   20.6610 H   0  0  0  0  0  0  0  0  0  0  0  0
  -26.4210  -15.8190   20.2660 H   0  0  0  0  0  0  0  0  0  0  0  0
  -28.9520  -16.8850   17.9000 C   0  0  0  0  0  1  0  0  0  0  0  0
  -28.4830  -17.1010   19.3480 C   0  0  0  0  0  2  0  0  0  0  0  0
  -29.1230  -22.5400   20.4030 C   0  0  0  0  0  3  0  0  0  0  0  0
  -28.0930  -24.1250   20.2330 C   0  0  0  0  0  3  0  0  0  0  0  0
  -28.2580  -25.8350   20.3560 O   0  0  0  0  0  0  0  0  0  0  0  0
  -24.5820  -31.9380   23.2510 C   0  0  0  0  0  0  0  0  0  0  0  0
  -27.2470  -26.9830   20.2850 C   0  0  0  0  0  0  0  0  0  0  0  0
  -23.4410  -30.5340   21.5850 C   0  0  0  0  0  3  0  0  0  0  0  0
  -24.9370  -28.9240   20.1930 C   0  0  0  0  0  0  0  0  0  0  0  0
  -26.0140  -30.7360   21.5020 C   0  0  0  0  0  2  0  0  0  0  0  0
  -26.1130  -29.3150   20.8450 C   0  0  0  0  0  0  0  0  0  0  0  0
  -27.2560  -28.3700   20.8600 C   0  0  0  0  0  3  0  0  0  0  0  0
  -26.0340  -26.7760   19.5840 C   0  0  0  0  0  3  0  0  0  0  0  0
  -24.9300  -27.6780   19.5420 C   0  0  0  0  0  3  0  0  0  0  0  0
  -23.7130  -29.8470   20.2150 C   0  0  0  0  0  2  0  0  0  0  0  0
  -24.7020  -31.1000   22.1660 N   0  0  0  0  0  0  0  0  0  0  0  0
  -23.4780  -32.2180   23.7460 O   0  0  0  0  0  0  0  0  0  0  0  0
  -22.7260  -29.5380   22.5360 C   0  0  0  0  0  0  0  0  0  0  0  0
  -21.3970  -29.3680   22.3870 N   0  0  0  0  0  0  0  0  0  0  0  0
  -23.3750  -28.9170   23.3810 O   0  0  0  0  0  0  0  0  0  0  0  0
  -20.9240  -29.9230   21.6890 H   0  0  0  0  0  0  0  0  0  0  0  0
  -18.0080  -28.1500   22.8570 C   0  0  0  0  0  0  0  0  0  0  0  0
  -20.5680  -28.4190   23.1390 C   0  0  0  0  0  3  0  0  0  0  0  0
  -20.6730  -26.9950   22.5440 C   0  0  0  0  0  2  0  0  0  0  0  0
  -19.5790  -26.6880   21.5180 C   0  0  0  0  0  2  0  0  0  0  0  0
  -18.1930  -26.8150   22.1550 C   0  0  0  0  0  2  0  0  0  0  0  0
  -19.1230  -28.9110   23.3030 C   0  0  0  0  0  0  0  0  0  0  0  0
  -18.8940  -30.1570   23.9250 C   0  0  0  0  0  3  0  0  0  0  0  0
  -17.5860  -30.6470   24.0990 C   0  0  0  0  0  3  0  0  0  0  0  0
  -16.4870  -29.8850   23.6660 C   0  0  0  0  0  3  0  0  0  0  0  0
  -16.6990  -28.6390   23.0500 C   0  0  0  0  0  3  0  0  0  0  0  0
  -25.8290  -32.5950   23.9170 C   0  0  0  0  0  3  0  0  0  0  0  0
  -26.2760  -31.8680   25.2460 C   0  0  1  0  0  0  0  0  0  0  0  0
  -25.1290  -31.6670   26.2640 C   0  0  0  0  0  1  0  0  0  0  0  0
  -26.8770  -30.4780   24.9400 C   0  0  0  0  0  1  0  0  0  0  0  0
  -27.3930  -32.6840   25.9380 C   0  0  0  0  0  1  0  0  0  0  0  0
  -25.5050  -34.0060   24.2040 N   0  0  0  0  0  0  0  0  0  0  0  0
  -25.8680  -35.0500   23.4460 C   0  0  0  0  0  0  0  0  0  0  0  0
  -26.5720  -34.9260   22.4390 O   0  0  0  0  0  0  0  0  0  0  0  0
  -24.8840  -34.1760   24.9810 H   0  0  0  0  0  0  0  0  0  0  0  0
  -24.1740  -36.8620   23.0050 C   0  0  0  0  0  1  0  0  0  0  0  0
  -25.3790  -36.4520   23.8670 C   0  0  0  0  0  3  0  0  0  0  0  0
  -27.4830  -37.3410   24.7710 C   0  0  0  0  0  1  0  0  0  0  0  0
  -26.4250  -37.4950   23.7760 N   0  0  0  0  0  0  0  0  0  0  0  0
  -26.0200  -38.4210   23.8860 H   0  0  0  0  0  0  0  0  0  0  0  0
  1 44  1  0
  2  1  2  0
  4  1  1  0
  4  3  1  0
  5 43  1  6
  5  4  1  0
  5  6  1  0
  5  3  1  0
  7 12  1  0
  8  9  1  0
  8  7  1  0
 10  9  1  0
 10 17  1  0
 10 11  1  0
 12  6  1  0
 12 11  1  0
 13  6  2  0
 14 15  2  0
 15 34  1  0
 16 15  1  0
 16 19  1  0
 17 14  1  0
 17 18  1  0
 18 16  2  0
 19 20  1  0
 20 21  2  0
 22 25  1  0
 22 21  1  0
 23 22  2  0
 24 23  1  0
 24 19  2  0
 25 26  1  0
 26 31  2  0
 26 27  1  0
 27 28  2  0
 28 29  1  0
 29 33  1  0
 30 29  2  0
 31 30  1  0
 32 31  1  0
 34 35  1  0
 35 38  1  0
 35 37  1  0
 36 34  2  0
 39 40  1  0
 39 14  1  0
 41 39  1  0
 42 43  1  0
 45 46  1  0
 45 44  2  0
 47 58  2  0
 48 46  1  0
 48 53  1  0
 49 57  1  0
 49 59  1  0
 50 56  1  0
 50 52  1  0
 51 57  1  0
 52 53  2  0
 52 51  1  0
 54 48  2  0
 55 54  1  0
 55 50  2  0
 56 49  1  0
 57 47  1  0
 59 61  2  0
 60 59  1  0
 62 60  1  0
 63 72  2  0
 63 68  1  0
 64 60  1  0
 64 68  1  0
 65 64  1  0
 66 67  1  0
 66 65  1  0
 67 63  1  0
 68 69  2  0
 69 70  1  0
 71 70  2  0
 72 71  1  0
 73 47  1  0
 73 78  1  0
 73 74  1  0
 74 77  1  1
 74 75  1  0
 76 74  1  0
 78 81  1  0
 79 83  1  0
 79 78  1  0
 80 79  2  0
 83 82  1  0
 85 83  1  0
 85 86  1  0
 85 84  1  0
M  ISO  4   5 100   6 100  45 101  46 101
M  END
>  <TORSDO>  (25) 
F 20

>  <SCORE>  (25) 
-14.388

>  <name>  (25) 
24

>  <ligand_id>  (25) 
24

>  <original_smiles>  (25) 
[H]c1c([H])c([H])c2c(c1[H])C([H])([H])C([H])([H])C([H])([H])C2([H])N([H])C(=O)C1([H])N(C(=O)C([H])(N([H])C(=O)C([H])(N([H])C([H])([H])[H])C([H])([H])[H])C(C([H])([H])[H])(C([H])([H])[H])C([H])([H])[H])C([H])([H])c2c([H])c(OC([H])([H])C([H])([H])C(=O)C3([H])C([H])([H])C3(C(=O)N3C([H])([H])C([H])([H])C([H])([H])C([H])(n4nc(-c5c([H])c([H])c(Oc6c([H])c([H])c(F)c([H])c6F)c([H])c5[H])c(C(=O)N([H])[H])c4N([H])[H])C3([H])[H])C([H])([H])C([H])([H])[H])c([H])c([H])c2C1([H])[H]

>  <smiles>  (25) 
[H]c1c([H])c([H])c2c(c1[H])C([H])([H])C([H])([H])C([H])([H])C2([H])N([H])C(=O)C1([H])N(C(=O)C([H])(N([H])C(=O)C([H])(N([H])C([H])([H])[H])C([H])([H])[H])C(C([H])([H])[H])(C([H])([H])[H])C([H])([H])[H])C([H])([H])c2c([H])c(OC([H])([H])C([H])([H])C(=O)C3([H])C([H])([H])C3(C(=O)N3C([H])([H])C([H])([H])C([H])([H])C([H])(n4nc(-c5c([H])c([H])c(Oc6c([H])c([H])c(F)c([H])c6F)c([H])c5[H])c(C(=O)N([H])[H])c4N([H])[H])C3([H])[H])C([H])([H])C([H])([H])[H])c([H])c([H])c2C1([H])[H]

$$$$
25:0:0
     RDKit          3D

 89 97  0  0  1  0  0  0  0  0999 V2000
  -28.6800  -21.3330   20.8210 C   0  0  0  0  0  2  0  0  0  0  0  0
  -29.4330  -22.3860   18.8730 C   0  0  0  0  0  2  0  0  0  0  0  0
  -28.9600  -22.9190   20.2560 C   0  0  0  0  0  3  0  0  0  0  0  0
  -29.2220  -19.9880   19.9240 C   0  0  0  0  0  3  0  0  0  0  0  0
  -30.0760  -20.9210   18.9880 C   0  0  0  0  0  3  0  0  0  0  0  0
  -30.3030  -20.3190   17.6600 N   0  0  0  0  0  4  0  0  0  0  0  0
  -29.4380  -20.1380   17.1820 H   0  0  0  0  0  0  0  0  0  0  0  0
  -30.8020  -19.4520   17.7460 H   0  0  0  0  0  0  0  0  0  0  0  0
  -30.8570  -20.9300   17.0830 H   0  0  0  0  0  0  0  0  0  0  0  0
  -29.9710  -18.4380   20.4050 C   0  0  0  0  0  2  0  0  0  0  0  0
  -29.5260  -16.7290   20.2260 C   0  0  0  0  0  2  0  0  0  0  0  0
  -30.4120  -15.2390   20.1620 C   0  0  0  0  0  0  0  0  0  0  0  0
  -30.3760  -12.8100   19.2810 C   0  0  0  0  0  2  0  0  0  0  0  0
  -29.4180  -12.6780   18.0690 C   0  0  0  0  0  2  0  0  0  0  0  0
  -27.9760  -12.4120   18.5370 C   0  0  0  0  0  2  0  0  0  0  0  0
  -27.5610  -13.3590   19.6900 C   0  0  0  0  0  3  0  0  0  0  0  0
  -28.6380  -13.4580   20.7920 C   0  0  0  0  0  2  0  0  0  0  0  0
  -29.8810  -13.9260   20.1590 N   0  0  0  0  0  0  0  0  0  0  0  0
  -31.6240  -15.2750   19.9080 O   0  0  0  0  0  0  0  0  0  0  0  0
  -25.2010  -13.9070   20.5030 C   0  0  0  0  0  0  0  0  0  0  0  0
  -24.1490  -13.1220   20.8860 C   0  0  0  0  0  0  0  0  0  0  0  0
  -24.6200  -11.7740   20.8330 C   0  0  0  0  0  0  0  0  0  0  0  0
  -26.2430  -13.0380   20.2280 N   0  0  0  0  0  0  0  0  0  0  0  0
  -25.9060  -11.7490   20.4940 N   0  0  0  0  0  0  0  0  0  0  0  0
  -23.9010  -10.5060   21.0250 C   0  0  0  0  0  0  0  0  0  0  0  0
  -24.3510   -9.5340   21.9480 C   0  0  0  0  0  3  0  0  0  0  0  0
  -23.6310   -8.3320   22.1280 C   0  0  0  0  0  3  0  0  0  0  0  0
  -22.4490   -8.0950   21.3890 C   0  0  0  0  0  0  0  0  0  0  0  0
  -22.0190   -9.0540   20.4550 C   0  0  0  0  0  3  0  0  0  0  0  0
  -22.7380  -10.2470   20.2720 C   0  0  0  0  0  3  0  0  0  0  0  0
  -21.6990   -6.9460   21.4800 O   0  0  0  0  0  0  0  0  0  0  0  0
  -21.6560   -6.2040   22.6330 C   0  0  0  0  0  0  0  0  0  0  0  0
  -21.2180   -6.7550   23.8570 C   0  0  0  0  0  3  0  0  0  0  0  0
  -21.1230   -5.9390   25.0020 C   0  0  0  0  0  3  0  0  0  0  0  0
  -21.4590   -4.5740   24.9240 C   0  0  0  0  0  0  0  0  0  0  0  0
  -21.8890   -4.0230   23.7050 C   0  0  0  0  0  3  0  0  0  0  0  0
  -21.9850   -4.8350   22.5620 C   0  0  0  0  0  0  0  0  0  0  0  0
  -22.3810   -4.2960   21.3840 F   0  0  0  0  0  0  0  0  0  0  0  0
  -21.3600   -3.7870   26.0220 F   0  0  0  0  0  0  0  0  0  0  0  0
  -22.7560  -13.5890   21.1930 C   0  0  0  0  0  0  0  0  0  0  0  0
  -22.0500  -12.8770   22.0640 N   0  0  0  0  0  0  0  0  0  0  0  0
  -22.3030  -14.6180   20.6920 O   0  0  0  0  0  0  0  0  0  0  0  0
  -22.4330  -12.0430   22.4860 H   0  0  0  0  0  0  0  0  0  0  0  0
  -21.1160  -13.1680   22.3180 H   0  0  0  0  0  0  0  0  0  0  0  0
  -25.3580  -15.2800   20.3370 N   0  0  0  0  0  0  0  0  0  0  0  0
  -24.5940  -15.9360   20.4630 H   0  0  0  0  0  0  0  0  0  0  0  0
  -26.2110  -15.7230   20.0220 H   0  0  0  0  0  0  0  0  0  0  0  0
  -27.9480  -24.3840   20.3080 C   0  0  0  0  0  2  0  0  0  0  0  0
  -28.2160  -25.9900   20.3280 O   0  0  0  0  0  0  0  0  0  0  0  0
  -24.6190  -31.9170   23.2500 C   0  0  0  0  0  0  0  0  0  0  0  0
  -27.1830  -27.0500   20.2790 C   0  0  0  0  0  0  0  0  0  0  0  0
  -23.4240  -30.5090   21.6210 C   0  0  0  0  0  3  0  0  0  0  0  0
  -24.8740  -28.8940   20.2240 C   0  0  0  0  0  0  0  0  0  0  0  0
  -25.9900  -30.7300   21.4720 C   0  0  0  0  0  2  0  0  0  0  0  0
  -26.0610  -29.3180   20.8340 C   0  0  0  0  0  0  0  0  0  0  0  0
  -27.2130  -28.4180   20.8330 C   0  0  0  0  0  3  0  0  0  0  0  0
  -25.9580  -26.7610   19.6390 C   0  0  0  0  0  3  0  0  0  0  0  0
  -24.8430  -27.6340   19.6110 C   0  0  0  0  0  3  0  0  0  0  0  0
  -23.6570  -29.8130   20.2520 C   0  0  0  0  0  2  0  0  0  0  0  0
  -24.6990  -31.0800   22.1670 N   0  0  0  0  0  0  0  0  0  0  0  0
  -23.5300  -32.2120   23.7680 O   0  0  0  0  0  0  0  0  0  0  0  0
  -22.7310  -29.5220   22.5950 C   0  0  0  0  0  0  0  0  0  0  0  0
  -21.4000  -29.3550   22.4660 N   0  0  0  0  0  0  0  0  0  0  0  0
  -23.3930  -28.9050   23.4320 O   0  0  0  0  0  0  0  0  0  0  0  0
  -20.9170  -29.9030   21.7690 H   0  0  0  0  0  0  0  0  0  0  0  0
  -18.0150  -28.1550   22.9700 C   0  0  0  0  0  0  0  0  0  0  0  0
  -20.5750  -28.4260   23.2440 C   0  0  0  0  0  3  0  0  0  0  0  0
  -20.6800  -26.9880   22.6850 C   0  0  0  0  0  2  0  0  0  0  0  0
  -19.5820  -26.6540   21.6690 C   0  0  0  0  0  2  0  0  0  0  0  0
  -18.1970  -26.8030   22.3050 C   0  0  0  0  0  2  0  0  0  0  0  0
  -19.1310  -28.9250   23.3950 C   0  0  0  0  0  0  0  0  0  0  0  0
  -18.9060  -30.1910   23.9790 C   0  0  0  0  0  3  0  0  0  0  0  0
  -17.5990  -30.6910   24.1370 C   0  0  0  0  0  3  0  0  0  0  0  0
  -16.4980  -29.9200   23.7240 C   0  0  0  0  0  3  0  0  0  0  0  0
  -16.7070  -28.6530   23.1500 C   0  0  0  0  0  3  0  0  0  0  0  0
  -25.8920  -32.5600   23.8810 C   0  0  0  0  0  3  0  0  0  0  0  0
  -26.3890  -31.8080   25.1750 C   0  0  1  0  0  0  0  0  0  0  0  0
  -25.2810  -31.5970   26.2350 C   0  0  0  0  0  1  0  0  0  0  0  0
  -26.9710  -30.4220   24.8200 C   0  0  0  0  0  1  0  0  0  0  0  0
  -27.5360  -32.6080   25.8380 C   0  0  0  0  0  1  0  0  0  0  0  0
  -25.5810  -33.9640   24.1950 N   0  0  0  0  0  0  0  0  0  0  0  0
  -25.9180  -35.0140   23.4340 C   0  0  0  0  0  0  0  0  0  0  0  0
  -26.5820  -34.9000   22.4000 O   0  0  0  0  0  0  0  0  0  0  0  0
  -24.9940  -34.1280   25.0010 H   0  0  0  0  0  0  0  0  0  0  0  0
  -24.1910  -36.8110   23.0840 C   0  0  0  0  0  1  0  0  0  0  0  0
  -25.4410  -36.4090   23.8880 C   0  0  0  0  0  3  0  0  0  0  0  0
  -27.5850  -37.2980   24.6940 C   0  0  0  0  0  1  0  0  0  0  0  0
  -26.4760  -37.4600   23.7550 N   0  0  0  0  0  0  0  0  0  0  0  0
  -26.0730  -38.3810   23.8980 H   0  0  0  0  0  0  0  0  0  0  0  0
  2  5  1  0
  2  3  1  0
  3 48  1  0
  3  1  1  0
  4 10  1  0
  4  1  1  0
  5  6  1  0
  5  4  1  0
  6  8  1  0
  7  6  1  0
  9  6  1  0
 11 10  1  0
 12 11  1  0
 13 18  1  0
 14 15  1  0
 14 13  1  0
 16 15  1  0
 16 23  1  0
 16 17  1  0
 18 12  1  0
 18 17  1  0
 19 12  2  0
 20 21  2  0
 21 40  1  0
 22 21  1  0
 22 25  1  0
 23 24  1  0
 23 20  1  0
 24 22  2  0
 25 26  1  0
 26 27  2  0
 28 31  1  0
 28 27  1  0
 29 28  2  0
 30 29  1  0
 30 25  2  0
 31 32  1  0
 32 33  1  0
 33 34  2  0
 35 34  1  0
 35 39  1  0
 36 35  2  0
 37 32  2  0
 37 36  1  0
 38 37  1  0
 40 41  1  0
 41 44  1  0
 41 43  1  0
 42 40  2  0
 45 46  1  0
 45 20  1  0
 47 45  1  0
 48 49  1  0
 50 61  2  0
 51 49  1  0
 51 56  1  0
 52 60  1  0
 52 62  1  0
 53 59  1  0
 53 55  1  0
 54 60  1  0
 55 54  1  0
 56 55  2  0
 57 51  2  0
 58 57  1  0
 58 53  2  0
 59 52  1  0
 60 50  1  0
 62 64  2  0
 63 62  1  0
 65 63  1  0
 66 75  2  0
 66 71  1  0
 67 63  1  0
 67 71  1  0
 68 67  1  0
 69 70  1  0
 69 68  1  0
 70 66  1  0
 71 72  2  0
 72 73  1  0
 74 73  2  0
 75 74  1  0
 76 50  1  0
 76 81  1  0
 76 77  1  0
 77 80  1  1
 77 78  1  0
 79 77  1  0
 81 84  1  0
 82 86  1  0
 82 81  1  0
 83 82  2  0
 86 85  1  0
 88 86  1  0
 88 89  1  0
 88 87  1  0
M  ISO  4  11 100  12 100  48 101  49 101
M  END
>  <TORSDO>  (26) 
F 20

>  <SCORE>  (26) 
-15.816

>  <name>  (26) 
25

>  <ligand_id>  (26) 
25

>  <original_smiles>  (26) 
[H]c1c([H])c([H])c2c(c1[H])C([H])([H])C([H])([H])C([H])([H])C2([H])N([H])C(=O)C1([H])N(C(=O)C([H])(N([H])C(=O)C([H])(N([H])C([H])([H])[H])C([H])([H])[H])C(C([H])([H])[H])(C([H])([H])[H])C([H])([H])[H])C([H])([H])c2c([H])c(OC([H])([H])C3([H])C([H])([H])C([H])(C([H])([H])C([H])([H])C(=O)N4C([H])([H])C([H])([H])C([H])([H])C([H])(n5nc(-c6c([H])c([H])c(Oc7c([H])c([H])c(F)c([H])c7F)c([H])c6[H])c(C(=O)N([H])[H])c5N([H])[H])C4([H])[H])C([H])([N+]([H])([H])[H])C3([H])[H])c([H])c([H])c2C1([H])[H]

>  <smiles>  (26) 
[H]c1c([H])c([H])c2c(c1[H])C([H])([H])C([H])([H])C([H])([H])C2([H])N([H])C(=O)C1([H])N(C(=O)C([H])(N([H])C(=O)C([H])(N([H])C([H])([H])[H])C([H])([H])[H])C(C([H])([H])[H])(C([H])([H])[H])C([H])([H])[H])C([H])([H])c2c([H])c(OC([H])([H])C3([H])C([H])([H])C([H])(C([H])([H])C([H])([H])C(=O)N4C([H])([H])C([H])([H])C([H])([H])C([H])(n5nc(-c6c([H])c([H])c(Oc7c([H])c([H])c(F)c([H])c7F)c([H])c6[H])c(C(=O)N([H])[H])c5N([H])[H])C4([H])[H])C([H])([N+]([H])([H])[H])C3([H])[H])c([H])c([H])c2C1([H])[H]

$$$$
26:0:0
     RDKit          3D

 86 94  0  0  1  0  0  0  0  0999 V2000
  -28.9890  -22.2660   20.1850 C   0  0  0  0  0  0  0  0  0  0  0  0
  -30.1360  -22.5500   19.8200 O   0  0  0  0  0  0  0  0  0  0  0  0
  -30.3200  -15.7360   20.1740 C   0  0  0  0  0  0  0  0  0  0  0  0
  -30.4390  -13.1840   19.3480 C   0  0  0  0  0  2  0  0  0  0  0  0
  -29.5460  -12.7550   18.1490 C   0  0  0  0  0  2  0  0  0  0  0  0
  -28.1290  -12.3800   18.6170 C   0  0  0  0  0  2  0  0  0  0  0  0
  -27.6090  -13.3810   19.6760 C   0  0  0  0  0  3  0  0  0  0  0  0
  -28.6500  -13.7140   20.7730 C   0  0  0  0  0  2  0  0  0  0  0  0
  -29.7980  -14.3630   20.0940 N   0  0  0  0  0  0  0  0  0  0  0  0
  -31.5620  -15.6530   20.0610 O   0  0  0  0  0  0  0  0  0  0  0  0
  -27.2520  -18.3450   20.2200 C   0  0  0  0  0  2  0  0  0  0  0  0
  -27.5510  -19.8210   19.7680 C   0  0  0  0  0  2  0  0  0  0  0  0
  -28.1810  -17.1660   19.7230 C   0  0  0  0  0  2  0  0  0  0  0  0
  -29.9040  -18.8530   20.2820 C   0  0  0  0  0  2  0  0  0  0  0  0
  -28.8180  -20.4080   20.4230 C   0  0  0  0  0  3  0  0  0  0  0  0
  -29.5800  -17.1320   20.2020 N   0  0  0  0  0  0  0  0  0  0  0  0
  -25.2470  -13.8810   20.4820 C   0  0  0  0  0  0  0  0  0  0  0  0
  -24.2040  -13.0870   20.8550 C   0  0  0  0  0  0  0  0  0  0  0  0
  -24.6940  -11.7460   20.8090 C   0  0  0  0  0  0  0  0  0  0  0  0
  -26.3020  -13.0280   20.2140 N   0  0  0  0  0  0  0  0  0  0  0  0
  -25.9830  -11.7350   20.4820 N   0  0  0  0  0  0  0  0  0  0  0  0
  -23.9830  -10.4740   20.9900 C   0  0  0  0  0  0  0  0  0  0  0  0
  -24.4080   -9.5160   21.9360 C   0  0  0  0  0  3  0  0  0  0  0  0
  -23.6870   -8.3160   22.1090 C   0  0  0  0  0  3  0  0  0  0  0  0
  -22.5270   -8.0660   21.3380 C   0  0  0  0  0  0  0  0  0  0  0  0
  -22.1220   -9.0130   20.3810 C   0  0  0  0  0  3  0  0  0  0  0  0
  -22.8450  -10.2040   20.2040 C   0  0  0  0  0  3  0  0  0  0  0  0
  -21.7780   -6.9160   21.4230 O   0  0  0  0  0  0  0  0  0  0  0  0
  -21.6820   -6.2040   22.5910 C   0  0  0  0  0  0  0  0  0  0  0  0
  -21.1600   -6.7770   23.7720 C   0  0  0  0  0  3  0  0  0  0  0  0
  -21.0110   -5.9890   24.9300 C   0  0  0  0  0  3  0  0  0  0  0  0
  -21.3790   -4.6290   24.9100 C   0  0  0  0  0  0  0  0  0  0  0  0
  -21.8950   -4.0560   23.7350 C   0  0  0  0  0  3  0  0  0  0  0  0
  -22.0430   -4.8420   22.5780 C   0  0  0  0  0  0  0  0  0  0  0  0
  -22.5200   -4.2800   21.4410 F   0  0  0  0  0  0  0  0  0  0  0  0
  -21.2310   -3.8690   26.0190 F   0  0  0  0  0  0  0  0  0  0  0  0
  -22.8040  -13.5490   21.1340 C   0  0  0  0  0  0  0  0  0  0  0  0
  -22.0870  -12.8520   22.0080 N   0  0  0  0  0  0  0  0  0  0  0  0
  -22.3530  -14.5700   20.6140 O   0  0  0  0  0  0  0  0  0  0  0  0
  -22.4660  -12.0300   22.4550 H   0  0  0  0  0  0  0  0  0  0  0  0
  -21.1510  -13.1480   22.2380 H   0  0  0  0  0  0  0  0  0  0  0  0
  -25.3670  -15.2550   20.3200 N   0  0  0  0  0  0  0  0  0  0  0  0
  -24.5830  -15.8800   20.4780 H   0  0  0  0  0  0  0  0  0  0  0  0
  -26.2010  -15.7340   20.0120 H   0  0  0  0  0  0  0  0  0  0  0  0
  -27.9290  -23.7990   20.3370 C   0  0  0  0  0  2  0  0  0  0  0  0
  -28.1840  -25.5420   20.2430 O   0  0  0  0  0  0  0  0  0  0  0  0
  -24.6360  -31.8400   23.1220 C   0  0  0  0  0  0  0  0  0  0  0  0
  -27.2090  -26.7520   20.1990 C   0  0  0  0  0  0  0  0  0  0  0  0
  -23.4680  -30.4310   21.4810 C   0  0  0  0  0  3  0  0  0  0  0  0
  -24.9370  -28.7780   20.0960 C   0  0  0  0  0  0  0  0  0  0  0  0
  -26.0490  -30.5830   21.3830 C   0  0  0  0  0  2  0  0  0  0  0  0
  -26.1250  -29.1430   20.7390 C   0  0  0  0  0  0  0  0  0  0  0  0
  -27.2480  -28.1600   20.7570 C   0  0  0  0  0  3  0  0  0  0  0  0
  -25.9850  -26.5960   19.5010 C   0  0  0  0  0  3  0  0  0  0  0  0
  -24.9050  -27.5290   19.4500 C   0  0  0  0  0  3  0  0  0  0  0  0
  -23.7290  -29.7300   20.1150 C   0  0  0  0  0  2  0  0  0  0  0  0
  -24.7420  -30.9840   22.0490 N   0  0  0  0  0  0  0  0  0  0  0  0
  -23.5380  -32.1370   23.6220 O   0  0  0  0  0  0  0  0  0  0  0  0
  -22.7460  -29.4570   22.4520 C   0  0  0  0  0  0  0  0  0  0  0  0
  -21.4090  -29.3190   22.3390 N   0  0  0  0  0  0  0  0  0  0  0  0
  -23.4000  -28.8230   23.2830 O   0  0  0  0  0  0  0  0  0  0  0  0
  -20.9260  -29.8870   21.6570 H   0  0  0  0  0  0  0  0  0  0  0  0
  -18.0080  -28.1630   22.9000 C   0  0  0  0  0  0  0  0  0  0  0  0
  -20.5790  -28.3850   23.1120 C   0  0  0  0  0  3  0  0  0  0  0  0
  -20.6430  -26.9580   22.5180 C   0  0  0  0  0  2  0  0  0  0  0  0
  -19.5160  -26.6670   21.5200 C   0  0  0  0  0  2  0  0  0  0  0  0
  -18.1500  -26.8230   22.1960 C   0  0  0  0  0  2  0  0  0  0  0  0
  -19.1480  -28.9010   23.3170 C   0  0  0  0  0  0  0  0  0  0  0  0
  -18.9590  -30.1550   23.9420 C   0  0  0  0  0  3  0  0  0  0  0  0
  -17.6640  -30.6680   24.1480 C   0  0  0  0  0  3  0  0  0  0  0  0
  -16.5400  -29.9270   23.7420 C   0  0  0  0  0  3  0  0  0  0  0  0
  -16.7140  -28.6750   23.1250 C   0  0  0  0  0  3  0  0  0  0  0  0
  -25.8900  -32.5010   23.7700 C   0  0  0  0  0  3  0  0  0  0  0  0
  -25.5520  -33.8970   24.1150 N   0  0  0  0  0  0  0  0  0  0  0  0
  -25.8690  -34.9730   23.3830 C   0  0  0  0  0  0  0  0  0  0  0  0
  -26.5320  -34.8950   22.3450 O   0  0  0  0  0  0  0  0  0  0  0  0
  -24.9630  -34.0310   24.9250 H   0  0  0  0  0  0  0  0  0  0  0  0
  -24.1240  -36.7660   23.0850 C   0  0  0  0  0  1  0  0  0  0  0  0
  -25.3780  -36.3520   23.8730 C   0  0  0  0  0  3  0  0  0  0  0  0
  -27.5110  -37.2520   24.6970 C   0  0  0  0  0  1  0  0  0  0  0  0
  -26.3990  -37.4180   23.7650 N   0  0  0  0  0  0  0  0  0  0  0  0
  -25.9850  -38.3340   23.9220 H   0  0  0  0  0  0  0  0  0  0  0  0
  -26.3940  -31.7380   25.0580 C   0  0  1  0  0  0  0  0  0  0  0  0
  -25.2930  -31.5120   26.1220 C   0  0  0  0  0  1  0  0  0  0  0  0
  -26.9760  -30.3540   24.6940 C   0  0  0  0  0  1  0  0  0  0  0  0
  -27.5420  -32.5340   25.7220 C   0  0  0  0  0  1  0  0  0  0  0  0
  1 45  1  0
  2  1  2  0
  3 16  1  0
  4  9  1  0
  5  6  1  0
  5  4  1  0
  7  6  1  0
  7 20  1  0
  7  8  1  0
  9  3  1  0
  9  8  1  0
 10  3  2  0
 12 11  1  0
 12 15  1  0
 13 16  1  0
 13 11  1  0
 14 15  1  0
 15  1  1  0
 16 14  1  0
 17 18  2  0
 18 37  1  0
 19 18  1  0
 19 22  1  0
 20 21  1  0
 20 17  1  0
 21 19  2  0
 22 23  1  0
 23 24  2  0
 25 28  1  0
 25 24  1  0
 26 25  2  0
 27 26  1  0
 27 22  2  0
 28 29  1  0
 29 30  1  0
 30 31  2  0
 32 31  1  0
 32 36  1  0
 33 32  2  0
 34 29  2  0
 34 33  1  0
 35 34  1  0
 37 38  1  0
 38 41  1  0
 38 40  1  0
 39 37  2  0
 42 43  1  0
 42 17  1  0
 44 42  1  0
 46 45  1  0
 47 58  2  0
 48 46  1  0
 48 53  1  0
 49 57  1  0
 49 59  1  0
 50 56  1  0
 50 52  1  0
 51 57  1  0
 52 53  2  0
 52 51  1  0
 54 48  2  0
 55 54  1  0
 55 50  2  0
 56 49  1  0
 57 47  1  0
 59 61  2  0
 60 59  1  0
 62 60  1  0
 63 72  2  0
 63 68  1  0
 64 60  1  0
 64 68  1  0
 65 64  1  0
 66 67  1  0
 66 65  1  0
 67 63  1  0
 68 69  2  0
 69 70  1  0
 71 70  2  0
 72 71  1  0
 73 47  1  0
 73 74  1  0
 73 83  1  0
 74 77  1  0
 75 79  1  0
 75 74  1  0
 76 75  2  0
 79 78  1  0
 81 79  1  0
 81 82  1  0
 81 80  1  0
 83 86  1  1
 83 84  1  0
 85 83  1  0
M  ISO  4   3 100  16 100  45 101  46 101
M  END
>  <TORSDO>  (27) 
F 17

>  <SCORE>  (27) 
-16.529

>  <name>  (27) 
26

>  <ligand_id>  (27) 
26

>  <original_smiles>  (27) 
[H]c1c([H])c([H])c2c(c1[H])C([H])([H])C([H])([H])C([H])([H])C2([H])N([H])C(=O)C1([H])N(C(=O)C([H])(N([H])C(=O)C([H])(N([H])C([H])([H])[H])C([H])([H])[H])C(C([H])([H])[H])(C([H])([H])[H])C([H])([H])[H])C([H])([H])c2c([H])c(OC([H])([H])C(=O)C3([H])C([H])([H])N(C(=O)N4C([H])([H])C([H])([H])C([H])([H])C([H])(n5nc(-c6c([H])c([H])c(Oc7c([H])c([H])c(F)c([H])c7F)c([H])c6[H])c(C(=O)N([H])[H])c5N([H])[H])C4([H])[H])C([H])([H])C([H])([H])C3([H])[H])c([H])c([H])c2C1([H])[H]

>  <smiles>  (27) 
[H]c1c([H])c([H])c2c(c1[H])C([H])([H])C([H])([H])C([H])([H])C2([H])N([H])C(=O)C1([H])N(C(=O)C([H])(N([H])C(=O)C([H])(N([H])C([H])([H])[H])C([H])([H])[H])C(C([H])([H])[H])(C([H])([H])[H])C([H])([H])[H])C([H])([H])c2c([H])c(OC([H])([H])C(=O)C3([H])C([H])([H])N(C(=O)N4C([H])([H])C([H])([H])C([H])([H])C([H])(n5nc(-c6c([H])c([H])c(Oc7c([H])c([H])c(F)c([H])c7F)c([H])c6[H])c(C(=O)N([H])[H])c5N([H])[H])C4([H])[H])C([H])([H])C([H])([H])C3([H])[H])c([H])c([H])c2C1([H])[H]

$$$$
27:0:0
     RDKit          3D

 87 95  0  0  1  0  0  0  0  0999 V2000
  -29.4230  -19.4230   20.3270 C   0  0  0  0  0  3  0  0  0  0  0  0
  -28.6870  -20.3450   19.2810 C   0  0  0  0  0  2  0  0  0  0  0  0
  -28.5720  -21.4610   20.4180 C   0  0  0  0  0  3  0  0  0  0  0  0
  -29.5210  -20.3880   21.1700 N   0  0  0  0  0  2  0  0  0  0  0  0
  -30.8940  -18.0010   18.7780 C   0  0  0  0  0  1  0  0  0  0  0  0
  -30.2100  -17.9280   20.1560 C   0  0  0  0  0  0  0  0  0  0  0  0
  -30.4780  -15.1360   20.2740 C   0  0  0  0  0  0  0  0  0  0  0  0
  -30.3520  -12.7610   19.3380 C   0  0  0  0  0  2  0  0  0  0  0  0
  -29.4150  -12.6730   18.1110 C   0  0  0  0  0  2  0  0  0  0  0  0
  -27.9610  -12.4400   18.5580 C   0  0  0  0  0  2  0  0  0  0  0  0
  -27.5510  -13.3650   19.7330 C   0  0  0  0  0  3  0  0  0  0  0  0
  -28.6160  -13.4280   20.8480 C   0  0  0  0  0  2  0  0  0  0  0  0
  -29.8630  -13.8740   20.2150 N   0  0  0  0  0  0  0  0  0  0  0  0
  -31.6900  -15.1320   20.0280 O   0  0  0  0  0  0  0  0  0  0  0  0
  -29.7560  -16.3910   20.3810 N   0  0  0  0  0  4  0  0  0  0  0  0
  -28.7710  -16.2750   20.5650 H   0  0  0  0  0  0  0  0  0  0  0  0
  -25.1810  -13.9180   20.5080 C   0  0  0  0  0  0  0  0  0  0  0  0
  -24.1260  -13.1340   20.8830 C   0  0  0  0  0  0  0  0  0  0  0  0
  -24.5980  -11.7870   20.8400 C   0  0  0  0  0  0  0  0  0  0  0  0
  -26.2250  -13.0480   20.2500 N   0  0  0  0  0  0  0  0  0  0  0  0
  -25.8870  -11.7600   20.5170 N   0  0  0  0  0  0  0  0  0  0  0  0
  -23.8790  -10.5190   21.0270 C   0  0  0  0  0  0  0  0  0  0  0  0
  -24.3120   -9.5530   21.9620 C   0  0  0  0  0  3  0  0  0  0  0  0
  -23.5900   -8.3530   22.1380 C   0  0  0  0  0  3  0  0  0  0  0  0
  -22.4200   -8.1090   21.3780 C   0  0  0  0  0  0  0  0  0  0  0  0
  -22.0060   -9.0650   20.4330 C   0  0  0  0  0  3  0  0  0  0  0  0
  -22.7290  -10.2560   20.2550 C   0  0  0  0  0  3  0  0  0  0  0  0
  -21.6690   -6.9620   21.4640 O   0  0  0  0  0  0  0  0  0  0  0  0
  -21.6050   -6.2290   22.6220 C   0  0  0  0  0  0  0  0  0  0  0  0
  -21.1300   -6.7840   23.8300 C   0  0  0  0  0  3  0  0  0  0  0  0
  -21.0150   -5.9760   24.9790 C   0  0  0  0  0  3  0  0  0  0  0  0
  -21.3650   -4.6140   24.9200 C   0  0  0  0  0  0  0  0  0  0  0  0
  -21.8320   -4.0580   23.7160 C   0  0  0  0  0  3  0  0  0  0  0  0
  -21.9480   -4.8630   22.5700 C   0  0  0  0  0  0  0  0  0  0  0  0
  -22.3790   -4.3170   21.4070 F   0  0  0  0  0  0  0  0  0  0  0  0
  -21.2470   -3.8350   26.0210 F   0  0  0  0  0  0  0  0  0  0  0  0
  -22.7280  -13.6030   21.1650 C   0  0  0  0  0  0  0  0  0  0  0  0
  -22.0090  -12.9010   22.0330 N   0  0  0  0  0  0  0  0  0  0  0  0
  -22.2830  -14.6280   20.6500 O   0  0  0  0  0  0  0  0  0  0  0  0
  -22.3830  -12.0720   22.4710 H   0  0  0  0  0  0  0  0  0  0  0  0
  -21.0720  -13.1980   22.2640 H   0  0  0  0  0  0  0  0  0  0  0  0
  -25.3320  -15.2900   20.3350 N   0  0  0  0  0  0  0  0  0  0  0  0
  -24.5580  -15.9340   20.4530 H   0  0  0  0  0  0  0  0  0  0  0  0
  -26.1620  -15.7350   19.9650 H   0  0  0  0  0  0  0  0  0  0  0  0
  -28.9750  -23.1500   20.3640 C   0  0  0  0  0  3  0  0  0  0  0  0
  -27.9280  -24.5210   20.1720 C   0  0  0  0  0  3  0  0  0  0  0  0
  -28.2090  -26.0910   20.2770 O   0  0  0  0  0  0  0  0  0  0  0  0
  -24.6310  -31.9080   23.2470 C   0  0  0  0  0  0  0  0  0  0  0  0
  -27.1740  -27.1220   20.2170 C   0  0  0  0  0  0  0  0  0  0  0  0
  -23.4250  -30.5180   21.6080 C   0  0  0  0  0  3  0  0  0  0  0  0
  -24.8650  -28.9300   20.1810 C   0  0  0  0  0  0  0  0  0  0  0  0
  -25.9850  -30.7540   21.4460 C   0  0  0  0  0  2  0  0  0  0  0  0
  -26.0510  -29.3550   20.7910 C   0  0  0  0  0  0  0  0  0  0  0  0
  -27.2050  -28.4710   20.7860 C   0  0  0  0  0  3  0  0  0  0  0  0
  -25.9590  -26.8170   19.5660 C   0  0  0  0  0  3  0  0  0  0  0  0
  -24.8370  -27.6770   19.5480 C   0  0  0  0  0  3  0  0  0  0  0  0
  -23.6450  -29.8400   20.2290 C   0  0  0  0  0  2  0  0  0  0  0  0
  -24.7010  -31.0840   22.1540 N   0  0  0  0  0  0  0  0  0  0  0  0
  -23.5450  -32.1980   23.7740 O   0  0  0  0  0  0  0  0  0  0  0  0
  -22.7390  -29.5170   22.5720 C   0  0  0  0  0  0  0  0  0  0  0  0
  -21.4100  -29.3490   22.4440 N   0  0  0  0  0  0  0  0  0  0  0  0
  -23.4060  -28.8920   23.4000 O   0  0  0  0  0  0  0  0  0  0  0  0
  -20.9270  -29.9050   21.7520 H   0  0  0  0  0  0  0  0  0  0  0  0
  -18.0250  -28.1550   22.9500 C   0  0  0  0  0  0  0  0  0  0  0  0
  -20.5850  -28.4140   23.2160 C   0  0  0  0  0  3  0  0  0  0  0  0
  -20.6840  -26.9820   22.6410 C   0  0  0  0  0  2  0  0  0  0  0  0
  -19.5800  -26.6610   21.6270 C   0  0  0  0  0  2  0  0  0  0  0  0
  -18.1990  -26.8070   22.2720 C   0  0  0  0  0  2  0  0  0  0  0  0
  -19.1450  -28.9170   23.3790 C   0  0  0  0  0  0  0  0  0  0  0  0
  -18.9260  -30.1770   23.9760 C   0  0  0  0  0  3  0  0  0  0  0  0
  -17.6210  -30.6770   24.1470 C   0  0  0  0  0  3  0  0  0  0  0  0
  -16.5160  -29.9130   23.7330 C   0  0  0  0  0  3  0  0  0  0  0  0
  -16.7190  -28.6540   23.1400 C   0  0  0  0  0  3  0  0  0  0  0  0
  -25.9100  -32.5410   23.8740 C   0  0  0  0  0  3  0  0  0  0  0  0
  -26.4140  -31.7730   25.1590 C   0  0  1  0  0  0  0  0  0  0  0  0
  -25.3130  -31.5450   26.2210 C   0  0  0  0  0  1  0  0  0  0  0  0
  -26.9950  -30.3910   24.7820 C   0  0  0  0  0  1  0  0  0  0  0  0
  -27.5630  -32.5660   25.8240 C   0  0  0  0  0  1  0  0  0  0  0  0
  -25.6010  -33.9420   24.2070 N   0  0  0  0  0  0  0  0  0  0  0  0
  -25.9230  -34.9970   23.4470 C   0  0  0  0  0  0  0  0  0  0  0  0
  -26.5730  -34.8950   22.4040 O   0  0  0  0  0  0  0  0  0  0  0  0
  -25.0210  -34.0950   25.0180 H   0  0  0  0  0  0  0  0  0  0  0  0
  -24.1840  -36.7940   23.1410 C   0  0  0  0  0  1  0  0  0  0  0  0
  -25.4480  -36.3880   23.9170 C   0  0  0  0  0  3  0  0  0  0  0  0
  -27.6000  -37.2820   24.6910 C   0  0  0  0  0  1  0  0  0  0  0  0
  -26.4770  -37.4420   23.7730 N   0  0  0  0  0  0  0  0  0  0  0  0
  -26.0730  -38.3620   23.9240 H   0  0  0  0  0  0  0  0  0  0  0  0
  1  6  1  0
  1  4  1  0
  2  1  1  0
  2  3  1  0
  3 45  1  0
  3  4  1  0
  5  6  1  0
  6 15  2  0
  7 15  1  0
  8 13  1  0
  9 10  1  0
  9  8  1  0
 11 10  1  0
 11 20  1  0
 11 12  1  0
 13  7  1  0
 13 12  1  0
 14  7  2  0
 15 16  1  0
 17 18  2  0
 18 37  1  0
 19 18  1  0
 19 22  1  0
 20 17  1  0
 20 21  1  0
 21 19  2  0
 22 23  1  0
 23 24  2  0
 25 28  1  0
 25 24  1  0
 26 25  2  0
 27 26  1  0
 27 22  2  0
 28 29  1  0
 29 30  1  0
 30 31  2  0
 32 31  1  0
 32 36  1  0
 33 32  2  0
 34 29  2  0
 34 33  1  0
 35 34  1  0
 37 38  1  0
 38 41  1  0
 38 40  1  0
 39 37  2  0
 42 43  1  0
 42 17  1  0
 44 42  1  0
 46 47  1  0
 46 45  2  0
 48 59  2  0
 49 47  1  0
 49 54  1  0
 50 58  1  0
 50 60  1  0
 51 57  1  0
 51 53  1  0
 52 58  1  0
 53 52  1  0
 54 53  2  0
 55 49  2  0
 56 55  1  0
 56 51  2  0
 57 50  1  0
 58 48  1  0
 60 62  2  0
 61 60  1  0
 63 61  1  0
 64 73  2  0
 64 69  1  0
 65 61  1  0
 65 69  1  0
 66 65  1  0
 67 68  1  0
 67 66  1  0
 68 64  1  0
 69 70  2  0
 70 71  1  0
 72 71  2  0
 73 72  1  0
 74 48  1  0
 74 79  1  0
 74 75  1  0
 75 78  1  1
 75 76  1  0
 77 75  1  0
 79 82  1  0
 80 84  1  0
 80 79  1  0
 81 80  2  0
 84 83  1  0
 86 84  1  0
 86 87  1  0
 86 85  1  0
M  ISO  4   7 100  15 100  46 101  47 101
M  END
>  <TORSDO>  (28) 
F 19

>  <SCORE>  (28) 
-15.667

>  <name>  (28) 
27

>  <ligand_id>  (28) 
27

>  <original_smiles>  (28) 
[H]c1c([H])c([H])c2c(c1[H])C([H])([H])C([H])([H])C([H])([H])C2([H])N([H])C(=O)C1([H])N(C(=O)C([H])(N([H])C(=O)C([H])(N([H])C([H])([H])[H])C([H])([H])[H])C(C([H])([H])[H])(C([H])([H])[H])C([H])([H])[H])C([H])([H])c2c([H])c(OC([H])([H])C([H])([H])C3([H])N=C(C([H])(N([H])C(=O)N4C([H])([H])C([H])([H])C([H])([H])C([H])(n5nc(-c6c([H])c([H])c(Oc7c([H])c([H])c(F)c([H])c7F)c([H])c6[H])c(C(=O)N([H])[H])c5N([H])[H])C4([H])[H])C([H])([H])[H])C3([H])[H])c([H])c([H])c2C1([H])[H]

>  <smiles>  (28) 
[H]c1c([H])c([H])c2c(c1[H])C([H])([H])C([H])([H])C([H])([H])C2([H])N([H])C(=O)C1([H])N(C(=O)C([H])(N([H])C(=O)C([H])(N([H])C([H])([H])[H])C([H])([H])[H])C(C([H])([H])[H])(C([H])([H])[H])C([H])([H])[H])C([H])([H])c2c([H])c(OC([H])([H])C([H])([H])C3([H])N=C(C([H])(N([H])C(=O)N4C([H])([H])C([H])([H])C([H])([H])C([H])(n5nc(-c6c([H])c([H])c(Oc7c([H])c([H])c(F)c([H])c7F)c([H])c6[H])c(C(=O)N([H])[H])c5N([H])[H])C4([H])[H])C([H])([H])[H])C3([H])[H])c([H])c([H])c2C1([H])[H]

$$$$
28:0:0
     RDKit          3D

 91 99  0  0  1  0  0  0  0  0999 V2000
  -28.8400  -22.6140   21.3340 C   0  0  0  0  0  2  0  0  0  0  0  0
  -28.8840  -21.7110   19.1260 C   0  0  0  0  0  2  0  0  0  0  0  0
  -29.4830  -21.4230   20.5040 C   0  0  0  0  0  3  0  0  0  0  0  0
  -28.2610  -23.7560   20.3910 C   0  0  0  0  0  3  0  0  0  0  0  0
  -28.7690  -23.2750   19.0000 C   0  0  1  0  0  0  0  0  0  0  0  0
  -30.1330  -23.9100   18.6590 C   0  0  0  0  0  1  0  0  0  0  0  0
  -27.7710  -23.6150   17.8780 C   0  0  0  0  0  1  0  0  0  0  0  0
  -30.4720  -19.9520   22.3060 C   0  0  0  0  0  1  0  0  0  0  0  0
  -29.4640  -19.9300   21.1410 C   0  0  0  0  0  3  0  0  0  0  0  0
  -29.6960  -18.5850   20.2640 C   0  0  0  0  0  2  0  0  0  0  0  0
  -30.1740  -17.2320   21.0120 C   0  0  0  0  0  2  0  0  0  0  0  0
  -30.6480  -14.7620   20.1890 C   0  0  0  0  0  0  0  0  0  0  0  0
  -30.4200  -12.5290   19.0880 C   0  0  0  0  0  2  0  0  0  0  0  0
  -29.4330  -12.6400   17.9050 C   0  0  0  0  0  2  0  0  0  0  0  0
  -27.9750  -12.4720   18.3810 C   0  0  0  0  0  2  0  0  0  0  0  0
  -27.6510  -13.3350   19.6310 C   0  0  0  0  0  3  0  0  0  0  0  0
  -28.7430  -13.1830   20.7110 C   0  0  0  0  0  2  0  0  0  0  0  0
  -30.0230  -13.5450   20.0850 N   0  0  0  0  0  0  0  0  0  0  0  0
  -31.8290  -14.9010   19.8580 O   0  0  0  0  0  0  0  0  0  0  0  0
  -29.8480  -15.8430   20.4960 N   0  0  0  0  0  0  0  0  0  0  0  0
  -28.8790  -15.5850   20.6020 H   0  0  0  0  0  0  0  0  0  0  0  0
  -25.2830  -13.9350   20.4200 C   0  0  0  0  0  0  0  0  0  0  0  0
  -24.2260  -13.1640   20.8170 C   0  0  0  0  0  0  0  0  0  0  0  0
  -24.6860  -11.8110   20.7730 C   0  0  0  0  0  0  0  0  0  0  0  0
  -26.3190  -13.0530   20.1550 N   0  0  0  0  0  0  0  0  0  0  0  0
  -25.9670  -11.7710   20.4300 N   0  0  0  0  0  0  0  0  0  0  0  0
  -23.9620  -10.5510   20.9800 C   0  0  0  0  0  0  0  0  0  0  0  0
  -24.4110   -9.5850   21.9080 C   0  0  0  0  0  3  0  0  0  0  0  0
  -23.6880   -8.3880   22.1010 C   0  0  0  0  0  3  0  0  0  0  0  0
  -22.5010   -8.1500   21.3680 C   0  0  0  0  0  0  0  0  0  0  0  0
  -22.0720   -9.1040   20.4290 C   0  0  0  0  0  3  0  0  0  0  0  0
  -22.7960  -10.2920   20.2330 C   0  0  0  0  0  3  0  0  0  0  0  0
  -21.7470   -7.0060   21.4710 O   0  0  0  0  0  0  0  0  0  0  0  0
  -21.7130   -6.2690   22.6290 C   0  0  0  0  0  0  0  0  0  0  0  0
  -21.3080   -6.8330   23.8580 C   0  0  0  0  0  3  0  0  0  0  0  0
  -21.2210   -6.0240   25.0080 C   0  0  0  0  0  3  0  0  0  0  0  0
  -21.5280   -4.6520   24.9300 C   0  0  0  0  0  0  0  0  0  0  0  0
  -21.9250   -4.0870   23.7060 C   0  0  0  0  0  3  0  0  0  0  0  0
  -22.0150   -4.8940   22.5570 C   0  0  0  0  0  0  0  0  0  0  0  0
  -22.3780   -4.3410   21.3750 F   0  0  0  0  0  0  0  0  0  0  0  0
  -21.4350   -3.8730   26.0340 F   0  0  0  0  0  0  0  0  0  0  0  0
  -22.8370  -13.6440   21.1250 C   0  0  0  0  0  0  0  0  0  0  0  0
  -22.1310  -12.9480   22.0080 N   0  0  0  0  0  0  0  0  0  0  0  0
  -22.3880  -14.6710   20.6170 O   0  0  0  0  0  0  0  0  0  0  0  0
  -22.5060  -12.1150   22.4380 H   0  0  0  0  0  0  0  0  0  0  0  0
  -21.2010  -13.2520   22.2610 H   0  0  0  0  0  0  0  0  0  0  0  0
  -25.4440  -15.3060   20.2370 N   0  0  0  0  0  0  0  0  0  0  0  0
  -24.6760  -15.9570   20.3640 H   0  0  0  0  0  0  0  0  0  0  0  0
  -26.2710  -15.7450   19.8530 H   0  0  0  0  0  0  0  0  0  0  0  0
  -28.4800  -25.2800   20.9030 C   0  0  0  0  0  2  0  0  0  0  0  0
  -28.3400  -26.5250   20.1050 O   0  0  0  0  0  0  0  0  0  0  0  0
  -24.5970  -31.9170   23.2370 C   0  0  0  0  0  0  0  0  0  0  0  0
  -27.2030  -27.3410   20.1980 C   0  0  0  0  0  0  0  0  0  0  0  0
  -23.3900  -30.5150   21.6000 C   0  0  0  0  0  3  0  0  0  0  0  0
  -24.8390  -28.9500   20.1830 C   0  0  0  0  0  0  0  0  0  0  0  0
  -25.9260  -30.8310   21.4090 C   0  0  0  0  0  2  0  0  0  0  0  0
  -26.0070  -29.4430   20.7770 C   0  0  0  0  0  0  0  0  0  0  0  0
  -27.1960  -28.6510   20.7740 C   0  0  0  0  0  3  0  0  0  0  0  0
  -26.0140  -26.8930   19.5910 C   0  0  0  0  0  3  0  0  0  0  0  0
  -24.8430  -27.6790   19.5840 C   0  0  0  0  0  3  0  0  0  0  0  0
  -23.6020  -29.8300   20.2240 C   0  0  0  0  0  2  0  0  0  0  0  0
  -24.6570  -31.1070   22.1370 N   0  0  0  0  0  0  0  0  0  0  0  0
  -23.5150  -32.1960   23.7740 O   0  0  0  0  0  0  0  0  0  0  0  0
  -22.7290  -29.5020   22.5650 C   0  0  0  0  0  0  0  0  0  0  0  0
  -21.4040  -29.3190   22.4360 N   0  0  0  0  0  0  0  0  0  0  0  0
  -23.4080  -28.8810   23.3860 O   0  0  0  0  0  0  0  0  0  0  0  0
  -20.9140  -29.8720   21.7460 H   0  0  0  0  0  0  0  0  0  0  0  0
  -18.0320  -28.1050   22.9270 C   0  0  0  0  0  0  0  0  0  0  0  0
  -20.5870  -28.3810   23.2090 C   0  0  0  0  0  3  0  0  0  0  0  0
  -20.7000  -26.9460   22.6450 C   0  0  0  0  0  2  0  0  0  0  0  0
  -19.6050  -26.6120   21.6260 C   0  0  0  0  0  2  0  0  0  0  0  0
  -18.2180  -26.7530   22.2590 C   0  0  0  0  0  2  0  0  0  0  0  0
  -19.1440  -28.8770   23.3580 C   0  0  0  0  0  0  0  0  0  0  0  0
  -18.9130  -30.1430   23.9410 C   0  0  0  0  0  3  0  0  0  0  0  0
  -17.6050  -30.6350   24.0980 C   0  0  0  0  0  3  0  0  0  0  0  0
  -16.5080  -29.8620   23.6820 C   0  0  0  0  0  3  0  0  0  0  0  0
  -16.7220  -28.5990   23.1010 C   0  0  0  0  0  3  0  0  0  0  0  0
  -25.8810  -32.5470   23.8570 C   0  0  0  0  0  3  0  0  0  0  0  0
  -26.3960  -31.7770   25.1350 C   0  0  1  0  0  0  0  0  0  0  0  0
  -25.3030  -31.5440   26.2040 C   0  0  0  0  0  1  0  0  0  0  0  0
  -26.9760  -30.3970   24.7450 C   0  0  0  0  0  1  0  0  0  0  0  0
  -27.5500  -32.5690   25.7920 C   0  0  0  0  0  1  0  0  0  0  0  0
  -25.5730  -33.9470   24.1870 N   0  0  0  0  0  0  0  0  0  0  0  0
  -25.9090  -34.9990   23.4270 C   0  0  0  0  0  0  0  0  0  0  0  0
  -26.5780  -34.8920   22.3970 O   0  0  0  0  0  0  0  0  0  0  0  0
  -24.9760  -34.1050   24.9850 H   0  0  0  0  0  0  0  0  0  0  0  0
  -24.1860  -36.7990   23.0690 C   0  0  0  0  0  1  0  0  0  0  0  0
  -25.4240  -36.3890   23.8820 C   0  0  0  0  0  3  0  0  0  0  0  0
  -27.5590  -37.2670   24.7160 C   0  0  0  0  0  1  0  0  0  0  0  0
  -26.4600  -37.4390   23.7700 N   0  0  0  0  0  0  0  0  0  0  0  0
  -26.0550  -38.3600   23.9180 H   0  0  0  0  0  0  0  0  0  0  0  0
  2  3  1  0
  3  9  1  0
  3  1  1  0
  4 50  1  0
  4  1  1  0
  5  2  1  0
  5  4  1  0
  5  6  1  6
  7  5  1  0
  9  8  1  0
 10 11  1  0
 10  9  1  0
 12 20  1  0
 13 18  1  0
 14 15  1  0
 14 13  1  0
 16 15  1  0
 16 25  1  0
 16 17  1  0
 18 12  1  0
 18 17  1  0
 19 12  2  0
 20 21  1  0
 20 11  1  0
 22 23  2  0
 23 42  1  0
 24 23  1  0
 24 27  1  0
 25 22  1  0
 25 26  1  0
 26 24  2  0
 27 28  1  0
 28 29  2  0
 30 33  1  0
 30 29  1  0
 31 30  2  0
 32 31  1  0
 32 27  2  0
 33 34  1  0
 34 35  1  0
 35 36  2  0
 37 36  1  0
 37 41  1  0
 38 37  2  0
 39 34  2  0
 39 38  1  0
 40 39  1  0
 42 43  1  0
 43 46  1  0
 43 45  1  0
 44 42  2  0
 47 48  1  0
 47 22  1  0
 49 47  1  0
 51 53  1  0
 51 50  1  0
 52 63  2  0
 53 58  1  0
 54 62  1  0
 54 64  1  0
 55 61  1  0
 55 57  1  0
 56 62  1  0
 57 56  1  0
 58 57  2  0
 59 53  2  0
 60 59  1  0
 60 55  2  0
 61 54  1  0
 62 52  1  0
 64 66  2  0
 65 64  1  0
 67 65  1  0
 68 77  2  0
 68 73  1  0
 69 65  1  0
 69 73  1  0
 70 69  1  0
 71 72  1  0
 71 70  1  0
 72 68  1  0
 73 74  2  0
 74 75  1  0
 76 75  2  0
 77 76  1  0
 78 52  1  0
 78 83  1  0
 78 79  1  0
 79 82  1  1
 79 80  1  0
 81 79  1  0
 83 86  1  0
 84 88  1  0
 84 83  1  0
 85 84  2  0
 88 87  1  0
 90 88  1  0
 90 91  1  0
 90 89  1  0
M  ISO  4  12 100  20 100  50 101  51 101
M  END
>  <TORSDO>  (29) 
F 20

>  <SCORE>  (29) 
-13.649

>  <name>  (29) 
28

>  <ligand_id>  (29) 
28

>  <original_smiles>  (29) 
[H]c1c([H])c([H])c2c(c1[H])C([H])([H])C([H])([H])C([H])([H])C2([H])N([H])C(=O)C1([H])N(C(=O)C([H])(N([H])C(=O)C([H])(N([H])C([H])([H])[H])C([H])([H])[H])C(C([H])([H])[H])(C([H])([H])[H])C([H])([H])[H])C([H])([H])c2c([H])c(OC([H])([H])C3([H])C([H])([H])C([H])(C([H])(C([H])([H])[H])C([H])([H])C([H])([H])N([H])C(=O)N4C([H])([H])C([H])([H])C([H])([H])C([H])(n5nc(-c6c([H])c([H])c(Oc7c([H])c([H])c(F)c([H])c7F)c([H])c6[H])c(C(=O)N([H])[H])c5N([H])[H])C4([H])[H])C([H])([H])C3(C([H])([H])[H])C([H])([H])[H])c([H])c([H])c2C1([H])[H]

>  <smiles>  (29) 
[H]c1c([H])c([H])c2c(c1[H])C([H])([H])C([H])([H])C([H])([H])C2([H])N([H])C(=O)C1([H])N(C(=O)C([H])(N([H])C(=O)C([H])(N([H])C([H])([H])[H])C([H])([H])[H])C(C([H])([H])[H])(C([H])([H])[H])C([H])([H])[H])C([H])([H])c2c([H])c(OC([H])([H])C3([H])C([H])([H])C([H])(C([H])(C([H])([H])[H])C([H])([H])C([H])([H])N([H])C(=O)N4C([H])([H])C([H])([H])C([H])([H])C([H])(n5nc(-c6c([H])c([H])c(Oc7c([H])c([H])c(F)c([H])c7F)c([H])c6[H])c(C(=O)N([H])[H])c5N([H])[H])C4([H])[H])C([H])([H])C3(C([H])([H])[H])C([H])([H])[H])c([H])c([H])c2C1([H])[H]

$$$$
29:0:0
     RDKit          3D

 86 94  0  0  1  0  0  0  0  0999 V2000
  -29.0570  -22.9050   20.3800 C   0  0  0  0  0  3  0  0  0  0  0  0
  -29.4070  -20.0620   20.7890 C   0  0  0  0  0  0  0  0  0  0  0  0
  -29.1180  -19.1260   18.6910 C   0  0  0  0  0  2  0  0  0  0  0  0
  -29.0250  -20.7210   18.6930 C   0  0  0  0  0  2  0  0  0  0  0  0
  -29.8030  -18.6250   19.9880 C   0  0  0  0  0  3  0  0  0  0  0  0
  -29.0070  -21.2560   20.0700 N   0  0  0  0  0  0  0  0  0  0  0  0
  -29.5380  -20.0900   22.0140 O   0  0  0  0  0  0  0  0  0  0  0  0
  -29.6790  -16.8880   20.4660 C   0  0  0  0  0  2  0  0  0  0  0  0
  -30.4970  -15.3880   20.0600 C   0  0  0  0  0  0  0  0  0  0  0  0
  -30.4510  -12.9680   19.1030 C   0  0  0  0  0  2  0  0  0  0  0  0
  -29.4650  -12.8380   17.9130 C   0  0  0  0  0  2  0  0  0  0  0  0
  -28.0330  -12.5600   18.4100 C   0  0  0  0  0  2  0  0  0  0  0  0
  -27.6520  -13.4720   19.6010 C   0  0  0  0  0  3  0  0  0  0  0  0
  -28.7570  -13.5520   20.6760 C   0  0  0  0  0  2  0  0  0  0  0  0
  -29.9700  -14.0640   20.0190 N   0  0  0  0  0  0  0  0  0  0  0  0
  -31.6810  -15.4240   19.6910 O   0  0  0  0  0  0  0  0  0  0  0  0
  -25.3230  -14.0080   20.4930 C   0  0  0  0  0  0  0  0  0  0  0  0
  -24.2800  -13.2200   20.8930 C   0  0  0  0  0  0  0  0  0  0  0  0
  -24.7430  -11.8720   20.7970 C   0  0  0  0  0  0  0  0  0  0  0  0
  -26.3500  -13.1410   20.1670 N   0  0  0  0  0  0  0  0  0  0  0  0
  -26.0170  -11.8470   20.4170 N   0  0  0  0  0  0  0  0  0  0  0  0
  -24.0230  -10.6040   20.9850 C   0  0  0  0  0  0  0  0  0  0  0  0
  -24.4640   -9.6330   21.9120 C   0  0  0  0  0  3  0  0  0  0  0  0
  -23.7420   -8.4340   22.0900 C   0  0  0  0  0  3  0  0  0  0  0  0
  -22.5650   -8.1950   21.3430 C   0  0  0  0  0  0  0  0  0  0  0  0
  -22.1430   -9.1540   20.4050 C   0  0  0  0  0  3  0  0  0  0  0  0
  -22.8660  -10.3460   20.2250 C   0  0  0  0  0  3  0  0  0  0  0  0
  -21.8140   -7.0480   21.4300 O   0  0  0  0  0  0  0  0  0  0  0  0
  -21.7290   -6.3300   22.5960 C   0  0  0  0  0  0  0  0  0  0  0  0
  -21.2340   -6.9010   23.7880 C   0  0  0  0  0  3  0  0  0  0  0  0
  -21.0980   -6.1090   24.9450 C   0  0  0  0  0  3  0  0  0  0  0  0
  -21.4480   -4.7460   24.9110 C   0  0  0  0  0  0  0  0  0  0  0  0
  -21.9360   -4.1740   23.7230 C   0  0  0  0  0  3  0  0  0  0  0  0
  -22.0730   -4.9640   22.5680 C   0  0  0  0  0  0  0  0  0  0  0  0
  -22.5240   -4.4010   21.4210 F   0  0  0  0  0  0  0  0  0  0  0  0
  -21.3110   -3.9830   26.0210 F   0  0  0  0  0  0  0  0  0  0  0  0
  -22.8990  -13.6890   21.2460 C   0  0  0  0  0  0  0  0  0  0  0  0
  -22.2160  -12.9710   22.1300 N   0  0  0  0  0  0  0  0  0  0  0  0
  -22.4380  -14.7280   20.7760 O   0  0  0  0  0  0  0  0  0  0  0  0
  -22.6030  -12.1310   22.5330 H   0  0  0  0  0  0  0  0  0  0  0  0
  -21.2910  -13.2660   22.4100 H   0  0  0  0  0  0  0  0  0  0  0  0
  -25.4780  -15.3840   20.3520 N   0  0  0  0  0  0  0  0  0  0  0  0
  -24.7200  -16.0330   20.5290 H   0  0  0  0  0  0  0  0  0  0  0  0
  -26.3110  -15.8350   19.9960 H   0  0  0  0  0  0  0  0  0  0  0  0
  -28.0270  -24.3370   20.0210 C   0  0  0  0  0  3  0  0  0  0  0  0
  -28.2150  -25.9610   20.2510 O   0  0  0  0  0  0  0  0  0  0  0  0
  -24.6310  -31.8930   23.2270 C   0  0  0  0  0  0  0  0  0  0  0  0
  -27.1920  -27.0430   20.1820 C   0  0  0  0  0  0  0  0  0  0  0  0
  -23.4340  -30.4990   21.5880 C   0  0  0  0  0  3  0  0  0  0  0  0
  -24.8820  -28.9060   20.1510 C   0  0  0  0  0  0  0  0  0  0  0  0
  -25.9970  -30.7240   21.4300 C   0  0  0  0  0  2  0  0  0  0  0  0
  -26.0690  -29.3170   20.7670 C   0  0  0  0  0  0  0  0  0  0  0  0
  -27.2180  -28.4070   20.7570 C   0  0  0  0  0  3  0  0  0  0  0  0
  -25.9730  -26.7810   19.5170 C   0  0  0  0  0  3  0  0  0  0  0  0
  -24.8580  -27.6580   19.5060 C   0  0  0  0  0  3  0  0  0  0  0  0
  -23.6590  -29.8210   20.2080 C   0  0  0  0  0  2  0  0  0  0  0  0
  -24.7090  -31.0660   22.1350 N   0  0  0  0  0  0  0  0  0  0  0  0
  -23.5430  -32.1770   23.7540 O   0  0  0  0  0  0  0  0  0  0  0  0
  -22.7470  -29.4980   22.5530 C   0  0  0  0  0  0  0  0  0  0  0  0
  -21.4180  -29.3250   22.4290 N   0  0  0  0  0  0  0  0  0  0  0  0
  -23.4170  -28.8770   23.3820 O   0  0  0  0  0  0  0  0  0  0  0  0
  -20.9310  -29.8770   21.7380 H   0  0  0  0  0  0  0  0  0  0  0  0
  -18.0440  -28.0940   22.9400 C   0  0  0  0  0  0  0  0  0  0  0  0
  -20.6010  -28.3810   23.2000 C   0  0  0  0  0  3  0  0  0  0  0  0
  -20.7140  -26.9500   22.6240 C   0  0  0  0  0  2  0  0  0  0  0  0
  -19.6140  -26.6200   21.6110 C   0  0  0  0  0  2  0  0  0  0  0  0
  -18.2310  -26.7490   22.2580 C   0  0  0  0  0  2  0  0  0  0  0  0
  -19.1560  -28.8670   23.3680 C   0  0  0  0  0  0  0  0  0  0  0  0
  -18.9240  -30.1230   23.9690 C   0  0  0  0  0  3  0  0  0  0  0  0
  -17.6130  -30.6080   24.1430 C   0  0  0  0  0  3  0  0  0  0  0  0
  -16.5170  -29.8330   23.7290 C   0  0  0  0  0  3  0  0  0  0  0  0
  -16.7320  -28.5780   23.1330 C   0  0  0  0  0  3  0  0  0  0  0  0
  -25.9030  -32.5370   23.8570 C   0  0  0  0  0  3  0  0  0  0  0  0
  -26.4100  -31.7760   25.1450 C   0  0  1  0  0  0  0  0  0  0  0  0
  -25.3090  -31.5450   26.2060 C   0  0  0  0  0  1  0  0  0  0  0  0
  -26.9970  -30.3950   24.7750 C   0  0  0  0  0  1  0  0  0  0  0  0
  -27.5550  -32.5750   25.8090 C   0  0  0  0  0  1  0  0  0  0  0  0
  -25.5850  -33.9370   24.1890 N   0  0  0  0  0  0  0  0  0  0  0  0
  -25.8970  -34.9970   23.4320 C   0  0  0  0  0  0  0  0  0  0  0  0
  -26.5440  -34.8990   22.3870 O   0  0  0  0  0  0  0  0  0  0  0  0
  -25.0050  -34.0850   25.0020 H   0  0  0  0  0  0  0  0  0  0  0  0
  -24.1450  -36.7830   23.1410 C   0  0  0  0  0  1  0  0  0  0  0  0
  -25.4170  -36.3850   23.9060 C   0  0  0  0  0  3  0  0  0  0  0  0
  -27.5700  -37.2940   24.6640 C   0  0  0  0  0  1  0  0  0  0  0  0
  -26.4380  -37.4450   23.7540 N   0  0  0  0  0  0  0  0  0  0  0  0
  -26.0290  -38.3630   23.9060 H   0  0  0  0  0  0  0  0  0  0  0  0
  2  7  2  0
  3  4  1  0
  3  5  1  0
  4  6  1  0
  5  8  1  0
  5  2  1  0
  6  1  1  0
  6  2  1  0
  9  8  1  0
 10 15  1  0
 11 12  1  0
 11 10  1  0
 13 12  1  0
 13 20  1  0
 13 14  1  0
 15  9  1  0
 15 14  1  0
 16  9  2  0
 17 18  2  0
 18 37  1  0
 19 18  1  0
 19 22  1  0
 20 21  1  0
 20 17  1  0
 21 19  2  0
 22 23  1  0
 23 24  2  0
 25 28  1  0
 25 24  1  0
 26 25  2  0
 27 26  1  0
 27 22  2  0
 28 29  1  0
 29 30  1  0
 30 31  2  0
 32 31  1  0
 32 36  1  0
 33 32  2  0
 34 29  2  0
 34 33  1  0
 35 34  1  0
 37 38  1  0
 38 41  1  0
 38 40  1  0
 39 37  2  0
 42 17  1  0
 42 43  1  0
 44 42  1  0
 45 46  1  0
 45  1  2  0
 47 58  2  0
 48 46  1  0
 48 53  1  0
 49 57  1  0
 49 59  1  0
 50 56  1  0
 50 52  1  0
 51 57  1  0
 52 51  1  0
 53 52  2  0
 54 48  2  0
 55 54  1  0
 55 50  2  0
 56 49  1  0
 57 47  1  0
 59 61  2  0
 60 59  1  0
 62 60  1  0
 63 72  2  0
 63 68  1  0
 64 60  1  0
 64 68  1  0
 65 64  1  0
 66 67  1  0
 66 65  1  0
 67 63  1  0
 68 69  2  0
 69 70  1  0
 71 70  2  0
 72 71  1  0
 73 47  1  0
 73 78  1  0
 73 74  1  0
 74 77  1  1
 74 75  1  0
 76 74  1  0
 78 81  1  0
 79 83  1  0
 79 78  1  0
 80 79  2  0
 83 82  1  0
 85 86  1  0
 85 83  1  0
 85 84  1  0
M  ISO  4   8 100   9 100  45 101  46 101
M  END
>  <TORSDO>  (30) 
F 19

>  <SCORE>  (30) 
-16.132

>  <name>  (30) 
29

>  <ligand_id>  (30) 
29

>  <original_smiles>  (30) 
[H]c1c([H])c([H])c2c(c1[H])C([H])([H])C([H])([H])C([H])([H])C2([H])N([H])C(=O)C1([H])N(C(=O)C([H])(N([H])C(=O)C([H])(N([H])C([H])([H])[H])C([H])([H])[H])C(C([H])([H])[H])(C([H])([H])[H])C([H])([H])[H])C([H])([H])c2c([H])c(OC([H])([H])C([H])([H])N3C(=O)C([H])(C([H])([H])C(=O)N4C([H])([H])C([H])([H])C([H])([H])C([H])(n5nc(-c6c([H])c([H])c(Oc7c([H])c([H])c(F)c([H])c7F)c([H])c6[H])c(C(=O)N([H])[H])c5N([H])[H])C4([H])[H])C([H])([H])C3([H])[H])c([H])c([H])c2C1([H])[H]

>  <smiles>  (30) 
[H]c1c([H])c([H])c2c(c1[H])C([H])([H])C([H])([H])C([H])([H])C2([H])N([H])C(=O)C1([H])N(C(=O)C([H])(N([H])C(=O)C([H])(N([H])C([H])([H])[H])C([H])([H])[H])C(C([H])([H])[H])(C([H])([H])[H])C([H])([H])[H])C([H])([H])c2c([H])c(OC([H])([H])C([H])([H])N3C(=O)C([H])(C([H])([H])C(=O)N4C([H])([H])C([H])([H])C([H])([H])C([H])(n5nc(-c6c([H])c([H])c(Oc7c([H])c([H])c(F)c([H])c7F)c([H])c6[H])c(C(=O)N([H])[H])c5N([H])[H])C4([H])[H])C([H])([H])C3([H])[H])c([H])c([H])c2C1([H])[H]

$$$$
30:0:0
     RDKit          3D

 87 95  0  0  1  0  0  0  0  0999 V2000
  -29.3320  -21.3700   18.5050 C   0  0  0  0  0  1  0  0  0  0  0  0
  -28.7370  -21.4600   19.9210 C   0  0  0  0  0  3  0  0  0  0  0  0
  -30.7440  -20.3720   21.2060 C   0  0  0  0  0  1  0  0  0  0  0  0
  -29.3090  -20.0770   20.7530 C   0  0  0  0  0  3  0  0  0  0  0  0
  -30.5290  -14.9790   20.1510 C   0  0  0  0  0  0  0  0  0  0  0  0
  -30.3620  -12.6240   19.1870 C   0  0  0  0  0  2  0  0  0  0  0  0
  -29.3990  -12.5780   17.9800 C   0  0  0  0  0  2  0  0  0  0  0  0
  -27.9420  -12.3810   18.4430 C   0  0  0  0  0  2  0  0  0  0  0  0
  -27.5770  -13.3010   19.6380 C   0  0  0  0  0  3  0  0  0  0  0  0
  -28.6610  -13.3080   20.7340 C   0  0  0  0  0  2  0  0  0  0  0  0
  -29.9050  -13.7300   20.0850 N   0  0  0  0  0  0  0  0  0  0  0  0
  -31.7300  -14.9950   19.8610 O   0  0  0  0  0  0  0  0  0  0  0  0
  -29.4430  -17.1700   21.2790 C   0  0  0  0  0  2  0  0  0  0  0  0
  -30.1710  -17.5140   19.4430 C   0  0  0  0  0  2  0  0  0  0  0  0
  -29.1840  -18.4180   20.3040 C   0  0  0  0  0  3  0  0  0  0  0  0
  -29.7830  -16.2150   20.1500 N   0  0  0  0  0  0  0  0  0  0  0  0
  -25.2280  -13.8900   20.4580 C   0  0  0  0  0  0  0  0  0  0  0  0
  -24.1680  -13.1200   20.8490 C   0  0  0  0  0  0  0  0  0  0  0  0
  -24.6180  -11.7660   20.7880 C   0  0  0  0  0  0  0  0  0  0  0  0
  -26.2540  -13.0050   20.1730 N   0  0  0  0  0  0  0  0  0  0  0  0
  -25.9010  -11.7220   20.4420 N   0  0  0  0  0  0  0  0  0  0  0  0
  -23.8850  -10.5070   20.9790 C   0  0  0  0  0  0  0  0  0  0  0  0
  -24.3160   -9.5350   21.9100 C   0  0  0  0  0  3  0  0  0  0  0  0
  -23.5840   -8.3410   22.0880 C   0  0  0  0  0  3  0  0  0  0  0  0
  -22.4080   -8.1100   21.3370 C   0  0  0  0  0  0  0  0  0  0  0  0
  -21.9970   -9.0700   20.3960 C   0  0  0  0  0  3  0  0  0  0  0  0
  -22.7280  -10.2560   20.2150 C   0  0  0  0  0  3  0  0  0  0  0  0
  -21.6410   -6.9740   21.4300 O   0  0  0  0  0  0  0  0  0  0  0  0
  -21.5660   -6.2480   22.5920 C   0  0  0  0  0  0  0  0  0  0  0  0
  -21.0880   -6.8110   23.7950 C   0  0  0  0  0  3  0  0  0  0  0  0
  -20.9670   -6.0110   24.9490 C   0  0  0  0  0  3  0  0  0  0  0  0
  -21.3090   -4.6460   24.8980 C   0  0  0  0  0  0  0  0  0  0  0  0
  -21.7760   -4.0810   23.6990 C   0  0  0  0  0  3  0  0  0  0  0  0
  -21.9020   -4.8800   22.5490 C   0  0  0  0  0  0  0  0  0  0  0  0
  -22.3350   -4.3260   21.3920 F   0  0  0  0  0  0  0  0  0  0  0  0
  -21.1830   -3.8740   26.0020 F   0  0  0  0  0  0  0  0  0  0  0  0
  -22.7820  -13.6070   21.1610 C   0  0  0  0  0  0  0  0  0  0  0  0
  -22.0670  -12.9110   22.0390 N   0  0  0  0  0  0  0  0  0  0  0  0
  -22.3420  -14.6400   20.6610 O   0  0  0  0  0  0  0  0  0  0  0  0
  -22.4330  -12.0740   22.4690 H   0  0  0  0  0  0  0  0  0  0  0  0
  -21.1400  -13.2240   22.2910 H   0  0  0  0  0  0  0  0  0  0  0  0
  -25.3980  -15.2620   20.2920 N   0  0  0  0  0  0  0  0  0  0  0  0
  -24.6410  -15.9180   20.4430 H   0  0  0  0  0  0  0  0  0  0  0  0
  -26.2510  -15.7070   19.9710 H   0  0  0  0  0  0  0  0  0  0  0  0
  -28.8450  -23.0890   20.4790 C   0  0  0  0  0  3  0  0  0  0  0  0
  -28.0470  -24.5150   19.9280 C   0  0  0  0  0  3  0  0  0  0  0  0
  -28.2380  -26.0390   20.3370 O   0  0  0  0  0  0  0  0  0  0  0  0
  -24.6320  -31.8400   23.2500 C   0  0  0  0  0  0  0  0  0  0  0  0
  -27.2140  -27.0720   20.2340 C   0  0  0  0  0  0  0  0  0  0  0  0
  -23.4530  -30.4590   21.5870 C   0  0  0  0  0  3  0  0  0  0  0  0
  -24.9100  -28.8760   20.1730 C   0  0  0  0  0  0  0  0  0  0  0  0
  -26.0150  -30.6910   21.4690 C   0  0  0  0  0  2  0  0  0  0  0  0
  -26.0850  -29.2960   20.8070 C   0  0  0  0  0  0  0  0  0  0  0  0
  -27.2360  -28.4100   20.8220 C   0  0  0  0  0  3  0  0  0  0  0  0
  -26.0170  -26.7730   19.5470 C   0  0  0  0  0  3  0  0  0  0  0  0
  -24.8920  -27.6280   19.5290 C   0  0  0  0  0  3  0  0  0  0  0  0
  -23.6910  -29.7890   20.2080 C   0  0  0  0  0  2  0  0  0  0  0  0
  -24.7210  -31.0200   22.1560 N   0  0  0  0  0  0  0  0  0  0  0  0
  -23.5380  -32.1310   23.7570 O   0  0  0  0  0  0  0  0  0  0  0  0
  -22.7520  -29.4530   22.5350 C   0  0  0  0  0  0  0  0  0  0  0  0
  -21.4260  -29.2840   22.3840 N   0  0  0  0  0  0  0  0  0  0  0  0
  -23.4060  -28.8250   23.3740 O   0  0  0  0  0  0  0  0  0  0  0  0
  -20.9530  -29.8430   21.6850 H   0  0  0  0  0  0  0  0  0  0  0  0
  -18.0330  -28.0840   22.8300 C   0  0  0  0  0  0  0  0  0  0  0  0
  -20.5880  -28.3470   23.1400 C   0  0  0  0  0  3  0  0  0  0  0  0
  -20.6980  -26.9150   22.5680 C   0  0  0  0  0  2  0  0  0  0  0  0
  -19.6140  -26.5920   21.5340 C   0  0  0  0  0  2  0  0  0  0  0  0
  -18.2210  -26.7370   22.1530 C   0  0  0  0  0  2  0  0  0  0  0  0
  -19.1460  -28.8470   23.2790 C   0  0  0  0  0  0  0  0  0  0  0  0
  -18.9140  -30.1060   23.8730 C   0  0  0  0  0  3  0  0  0  0  0  0
  -17.6060  -30.6050   24.0220 C   0  0  0  0  0  3  0  0  0  0  0  0
  -16.5090  -29.8410   23.5850 C   0  0  0  0  0  3  0  0  0  0  0  0
  -16.7240  -28.5820   22.9960 C   0  0  0  0  0  3  0  0  0  0  0  0
  -25.9020  -32.4690   23.8990 C   0  0  0  0  0  3  0  0  0  0  0  0
  -26.3770  -31.7040   25.1960 C   0  0  1  0  0  0  0  0  0  0  0  0
  -25.2550  -31.4850   26.2390 C   0  0  0  0  0  1  0  0  0  0  0  0
  -26.9600  -30.3190   24.8340 C   0  0  0  0  0  1  0  0  0  0  0  0
  -27.5130  -32.4970   25.8810 C   0  0  0  0  0  1  0  0  0  0  0  0
  -25.5900  -33.8720   24.2220 N   0  0  0  0  0  0  0  0  0  0  0  0
  -25.9130  -34.9250   23.4600 C   0  0  0  0  0  0  0  0  0  0  0  0
  -26.5720  -34.8180   22.4230 O   0  0  0  0  0  0  0  0  0  0  0  0
  -25.0000  -34.0250   25.0280 H   0  0  0  0  0  0  0  0  0  0  0  0
  -24.1720  -36.7160   23.1370 C   0  0  0  0  0  1  0  0  0  0  0  0
  -25.4330  -36.3180   23.9200 C   0  0  0  0  0  3  0  0  0  0  0  0
  -27.5810  -37.2230   24.6940 C   0  0  0  0  0  1  0  0  0  0  0  0
  -26.4590  -37.3740   23.7710 N   0  0  0  0  0  0  0  0  0  0  0  0
  -26.0520  -38.2950   23.9130 H   0  0  0  0  0  0  0  0  0  0  0  0
  2  1  1  0
  2 45  1  0
  2  4  1  0
  4  3  1  0
  6 11  1  0
  7  8  1  0
  7  6  1  0
  9  8  1  0
  9 20  1  0
  9 10  1  0
 11  5  1  0
 11 10  1  0
 12  5  2  0
 14 16  1  0
 14 15  1  0
 15  4  1  0
 15 13  1  0
 16  5  1  0
 16 13  1  0
 17 18  2  0
 18 37  1  0
 19 18  1  0
 19 22  1  0
 20 21  1  0
 20 17  1  0
 21 19  2  0
 22 23  1  0
 23 24  2  0
 25 28  1  0
 25 24  1  0
 26 25  2  0
 27 26  1  0
 27 22  2  0
 28 29  1  0
 29 30  1  0
 30 31  2  0
 32 31  1  0
 32 36  1  0
 33 32  2  0
 34 29  2  0
 34 33  1  0
 35 34  1  0
 37 38  1  0
 38 41  1  0
 38 40  1  0
 39 37  2  0
 42 43  1  0
 42 17  1  0
 44 42  1  0
 46 47  1  0
 46 45  2  0
 48 59  2  0
 49 47  1  0
 49 54  1  0
 50 58  1  0
 50 60  1  0
 51 57  1  0
 51 53  1  0
 52 58  1  0
 53 54  2  0
 53 52  1  0
 55 49  2  0
 56 55  1  0
 56 51  2  0
 57 50  1  0
 58 48  1  0
 60 62  2  0
 61 60  1  0
 63 61  1  0
 64 73  2  0
 64 69  1  0
 65 61  1  0
 65 69  1  0
 66 65  1  0
 67 68  1  0
 67 66  1  0
 68 64  1  0
 69 70  2  0
 70 71  1  0
 72 71  2  0
 73 72  1  0
 74 48  1  0
 74 79  1  0
 74 75  1  0
 75 78  1  1
 75 76  1  0
 77 75  1  0
 79 82  1  0
 80 84  1  0
 80 79  1  0
 81 80  2  0
 84 83  1  0
 86 87  1  0
 86 84  1  0
 86 85  1  0
M  ISO  4   5 100  16 100  46 101  47 101
M  END
>  <TORSDO>  (31) 
F 19

>  <SCORE>  (31) 
-16.216

>  <name>  (31) 
30

>  <ligand_id>  (31) 
30

>  <original_smiles>  (31) 
[H]c1c([H])c([H])c2c(c1[H])C([H])([H])C([H])([H])C([H])([H])C2([H])N([H])C(=O)C1([H])N(C(=O)C([H])(N([H])C(=O)C([H])(N([H])C([H])([H])[H])C([H])([H])[H])C(C([H])([H])[H])(C([H])([H])[H])C([H])([H])[H])C([H])([H])c2c([H])c(OC([H])([H])C([H])([H])C([H])(C([H])([H])[H])C([H])(C([H])([H])[H])C3([H])C([H])([H])N(C(=O)N4C([H])([H])C([H])([H])C([H])([H])C([H])(n5nc(-c6c([H])c([H])c(Oc7c([H])c([H])c(F)c([H])c7F)c([H])c6[H])c(C(=O)N([H])[H])c5N([H])[H])C4([H])[H])C3([H])[H])c([H])c([H])c2C1([H])[H]

>  <smiles>  (31) 
[H]c1c([H])c([H])c2c(c1[H])C([H])([H])C([H])([H])C([H])([H])C2([H])N([H])C(=O)C1([H])N(C(=O)C([H])(N([H])C(=O)C([H])(N([H])C([H])([H])[H])C([H])([H])[H])C(C([H])([H])[H])(C([H])([H])[H])C([H])([H])[H])C([H])([H])c2c([H])c(OC([H])([H])C([H])([H])C([H])(C([H])([H])[H])C([H])(C([H])([H])[H])C3([H])C([H])([H])N(C(=O)N4C([H])([H])C([H])([H])C([H])([H])C([H])(n5nc(-c6c([H])c([H])c(Oc7c([H])c([H])c(F)c([H])c7F)c([H])c6[H])c(C(=O)N([H])[H])c5N([H])[H])C4([H])[H])C3([H])[H])c([H])c([H])c2C1([H])[H]

$$$$
31:0:0
     RDKit          3D

 88 96  0  0  1  0  0  0  0  0999 V2000
  -28.5340  -21.0870   21.5060 C   0  0  0  0  0  2  0  0  0  0  0  0
  -28.6670  -19.5240   21.3080 C   0  0  0  0  0  2  0  0  0  0  0  0
  -29.7620  -20.6800   19.5410 C   0  0  0  0  0  2  0  0  0  0  0  0
  -28.7530  -21.8220   20.1540 C   0  0  0  0  0  3  0  0  0  0  0  0
  -29.8110  -19.2250   20.3140 C   0  0  0  0  0  3  0  0  0  0  0  0
  -30.6680  -17.8030   18.2320 C   0  0  0  0  0  1  0  0  0  0  0  0
  -29.8530  -17.7190   19.5340 C   0  0  0  0  0  0  0  0  0  0  0  0
  -30.8260  -15.1410   19.9110 C   0  0  0  0  0  0  0  0  0  0  0  0
  -30.7040  -12.7880   18.9970 C   0  0  0  0  0  2  0  0  0  0  0  0
  -29.7420  -12.7900   17.7880 C   0  0  0  0  0  2  0  0  0  0  0  0
  -28.2900  -12.5650   18.2580 C   0  0  0  0  0  2  0  0  0  0  0  0
  -27.9170  -13.4780   19.4590 C   0  0  0  0  0  3  0  0  0  0  0  0
  -28.9990  -13.4690   20.5590 C   0  0  0  0  0  2  0  0  0  0  0  0
  -30.2620  -13.8680   19.9270 N   0  0  0  0  0  0  0  0  0  0  0  0
  -31.9820  -15.2420   19.4930 O   0  0  0  0  0  0  0  0  0  0  0  0
  -30.0160  -16.2790   20.1750 N   0  0  0  0  0  4  0  0  0  0  0  0
  -29.1780  -16.0080   20.6710 H   0  0  0  0  0  0  0  0  0  0  0  0
  -25.5550  -14.0420   20.2710 C   0  0  0  0  0  0  0  0  0  0  0  0
  -24.5060  -13.2620   20.6740 C   0  0  0  0  0  0  0  0  0  0  0  0
  -24.9760  -11.9140   20.6250 C   0  0  0  0  0  0  0  0  0  0  0  0
  -26.5930  -13.1710   19.9920 N   0  0  0  0  0  0  0  0  0  0  0  0
  -26.2550  -11.8840   20.2690 N   0  0  0  0  0  0  0  0  0  0  0  0
  -24.2640  -10.6460   20.8380 C   0  0  0  0  0  0  0  0  0  0  0  0
  -24.6750   -9.7210   21.8230 C   0  0  0  0  0  3  0  0  0  0  0  0
  -23.9580   -8.5210   22.0180 C   0  0  0  0  0  3  0  0  0  0  0  0
  -22.8190   -8.2370   21.2300 C   0  0  0  0  0  0  0  0  0  0  0  0
  -22.4300   -9.1510   20.2360 C   0  0  0  0  0  3  0  0  0  0  0  0
  -23.1460  -10.3420   20.0380 C   0  0  0  0  0  3  0  0  0  0  0  0
  -22.0780   -7.0870   21.3330 O   0  0  0  0  0  0  0  0  0  0  0  0
  -21.9180   -6.4360   22.5300 C   0  0  0  0  0  0  0  0  0  0  0  0
  -21.3160   -7.0620   23.6460 C   0  0  0  0  0  3  0  0  0  0  0  0
  -21.1130   -6.3340   24.8350 C   0  0  0  0  0  3  0  0  0  0  0  0
  -21.4980   -4.9820   24.9090 C   0  0  0  0  0  0  0  0  0  0  0  0
  -22.0900   -4.3570   23.8000 C   0  0  0  0  0  3  0  0  0  0  0  0
  -22.2970   -5.0820   22.6120 C   0  0  0  0  0  0  0  0  0  0  0  0
  -22.8500   -4.4660   21.5370 F   0  0  0  0  0  0  0  0  0  0  0  0
  -21.2930   -4.2820   26.0490 F   0  0  0  0  0  0  0  0  0  0  0  0
  -23.1170  -13.7350   20.9930 C   0  0  0  0  0  0  0  0  0  0  0  0
  -22.4230  -13.0470   21.8940 N   0  0  0  0  0  0  0  0  0  0  0  0
  -22.6560  -14.7560   20.4820 O   0  0  0  0  0  0  0  0  0  0  0  0
  -22.8110  -12.2310   22.3400 H   0  0  0  0  0  0  0  0  0  0  0  0
  -21.4950  -13.3520   22.1490 H   0  0  0  0  0  0  0  0  0  0  0  0
  -25.7060  -15.4120   20.0910 N   0  0  0  0  0  0  0  0  0  0  0  0
  -24.9330  -16.0530   20.2310 H   0  0  0  0  0  0  0  0  0  0  0  0
  -26.5250  -15.8650   19.7070 H   0  0  0  0  0  0  0  0  0  0  0  0
  -29.0780  -23.4940   20.2100 C   0  0  0  0  0  3  0  0  0  0  0  0
  -28.0420  -24.7830   19.8550 C   0  0  0  0  0  3  0  0  0  0  0  0
  -28.3140  -26.3130   20.0270 O   0  0  0  0  0  0  0  0  0  0  0  0
  -24.6360  -31.8730   23.1330 C   0  0  0  0  0  0  0  0  0  0  0  0
  -27.2520  -27.2830   19.9760 C   0  0  0  0  0  0  0  0  0  0  0  0
  -23.4390  -30.4900   21.4790 C   0  0  0  0  0  3  0  0  0  0  0  0
  -24.8980  -28.9830   19.9960 C   0  0  0  0  0  0  0  0  0  0  0  0
  -25.9830  -30.8170   21.2850 C   0  0  0  0  0  2  0  0  0  0  0  0
  -26.0760  -29.4440   20.5960 C   0  0  0  0  0  0  0  0  0  0  0  0
  -27.2550  -28.6110   20.5630 C   0  0  0  0  0  3  0  0  0  0  0  0
  -26.0450  -26.9280   19.3320 C   0  0  0  0  0  3  0  0  0  0  0  0
  -24.8930  -27.7400   19.3470 C   0  0  0  0  0  3  0  0  0  0  0  0
  -23.6540  -29.8470   20.0830 C   0  0  0  0  0  2  0  0  0  0  0  0
  -24.7050  -31.0820   22.0190 N   0  0  0  0  0  0  0  0  0  0  0  0
  -23.5540  -32.1210   23.6880 O   0  0  0  0  0  0  0  0  0  0  0  0
  -22.7950  -29.4490   22.4310 C   0  0  0  0  0  0  0  0  0  0  0  0
  -21.4770  -29.2200   22.2950 N   0  0  0  0  0  0  0  0  0  0  0  0
  -23.4880  -28.8440   23.2530 O   0  0  0  0  0  0  0  0  0  0  0  0
  -20.9730  -29.7610   21.6090 H   0  0  0  0  0  0  0  0  0  0  0  0
  -18.1470  -27.8680   22.7670 C   0  0  0  0  0  0  0  0  0  0  0  0
  -20.6910  -28.2470   23.0580 C   0  0  0  0  0  3  0  0  0  0  0  0
  -20.8620  -26.8230   22.4820 C   0  0  0  0  0  2  0  0  0  0  0  0
  -19.7860  -26.4520   21.4550 C   0  0  0  0  0  2  0  0  0  0  0  0
  -18.3930  -26.5320   22.0870 C   0  0  0  0  0  2  0  0  0  0  0  0
  -19.2270  -28.6790   23.2080 C   0  0  0  0  0  0  0  0  0  0  0  0
  -18.9440  -29.9260   23.8080 C   0  0  0  0  0  3  0  0  0  0  0  0
  -17.6170  -30.3660   23.9650 C   0  0  0  0  0  3  0  0  0  0  0  0
  -16.5520  -29.5530   23.5410 C   0  0  0  0  0  3  0  0  0  0  0  0
  -16.8180  -28.3050   22.9470 C   0  0  0  0  0  3  0  0  0  0  0  0
  -25.9100  -32.5240   23.7530 C   0  0  0  0  0  3  0  0  0  0  0  0
  -26.4480  -31.7540   25.0230 C   0  0  1  0  0  0  0  0  0  0  0  0
  -25.3620  -31.4730   26.0880 C   0  0  0  0  0  1  0  0  0  0  0  0
  -27.0690  -30.3960   24.6230 C   0  0  0  0  0  1  0  0  0  0  0  0
  -27.5730  -32.5740   25.6940 C   0  0  0  0  0  1  0  0  0  0  0  0
  -25.5830  -33.9160   24.1040 N   0  0  0  0  0  0  0  0  0  0  0  0
  -25.8930  -34.9850   23.3580 C   0  0  0  0  0  0  0  0  0  0  0  0
  -26.5580  -34.9050   22.3220 O   0  0  0  0  0  0  0  0  0  0  0  0
  -24.9970  -34.0490   24.9150 H   0  0  0  0  0  0  0  0  0  0  0  0
  -24.1510  -36.7680   23.0360 C   0  0  0  0  0  1  0  0  0  0  0  0
  -25.3920  -36.3610   23.8430 C   0  0  0  0  0  3  0  0  0  0  0  0
  -27.5090  -37.2560   24.7070 C   0  0  0  0  0  1  0  0  0  0  0  0
  -26.4160  -37.4260   23.7540 N   0  0  0  0  0  0  0  0  0  0  0  0
  -25.9980  -38.3380   23.9130 H   0  0  0  0  0  0  0  0  0  0  0  0
  2  1  1  0
  3  4  1  0
  3  5  1  0
  4 46  1  0
  4  1  1  0
  5  7  1  0
  5  2  1  0
  6  7  1  0
  7 16  2  0
  8 14  1  0
  8 16  1  0
  9 14  1  0
 10 11  1  0
 10  9  1  0
 12 11  1  0
 12 21  1  0
 12 13  1  0
 14 13  1  0
 15  8  2  0
 16 17  1  0
 18 19  2  0
 19 38  1  0
 20 19  1  0
 20 23  1  0
 21 22  1  0
 21 18  1  0
 22 20  2  0
 23 24  1  0
 24 25  2  0
 26 29  1  0
 26 25  1  0
 27 26  2  0
 28 27  1  0
 28 23  2  0
 29 30  1  0
 30 35  2  0
 30 31  1  0
 31 32  2  0
 32 33  1  0
 33 37  1  0
 34 33  2  0
 35 34  1  0
 36 35  1  0
 38 39  1  0
 39 42  1  0
 39 41  1  0
 40 38  2  0
 43 44  1  0
 43 18  1  0
 45 43  1  0
 47 48  1  0
 47 46  2  0
 49 60  2  0
 50 48  1  0
 50 55  1  0
 51 59  1  0
 51 61  1  0
 52 58  1  0
 52 54  1  0
 53 59  1  0
 54 53  1  0
 55 54  2  0
 56 57  1  0
 56 50  2  0
 57 52  2  0
 58 51  1  0
 59 49  1  0
 61 63  2  0
 62 61  1  0
 64 62  1  0
 65 74  2  0
 65 70  1  0
 66 62  1  0
 66 70  1  0
 67 66  1  0
 68 69  1  0
 68 67  1  0
 69 65  1  0
 70 71  2  0
 71 72  1  0
 73 72  2  0
 74 73  1  0
 75 49  1  0
 75 80  1  0
 75 76  1  0
 76 79  1  1
 76 77  1  0
 78 76  1  0
 80 83  1  0
 81 85  1  0
 81 80  1  0
 82 81  2  0
 85 84  1  0
 87 85  1  0
 87 88  1  0
 87 86  1  0
M  ISO  4   8 100  16 100  47 101  48 101
M  END
>  <TORSDO>  (32) 
F 19

>  <SCORE>  (32) 
-13.832

>  <name>  (32) 
31

>  <ligand_id>  (32) 
31

>  <original_smiles>  (32) 
[H]c1c([H])c([H])c2c(c1[H])C([H])([H])C([H])([H])C([H])([H])C2([H])N([H])C(=O)C1([H])N(C(=O)C([H])(N([H])C(=O)C([H])(N([H])C([H])([H])[H])C([H])([H])[H])C(C([H])([H])[H])(C([H])([H])[H])C([H])([H])[H])C([H])([H])c2c([H])c(OC([H])([H])C([H])([H])C3([H])C([H])([H])C([H])([H])C([H])(C([H])(N([H])C(=O)N4C([H])([H])C([H])([H])C([H])([H])C([H])(n5nc(-c6c([H])c([H])c(Oc7c([H])c([H])c(F)c([H])c7F)c([H])c6[H])c(C(=O)N([H])[H])c5N([H])[H])C4([H])[H])C([H])([H])[H])C3([H])[H])c([H])c([H])c2C1([H])[H]

>  <smiles>  (32) 
[H]c1c([H])c([H])c2c(c1[H])C([H])([H])C([H])([H])C([H])([H])C2([H])N([H])C(=O)C1([H])N(C(=O)C([H])(N([H])C(=O)C([H])(N([H])C([H])([H])[H])C([H])([H])[H])C(C([H])([H])[H])(C([H])([H])[H])C([H])([H])[H])C([H])([H])c2c([H])c(OC([H])([H])C([H])([H])C3([H])C([H])([H])C([H])([H])C([H])(C([H])(N([H])C(=O)N4C([H])([H])C([H])([H])C([H])([H])C([H])(n5nc(-c6c([H])c([H])c(Oc7c([H])c([H])c(F)c([H])c7F)c([H])c6[H])c(C(=O)N([H])[H])c5N([H])[H])C4([H])[H])C([H])([H])[H])C3([H])[H])c([H])c([H])c2C1([H])[H]

$$$$
32:0:0
     RDKit          3D

 86 94  0  0  1  0  0  0  0  0999 V2000
  -30.7680  -21.7370   20.5080 C   0  0  0  0  0  2  0  0  0  0  0  0
  -30.4510  -23.2330   20.4500 C   0  0  0  0  0  2  0  0  0  0  0  0
  -29.2940  -21.3640   20.6990 C   0  0  0  0  0  3  0  0  0  0  0  0
  -28.9780  -22.9990   20.0830 C   0  0  0  0  0  3  0  0  0  0  0  0
  -29.0320  -19.7580   20.1220 C   0  0  0  0  0  0  0  0  0  0  0  0
  -28.1360  -19.5560   19.3000 O   0  0  0  0  0  0  0  0  0  0  0  0
  -29.9030  -18.3370   20.5380 C   0  0  0  0  0  2  0  0  0  0  0  0
  -29.4670  -16.6380   20.3800 C   0  0  0  0  0  2  0  0  0  0  0  0
  -30.3710  -15.1750   20.2570 C   0  0  0  0  0  0  0  0  0  0  0  0
  -30.3540  -12.7570   19.3660 C   0  0  0  0  0  2  0  0  0  0  0  0
  -29.4140  -12.6340   18.1390 C   0  0  0  0  0  2  0  0  0  0  0  0
  -27.9590  -12.3860   18.5810 C   0  0  0  0  0  2  0  0  0  0  0  0
  -27.5350  -13.3240   19.7390 C   0  0  0  0  0  3  0  0  0  0  0  0
  -28.5950  -13.3970   20.8560 C   0  0  0  0  0  2  0  0  0  0  0  0
  -29.8470  -13.8630   20.2450 N   0  0  0  0  0  0  0  0  0  0  0  0
  -31.5790  -15.2290   19.9910 O   0  0  0  0  0  0  0  0  0  0  0  0
  -25.1660  -13.8870   20.5100 C   0  0  0  0  0  0  0  0  0  0  0  0
  -24.1070  -13.1080   20.8870 C   0  0  0  0  0  0  0  0  0  0  0  0
  -24.5760  -11.7590   20.8540 C   0  0  0  0  0  0  0  0  0  0  0  0
  -26.2080  -13.0130   20.2550 N   0  0  0  0  0  0  0  0  0  0  0  0
  -25.8650  -11.7260   20.5300 N   0  0  0  0  0  0  0  0  0  0  0  0
  -23.8540  -10.4950   21.0520 C   0  0  0  0  0  0  0  0  0  0  0  0
  -24.3060   -9.5190   21.9680 C   0  0  0  0  0  3  0  0  0  0  0  0
  -23.5810   -8.3220   22.1550 C   0  0  0  0  0  3  0  0  0  0  0  0
  -22.3900   -8.0920   21.4260 C   0  0  0  0  0  0  0  0  0  0  0  0
  -21.9570   -9.0560   20.4990 C   0  0  0  0  0  3  0  0  0  0  0  0
  -22.6820  -10.2450   20.3100 C   0  0  0  0  0  3  0  0  0  0  0  0
  -21.6350   -6.9480   21.5220 O   0  0  0  0  0  0  0  0  0  0  0  0
  -21.6260   -6.1850   22.6630 C   0  0  0  0  0  0  0  0  0  0  0  0
  -21.2580   -6.7230   23.9150 C   0  0  0  0  0  3  0  0  0  0  0  0
  -21.1940   -5.8880   25.0480 C   0  0  0  0  0  3  0  0  0  0  0  0
  -21.4890   -4.5160   24.9310 C   0  0  0  0  0  0  0  0  0  0  0  0
  -21.8500   -3.9780   23.6820 C   0  0  0  0  0  3  0  0  0  0  0  0
  -21.9150   -4.8100   22.5520 C   0  0  0  0  0  0  0  0  0  0  0  0
  -22.2440   -4.2830   21.3480 F   0  0  0  0  0  0  0  0  0  0  0  0
  -21.4210   -3.7120   26.0170 F   0  0  0  0  0  0  0  0  0  0  0  0
  -22.7110  -13.5820   21.1670 C   0  0  0  0  0  0  0  0  0  0  0  0
  -21.9920  -12.8870   22.0400 N   0  0  0  0  0  0  0  0  0  0  0  0
  -22.2670  -14.6050   20.6480 O   0  0  0  0  0  0  0  0  0  0  0  0
  -22.3650  -12.0610   22.4840 H   0  0  0  0  0  0  0  0  0  0  0  0
  -21.0550  -13.1880   22.2700 H   0  0  0  0  0  0  0  0  0  0  0  0
  -25.3250  -15.2580   20.3330 N   0  0  0  0  0  0  0  0  0  0  0  0
  -24.5590  -15.9120   20.4610 H   0  0  0  0  0  0  0  0  0  0  0  0
  -26.1720  -15.7030   20.0040 H   0  0  0  0  0  0  0  0  0  0  0  0
  -28.0220  -24.4140   20.5050 C   0  0  0  0  0  2  0  0  0  0  0  0
  -28.2550  -26.0020   20.2800 O   0  0  0  0  0  0  0  0  0  0  0  0
  -24.6730  -31.9010   23.2210 C   0  0  0  0  0  0  0  0  0  0  0  0
  -27.2150  -27.0460   20.2520 C   0  0  0  0  0  0  0  0  0  0  0  0
  -23.4670  -30.4910   21.6020 C   0  0  0  0  0  3  0  0  0  0  0  0
  -24.9070  -28.8770   20.1940 C   0  0  0  0  0  0  0  0  0  0  0  0
  -26.0290  -30.7170   21.4360 C   0  0  0  0  0  2  0  0  0  0  0  0
  -26.0960  -29.3040   20.7990 C   0  0  0  0  0  0  0  0  0  0  0  0
  -27.2480  -28.4100   20.8020 C   0  0  0  0  0  3  0  0  0  0  0  0
  -25.9980  -26.7510   19.6010 C   0  0  0  0  0  3  0  0  0  0  0  0
  -24.8790  -27.6180   19.5750 C   0  0  0  0  0  3  0  0  0  0  0  0
  -23.6880  -29.7940   20.2320 C   0  0  0  0  0  2  0  0  0  0  0  0
  -24.7450  -31.0620   22.1400 N   0  0  0  0  0  0  0  0  0  0  0  0
  -23.5870  -32.1970   23.7450 O   0  0  0  0  0  0  0  0  0  0  0  0
  -22.7800  -29.5040   22.5790 C   0  0  0  0  0  0  0  0  0  0  0  0
  -21.4490  -29.3390   22.4600 N   0  0  0  0  0  0  0  0  0  0  0  0
  -23.4490  -28.8860   23.4120 O   0  0  0  0  0  0  0  0  0  0  0  0
  -20.9630  -29.8870   21.7640 H   0  0  0  0  0  0  0  0  0  0  0  0
  -18.0690  -28.1360   22.9810 C   0  0  0  0  0  0  0  0  0  0  0  0
  -20.6270  -28.4130   23.2450 C   0  0  0  0  0  3  0  0  0  0  0  0
  -20.7340  -26.9720   22.6940 C   0  0  0  0  0  2  0  0  0  0  0  0
  -19.6350  -26.6290   21.6840 C   0  0  0  0  0  2  0  0  0  0  0  0
  -18.2520  -26.7780   22.3230 C   0  0  0  0  0  2  0  0  0  0  0  0
  -19.1830  -28.9100   23.3990 C   0  0  0  0  0  0  0  0  0  0  0  0
  -18.9580  -30.1780   23.9770 C   0  0  0  0  0  3  0  0  0  0  0  0
  -17.6500  -30.6730   24.1380 C   0  0  0  0  0  3  0  0  0  0  0  0
  -16.5490  -29.8980   23.7340 C   0  0  0  0  0  3  0  0  0  0  0  0
  -16.7600  -28.6300   23.1620 C   0  0  0  0  0  3  0  0  0  0  0  0
  -25.9500  -32.5460   23.8410 C   0  0  0  0  0  3  0  0  0  0  0  0
  -26.4690  -31.7810   25.1220 C   0  0  1  0  0  0  0  0  0  0  0  0
  -25.3800  -31.5520   26.1960 C   0  0  0  0  0  1  0  0  0  0  0  0
  -27.0490  -30.4000   24.7410 C   0  0  0  0  0  1  0  0  0  0  0  0
  -27.6240  -32.5780   25.7730 C   0  0  0  0  0  1  0  0  0  0  0  0
  -25.6330  -33.9440   24.1780 N   0  0  0  0  0  0  0  0  0  0  0  0
  -25.9520  -35.0050   23.4230 C   0  0  0  0  0  0  0  0  0  0  0  0
  -26.6070  -34.9090   22.3830 O   0  0  0  0  0  0  0  0  0  0  0  0
  -25.0480  -34.0920   24.9870 H   0  0  0  0  0  0  0  0  0  0  0  0
  -24.2090  -36.7970   23.1170 C   0  0  0  0  0  1  0  0  0  0  0  0
  -25.4690  -36.3910   23.8980 C   0  0  0  0  0  3  0  0  0  0  0  0
  -27.6180  -37.2850   24.6830 C   0  0  0  0  0  1  0  0  0  0  0  0
  -26.4940  -37.4500   23.7650 N   0  0  0  0  0  0  0  0  0  0  0  0
  -26.0880  -38.3680   23.9230 H   0  0  0  0  0  0  0  0  0  0  0  0
  1  3  1  0
  2  1  1  0
  3  5  1  0
  4  2  1  0
  4 45  1  0
  4  3  1  0
  5  7  1  0
  6  5  2  0
  8  7  1  0
  9  8  1  0
 10 15  1  0
 11 12  1  0
 11 10  1  0
 13 12  1  0
 13 20  1  0
 13 14  1  0
 15  9  1  0
 15 14  1  0
 16  9  2  0
 17 18  2  0
 18 37  1  0
 19 18  1  0
 19 22  1  0
 20 17  1  0
 20 21  1  0
 21 19  2  0
 22 23  1  0
 23 24  2  0
 25 28  1  0
 25 24  1  0
 26 25  2  0
 27 26  1  0
 27 22  2  0
 28 29  1  0
 29 30  1  0
 30 31  2  0
 32 31  1  0
 32 36  1  0
 33 32  2  0
 34 29  2  0
 34 33  1  0
 35 34  1  0
 37 38  1  0
 38 41  1  0
 38 40  1  0
 39 37  2  0
 42 43  1  0
 42 17  1  0
 44 42  1  0
 46 45  1  0
 47 58  2  0
 48 46  1  0
 48 53  1  0
 49 57  1  0
 49 59  1  0
 50 56  1  0
 50 52  1  0
 51 57  1  0
 52 53  2  0
 52 51  1  0
 54 48  2  0
 55 54  1  0
 55 50  2  0
 56 49  1  0
 57 47  1  0
 59 61  2  0
 60 59  1  0
 62 60  1  0
 63 72  2  0
 63 68  1  0
 64 60  1  0
 64 68  1  0
 65 64  1  0
 66 67  1  0
 66 65  1  0
 67 63  1  0
 68 69  2  0
 69 70  1  0
 71 70  2  0
 72 71  1  0
 73 47  1  0
 73 78  1  0
 73 74  1  0
 74 77  1  1
 74 75  1  0
 76 74  1  0
 78 81  1  0
 79 83  1  0
 79 78  1  0
 80 79  2  0
 83 82  1  0
 85 83  1  0
 85 86  1  0
 85 84  1  0
M  ISO  4   8 100   9 100  45 101  46 101
M  END
>  <TORSDO>  (33) 
F 20

>  <SCORE>  (33) 
-16.099

>  <name>  (33) 
32

>  <ligand_id>  (33) 
32

>  <original_smiles>  (33) 
[H]c1c([H])c([H])c2c(c1[H])C([H])([H])C([H])([H])C([H])([H])C2([H])N([H])C(=O)C1([H])N(C(=O)C([H])(N([H])C(=O)C([H])(N([H])C([H])([H])[H])C([H])([H])[H])C(C([H])([H])[H])(C([H])([H])[H])C([H])([H])[H])C([H])([H])c2c([H])c(OC([H])([H])C3([H])C([H])([H])C([H])([H])C3([H])C(=O)C([H])([H])C([H])([H])C(=O)N3C([H])([H])C([H])([H])C([H])([H])C([H])(n4nc(-c5c([H])c([H])c(Oc6c([H])c([H])c(F)c([H])c6F)c([H])c5[H])c(C(=O)N([H])[H])c4N([H])[H])C3([H])[H])c([H])c([H])c2C1([H])[H]

>  <smiles>  (33) 
[H]c1c([H])c([H])c2c(c1[H])C([H])([H])C([H])([H])C([H])([H])C2([H])N([H])C(=O)C1([H])N(C(=O)C([H])(N([H])C(=O)C([H])(N([H])C([H])([H])[H])C([H])([H])[H])C(C([H])([H])[H])(C([H])([H])[H])C([H])([H])[H])C([H])([H])c2c([H])c(OC([H])([H])C3([H])C([H])([H])C([H])([H])C3([H])C(=O)C([H])([H])C([H])([H])C(=O)N3C([H])([H])C([H])([H])C([H])([H])C([H])(n4nc(-c5c([H])c([H])c(Oc6c([H])c([H])c(F)c([H])c6F)c([H])c5[H])c(C(=O)N([H])[H])c4N([H])[H])C3([H])[H])c([H])c([H])c2C1([H])[H]

$$$$
33:0:0
     RDKit          3D

 88 96  0  0  1  0  0  0  0  0999 V2000
  -27.5380  -21.6830   21.4080 C   0  0  0  0  0  1  0  0  0  0  0  0
  -28.5100  -21.8390   20.2270 C   0  0  0  0  0  3  0  0  0  0  0  0
  -30.1160  -20.0050   18.8850 C   0  0  0  0  0  2  0  0  0  0  0  0
  -30.5550  -18.4810   18.9340 C   0  0  0  0  0  2  0  0  0  0  0  0
  -29.0530  -18.9660   20.7050 C   0  0  0  0  0  2  0  0  0  0  0  0
  -29.5100  -20.4680   20.2380 C   0  0  0  0  0  3  0  0  0  0  0  0
  -30.1220  -17.8150   20.2680 C   0  0  0  0  0  3  0  0  0  0  0  0
  -30.5690  -15.0910   20.0640 C   0  0  0  0  0  0  0  0  0  0  0  0
  -30.4180  -12.7440   19.1240 C   0  0  0  0  0  2  0  0  0  0  0  0
  -29.4400  -12.7010   17.9280 C   0  0  0  0  0  2  0  0  0  0  0  0
  -27.9930  -12.4870   18.4130 C   0  0  0  0  0  2  0  0  0  0  0  0
  -27.6260  -13.4090   19.6050 C   0  0  0  0  0  3  0  0  0  0  0  0
  -28.7220  -13.4230   20.6900 C   0  0  0  0  0  2  0  0  0  0  0  0
  -29.9700  -13.8340   20.0340 N   0  0  0  0  0  0  0  0  0  0  0  0
  -31.7630  -15.1590   19.7540 O   0  0  0  0  0  0  0  0  0  0  0  0
  -29.7930  -16.2670   20.2420 N   0  0  0  0  0  0  0  0  0  0  0  0
  -28.8220  -16.0590   20.4230 H   0  0  0  0  0  0  0  0  0  0  0  0
  -25.2800  -13.9780   20.4570 C   0  0  0  0  0  0  0  0  0  0  0  0
  -24.2280  -13.1960   20.8520 C   0  0  0  0  0  0  0  0  0  0  0  0
  -24.6860  -11.8460   20.7680 C   0  0  0  0  0  0  0  0  0  0  0  0
  -26.3080  -13.1030   20.1520 N   0  0  0  0  0  0  0  0  0  0  0  0
  -25.9640  -11.8140   20.4050 N   0  0  0  0  0  0  0  0  0  0  0  0
  -23.9620  -10.5810   20.9560 C   0  0  0  0  0  0  0  0  0  0  0  0
  -24.3910   -9.6150   21.8910 C   0  0  0  0  0  3  0  0  0  0  0  0
  -23.6660   -8.4160   22.0670 C   0  0  0  0  0  3  0  0  0  0  0  0
  -22.4970   -8.1750   21.3070 C   0  0  0  0  0  0  0  0  0  0  0  0
  -22.0870   -9.1310   20.3610 C   0  0  0  0  0  3  0  0  0  0  0  0
  -22.8120  -10.3210   20.1830 C   0  0  0  0  0  3  0  0  0  0  0  0
  -21.7440   -7.0290   21.3920 O   0  0  0  0  0  0  0  0  0  0  0  0
  -21.6440   -6.3190   22.5620 C   0  0  0  0  0  0  0  0  0  0  0  0
  -21.1260   -6.8960   23.7420 C   0  0  0  0  0  3  0  0  0  0  0  0
  -20.9740   -6.1110   24.9020 C   0  0  0  0  0  3  0  0  0  0  0  0
  -21.3310   -4.7500   24.8830 C   0  0  0  0  0  0  0  0  0  0  0  0
  -21.8430   -4.1720   23.7080 C   0  0  0  0  0  3  0  0  0  0  0  0
  -21.9950   -4.9540   22.5500 C   0  0  0  0  0  0  0  0  0  0  0  0
  -22.4680   -4.3870   21.4140 F   0  0  0  0  0  0  0  0  0  0  0  0
  -21.1780   -3.9930   25.9960 F   0  0  0  0  0  0  0  0  0  0  0  0
  -22.8450  -13.6710   21.1900 C   0  0  0  0  0  0  0  0  0  0  0  0
  -22.1490  -12.9590   22.0680 N   0  0  0  0  0  0  0  0  0  0  0  0
  -22.3910  -14.7090   20.7080 O   0  0  0  0  0  0  0  0  0  0  0  0
  -22.5290  -12.1200   22.4810 H   0  0  0  0  0  0  0  0  0  0  0  0
  -21.2220  -13.2590   22.3360 H   0  0  0  0  0  0  0  0  0  0  0  0
  -25.4390  -15.3520   20.3060 N   0  0  0  0  0  0  0  0  0  0  0  0
  -24.6750  -16.0010   20.4600 H   0  0  0  0  0  0  0  0  0  0  0  0
  -26.2580  -15.7970   19.9140 H   0  0  0  0  0  0  0  0  0  0  0  0
  -28.9930  -23.4610   20.2100 C   0  0  0  0  0  3  0  0  0  0  0  0
  -27.9630  -24.7890   20.0230 C   0  0  0  0  0  3  0  0  0  0  0  0
  -28.2520  -26.3120   20.1840 O   0  0  0  0  0  0  0  0  0  0  0  0
  -24.6390  -31.9390   23.2920 C   0  0  0  0  0  0  0  0  0  0  0  0
  -27.1930  -27.2930   20.1470 C   0  0  0  0  0  0  0  0  0  0  0  0
  -23.4250  -30.5760   21.6360 C   0  0  0  0  0  3  0  0  0  0  0  0
  -24.8610  -29.0330   20.1680 C   0  0  0  0  0  0  0  0  0  0  0  0
  -25.9780  -30.8480   21.4540 C   0  0  0  0  0  2  0  0  0  0  0  0
  -26.0460  -29.4700   20.7740 C   0  0  0  0  0  0  0  0  0  0  0  0
  -27.2130  -28.6170   20.7460 C   0  0  0  0  0  3  0  0  0  0  0  0
  -25.9790  -26.9590   19.5060 C   0  0  0  0  0  3  0  0  0  0  0  0
  -24.8410  -27.7920   19.5160 C   0  0  0  0  0  3  0  0  0  0  0  0
  -23.6340  -29.9290   20.2420 C   0  0  0  0  0  2  0  0  0  0  0  0
  -24.7010  -31.1410   22.1830 N   0  0  0  0  0  0  0  0  0  0  0  0
  -23.5570  -32.2120   23.8350 O   0  0  0  0  0  0  0  0  0  0  0  0
  -22.7540  -29.5500   22.5840 C   0  0  0  0  0  0  0  0  0  0  0  0
  -21.4320  -29.3560   22.4410 N   0  0  0  0  0  0  0  0  0  0  0  0
  -23.4280  -28.9300   23.4110 O   0  0  0  0  0  0  0  0  0  0  0  0
  -20.9440  -29.9070   21.7480 H   0  0  0  0  0  0  0  0  0  0  0  0
  -18.0690  -28.0840   22.8880 C   0  0  0  0  0  0  0  0  0  0  0  0
  -20.6180  -28.4010   23.1980 C   0  0  0  0  0  3  0  0  0  0  0  0
  -20.7580  -26.9710   22.6240 C   0  0  0  0  0  2  0  0  0  0  0  0
  -19.6810  -26.6280   21.5910 C   0  0  0  0  0  2  0  0  0  0  0  0
  -18.2860  -26.7410   22.2120 C   0  0  0  0  0  2  0  0  0  0  0  0
  -19.1640  -28.8700   23.3360 C   0  0  0  0  0  0  0  0  0  0  0  0
  -18.9060  -30.1250   23.9300 C   0  0  0  0  0  3  0  0  0  0  0  0
  -17.5880  -30.5950   24.0780 C   0  0  0  0  0  3  0  0  0  0  0  0
  -16.5080  -29.8060   23.6450 C   0  0  0  0  0  3  0  0  0  0  0  0
  -16.7500  -28.5520   23.0550 C   0  0  0  0  0  3  0  0  0  0  0  0
  -25.9230  -32.5620   23.9210 C   0  0  0  0  0  3  0  0  0  0  0  0
  -26.4240  -31.7880   25.2030 C   0  0  1  0  0  0  0  0  0  0  0  0
  -25.3220  -31.5620   26.2650 C   0  0  0  0  0  1  0  0  0  0  0  0
  -26.9950  -30.4030   24.8200 C   0  0  0  0  0  1  0  0  0  0  0  0
  -27.5790  -32.5700   25.8690 C   0  0  0  0  0  1  0  0  0  0  0  0
  -25.6240  -33.9630   24.2550 N   0  0  0  0  0  0  0  0  0  0  0  0
  -25.9310  -35.0150   23.4830 C   0  0  0  0  0  0  0  0  0  0  0  0
  -26.5660  -34.9060   22.4300 O   0  0  0  0  0  0  0  0  0  0  0  0
  -25.0580  -34.1210   25.0760 H   0  0  0  0  0  0  0  0  0  0  0  0
  -24.1830  -36.8030   23.2050 C   0  0  0  0  0  1  0  0  0  0  0  0
  -25.4660  -36.4080   23.9540 C   0  0  0  0  0  3  0  0  0  0  0  0
  -27.6330  -37.3140   24.6700 C   0  0  0  0  0  1  0  0  0  0  0  0
  -26.4880  -37.4620   23.7760 N   0  0  0  0  0  0  0  0  0  0  0  0
  -26.0850  -38.3830   23.9250 H   0  0  0  0  0  0  0  0  0  0  0  0
  2  1  1  0
  3  4  1  0
  3  6  1  0
  4  7  1  0
  6  2  1  0
  6  5  1  0
  7 16  1  0
  7  5  1  0
  8 16  1  0
  9 14  1  0
 10 11  1  0
 10  9  1  0
 12 11  1  0
 12 21  1  0
 12 13  1  0
 14  8  1  0
 14 13  1  0
 15  8  2  0
 16 17  1  0
 18 19  2  0
 19 38  1  0
 20 19  1  0
 20 23  1  0
 21 22  1  0
 21 18  1  0
 22 20  2  0
 23 24  1  0
 24 25  2  0
 26 29  1  0
 26 25  1  0
 27 26  2  0
 28 27  1  0
 28 23  2  0
 29 30  1  0
 30 31  1  0
 31 32  2  0
 33 32  1  0
 33 37  1  0
 34 33  2  0
 35 30  2  0
 35 34  1  0
 36 35  1  0
 38 39  1  0
 39 42  1  0
 39 41  1  0
 40 38  2  0
 43 18  1  0
 43 44  1  0
 45 43  1  0
 46  2  1  0
 47 48  1  0
 47 46  2  0
 49 60  2  0
 50 48  1  0
 50 55  1  0
 51 59  1  0
 51 61  1  0
 52 58  1  0
 52 54  1  0
 53 59  1  0
 54 53  1  0
 55 54  2  0
 56 57  1  0
 56 50  2  0
 57 52  2  0
 58 51  1  0
 59 49  1  0
 61 63  2  0
 62 61  1  0
 64 62  1  0
 65 74  2  0
 65 70  1  0
 66 62  1  0
 66 70  1  0
 67 66  1  0
 68 69  1  0
 68 67  1  0
 69 65  1  0
 70 71  2  0
 71 72  1  0
 73 72  2  0
 74 73  1  0
 75 49  1  0
 75 80  1  0
 75 76  1  0
 76 79  1  1
 76 77  1  0
 78 76  1  0
 80 83  1  0
 81 85  1  0
 81 80  1  0
 82 81  2  0
 85 84  1  0
 87 88  1  0
 87 85  1  0
 87 86  1  0
M  ISO  4   8 100  16 100  47 101  48 101
M  END
>  <TORSDO>  (34) 
F 19

>  <SCORE>  (34) 
-14.135

>  <name>  (34) 
33

>  <ligand_id>  (34) 
33

>  <original_smiles>  (34) 
[H]c1c([H])c([H])c2c(c1[H])C([H])([H])C([H])([H])C([H])([H])C2([H])N([H])C(=O)C1([H])N(C(=O)C([H])(N([H])C(=O)C([H])(N([H])C([H])([H])[H])C([H])([H])[H])C(C([H])([H])[H])(C([H])([H])[H])C([H])([H])[H])C([H])([H])c2c([H])c(OC([H])([H])C([H])([H])C([H])(C([H])([H])[H])C3([H])C([H])([H])C([H])([H])C([H])(N([H])C(=O)N4C([H])([H])C([H])([H])C([H])([H])C([H])(n5nc(-c6c([H])c([H])c(Oc7c([H])c([H])c(F)c([H])c7F)c([H])c6[H])c(C(=O)N([H])[H])c5N([H])[H])C4([H])[H])C3([H])[H])c([H])c([H])c2C1([H])[H]

>  <smiles>  (34) 
[H]c1c([H])c([H])c2c(c1[H])C([H])([H])C([H])([H])C([H])([H])C2([H])N([H])C(=O)C1([H])N(C(=O)C([H])(N([H])C(=O)C([H])(N([H])C([H])([H])[H])C([H])([H])[H])C(C([H])([H])[H])(C([H])([H])[H])C([H])([H])[H])C([H])([H])c2c([H])c(OC([H])([H])C([H])([H])C([H])(C([H])([H])[H])C3([H])C([H])([H])C([H])([H])C([H])(N([H])C(=O)N4C([H])([H])C([H])([H])C([H])([H])C([H])(n5nc(-c6c([H])c([H])c(Oc7c([H])c([H])c(F)c([H])c7F)c([H])c6[H])c(C(=O)N([H])[H])c5N([H])[H])C4([H])[H])C3([H])[H])c([H])c([H])c2C1([H])[H]

$$$$
34:0:0
     RDKit          3D

 91 99  0  0  1  0  0  0  0  0999 V2000
  -28.2380  -21.9060   20.4260 C   0  0  0  0  0  2  0  0  0  0  0  0
  -30.5740  -21.5290   20.3560 C   0  0  0  0  0  2  0  0  0  0  0  0
  -29.2960  -20.7200   20.0630 C   0  0  0  0  0  3  0  0  0  0  0  0
  -28.8820  -23.3990   20.5480 C   0  0  0  0  0  3  0  0  0  0  0  0
  -30.2840  -23.0360   19.9760 C   0  0  0  0  0  3  0  0  0  0  0  0
  -31.3490  -23.9400   20.4450 N   0  0  0  0  0  4  0  0  0  0  0  0
  -31.4310  -23.9240   21.4460 H   0  0  0  0  0  0  0  0  0  0  0  0
  -31.1640  -24.8840   20.1580 H   0  0  0  0  0  0  0  0  0  0  0  0
  -32.2330  -23.6680   20.0520 H   0  0  0  0  0  0  0  0  0  0  0  0
  -27.7010  -18.7160   20.3790 C   0  0  0  0  0  1  0  0  0  0  0  0
  -29.1530  -19.1530   20.6380 C   0  0  0  0  0  3  0  0  0  0  0  0
  -30.1220  -17.8590   20.2180 C   0  0  0  0  0  3  0  0  0  0  0  0
  -29.8220  -16.2890   20.7110 C   0  0  0  0  0  3  0  0  0  0  0  0
  -30.6620  -14.9380   20.2940 C   0  0  0  0  0  0  0  0  0  0  0  0
  -30.5530  -12.6200   19.2850 C   0  0  0  0  0  2  0  0  0  0  0  0
  -29.5970  -12.6470   18.0680 C   0  0  0  0  0  2  0  0  0  0  0  0
  -28.1360  -12.4280   18.5130 C   0  0  0  0  0  2  0  0  0  0  0  0
  -27.7530  -13.3100   19.7290 C   0  0  0  0  0  3  0  0  0  0  0  0
  -28.8260  -13.2580   20.8380 C   0  0  0  0  0  2  0  0  0  0  0  0
  -30.1020  -13.6660   20.2410 N   0  0  0  0  0  0  0  0  0  0  0  0
  -31.8330  -15.0580   19.9150 O   0  0  0  0  0  0  0  0  0  0  0  0
  -25.3740  -13.8680   20.4990 C   0  0  0  0  0  0  0  0  0  0  0  0
  -24.3190  -13.0810   20.8680 C   0  0  0  0  0  0  0  0  0  0  0  0
  -24.7910  -11.7330   20.8140 C   0  0  0  0  0  0  0  0  0  0  0  0
  -26.4210  -13.0010   20.2360 N   0  0  0  0  0  0  0  0  0  0  0  0
  -26.0790  -11.7110   20.4890 N   0  0  0  0  0  0  0  0  0  0  0  0
  -24.0760  -10.4630   20.9920 C   0  0  0  0  0  0  0  0  0  0  0  0
  -24.4860   -9.5130   21.9530 C   0  0  0  0  0  3  0  0  0  0  0  0
  -23.7700   -8.3090   22.1200 C   0  0  0  0  0  3  0  0  0  0  0  0
  -22.6280   -8.0460   21.3250 C   0  0  0  0  0  0  0  0  0  0  0  0
  -22.2370   -8.9850   20.3540 C   0  0  0  0  0  3  0  0  0  0  0  0
  -22.9550  -10.1820   20.1860 C   0  0  0  0  0  3  0  0  0  0  0  0
  -21.8840   -6.8930   21.4010 O   0  0  0  0  0  0  0  0  0  0  0  0
  -21.7530   -6.1960   22.5750 C   0  0  0  0  0  0  0  0  0  0  0  0
  -21.1850   -6.7810   23.7280 C   0  0  0  0  0  3  0  0  0  0  0  0
  -21.0040   -6.0090   24.8930 C   0  0  0  0  0  3  0  0  0  0  0  0
  -21.3800   -4.6530   24.9050 C   0  0  0  0  0  0  0  0  0  0  0  0
  -21.9390   -4.0680   23.7550 C   0  0  0  0  0  3  0  0  0  0  0  0
  -22.1220   -4.8360   22.5920 C   0  0  0  0  0  0  0  0  0  0  0  0
  -22.6420   -4.2620   21.4810 F   0  0  0  0  0  0  0  0  0  0  0  0
  -21.1980   -3.9080   26.0210 F   0  0  0  0  0  0  0  0  0  0  0  0
  -22.9210  -13.5440   21.1630 C   0  0  0  0  0  0  0  0  0  0  0  0
  -22.2050  -12.8290   22.0240 N   0  0  0  0  0  0  0  0  0  0  0  0
  -22.4740  -14.5760   20.6640 O   0  0  0  0  0  0  0  0  0  0  0  0
  -22.5790  -11.9930   22.4480 H   0  0  0  0  0  0  0  0  0  0  0  0
  -21.2700  -13.1260   22.2640 H   0  0  0  0  0  0  0  0  0  0  0  0
  -25.5270  -15.2430   20.3410 N   0  0  0  0  0  0  0  0  0  0  0  0
  -24.7560  -15.8890   20.4730 H   0  0  0  0  0  0  0  0  0  0  0  0
  -26.3690  -15.6940   20.0090 H   0  0  0  0  0  0  0  0  0  0  0  0
  -28.0590  -24.7490   20.0010 C   0  0  0  0  0  2  0  0  0  0  0  0
  -28.3100  -26.2450   20.2970 O   0  0  0  0  0  0  0  0  0  0  0  0
  -24.6350  -31.8960   23.2050 C   0  0  0  0  0  0  0  0  0  0  0  0
  -27.2470  -27.2080   20.2020 C   0  0  0  0  0  0  0  0  0  0  0  0
  -23.4490  -30.4940   21.5600 C   0  0  0  0  0  3  0  0  0  0  0  0
  -24.9120  -28.9260   20.1470 C   0  0  0  0  0  0  0  0  0  0  0  0
  -26.0010  -30.7740   21.4080 C   0  0  0  0  0  2  0  0  0  0  0  0
  -26.0830  -29.3830   20.7640 C   0  0  0  0  0  0  0  0  0  0  0  0
  -27.2510  -28.5370   20.7810 C   0  0  0  0  0  3  0  0  0  0  0  0
  -26.0520  -26.8500   19.5380 C   0  0  0  0  0  3  0  0  0  0  0  0
  -24.9060  -27.6710   19.5210 C   0  0  0  0  0  3  0  0  0  0  0  0
  -23.6790  -29.8150   20.1840 C   0  0  0  0  0  2  0  0  0  0  0  0
  -24.7140  -31.0760   22.1140 N   0  0  0  0  0  0  0  0  0  0  0  0
  -23.5460  -32.1770   23.7270 O   0  0  0  0  0  0  0  0  0  0  0  0
  -22.7670  -29.4850   22.5170 C   0  0  0  0  0  0  0  0  0  0  0  0
  -21.4380  -29.3260   22.3920 N   0  0  0  0  0  0  0  0  0  0  0  0
  -23.4350  -28.8460   23.3340 O   0  0  0  0  0  0  0  0  0  0  0  0
  -20.9530  -29.8950   21.7120 H   0  0  0  0  0  0  0  0  0  0  0  0
  -18.0430  -28.1830   22.9210 C   0  0  0  0  0  0  0  0  0  0  0  0
  -20.6100  -28.3910   23.1590 C   0  0  0  0  0  3  0  0  0  0  0  0
  -20.6760  -26.9670   22.5610 C   0  0  0  0  0  2  0  0  0  0  0  0
  -19.5550  -26.6800   21.5570 C   0  0  0  0  0  2  0  0  0  0  0  0
  -18.1840  -26.8430   22.2200 C   0  0  0  0  0  2  0  0  0  0  0  0
  -19.1820  -28.9180   23.3470 C   0  0  0  0  0  0  0  0  0  0  0  0
  -18.9950  -30.1750   23.9630 C   0  0  0  0  0  3  0  0  0  0  0  0
  -17.7020  -30.6970   24.1530 C   0  0  0  0  0  3  0  0  0  0  0  0
  -16.5770  -29.9600   23.7430 C   0  0  0  0  0  3  0  0  0  0  0  0
  -16.7490  -28.7050   23.1330 C   0  0  0  0  0  3  0  0  0  0  0  0
  -25.9090  -32.5330   23.8400 C   0  0  0  0  0  3  0  0  0  0  0  0
  -25.5940  -33.9300   24.1760 N   0  0  0  0  0  0  0  0  0  0  0  0
  -25.9170  -34.9870   23.4210 C   0  0  0  0  0  0  0  0  0  0  0  0
  -26.5810  -34.8890   22.3860 O   0  0  0  0  0  0  0  0  0  0  0  0
  -25.0100  -34.0810   24.9860 H   0  0  0  0  0  0  0  0  0  0  0  0
  -24.1840  -36.7760   23.0800 C   0  0  0  0  0  1  0  0  0  0  0  0
  -25.4290  -36.3730   23.8850 C   0  0  0  0  0  3  0  0  0  0  0  0
  -27.5590  -37.2650   24.7190 C   0  0  0  0  0  1  0  0  0  0  0  0
  -26.4580  -37.4300   23.7740 N   0  0  0  0  0  0  0  0  0  0  0  0
  -26.0480  -38.3470   23.9230 H   0  0  0  0  0  0  0  0  0  0  0  0
  -26.4150  -31.7620   25.1210 C   0  0  1  0  0  0  0  0  0  0  0  0
  -25.3100  -31.5110   26.1740 C   0  0  0  0  0  1  0  0  0  0  0  0
  -27.0140  -30.3910   24.7310 C   0  0  0  0  0  1  0  0  0  0  0  0
  -27.5530  -32.5600   25.7990 C   0  0  0  0  0  1  0  0  0  0  0  0
  1  4  1  0
  3  2  1  0
  3  1  1  0
  3 11  1  0
  4 50  1  0
  5  2  1  0
  5  6  1  0
  5  4  1  0
  6  7  1  0
  8  6  1  0
  9  6  1  0
 11 10  1  0
 12 11  1  0
 12 13  2  0
 14 13  1  0
 15 20  1  0
 16 17  1  0
 16 15  1  0
 18 17  1  0
 18 25  1  0
 18 19  1  0
 20 14  1  0
 20 19  1  0
 21 14  2  0
 22 23  2  0
 23 42  1  0
 24 23  1  0
 24 27  1  0
 25 26  1  0
 25 22  1  0
 26 24  2  0
 27 28  1  0
 28 29  2  0
 30 33  1  0
 30 29  1  0
 31 30  2  0
 32 31  1  0
 32 27  2  0
 33 34  1  0
 34 39  2  0
 34 35  1  0
 35 36  2  0
 36 37  1  0
 37 41  1  0
 38 37  2  0
 39 38  1  0
 40 39  1  0
 42 43  1  0
 43 46  1  0
 43 45  1  0
 44 42  2  0
 47 48  1  0
 47 22  1  0
 49 47  1  0
 50 51  1  0
 52 63  2  0
 53 51  1  0
 53 58  1  0
 54 62  1  0
 54 64  1  0
 55 61  1  0
 55 57  1  0
 56 62  1  0
 57 58  2  0
 57 56  1  0
 59 53  2  0
 60 59  1  0
 60 55  2  0
 61 54  1  0
 62 52  1  0
 64 66  2  0
 65 64  1  0
 67 65  1  0
 68 77  2  0
 68 73  1  0
 69 65  1  0
 69 73  1  0
 70 69  1  0
 71 72  1  0
 71 70  1  0
 72 68  1  0
 73 74  2  0
 74 75  1  0
 76 75  2  0
 77 76  1  0
 78 52  1  0
 78 79  1  0
 78 88  1  0
 79 82  1  0
 80 84  1  0
 80 79  1  0
 81 80  2  0
 84 83  1  0
 86 84  1  0
 86 87  1  0
 86 85  1  0
 88 91  1  1
 88 89  1  0
 90 88  1  0
M  ISO  4  13 100  14 100  50 101  51 101
M  END
>  <TORSDO>  (35) 
F 21

>  <SCORE>  (35) 
-13.523

>  <name>  (35) 
34

>  <ligand_id>  (35) 
34

>  <original_smiles>  (35) 
[H]c1c([H])c([H])c2c(c1[H])C([H])([H])C([H])([H])C([H])([H])C2([H])N([H])C(=O)C1([H])N(C(=O)C([H])(N([H])C(=O)C([H])(N([H])C([H])([H])[H])C([H])([H])[H])C(C([H])([H])[H])(C([H])([H])[H])C([H])([H])[H])C([H])([H])c2c([H])c(OC([H])([H])C3([H])C([H])([H])C([H])(C([H])(C([H])([H])[H])C([H])([H])C([H])([H])C(=O)N4C([H])([H])C([H])([H])C([H])([H])C([H])(n5nc(-c6c([H])c([H])c(Oc7c([H])c([H])c(F)c([H])c7F)c([H])c6[H])c(C(=O)N([H])[H])c5N([H])[H])C4([H])[H])C([H])([H])C3([H])[N+]([H])([H])[H])c([H])c([H])c2C1([H])[H]

>  <smiles>  (35) 
[H]c1c([H])c([H])c2c(c1[H])C([H])([H])C([H])([H])C([H])([H])C2([H])N([H])C(=O)C1([H])N(C(=O)C([H])(N([H])C(=O)C([H])(N([H])C([H])([H])[H])C([H])([H])[H])C(C([H])([H])[H])(C([H])([H])[H])C([H])([H])[H])C([H])([H])c2c([H])c(OC([H])([H])C3([H])C([H])([H])C([H])(C([H])(C([H])([H])[H])C([H])([H])C([H])([H])C(=O)N4C([H])([H])C([H])([H])C([H])([H])C([H])(n5nc(-c6c([H])c([H])c(Oc7c([H])c([H])c(F)c([H])c7F)c([H])c6[H])c(C(=O)N([H])[H])c5N([H])[H])C4([H])[H])C([H])([H])C3([H])[N+]([H])([H])[H])c([H])c([H])c2C1([H])[H]

$$$$
35:0:0
     RDKit          3D

 87 95  0  0  1  0  0  0  0  0999 V2000
  -29.1160  -20.4600   19.3180 C   0  0  0  0  0  2  0  0  0  0  0  0
  -29.4490  -20.5190   21.2930 C   0  0  0  0  0  2  0  0  0  0  0  0
  -29.0820  -19.2510   20.3810 C   0  0  0  0  0  3  0  0  0  0  0  0
  -28.7090  -21.6210   20.3670 C   0  0  0  0  0  3  0  0  0  0  0  0
  -29.6750  -16.4500   20.4330 C   0  0  0  0  0  3  0  0  0  0  0  0
  -29.9880  -17.8430   20.2620 C   0  0  0  0  0  0  0  0  0  0  0  0
  -30.5350  -15.1420   20.2530 C   0  0  0  0  0  0  0  0  0  0  0  0
  -30.4430  -12.7630   19.3430 C   0  0  0  0  0  2  0  0  0  0  0  0
  -29.4980  -12.6960   18.1190 C   0  0  0  0  0  2  0  0  0  0  0  0
  -28.0420  -12.4660   18.5640 C   0  0  0  0  0  2  0  0  0  0  0  0
  -27.6370  -13.3870   19.7430 C   0  0  0  0  0  3  0  0  0  0  0  0
  -28.7040  -13.4240   20.8560 C   0  0  0  0  0  2  0  0  0  0  0  0
  -29.9640  -13.8600   20.2400 N   0  0  0  0  0  0  0  0  0  0  0  0
  -31.7350  -15.1820   19.9560 O   0  0  0  0  0  0  0  0  0  0  0  0
  -25.2710  -13.9430   20.5380 C   0  0  0  0  0  0  0  0  0  0  0  0
  -24.2170  -13.1580   20.9160 C   0  0  0  0  0  0  0  0  0  0  0  0
  -24.6850  -11.8100   20.8570 C   0  0  0  0  0  0  0  0  0  0  0  0
  -26.3110  -13.0720   20.2630 N   0  0  0  0  0  0  0  0  0  0  0  0
  -25.9710  -11.7830   20.5220 N   0  0  0  0  0  0  0  0  0  0  0  0
  -23.9650  -10.5430   21.0410 C   0  0  0  0  0  0  0  0  0  0  0  0
  -24.4040   -9.5690   21.9640 C   0  0  0  0  0  3  0  0  0  0  0  0
  -23.6810   -8.3690   22.1360 C   0  0  0  0  0  3  0  0  0  0  0  0
  -22.5060   -8.1320   21.3850 C   0  0  0  0  0  0  0  0  0  0  0  0
  -22.0860   -9.0950   20.4490 C   0  0  0  0  0  3  0  0  0  0  0  0
  -22.8090  -10.2860   20.2750 C   0  0  0  0  0  3  0  0  0  0  0  0
  -21.7540   -6.9850   21.4670 O   0  0  0  0  0  0  0  0  0  0  0  0
  -21.6930   -6.2470   22.6220 C   0  0  0  0  0  0  0  0  0  0  0  0
  -21.2050   -6.7920   23.8300 C   0  0  0  0  0  3  0  0  0  0  0  0
  -21.0930   -5.9780   24.9750 C   0  0  0  0  0  3  0  0  0  0  0  0
  -21.4580   -4.6200   24.9130 C   0  0  0  0  0  0  0  0  0  0  0  0
  -21.9390   -4.0740   23.7090 C   0  0  0  0  0  3  0  0  0  0  0  0
  -22.0520   -4.8850   22.5660 C   0  0  0  0  0  0  0  0  0  0  0  0
  -22.4960   -4.3480   21.4040 F   0  0  0  0  0  0  0  0  0  0  0  0
  -21.3440   -3.8360   26.0100 F   0  0  0  0  0  0  0  0  0  0  0  0
  -22.8230  -13.6280   21.2150 C   0  0  0  0  0  0  0  0  0  0  0  0
  -22.1140  -12.9240   22.0910 N   0  0  0  0  0  0  0  0  0  0  0  0
  -22.3720  -14.6530   20.7060 O   0  0  0  0  0  0  0  0  0  0  0  0
  -22.4920  -12.0950   22.5230 H   0  0  0  0  0  0  0  0  0  0  0  0
  -21.1800  -13.2210   22.3340 H   0  0  0  0  0  0  0  0  0  0  0  0
  -25.4270  -15.3170   20.3790 N   0  0  0  0  0  0  0  0  0  0  0  0
  -24.6580  -15.9640   20.5140 H   0  0  0  0  0  0  0  0  0  0  0  0
  -26.2630  -15.7640   20.0270 H   0  0  0  0  0  0  0  0  0  0  0  0
  -31.2290  -18.2100   19.9110 O   0  0  0  0  0  0  0  0  0  0  0  0
  -31.7500  -17.4190   19.8260 H   0  0  0  0  0  0  0  0  0  0  0  0
  -29.0600  -23.3070   20.3120 C   0  0  0  0  0  3  0  0  0  0  0  0
  -27.9830  -24.6290   20.1160 C   0  0  0  0  0  3  0  0  0  0  0  0
  -28.2510  -26.1850   20.2460 O   0  0  0  0  0  0  0  0  0  0  0  0
  -24.6390  -31.9060   23.2890 C   0  0  0  0  0  0  0  0  0  0  0  0
  -27.2020  -27.1920   20.1970 C   0  0  0  0  0  0  0  0  0  0  0  0
  -23.4350  -30.5290   21.6380 C   0  0  0  0  0  3  0  0  0  0  0  0
  -24.8780  -28.9670   20.1880 C   0  0  0  0  0  0  0  0  0  0  0  0
  -25.9920  -30.7870   21.4700 C   0  0  0  0  0  2  0  0  0  0  0  0
  -26.0630  -29.3990   20.7990 C   0  0  0  0  0  0  0  0  0  0  0  0
  -27.2250  -28.5300   20.7820 C   0  0  0  0  0  3  0  0  0  0  0  0
  -25.9890  -26.8730   19.5490 C   0  0  0  0  0  3  0  0  0  0  0  0
  -24.8580  -27.7200   19.5460 C   0  0  0  0  0  3  0  0  0  0  0  0
  -23.6530  -29.8670   20.2510 C   0  0  0  0  0  2  0  0  0  0  0  0
  -24.7090  -31.0970   22.1870 N   0  0  0  0  0  0  0  0  0  0  0  0
  -23.5540  -32.1840   23.8230 O   0  0  0  0  0  0  0  0  0  0  0  0
  -22.7570  -29.5120   22.5910 C   0  0  0  0  0  0  0  0  0  0  0  0
  -21.4310  -29.3330   22.4580 N   0  0  0  0  0  0  0  0  0  0  0  0
  -23.4290  -28.8870   23.4150 O   0  0  0  0  0  0  0  0  0  0  0  0
  -20.9440  -29.8900   21.7690 H   0  0  0  0  0  0  0  0  0  0  0  0
  -18.0570  -28.0990   22.9390 C   0  0  0  0  0  0  0  0  0  0  0  0
  -20.6130  -28.3850   23.2200 C   0  0  0  0  0  3  0  0  0  0  0  0
  -20.7300  -26.9570   22.6380 C   0  0  0  0  0  2  0  0  0  0  0  0
  -19.6360  -26.6290   21.6170 C   0  0  0  0  0  2  0  0  0  0  0  0
  -18.2500  -26.7570   22.2540 C   0  0  0  0  0  2  0  0  0  0  0  0
  -19.1670  -28.8700   23.3780 C   0  0  0  0  0  0  0  0  0  0  0  0
  -18.9300  -30.1260   23.9800 C   0  0  0  0  0  3  0  0  0  0  0  0
  -17.6200  -30.6100   24.1460 C   0  0  0  0  0  3  0  0  0  0  0  0
  -16.5250  -29.8370   23.7220 C   0  0  0  0  0  3  0  0  0  0  0  0
  -16.7450  -28.5840   23.1240 C   0  0  0  0  0  3  0  0  0  0  0  0
  -25.9170  -32.5360   23.9210 C   0  0  0  0  0  3  0  0  0  0  0  0
  -26.4140  -31.7720   25.2100 C   0  0  1  0  0  0  0  0  0  0  0  0
  -25.3070  -31.5520   26.2690 C   0  0  0  0  0  1  0  0  0  0  0  0
  -26.9900  -30.3850   24.8420 C   0  0  0  0  0  1  0  0  0  0  0  0
  -27.5630  -32.5630   25.8780 C   0  0  0  0  0  1  0  0  0  0  0  0
  -25.6130  -33.9390   24.2450 N   0  0  0  0  0  0  0  0  0  0  0  0
  -25.9260  -34.9880   23.4730 C   0  0  0  0  0  0  0  0  0  0  0  0
  -26.5660  -34.8770   22.4240 O   0  0  0  0  0  0  0  0  0  0  0  0
  -25.0400  -34.0990   25.0600 H   0  0  0  0  0  0  0  0  0  0  0  0
  -24.1810  -36.7780   23.1720 C   0  0  0  0  0  1  0  0  0  0  0  0
  -25.4560  -36.3820   23.9350 C   0  0  0  0  0  3  0  0  0  0  0  0
  -27.6150  -37.2890   24.6730 C   0  0  0  0  0  1  0  0  0  0  0  0
  -26.4800  -37.4360   23.7670 N   0  0  0  0  0  0  0  0  0  0  0  0
  -26.0770  -38.3580   23.9120 H   0  0  0  0  0  0  0  0  0  0  0  0
  1  4  1  0
  1  3  1  0
  3  6  1  0
  3  2  1  0
  4 45  1  0
  4  2  1  0
  6  5  2  0
  7  5  1  0
  8 13  1  0
  9 10  1  0
  9  8  1  0
 11 10  1  0
 11 18  1  0
 11 12  1  0
 13  7  1  0
 13 12  1  0
 14  7  2  0
 15 16  2  0
 16 35  1  0
 17 16  1  0
 17 20  1  0
 18 19  1  0
 18 15  1  0
 19 17  2  0
 20 21  1  0
 21 22  2  0
 23 26  1  0
 23 22  1  0
 24 23  2  0
 25 24  1  0
 25 20  2  0
 26 27  1  0
 27 28  1  0
 28 29  2  0
 30 29  1  0
 30 34  1  0
 31 30  2  0
 32 27  2  0
 32 31  1  0
 33 32  1  0
 35 36  1  0
 36 39  1  0
 36 38  1  0
 37 35  2  0
 40 41  1  0
 40 15  1  0
 42 40  1  0
 43  6  1  0
 44 43  1  0
 46 47  1  0
 46 45  2  0
 48 59  2  0
 49 47  1  0
 49 54  1  0
 50 58  1  0
 50 60  1  0
 51 57  1  0
 51 53  1  0
 52 58  1  0
 53 52  1  0
 54 53  2  0
 55 49  2  0
 56 55  1  0
 56 51  2  0
 57 50  1  0
 58 48  1  0
 60 62  2  0
 61 60  1  0
 63 61  1  0
 64 73  2  0
 64 69  1  0
 65 61  1  0
 65 69  1  0
 66 65  1  0
 67 68  1  0
 67 66  1  0
 68 64  1  0
 69 70  2  0
 70 71  1  0
 72 71  2  0
 73 72  1  0
 74 48  1  0
 74 79  1  0
 74 75  1  0
 75 78  1  1
 75 76  1  0
 77 75  1  0
 79 82  1  0
 80 84  1  0
 80 79  1  0
 81 80  2  0
 84 83  1  0
 86 87  1  0
 86 84  1  0
 86 85  1  0
M  ISO  4   5 100   7 100  46 101  47 101
M  END
>  <TORSDO>  (36) 
F 20

>  <SCORE>  (36) 
-14.903

>  <name>  (36) 
35

>  <ligand_id>  (36) 
35

>  <original_smiles>  (36) 
[H]OC(=C([H])C(=O)N1C([H])([H])C([H])([H])C([H])([H])C([H])(n2nc(-c3c([H])c([H])c(Oc4c([H])c([H])c(F)c([H])c4F)c([H])c3[H])c(C(=O)N([H])[H])c2N([H])[H])C1([H])[H])C1([H])C([H])([H])C([H])(C([H])([H])C([H])([H])Oc2c([H])c([H])c3c(c2[H])C([H])([H])N(C(=O)C([H])(N([H])C(=O)C([H])(N([H])C([H])([H])[H])C([H])([H])[H])C(C([H])([H])[H])(C([H])([H])[H])C([H])([H])[H])C([H])(C(=O)N([H])C2([H])c4c([H])c([H])c([H])c([H])c4C([H])([H])C([H])([H])C2([H])[H])C3([H])[H])C1([H])[H]

>  <smiles>  (36) 
[H]OC(=C([H])C(=O)N1C([H])([H])C([H])([H])C([H])([H])C([H])(n2nc(-c3c([H])c([H])c(Oc4c([H])c([H])c(F)c([H])c4F)c([H])c3[H])c(C(=O)N([H])[H])c2N([H])[H])C1([H])[H])C1([H])C([H])([H])C([H])(C([H])([H])C([H])([H])Oc2c([H])c([H])c3c(c2[H])C([H])([H])N(C(=O)C([H])(N([H])C(=O)C([H])(N([H])C([H])([H])[H])C([H])([H])[H])C(C([H])([H])[H])(C([H])([H])[H])C([H])([H])[H])C([H])(C(=O)N([H])C2([H])c4c([H])c([H])c([H])c([H])c4C([H])([H])C([H])([H])C2([H])[H])C3([H])[H])C1([H])[H]

$$$$
36:0:0
     RDKit          3D

 86 94  0  0  1  0  0  0  0  0999 V2000
  -28.7400  -22.7160   20.4230 C   0  0  0  0  0  3  0  0  0  0  0  0
  -27.7160  -20.9160   18.7340 C   0  0  0  0  0  1  0  0  0  0  0  0
  -28.9290  -21.0970   19.6590 C   0  0  0  0  0  3  0  0  0  0  0  0
  -30.4890  -15.2890   19.8670 C   0  0  0  0  0  0  0  0  0  0  0  0
  -30.3640  -12.8670   18.9420 C   0  0  0  0  0  2  0  0  0  0  0  0
  -29.3620  -12.6960   17.7710 C   0  0  0  0  0  2  0  0  0  0  0  0
  -27.9450  -12.4320   18.3060 C   0  0  0  0  0  2  0  0  0  0  0  0
  -27.5890  -13.3710   19.4860 C   0  0  0  0  0  3  0  0  0  0  0  0
  -28.7110  -13.4740   20.5400 C   0  0  0  0  0  2  0  0  0  0  0  0
  -29.8910  -13.9940   19.8320 N   0  0  0  0  0  0  0  0  0  0  0  0
  -31.6690  -15.2620   19.4840 O   0  0  0  0  0  0  0  0  0  0  0  0
  -28.3550  -18.5410   20.9630 C   0  0  0  0  0  2  0  0  0  0  0  0
  -28.8290  -17.0080   21.0670 C   0  0  0  0  0  2  0  0  0  0  0  0
  -30.0270  -18.0830   19.4330 C   0  0  0  0  0  2  0  0  0  0  0  0
  -29.4000  -19.4530   20.2520 C   0  0  0  0  0  3  0  0  0  0  0  0
  -29.7860  -16.6010   20.0040 N   0  0  0  0  0  0  0  0  0  0  0  0
  -25.2790  -13.9310   20.4020 C   0  0  0  0  0  0  0  0  0  0  0  0
  -24.2380  -13.1520   20.8220 C   0  0  0  0  0  0  0  0  0  0  0  0
  -24.6910  -11.8000   20.7320 C   0  0  0  0  0  0  0  0  0  0  0  0
  -26.2950  -13.0540   20.0720 N   0  0  0  0  0  0  0  0  0  0  0  0
  -25.9600  -11.7650   20.3370 N   0  0  0  0  0  0  0  0  0  0  0  0
  -23.9680  -10.5390   20.9400 C   0  0  0  0  0  0  0  0  0  0  0  0
  -24.4360   -9.5580   21.8450 C   0  0  0  0  0  3  0  0  0  0  0  0
  -23.7100   -8.3650   22.0440 C   0  0  0  0  0  3  0  0  0  0  0  0
  -22.5020   -8.1430   21.3420 C   0  0  0  0  0  0  0  0  0  0  0  0
  -22.0530   -9.1120   20.4260 C   0  0  0  0  0  3  0  0  0  0  0  0
  -22.7800  -10.2980   20.2240 C   0  0  0  0  0  3  0  0  0  0  0  0
  -21.7430   -7.0030   21.4530 O   0  0  0  0  0  0  0  0  0  0  0  0
  -21.7170   -6.2650   22.6100 C   0  0  0  0  0  0  0  0  0  0  0  0
  -21.3370   -6.8300   23.8470 C   0  0  0  0  0  3  0  0  0  0  0  0
  -21.2600   -6.0190   24.9970 C   0  0  0  0  0  3  0  0  0  0  0  0
  -21.5510   -4.6450   24.9120 C   0  0  0  0  0  0  0  0  0  0  0  0
  -21.9250   -4.0800   23.6790 C   0  0  0  0  0  3  0  0  0  0  0  0
  -22.0050   -4.8880   22.5320 C   0  0  0  0  0  0  0  0  0  0  0  0
  -22.3440   -4.3320   21.3430 F   0  0  0  0  0  0  0  0  0  0  0  0
  -21.4710   -3.8650   26.0150 F   0  0  0  0  0  0  0  0  0  0  0  0
  -22.8650  -13.6320   21.1900 C   0  0  0  0  0  0  0  0  0  0  0  0
  -22.1920  -12.9250   22.0910 N   0  0  0  0  0  0  0  0  0  0  0  0
  -22.4010  -14.6690   20.7150 O   0  0  0  0  0  0  0  0  0  0  0  0
  -22.5820  -12.0830   22.4860 H   0  0  0  0  0  0  0  0  0  0  0  0
  -21.2750  -13.2290   22.3870 H   0  0  0  0  0  0  0  0  0  0  0  0
  -25.4430  -15.3040   20.2460 N   0  0  0  0  0  0  0  0  0  0  0  0
  -24.6940  -15.9660   20.4190 H   0  0  0  0  0  0  0  0  0  0  0  0
  -26.2810  -15.7410   19.8820 H   0  0  0  0  0  0  0  0  0  0  0  0
  -28.0760  -24.2920   19.8550 C   0  0  0  0  0  3  0  0  0  0  0  0
  -28.1820  -25.8690   20.3170 O   0  0  0  0  0  0  0  0  0  0  0  0
  -24.6090  -31.8460   23.1800 C   0  0  0  0  0  0  0  0  0  0  0  0
  -27.1780  -26.9620   20.2000 C   0  0  0  0  0  0  0  0  0  0  0  0
  -23.4280  -30.4450   21.5360 C   0  0  0  0  0  3  0  0  0  0  0  0
  -24.8840  -28.8370   20.1280 C   0  0  0  0  0  0  0  0  0  0  0  0
  -25.9940  -30.6560   21.4090 C   0  0  0  0  0  2  0  0  0  0  0  0
  -26.0650  -29.2440   20.7590 C   0  0  0  0  0  0  0  0  0  0  0  0
  -27.2050  -28.3250   20.7760 C   0  0  0  0  0  3  0  0  0  0  0  0
  -25.9720  -26.7090   19.5090 C   0  0  0  0  0  3  0  0  0  0  0  0
  -24.8610  -27.5890   19.4850 C   0  0  0  0  0  3  0  0  0  0  0  0
  -23.6660  -29.7580   20.1640 C   0  0  0  0  0  2  0  0  0  0  0  0
  -24.6990  -31.0100   22.0950 N   0  0  0  0  0  0  0  0  0  0  0  0
  -23.5170  -32.1390   23.6910 O   0  0  0  0  0  0  0  0  0  0  0  0
  -22.7250  -29.4540   22.5000 C   0  0  0  0  0  0  0  0  0  0  0  0
  -21.3950  -29.2890   22.3660 N   0  0  0  0  0  0  0  0  0  0  0  0
  -23.3840  -28.8340   23.3380 O   0  0  0  0  0  0  0  0  0  0  0  0
  -20.9170  -29.8410   21.6680 H   0  0  0  0  0  0  0  0  0  0  0  0
  -18.0120  -28.0700   22.8400 C   0  0  0  0  0  0  0  0  0  0  0  0
  -20.5670  -28.3540   23.1340 C   0  0  0  0  0  3  0  0  0  0  0  0
  -20.6840  -26.9160   22.5730 C   0  0  0  0  0  2  0  0  0  0  0  0
  -19.5960  -26.5790   21.5470 C   0  0  0  0  0  2  0  0  0  0  0  0
  -18.2040  -26.7180   22.1720 C   0  0  0  0  0  2  0  0  0  0  0  0
  -19.1200  -28.8440   23.2790 C   0  0  0  0  0  0  0  0  0  0  0  0
  -18.8830  -30.1070   23.8640 C   0  0  0  0  0  3  0  0  0  0  0  0
  -17.5720  -30.5950   24.0180 C   0  0  0  0  0  3  0  0  0  0  0  0
  -16.4790  -29.8190   23.5940 C   0  0  0  0  0  3  0  0  0  0  0  0
  -16.7000  -28.5590   23.0110 C   0  0  0  0  0  3  0  0  0  0  0  0
  -25.8750  -32.4900   23.8230 C   0  0  0  0  0  3  0  0  0  0  0  0
  -25.5550  -33.8920   24.1480 N   0  0  0  0  0  0  0  0  0  0  0  0
  -25.8870  -34.9490   23.3950 C   0  0  0  0  0  0  0  0  0  0  0  0
  -26.5560  -34.8470   22.3640 O   0  0  0  0  0  0  0  0  0  0  0  0
  -24.9530  -34.0440   24.9430 H   0  0  0  0  0  0  0  0  0  0  0  0
  -24.1520  -36.7460   23.0610 C   0  0  0  0  0  1  0  0  0  0  0  0
  -25.4030  -36.3390   23.8570 C   0  0  0  0  0  3  0  0  0  0  0  0
  -27.5430  -37.2330   24.6630 C   0  0  0  0  0  1  0  0  0  0  0  0
  -26.4310  -37.3940   23.7310 N   0  0  0  0  0  0  0  0  0  0  0  0
  -26.0250  -38.3150   23.8790 H   0  0  0  0  0  0  0  0  0  0  0  0
  -26.3650  -31.7320   25.1180 C   0  0  1  0  0  0  0  0  0  0  0  0
  -25.2530  -31.5140   26.1720 C   0  0  0  0  0  1  0  0  0  0  0  0
  -26.9500  -30.3460   24.7590 C   0  0  0  0  0  1  0  0  0  0  0  0
  -27.5070  -32.5290   25.7910 C   0  0  0  0  0  1  0  0  0  0  0  0
  3  2  1  0
  3  1  1  0
  4 16  1  0
  5 10  1  0
  6  7  1  0
  6  5  1  0
  8  7  1  0
  8 20  1  0
  8  9  1  0
 10  4  1  0
 10  9  1  0
 11  4  2  0
 12 13  1  0
 14 16  1  0
 14 15  1  0
 15  3  1  0
 15 12  1  0
 16 13  1  0
 17 18  2  0
 18 37  1  0
 19 18  1  0
 19 22  1  0
 20 21  1  0
 20 17  1  0
 21 19  2  0
 22 23  1  0
 23 24  2  0
 25 28  1  0
 25 24  1  0
 26 25  2  0
 27 26  1  0
 27 22  2  0
 28 29  1  0
 29 30  1  0
 30 31  2  0
 32 31  1  0
 32 36  1  0
 33 32  2  0
 34 29  2  0
 34 33  1  0
 35 34  1  0
 37 38  1  0
 38 41  1  0
 38 40  1  0
 39 37  2  0
 42 17  1  0
 42 43  1  0
 44 42  1  0
 45 46  1  0
 45  1  2  0
 47 58  2  0
 48 46  1  0
 48 53  1  0
 49 57  1  0
 49 59  1  0
 50 56  1  0
 50 52  1  0
 51 57  1  0
 52 53  2  0
 52 51  1  0
 54 48  2  0
 55 54  1  0
 55 50  2  0
 56 49  1  0
 57 47  1  0
 59 61  2  0
 60 59  1  0
 62 60  1  0
 63 72  2  0
 63 68  1  0
 64 60  1  0
 64 68  1  0
 65 64  1  0
 66 67  1  0
 66 65  1  0
 67 63  1  0
 68 69  2  0
 69 70  1  0
 71 70  2  0
 72 71  1  0
 73 47  1  0
 73 74  1  0
 73 83  1  0
 74 77  1  0
 75 79  1  0
 75 74  1  0
 76 75  2  0
 79 78  1  0
 81 79  1  0
 81 82  1  0
 81 80  1  0
 83 86  1  1
 83 84  1  0
 85 83  1  0
M  ISO  4   4 100  16 100  45 101  46 101
M  END
>  <TORSDO>  (37) 
F 18

>  <SCORE>  (37) 
-15.387

>  <name>  (37) 
36

>  <ligand_id>  (37) 
36

>  <original_smiles>  (37) 
[H]c1c([H])c([H])c2c(c1[H])C([H])([H])C([H])([H])C([H])([H])C2([H])N([H])C(=O)C1([H])N(C(=O)C([H])(N([H])C(=O)C([H])(N([H])C([H])([H])[H])C([H])([H])[H])C(C([H])([H])[H])(C([H])([H])[H])C([H])([H])[H])C([H])([H])c2c([H])c(OC([H])([H])C([H])([H])C([H])(C([H])([H])[H])C3([H])C([H])([H])N(C(=O)N4C([H])([H])C([H])([H])C([H])([H])C([H])(n5nc(-c6c([H])c([H])c(Oc7c([H])c([H])c(F)c([H])c7F)c([H])c6[H])c(C(=O)N([H])[H])c5N([H])[H])C4([H])[H])C([H])([H])C3([H])[H])c([H])c([H])c2C1([H])[H]

>  <smiles>  (37) 
[H]c1c([H])c([H])c2c(c1[H])C([H])([H])C([H])([H])C([H])([H])C2([H])N([H])C(=O)C1([H])N(C(=O)C([H])(N([H])C(=O)C([H])(N([H])C([H])([H])[H])C([H])([H])[H])C(C([H])([H])[H])(C([H])([H])[H])C([H])([H])[H])C([H])([H])c2c([H])c(OC([H])([H])C([H])([H])C([H])(C([H])([H])[H])C3([H])C([H])([H])N(C(=O)N4C([H])([H])C([H])([H])C([H])([H])C([H])(n5nc(-c6c([H])c([H])c(Oc7c([H])c([H])c(F)c([H])c7F)c([H])c6[H])c(C(=O)N([H])[H])c5N([H])[H])C4([H])[H])C([H])([H])C3([H])[H])c([H])c([H])c2C1([H])[H]

$$$$
37:0:0
     RDKit          3D

 89 97  0  0  1  0  0  0  0  0999 V2000
  -27.6260  -20.8170   19.4310 C   0  0  0  0  0  2  0  0  0  0  0  0
  -27.4290  -22.3450   19.1460 C   0  0  0  0  0  2  0  0  0  0  0  0
  -29.4210  -22.0430   20.3820 C   0  0  0  0  0  2  0  0  0  0  0  0
  -29.1130  -20.5410   19.7470 C   0  0  0  0  0  3  0  0  0  0  0  0
  -28.2640  -23.2050   20.1310 C   0  0  0  0  0  3  0  0  0  0  0  0
  -29.3580  -19.0460   20.4520 C   0  0  0  0  0  0  0  0  0  0  0  0
  -28.8820  -18.9010   21.5800 O   0  0  0  0  0  0  0  0  0  0  0  0
  -31.6750  -18.0470   20.0420 C   0  0  0  0  0  1  0  0  0  0  0  0
  -30.1880  -17.7330   19.7800 C   0  0  0  0  0  3  0  0  0  0  0  0
  -30.6320  -14.9940   19.9050 C   0  0  0  0  0  0  0  0  0  0  0  0
  -30.4100  -12.6610   18.9440 C   0  0  0  0  0  2  0  0  0  0  0  0
  -29.4020  -12.6560   17.7720 C   0  0  0  0  0  2  0  0  0  0  0  0
  -27.9690  -12.4470   18.2970 C   0  0  0  0  0  2  0  0  0  0  0  0
  -27.6500  -13.3470   19.5200 C   0  0  0  0  0  3  0  0  0  0  0  0
  -28.7780  -13.3350   20.5740 C   0  0  0  0  0  2  0  0  0  0  0  0
  -30.0100  -13.7460   19.8910 N   0  0  0  0  0  0  0  0  0  0  0  0
  -31.7980  -15.0230   19.5020 O   0  0  0  0  0  0  0  0  0  0  0  0
  -29.9170  -16.2060   20.1600 N   0  0  0  0  0  0  0  0  0  0  0  0
  -28.9880  -16.0500   20.5210 H   0  0  0  0  0  0  0  0  0  0  0  0
  -25.3340  -13.9170   20.4420 C   0  0  0  0  0  0  0  0  0  0  0  0
  -24.2910  -13.1380   20.8610 C   0  0  0  0  0  0  0  0  0  0  0  0
  -24.7400  -11.7850   20.7550 C   0  0  0  0  0  0  0  0  0  0  0  0
  -26.3490  -13.0400   20.1010 N   0  0  0  0  0  0  0  0  0  0  0  0
  -26.0060  -11.7510   20.3550 N   0  0  0  0  0  0  0  0  0  0  0  0
  -24.0150  -10.5230   20.9550 C   0  0  0  0  0  0  0  0  0  0  0  0
  -24.4770   -9.5430   21.8600 C   0  0  0  0  0  3  0  0  0  0  0  0
  -23.7530   -8.3460   22.0500 C   0  0  0  0  0  3  0  0  0  0  0  0
  -22.5530   -8.1210   21.3350 C   0  0  0  0  0  0  0  0  0  0  0  0
  -22.1100   -9.0890   20.4160 C   0  0  0  0  0  3  0  0  0  0  0  0
  -22.8350  -10.2780   20.2250 C   0  0  0  0  0  3  0  0  0  0  0  0
  -21.7960   -6.9780   21.4370 O   0  0  0  0  0  0  0  0  0  0  0  0
  -21.7520   -6.2450   22.5950 C   0  0  0  0  0  0  0  0  0  0  0  0
  -21.3250   -6.8070   23.8170 C   0  0  0  0  0  3  0  0  0  0  0  0
  -21.2290   -5.9990   24.9690 C   0  0  0  0  0  3  0  0  0  0  0  0
  -21.5510   -4.6310   24.8980 C   0  0  0  0  0  0  0  0  0  0  0  0
  -21.9710   -4.0670   23.6800 C   0  0  0  0  0  3  0  0  0  0  0  0
  -22.0690   -4.8730   22.5310 C   0  0  0  0  0  0  0  0  0  0  0  0
  -22.4550   -4.3210   21.3550 F   0  0  0  0  0  0  0  0  0  0  0  0
  -21.4520   -3.8510   26.0000 F   0  0  0  0  0  0  0  0  0  0  0  0
  -22.9200  -13.6160   21.2410 C   0  0  0  0  0  0  0  0  0  0  0  0
  -22.2460  -12.8990   22.1330 N   0  0  0  0  0  0  0  0  0  0  0  0
  -22.4580  -14.6590   20.7820 O   0  0  0  0  0  0  0  0  0  0  0  0
  -22.6340  -12.0530   22.5260 H   0  0  0  0  0  0  0  0  0  0  0  0
  -21.3280  -13.1990   22.4290 H   0  0  0  0  0  0  0  0  0  0  0  0
  -25.4970  -15.2920   20.2930 N   0  0  0  0  0  0  0  0  0  0  0  0
  -24.7430  -15.9460   20.4750 H   0  0  0  0  0  0  0  0  0  0  0  0
  -26.3120  -15.7320   19.8880 H   0  0  0  0  0  0  0  0  0  0  0  0
  -28.4390  -24.8040   19.5680 C   0  0  0  0  0  2  0  0  0  0  0  0
  -28.2980  -26.2180   20.2080 O   0  0  0  0  0  0  0  0  0  0  0  0
  -24.6330  -31.8440   23.1650 C   0  0  0  0  0  0  0  0  0  0  0  0
  -27.2190  -27.1650   20.0860 C   0  0  0  0  0  0  0  0  0  0  0  0
  -23.4290  -30.4530   21.5230 C   0  0  0  0  0  3  0  0  0  0  0  0
  -24.8750  -28.8910   20.0730 C   0  0  0  0  0  0  0  0  0  0  0  0
  -25.9780  -30.7330   21.3420 C   0  0  0  0  0  2  0  0  0  0  0  0
  -26.0510  -29.3450   20.6800 C   0  0  0  0  0  0  0  0  0  0  0  0
  -27.2170  -28.4940   20.6750 C   0  0  0  0  0  3  0  0  0  0  0  0
  -26.0180  -26.8090   19.4360 C   0  0  0  0  0  3  0  0  0  0  0  0
  -24.8710  -27.6390   19.4350 C   0  0  0  0  0  3  0  0  0  0  0  0
  -23.6410  -29.7800   20.1370 C   0  0  0  0  0  2  0  0  0  0  0  0
  -24.7000  -31.0330   22.0640 N   0  0  0  0  0  0  0  0  0  0  0  0
  -23.5510  -32.1190   23.7040 O   0  0  0  0  0  0  0  0  0  0  0  0
  -22.7620  -29.4400   22.4850 C   0  0  0  0  0  0  0  0  0  0  0  0
  -21.4310  -29.2790   22.3790 N   0  0  0  0  0  0  0  0  0  0  0  0
  -23.4440  -28.8010   23.2900 O   0  0  0  0  0  0  0  0  0  0  0  0
  -20.9370  -29.8440   21.7030 H   0  0  0  0  0  0  0  0  0  0  0  0
  -18.0510  -28.0960   22.9240 C   0  0  0  0  0  0  0  0  0  0  0  0
  -20.6170  -28.3370   23.1520 C   0  0  0  0  0  3  0  0  0  0  0  0
  -20.6990  -26.9130   22.5580 C   0  0  0  0  0  2  0  0  0  0  0  0
  -19.5790  -26.6120   21.5570 C   0  0  0  0  0  2  0  0  0  0  0  0
  -18.2090  -26.7550   22.2250 C   0  0  0  0  0  2  0  0  0  0  0  0
  -19.1820  -28.8460   23.3450 C   0  0  0  0  0  0  0  0  0  0  0  0
  -18.9780  -30.0990   23.9610 C   0  0  0  0  0  3  0  0  0  0  0  0
  -17.6790  -30.6050   24.1560 C   0  0  0  0  0  3  0  0  0  0  0  0
  -16.5640  -29.8520   23.7490 C   0  0  0  0  0  3  0  0  0  0  0  0
  -16.7500  -28.5990   23.1400 C   0  0  0  0  0  3  0  0  0  0  0  0
  -25.9130  -32.4810   23.7890 C   0  0  0  0  0  3  0  0  0  0  0  0
  -26.4430  -31.6990   25.0540 C   0  0  1  0  0  0  0  0  0  0  0  0
  -25.3580  -31.4430   26.1270 C   0  0  0  0  0  1  0  0  0  0  0  0
  -27.0290  -30.3290   24.6450 C   0  0  0  0  0  1  0  0  0  0  0  0
  -27.5950  -32.4900   25.7180 C   0  0  0  0  0  1  0  0  0  0  0  0
  -25.5940  -33.8730   24.1470 N   0  0  0  0  0  0  0  0  0  0  0  0
  -25.9060  -34.9440   23.4080 C   0  0  0  0  0  0  0  0  0  0  0  0
  -26.5600  -34.8670   22.3650 O   0  0  0  0  0  0  0  0  0  0  0  0
  -25.0100  -34.0060   24.9610 H   0  0  0  0  0  0  0  0  0  0  0  0
  -24.1580  -36.7310   23.1210 C   0  0  0  0  0  1  0  0  0  0  0  0
  -25.4160  -36.3210   23.9020 C   0  0  0  0  0  3  0  0  0  0  0  0
  -27.5570  -37.2100   24.7120 C   0  0  0  0  0  1  0  0  0  0  0  0
  -26.4380  -37.3850   23.7900 N   0  0  0  0  0  0  0  0  0  0  0  0
  -26.0260  -38.2990   23.9600 H   0  0  0  0  0  0  0  0  0  0  0  0
  1  4  1  0
  2  1  1  0
  2  5  1  0
  4  3  1  0
  4  6  1  0
  5 48  1  0
  5  3  1  0
  6  7  2  0
  9  8  1  0
  9 18  1  0
  9  6  1  0
 10 18  1  0
 11 16  1  0
 12 13  1  0
 12 11  1  0
 14 13  1  0
 14 23  1  0
 14 15  1  0
 16 10  1  0
 16 15  1  0
 17 10  2  0
 18 19  1  0
 20 21  2  0
 21 40  1  0
 22 21  1  0
 22 25  1  0
 23 24  1  0
 23 20  1  0
 24 22  2  0
 25 26  1  0
 26 27  2  0
 28 31  1  0
 28 27  1  0
 29 28  2  0
 30 29  1  0
 30 25  2  0
 31 32  1  0
 32 33  1  0
 33 34  2  0
 35 34  1  0
 35 39  1  0
 36 35  2  0
 37 32  2  0
 37 36  1  0
 38 37  1  0
 40 41  1  0
 41 44  1  0
 41 43  1  0
 42 40  2  0
 45 20  1  0
 45 46  1  0
 47 45  1  0
 48 49  1  0
 50 61  2  0
 51 49  1  0
 51 56  1  0
 52 60  1  0
 52 62  1  0
 53 59  1  0
 53 55  1  0
 54 60  1  0
 55 54  1  0
 56 55  2  0
 57 51  2  0
 58 57  1  0
 58 53  2  0
 59 52  1  0
 60 50  1  0
 62 64  2  0
 63 62  1  0
 65 63  1  0
 66 75  2  0
 66 71  1  0
 67 63  1  0
 67 71  1  0
 68 67  1  0
 69 70  1  0
 69 68  1  0
 70 66  1  0
 71 72  2  0
 72 73  1  0
 74 73  2  0
 75 74  1  0
 76 50  1  0
 76 81  1  0
 76 77  1  0
 77 80  1  1
 77 78  1  0
 79 77  1  0
 81 84  1  0
 82 86  1  0
 82 81  1  0
 83 82  2  0
 86 85  1  0
 88 86  1  0
 88 89  1  0
 88 87  1  0
M  ISO  4  10 100  18 100  48 101  49 101
M  END
>  <TORSDO>  (38) 
F 19

>  <SCORE>  (38) 
-13.885

>  <name>  (38) 
37

>  <ligand_id>  (38) 
37

>  <original_smiles>  (38) 
[H]c1c([H])c([H])c2c(c1[H])C([H])([H])C([H])([H])C([H])([H])C2([H])N([H])C(=O)C1([H])N(C(=O)C([H])(N([H])C(=O)C([H])(N([H])C([H])([H])[H])C([H])([H])[H])C(C([H])([H])[H])(C([H])([H])[H])C([H])([H])[H])C([H])([H])c2c([H])c(OC([H])([H])C3([H])C([H])([H])C([H])([H])C([H])(C(=O)C([H])(N([H])C(=O)N4C([H])([H])C([H])([H])C([H])([H])C([H])(n5nc(-c6c([H])c([H])c(Oc7c([H])c([H])c(F)c([H])c7F)c([H])c6[H])c(C(=O)N([H])[H])c5N([H])[H])C4([H])[H])C([H])([H])[H])C3([H])[H])c([H])c([H])c2C1([H])[H]

>  <smiles>  (38) 
[H]c1c([H])c([H])c2c(c1[H])C([H])([H])C([H])([H])C([H])([H])C2([H])N([H])C(=O)C1([H])N(C(=O)C([H])(N([H])C(=O)C([H])(N([H])C([H])([H])[H])C([H])([H])[H])C(C([H])([H])[H])(C([H])([H])[H])C([H])([H])[H])C([H])([H])c2c([H])c(OC([H])([H])C3([H])C([H])([H])C([H])([H])C([H])(C(=O)C([H])(N([H])C(=O)N4C([H])([H])C([H])([H])C([H])([H])C([H])(n5nc(-c6c([H])c([H])c(Oc7c([H])c([H])c(F)c([H])c7F)c([H])c6[H])c(C(=O)N([H])[H])c5N([H])[H])C4([H])[H])C([H])([H])[H])C3([H])[H])c([H])c([H])c2C1([H])[H]

$$$$
38:0:0
     RDKit          3D

 86 94  0  0  1  0  0  0  0  0999 V2000
  -28.7240  -20.4270   20.6330 C   0  0  0  0  0  2  0  0  0  0  0  0
  -30.4250  -15.7660   20.9850 C   0  0  0  0  0  0  0  0  0  0  0  0
  -30.6590  -13.1870   20.3830 C   0  0  0  0  0  2  0  0  0  0  0  0
  -29.9390  -12.6740   19.1060 C   0  0  0  0  0  2  0  0  0  0  0  0
  -28.4700  -12.3320   19.4000 C   0  0  0  0  0  2  0  0  0  0  0  0
  -27.8080  -13.3860   20.3190 C   0  0  0  0  0  3  0  0  0  0  0  0
  -28.6870  -13.8140   21.5150 C   0  0  0  0  0  2  0  0  0  0  0  0
  -29.9220  -14.4000   20.9480 N   0  0  0  0  0  0  0  0  0  0  0  0
  -31.6650  -15.7140   21.0920 O   0  0  0  0  0  0  0  0  0  0  0  0
  -30.2910  -18.5680   19.2180 C   0  0  0  0  0  3  0  0  0  0  0  0
  -29.3210  -17.3660   19.2530 C   0  0  0  0  0  3  0  0  0  0  0  0
  -29.8430  -18.8720   20.6280 C   0  0  0  0  0  3  0  0  0  0  0  0
  -31.7750  -18.3800   18.9130 C   0  0  0  0  0  1  0  0  0  0  0  0
  -29.5500  -16.2460   18.2320 C   0  0  0  0  0  1  0  0  0  0  0  0
  -29.6800  -17.1080   20.6790 N   0  0  0  0  0  0  0  0  0  0  0  0
  -25.3720  -13.9080   20.7980 C   0  0  0  0  0  0  0  0  0  0  0  0
  -24.2860  -13.1210   21.0480 C   0  0  0  0  0  0  0  0  0  0  0  0
  -24.7720  -11.7780   21.0970 C   0  0  0  0  0  0  0  0  0  0  0  0
  -26.4460  -13.0450   20.6940 N   0  0  0  0  0  0  0  0  0  0  0  0
  -26.0930  -11.7570   20.9410 N   0  0  0  0  0  0  0  0  0  0  0  0
  -24.0450  -10.5080   21.2230 C   0  0  0  0  0  0  0  0  0  0  0  0
  -24.3620   -9.5720   22.2300 C   0  0  0  0  0  3  0  0  0  0  0  0
  -23.6340   -8.3680   22.3450 C   0  0  0  0  0  3  0  0  0  0  0  0
  -22.5730   -8.0940   21.4490 C   0  0  0  0  0  0  0  0  0  0  0  0
  -22.2750   -9.0190   20.4340 C   0  0  0  0  0  3  0  0  0  0  0  0
  -23.0040  -10.2140   20.3180 C   0  0  0  0  0  3  0  0  0  0  0  0
  -21.8270   -6.9390   21.4670 O   0  0  0  0  0  0  0  0  0  0  0  0
  -21.6110   -6.2420   22.6280 C   0  0  0  0  0  0  0  0  0  0  0  0
  -20.9710   -6.8280   23.7420 C   0  0  0  0  0  3  0  0  0  0  0  0
  -20.7060   -6.0540   24.8890 C   0  0  0  0  0  3  0  0  0  0  0  0
  -21.0700   -4.6940   24.9220 C   0  0  0  0  0  0  0  0  0  0  0  0
  -21.7030   -4.1080   23.8130 C   0  0  0  0  0  3  0  0  0  0  0  0
  -21.9700   -4.8780   22.6680 C   0  0  0  0  0  0  0  0  0  0  0  0
  -22.5600   -4.3030   21.5920 F   0  0  0  0  0  0  0  0  0  0  0  0
  -20.8090   -3.9490   26.0220 F   0  0  0  0  0  0  0  0  0  0  0  0
  -22.8610  -13.5820   21.1360 C   0  0  0  0  0  0  0  0  0  0  0  0
  -22.0480  -12.9070   21.9390 N   0  0  0  0  0  0  0  0  0  0  0  0
  -22.4740  -14.5790   20.5270 O   0  0  0  0  0  0  0  0  0  0  0  0
  -22.3700  -12.1030   22.4570 H   0  0  0  0  0  0  0  0  0  0  0  0
  -21.0870  -13.2020   22.0400 H   0  0  0  0  0  0  0  0  0  0  0  0
  -25.5350  -15.2800   20.6180 N   0  0  0  0  0  0  0  0  0  0  0  0
  -24.7520  -15.9240   20.6360 H   0  0  0  0  0  0  0  0  0  0  0  0
  -26.4160  -15.7330   20.4120 H   0  0  0  0  0  0  0  0  0  0  0  0
  -28.9290  -22.3100   20.3040 C   0  0  0  0  0  3  0  0  0  0  0  0
  -27.9250  -23.9490   20.2860 C   0  0  0  0  0  3  0  0  0  0  0  0
  -28.1250  -25.6770   20.1610 O   0  0  0  0  0  0  0  0  0  0  0  0
  -24.6190  -31.9040   23.1170 C   0  0  0  0  0  0  0  0  0  0  0  0
  -27.1370  -26.8600   20.1300 C   0  0  0  0  0  0  0  0  0  0  0  0
  -23.4210  -30.4980   21.4940 C   0  0  0  0  0  3  0  0  0  0  0  0
  -24.8600  -28.8570   20.0770 C   0  0  0  0  0  0  0  0  0  0  0  0
  -25.9960  -30.6610   21.3460 C   0  0  0  0  0  2  0  0  0  0  0  0
  -26.0600  -29.2310   20.6960 C   0  0  0  0  0  0  0  0  0  0  0  0
  -27.1860  -28.2590   20.6870 C   0  0  0  0  0  3  0  0  0  0  0  0
  -25.9040  -26.6840   19.4560 C   0  0  0  0  0  3  0  0  0  0  0  0
  -24.8180  -27.6100   19.4320 C   0  0  0  0  0  3  0  0  0  0  0  0
  -23.6500  -29.7990   20.1240 C   0  0  0  0  0  2  0  0  0  0  0  0
  -24.7030  -31.0540   22.0380 N   0  0  0  0  0  0  0  0  0  0  0  0
  -23.5290  -32.2010   23.6370 O   0  0  0  0  0  0  0  0  0  0  0  0
  -22.7190  -29.5190   22.4740 C   0  0  0  0  0  0  0  0  0  0  0  0
  -21.3870  -29.3560   22.3570 N   0  0  0  0  0  0  0  0  0  0  0  0
  -23.3860  -28.9030   23.3090 O   0  0  0  0  0  0  0  0  0  0  0  0
  -20.9010  -29.9020   21.6590 H   0  0  0  0  0  0  0  0  0  0  0  0
  -18.0050  -28.1490   22.9140 C   0  0  0  0  0  0  0  0  0  0  0  0
  -20.5700  -28.4200   23.1400 C   0  0  0  0  0  3  0  0  0  0  0  0
  -20.6640  -26.9870   22.5660 C   0  0  0  0  0  2  0  0  0  0  0  0
  -19.5490  -26.6640   21.5660 C   0  0  0  0  0  2  0  0  0  0  0  0
  -18.1760  -26.8030   22.2290 C   0  0  0  0  0  2  0  0  0  0  0  0
  -19.1290  -28.9150   23.3270 C   0  0  0  0  0  0  0  0  0  0  0  0
  -18.9120  -30.1700   23.9360 C   0  0  0  0  0  3  0  0  0  0  0  0
  -17.6070  -30.6640   24.1280 C   0  0  0  0  0  3  0  0  0  0  0  0
  -16.5000  -29.8960   23.7280 C   0  0  0  0  0  3  0  0  0  0  0  0
  -16.7000  -28.6390   23.1280 C   0  0  0  0  0  3  0  0  0  0  0  0
  -25.8870  -32.5600   23.7430 C   0  0  0  0  0  3  0  0  0  0  0  0
  -25.5540  -33.9520   24.1050 N   0  0  0  0  0  0  0  0  0  0  0  0
  -25.8750  -35.0350   23.3820 C   0  0  0  0  0  0  0  0  0  0  0  0
  -26.5410  -34.9660   22.3460 O   0  0  0  0  0  0  0  0  0  0  0  0
  -24.9580  -34.0770   24.9100 H   0  0  0  0  0  0  0  0  0  0  0  0
  -24.1420  -36.8400   23.0870 C   0  0  0  0  0  1  0  0  0  0  0  0
  -25.3860  -36.4110   23.8830 C   0  0  0  0  0  3  0  0  0  0  0  0
  -27.5150  -37.2820   24.7440 C   0  0  0  0  0  1  0  0  0  0  0  0
  -26.4150  -37.4710   23.8020 N   0  0  0  0  0  0  0  0  0  0  0  0
  -26.0050  -38.3850   23.9710 H   0  0  0  0  0  0  0  0  0  0  0  0
  -26.4140  -31.7890   25.0190 C   0  0  1  0  0  0  0  0  0  0  0  0
  -25.3280  -31.5410   26.0920 C   0  0  0  0  0  1  0  0  0  0  0  0
  -27.0050  -30.4160   24.6310 C   0  0  0  0  0  1  0  0  0  0  0  0
  -27.5640  -32.5890   25.6760 C   0  0  0  0  0  1  0  0  0  0  0  0
  2  9  2  0
  3  8  1  0
  4  5  1  0
  4  3  1  0
  6  5  1  0
  6 19  1  0
  6  7  1  0
  8  2  1  0
  8  7  1  0
 10 13  1  0
 10 11  1  0
 10 12  1  0
 11 14  1  0
 11 15  1  0
 12  1  1  0
 12 15  1  0
 15  2  1  0
 16 17  2  0
 17 18  1  0
 17 36  1  0
 18 21  1  0
 19 16  1  0
 19 20  1  0
 20 18  2  0
 21 22  1  0
 22 23  2  0
 24 27  1  0
 24 23  1  0
 25 24  2  0
 26 25  1  0
 26 21  2  0
 27 28  1  0
 28 33  2  0
 28 29  1  0
 29 30  2  0
 30 31  1  0
 31 35  1  0
 32 31  2  0
 33 32  1  0
 34 33  1  0
 36 37  1  0
 37 40  1  0
 37 39  1  0
 38 36  2  0
 41 42  1  0
 41 16  1  0
 43 41  1  0
 44  1  1  0
 45 44  2  0
 46 45  1  0
 47 58  2  0
 48 46  1  0
 48 53  1  0
 49 57  1  0
 49 59  1  0
 50 56  1  0
 50 52  1  0
 51 57  1  0
 52 51  1  0
 53 52  2  0
 54 48  2  0
 55 54  1  0
 55 50  2  0
 56 49  1  0
 57 47  1  0
 59 61  2  0
 60 59  1  0
 62 60  1  0
 63 72  2  0
 63 68  1  0
 64 60  1  0
 64 68  1  0
 65 64  1  0
 66 67  1  0
 66 65  1  0
 67 63  1  0
 68 69  2  0
 69 70  1  0
 71 70  2  0
 72 71  1  0
 73 47  1  0
 73 74  1  0
 73 83  1  0
 74 77  1  0
 75 79  1  0
 75 74  1  0
 76 75  2  0
 79 78  1  0
 81 79  1  0
 81 82  1  0
 81 80  1  0
 83 86  1  1
 83 84  1  0
 85 83  1  0
M  ISO  4   2 100  15 100  45 101  46 101
M  END
>  <TORSDO>  (39) 
F 18

>  <SCORE>  (39) 
-15.226

>  <name>  (39) 
38

>  <ligand_id>  (39) 
38

>  <original_smiles>  (39) 
[H]c1c([H])c([H])c2c(c1[H])C([H])([H])C([H])([H])C([H])([H])C2([H])N([H])C(=O)C1([H])N(C(=O)C([H])(N([H])C(=O)C([H])(N([H])C([H])([H])[H])C([H])([H])[H])C(C([H])([H])[H])(C([H])([H])[H])C([H])([H])[H])C([H])([H])c2c([H])c(OC([H])([H])C([H])([H])C([H])([H])C3([H])N(C(=O)N4C([H])([H])C([H])([H])C([H])([H])C([H])(n5nc(-c6c([H])c([H])c(Oc7c([H])c([H])c(F)c([H])c7F)c([H])c6[H])c(C(=O)N([H])[H])c5N([H])[H])C4([H])[H])C([H])(C([H])([H])[H])C3([H])C([H])([H])[H])c([H])c([H])c2C1([H])[H]

>  <smiles>  (39) 
[H]c1c([H])c([H])c2c(c1[H])C([H])([H])C([H])([H])C([H])([H])C2([H])N([H])C(=O)C1([H])N(C(=O)C([H])(N([H])C(=O)C([H])(N([H])C([H])([H])[H])C([H])([H])[H])C(C([H])([H])[H])(C([H])([H])[H])C([H])([H])[H])C([H])([H])c2c([H])c(OC([H])([H])C([H])([H])C([H])([H])C3([H])N(C(=O)N4C([H])([H])C([H])([H])C([H])([H])C([H])(n5nc(-c6c([H])c([H])c(Oc7c([H])c([H])c(F)c([H])c7F)c([H])c6[H])c(C(=O)N([H])[H])c5N([H])[H])C4([H])[H])C([H])(C([H])([H])[H])C3([H])C([H])([H])[H])c([H])c([H])c2C1([H])[H]

$$$$
39:0:0
     RDKit          3D

 90 98  0  0  1  0  0  0  0  0999 V2000
  -28.2100  -20.4750   20.6890 C   0  0  0  0  0  3  0  0  0  0  0  0
  -30.4030  -21.1460   20.4670 C   0  0  0  0  0  3  0  0  0  0  0  0
  -27.7920  -21.8850   20.5660 C   0  0  0  0  0  3  0  0  0  0  0  0
  -29.9880  -22.5620   20.3350 C   0  0  0  0  0  3  0  0  0  0  0  0
  -29.5620  -19.9610   20.6370 C   0  0  0  0  0  0  0  0  0  0  0  0
  -28.6300  -23.0590   20.3820 C   0  0  0  0  0  0  0  0  0  0  0  0
  -30.1360  -18.4020   20.9280 C   0  0  0  0  0  0  0  0  0  0  0  0
  -31.1800  -18.4060   21.6410 N   0  0  0  0  0  0  0  0  0  0  0  0
  -31.4410  -19.3520   21.8990 H   0  0  0  0  0  0  0  0  0  0  0  0
  -29.6550  -16.8040   20.4610 C   0  0  0  0  0  3  0  0  0  0  0  0
  -30.5330  -15.3150   20.6010 C   0  0  0  0  0  0  0  0  0  0  0  0
  -30.5510  -12.8960   19.7340 C   0  0  0  0  0  2  0  0  0  0  0  0
  -29.6840  -12.7610   18.4560 C   0  0  0  0  0  2  0  0  0  0  0  0
  -28.2100  -12.5010   18.8180 C   0  0  0  0  0  2  0  0  0  0  0  0
  -27.7130  -13.4430   19.9440 C   0  0  0  0  0  3  0  0  0  0  0  0
  -28.7090  -13.5440   21.1160 C   0  0  0  0  0  2  0  0  0  0  0  0
  -29.9940  -14.0090   20.5750 N   0  0  0  0  0  0  0  0  0  0  0  0
  -31.7630  -15.3330   20.4500 O   0  0  0  0  0  0  0  0  0  0  0  0
  -25.3010  -13.9800   20.5900 C   0  0  0  0  0  0  0  0  0  0  0  0
  -24.2310  -13.1890   20.9070 C   0  0  0  0  0  0  0  0  0  0  0  0
  -24.7180  -11.8460   20.9050 C   0  0  0  0  0  0  0  0  0  0  0  0
  -26.3640  -13.1170   20.3900 N   0  0  0  0  0  0  0  0  0  0  0  0
  -26.0230  -11.8290   20.6530 N   0  0  0  0  0  0  0  0  0  0  0  0
  -24.0020  -10.5740   21.0710 C   0  0  0  0  0  0  0  0  0  0  0  0
  -24.3970   -9.6220   22.0370 C   0  0  0  0  0  3  0  0  0  0  0  0
  -23.6770   -8.4180   22.1910 C   0  0  0  0  0  3  0  0  0  0  0  0
  -22.5490   -8.1560   21.3790 C   0  0  0  0  0  0  0  0  0  0  0  0
  -22.1730   -9.0960   20.4040 C   0  0  0  0  0  3  0  0  0  0  0  0
  -22.8930  -10.2930   20.2480 C   0  0  0  0  0  3  0  0  0  0  0  0
  -21.8060   -7.0010   21.4380 O   0  0  0  0  0  0  0  0  0  0  0  0
  -21.6970   -6.2750   22.5960 C   0  0  0  0  0  0  0  0  0  0  0  0
  -21.1480   -6.8290   23.7730 C   0  0  0  0  0  3  0  0  0  0  0  0
  -20.9890   -6.0260   24.9210 C   0  0  0  0  0  3  0  0  0  0  0  0
  -21.3710   -4.6710   24.8910 C   0  0  0  0  0  0  0  0  0  0  0  0
  -21.9130   -4.1170   23.7180 C   0  0  0  0  0  3  0  0  0  0  0  0
  -22.0720   -4.9170   22.5720 C   0  0  0  0  0  0  0  0  0  0  0  0
  -22.5750   -4.3730   21.4380 F   0  0  0  0  0  0  0  0  0  0  0  0
  -21.2130   -3.8960   25.9890 F   0  0  0  0  0  0  0  0  0  0  0  0
  -22.8160  -13.6480   21.1080 C   0  0  0  0  0  0  0  0  0  0  0  0
  -22.0610  -12.9510   21.9490 N   0  0  0  0  0  0  0  0  0  0  0  0
  -22.3870  -14.6600   20.5530 O   0  0  0  0  0  0  0  0  0  0  0  0
  -22.4220  -12.1330   22.4170 H   0  0  0  0  0  0  0  0  0  0  0  0
  -21.1090  -13.2380   22.1280 H   0  0  0  0  0  0  0  0  0  0  0  0
  -25.4610  -15.3530   20.4340 N   0  0  0  0  0  0  0  0  0  0  0  0
  -24.7020  -16.0110   20.5740 H   0  0  0  0  0  0  0  0  0  0  0  0
  -26.3450  -15.7990   20.2340 H   0  0  0  0  0  0  0  0  0  0  0  0
  -27.8370  -17.4460   18.6880 C   0  0  0  0  0  1  0  0  0  0  0  0
  -29.2450  -16.8990   18.9650 C   0  0  0  0  0  2  0  0  0  0  0  0
  -27.9650  -24.5970   20.0190 C   0  0  0  0  0  2  0  0  0  0  0  0
  -28.2800  -26.1250   20.3850 O   0  0  0  0  0  0  0  0  0  0  0  0
  -24.6220  -31.9600   23.2740 C   0  0  0  0  0  0  0  0  0  0  0  0
  -27.2610  -27.1850   20.2750 C   0  0  0  0  0  0  0  0  0  0  0  0
  -23.4500  -30.5480   21.6320 C   0  0  0  0  0  3  0  0  0  0  0  0
  -24.9260  -28.9810   20.2120 C   0  0  0  0  0  0  0  0  0  0  0  0
  -26.0090  -30.8140   21.4910 C   0  0  0  0  0  2  0  0  0  0  0  0
  -26.1000  -29.4140   20.8410 C   0  0  0  0  0  0  0  0  0  0  0  0
  -27.2630  -28.5350   20.8560 C   0  0  0  0  0  3  0  0  0  0  0  0
  -26.0620  -26.8930   19.5820 C   0  0  0  0  0  3  0  0  0  0  0  0
  -24.9270  -27.7390   19.5620 C   0  0  0  0  0  3  0  0  0  0  0  0
  -23.6900  -29.8750   20.2550 C   0  0  0  0  0  2  0  0  0  0  0  0
  -24.7140  -31.1320   22.1860 N   0  0  0  0  0  0  0  0  0  0  0  0
  -23.5280  -32.2360   23.7910 O   0  0  0  0  0  0  0  0  0  0  0  0
  -22.7710  -29.5390   22.5950 C   0  0  0  0  0  0  0  0  0  0  0  0
  -21.4460  -29.3480   22.4580 N   0  0  0  0  0  0  0  0  0  0  0  0
  -23.4420  -28.9290   23.4310 O   0  0  0  0  0  0  0  0  0  0  0  0
  -20.9570  -29.8950   21.7620 H   0  0  0  0  0  0  0  0  0  0  0  0
  -18.0780  -28.0960   22.9470 C   0  0  0  0  0  0  0  0  0  0  0  0
  -20.6320  -28.4020   23.2270 C   0  0  0  0  0  3  0  0  0  0  0  0
  -20.7590  -26.9680   22.6620 C   0  0  0  0  0  2  0  0  0  0  0  0
  -19.6700  -26.6230   21.6420 C   0  0  0  0  0  2  0  0  0  0  0  0
  -18.2800  -26.7500   22.2730 C   0  0  0  0  0  2  0  0  0  0  0  0
  -19.1820  -28.8790   23.3800 C   0  0  0  0  0  0  0  0  0  0  0  0
  -18.9360  -30.1380   23.9710 C   0  0  0  0  0  3  0  0  0  0  0  0
  -17.6210  -30.6150   24.1320 C   0  0  0  0  0  3  0  0  0  0  0  0
  -16.5330  -29.8300   23.7120 C   0  0  0  0  0  3  0  0  0  0  0  0
  -16.7620  -28.5720   23.1260 C   0  0  0  0  0  3  0  0  0  0  0  0
  -25.8860  -32.6170   23.9090 C   0  0  0  0  0  3  0  0  0  0  0  0
  -26.3790  -31.8800   25.2150 C   0  0  1  0  0  0  0  0  0  0  0  0
  -25.2650  -31.6650   26.2670 C   0  0  0  0  0  1  0  0  0  0  0  0
  -26.9740  -30.4960   24.8740 C   0  0  0  0  0  1  0  0  0  0  0  0
  -27.5120  -32.6960   25.8800 C   0  0  0  0  0  1  0  0  0  0  0  0
  -25.5620  -34.0210   24.2110 N   0  0  0  0  0  0  0  0  0  0  0  0
  -25.8890  -35.0670   23.4410 C   0  0  0  0  0  0  0  0  0  0  0  0
  -26.5630  -34.9530   22.4130 O   0  0  0  0  0  0  0  0  0  0  0  0
  -24.9710  -34.1860   25.0110 H   0  0  0  0  0  0  0  0  0  0  0  0
  -24.1540  -36.8520   23.0610 C   0  0  0  0  0  1  0  0  0  0  0  0
  -25.3930  -36.4600   23.8810 C   0  0  0  0  0  3  0  0  0  0  0  0
  -27.5190  -37.3670   24.7120 C   0  0  0  0  0  1  0  0  0  0  0  0
  -26.4190  -37.5200   23.7640 N   0  0  0  0  0  0  0  0  0  0  0  0
  -26.0030  -38.4370   23.9060 H   0  0  0  0  0  0  0  0  0  0  0  0
  2  5  2  0
  3  1  2  0
  4  6  2  0
  4  2  1  0
  5  1  1  0
  5  7  1  0
  6  3  1  0
  7  8  2  0
  8  9  1  0
 10 48  1  0
 10 11  1  0
 10  7  1  0
 12 17  1  0
 13 14  1  0
 13 12  1  0
 15 14  1  0
 15 22  1  0
 15 16  1  0
 17 11  1  0
 17 16  1  0
 18 11  2  0
 19 20  2  0
 20 39  1  0
 21 20  1  0
 21 24  1  0
 22 19  1  0
 22 23  1  0
 23 21  2  0
 24 25  1  0
 25 26  2  0
 27 30  1  0
 27 26  1  0
 28 27  2  0
 29 28  1  0
 29 24  2  0
 30 31  1  0
 31 32  1  0
 32 33  2  0
 34 33  1  0
 34 38  1  0
 35 34  2  0
 36 31  2  0
 36 35  1  0
 37 36  1  0
 39 40  1  0
 40 43  1  0
 40 42  1  0
 41 39  2  0
 44 45  1  0
 44 19  1  0
 46 44  1  0
 47 48  1  0
 49  6  1  0
 49 50  1  0
 51 62  2  0
 52 50  1  0
 52 57  1  0
 53 61  1  0
 53 63  1  0
 54 60  1  0
 54 56  1  0
 55 61  1  0
 56 57  2  0
 56 55  1  0
 58 52  2  0
 59 58  1  0
 59 54  2  0
 60 53  1  0
 61 51  1  0
 63 65  2  0
 64 63  1  0
 66 64  1  0
 67 76  2  0
 67 72  1  0
 68 64  1  0
 68 72  1  0
 69 68  1  0
 70 71  1  0
 70 69  1  0
 71 67  1  0
 72 73  2  0
 73 74  1  0
 75 74  2  0
 76 75  1  0
 77 51  1  0
 77 82  1  0
 77 78  1  0
 78 81  1  1
 78 79  1  0
 80 78  1  0
 82 85  1  0
 83 87  1  0
 83 82  1  0
 84 83  2  0
 87 86  1  0
 89 87  1  0
 89 90  1  0
 89 88  1  0
M  ISO  4  10 100  11 100  49 101  50 101
M  END
>  <TORSDO>  (40) 
F 20

>  <SCORE>  (40) 
-15.598

>  <name>  (40) 
39

>  <ligand_id>  (40) 
39

>  <original_smiles>  (40) 
[H]N=C(c1c([H])c([H])c(C([H])([H])Oc2c([H])c([H])c3c(c2[H])C([H])([H])N(C(=O)C([H])(N([H])C(=O)C([H])(N([H])C([H])([H])[H])C([H])([H])[H])C(C([H])([H])[H])(C([H])([H])[H])C([H])([H])[H])C([H])(C(=O)N([H])C2([H])c4c([H])c([H])c([H])c([H])c4C([H])([H])C([H])([H])C2([H])[H])C3([H])[H])c([H])c1[H])C([H])(C(=O)N1C([H])([H])C([H])([H])C([H])([H])C([H])(n2nc(-c3c([H])c([H])c(Oc4c([H])c([H])c(F)c([H])c4F)c([H])c3[H])c(C(=O)N([H])[H])c2N([H])[H])C1([H])[H])C([H])([H])C([H])([H])[H]

>  <smiles>  (40) 
[H]N=C(c1c([H])c([H])c(C([H])([H])Oc2c([H])c([H])c3c(c2[H])C([H])([H])N(C(=O)C([H])(N([H])C(=O)C([H])(N([H])C([H])([H])[H])C([H])([H])[H])C(C([H])([H])[H])(C([H])([H])[H])C([H])([H])[H])C([H])(C(=O)N([H])C2([H])c4c([H])c([H])c([H])c([H])c4C([H])([H])C([H])([H])C2([H])[H])C3([H])[H])c([H])c1[H])C([H])(C(=O)N1C([H])([H])C([H])([H])C([H])([H])C([H])(n2nc(-c3c([H])c([H])c(Oc4c([H])c([H])c(F)c([H])c4F)c([H])c3[H])c(C(=O)N([H])[H])c2N([H])[H])C1([H])[H])C([H])([H])C([H])([H])[H]

$$$$
40:0:0
     RDKit          3D

 91 99  0  0  1  0  0  0  0  0999 V2000
  -29.2740  -21.1210   19.7110 N   0  0  0  0  0  4  0  0  0  0  0  0
  -29.9430  -21.2710   18.9740 H   0  0  0  0  0  0  0  0  0  0  0  0
  -28.3920  -20.9330   19.2620 H   0  0  0  0  0  0  0  0  0  0  0  0
  -28.9230  -18.1510   21.5550 C   0  0  0  0  0  2  0  0  0  0  0  0
  -28.8400  -19.6650   21.7560 C   0  0  0  0  0  2  0  0  0  0  0  0
  -29.3470  -18.3540   20.0860 C   0  0  0  0  0  3  0  0  0  0  0  0
  -29.7160  -19.8770   20.5060 C   0  0  0  0  0  3  0  0  0  0  0  0
  -30.8920  -14.7850   19.4960 C   0  0  0  0  0  0  0  0  0  0  0  0
  -30.5430  -12.5330   18.4890 C   0  0  0  0  0  2  0  0  0  0  0  0
  -29.4630  -12.6550   17.3930 C   0  0  0  0  0  2  0  0  0  0  0  0
  -28.0620  -12.4710   18.0070 C   0  0  0  0  0  2  0  0  0  0  0  0
  -27.8480  -13.3390   19.2750 C   0  0  0  0  0  3  0  0  0  0  0  0
  -29.0360  -13.2200   20.2530 C   0  0  0  0  0  2  0  0  0  0  0  0
  -30.2530  -13.5650   19.5090 N   0  0  0  0  0  0  0  0  0  0  0  0
  -32.0260  -14.8630   19.0150 O   0  0  0  0  0  0  0  0  0  0  0  0
  -30.4370  -17.2530   19.7140 C   0  0  0  0  0  0  0  0  0  0  0  0
  -30.1410  -15.9020   19.8290 N   0  0  0  0  0  0  0  0  0  0  0  0
  -31.5340  -17.6680   19.3300 O   0  0  0  0  0  0  0  0  0  0  0  0
  -29.2190  -15.6980   20.1740 H   0  0  0  0  0  0  0  0  0  0  0  0
  -25.5920  -13.9270   20.3480 C   0  0  0  0  0  0  0  0  0  0  0  0
  -24.5670  -13.1480   20.8120 C   0  0  0  0  0  0  0  0  0  0  0  0
  -24.9880  -11.7940   20.6340 C   0  0  0  0  0  0  0  0  0  0  0  0
  -26.5740  -13.0460   19.9210 N   0  0  0  0  0  0  0  0  0  0  0  0
  -26.2240  -11.7550   20.1520 N   0  0  0  0  0  0  0  0  0  0  0  0
  -24.2600  -10.5350   20.8390 C   0  0  0  0  0  0  0  0  0  0  0  0
  -24.6970   -9.5750   21.7770 C   0  0  0  0  0  3  0  0  0  0  0  0
  -23.9710   -8.3790   21.9680 C   0  0  0  0  0  3  0  0  0  0  0  0
  -22.7920   -8.1360   21.2230 C   0  0  0  0  0  0  0  0  0  0  0  0
  -22.3740   -9.0860   20.2750 C   0  0  0  0  0  3  0  0  0  0  0  0
  -23.1010  -10.2730   20.0820 C   0  0  0  0  0  3  0  0  0  0  0  0
  -22.0370   -6.9930   21.3260 O   0  0  0  0  0  0  0  0  0  0  0  0
  -21.8550   -6.3550   22.5280 C   0  0  0  0  0  0  0  0  0  0  0  0
  -21.2660   -7.0030   23.6340 C   0  0  0  0  0  3  0  0  0  0  0  0
  -21.0360   -6.2890   24.8270 C   0  0  0  0  0  3  0  0  0  0  0  0
  -21.3860   -4.9280   24.9130 C   0  0  0  0  0  0  0  0  0  0  0  0
  -21.9690   -4.2810   23.8100 C   0  0  0  0  0  3  0  0  0  0  0  0
  -22.2010   -4.9920   22.6200 C   0  0  0  0  0  0  0  0  0  0  0  0
  -22.7440   -4.3570   21.5530 F   0  0  0  0  0  0  0  0  0  0  0  0
  -21.1570   -4.2400   26.0560 F   0  0  0  0  0  0  0  0  0  0  0  0
  -23.2310  -13.6290   21.2980 C   0  0  0  0  0  0  0  0  0  0  0  0
  -22.6130  -12.8980   22.2190 N   0  0  0  0  0  0  0  0  0  0  0  0
  -22.7480  -14.6890   20.8970 O   0  0  0  0  0  0  0  0  0  0  0  0
  -23.0160  -12.0380   22.5630 H   0  0  0  0  0  0  0  0  0  0  0  0
  -21.7230  -13.2020   22.5870 H   0  0  0  0  0  0  0  0  0  0  0  0
  -25.7630  -15.3030   20.2280 N   0  0  0  0  0  0  0  0  0  0  0  0
  -25.0100  -15.9500   20.4300 H   0  0  0  0  0  0  0  0  0  0  0  0
  -26.5410  -15.7400   19.7550 H   0  0  0  0  0  0  0  0  0  0  0  0
  -29.1250  -22.4420   20.4830 C   0  0  0  0  0  2  0  0  0  0  0  0
  -28.8800  -23.8340   19.6980 C   0  0  0  0  0  3  0  0  0  0  0  0
  -28.4470  -25.1190   20.5660 C   0  0  0  0  0  3  0  0  0  0  0  0
  -28.5670  -26.5170   20.0600 O   0  0  0  0  0  0  0  0  0  0  0  0
  -24.5510  -31.7220   23.1020 C   0  0  0  0  0  0  0  0  0  0  0  0
  -27.4190  -27.3220   20.0470 C   0  0  0  0  0  0  0  0  0  0  0  0
  -23.4410  -30.2870   21.4270 C   0  0  0  0  0  3  0  0  0  0  0  0
  -24.9850  -28.8200   20.0100 C   0  0  0  0  0  0  0  0  0  0  0  0
  -25.9650  -30.7300   21.2850 C   0  0  0  0  0  2  0  0  0  0  0  0
  -26.1200  -29.3620   20.6270 C   0  0  0  0  0  0  0  0  0  0  0  0
  -27.3450  -28.6270   20.6290 C   0  0  0  0  0  3  0  0  0  0  0  0
  -26.2600  -26.8270   19.4160 C   0  0  0  0  0  3  0  0  0  0  0  0
  -25.0560  -27.5590   19.3950 C   0  0  0  0  0  3  0  0  0  0  0  0
  -23.7100  -29.6380   20.0430 C   0  0  0  0  0  2  0  0  0  0  0  0
  -24.6700  -30.9310   21.9960 N   0  0  0  0  0  0  0  0  0  0  0  0
  -23.4470  -31.9390   23.6220 O   0  0  0  0  0  0  0  0  0  0  0  0
  -22.8130  -29.2290   22.3650 C   0  0  0  0  0  0  0  0  0  0  0  0
  -21.4960  -28.9980   22.2220 N   0  0  0  0  0  0  0  0  0  0  0  0
  -23.5090  -28.6190   23.1810 O   0  0  0  0  0  0  0  0  0  0  0  0
  -20.9920  -29.5450   21.5370 H   0  0  0  0  0  0  0  0  0  0  0  0
  -18.1640  -27.6670   22.6800 C   0  0  0  0  0  0  0  0  0  0  0  0
  -20.7090  -28.0160   22.9690 C   0  0  0  0  0  3  0  0  0  0  0  0
  -20.8670  -26.6020   22.3660 C   0  0  0  0  0  2  0  0  0  0  0  0
  -19.7820  -26.2590   21.3390 C   0  0  0  0  0  2  0  0  0  0  0  0
  -18.3930  -26.3390   21.9780 C   0  0  0  0  0  2  0  0  0  0  0  0
  -19.2520  -28.4610   23.1320 C   0  0  0  0  0  0  0  0  0  0  0  0
  -18.9830  -29.7030   23.7470 C   0  0  0  0  0  3  0  0  0  0  0  0
  -17.6590  -30.1510   23.9170 C   0  0  0  0  0  3  0  0  0  0  0  0
  -16.5860  -29.3530   23.4820 C   0  0  0  0  0  3  0  0  0  0  0  0
  -16.8390  -28.1130   22.8700 C   0  0  0  0  0  3  0  0  0  0  0  0
  -25.7910  -32.4070   23.7540 C   0  0  0  0  0  3  0  0  0  0  0  0
  -26.3230  -31.6450   25.0290 C   0  0  1  0  0  0  0  0  0  0  0  0
  -25.2240  -31.3330   26.0720 C   0  0  0  0  0  1  0  0  0  0  0  0
  -26.9860  -30.3070   24.6280 C   0  0  0  0  0  1  0  0  0  0  0  0
  -27.4170  -32.4880   25.7250 C   0  0  0  0  0  1  0  0  0  0  0  0
  -25.4080  -33.7840   24.0990 N   0  0  0  0  0  0  0  0  0  0  0  0
  -25.6850  -34.8610   23.3510 C   0  0  0  0  0  0  0  0  0  0  0  0
  -26.3580  -34.8030   22.3190 O   0  0  0  0  0  0  0  0  0  0  0  0
  -24.8100  -33.9000   24.9030 H   0  0  0  0  0  0  0  0  0  0  0  0
  -23.8600  -36.5610   23.0230 C   0  0  0  0  0  1  0  0  0  0  0  0
  -25.1260  -36.2180   23.8230 C   0  0  0  0  0  3  0  0  0  0  0  0
  -27.2130  -37.2120   24.6540 C   0  0  0  0  0  1  0  0  0  0  0  0
  -26.1010  -37.3260   23.7130 N   0  0  0  0  0  0  0  0  0  0  0  0
  -25.6460  -38.2220   23.8670 H   0  0  0  0  0  0  0  0  0  0  0  0
  1 48  1  0
  2  1  1  0
  3  1  1  0
  4  5  1  0
  6 16  1  0
  6  7  1  0
  6  4  1  0
  7  1  1  0
  7  5  1  0
  8 14  1  0
  8 17  1  0
  9 14  1  0
 10 11  1  0
 10  9  1  0
 12 11  1  0
 12 23  1  0
 12 13  1  0
 14 13  1  0
 15  8  2  0
 16 17  1  0
 17 19  1  0
 18 16  2  0
 20 21  2  0
 21 40  1  0
 22 21  1  0
 22 25  1  0
 23 24  1  0
 23 20  1  0
 24 22  2  0
 25 26  1  0
 26 27  2  0
 28 31  1  0
 28 27  1  0
 29 28  2  0
 30 29  1  0
 30 25  2  0
 31 32  1  0
 32 37  2  0
 32 33  1  0
 33 34  2  0
 34 35  1  0
 35 39  1  0
 36 35  2  0
 37 36  1  0
 38 37  1  0
 40 41  1  0
 41 43  1  0
 41 44  1  0
 42 40  2  0
 45 20  1  0
 45 46  1  0
 47 45  1  0
 49 48  1  0
 49 50  2  0
 51 50  1  0
 52 63  2  0
 53 51  1  0
 53 58  1  0
 54 62  1  0
 54 64  1  0
 55 61  1  0
 55 57  1  0
 56 62  1  0
 57 58  2  0
 57 56  1  0
 59 53  2  0
 60 59  1  0
 60 55  2  0
 61 54  1  0
 62 52  1  0
 64 66  2  0
 65 64  1  0
 67 65  1  0
 68 77  2  0
 68 73  1  0
 69 65  1  0
 69 73  1  0
 70 69  1  0
 71 72  1  0
 71 70  1  0
 72 68  1  0
 73 74  2  0
 74 75  1  0
 76 75  2  0
 77 76  1  0
 78 52  1  0
 78 83  1  0
 78 79  1  0
 79 82  1  1
 79 80  1  0
 81 79  1  0
 83 86  1  0
 84 88  1  0
 84 83  1  0
 85 84  2  0
 88 87  1  0
 90 88  1  0
 90 91  1  0
 90 89  1  0
M  ISO  4   8 100  17 100  50 101  51 101
M  END
>  <TORSDO>  (41) 
F 20

>  <SCORE>  (41) 
-10.553

>  <name>  (41) 
40

>  <ligand_id>  (41) 
40

>  <original_smiles>  (41) 
[H]c1c([H])c([H])c2c(c1[H])C([H])([H])C([H])([H])C([H])([H])C2([H])N([H])C(=O)C1([H])N(C(=O)C([H])(N([H])C(=O)C([H])(N([H])C([H])([H])[H])C([H])([H])[H])C(C([H])([H])[H])(C([H])([H])[H])C([H])([H])[H])C([H])([H])c2c([H])c(OC([H])([H])C([H])([H])C([H])([H])[N+]([H])([H])C3([H])C([H])([H])C([H])([H])C3([H])C(=O)N([H])C(=O)N3C([H])([H])C([H])([H])C([H])([H])C([H])(n4nc(-c5c([H])c([H])c(Oc6c([H])c([H])c(F)c([H])c6F)c([H])c5[H])c(C(=O)N([H])[H])c4N([H])[H])C3([H])[H])c([H])c([H])c2C1([H])[H]

>  <smiles>  (41) 
[H]c1c([H])c([H])c2c(c1[H])C([H])([H])C([H])([H])C([H])([H])C2([H])N([H])C(=O)C1([H])N(C(=O)C([H])(N([H])C(=O)C([H])(N([H])C([H])([H])[H])C([H])([H])[H])C(C([H])([H])[H])(C([H])([H])[H])C([H])([H])[H])C([H])([H])c2c([H])c(OC([H])([H])C([H])([H])C([H])([H])[N+]([H])([H])C3([H])C([H])([H])C([H])([H])C3([H])C(=O)N([H])C(=O)N3C([H])([H])C([H])([H])C([H])([H])C([H])(n4nc(-c5c([H])c([H])c(Oc6c([H])c([H])c(F)c([H])c6F)c([H])c5[H])c(C(=O)N([H])[H])c4N([H])[H])C3([H])[H])c([H])c([H])c2C1([H])[H]

$$$$
41:0:0
     RDKit          3D

 85 94  0  0  1  0  0  0  0  0999 V2000
  -27.9310  -24.1930   20.5630 C   0  0  0  0  0  0  0  0  0  0  0  0
  -26.9800  -24.0140   21.3280 O   0  0  0  0  0  0  0  0  0  0  0  0
  -28.0140  -21.1930   20.0450 C   0  0  0  0  0  3  0  0  0  0  0  0
  -29.7920  -21.7010   20.7120 C   0  0  0  0  0  3  0  0  0  0  0  0
  -28.7100  -22.7020   19.9800 C   0  0  0  0  0  3  0  0  0  0  0  0
  -29.3550  -20.2390   20.0550 C   0  0  0  0  0  3  0  0  0  0  0  0
  -29.7810  -18.5620   20.6370 C   0  0  0  0  0  2  0  0  0  0  0  0
  -29.5190  -16.8600   20.0830 C   0  0  0  0  0  2  0  0  0  0  0  0
  -30.3820  -15.3150   20.1900 C   0  0  0  0  0  0  0  0  0  0  0  0
  -30.3920  -12.8470   19.3630 C   0  0  0  0  0  2  0  0  0  0  0  0
  -29.4660  -12.6360   18.1360 C   0  0  0  0  0  2  0  0  0  0  0  0
  -28.0170  -12.3660   18.5780 C   0  0  0  0  0  2  0  0  0  0  0  0
  -27.5670  -13.3370   19.6970 C   0  0  0  0  0  3  0  0  0  0  0  0
  -28.6160  -13.4930   20.8140 C   0  0  0  0  0  2  0  0  0  0  0  0
  -29.8530  -13.9900   20.1890 N   0  0  0  0  0  0  0  0  0  0  0  0
  -31.6090  -15.3110   20.0090 O   0  0  0  0  0  0  0  0  0  0  0  0
  -25.2010  -13.8950   20.4700 C   0  0  0  0  0  0  0  0  0  0  0  0
  -24.1420  -13.1190   20.8500 C   0  0  0  0  0  0  0  0  0  0  0  0
  -24.6110  -11.7690   20.8230 C   0  0  0  0  0  0  0  0  0  0  0  0
  -26.2420  -13.0200   20.2200 N   0  0  0  0  0  0  0  0  0  0  0  0
  -25.9010  -11.7340   20.5020 N   0  0  0  0  0  0  0  0  0  0  0  0
  -23.8850  -10.5070   21.0240 C   0  0  0  0  0  0  0  0  0  0  0  0
  -24.3300   -9.5350   21.9470 C   0  0  0  0  0  3  0  0  0  0  0  0
  -23.6020   -8.3410   22.1370 C   0  0  0  0  0  3  0  0  0  0  0  0
  -22.4140   -8.1100   21.4050 C   0  0  0  0  0  0  0  0  0  0  0  0
  -21.9870   -9.0700   20.4700 C   0  0  0  0  0  3  0  0  0  0  0  0
  -22.7160  -10.2550   20.2780 C   0  0  0  0  0  3  0  0  0  0  0  0
  -21.6560   -6.9680   21.5040 O   0  0  0  0  0  0  0  0  0  0  0  0
  -21.6390   -6.2120   22.6490 C   0  0  0  0  0  0  0  0  0  0  0  0
  -21.2730   -6.7600   23.8980 C   0  0  0  0  0  3  0  0  0  0  0  0
  -21.2020   -5.9320   25.0360 C   0  0  0  0  0  3  0  0  0  0  0  0
  -21.4850   -4.5590   24.9270 C   0  0  0  0  0  0  0  0  0  0  0  0
  -21.8450   -4.0100   23.6830 C   0  0  0  0  0  3  0  0  0  0  0  0
  -21.9170   -4.8350   22.5470 C   0  0  0  0  0  0  0  0  0  0  0  0
  -22.2430   -4.2960   21.3470 F   0  0  0  0  0  0  0  0  0  0  0  0
  -21.4100   -3.7610   26.0190 F   0  0  0  0  0  0  0  0  0  0  0  0
  -22.7460  -13.5960   21.1220 C   0  0  0  0  0  0  0  0  0  0  0  0
  -22.0240  -12.9090   21.9990 N   0  0  0  0  0  0  0  0  0  0  0  0
  -22.3060  -14.6160   20.5920 O   0  0  0  0  0  0  0  0  0  0  0  0
  -22.3930  -12.0850   22.4490 H   0  0  0  0  0  0  0  0  0  0  0  0
  -21.0870  -13.2120   22.2250 H   0  0  0  0  0  0  0  0  0  0  0  0
  -25.3620  -15.2650   20.2870 N   0  0  0  0  0  0  0  0  0  0  0  0
  -24.5960  -15.9200   20.4080 H   0  0  0  0  0  0  0  0  0  0  0  0
  -26.2100  -15.7050   19.9550 H   0  0  0  0  0  0  0  0  0  0  0  0
  -28.1890  -25.8200   20.1840 O   0  0  0  0  0  0  0  0  0  0  0  0
  -24.6060  -31.8370   23.1680 C   0  0  0  0  0  0  0  0  0  0  0  0
  -27.1940  -26.9400   20.2010 C   0  0  0  0  0  0  0  0  0  0  0  0
  -23.4250  -30.4240   21.5370 C   0  0  0  0  0  3  0  0  0  0  0  0
  -24.8880  -28.8160   20.1350 C   0  0  0  0  0  0  0  0  0  0  0  0
  -25.9930  -30.6440   21.4000 C   0  0  0  0  0  2  0  0  0  0  0  0
  -26.0740  -29.2260   20.7590 C   0  0  0  0  0  0  0  0  0  0  0  0
  -27.2230  -28.3090   20.7700 C   0  0  0  0  0  3  0  0  0  0  0  0
  -25.9760  -26.6880   19.5290 C   0  0  0  0  0  3  0  0  0  0  0  0
  -24.8640  -27.5660   19.5000 C   0  0  0  0  0  3  0  0  0  0  0  0
  -23.6650  -29.7330   20.1670 C   0  0  0  0  0  2  0  0  0  0  0  0
  -24.6960  -30.9960   22.0880 N   0  0  0  0  0  0  0  0  0  0  0  0
  -23.5140  -32.1260   23.6830 O   0  0  0  0  0  0  0  0  0  0  0  0
  -22.7320  -29.4310   22.5070 C   0  0  0  0  0  0  0  0  0  0  0  0
  -21.3990  -29.2770   22.3940 N   0  0  0  0  0  0  0  0  0  0  0  0
  -23.4010  -28.8000   23.3290 O   0  0  0  0  0  0  0  0  0  0  0  0
  -20.9130  -29.8360   21.7080 H   0  0  0  0  0  0  0  0  0  0  0  0
  -18.0130  -28.0900   22.9360 C   0  0  0  0  0  0  0  0  0  0  0  0
  -20.5780  -28.3440   23.1720 C   0  0  0  0  0  3  0  0  0  0  0  0
  -20.6650  -26.9110   22.5960 C   0  0  0  0  0  2  0  0  0  0  0  0
  -19.5500  -26.5960   21.5920 C   0  0  0  0  0  2  0  0  0  0  0  0
  -18.1770  -26.7430   22.2520 C   0  0  0  0  0  2  0  0  0  0  0  0
  -19.1400  -28.8480   23.3540 C   0  0  0  0  0  0  0  0  0  0  0  0
  -18.9310  -30.1070   23.9580 C   0  0  0  0  0  3  0  0  0  0  0  0
  -17.6280  -30.6090   24.1450 C   0  0  0  0  0  3  0  0  0  0  0  0
  -16.5170  -29.8480   23.7410 C   0  0  0  0  0  3  0  0  0  0  0  0
  -16.7110  -28.5920   23.1420 C   0  0  0  0  0  3  0  0  0  0  0  0
  -25.8720  -32.4920   23.8000 C   0  0  0  0  0  3  0  0  0  0  0  0
  -26.3900  -31.7260   25.0800 C   0  0  1  0  0  0  0  0  0  0  0  0
  -25.2970  -31.4810   26.1460 C   0  0  0  0  0  1  0  0  0  0  0  0
  -26.9860  -30.3510   24.6990 C   0  0  0  0  0  1  0  0  0  0  0  0
  -27.5340  -32.5290   25.7440 C   0  0  0  0  0  1  0  0  0  0  0  0
  -25.5370  -33.8850   24.1460 N   0  0  0  0  0  0  0  0  0  0  0  0
  -25.8500  -34.9570   23.4060 C   0  0  0  0  0  0  0  0  0  0  0  0
  -26.5130  -34.8790   22.3680 O   0  0  0  0  0  0  0  0  0  0  0  0
  -24.9450  -34.0180   24.9520 H   0  0  0  0  0  0  0  0  0  0  0  0
  -24.0920  -36.7370   23.1070 C   0  0  0  0  0  1  0  0  0  0  0  0
  -25.3520  -36.3350   23.8910 C   0  0  0  0  0  3  0  0  0  0  0  0
  -27.4900  -37.2400   24.6960 C   0  0  0  0  0  1  0  0  0  0  0  0
  -26.3690  -37.4040   23.7740 N   0  0  0  0  0  0  0  0  0  0  0  0
  -25.9530  -38.3160   23.9410 H   0  0  0  0  0  0  0  0  0  0  0  0
  1  2  2  0
  3  6  1  0
  3  4  1  0
  5  3  1  0
  5  1  1  0
  5  4  1  0
  6  7  1  0
  6  4  1  0
  8  9  1  0
  8  7  1  0
 10 15  1  0
 11 12  1  0
 11 10  1  0
 12 13  1  0
 13 20  1  0
 13 14  1  0
 15  9  1  0
 15 14  1  0
 16  9  2  0
 17 18  2  0
 18 37  1  0
 19 18  1  0
 19 22  1  0
 20 17  1  0
 20 21  1  0
 21 19  2  0
 22 23  1  0
 23 24  2  0
 25 28  1  0
 25 24  1  0
 26 25  2  0
 27 26  1  0
 27 22  2  0
 28 29  1  0
 29 30  1  0
 30 31  2  0
 32 31  1  0
 32 36  1  0
 33 32  2  0
 34 29  2  0
 34 33  1  0
 35 34  1  0
 37 38  1  0
 38 41  1  0
 38 40  1  0
 39 37  2  0
 42 43  1  0
 42 17  1  0
 44 42  1  0
 45 47  1  0
 45  1  1  0
 46 57  2  0
 46 72  1  0
 47 52  1  0
 48 56  1  0
 48 58  1  0
 49 55  1  0
 49 51  1  0
 50 56  1  0
 51 52  2  0
 51 50  1  0
 53 47  2  0
 54 53  1  0
 54 49  2  0
 55 48  1  0
 56 46  1  0
 58 60  2  0
 59 58  1  0
 59 63  1  0
 61 59  1  0
 62 71  2  0
 62 67  1  0
 63 67  1  0
 64 63  1  0
 65 66  1  0
 65 64  1  0
 66 62  1  0
 67 68  2  0
 68 69  1  0
 70 69  2  0
 71 70  1  0
 72 77  1  0
 72 73  1  0
 73 76  1  1
 73 74  1  0
 75 73  1  0
 77 80  1  0
 78 82  1  0
 78 77  1  0
 79 78  2  0
 81 82  1  0
 84 82  1  0
 84 85  1  0
 84 83  1  0
M  ISO  4   1 101   8 100   9 100  45 101
M  END
>  <TORSDO>  (42) 
F 19

>  <SCORE>  (42) 
-16.473

>  <name>  (42) 
41

>  <ligand_id>  (42) 
41

>  <original_smiles>  (42) 
[H]c1c([H])c([H])c2c(c1[H])C([H])([H])C([H])([H])C([H])([H])C2([H])N([H])C(=O)C1([H])N(C(=O)C([H])(N([H])C(=O)C([H])(N([H])C([H])([H])[H])C([H])([H])[H])C(C([H])([H])[H])(C([H])([H])[H])C([H])([H])[H])C([H])([H])c2c([H])c(OC(=O)C3([H])C([H])([H])C([H])(C([H])([H])C([H])([H])C(=O)N4C([H])([H])C([H])([H])C([H])([H])C([H])(n5nc(-c6c([H])c([H])c(Oc7c([H])c([H])c(F)c([H])c7F)c([H])c6[H])c(C(=O)N([H])[H])c5N([H])[H])C4([H])[H])C3([H])[H])c([H])c([H])c2C1([H])[H]

>  <smiles>  (42) 
[H]c1c([H])c([H])c2c(c1[H])C([H])([H])C([H])([H])C([H])([H])C2([H])N([H])C(=O)C1([H])N(C(=O)C([H])(N([H])C(=O)C([H])(N([H])C([H])([H])[H])C([H])([H])[H])C(C([H])([H])[H])(C([H])([H])[H])C([H])([H])[H])C([H])([H])c2c([H])c(OC(=O)C3([H])C([H])([H])C([H])(C([H])([H])C([H])([H])C(=O)N4C([H])([H])C([H])([H])C([H])([H])C([H])(n5nc(-c6c([H])c([H])c(Oc7c([H])c([H])c(F)c([H])c7F)c([H])c6[H])c(C(=O)N([H])[H])c5N([H])[H])C4([H])[H])C3([H])[H])c([H])c([H])c2C1([H])[H]

$$$$
42:0:0
     RDKit          3D

 88 96  0  0  1  0  0  0  0  0999 V2000
  -28.5260  -21.3050   19.7130 C   0  0  0  0  0  2  0  0  0  0  0  0
  -29.9320  -22.3840   21.1640 C   0  0  0  0  0  2  0  0  0  0  0  0
  -28.5640  -22.7910   20.5070 C   0  0  0  0  0  3  0  0  0  0  0  0
  -29.1510  -20.0070   20.5820 C   0  0  0  0  0  3  0  0  0  0  0  0
  -30.0490  -20.8690   21.4270 N   0  0  0  0  0  4  0  0  0  0  0  0
  -29.8080  -20.6950   22.3900 H   0  0  0  0  0  0  0  0  0  0  0  0
  -31.0120  -20.5990   21.3160 H   0  0  0  0  0  0  0  0  0  0  0  0
  -31.2130  -18.6320   19.5320 C   0  0  0  0  0  1  0  0  0  0  0  0
  -29.7770  -18.4150   20.0350 C   0  0  0  0  0  3  0  0  0  0  0  0
  -29.6860  -16.7610   20.7060 C   0  0  0  0  0  2  0  0  0  0  0  0
  -30.4390  -15.2370   20.3080 C   0  0  0  0  0  0  0  0  0  0  0  0
  -30.4120  -12.8080   19.4050 C   0  0  0  0  0  2  0  0  0  0  0  0
  -29.4940  -12.6560   18.1650 C   0  0  0  0  0  2  0  0  0  0  0  0
  -28.0380  -12.3950   18.5890 C   0  0  0  0  0  2  0  0  0  0  0  0
  -27.5920  -13.3410   19.7320 C   0  0  0  0  0  3  0  0  0  0  0  0
  -28.6350  -13.4400   20.8660 C   0  0  0  0  0  2  0  0  0  0  0  0
  -29.8890  -13.9270   20.2690 N   0  0  0  0  0  0  0  0  0  0  0  0
  -31.6320  -15.2480   19.9770 O   0  0  0  0  0  0  0  0  0  0  0  0
  -25.2070  -13.8980   20.4500 C   0  0  0  0  0  0  0  0  0  0  0  0
  -24.1410  -13.1210   20.8110 C   0  0  0  0  0  0  0  0  0  0  0  0
  -24.6120  -11.7720   20.7920 C   0  0  0  0  0  0  0  0  0  0  0  0
  -26.2550  -13.0240   20.2240 N   0  0  0  0  0  0  0  0  0  0  0  0
  -25.9070  -11.7400   20.4950 N   0  0  0  0  0  0  0  0  0  0  0  0
  -23.8850  -10.5080   20.9800 C   0  0  0  0  0  0  0  0  0  0  0  0
  -24.3090   -9.5440   21.9200 C   0  0  0  0  0  3  0  0  0  0  0  0
  -23.5790   -8.3480   22.0980 C   0  0  0  0  0  3  0  0  0  0  0  0
  -22.4130   -8.1070   21.3340 C   0  0  0  0  0  0  0  0  0  0  0  0
  -22.0080   -9.0600   20.3840 C   0  0  0  0  0  3  0  0  0  0  0  0
  -22.7370  -10.2470   20.2050 C   0  0  0  0  0  3  0  0  0  0  0  0
  -21.6560   -6.9630   21.4220 O   0  0  0  0  0  0  0  0  0  0  0  0
  -21.5980   -6.2230   22.5750 C   0  0  0  0  0  0  0  0  0  0  0  0
  -21.1640   -6.7810   23.7970 C   0  0  0  0  0  3  0  0  0  0  0  0
  -21.0540   -5.9670   24.9420 C   0  0  0  0  0  3  0  0  0  0  0  0
  -21.3700   -4.5980   24.8670 C   0  0  0  0  0  0  0  0  0  0  0  0
  -21.7960   -4.0390   23.6500 C   0  0  0  0  0  3  0  0  0  0  0  0
  -21.9070   -4.8490   22.5070 C   0  0  0  0  0  0  0  0  0  0  0  0
  -22.2990   -4.3020   21.3300 F   0  0  0  0  0  0  0  0  0  0  0  0
  -21.2560   -3.8140   25.9650 F   0  0  0  0  0  0  0  0  0  0  0  0
  -22.7400  -13.5950   21.0640 C   0  0  0  0  0  0  0  0  0  0  0  0
  -22.0050  -12.9020   21.9250 N   0  0  0  0  0  0  0  0  0  0  0  0
  -22.3070  -14.6160   20.5320 O   0  0  0  0  0  0  0  0  0  0  0  0
  -22.3730  -12.0780   22.3780 H   0  0  0  0  0  0  0  0  0  0  0  0
  -21.0640  -13.2020   22.1380 H   0  0  0  0  0  0  0  0  0  0  0  0
  -25.3690  -15.2670   20.2680 N   0  0  0  0  0  0  0  0  0  0  0  0
  -24.6030  -15.9250   20.3630 H   0  0  0  0  0  0  0  0  0  0  0  0
  -26.2220  -15.7020   19.9370 H   0  0  0  0  0  0  0  0  0  0  0  0
  -28.2330  -24.4120   19.8410 C   0  0  0  0  0  2  0  0  0  0  0  0
  -28.2180  -25.9560   20.3590 O   0  0  0  0  0  0  0  0  0  0  0  0
  -24.6060  -31.8530   23.2230 C   0  0  0  0  0  0  0  0  0  0  0  0
  -27.1880  -27.0090   20.2260 C   0  0  0  0  0  0  0  0  0  0  0  0
  -23.4190  -30.4530   21.5810 C   0  0  0  0  0  3  0  0  0  0  0  0
  -24.8760  -28.8520   20.1690 C   0  0  0  0  0  0  0  0  0  0  0  0
  -25.9830  -30.6730   21.4500 C   0  0  0  0  0  2  0  0  0  0  0  0
  -26.0550  -29.2690   20.7950 C   0  0  0  0  0  0  0  0  0  0  0  0
  -27.2020  -28.3630   20.8070 C   0  0  0  0  0  3  0  0  0  0  0  0
  -25.9790  -26.7340   19.5450 C   0  0  0  0  0  3  0  0  0  0  0  0
  -24.8590  -27.6020   19.5270 C   0  0  0  0  0  3  0  0  0  0  0  0
  -23.6530  -29.7640   20.2080 C   0  0  0  0  0  2  0  0  0  0  0  0
  -24.6900  -31.0210   22.1370 N   0  0  0  0  0  0  0  0  0  0  0  0
  -23.5150  -32.1470   23.7380 O   0  0  0  0  0  0  0  0  0  0  0  0
  -22.7230  -29.4590   22.5480 C   0  0  0  0  0  0  0  0  0  0  0  0
  -21.3930  -29.3020   22.4230 N   0  0  0  0  0  0  0  0  0  0  0  0
  -23.3880  -28.8330   23.3770 O   0  0  0  0  0  0  0  0  0  0  0  0
  -20.9160  -29.8550   21.7260 H   0  0  0  0  0  0  0  0  0  0  0  0
  -18.0020  -28.1190   22.9330 C   0  0  0  0  0  0  0  0  0  0  0  0
  -20.5630  -28.3730   23.1960 C   0  0  0  0  0  3  0  0  0  0  0  0
  -20.6590  -26.9390   22.6260 C   0  0  0  0  0  2  0  0  0  0  0  0
  -19.5540  -26.6180   21.6130 C   0  0  0  0  0  2  0  0  0  0  0  0
  -18.1720  -26.7690   22.2560 C   0  0  0  0  0  2  0  0  0  0  0  0
  -19.1250  -28.8790   23.3600 C   0  0  0  0  0  0  0  0  0  0  0  0
  -18.9100  -30.1380   23.9580 C   0  0  0  0  0  3  0  0  0  0  0  0
  -17.6070  -30.6420   24.1300 C   0  0  0  0  0  3  0  0  0  0  0  0
  -16.4990  -29.8810   23.7170 C   0  0  0  0  0  3  0  0  0  0  0  0
  -16.6970  -28.6210   23.1250 C   0  0  0  0  0  3  0  0  0  0  0  0
  -25.8760  -32.4930   23.8570 C   0  0  0  0  0  3  0  0  0  0  0  0
  -26.3710  -31.7370   25.1520 C   0  0  1  0  0  0  0  0  0  0  0  0
  -25.2650  -31.5160   26.2120 C   0  0  0  0  0  1  0  0  0  0  0  0
  -26.9560  -30.3510   24.7980 C   0  0  0  0  0  1  0  0  0  0  0  0
  -27.5160  -32.5400   25.8160 C   0  0  0  0  0  1  0  0  0  0  0  0
  -25.5600  -33.8960   24.1770 N   0  0  0  0  0  0  0  0  0  0  0  0
  -25.9050  -34.9520   23.4280 C   0  0  0  0  0  0  0  0  0  0  0  0
  -26.5850  -34.8470   22.4040 O   0  0  0  0  0  0  0  0  0  0  0  0
  -24.9410  -34.0470   24.9610 H   0  0  0  0  0  0  0  0  0  0  0  0
  -24.1880  -36.7610   23.0700 C   0  0  0  0  0  1  0  0  0  0  0  0
  -25.4240  -36.3450   23.8840 C   0  0  0  0  0  3  0  0  0  0  0  0
  -27.5580  -37.2230   24.7250 C   0  0  0  0  0  1  0  0  0  0  0  0
  -26.4620  -37.3930   23.7760 N   0  0  0  0  0  0  0  0  0  0  0  0
  -26.0600  -38.3150   23.9210 H   0  0  0  0  0  0  0  0  0  0  0  0
  1  3  1  0
  1  4  1  0
  2  5  1  0
  3 47  1  0
  3  2  1  0
  4  9  1  0
  4  5  1  0
  5  6  1  0
  7  5  1  0
  9  8  1  0
  9 10  1  0
 11 10  1  0
 12 17  1  0
 13 14  1  0
 13 12  1  0
 15 14  1  0
 15 22  1  0
 15 16  1  0
 17 11  1  0
 17 16  1  0
 18 11  2  0
 19 20  2  0
 20 39  1  0
 21 20  1  0
 21 24  1  0
 22 19  1  0
 22 23  1  0
 23 21  2  0
 24 25  1  0
 25 26  2  0
 27 30  1  0
 27 26  1  0
 28 27  2  0
 29 28  1  0
 29 24  2  0
 30 31  1  0
 31 32  1  0
 32 33  2  0
 34 33  1  0
 34 38  1  0
 35 34  2  0
 36 31  2  0
 36 35  1  0
 37 36  1  0
 39 40  1  0
 40 43  1  0
 40 42  1  0
 41 39  2  0
 44 45  1  0
 44 19  1  0
 46 44  1  0
 47 48  1  0
 49 60  2  0
 50 48  1  0
 50 55  1  0
 51 59  1  0
 51 61  1  0
 52 58  1  0
 52 54  1  0
 53 59  1  0
 54 55  2  0
 54 53  1  0
 56 50  2  0
 57 56  1  0
 57 52  2  0
 58 51  1  0
 59 49  1  0
 61 63  2  0
 62 61  1  0
 64 62  1  0
 65 74  2  0
 65 70  1  0
 66 62  1  0
 66 70  1  0
 67 66  1  0
 68 69  1  0
 68 67  1  0
 69 65  1  0
 70 71  2  0
 71 72  1  0
 73 72  2  0
 74 73  1  0
 75 49  1  0
 75 80  1  0
 75 76  1  0
 76 79  1  1
 76 77  1  0
 78 76  1  0
 80 83  1  0
 81 85  1  0
 81 80  1  0
 82 81  2  0
 85 84  1  0
 87 85  1  0
 87 88  1  0
 87 86  1  0
M  ISO  4  10 100  11 100  47 101  48 101
M  END
>  <TORSDO>  (43) 
F 19

>  <SCORE>  (43) 
-16.128

>  <name>  (43) 
42

>  <ligand_id>  (43) 
42

>  <original_smiles>  (43) 
[H]c1c([H])c([H])c2c(c1[H])C([H])([H])C([H])([H])C([H])([H])C2([H])N([H])C(=O)C1([H])N(C(=O)C([H])(N([H])C(=O)C([H])(N([H])C([H])([H])[H])C([H])([H])[H])C(C([H])([H])[H])(C([H])([H])[H])C([H])([H])[H])C([H])([H])c2c([H])c(OC([H])([H])C3([H])C([H])([H])C([H])(C([H])(C([H])([H])[H])C([H])([H])C(=O)N4C([H])([H])C([H])([H])C([H])([H])C([H])(n5nc(-c6c([H])c([H])c(Oc7c([H])c([H])c(F)c([H])c7F)c([H])c6[H])c(C(=O)N([H])[H])c5N([H])[H])C4([H])[H])[N+]([H])([H])C3([H])[H])c([H])c([H])c2C1([H])[H]

>  <smiles>  (43) 
[H]c1c([H])c([H])c2c(c1[H])C([H])([H])C([H])([H])C([H])([H])C2([H])N([H])C(=O)C1([H])N(C(=O)C([H])(N([H])C(=O)C([H])(N([H])C([H])([H])[H])C([H])([H])[H])C(C([H])([H])[H])(C([H])([H])[H])C([H])([H])[H])C([H])([H])c2c([H])c(OC([H])([H])C3([H])C([H])([H])C([H])(C([H])(C([H])([H])[H])C([H])([H])C(=O)N4C([H])([H])C([H])([H])C([H])([H])C([H])(n5nc(-c6c([H])c([H])c(Oc7c([H])c([H])c(F)c([H])c7F)c([H])c6[H])c(C(=O)N([H])[H])c5N([H])[H])C4([H])[H])[N+]([H])([H])C3([H])[H])c([H])c([H])c2C1([H])[H]

$$$$
43:0:0
     RDKit          3D

 86 93  0  0  1  0  0  0  0  0999 V2000
  -29.7330  -19.9070   21.3690 C   0  0  0  0  0  0  0  0  0  0  0  0
  -29.5150  -21.5260   21.3020 C   0  0  0  0  0  2  0  0  0  0  0  0
  -29.0040  -20.5300   19.1920 C   0  0  0  0  0  2  0  0  0  0  0  0
  -29.3690  -19.0260   20.1070 C   0  0  0  0  0  3  0  0  0  0  0  0
  -28.6770  -22.1000   20.0660 C   0  0  0  0  0  2  0  0  0  0  0  0
  -30.1740  -19.4010   22.4030 O   0  0  0  0  0  0  0  0  0  0  0  0
  -30.4140  -15.9110   19.7590 C   0  0  0  0  0  0  0  0  0  0  0  0
  -30.4890  -13.3570   18.9430 C   0  0  0  0  0  2  0  0  0  0  0  0
  -29.5180  -12.9520   17.7960 C   0  0  0  0  0  2  0  0  0  0  0  0
  -28.1280  -12.5930   18.3450 C   0  0  0  0  0  2  0  0  0  0  0  0
  -27.6930  -13.5830   19.4490 C   0  0  0  0  0  3  0  0  0  0  0  0
  -28.7980  -13.8950   20.4870 C   0  0  0  0  0  2  0  0  0  0  0  0
  -29.9180  -14.5310   19.7530 N   0  0  0  0  0  0  0  0  0  0  0  0
  -31.6160  -15.8790   19.4320 O   0  0  0  0  0  0  0  0  0  0  0  0
  -29.6290  -17.2370   20.0180 N   0  0  0  0  0  0  0  0  0  0  0  0
  -28.7250  -16.8720   20.2810 H   0  0  0  0  0  0  0  0  0  0  0  0
  -25.4060  -14.0980   20.4250 C   0  0  0  0  0  0  0  0  0  0  0  0
  -24.3740  -13.3120   20.8460 C   0  0  0  0  0  0  0  0  0  0  0  0
  -24.8260  -11.9620   20.7220 C   0  0  0  0  0  0  0  0  0  0  0  0
  -26.4180  -13.2320   20.0590 N   0  0  0  0  0  0  0  0  0  0  0  0
  -26.0880  -11.9360   20.3030 N   0  0  0  0  0  0  0  0  0  0  0  0
  -24.1010  -10.6980   20.9180 C   0  0  0  0  0  0  0  0  0  0  0  0
  -24.5270   -9.7380   21.8610 C   0  0  0  0  0  3  0  0  0  0  0  0
  -23.7990   -8.5430   22.0470 C   0  0  0  0  0  3  0  0  0  0  0  0
  -22.6310   -8.2980   21.2880 C   0  0  0  0  0  0  0  0  0  0  0  0
  -22.2220   -9.2460   20.3340 C   0  0  0  0  0  3  0  0  0  0  0  0
  -22.9510  -10.4330   20.1470 C   0  0  0  0  0  3  0  0  0  0  0  0
  -21.8770   -7.1520   21.3810 O   0  0  0  0  0  0  0  0  0  0  0  0
  -21.7400   -6.4740   22.5650 C   0  0  0  0  0  0  0  0  0  0  0  0
  -21.1320   -7.0620   23.6960 C   0  0  0  0  0  3  0  0  0  0  0  0
  -20.9500   -6.3070   24.8700 C   0  0  0  0  0  3  0  0  0  0  0  0
  -21.3670   -4.9630   24.9170 C   0  0  0  0  0  0  0  0  0  0  0  0
  -21.9680   -4.3730   23.7910 C   0  0  0  0  0  3  0  0  0  0  0  0
  -22.1520   -5.1260   22.6170 C   0  0  0  0  0  0  0  0  0  0  0  0
  -22.7130   -4.5470   21.5280 F   0  0  0  0  0  0  0  0  0  0  0  0
  -21.1850   -4.2340   26.0440 F   0  0  0  0  0  0  0  0  0  0  0  0
  -23.0070  -13.7880   21.2430 C   0  0  0  0  0  0  0  0  0  0  0  0
  -22.3460  -13.0730   22.1440 N   0  0  0  0  0  0  0  0  0  0  0  0
  -22.5400  -14.8320   20.7900 O   0  0  0  0  0  0  0  0  0  0  0  0
  -22.7380  -12.2260   22.5300 H   0  0  0  0  0  0  0  0  0  0  0  0
  -21.4330  -13.3750   22.4540 H   0  0  0  0  0  0  0  0  0  0  0  0
  -25.5610  -15.4740   20.2880 N   0  0  0  0  0  0  0  0  0  0  0  0
  -24.7950  -16.1170   20.4680 H   0  0  0  0  0  0  0  0  0  0  0  0
  -26.3480  -15.9160   19.8330 H   0  0  0  0  0  0  0  0  0  0  0  0
  -28.0830  -23.9620   19.7590 C   0  0  0  0  0  1  0  0  0  0  0  0
  -28.1650  -25.6880   20.1610 O   0  0  0  0  0  0  0  0  0  0  0  0
  -24.6280  -31.9020   23.2190 C   0  0  0  0  0  0  0  0  0  0  0  0
  -27.1840  -26.9020   20.0990 C   0  0  0  0  0  0  0  0  0  0  0  0
  -23.4350  -30.5140   21.5780 C   0  0  0  0  0  3  0  0  0  0  0  0
  -24.8850  -28.9110   20.1120 C   0  0  0  0  0  0  0  0  0  0  0  0
  -26.0090  -30.6910   21.4210 C   0  0  0  0  0  2  0  0  0  0  0  0
  -26.0830  -29.2710   20.7380 C   0  0  0  0  0  0  0  0  0  0  0  0
  -27.2120  -28.2930   20.7030 C   0  0  0  0  0  3  0  0  0  0  0  0
  -25.9500  -26.7590   19.4130 C   0  0  0  0  0  3  0  0  0  0  0  0
  -24.8590  -27.6830   19.4240 C   0  0  0  0  0  3  0  0  0  0  0  0
  -23.6640  -29.8420   20.1910 C   0  0  0  0  0  2  0  0  0  0  0  0
  -24.7140  -31.0700   22.1240 N   0  0  0  0  0  0  0  0  0  0  0  0
  -23.5390  -32.1780   23.7520 O   0  0  0  0  0  0  0  0  0  0  0  0
  -22.7480  -29.5110   22.5460 C   0  0  0  0  0  0  0  0  0  0  0  0
  -21.4250  -29.3030   22.4100 N   0  0  0  0  0  0  0  0  0  0  0  0
  -23.4210  -28.9170   23.3920 O   0  0  0  0  0  0  0  0  0  0  0  0
  -20.9290  -29.8380   21.7110 H   0  0  0  0  0  0  0  0  0  0  0  0
  -18.0920  -27.9270   22.8700 C   0  0  0  0  0  0  0  0  0  0  0  0
  -20.6300  -28.3340   23.1760 C   0  0  0  0  0  3  0  0  0  0  0  0
  -20.8170  -26.9000   22.6260 C   0  0  0  0  0  2  0  0  0  0  0  0
  -19.7550  -26.5060   21.5950 C   0  0  0  0  0  2  0  0  0  0  0  0
  -18.3540  -26.5840   22.2090 C   0  0  0  0  0  2  0  0  0  0  0  0
  -19.1600  -28.7550   23.3100 C   0  0  0  0  0  0  0  0  0  0  0  0
  -18.8580  -30.0050   23.8930 C   0  0  0  0  0  3  0  0  0  0  0  0
  -17.5230  -30.4300   24.0370 C   0  0  0  0  0  3  0  0  0  0  0  0
  -16.4710  -29.6010   23.6090 C   0  0  0  0  0  3  0  0  0  0  0  0
  -16.7570  -28.3510   23.0310 C   0  0  0  0  0  3  0  0  0  0  0  0
  -25.8910  -32.5630   23.8500 C   0  0  0  0  0  3  0  0  0  0  0  0
  -25.5600  -33.9600   24.1930 N   0  0  0  0  0  0  0  0  0  0  0  0
  -25.8370  -35.0300   23.4350 C   0  0  0  0  0  0  0  0  0  0  0  0
  -26.4570  -34.9460   22.3720 O   0  0  0  0  0  0  0  0  0  0  0  0
  -24.9990  -34.0960   25.0210 H   0  0  0  0  0  0  0  0  0  0  0  0
  -24.0500  -36.7960   23.2170 C   0  0  0  0  0  1  0  0  0  0  0  0
  -25.3560  -36.4120   23.9310 C   0  0  0  0  0  3  0  0  0  0  0  0
  -27.5120  -37.3680   24.6220 C   0  0  0  0  0  1  0  0  0  0  0  0
  -26.3530  -37.4890   23.7420 N   0  0  0  0  0  0  0  0  0  0  0  0
  -25.9320  -38.4010   23.8960 H   0  0  0  0  0  0  0  0  0  0  0  0
  -26.4060  -31.8080   25.1380 C   0  0  1  0  0  0  0  0  0  0  0  0
  -25.3240  -31.6230   26.2290 C   0  0  0  0  0  1  0  0  0  0  0  0
  -26.9480  -30.4060   24.7810 C   0  0  0  0  0  1  0  0  0  0  0  0
  -27.5860  -32.5860   25.7660 C   0  0  0  0  0  1  0  0  0  0  0  0
  1  6  2  0
  2  1  1  0
  3  5  1  0
  3  4  1  0
  4 15  1  0
  4  1  1  0
  5  2  1  0
  7 15  1  0
  8 13  1  0
  9 10  1  0
  9  8  1  0
 11 10  1  0
 11 20  1  0
 11 12  1  0
 13  7  1  0
 13 12  1  0
 14  7  2  0
 15 16  1  0
 17 18  2  0
 18 37  1  0
 19 18  1  0
 19 22  1  0
 20 21  1  0
 20 17  1  0
 21 19  2  0
 22 23  1  0
 23 24  2  0
 25 28  1  0
 25 24  1  0
 26 25  2  0
 27 26  1  0
 27 22  2  0
 28 29  1  0
 29 34  2  0
 29 30  1  0
 30 31  2  0
 31 32  1  0
 32 36  1  0
 33 32  2  0
 34 33  1  0
 35 34  1  0
 37 38  1  0
 38 41  1  0
 38 40  1  0
 39 37  2  0
 42 17  1  0
 42 43  1  0
 44 42  1  0
 45 46  1  0
 47 58  2  0
 48 46  1  0
 48 53  1  0
 49 57  1  0
 49 59  1  0
 50 56  1  0
 50 52  1  0
 51 57  1  0
 52 51  1  0
 53 52  2  0
 54 55  1  0
 54 48  2  0
 55 50  2  0
 56 49  1  0
 57 47  1  0
 59 61  2  0
 60 59  1  0
 62 60  1  0
 63 72  2  0
 63 68  1  0
 64 60  1  0
 64 68  1  0
 65 64  1  0
 66 67  1  0
 66 65  1  0
 67 63  1  0
 68 69  2  0
 69 70  1  0
 71 70  2  0
 72 71  1  0
 73 47  1  0
 73 74  1  0
 73 83  1  0
 74 77  1  0
 75 79  1  0
 75 74  1  0
 76 75  2  0
 79 78  1  0
 81 82  1  0
 81 79  1  0
 81 80  1  0
 83 86  1  1
 83 84  1  0
 85 83  1  0
M  ISO  4   7 100  15 100  45 101  46 101
M  END
>  <TORSDO>  (44) 
F 17

>  <SCORE>  (44) 
-15.582

>  <name>  (44) 
43

>  <ligand_id>  (44) 
43

>  <original_smiles>  (44) 
[H]c1c([H])c([H])c2c(c1[H])C([H])([H])C([H])([H])C([H])([H])C2([H])N([H])C(=O)C1([H])N(C(=O)C([H])(N([H])C(=O)C([H])(N([H])C([H])([H])[H])C([H])([H])[H])C(C([H])([H])[H])(C([H])([H])[H])C([H])([H])[H])C([H])([H])c2c([H])c(OC([H])([H])C3([H])C([H])([H])C(=O)C([H])(N([H])C(=O)N4C([H])([H])C([H])([H])C([H])([H])C([H])(n5nc(-c6c([H])c([H])c(Oc7c([H])c([H])c(F)c([H])c7F)c([H])c6[H])c(C(=O)N([H])[H])c5N([H])[H])C4([H])[H])C3([H])[H])c([H])c([H])c2C1([H])[H]

>  <smiles>  (44) 
[H]c1c([H])c([H])c2c(c1[H])C([H])([H])C([H])([H])C([H])([H])C2([H])N([H])C(=O)C1([H])N(C(=O)C([H])(N([H])C(=O)C([H])(N([H])C([H])([H])[H])C([H])([H])[H])C(C([H])([H])[H])(C([H])([H])[H])C([H])([H])[H])C([H])([H])c2c([H])c(OC([H])([H])C3([H])C([H])([H])C(=O)C([H])(N([H])C(=O)N4C([H])([H])C([H])([H])C([H])([H])C([H])(n5nc(-c6c([H])c([H])c(Oc7c([H])c([H])c(F)c([H])c7F)c([H])c6[H])c(C(=O)N([H])[H])c5N([H])[H])C4([H])[H])C3([H])[H])c([H])c([H])c2C1([H])[H]

$$$$
44:0:0
     RDKit          3D

 86 94  0  0  1  0  0  0  0  0999 V2000
  -30.0190  -22.3810   20.7200 C   0  0  0  0  0  2  0  0  0  0  0  0
  -30.2650  -20.8050   20.9540 C   0  0  0  0  0  2  0  0  0  0  0  0
  -28.1950  -21.1950   19.9190 C   0  0  0  0  0  2  0  0  0  0  0  0
  -28.5170  -22.7510   20.5260 C   0  0  0  0  0  3  0  0  0  0  0  0
  -29.0460  -19.8890   20.5840 C   0  0  0  0  0  3  0  0  0  0  0  0
  -30.3850  -18.3660   18.8250 C   0  0  0  0  0  1  0  0  0  0  0  0
  -29.3640  -18.2490   19.9570 C   0  0  0  0  0  3  0  0  0  0  0  0
  -29.5980  -16.6760   20.7470 C   0  0  0  0  0  2  0  0  0  0  0  0
  -30.3760  -15.1890   20.2910 C   0  0  0  0  0  0  0  0  0  0  0  0
  -30.3780  -12.7690   19.3830 C   0  0  0  0  0  2  0  0  0  0  0  0
  -29.4620  -12.6390   18.1380 C   0  0  0  0  0  2  0  0  0  0  0  0
  -28.0040  -12.3880   18.5620 C   0  0  0  0  0  2  0  0  0  0  0  0
  -27.5640  -13.3340   19.7090 C   0  0  0  0  0  3  0  0  0  0  0  0
  -28.5980  -13.3930   20.8490 C   0  0  0  0  0  2  0  0  0  0  0  0
  -29.8520  -13.8760   20.2580 N   0  0  0  0  0  0  0  0  0  0  0  0
  -31.5630  -15.2330   19.9380 O   0  0  0  0  0  0  0  0  0  0  0  0
  -25.1820  -13.9070   20.4180 C   0  0  0  0  0  0  0  0  0  0  0  0
  -24.1180  -13.1330   20.7890 C   0  0  0  0  0  0  0  0  0  0  0  0
  -24.5890  -11.7830   20.7850 C   0  0  0  0  0  0  0  0  0  0  0  0
  -26.2290  -13.0270   20.1990 N   0  0  0  0  0  0  0  0  0  0  0  0
  -25.8820  -11.7470   20.4860 N   0  0  0  0  0  0  0  0  0  0  0  0
  -23.8640  -10.5230   20.9860 C   0  0  0  0  0  0  0  0  0  0  0  0
  -24.2950   -9.5640   21.9300 C   0  0  0  0  0  3  0  0  0  0  0  0
  -23.5680   -8.3680   22.1180 C   0  0  0  0  0  3  0  0  0  0  0  0
  -22.3940   -8.1250   21.3640 C   0  0  0  0  0  0  0  0  0  0  0  0
  -21.9830   -9.0720   20.4100 C   0  0  0  0  0  3  0  0  0  0  0  0
  -22.7120  -10.2580   20.2200 C   0  0  0  0  0  3  0  0  0  0  0  0
  -21.6390   -6.9820   21.4620 O   0  0  0  0  0  0  0  0  0  0  0  0
  -21.5980   -6.2420   22.6180 C   0  0  0  0  0  0  0  0  0  0  0  0
  -21.1910   -6.8030   23.8490 C   0  0  0  0  0  3  0  0  0  0  0  0
  -21.0980   -5.9900   24.9950 C   0  0  0  0  0  3  0  0  0  0  0  0
  -21.4040   -4.6180   24.9120 C   0  0  0  0  0  0  0  0  0  0  0  0
  -21.8040   -4.0580   23.6860 C   0  0  0  0  0  3  0  0  0  0  0  0
  -21.8990   -4.8670   22.5420 C   0  0  0  0  0  0  0  0  0  0  0  0
  -22.2650   -4.3180   21.3590 F   0  0  0  0  0  0  0  0  0  0  0  0
  -21.3070   -3.8340   26.0120 F   0  0  0  0  0  0  0  0  0  0  0  0
  -22.7180  -13.6100   21.0380 C   0  0  0  0  0  0  0  0  0  0  0  0
  -21.9820  -12.9260   21.9040 N   0  0  0  0  0  0  0  0  0  0  0  0
  -22.2870  -14.6270   20.4970 O   0  0  0  0  0  0  0  0  0  0  0  0
  -22.3450  -12.1010   22.3600 H   0  0  0  0  0  0  0  0  0  0  0  0
  -21.0430  -13.2290   22.1160 H   0  0  0  0  0  0  0  0  0  0  0  0
  -25.3480  -15.2730   20.2240 N   0  0  0  0  0  0  0  0  0  0  0  0
  -24.5800  -15.9300   20.3210 H   0  0  0  0  0  0  0  0  0  0  0  0
  -26.1990  -15.7060   19.8890 H   0  0  0  0  0  0  0  0  0  0  0  0
  -28.0160  -24.3460   19.8930 C   0  0  0  0  0  2  0  0  0  0  0  0
  -28.1690  -25.9120   20.3290 O   0  0  0  0  0  0  0  0  0  0  0  0
  -24.6440  -31.8650   23.2220 C   0  0  0  0  0  0  0  0  0  0  0  0
  -27.1700  -27.0010   20.2150 C   0  0  0  0  0  0  0  0  0  0  0  0
  -23.4440  -30.4670   21.5900 C   0  0  0  0  0  3  0  0  0  0  0  0
  -24.8820  -28.8690   20.1610 C   0  0  0  0  0  0  0  0  0  0  0  0
  -26.0060  -30.6810   21.4350 C   0  0  0  0  0  2  0  0  0  0  0  0
  -26.0690  -29.2750   20.7850 C   0  0  0  0  0  0  0  0  0  0  0  0
  -27.2060  -28.3560   20.7950 C   0  0  0  0  0  3  0  0  0  0  0  0
  -25.9670  -26.7500   19.5210 C   0  0  0  0  0  3  0  0  0  0  0  0
  -24.8540  -27.6270   19.5090 C   0  0  0  0  0  3  0  0  0  0  0  0
  -23.6660  -29.7890   20.2110 C   0  0  0  0  0  2  0  0  0  0  0  0
  -24.7190  -31.0320   22.1360 N   0  0  0  0  0  0  0  0  0  0  0  0
  -23.5550  -32.1560   23.7440 O   0  0  0  0  0  0  0  0  0  0  0  0
  -22.7560  -29.4710   22.5600 C   0  0  0  0  0  0  0  0  0  0  0  0
  -21.4250  -29.3070   22.4420 N   0  0  0  0  0  0  0  0  0  0  0  0
  -23.4250  -28.8460   23.3860 O   0  0  0  0  0  0  0  0  0  0  0  0
  -20.9370  -29.8630   21.7540 H   0  0  0  0  0  0  0  0  0  0  0  0
  -18.0420  -28.1030   22.9610 C   0  0  0  0  0  0  0  0  0  0  0  0
  -20.6030  -28.3720   23.2180 C   0  0  0  0  0  3  0  0  0  0  0  0
  -20.7050  -26.9370   22.6500 C   0  0  0  0  0  2  0  0  0  0  0  0
  -19.6010  -26.6070   21.6410 C   0  0  0  0  0  2  0  0  0  0  0  0
  -18.2200  -26.7530   22.2850 C   0  0  0  0  0  2  0  0  0  0  0  0
  -19.1610  -28.8700   23.3840 C   0  0  0  0  0  0  0  0  0  0  0  0
  -18.9390  -30.1330   23.9750 C   0  0  0  0  0  3  0  0  0  0  0  0
  -17.6310  -30.6270   24.1450 C   0  0  0  0  0  3  0  0  0  0  0  0
  -16.5280  -29.8570   23.7350 C   0  0  0  0  0  3  0  0  0  0  0  0
  -16.7350  -28.5970   23.1490 C   0  0  0  0  0  3  0  0  0  0  0  0
  -25.9180  -32.5090   23.8490 C   0  0  0  0  0  3  0  0  0  0  0  0
  -26.4270  -31.7470   25.1360 C   0  0  1  0  0  0  0  0  0  0  0  0
  -25.3280  -31.5230   26.2030 C   0  0  0  0  0  1  0  0  0  0  0  0
  -27.0070  -30.3650   24.7630 C   0  0  0  0  0  1  0  0  0  0  0  0
  -27.5820  -32.5410   25.7910 C   0  0  0  0  0  1  0  0  0  0  0  0
  -25.6040  -33.9080   24.1810 N   0  0  0  0  0  0  0  0  0  0  0  0
  -25.9230  -34.9660   23.4250 C   0  0  0  0  0  0  0  0  0  0  0  0
  -26.5780  -34.8690   22.3840 O   0  0  0  0  0  0  0  0  0  0  0  0
  -25.0310  -34.0610   24.9970 H   0  0  0  0  0  0  0  0  0  0  0  0
  -24.1790  -36.7550   23.1170 C   0  0  0  0  0  1  0  0  0  0  0  0
  -25.4410  -36.3530   23.8980 C   0  0  0  0  0  3  0  0  0  0  0  0
  -27.5910  -37.2470   24.6800 C   0  0  0  0  0  1  0  0  0  0  0  0
  -26.4670  -37.4110   23.7630 N   0  0  0  0  0  0  0  0  0  0  0  0
  -26.0590  -38.3310   23.9190 H   0  0  0  0  0  0  0  0  0  0  0  0
  1  2  1  0
  3  4  1  0
  3  5  1  0
  4 45  1  0
  4  1  1  0
  5  7  1  0
  5  2  1  0
  7  6  1  0
  7  8  1  0
  9  8  1  0
 10 15  1  0
 11 12  1  0
 11 10  1  0
 13 12  1  0
 13 20  1  0
 13 14  1  0
 15  9  1  0
 15 14  1  0
 16  9  2  0
 17 18  2  0
 18 37  1  0
 19 18  1  0
 19 22  1  0
 20 17  1  0
 20 21  1  0
 21 19  2  0
 22 23  1  0
 23 24  2  0
 25 28  1  0
 25 24  1  0
 26 25  2  0
 27 26  1  0
 27 22  2  0
 28 29  1  0
 29 30  1  0
 30 31  2  0
 32 31  1  0
 32 36  1  0
 33 32  2  0
 34 29  2  0
 34 33  1  0
 35 34  1  0
 37 38  1  0
 38 41  1  0
 38 40  1  0
 39 37  2  0
 42 43  1  0
 42 17  1  0
 44 42  1  0
 45 46  1  0
 47 58  2  0
 48 46  1  0
 48 53  1  0
 49 57  1  0
 49 59  1  0
 50 56  1  0
 50 52  1  0
 51 57  1  0
 52 53  2  0
 52 51  1  0
 54 48  2  0
 55 54  1  0
 55 50  2  0
 56 49  1  0
 57 47  1  0
 59 61  2  0
 60 59  1  0
 62 60  1  0
 63 72  2  0
 63 68  1  0
 64 60  1  0
 64 68  1  0
 65 64  1  0
 66 67  1  0
 66 65  1  0
 67 63  1  0
 68 69  2  0
 69 70  1  0
 71 70  2  0
 72 71  1  0
 73 47  1  0
 73 78  1  0
 73 74  1  0
 74 77  1  1
 74 75  1  0
 76 74  1  0
 78 81  1  0
 79 83  1  0
 79 78  1  0
 80 79  2  0
 83 82  1  0
 85 83  1  0
 85 86  1  0
 85 84  1  0
M  ISO  4   8 100   9 100  45 101  46 101
M  END
>  <TORSDO>  (45) 
F 19

>  <SCORE>  (45) 
-16.080

>  <name>  (45) 
44

>  <ligand_id>  (45) 
44

>  <original_smiles>  (45) 
[H]c1c([H])c([H])c2c(c1[H])C([H])([H])C([H])([H])C([H])([H])C2([H])N([H])C(=O)C1([H])N(C(=O)C([H])(N([H])C(=O)C([H])(N([H])C([H])([H])[H])C([H])([H])[H])C(C([H])([H])[H])(C([H])([H])[H])C([H])([H])[H])C([H])([H])c2c([H])c(OC([H])([H])C3([H])C([H])([H])C([H])([H])C([H])(C([H])(C([H])([H])[H])C([H])([H])C(=O)N4C([H])([H])C([H])([H])C([H])([H])C([H])(n5nc(-c6c([H])c([H])c(Oc7c([H])c([H])c(F)c([H])c7F)c([H])c6[H])c(C(=O)N([H])[H])c5N([H])[H])C4([H])[H])C3([H])[H])c([H])c([H])c2C1([H])[H]

>  <smiles>  (45) 
[H]c1c([H])c([H])c2c(c1[H])C([H])([H])C([H])([H])C([H])([H])C2([H])N([H])C(=O)C1([H])N(C(=O)C([H])(N([H])C(=O)C([H])(N([H])C([H])([H])[H])C([H])([H])[H])C(C([H])([H])[H])(C([H])([H])[H])C([H])([H])[H])C([H])([H])c2c([H])c(OC([H])([H])C3([H])C([H])([H])C([H])([H])C([H])(C([H])(C([H])([H])[H])C([H])([H])C(=O)N4C([H])([H])C([H])([H])C([H])([H])C([H])(n5nc(-c6c([H])c([H])c(Oc7c([H])c([H])c(F)c([H])c7F)c([H])c6[H])c(C(=O)N([H])[H])c5N([H])[H])C4([H])[H])C3([H])[H])c([H])c([H])c2C1([H])[H]

$$$$
45:0:0
     RDKit          3D

 91 99  0  0  1  0  0  0  0  0999 V2000
  -30.2090  -19.8690   21.3930 C   0  0  0  0  0  2  0  0  0  0  0  0
  -30.3690  -21.4220   21.0620 C   0  0  0  0  0  2  0  0  0  0  0  0
  -28.9890  -21.2250   19.1500 C   0  0  0  0  0  2  0  0  0  0  0  0
  -29.9230  -18.8270   20.2290 C   0  0  0  0  0  3  0  0  0  0  0  0
  -28.8070  -19.6390   19.4140 C   0  0  0  0  0  3  0  0  0  0  0  0
  -28.5300  -18.9230   18.0800 C   0  0  0  0  0  1  0  0  0  0  0  0
  -29.2140  -22.1010   20.3600 N   0  0  2  0  0  4  0  0  0  0  0  0
  -28.4120  -21.9870   20.9650 H   0  0  0  0  0  0  0  0  0  0  0  0
  -29.7020  -15.9650   20.6790 C   0  0  0  0  0  3  0  0  0  0  0  0
  -29.4650  -17.3610   20.7760 C   0  0  0  0  0  0  0  0  0  0  0  0
  -30.5630  -14.8940   19.9910 C   0  0  0  0  0  0  0  0  0  0  0  0
  -30.4290  -12.6200   18.8770 C   0  0  0  0  0  2  0  0  0  0  0  0
  -29.3890  -12.6800   17.7270 C   0  0  0  0  0  2  0  0  0  0  0  0
  -27.9500  -12.4670   18.2440 C   0  0  0  0  0  2  0  0  0  0  0  0
  -27.6570  -13.2930   19.5220 C   0  0  0  0  0  3  0  0  0  0  0  0
  -28.7920  -13.1040   20.5480 C   0  0  0  0  0  2  0  0  0  0  0  0
  -30.0310  -13.6050   19.9180 N   0  0  0  0  0  0  0  0  0  0  0  0
  -31.6760  -15.0860   19.4820 O   0  0  0  0  0  0  0  0  0  0  0  0
  -25.3230  -13.8690   20.4200 C   0  0  0  0  0  0  0  0  0  0  0  0
  -24.2800  -13.0870   20.8370 C   0  0  0  0  0  0  0  0  0  0  0  0
  -24.7340  -11.7370   20.7330 C   0  0  0  0  0  0  0  0  0  0  0  0
  -26.3440  -12.9940   20.0870 N   0  0  0  0  0  0  0  0  0  0  0  0
  -26.0010  -11.7040   20.3350 N   0  0  0  0  0  0  0  0  0  0  0  0
  -24.0180  -10.4700   20.9340 C   0  0  0  0  0  0  0  0  0  0  0  0
  -24.4630   -9.5100   21.8690 C   0  0  0  0  0  3  0  0  0  0  0  0
  -23.7460   -8.3090   22.0570 C   0  0  0  0  0  3  0  0  0  0  0  0
  -22.5700   -8.0600   21.3110 C   0  0  0  0  0  0  0  0  0  0  0  0
  -22.1440   -9.0090   20.3660 C   0  0  0  0  0  3  0  0  0  0  0  0
  -22.8620  -10.2020   20.1750 C   0  0  0  0  0  3  0  0  0  0  0  0
  -21.8240   -6.9100   21.4080 O   0  0  0  0  0  0  0  0  0  0  0  0
  -21.7180   -6.2190   22.5890 C   0  0  0  0  0  0  0  0  0  0  0  0
  -21.1990   -6.8160   23.7580 C   0  0  0  0  0  3  0  0  0  0  0  0
  -21.0430   -6.0500   24.9310 C   0  0  0  0  0  3  0  0  0  0  0  0
  -21.3940   -4.6860   24.9340 C   0  0  0  0  0  0  0  0  0  0  0  0
  -21.9060   -4.0890   23.7690 C   0  0  0  0  0  3  0  0  0  0  0  0
  -22.0640   -4.8520   22.5980 C   0  0  0  0  0  0  0  0  0  0  0  0
  -22.5380   -4.2660   21.4730 F   0  0  0  0  0  0  0  0  0  0  0  0
  -21.2370   -3.9480   26.0570 F   0  0  0  0  0  0  0  0  0  0  0  0
  -22.9060  -13.5580   21.2170 C   0  0  0  0  0  0  0  0  0  0  0  0
  -22.2360  -12.8380   22.1100 N   0  0  0  0  0  0  0  0  0  0  0  0
  -22.4380  -14.6000   20.7600 O   0  0  0  0  0  0  0  0  0  0  0  0
  -22.6280  -11.9950   22.5010 H   0  0  0  0  0  0  0  0  0  0  0  0
  -21.3170  -13.1340   22.4070 H   0  0  0  0  0  0  0  0  0  0  0  0
  -25.4800  -15.2450   20.2760 N   0  0  0  0  0  0  0  0  0  0  0  0
  -24.7230  -15.8950   20.4540 H   0  0  0  0  0  0  0  0  0  0  0  0
  -26.3030  -15.6920   19.8910 H   0  0  0  0  0  0  0  0  0  0  0  0
  -28.4830  -17.6690   21.6420 O   0  0  0  0  0  0  0  0  0  0  0  0
  -28.1490  -16.8660   22.0180 H   0  0  0  0  0  0  0  0  0  0  0  0
  -29.4090  -23.6590   20.1580 C   0  0  0  0  0  3  0  0  0  0  0  0
  -28.1860  -24.7680   20.0720 C   0  0  0  0  0  3  0  0  0  0  0  0
  -28.4000  -26.2930   20.1440 O   0  0  0  0  0  0  0  0  0  0  0  0
  -24.6520  -31.8130   23.1950 C   0  0  0  0  0  0  0  0  0  0  0  0
  -27.3010  -27.2110   20.1070 C   0  0  0  0  0  0  0  0  0  0  0  0
  -23.4730  -30.4320   21.5280 C   0  0  0  0  0  3  0  0  0  0  0  0
  -24.9430  -28.8940   20.0930 C   0  0  0  0  0  0  0  0  0  0  0  0
  -26.0210  -30.7350   21.3790 C   0  0  0  0  0  2  0  0  0  0  0  0
  -26.1120  -29.3560   20.7100 C   0  0  0  0  0  0  0  0  0  0  0  0
  -27.2920  -28.5310   20.6980 C   0  0  0  0  0  3  0  0  0  0  0  0
  -26.1000  -26.8330   19.4640 C   0  0  0  0  0  3  0  0  0  0  0  0
  -24.9460  -27.6440   19.4580 C   0  0  0  0  0  3  0  0  0  0  0  0
  -23.7060  -29.7740   20.1420 C   0  0  0  0  0  2  0  0  0  0  0  0
  -24.7350  -31.0130   22.0900 N   0  0  0  0  0  0  0  0  0  0  0  0
  -23.5610  -32.0810   23.7210 O   0  0  0  0  0  0  0  0  0  0  0  0
  -22.7980  -29.4040   22.4690 C   0  0  0  0  0  0  0  0  0  0  0  0
  -21.4700  -29.2330   22.3380 N   0  0  0  0  0  0  0  0  0  0  0  0
  -23.4700  -28.7630   23.2810 O   0  0  0  0  0  0  0  0  0  0  0  0
  -20.9850  -29.8030   21.6580 H   0  0  0  0  0  0  0  0  0  0  0  0
  -18.0850  -28.0480   22.8350 C   0  0  0  0  0  0  0  0  0  0  0  0
  -20.6480  -28.2830   23.0900 C   0  0  0  0  0  3  0  0  0  0  0  0
  -20.7330  -26.8650   22.4790 C   0  0  0  0  0  2  0  0  0  0  0  0
  -19.6220  -26.5770   21.4640 C   0  0  0  0  0  2  0  0  0  0  0  0
  -18.2460  -26.7160   22.1220 C   0  0  0  0  0  2  0  0  0  0  0  0
  -19.2120  -28.7910   23.2760 C   0  0  0  0  0  0  0  0  0  0  0  0
  -19.0070  -30.0390   23.9030 C   0  0  0  0  0  3  0  0  0  0  0  0
  -17.7070  -30.5440   24.0940 C   0  0  0  0  0  3  0  0  0  0  0  0
  -16.5940  -29.7980   23.6680 C   0  0  0  0  0  3  0  0  0  0  0  0
  -16.7840  -28.5510   23.0450 C   0  0  0  0  0  3  0  0  0  0  0  0
  -25.9230  -32.4460   23.8390 C   0  0  0  0  0  3  0  0  0  0  0  0
  -26.4260  -31.6650   25.1160 C   0  0  1  0  0  0  0  0  0  0  0  0
  -25.3200  -31.4110   26.1670 C   0  0  0  0  0  1  0  0  0  0  0  0
  -27.0220  -30.2940   24.7210 C   0  0  0  0  0  1  0  0  0  0  0  0
  -27.5630  -32.4590   25.8010 C   0  0  0  0  0  1  0  0  0  0  0  0
  -25.6020  -33.8390   24.1840 N   0  0  0  0  0  0  0  0  0  0  0  0
  -25.9220  -34.9040   23.4370 C   0  0  0  0  0  0  0  0  0  0  0  0
  -26.5870  -34.8170   22.4010 O   0  0  0  0  0  0  0  0  0  0  0  0
  -25.0100  -33.9810   24.9900 H   0  0  0  0  0  0  0  0  0  0  0  0
  -24.1780  -36.6900   23.1170 C   0  0  0  0  0  1  0  0  0  0  0  0
  -25.4280  -36.2850   23.9140 C   0  0  0  0  0  3  0  0  0  0  0  0
  -27.5590  -37.1830   24.7430 C   0  0  0  0  0  1  0  0  0  0  0  0
  -26.4520  -37.3470   23.8030 N   0  0  0  0  0  0  0  0  0  0  0  0
  -26.0390  -38.2630   23.9560 H   0  0  0  0  0  0  0  0  0  0  0  0
  2  1  1  0
  3  5  1  0
  3  7  1  0
  4 10  1  0
  4  1  1  0
  5  6  1  0
  5  4  1  0
  7  8  1  1
  7  2  1  0
  9 10  2  0
 10 47  1  0
 11  9  1  0
 12 17  1  0
 13 14  1  0
 13 12  1  0
 15 14  1  0
 15 22  1  0
 15 16  1  0
 17 11  1  0
 17 16  1  0
 18 11  2  0
 19 20  2  0
 20 39  1  0
 21 20  1  0
 21 24  1  0
 22 23  1  0
 22 19  1  0
 23 21  2  0
 24 25  1  0
 25 26  2  0
 27 30  1  0
 27 26  1  0
 28 27  2  0
 29 28  1  0
 29 24  2  0
 30 31  1  0
 31 36  2  0
 31 32  1  0
 32 33  2  0
 33 34  1  0
 34 38  1  0
 35 34  2  0
 36 35  1  0
 37 36  1  0
 39 40  1  0
 40 43  1  0
 40 42  1  0
 41 39  2  0
 44 19  1  0
 44 45  1  0
 46 44  1  0
 47 48  1  0
 49  7  1  0
 50 51  1  0
 50 49  2  0
 52 63  2  0
 53 51  1  0
 53 58  1  0
 54 62  1  0
 54 64  1  0
 55 61  1  0
 55 57  1  0
 56 62  1  0
 57 56  1  0
 58 57  2  0
 59 53  2  0
 60 59  1  0
 60 55  2  0
 61 54  1  0
 62 52  1  0
 64 66  2  0
 65 64  1  0
 67 65  1  0
 68 77  2  0
 68 73  1  0
 69 65  1  0
 69 73  1  0
 70 69  1  0
 71 72  1  0
 71 70  1  0
 72 68  1  0
 73 74  2  0
 74 75  1  0
 76 75  2  0
 77 76  1  0
 78 52  1  0
 78 83  1  0
 78 79  1  0
 79 82  1  1
 79 80  1  0
 81 79  1  0
 83 86  1  0
 84 88  1  0
 84 83  1  0
 85 84  2  0
 88 87  1  0
 90 88  1  0
 90 91  1  0
 90 89  1  0
M  ISO  4   9 100  11 100  50 101  51 101
M  END
>  <TORSDO>  (46) 
F 20

>  <SCORE>  (46) 
-13.468

>  <name>  (46) 
45

>  <ligand_id>  (46) 
45

>  <original_smiles>  (46) 
[H]OC(=C([H])C(=O)N1C([H])([H])C([H])([H])C([H])([H])C([H])(n2nc(-c3c([H])c([H])c(Oc4c([H])c([H])c(F)c([H])c4F)c([H])c3[H])c(C(=O)N([H])[H])c2N([H])[H])C1([H])[H])C1([H])C([H])([H])C([H])([H])[N+]([H])(C([H])([H])C([H])([H])Oc2c([H])c([H])c3c(c2[H])C([H])([H])N(C(=O)C([H])(N([H])C(=O)C([H])(N([H])C([H])([H])[H])C([H])([H])[H])C(C([H])([H])[H])(C([H])([H])[H])C([H])([H])[H])C([H])(C(=O)N([H])C2([H])c4c([H])c([H])c([H])c([H])c4C([H])([H])C([H])([H])C2([H])[H])C3([H])[H])C([H])([H])C1([H])C([H])([H])[H]

>  <smiles>  (46) 
[H]OC(=C([H])C(=O)N1C([H])([H])C([H])([H])C([H])([H])C([H])(n2nc(-c3c([H])c([H])c(Oc4c([H])c([H])c(F)c([H])c4F)c([H])c3[H])c(C(=O)N([H])[H])c2N([H])[H])C1([H])[H])C1([H])C([H])([H])C([H])([H])[N+]([H])(C([H])([H])C([H])([H])Oc2c([H])c([H])c3c(c2[H])C([H])([H])N(C(=O)C([H])(N([H])C(=O)C([H])(N([H])C([H])([H])[H])C([H])([H])[H])C(C([H])([H])[H])(C([H])([H])[H])C([H])([H])[H])C([H])(C(=O)N([H])C2([H])c4c([H])c([H])c([H])c([H])c4C([H])([H])C([H])([H])C2([H])[H])C3([H])[H])C([H])([H])C1([H])C([H])([H])[H]

$$$$
46:0:0
     RDKit          3D

 91 99  0  0  1  0  0  0  0  0999 V2000
  -28.4190  -20.6850   21.5410 C   0  0  0  0  0  2  0  0  0  0  0  0
  -29.7290  -21.3860   21.8650 C   0  0  0  0  0  2  0  0  0  0  0  0
  -28.8320  -19.5840   20.5600 C   0  0  0  0  0  3  0  0  0  0  0  0
  -30.1370  -20.0490   19.8460 C   0  0  0  0  0  3  0  0  0  0  0  0
  -30.3770  -21.5670   20.5570 N   0  0  1  0  0  4  0  0  0  0  0  0
  -31.3690  -21.5950   20.7490 H   0  0  0  0  0  0  0  0  0  0  0  0
  -31.5640  -15.8370   20.0800 C   0  0  0  0  0  0  0  0  0  0  0  0
  -31.5260  -13.3070   19.4320 C   0  0  0  0  0  2  0  0  0  0  0  0
  -30.6480  -12.9690   18.2000 C   0  0  0  0  0  2  0  0  0  0  0  0
  -29.1780  -12.7630   18.6040 C   0  0  0  0  0  2  0  0  0  0  0  0
  -28.7020  -13.8350   19.6140 C   0  0  0  0  0  3  0  0  0  0  0  0
  -29.7120  -14.0950   20.7540 C   0  0  0  0  0  2  0  0  0  0  0  0
  -30.9670  -14.5360   20.1200 N   0  0  0  0  0  0  0  0  0  0  0  0
  -32.7890  -15.7610   19.9080 O   0  0  0  0  0  0  0  0  0  0  0  0
  -31.1590  -18.5930   19.8530 C   0  0  0  0  0  0  0  0  0  0  0  0
  -30.8300  -17.1440   20.0480 N   0  0  0  0  0  0  0  0  0  0  0  0
  -32.3480  -18.8580   19.6690 O   0  0  0  0  0  0  0  0  0  0  0  0
  -29.8410  -17.0100   20.1820 H   0  0  0  0  0  0  0  0  0  0  0  0
  -26.3590  -14.5130   20.3500 C   0  0  0  0  0  0  0  0  0  0  0  0
  -25.2500  -13.7950   20.6980 C   0  0  0  0  0  0  0  0  0  0  0  0
  -25.6360  -12.4200   20.6430 C   0  0  0  0  0  0  0  0  0  0  0  0
  -27.3530  -13.5830   20.1040 N   0  0  0  0  0  0  0  0  0  0  0  0
  -26.9280  -12.3150   20.3450 N   0  0  0  0  0  0  0  0  0  0  0  0
  -24.8320  -11.2020   20.7910 C   0  0  0  0  0  0  0  0  0  0  0  0
  -25.1780  -10.1960   21.7200 C   0  0  0  0  0  3  0  0  0  0  0  0
  -24.3720   -9.0450   21.8610 C   0  0  0  0  0  3  0  0  0  0  0  0
  -23.2060   -8.8930   21.0720 C   0  0  0  0  0  0  0  0  0  0  0  0
  -22.8800   -9.8870   20.1320 C   0  0  0  0  0  3  0  0  0  0  0  0
  -23.6860  -11.0270   19.9900 C   0  0  0  0  0  3  0  0  0  0  0  0
  -22.3810   -7.7960   21.1230 O   0  0  0  0  0  0  0  0  0  0  0  0
  -22.1790   -7.0990   22.2880 C   0  0  0  0  0  0  0  0  0  0  0  0
  -21.6710   -7.7200   23.4490 C   0  0  0  0  0  3  0  0  0  0  0  0
  -21.4130   -6.9520   24.6020 C   0  0  0  0  0  3  0  0  0  0  0  0
  -21.6530   -5.5660   24.5930 C   0  0  0  0  0  0  0  0  0  0  0  0
  -22.1530   -4.9450   23.4370 C   0  0  0  0  0  3  0  0  0  0  0  0
  -22.4120   -5.7090   22.2860 C   0  0  0  0  0  0  0  0  0  0  0  0
  -22.8740   -5.1010   21.1660 F   0  0  0  0  0  0  0  0  0  0  0  0
  -21.3970   -4.8270   25.6980 F   0  0  0  0  0  0  0  0  0  0  0  0
  -23.8810  -14.3530   20.9560 C   0  0  0  0  0  0  0  0  0  0  0  0
  -23.1080  -13.7040   21.8190 N   0  0  0  0  0  0  0  0  0  0  0  0
  -23.5070  -15.4010   20.4280 O   0  0  0  0  0  0  0  0  0  0  0  0
  -23.4240  -12.8570   22.2680 H   0  0  0  0  0  0  0  0  0  0  0  0
  -22.1860  -14.0580   22.0320 H   0  0  0  0  0  0  0  0  0  0  0  0
  -26.5980  -15.8710   20.1850 N   0  0  0  0  0  0  0  0  0  0  0  0
  -25.8640  -16.5600   20.3100 H   0  0  0  0  0  0  0  0  0  0  0  0
  -27.4600  -16.2680   19.8360 H   0  0  0  0  0  0  0  0  0  0  0  0
  -27.3300  -17.9010   19.4390 C   0  0  0  0  0  2  0  0  0  0  0  0
  -27.7060  -19.1740   19.6340 C   0  0  0  0  0  3  0  0  0  0  0  0
  -30.0140  -23.1390   20.0370 C   0  0  0  0  0  3  0  0  0  0  0  0
  -29.4700  -24.6450   20.9330 C   0  0  0  0  0  3  0  0  0  0  0  0
  -29.3860  -26.3090   20.7670 O   0  0  0  0  0  0  0  0  0  0  0  0
  -24.9680  -31.9680   23.3300 C   0  0  0  0  0  0  0  0  0  0  0  0
  -28.2450  -27.2810   20.7000 C   0  0  0  0  0  0  0  0  0  0  0  0
  -24.0810  -30.4510   21.6070 C   0  0  0  0  0  3  0  0  0  0  0  0
  -25.8040  -28.9610   20.3820 C   0  0  0  0  0  0  0  0  0  0  0  0
  -26.6210  -30.8880   21.7200 C   0  0  0  0  0  2  0  0  0  0  0  0
  -26.8840  -29.4770   21.1070 C   0  0  0  0  0  0  0  0  0  0  0  0
  -28.1040  -28.6640   21.2250 C   0  0  0  0  0  3  0  0  0  0  0  0
  -27.1170  -26.9130   19.9300 C   0  0  0  0  0  3  0  0  0  0  0  0
  -25.9480  -27.7040   19.7720 C   0  0  0  0  0  3  0  0  0  0  0  0
  -24.5120  -29.7720   20.2790 C   0  0  0  0  0  2  0  0  0  0  0  0
  -25.2370  -31.1330   22.2740 N   0  0  0  0  0  0  0  0  0  0  0  0
  -23.8100  -32.1650   23.7300 O   0  0  0  0  0  0  0  0  0  0  0  0
  -23.3770  -29.4090   22.5180 C   0  0  0  0  0  0  0  0  0  0  0  0
  -22.0720  -29.1670   22.2960 N   0  0  0  0  0  0  0  0  0  0  0  0
  -24.0170  -28.8190   23.3910 O   0  0  0  0  0  0  0  0  0  0  0  0
  -21.6090  -29.6960   21.5700 H   0  0  0  0  0  0  0  0  0  0  0  0
  -18.7130  -27.8340   22.6390 C   0  0  0  0  0  0  0  0  0  0  0  0
  -21.2520  -28.1750   23.0030 C   0  0  0  0  0  3  0  0  0  0  0  0
  -21.4220  -26.7690   22.3800 C   0  0  0  0  0  2  0  0  0  0  0  0
  -20.3670  -26.4510   21.3150 C   0  0  0  0  0  2  0  0  0  0  0  0
  -18.9600  -26.5210   21.9150 C   0  0  0  0  0  2  0  0  0  0  0  0
  -19.7890  -28.6190   23.1340 C   0  0  0  0  0  0  0  0  0  0  0  0
  -19.5020  -29.8460   23.7720 C   0  0  0  0  0  3  0  0  0  0  0  0
  -18.1740  -30.2880   23.9190 C   0  0  0  0  0  3  0  0  0  0  0  0
  -17.1130  -29.5010   23.4380 C   0  0  0  0  0  3  0  0  0  0  0  0
  -17.3830  -28.2760   22.8020 C   0  0  0  0  0  3  0  0  0  0  0  0
  -26.1040  -32.7300   24.0780 C   0  0  0  0  0  3  0  0  0  0  0  0
  -26.5160  -32.0440   25.4400 C   0  0  1  0  0  0  0  0  0  0  0  0
  -25.3170  -31.7160   26.3600 C   0  0  0  0  0  1  0  0  0  0  0  0
  -27.2860  -30.7280   25.1880 C   0  0  0  0  0  1  0  0  0  0  0  0
  -27.4760  -32.9710   26.2230 C   0  0  0  0  0  1  0  0  0  0  0  0
  -25.6410  -34.1080   24.3260 N   0  0  0  0  0  0  0  0  0  0  0  0
  -25.9380  -35.1670   23.5610 C   0  0  0  0  0  0  0  0  0  0  0  0
  -26.6880  -35.0930   22.5850 O   0  0  0  0  0  0  0  0  0  0  0  0
  -24.9740  -34.2290   25.0730 H   0  0  0  0  0  0  0  0  0  0  0  0
  -24.0780  -36.7860   23.0430 C   0  0  0  0  0  1  0  0  0  0  0  0
  -25.3020  -36.5230   23.9340 C   0  0  0  0  0  3  0  0  0  0  0  0
  -27.2950  -37.6350   24.8430 C   0  0  0  0  0  1  0  0  0  0  0  0
  -26.2410  -37.6630   23.8330 N   0  0  0  0  0  0  0  0  0  0  0  0
  -25.7460  -38.5460   23.9160 H   0  0  0  0  0  0  0  0  0  0  0  0
  1  2  1  0
  3 48  1  0
  3  1  1  0
  4 15  1  0
  4  5  1  0
  4  3  1  0
  5  6  1  1
  5  2  1  0
  7 13  1  0
  8 13  1  0
  9 10  1  0
  9  8  1  0
 11 10  1  0
 11 22  1  0
 11 12  1  0
 13 12  1  0
 14  7  2  0
 15 16  1  0
 16  7  1  0
 16 18  1  0
 17 15  2  0
 19 20  2  0
 20 39  1  0
 21 20  1  0
 21 24  1  0
 22 23  1  0
 22 19  1  0
 23 21  2  0
 24 25  1  0
 25 26  2  0
 27 30  1  0
 27 26  1  0
 28 27  2  0
 29 28  1  0
 29 24  2  0
 30 31  1  0
 31 32  1  0
 32 33  2  0
 34 33  1  0
 34 38  1  0
 35 34  2  0
 36 31  2  0
 36 35  1  0
 37 36  1  0
 39 40  1  0
 40 43  1  0
 40 42  1  0
 41 39  2  0
 44 45  1  0
 44 19  1  0
 46 44  1  0
 47 48  2  0
 49  5  1  0
 49 50  2  0
 51 50  1  0
 52 63  2  0
 53 51  1  0
 53 58  1  0
 54 62  1  0
 54 64  1  0
 55 57  1  0
 56 62  1  0
 57 58  2  0
 57 56  1  0
 59 53  2  0
 60 59  1  0
 60 55  2  0
 61 55  1  0
 61 54  1  0
 62 52  1  0
 64 66  2  0
 65 64  1  0
 67 65  1  0
 68 77  2  0
 68 73  1  0
 69 65  1  0
 69 73  1  0
 70 69  1  0
 71 72  1  0
 71 70  1  0
 72 68  1  0
 73 74  2  0
 74 75  1  0
 76 75  2  0
 77 76  1  0
 78 52  1  0
 78 83  1  0
 78 79  1  0
 79 82  1  1
 79 80  1  0
 81 79  1  0
 83 86  1  0
 84 88  1  0
 84 83  1  0
 85 84  2  0
 88 87  1  0
 90 91  1  0
 90 88  1  0
 90 89  1  0
M  ISO  4   7 100  16 100  50 101  51 101
M  END
>  <TORSDO>  (47) 
F 19

>  <SCORE>  (47) 
-13.600

>  <name>  (47) 
46

>  <ligand_id>  (47) 
46

>  <original_smiles>  (47) 
[H]C([H])=C([H])C1([H])C([H])([H])C([H])([H])[N+]([H])(C([H])([H])C([H])([H])Oc2c([H])c([H])c3c(c2[H])C([H])([H])N(C(=O)C([H])(N([H])C(=O)C([H])(N([H])C([H])([H])[H])C([H])([H])[H])C(C([H])([H])[H])(C([H])([H])[H])C([H])([H])[H])C([H])(C(=O)N([H])C2([H])c4c([H])c([H])c([H])c([H])c4C([H])([H])C([H])([H])C2([H])[H])C3([H])[H])C1([H])C(=O)N([H])C(=O)N1C([H])([H])C([H])([H])C([H])([H])C([H])(n2nc(-c3c([H])c([H])c(Oc4c([H])c([H])c(F)c([H])c4F)c([H])c3[H])c(C(=O)N([H])[H])c2N([H])[H])C1([H])[H]

>  <smiles>  (47) 
[H]C([H])=C([H])C1([H])C([H])([H])C([H])([H])[N+]([H])(C([H])([H])C([H])([H])Oc2c([H])c([H])c3c(c2[H])C([H])([H])N(C(=O)C([H])(N([H])C(=O)C([H])(N([H])C([H])([H])[H])C([H])([H])[H])C(C([H])([H])[H])(C([H])([H])[H])C([H])([H])[H])C([H])(C(=O)N([H])C2([H])c4c([H])c([H])c([H])c([H])c4C([H])([H])C([H])([H])C2([H])[H])C3([H])[H])C1([H])C(=O)N([H])C(=O)N1C([H])([H])C([H])([H])C([H])([H])C([H])(n2nc(-c3c([H])c([H])c(Oc4c([H])c([H])c(F)c([H])c4F)c([H])c3[H])c(C(=O)N([H])[H])c2N([H])[H])C1([H])[H]

$$$$
47:0:0
     RDKit          3D

 90 98  0  0  1  0  0  0  0  0999 V2000
  -28.2080  -21.6900   19.8940 C   0  0  0  0  0  3  0  0  0  0  0  0
  -30.4780  -22.2690   20.4710 C   0  0  0  0  0  3  0  0  0  0  0  0
  -27.8020  -23.0240   20.1800 C   0  0  0  0  0  3  0  0  0  0  0  0
  -30.0730  -23.6030   20.7550 C   0  0  0  0  0  3  0  0  0  0  0  0
  -29.5560  -21.2790   20.0450 C   0  0  0  0  0  0  0  0  0  0  0  0
  -28.7230  -24.0100   20.6220 C   0  0  0  0  0  0  0  0  0  0  0  0
  -30.0550  -19.8620   19.6120 C   0  0  0  0  0  2  0  0  0  0  0  0
  -29.5990  -18.5620   20.3570 C   0  0  0  0  0  0  0  0  0  0  0  0
  -28.5320  -18.5210   20.9750 O   0  0  0  0  0  0  0  0  0  0  0  0
  -31.7800  -17.5610   21.1790 C   0  0  0  0  0  1  0  0  0  0  0  0
  -30.5350  -17.3030   20.3010 C   0  0  0  0  0  3  0  0  0  0  0  0
  -29.8760  -15.8910   20.6290 C   0  0  0  0  0  2  0  0  0  0  0  0
  -30.5630  -14.6160   20.0090 C   0  0  0  0  0  0  0  0  0  0  0  0
  -30.2340  -12.4120   18.9130 C   0  0  0  0  0  2  0  0  0  0  0  0
  -29.2130  -12.5780   17.7670 C   0  0  0  0  0  2  0  0  0  0  0  0
  -27.7730  -12.4150   18.2940 C   0  0  0  0  0  2  0  0  0  0  0  0
  -27.5050  -13.2620   19.5660 C   0  0  0  0  0  3  0  0  0  0  0  0
  -28.6380  -13.1000   20.6050 C   0  0  0  0  0  2  0  0  0  0  0  0
  -29.9110  -13.4150   19.9450 N   0  0  0  0  0  0  0  0  0  0  0  0
  -31.6630  -14.7590   19.4700 O   0  0  0  0  0  0  0  0  0  0  0  0
  -25.1690  -13.8490   20.4640 C   0  0  0  0  0  0  0  0  0  0  0  0
  -24.1300  -13.0680   20.8940 C   0  0  0  0  0  0  0  0  0  0  0  0
  -24.5880  -11.7170   20.8080 C   0  0  0  0  0  0  0  0  0  0  0  0
  -26.1940  -12.9730   20.1410 N   0  0  0  0  0  0  0  0  0  0  0  0
  -25.8530  -11.6860   20.4090 N   0  0  0  0  0  0  0  0  0  0  0  0
  -23.8770  -10.4510   21.0280 C   0  0  0  0  0  0  0  0  0  0  0  0
  -24.3510   -9.4870   21.9440 C   0  0  0  0  0  3  0  0  0  0  0  0
  -23.6390   -8.2860   22.1520 C   0  0  0  0  0  3  0  0  0  0  0  0
  -22.4380   -8.0400   21.4450 C   0  0  0  0  0  0  0  0  0  0  0  0
  -21.9830   -8.9930   20.5170 C   0  0  0  0  0  3  0  0  0  0  0  0
  -22.6960  -10.1860   20.3070 C   0  0  0  0  0  3  0  0  0  0  0  0
  -21.6950   -6.8910   21.5620 O   0  0  0  0  0  0  0  0  0  0  0  0
  -21.6790   -6.1600   22.7230 C   0  0  0  0  0  0  0  0  0  0  0  0
  -21.2470   -6.7140   23.9470 C   0  0  0  0  0  3  0  0  0  0  0  0
  -21.1810   -5.9070   25.1000 C   0  0  0  0  0  3  0  0  0  0  0  0
  -21.5370   -4.5480   25.0310 C   0  0  0  0  0  0  0  0  0  0  0  0
  -21.9630   -3.9930   23.8120 C   0  0  0  0  0  3  0  0  0  0  0  0
  -22.0300   -4.7960   22.6600 C   0  0  0  0  0  0  0  0  0  0  0  0
  -22.4210   -4.2520   21.4820 F   0  0  0  0  0  0  0  0  0  0  0  0
  -21.4670   -3.7700   26.1370 F   0  0  0  0  0  0  0  0  0  0  0  0
  -22.7550  -13.5390   21.2730 C   0  0  0  0  0  0  0  0  0  0  0  0
  -22.0900  -12.8240   22.1740 N   0  0  0  0  0  0  0  0  0  0  0  0
  -22.2830  -14.5750   20.8070 O   0  0  0  0  0  0  0  0  0  0  0  0
  -22.4860  -11.9850   22.5720 H   0  0  0  0  0  0  0  0  0  0  0  0
  -21.1710  -13.1210   22.4710 H   0  0  0  0  0  0  0  0  0  0  0  0
  -25.3220  -15.2220   20.3020 N   0  0  0  0  0  0  0  0  0  0  0  0
  -24.5740  -15.8790   20.4920 H   0  0  0  0  0  0  0  0  0  0  0  0
  -26.1620  -15.6700   19.9570 H   0  0  0  0  0  0  0  0  0  0  0  0
  -28.2330  -25.3990   21.1290 C   0  0  0  0  0  2  0  0  0  0  0  0
  -28.4490  -26.5950   20.3170 O   0  0  0  0  0  0  0  0  0  0  0  0
  -24.5760  -31.8900   23.2480 C   0  0  0  0  0  0  0  0  0  0  0  0
  -27.3380  -27.4270   20.2530 C   0  0  0  0  0  0  0  0  0  0  0  0
  -23.4360  -30.4860   21.5630 C   0  0  0  0  0  3  0  0  0  0  0  0
  -24.9480  -28.9630   20.1760 C   0  0  0  0  0  0  0  0  0  0  0  0
  -25.9710  -30.8500   21.4540 C   0  0  0  0  0  2  0  0  0  0  0  0
  -26.0880  -29.4800   20.8070 C   0  0  0  0  0  0  0  0  0  0  0  0
  -27.2900  -28.7210   20.8390 C   0  0  0  0  0  3  0  0  0  0  0  0
  -26.1840  -26.9450   19.6020 C   0  0  0  0  0  3  0  0  0  0  0  0
  -24.9960  -27.6980   19.5650 C   0  0  0  0  0  3  0  0  0  0  0  0
  -23.6980  -29.8150   20.1880 C   0  0  0  0  0  2  0  0  0  0  0  0
  -24.6770  -31.0910   22.1460 N   0  0  0  0  0  0  0  0  0  0  0  0
  -23.4740  -32.1510   23.7520 O   0  0  0  0  0  0  0  0  0  0  0  0
  -22.7580  -29.4570   22.4980 C   0  0  0  0  0  0  0  0  0  0  0  0
  -21.4380  -29.2700   22.3320 N   0  0  0  0  0  0  0  0  0  0  0  0
  -23.4190  -28.8310   23.3320 O   0  0  0  0  0  0  0  0  0  0  0  0
  -20.9670  -29.8260   21.6330 H   0  0  0  0  0  0  0  0  0  0  0  0
  -18.0560  -28.0550   22.7270 C   0  0  0  0  0  0  0  0  0  0  0  0
  -20.6040  -28.3230   23.0730 C   0  0  0  0  0  3  0  0  0  0  0  0
  -20.7290  -26.8960   22.4910 C   0  0  0  0  0  2  0  0  0  0  0  0
  -19.6580  -26.5760   21.4430 C   0  0  0  0  0  2  0  0  0  0  0  0
  -18.2570  -26.7110   22.0490 C   0  0  0  0  0  2  0  0  0  0  0  0
  -19.1580  -28.8180   23.1950 C   0  0  0  0  0  0  0  0  0  0  0  0
  -18.9170  -30.0760   23.7880 C   0  0  0  0  0  3  0  0  0  0  0  0
  -17.6060  -30.5710   23.9210 C   0  0  0  0  0  3  0  0  0  0  0  0
  -16.5170  -29.8030   23.4720 C   0  0  0  0  0  3  0  0  0  0  0  0
  -16.7430  -28.5470   22.8800 C   0  0  0  0  0  3  0  0  0  0  0  0
  -25.8350  -32.5300   23.9110 C   0  0  0  0  0  3  0  0  0  0  0  0
  -25.5120  -33.9310   24.2140 N   0  0  0  0  0  0  0  0  0  0  0  0
  -25.8670  -34.9750   23.4540 C   0  0  0  0  0  0  0  0  0  0  0  0
  -26.5720  -34.8610   22.4470 O   0  0  0  0  0  0  0  0  0  0  0  0
  -24.8940  -34.0930   24.9950 H   0  0  0  0  0  0  0  0  0  0  0  0
  -24.1500  -36.7590   23.0190 C   0  0  0  0  0  1  0  0  0  0  0  0
  -25.3620  -36.3680   23.8780 C   0  0  0  0  0  3  0  0  0  0  0  0
  -27.4610  -37.2690   24.7770 C   0  0  0  0  0  1  0  0  0  0  0  0
  -26.3960  -37.4210   23.7900 N   0  0  0  0  0  0  0  0  0  0  0  0
  -25.9820  -38.3420   23.9090 H   0  0  0  0  0  0  0  0  0  0  0  0
  -26.3040  -31.7730   25.2140 C   0  0  1  0  0  0  0  0  0  0  0  0
  -25.1710  -31.5430   26.2410 C   0  0  0  0  0  1  0  0  0  0  0  0
  -26.9040  -30.3930   24.8570 C   0  0  0  0  0  1  0  0  0  0  0  0
  -27.4260  -32.5760   25.9110 C   0  0  0  0  0  1  0  0  0  0  0  0
  1  5  2  0
  1  3  1  0
  2  4  2  0
  3  6  2  0
  5  2  1  0
  6  4  1  0
  6 49  1  0
  7  5  1  0
  7  8  1  0
  8  9  2  0
 11  8  1  0
 11 12  1  0
 11 10  1  0
 13 12  1  0
 14 19  1  0
 15 16  1  0
 15 14  1  0
 17 16  1  0
 17 24  1  0
 17 18  1  0
 19 13  1  0
 19 18  1  0
 20 13  2  0
 21 22  2  0
 22 41  1  0
 23 22  1  0
 23 26  1  0
 24 25  1  0
 24 21  1  0
 25 23  2  0
 26 27  1  0
 27 28  2  0
 29 32  1  0
 29 28  1  0
 30 29  2  0
 31 30  1  0
 31 26  2  0
 32 33  1  0
 33 34  1  0
 34 35  2  0
 36 35  1  0
 36 40  1  0
 37 36  2  0
 38 33  2  0
 38 37  1  0
 39 38  1  0
 41 42  1  0
 42 45  1  0
 42 44  1  0
 43 41  2  0
 46 21  1  0
 46 47  1  0
 48 46  1  0
 50 49  1  0
 51 62  2  0
 52 50  1  0
 52 57  1  0
 53 61  1  0
 53 63  1  0
 54 60  1  0
 54 56  1  0
 55 61  1  0
 56 57  2  0
 56 55  1  0
 58 52  2  0
 59 58  1  0
 59 54  2  0
 60 53  1  0
 61 51  1  0
 63 65  2  0
 64 63  1  0
 66 64  1  0
 67 76  2  0
 67 72  1  0
 68 64  1  0
 68 72  1  0
 69 68  1  0
 70 71  1  0
 70 69  1  0
 71 67  1  0
 72 73  2  0
 73 74  1  0
 75 74  2  0
 76 75  1  0
 77 51  1  0
 77 78  1  0
 77 87  1  0
 78 81  1  0
 79 83  1  0
 79 78  1  0
 80 79  2  0
 83 82  1  0
 85 83  1  0
 85 86  1  0
 85 84  1  0
 87 90  1  1
 87 88  1  0
 89 87  1  0
M  ISO  4  12 100  13 100  49 101  50 101
M  END
>  <TORSDO>  (48) 
F 21

>  <SCORE>  (48) 
-13.259

>  <name>  (48) 
47

>  <ligand_id>  (48) 
47

>  <original_smiles>  (48) 
[H]c1c([H])c([H])c2c(c1[H])C([H])([H])C([H])([H])C([H])([H])C2([H])N([H])C(=O)C1([H])N(C(=O)C([H])(N([H])C(=O)C([H])(N([H])C([H])([H])[H])C([H])([H])[H])C(C([H])([H])[H])(C([H])([H])[H])C([H])([H])[H])C([H])([H])c2c([H])c(OC([H])([H])c3c([H])c([H])c(C([H])([H])C(=O)C([H])(C([H])([H])[H])C([H])([H])C(=O)N4C([H])([H])C([H])([H])C([H])([H])C([H])(n5nc(-c6c([H])c([H])c(Oc7c([H])c([H])c(F)c([H])c7F)c([H])c6[H])c(C(=O)N([H])[H])c5N([H])[H])C4([H])[H])c([H])c3[H])c([H])c([H])c2C1([H])[H]

>  <smiles>  (48) 
[H]c1c([H])c([H])c2c(c1[H])C([H])([H])C([H])([H])C([H])([H])C2([H])N([H])C(=O)C1([H])N(C(=O)C([H])(N([H])C(=O)C([H])(N([H])C([H])([H])[H])C([H])([H])[H])C(C([H])([H])[H])(C([H])([H])[H])C([H])([H])[H])C([H])([H])c2c([H])c(OC([H])([H])c3c([H])c([H])c(C([H])([H])C(=O)C([H])(C([H])([H])[H])C([H])([H])C(=O)N4C([H])([H])C([H])([H])C([H])([H])C([H])(n5nc(-c6c([H])c([H])c(Oc7c([H])c([H])c(F)c([H])c7F)c([H])c6[H])c(C(=O)N([H])[H])c5N([H])[H])C4([H])[H])c([H])c3[H])c([H])c([H])c2C1([H])[H]

$$$$
48:0:0
     RDKit          3D

 89 97  0  0  1  0  0  0  0  0999 V2000
  -28.2100  -21.0890   20.8140 C   0  0  0  0  0  0  0  0  0  0  0  0
  -28.5160  -19.5240   20.9240 C   0  0  0  0  0  2  0  0  0  0  0  0
  -30.0480  -20.7350   19.5180 C   0  0  0  0  0  2  0  0  0  0  0  0
  -29.4610  -19.2320   19.7460 C   0  0  0  0  0  3  0  0  0  0  0  0
  -29.0460  -21.8100   20.0040 N   0  0  0  0  0  0  0  0  0  0  0  0
  -27.2680  -21.6000   21.4240 O   0  0  0  0  0  0  0  0  0  0  0  0
  -30.2790  -16.3960   19.0810 C   0  0  0  0  0  2  0  0  0  0  0  0
  -29.9040  -17.7900   19.0210 C   0  0  0  0  0  3  0  0  0  0  0  0
  -30.8480  -15.2000   19.8700 C   0  0  0  0  0  0  0  0  0  0  0  0
  -30.5690  -12.7690   19.0940 C   0  0  0  0  0  2  0  0  0  0  0  0
  -29.7170  -12.7700   17.8150 C   0  0  0  0  0  2  0  0  0  0  0  0
  -28.2140  -12.6580   18.1500 C   0  0  0  0  0  2  0  0  0  0  0  0
  -27.8260  -13.5400   19.3660 C   0  0  0  0  0  3  0  0  0  0  0  0
  -28.8880  -13.6850   20.4670 C   0  0  0  0  0  2  0  0  0  0  0  0
  -30.1730  -13.9860   19.8480 N   0  0  0  0  0  0  0  0  0  0  0  0
  -32.0800  -15.1030   19.8100 O   0  0  0  0  0  0  0  0  0  0  0  0
  -25.5520  -14.1010   20.3670 C   0  0  0  0  0  0  0  0  0  0  0  0
  -24.5060  -13.3330   20.7770 C   0  0  0  0  0  0  0  0  0  0  0  0
  -24.9530  -11.9740   20.6820 C   0  0  0  0  0  0  0  0  0  0  0  0
  -26.5410  -13.2150   19.9710 N   0  0  0  0  0  0  0  0  0  0  0  0
  -26.2160  -11.9300   20.2670 N   0  0  0  0  0  0  0  0  0  0  0  0
  -24.2210  -10.7260   20.9030 C   0  0  0  0  0  0  0  0  0  0  0  0
  -24.6410   -9.7580   21.8530 C   0  0  0  0  0  3  0  0  0  0  0  0
  -23.9000   -8.5730   22.0270 C   0  0  0  0  0  3  0  0  0  0  0  0
  -22.7270   -8.3430   21.2630 C   0  0  0  0  0  0  0  0  0  0  0  0
  -22.3420   -9.2890   20.3020 C   0  0  0  0  0  3  0  0  0  0  0  0
  -23.0870  -10.4680   20.1180 C   0  0  0  0  0  3  0  0  0  0  0  0
  -21.9580   -7.2030   21.3590 O   0  0  0  0  0  0  0  0  0  0  0  0
  -21.8390   -6.5180   22.5380 C   0  0  0  0  0  0  0  0  0  0  0  0
  -21.2920   -7.1190   23.6940 C   0  0  0  0  0  3  0  0  0  0  0  0
  -21.1260   -6.3660   24.8710 C   0  0  0  0  0  3  0  0  0  0  0  0
  -21.4880   -5.0080   24.8970 C   0  0  0  0  0  0  0  0  0  0  0  0
  -22.0200   -4.4000   23.7490 C   0  0  0  0  0  3  0  0  0  0  0  0
  -22.1970   -5.1530   22.5700 C   0  0  0  0  0  0  0  0  0  0  0  0
  -22.6990   -4.5600   21.4650 F   0  0  0  0  0  0  0  0  0  0  0  0
  -21.3110   -4.2790   26.0280 F   0  0  0  0  0  0  0  0  0  0  0  0
  -23.1390  -13.8360   21.1360 C   0  0  0  0  0  0  0  0  0  0  0  0
  -22.4450  -13.1440   22.0340 N   0  0  0  0  0  0  0  0  0  0  0  0
  -22.7040  -14.8760   20.6410 O   0  0  0  0  0  0  0  0  0  0  0  0
  -22.8460  -12.3150   22.4570 H   0  0  0  0  0  0  0  0  0  0  0  0
  -21.5180  -13.4540   22.2980 H   0  0  0  0  0  0  0  0  0  0  0  0
  -25.7440  -15.4780   20.2760 N   0  0  0  0  0  0  0  0  0  0  0  0
  -24.9990  -16.1250   20.5070 H   0  0  0  0  0  0  0  0  0  0  0  0
  -26.5660  -15.9210   19.8870 H   0  0  0  0  0  0  0  0  0  0  0  0
  -29.9060  -18.1700   17.7350 O   0  0  0  0  0  0  0  0  0  0  0  0
  -30.3940  -17.5150   17.2540 H   0  0  0  0  0  0  0  0  0  0  0  0
  -29.2080  -23.4100   19.8500 C   0  0  0  0  0  3  0  0  0  0  0  0
  -28.0760  -24.7060   19.9490 C   0  0  0  0  0  3  0  0  0  0  0  0
  -28.3550  -26.2710   19.9790 O   0  0  0  0  0  0  0  0  0  0  0  0
  -24.7430  -31.9170   23.1960 C   0  0  0  0  0  0  0  0  0  0  0  0
  -27.3090  -27.2840   19.9830 C   0  0  0  0  0  0  0  0  0  0  0  0
  -23.5270  -30.5520   21.5440 C   0  0  0  0  0  3  0  0  0  0  0  0
  -24.9670  -29.0360   20.0470 C   0  0  0  0  0  0  0  0  0  0  0  0
  -26.0780  -30.8480   21.3390 C   0  0  0  0  0  2  0  0  0  0  0  0
  -26.1570  -29.4750   20.6430 C   0  0  0  0  0  0  0  0  0  0  0  0
  -27.3290  -28.6160   20.5860 C   0  0  0  0  0  3  0  0  0  0  0  0
  -26.0850  -26.9710   19.3480 C   0  0  0  0  0  3  0  0  0  0  0  0
  -24.9440  -27.8020   19.3870 C   0  0  0  0  0  3  0  0  0  0  0  0
  -23.7290  -29.9150   20.1460 C   0  0  0  0  0  2  0  0  0  0  0  0
  -24.8020  -31.1250   22.0800 N   0  0  0  0  0  0  0  0  0  0  0  0
  -23.6620  -32.1720   23.7510 O   0  0  0  0  0  0  0  0  0  0  0  0
  -22.8830  -29.5060   22.4920 C   0  0  0  0  0  0  0  0  0  0  0  0
  -21.5610  -29.2980   22.3660 N   0  0  0  0  0  0  0  0  0  0  0  0
  -23.5750  -28.8880   23.3050 O   0  0  0  0  0  0  0  0  0  0  0  0
  -21.0570  -29.8420   21.6800 H   0  0  0  0  0  0  0  0  0  0  0  0
  -18.2200  -27.9840   22.8580 C   0  0  0  0  0  0  0  0  0  0  0  0
  -20.7680  -28.3250   23.1260 C   0  0  0  0  0  3  0  0  0  0  0  0
  -20.9160  -26.9050   22.5320 C   0  0  0  0  0  2  0  0  0  0  0  0
  -19.8220  -26.5610   21.5170 C   0  0  0  0  0  2  0  0  0  0  0  0
  -18.4380  -26.6510   22.1660 C   0  0  0  0  0  2  0  0  0  0  0  0
  -19.3120  -28.7800   23.2940 C   0  0  0  0  0  0  0  0  0  0  0  0
  -19.0530  -30.0250   23.9040 C   0  0  0  0  0  3  0  0  0  0  0  0
  -17.7310  -30.4780   24.0840 C   0  0  0  0  0  3  0  0  0  0  0  0
  -16.6530  -29.6830   23.6600 C   0  0  0  0  0  3  0  0  0  0  0  0
  -16.8980  -28.4380   23.0520 C   0  0  0  0  0  3  0  0  0  0  0  0
  -26.0240  -32.5550   23.8130 C   0  0  0  0  0  3  0  0  0  0  0  0
  -26.5530  -31.7780   25.0820 C   0  0  1  0  0  0  0  0  0  0  0  0
  -25.4690  -31.5190   26.1540 C   0  0  0  0  0  1  0  0  0  0  0  0
  -27.1510  -30.4100   24.6820 C   0  0  0  0  0  1  0  0  0  0  0  0
  -27.7040  -32.5740   25.7380 C   0  0  0  0  0  1  0  0  0  0  0  0
  -25.7040  -33.9500   24.1650 N   0  0  0  0  0  0  0  0  0  0  0  0
  -26.0140  -35.0160   23.4160 C   0  0  0  0  0  0  0  0  0  0  0  0
  -26.6600  -34.9300   22.3680 O   0  0  0  0  0  0  0  0  0  0  0  0
  -25.1230  -34.0860   24.9790 H   0  0  0  0  0  0  0  0  0  0  0  0
  -24.2650  -36.8010   23.1220 C   0  0  0  0  0  1  0  0  0  0  0  0
  -25.5280  -36.3960   23.9030 C   0  0  0  0  0  3  0  0  0  0  0  0
  -27.6680  -37.2910   24.7060 C   0  0  0  0  0  1  0  0  0  0  0  0
  -26.5530  -37.4570   23.7760 N   0  0  0  0  0  0  0  0  0  0  0  0
  -26.1450  -38.3740   23.9310 H   0  0  0  0  0  0  0  0  0  0  0  0
  1  2  1  0
  1  6  2  0
  3  4  1  0
  3  5  1  0
  4  8  1  0
  4  2  1  0
  5  1  1  0
  7  9  1  0
  8  7  1  0
 10 15  1  0
 11 12  1  0
 11 10  1  0
 13 12  1  0
 13 20  1  0
 13 14  1  0
 15  9  1  0
 15 14  1  0
 16  9  2  0
 17 18  2  0
 18 37  1  0
 19 18  1  0
 19 22  1  0
 20 21  1  0
 20 17  1  0
 21 19  2  0
 22 23  1  0
 23 24  2  0
 25 28  1  0
 25 24  1  0
 26 25  2  0
 27 26  1  0
 27 22  2  0
 28 29  1  0
 29 34  2  0
 29 30  1  0
 30 31  2  0
 31 32  1  0
 32 36  1  0
 33 32  2  0
 34 33  1  0
 35 34  1  0
 37 38  1  0
 38 41  1  0
 38 40  1  0
 39 37  2  0
 42 17  1  0
 42 43  1  0
 44 42  1  0
 45  8  1  0
 46 45  1  0
 47 48  2  0
 47  5  1  0
 48 49  1  0
 49 51  1  0
 50 61  2  0
 51 56  1  0
 52 60  1  0
 52 62  1  0
 53 59  1  0
 53 55  1  0
 54 60  1  0
 55 54  1  0
 56 55  2  0
 57 58  1  0
 57 51  2  0
 58 53  2  0
 59 52  1  0
 60 50  1  0
 62 64  2  0
 63 62  1  0
 65 63  1  0
 66 75  2  0
 66 71  1  0
 67 63  1  0
 67 71  1  0
 68 67  1  0
 69 70  1  0
 69 68  1  0
 70 66  1  0
 71 72  2  0
 72 73  1  0
 74 73  2  0
 75 74  1  0
 76 50  1  0
 76 81  1  0
 76 77  1  0
 77 80  1  1
 77 78  1  0
 79 77  1  0
 81 84  1  0
 82 86  1  0
 82 81  1  0
 83 82  2  0
 86 85  1  0
 88 86  1  0
 88 89  1  0
 88 87  1  0
M  ISO  4   7 100   9 100  48 101  49 101
M  END
>  <TORSDO>  (49) 
F 20

>  <SCORE>  (49) 
-13.847

>  <name>  (49) 
48

>  <ligand_id>  (49) 
48

>  <original_smiles>  (49) 
[H]OC(=C([H])C(=O)N1C([H])([H])C([H])([H])C([H])([H])C([H])(n2nc(-c3c([H])c([H])c(Oc4c([H])c([H])c(F)c([H])c4F)c([H])c3[H])c(C(=O)N([H])[H])c2N([H])[H])C1([H])[H])C1([H])C([H])([H])C(=O)N(C([H])([H])C([H])([H])Oc2c([H])c([H])c3c(c2[H])C([H])([H])N(C(=O)C([H])(N([H])C(=O)C([H])(N([H])C([H])([H])[H])C([H])([H])[H])C(C([H])([H])[H])(C([H])([H])[H])C([H])([H])[H])C([H])(C(=O)N([H])C2([H])c4c([H])c([H])c([H])c([H])c4C([H])([H])C([H])([H])C2([H])[H])C3([H])[H])C1([H])[H]

>  <smiles>  (49) 
[H]OC(=C([H])C(=O)N1C([H])([H])C([H])([H])C([H])([H])C([H])(n2nc(-c3c([H])c([H])c(Oc4c([H])c([H])c(F)c([H])c4F)c([H])c3[H])c(C(=O)N([H])[H])c2N([H])[H])C1([H])[H])C1([H])C([H])([H])C(=O)N(C([H])([H])C([H])([H])Oc2c([H])c([H])c3c(c2[H])C([H])([H])N(C(=O)C([H])(N([H])C(=O)C([H])(N([H])C([H])([H])[H])C([H])([H])[H])C(C([H])([H])[H])(C([H])([H])[H])C([H])([H])[H])C([H])(C(=O)N([H])C2([H])c4c([H])c([H])c([H])c([H])c4C([H])([H])C([H])([H])C2([H])[H])C3([H])[H])C1([H])[H]

$$$$
49:0:0
     RDKit          3D

 87 95  0  0  1  0  0  0  0  0999 V2000
  -28.8960  -20.4000   18.8930 C   0  0  0  0  0  3  0  0  0  0  0  0
  -28.8140  -21.7820   18.8790 C   0  0  0  0  0  3  0  0  0  0  0  0
  -28.9110  -21.1060   21.0680 C   0  0  0  0  0  2  0  0  0  0  0  0
  -28.9340  -19.5950   20.2210 C   0  0  0  0  0  3  0  0  0  0  0  0
  -28.8630  -22.6000   20.1920 C   0  0  0  0  0  3  0  0  0  0  0  0
  -30.3690  -15.3670   20.3510 C   0  0  0  0  0  0  0  0  0  0  0  0
  -30.3830  -12.8980   19.5020 C   0  0  0  0  0  2  0  0  0  0  0  0
  -29.4870  -12.6330   18.2660 C   0  0  0  0  0  2  0  0  0  0  0  0
  -28.0380  -12.3440   18.6930 C   0  0  0  0  0  2  0  0  0  0  0  0
  -27.5530  -13.3260   19.7890 C   0  0  0  0  0  3  0  0  0  0  0  0
  -28.5820  -13.5290   20.9220 C   0  0  0  0  0  2  0  0  0  0  0  0
  -29.8030  -14.0540   20.2870 N   0  0  0  0  0  0  0  0  0  0  0  0
  -31.5980  -15.3310   20.1970 O   0  0  0  0  0  0  0  0  0  0  0  0
  -29.9140  -18.1190   20.3950 C   0  0  0  0  0  0  0  0  0  0  0  0
  -29.6010  -16.6560   20.3700 N   0  0  0  0  0  0  0  0  0  0  0  0
  -31.1050  -18.3970   20.5520 O   0  0  0  0  0  0  0  0  0  0  0  0
  -28.6070  -16.4950   20.3360 H   0  0  0  0  0  0  0  0  0  0  0  0
  -25.1710  -13.8680   20.5090 C   0  0  0  0  0  0  0  0  0  0  0  0
  -24.1100  -13.0850   20.8680 C   0  0  0  0  0  0  0  0  0  0  0  0
  -24.5890  -11.7380   20.8560 C   0  0  0  0  0  0  0  0  0  0  0  0
  -26.2240  -12.9990   20.2870 N   0  0  0  0  0  0  0  0  0  0  0  0
  -25.8860  -11.7130   20.5650 N   0  0  0  0  0  0  0  0  0  0  0  0
  -23.8690  -10.4720   21.0430 C   0  0  0  0  0  0  0  0  0  0  0  0
  -24.2930   -9.5110   21.9870 C   0  0  0  0  0  3  0  0  0  0  0  0
  -23.5680   -8.3120   22.1640 C   0  0  0  0  0  3  0  0  0  0  0  0
  -22.4050   -8.0660   21.3960 C   0  0  0  0  0  0  0  0  0  0  0  0
  -22.0000   -9.0150   20.4410 C   0  0  0  0  0  3  0  0  0  0  0  0
  -22.7260  -10.2050   20.2630 C   0  0  0  0  0  3  0  0  0  0  0  0
  -21.6540   -6.9190   21.4810 O   0  0  0  0  0  0  0  0  0  0  0  0
  -21.5940   -6.1820   22.6360 C   0  0  0  0  0  0  0  0  0  0  0  0
  -21.1550   -6.7420   23.8560 C   0  0  0  0  0  3  0  0  0  0  0  0
  -21.0430   -5.9310   25.0030 C   0  0  0  0  0  3  0  0  0  0  0  0
  -21.3580   -4.5620   24.9310 C   0  0  0  0  0  0  0  0  0  0  0  0
  -21.7910   -4.0010   23.7170 C   0  0  0  0  0  3  0  0  0  0  0  0
  -21.9040   -4.8090   22.5720 C   0  0  0  0  0  0  0  0  0  0  0  0
  -22.3010   -4.2580   21.3990 F   0  0  0  0  0  0  0  0  0  0  0  0
  -21.2440   -3.7810   26.0320 F   0  0  0  0  0  0  0  0  0  0  0  0
  -22.7050  -13.5540   21.1060 C   0  0  0  0  0  0  0  0  0  0  0  0
  -21.9680  -12.8660   21.9710 N   0  0  0  0  0  0  0  0  0  0  0  0
  -22.2700  -14.5670   20.5600 O   0  0  0  0  0  0  0  0  0  0  0  0
  -22.3350  -12.0470   22.4340 H   0  0  0  0  0  0  0  0  0  0  0  0
  -21.0240  -13.1640   22.1730 H   0  0  0  0  0  0  0  0  0  0  0  0
  -25.3220  -15.2390   20.3210 N   0  0  0  0  0  0  0  0  0  0  0  0
  -24.5430  -15.8800   20.4080 H   0  0  0  0  0  0  0  0  0  0  0  0
  -26.1560  -15.6780   19.9560 H   0  0  0  0  0  0  0  0  0  0  0  0
  -27.9130  -24.1650   20.3460 C   0  0  0  0  0  2  0  0  0  0  0  0
  -28.1720  -25.8150   20.2450 O   0  0  0  0  0  0  0  0  0  0  0  0
  -24.6470  -31.8760   23.1880 C   0  0  0  0  0  0  0  0  0  0  0  0
  -27.1650  -26.9300   20.2110 C   0  0  0  0  0  0  0  0  0  0  0  0
  -23.4430  -30.4740   21.5640 C   0  0  0  0  0  3  0  0  0  0  0  0
  -24.8790  -28.8450   20.1530 C   0  0  0  0  0  0  0  0  0  0  0  0
  -26.0120  -30.6620   21.4110 C   0  0  0  0  0  2  0  0  0  0  0  0
  -26.0730  -29.2420   20.7670 C   0  0  0  0  0  0  0  0  0  0  0  0
  -27.2110  -28.3080   20.7660 C   0  0  0  0  0  3  0  0  0  0  0  0
  -25.9380  -26.6930   19.5480 C   0  0  0  0  0  3  0  0  0  0  0  0
  -24.8380  -27.5910   19.5220 C   0  0  0  0  0  3  0  0  0  0  0  0
  -23.6670  -29.7770   20.1930 C   0  0  0  0  0  2  0  0  0  0  0  0
  -24.7230  -31.0320   22.1080 N   0  0  0  0  0  0  0  0  0  0  0  0
  -23.5610  -32.1770   23.7080 O   0  0  0  0  0  0  0  0  0  0  0  0
  -22.7430  -29.4910   22.5390 C   0  0  0  0  0  0  0  0  0  0  0  0
  -21.4110  -29.3370   22.4220 N   0  0  0  0  0  0  0  0  0  0  0  0
  -23.4060  -28.8670   23.3710 O   0  0  0  0  0  0  0  0  0  0  0  0
  -20.9280  -29.8900   21.7280 H   0  0  0  0  0  0  0  0  0  0  0  0
  -18.0230  -28.1490   22.9510 C   0  0  0  0  0  0  0  0  0  0  0  0
  -20.5850  -28.4100   23.2040 C   0  0  0  0  0  3  0  0  0  0  0  0
  -20.6780  -26.9720   22.6410 C   0  0  0  0  0  2  0  0  0  0  0  0
  -19.5710  -26.6450   21.6330 C   0  0  0  0  0  2  0  0  0  0  0  0
  -18.1930  -26.7970   22.2810 C   0  0  0  0  0  2  0  0  0  0  0  0
  -19.1450  -28.9130   23.3710 C   0  0  0  0  0  0  0  0  0  0  0  0
  -18.9290  -30.1770   23.9610 C   0  0  0  0  0  3  0  0  0  0  0  0
  -17.6250  -30.6780   24.1350 C   0  0  0  0  0  3  0  0  0  0  0  0
  -16.5180  -29.9120   23.7300 C   0  0  0  0  0  3  0  0  0  0  0  0
  -16.7180  -28.6500   23.1450 C   0  0  0  0  0  3  0  0  0  0  0  0
  -25.9220  -32.5190   23.8140 C   0  0  0  0  0  3  0  0  0  0  0  0
  -25.6020  -33.9140   24.1630 N   0  0  0  0  0  0  0  0  0  0  0  0
  -25.9120  -34.9840   23.4190 C   0  0  0  0  0  0  0  0  0  0  0  0
  -26.5600  -34.8990   22.3720 O   0  0  0  0  0  0  0  0  0  0  0  0
  -25.0220  -34.0530   24.9780 H   0  0  0  0  0  0  0  0  0  0  0  0
  -24.1620  -36.7760   23.1470 C   0  0  0  0  0  1  0  0  0  0  0  0
  -25.4330  -36.3670   23.9110 C   0  0  0  0  0  3  0  0  0  0  0  0
  -27.5880  -37.2610   24.6800 C   0  0  0  0  0  1  0  0  0  0  0  0
  -26.4540  -37.4280   23.7740 N   0  0  0  0  0  0  0  0  0  0  0  0
  -26.0470  -38.3440   23.9420 H   0  0  0  0  0  0  0  0  0  0  0  0
  -26.4400  -31.7470   25.0920 C   0  0  1  0  0  0  0  0  0  0  0  0
  -25.3490  -31.5110   26.1630 C   0  0  0  0  0  1  0  0  0  0  0  0
  -27.0200  -30.3680   24.7070 C   0  0  0  0  0  1  0  0  0  0  0  0
  -27.5930  -32.5400   25.7500 C   0  0  0  0  0  1  0  0  0  0  0  0
  1  4  1  0
  2  1  2  0
  2  5  1  0
  4 14  1  0
  4  3  1  0
  5 46  1  0
  5  3  1  0
  6 15  1  0
  7 12  1  0
  8  9  1  0
  8  7  1  0
 10  9  1  0
 10 21  1  0
 10 11  1  0
 12  6  1  0
 12 11  1  0
 13  6  2  0
 14 16  2  0
 15 14  1  0
 17 15  1  0
 18 19  2  0
 19 38  1  0
 20 19  1  0
 20 23  1  0
 21 18  1  0
 21 22  1  0
 22 20  2  0
 23 24  1  0
 24 25  2  0
 26 29  1  0
 26 25  1  0
 27 26  2  0
 28 27  1  0
 28 23  2  0
 29 30  1  0
 30 31  1  0
 31 32  2  0
 33 32  1  0
 33 37  1  0
 34 33  2  0
 35 30  2  0
 35 34  1  0
 36 35  1  0
 38 39  1  0
 39 42  1  0
 39 41  1  0
 40 38  2  0
 43 44  1  0
 43 18  1  0
 45 43  1  0
 47 46  1  0
 48 59  2  0
 49 47  1  0
 49 54  1  0
 50 58  1  0
 50 60  1  0
 51 57  1  0
 51 53  1  0
 52 58  1  0
 53 52  1  0
 54 53  2  0
 55 49  2  0
 56 55  1  0
 56 51  2  0
 57 50  1  0
 58 48  1  0
 60 62  2  0
 61 60  1  0
 63 61  1  0
 64 73  2  0
 64 69  1  0
 65 61  1  0
 65 69  1  0
 66 65  1  0
 67 68  1  0
 67 66  1  0
 68 64  1  0
 69 70  2  0
 70 71  1  0
 72 71  2  0
 73 72  1  0
 74 48  1  0
 74 75  1  0
 74 84  1  0
 75 78  1  0
 76 80  1  0
 76 75  1  0
 77 76  2  0
 80 79  1  0
 82 80  1  0
 82 83  1  0
 82 81  1  0
 84 87  1  1
 84 85  1  0
 86 84  1  0
M  ISO  4   6 100  15 100  46 101  47 101
M  END
>  <TORSDO>  (50) 
F 17

>  <SCORE>  (50) 
-16.627

>  <name>  (50) 
49

>  <ligand_id>  (50) 
49

>  <original_smiles>  (50) 
[H]C1=C([H])C([H])(C([H])([H])Oc2c([H])c([H])c3c(c2[H])C([H])([H])N(C(=O)C([H])(N([H])C(=O)C([H])(N([H])C([H])([H])[H])C([H])([H])[H])C(C([H])([H])[H])(C([H])([H])[H])C([H])([H])[H])C([H])(C(=O)N([H])C2([H])c4c([H])c([H])c([H])c([H])c4C([H])([H])C([H])([H])C2([H])[H])C3([H])[H])C([H])([H])C1([H])C(=O)N([H])C(=O)N1C([H])([H])C([H])([H])C([H])([H])C([H])(n2nc(-c3c([H])c([H])c(Oc4c([H])c([H])c(F)c([H])c4F)c([H])c3[H])c(C(=O)N([H])[H])c2N([H])[H])C1([H])[H]

>  <smiles>  (50) 
[H]C1=C([H])C([H])(C([H])([H])Oc2c([H])c([H])c3c(c2[H])C([H])([H])N(C(=O)C([H])(N([H])C(=O)C([H])(N([H])C([H])([H])[H])C([H])([H])[H])C(C([H])([H])[H])(C([H])([H])[H])C([H])([H])[H])C([H])(C(=O)N([H])C2([H])c4c([H])c([H])c([H])c([H])c4C([H])([H])C([H])([H])C2([H])[H])C3([H])[H])C([H])([H])C1([H])C(=O)N([H])C(=O)N1C([H])([H])C([H])([H])C([H])([H])C([H])(n2nc(-c3c([H])c([H])c(Oc4c([H])c([H])c(F)c([H])c4F)c([H])c3[H])c(C(=O)N([H])[H])c2N([H])[H])C1([H])[H]

$$$$
50:0:0
     RDKit          3D

 89 96  0  0  1  0  0  0  0  0999 V2000
  -28.5740  -21.8690   20.2870 C   0  0  0  0  0  0  0  0  0  0  0  0
  -27.3700  -21.6290   20.1710 O   0  0  0  0  0  0  0  0  0  0  0  0
  -29.5860  -20.5690   20.3510 C   0  0  0  0  0  3  0  0  0  0  0  0
  -29.0740  -18.9720   20.4470 C   0  0  0  0  0  3  0  0  0  0  0  0
  -30.5390  -15.0010   20.3250 C   0  0  0  0  0  0  0  0  0  0  0  0
  -30.4020  -12.6670   19.3610 C   0  0  0  0  0  2  0  0  0  0  0  0
  -29.4650  -12.6410   18.1310 C   0  0  0  0  0  2  0  0  0  0  0  0
  -28.0010  -12.4330   18.5660 C   0  0  0  0  0  2  0  0  0  0  0  0
  -27.6000  -13.3460   19.7550 C   0  0  0  0  0  3  0  0  0  0  0  0
  -28.6580  -13.3410   20.8780 C   0  0  0  0  0  2  0  0  0  0  0  0
  -29.9310  -13.7490   20.2690 N   0  0  0  0  0  0  0  0  0  0  0  0
  -31.7430  -15.0800   20.0340 O   0  0  0  0  0  0  0  0  0  0  0  0
  -30.0870  -17.6930   20.3560 C   0  0  0  0  0  0  0  0  0  0  0  0
  -29.7230  -16.3080   20.4750 N   0  0  0  0  0  0  0  0  0  0  0  0
  -31.3750  -18.0200   20.1330 N   0  0  0  0  0  4  0  0  0  0  0  0
  -28.7390  -16.2190   20.6640 H   0  0  0  0  0  0  0  0  0  0  0  0
  -31.6720  -18.9840   20.0520 H   0  0  0  0  0  0  0  0  0  0  0  0
  -32.0880  -17.3050   20.0310 H   0  0  0  0  0  0  0  0  0  0  0  0
  -25.2200  -13.9160   20.5050 C   0  0  0  0  0  0  0  0  0  0  0  0
  -24.1600  -13.1350   20.8770 C   0  0  0  0  0  0  0  0  0  0  0  0
  -24.6280  -11.7860   20.8340 C   0  0  0  0  0  0  0  0  0  0  0  0
  -26.2630  -13.0420   20.2550 N   0  0  0  0  0  0  0  0  0  0  0  0
  -25.9190  -11.7550   20.5200 N   0  0  0  0  0  0  0  0  0  0  0  0
  -23.9050  -10.5210   21.0160 C   0  0  0  0  0  0  0  0  0  0  0  0
  -24.3290   -9.5570   21.9580 C   0  0  0  0  0  3  0  0  0  0  0  0
  -23.6050   -8.3560   22.1290 C   0  0  0  0  0  3  0  0  0  0  0  0
  -22.4440   -8.1130   21.3570 C   0  0  0  0  0  0  0  0  0  0  0  0
  -22.0410   -9.0640   20.4040 C   0  0  0  0  0  3  0  0  0  0  0  0
  -22.7660  -10.2560   20.2310 C   0  0  0  0  0  3  0  0  0  0  0  0
  -21.6920   -6.9650   21.4360 O   0  0  0  0  0  0  0  0  0  0  0  0
  -21.6110   -6.2370   22.5960 C   0  0  0  0  0  0  0  0  0  0  0  0
  -21.1030   -6.7930   23.7910 C   0  0  0  0  0  3  0  0  0  0  0  0
  -20.9730   -5.9890   24.9410 C   0  0  0  0  0  3  0  0  0  0  0  0
  -21.3400   -4.6310   24.8980 C   0  0  0  0  0  0  0  0  0  0  0  0
  -21.8410   -4.0750   23.7070 C   0  0  0  0  0  3  0  0  0  0  0  0
  -21.9730   -4.8760   22.5590 C   0  0  0  0  0  0  0  0  0  0  0  0
  -22.4360   -4.3290   21.4090 F   0  0  0  0  0  0  0  0  0  0  0  0
  -21.2080   -3.8570   26.0000 F   0  0  0  0  0  0  0  0  0  0  0  0
  -22.7620  -13.6070   21.1520 C   0  0  0  0  0  0  0  0  0  0  0  0
  -22.0380  -12.9060   22.0170 N   0  0  0  0  0  0  0  0  0  0  0  0
  -22.3210  -14.6310   20.6330 O   0  0  0  0  0  0  0  0  0  0  0  0
  -22.4100  -12.0780   22.4590 H   0  0  0  0  0  0  0  0  0  0  0  0
  -21.0990  -13.2040   22.2430 H   0  0  0  0  0  0  0  0  0  0  0  0
  -25.3730  -15.2870   20.3280 N   0  0  0  0  0  0  0  0  0  0  0  0
  -24.5770  -15.9110   20.4070 H   0  0  0  0  0  0  0  0  0  0  0  0
  -26.1540  -15.7120   19.8480 H   0  0  0  0  0  0  0  0  0  0  0  0
  -29.0180  -23.4580   20.3580 C   0  0  0  0  0  3  0  0  0  0  0  0
  -27.9730  -24.7500   20.1130 C   0  0  0  0  0  3  0  0  0  0  0  0
  -28.2570  -26.2700   20.2720 O   0  0  0  0  0  0  0  0  0  0  0  0
  -24.6320  -31.9310   23.2660 C   0  0  0  0  0  0  0  0  0  0  0  0
  -27.1990  -27.2440   20.2080 C   0  0  0  0  0  0  0  0  0  0  0  0
  -23.4290  -30.5500   21.6150 C   0  0  0  0  0  3  0  0  0  0  0  0
  -24.8740  -28.9850   20.1820 C   0  0  0  0  0  0  0  0  0  0  0  0
  -25.9830  -30.8140   21.4560 C   0  0  0  0  0  2  0  0  0  0  0  0
  -26.0530  -29.4270   20.7930 C   0  0  0  0  0  0  0  0  0  0  0  0
  -27.2180  -28.5740   20.7880 C   0  0  0  0  0  3  0  0  0  0  0  0
  -25.9920  -26.8980   19.5600 C   0  0  0  0  0  3  0  0  0  0  0  0
  -24.8550  -27.7330   19.5500 C   0  0  0  0  0  3  0  0  0  0  0  0
  -23.6490  -29.8830   20.2330 C   0  0  0  0  0  2  0  0  0  0  0  0
  -24.7020  -31.1190   22.1680 N   0  0  0  0  0  0  0  0  0  0  0  0
  -23.5460  -32.2150   23.7940 O   0  0  0  0  0  0  0  0  0  0  0  0
  -22.7470  -29.5380   22.5700 C   0  0  0  0  0  0  0  0  0  0  0  0
  -21.4200  -29.3650   22.4330 N   0  0  0  0  0  0  0  0  0  0  0  0
  -23.4140  -28.9090   23.3960 O   0  0  0  0  0  0  0  0  0  0  0  0
  -20.9390  -29.9220   21.7420 H   0  0  0  0  0  0  0  0  0  0  0  0
  -18.0340  -28.1740   22.9200 C   0  0  0  0  0  0  0  0  0  0  0  0
  -20.5940  -28.4270   23.1960 C   0  0  0  0  0  3  0  0  0  0  0  0
  -20.6920  -26.9970   22.6130 C   0  0  0  0  0  2  0  0  0  0  0  0
  -19.5910  -26.6840   21.5940 C   0  0  0  0  0  2  0  0  0  0  0  0
  -18.2090  -26.8290   22.2340 C   0  0  0  0  0  2  0  0  0  0  0  0
  -19.1540  -28.9310   23.3570 C   0  0  0  0  0  0  0  0  0  0  0  0
  -18.9370  -30.1890   23.9580 C   0  0  0  0  0  3  0  0  0  0  0  0
  -17.6320  -30.6920   24.1270 C   0  0  0  0  0  3  0  0  0  0  0  0
  -16.5280  -29.9320   23.7050 C   0  0  0  0  0  3  0  0  0  0  0  0
  -16.7290  -28.6750   23.1070 C   0  0  0  0  0  3  0  0  0  0  0  0
  -25.9120  -32.5570   23.8980 C   0  0  0  0  0  3  0  0  0  0  0  0
  -26.4110  -31.7840   25.1820 C   0  0  1  0  0  0  0  0  0  0  0  0
  -25.3060  -31.5530   26.2390 C   0  0  0  0  0  1  0  0  0  0  0  0
  -26.9910  -30.4030   24.8000 C   0  0  0  0  0  1  0  0  0  0  0  0
  -27.5600  -32.5720   25.8540 C   0  0  0  0  0  1  0  0  0  0  0  0
  -25.6070  -33.9580   24.2300 N   0  0  0  0  0  0  0  0  0  0  0  0
  -25.9220  -35.0100   23.4630 C   0  0  0  0  0  0  0  0  0  0  0  0
  -26.5670  -34.9040   22.4170 O   0  0  0  0  0  0  0  0  0  0  0  0
  -25.0320  -34.1130   25.0450 H   0  0  0  0  0  0  0  0  0  0  0  0
  -24.1760  -36.7990   23.1670 C   0  0  0  0  0  1  0  0  0  0  0  0
  -25.4500  -36.4000   23.9320 C   0  0  0  0  0  3  0  0  0  0  0  0
  -27.6070  -37.3040   24.6810 C   0  0  0  0  0  1  0  0  0  0  0  0
  -26.4730  -37.4570   23.7730 N   0  0  0  0  0  0  0  0  0  0  0  0
  -26.0690  -38.3760   23.9220 H   0  0  0  0  0  0  0  0  0  0  0  0
  1  3  1  0
  1 47  1  0
  2  1  2  0
  3  4  2  0
  5 14  1  0
  6 11  1  0
  7  8  1  0
  7  6  1  0
  9  8  1  0
  9 22  1  0
  9 10  1  0
 11  5  1  0
 11 10  1  0
 12  5  2  0
 13  4  1  0
 13 14  1  0
 14 16  1  0
 15 13  2  0
 17 15  1  0
 18 15  1  0
 19 20  2  0
 20 39  1  0
 21 20  1  0
 21 24  1  0
 22 19  1  0
 22 23  1  0
 23 21  2  0
 24 25  1  0
 25 26  2  0
 27 30  1  0
 27 26  1  0
 28 27  2  0
 29 28  1  0
 29 24  2  0
 30 31  1  0
 31 32  1  0
 32 33  2  0
 34 33  1  0
 34 38  1  0
 35 34  2  0
 36 31  2  0
 36 35  1  0
 37 36  1  0
 39 40  1  0
 40 43  1  0
 40 42  1  0
 41 39  2  0
 44 45  1  0
 44 19  1  0
 46 44  1  0
 48 49  1  0
 48 47  2  0
 50 61  2  0
 51 49  1  0
 51 56  1  0
 52 60  1  0
 52 62  1  0
 53 59  1  0
 53 55  1  0
 54 60  1  0
 55 54  1  0
 56 55  2  0
 57 51  2  0
 58 57  1  0
 58 53  2  0
 59 52  1  0
 60 50  1  0
 62 64  2  0
 63 62  1  0
 65 63  1  0
 66 75  2  0
 66 71  1  0
 67 63  1  0
 67 71  1  0
 68 67  1  0
 69 70  1  0
 69 68  1  0
 70 66  1  0
 71 72  2  0
 72 73  1  0
 74 73  2  0
 75 74  1  0
 76 50  1  0
 76 81  1  0
 76 77  1  0
 77 80  1  1
 77 78  1  0
 79 77  1  0
 81 84  1  0
 82 86  1  0
 82 81  1  0
 83 82  2  0
 86 85  1  0
 88 89  1  0
 88 86  1  0
 88 87  1  0
M  ISO  4   5 100  14 100  48 101  49 101
M  END
>  <TORSDO>  (51) 
F 20

>  <SCORE>  (51) 
-13.631

>  <name>  (51) 
50

>  <ligand_id>  (51) 
50

>  <original_smiles>  (51) 
[H]c1c([H])c([H])c2c(c1[H])C([H])([H])C([H])([H])C([H])([H])C2([H])N([H])C(=O)C1([H])N(C(=O)C([H])(N([H])C(=O)C([H])(N([H])C([H])([H])[H])C([H])([H])[H])C(C([H])([H])[H])(C([H])([H])[H])C([H])([H])[H])C([H])([H])c2c([H])c(OC([H])([H])C([H])([H])C(=O)C([H])([H])C([H])([H])C(N([H])C(=O)N3C([H])([H])C([H])([H])C([H])([H])C([H])(n4nc(-c5c([H])c([H])c(Oc6c([H])c([H])c(F)c([H])c6F)c([H])c5[H])c(C(=O)N([H])[H])c4N([H])[H])C3([H])[H])=[N+]([H])[H])c([H])c([H])c2C1([H])[H]

>  <smiles>  (51) 
[H]c1c([H])c([H])c2c(c1[H])C([H])([H])C([H])([H])C([H])([H])C2([H])N([H])C(=O)C1([H])N(C(=O)C([H])(N([H])C(=O)C([H])(N([H])C([H])([H])[H])C([H])([H])[H])C(C([H])([H])[H])(C([H])([H])[H])C([H])([H])[H])C([H])([H])c2c([H])c(OC([H])([H])C([H])([H])C(=O)C([H])([H])C([H])([H])C(N([H])C(=O)N3C([H])([H])C([H])([H])C([H])([H])C([H])(n4nc(-c5c([H])c([H])c(Oc6c([H])c([H])c(F)c([H])c6F)c([H])c5[H])c(C(=O)N([H])[H])c4N([H])[H])C3([H])[H])=[N+]([H])[H])c([H])c([H])c2C1([H])[H]

$$$$
51:0:0
     RDKit          3D

 91 99  0  0  1  0  0  0  0  0999 V2000
  -29.3270  -22.8870   18.8940 C   0  0  0  0  0  2  0  0  0  0  0  0
  -29.5380  -21.3190   18.9200 C   0  0  0  0  0  2  0  0  0  0  0  0
  -28.6800  -22.0170   21.0090 C   0  0  0  0  0  2  0  0  0  0  0  0
  -29.0090  -23.4410   20.3100 C   0  0  0  0  0  3  0  0  0  0  0  0
  -29.5300  -20.7890   20.3760 C   0  0  0  0  0  3  0  0  0  0  0  0
  -27.9690  -24.7440   20.3900 C   0  0  0  0  0  2  0  0  0  0  0  0
  -28.2690  -26.2460   20.2050 O   0  0  0  0  0  0  0  0  0  0  0  0
  -24.6350  -31.8690   23.2400 C   0  0  0  0  0  0  0  0  0  0  0  0
  -27.1970  -27.2010   20.1730 C   0  0  0  0  0  0  0  0  0  0  0  0
  -23.4200  -30.4780   21.6070 C   0  0  0  0  0  3  0  0  0  0  0  0
  -24.8590  -28.9160   20.1690 C   0  0  0  0  0  0  0  0  0  0  0  0
  -25.9720  -30.7560   21.4210 C   0  0  0  0  0  2  0  0  0  0  0  0
  -26.0420  -29.3690   20.7670 C   0  0  0  0  0  0  0  0  0  0  0  0
  -27.2130  -28.5280   20.7520 C   0  0  0  0  0  3  0  0  0  0  0  0
  -25.9890  -26.8450   19.5320 C   0  0  0  0  0  3  0  0  0  0  0  0
  -24.8430  -27.6640   19.5380 C   0  0  0  0  0  3  0  0  0  0  0  0
  -23.6300  -29.8050   20.2250 C   0  0  0  0  0  2  0  0  0  0  0  0
  -24.6950  -31.0550   22.1440 N   0  0  0  0  0  0  0  0  0  0  0  0
  -23.5520  -32.1510   23.7770 O   0  0  0  0  0  0  0  0  0  0  0  0
  -22.7530  -29.4650   22.5700 C   0  0  0  0  0  0  0  0  0  0  0  0
  -21.4250  -29.2900   22.4490 N   0  0  0  0  0  0  0  0  0  0  0  0
  -23.4320  -28.8390   23.3890 O   0  0  0  0  0  0  0  0  0  0  0  0
  -20.9350  -29.8470   21.7640 H   0  0  0  0  0  0  0  0  0  0  0  0
  -18.0490  -28.0790   22.9610 C   0  0  0  0  0  0  0  0  0  0  0  0
  -20.6090  -28.3510   23.2230 C   0  0  0  0  0  3  0  0  0  0  0  0
  -20.7140  -26.9170   22.6500 C   0  0  0  0  0  2  0  0  0  0  0  0
  -19.6110  -26.5890   21.6390 C   0  0  0  0  0  2  0  0  0  0  0  0
  -18.2300  -26.7300   22.2860 C   0  0  0  0  0  2  0  0  0  0  0  0
  -19.1670  -28.8470   23.3860 C   0  0  0  0  0  0  0  0  0  0  0  0
  -18.9430  -30.1090   23.9770 C   0  0  0  0  0  3  0  0  0  0  0  0
  -17.6370  -30.6040   24.1470 C   0  0  0  0  0  3  0  0  0  0  0  0
  -16.5340  -29.8340   23.7370 C   0  0  0  0  0  3  0  0  0  0  0  0
  -16.7420  -28.5730   23.1500 C   0  0  0  0  0  3  0  0  0  0  0  0
  -25.9190  -32.5020   23.8580 C   0  0  0  0  0  3  0  0  0  0  0  0
  -25.6090  -33.9000   24.1970 N   0  0  0  0  0  0  0  0  0  0  0  0
  -25.9260  -34.9570   23.4400 C   0  0  0  0  0  0  0  0  0  0  0  0
  -26.5780  -34.8590   22.3960 O   0  0  0  0  0  0  0  0  0  0  0  0
  -25.0260  -34.0490   25.0080 H   0  0  0  0  0  0  0  0  0  0  0  0
  -24.1860  -36.7500   23.1320 C   0  0  0  0  0  1  0  0  0  0  0  0
  -25.4460  -36.3440   23.9130 C   0  0  0  0  0  3  0  0  0  0  0  0
  -27.5960  -37.2320   24.7010 C   0  0  0  0  0  1  0  0  0  0  0  0
  -26.4730  -37.4010   23.7810 N   0  0  0  0  0  0  0  0  0  0  0  0
  -26.0670  -38.3180   23.9400 H   0  0  0  0  0  0  0  0  0  0  0  0
  -26.4390  -31.7290   25.1320 C   0  0  1  0  0  0  0  0  0  0  0  0
  -25.3500  -31.4910   26.2050 C   0  0  0  0  0  1  0  0  0  0  0  0
  -27.0200  -30.3510   24.7400 C   0  0  0  0  0  1  0  0  0  0  0  0
  -27.5920  -32.5220   25.7890 C   0  0  0  0  0  1  0  0  0  0  0  0
  -29.1750  -19.1740   20.6840 C   0  0  0  0  0  3  0  0  0  0  0  0
  -27.7520  -18.9560   20.3760 N   0  0  0  0  0  4  0  0  0  0  0  0
  -27.5880  -18.9530   19.3860 H   0  0  0  0  0  0  0  0  0  0  0  0
  -27.1980  -19.6870   20.7850 H   0  0  0  0  0  0  0  0  0  0  0  0
  -27.4330  -18.0860   20.7640 H   0  0  0  0  0  0  0  0  0  0  0  0
  -30.1170  -17.7860   18.6620 C   0  0  0  0  0  1  0  0  0  0  0  0
  -30.0590  -17.8330   20.2010 C   0  0  0  0  0  3  0  0  0  0  0  0
  -29.7390  -16.2920   20.7780 C   0  0  0  0  0  2  0  0  0  0  0  0
  -30.5430  -14.9060   20.3910 C   0  0  0  0  0  0  0  0  0  0  0  0
  -30.3940  -12.5910   19.3810 C   0  0  0  0  0  2  0  0  0  0  0  0
  -29.4630  -12.6400   18.1480 C   0  0  0  0  0  2  0  0  0  0  0  0
  -27.9910  -12.4500   18.5640 C   0  0  0  0  0  2  0  0  0  0  0  0
  -27.6040  -13.3320   19.7800 C   0  0  0  0  0  3  0  0  0  0  0  0
  -28.6570  -13.2670   20.9060 C   0  0  0  0  0  2  0  0  0  0  0  0
  -29.9520  -13.6490   20.3290 N   0  0  0  0  0  0  0  0  0  0  0  0
  -31.7260  -14.9890   20.0400 O   0  0  0  0  0  0  0  0  0  0  0  0
  -25.2170  -13.9230   20.4960 C   0  0  0  0  0  0  0  0  0  0  0  0
  -24.1470  -13.1540   20.8620 C   0  0  0  0  0  0  0  0  0  0  0  0
  -24.6070  -11.8010   20.8410 C   0  0  0  0  0  0  0  0  0  0  0  0
  -26.2590  -13.0410   20.2670 N   0  0  0  0  0  0  0  0  0  0  0  0
  -25.9010  -11.7600   20.5400 N   0  0  0  0  0  0  0  0  0  0  0  0
  -23.8760  -10.5420   21.0300 C   0  0  0  0  0  0  0  0  0  0  0  0
  -24.2970   -9.5760   21.9710 C   0  0  0  0  0  3  0  0  0  0  0  0
  -23.5630   -8.3830   22.1490 C   0  0  0  0  0  3  0  0  0  0  0  0
  -22.3960   -8.1470   21.3860 C   0  0  0  0  0  0  0  0  0  0  0  0
  -21.9940   -9.1020   20.4350 C   0  0  0  0  0  3  0  0  0  0  0  0
  -22.7270  -10.2860   20.2540 C   0  0  0  0  0  3  0  0  0  0  0  0
  -21.6350   -7.0060   21.4720 O   0  0  0  0  0  0  0  0  0  0  0  0
  -21.5740   -6.2680   22.6260 C   0  0  0  0  0  0  0  0  0  0  0  0
  -21.1370   -6.8300   23.8470 C   0  0  0  0  0  3  0  0  0  0  0  0
  -21.0210   -6.0190   24.9930 C   0  0  0  0  0  3  0  0  0  0  0  0
  -21.3330   -4.6480   24.9220 C   0  0  0  0  0  0  0  0  0  0  0  0
  -21.7650   -4.0860   23.7070 C   0  0  0  0  0  3  0  0  0  0  0  0
  -21.8810   -4.8940   22.5630 C   0  0  0  0  0  0  0  0  0  0  0  0
  -22.2760   -4.3430   21.3890 F   0  0  0  0  0  0  0  0  0  0  0  0
  -21.2140   -3.8680   26.0200 F   0  0  0  0  0  0  0  0  0  0  0  0
  -22.7480  -13.6360   21.1170 C   0  0  0  0  0  0  0  0  0  0  0  0
  -22.0110  -12.9480   21.9800 N   0  0  0  0  0  0  0  0  0  0  0  0
  -22.3190  -14.6610   20.5860 O   0  0  0  0  0  0  0  0  0  0  0  0
  -22.3710  -12.1200   22.4290 H   0  0  0  0  0  0  0  0  0  0  0  0
  -21.0710  -13.2550   22.1940 H   0  0  0  0  0  0  0  0  0  0  0  0
  -25.3830  -15.2930   20.3060 N   0  0  0  0  0  0  0  0  0  0  0  0
  -24.5930  -15.9260   20.3430 H   0  0  0  0  0  0  0  0  0  0  0  0
  -26.1900  -15.6870   19.8440 H   0  0  0  0  0  0  0  0  0  0  0  0
  1  2  1  0
  1  4  1  0
  2  5  1  0
  4  6  1  0
  4  3  1  0
  5 48  1  0
  5  3  1  0
  7  6  1  0
  8 19  2  0
  9  7  1  0
  9 14  1  0
 10 18  1  0
 10 20  1  0
 11 17  1  0
 11 13  1  0
 12 18  1  0
 13 12  1  0
 14 13  2  0
 15 16  1  0
 15  9  2  0
 16 11  2  0
 17 10  1  0
 18  8  1  0
 20 22  2  0
 21 20  1  0
 23 21  1  0
 24 33  2  0
 24 29  1  0
 25 21  1  0
 25 29  1  0
 26 25  1  0
 27 28  1  0
 27 26  1  0
 28 24  1  0
 29 30  2  0
 30 31  1  0
 32 31  2  0
 33 32  1  0
 34  8  1  0
 34 35  1  0
 34 44  1  0
 35 38  1  0
 36 40  1  0
 36 35  1  0
 37 36  2  0
 40 39  1  0
 42 40  1  0
 42 43  1  0
 42 41  1  0
 44 47  1  1
 44 45  1  0
 46 44  1  0
 48 49  1  0
 49 52  1  0
 49 51  1  0
 50 49  1  0
 54 53  1  0
 54 48  1  0
 54 55  1  0
 56 55  1  0
 57 62  1  0
 58 59  1  0
 58 57  1  0
 60 59  1  0
 60 67  1  0
 60 61  1  0
 62 56  1  0
 62 61  1  0
 63 56  2  0
 64 65  2  0
 65 84  1  0
 66 65  1  0
 66 69  1  0
 67 64  1  0
 67 68  1  0
 68 66  2  0
 69 70  1  0
 70 71  2  0
 72 75  1  0
 72 71  1  0
 73 72  2  0
 74 73  1  0
 74 69  2  0
 75 76  1  0
 76 77  1  0
 77 78  2  0
 79 78  1  0
 79 83  1  0
 80 79  2  0
 81 76  2  0
 81 80  1  0
 82 81  1  0
 84 85  1  0
 85 88  1  0
 85 87  1  0
 86 84  2  0
 89 90  1  0
 89 64  1  0
 91 89  1  0
M  ISO  4   6 101   7 101  55 100  56 100
M  END
>  <TORSDO>  (52) 
F 21

>  <SCORE>  (52) 
-13.747

>  <name>  (52) 
51

>  <ligand_id>  (52) 
51

>  <original_smiles>  (52) 
[H]c1c([H])c([H])c2c(c1[H])C([H])([H])C([H])([H])C([H])([H])C2([H])N([H])C(=O)C1([H])N(C(=O)C([H])(N([H])C(=O)C([H])(N([H])C([H])([H])[H])C([H])([H])[H])C(C([H])([H])[H])(C([H])([H])[H])C([H])([H])[H])C([H])([H])c2c([H])c(OC([H])([H])C3([H])C([H])([H])C([H])([H])C([H])(C([H])(C([H])(C([H])([H])[H])C([H])([H])C(=O)N4C([H])([H])C([H])([H])C([H])([H])C([H])(n5nc(-c6c([H])c([H])c(Oc7c([H])c([H])c(F)c([H])c7F)c([H])c6[H])c(C(=O)N([H])[H])c5N([H])[H])C4([H])[H])[N+]([H])([H])[H])C3([H])[H])c([H])c([H])c2C1([H])[H]

>  <smiles>  (52) 
[H]c1c([H])c([H])c2c(c1[H])C([H])([H])C([H])([H])C([H])([H])C2([H])N([H])C(=O)C1([H])N(C(=O)C([H])(N([H])C(=O)C([H])(N([H])C([H])([H])[H])C([H])([H])[H])C(C([H])([H])[H])(C([H])([H])[H])C([H])([H])[H])C([H])([H])c2c([H])c(OC([H])([H])C3([H])C([H])([H])C([H])([H])C([H])(C([H])(C([H])(C([H])([H])[H])C([H])([H])C(=O)N4C([H])([H])C([H])([H])C([H])([H])C([H])(n5nc(-c6c([H])c([H])c(Oc7c([H])c([H])c(F)c([H])c7F)c([H])c6[H])c(C(=O)N([H])[H])c5N([H])[H])C4([H])[H])[N+]([H])([H])[H])C3([H])[H])c([H])c([H])c2C1([H])[H]

$$$$
52:0:0
     RDKit          3D

 89 97  0  0  1  0  0  0  0  0999 V2000
  -27.6320  -23.4630   18.5530 C   0  0  0  0  0  1  0  0  0  0  0  0
  -29.9870  -23.9130   19.1860 C   0  0  0  0  0  1  0  0  0  0  0  0
  -28.5950  -23.5950   19.7550 C   0  0  2  0  0  0  0  0  0  0  0  0
  -28.7080  -22.1250   20.5190 C   0  0  0  0  0  3  0  0  0  0  0  0
  -29.2870  -20.8060   19.7420 C   0  0  0  0  0  3  0  0  0  0  0  0
  -28.8600  -16.8410   19.9610 C   0  0  0  0  0  3  0  0  0  0  0  0
  -30.8700  -17.3710   21.1080 C   0  0  0  0  0  3  0  0  0  0  0  0
  -28.5650  -18.2480   19.8470 C   0  0  0  0  0  3  0  0  0  0  0  0
  -30.5850  -18.7850   20.9720 C   0  0  0  0  0  3  0  0  0  0  0  0
  -30.0510  -16.3220   20.5680 C   0  0  0  0  0  0  0  0  0  0  0  0
  -29.4390  -19.2880   20.2850 C   0  0  0  0  0  0  0  0  0  0  0  0
  -30.6200  -14.8480   20.3880 C   0  0  0  0  0  0  0  0  0  0  0  0
  -30.3710  -12.5330   19.4480 C   0  0  0  0  0  2  0  0  0  0  0  0
  -29.4690  -12.5190   18.1970 C   0  0  0  0  0  2  0  0  0  0  0  0
  -27.9980  -12.3230   18.6060 C   0  0  0  0  0  2  0  0  0  0  0  0
  -27.5830  -13.2590   19.7730 C   0  0  0  0  0  3  0  0  0  0  0  0
  -28.6250  -13.3110   20.9100 C   0  0  0  0  0  2  0  0  0  0  0  0
  -29.9250  -13.6500   20.3260 N   0  0  0  0  0  0  0  0  0  0  0  0
  -31.8260  -14.8050   20.1200 O   0  0  0  0  0  0  0  0  0  0  0  0
  -25.2040  -13.8520   20.5000 C   0  0  0  0  0  0  0  0  0  0  0  0
  -24.1390  -13.0820   20.8760 C   0  0  0  0  0  0  0  0  0  0  0  0
  -24.6060  -11.7320   20.8630 C   0  0  0  0  0  0  0  0  0  0  0  0
  -26.2480  -12.9710   20.2750 N   0  0  0  0  0  0  0  0  0  0  0  0
  -25.8970  -11.6930   20.5600 N   0  0  0  0  0  0  0  0  0  0  0  0
  -23.8810  -10.4720   21.0530 C   0  0  0  0  0  0  0  0  0  0  0  0
  -24.3140   -9.5060   21.9860 C   0  0  0  0  0  3  0  0  0  0  0  0
  -23.5890   -8.3070   22.1660 C   0  0  0  0  0  3  0  0  0  0  0  0
  -22.4150   -8.0680   21.4120 C   0  0  0  0  0  0  0  0  0  0  0  0
  -22.0000   -9.0230   20.4670 C   0  0  0  0  0  3  0  0  0  0  0  0
  -22.7270  -10.2120   20.2850 C   0  0  0  0  0  3  0  0  0  0  0  0
  -21.6580   -6.9250   21.5030 O   0  0  0  0  0  0  0  0  0  0  0  0
  -21.6210   -6.1740   22.6510 C   0  0  0  0  0  0  0  0  0  0  0  0
  -21.2170   -6.7200   23.8890 C   0  0  0  0  0  3  0  0  0  0  0  0
  -21.1310   -5.8960   25.0280 C   0  0  0  0  0  3  0  0  0  0  0  0
  -21.4380   -4.5270   24.9300 C   0  0  0  0  0  0  0  0  0  0  0  0
  -21.8330   -3.9780   23.6980 C   0  0  0  0  0  3  0  0  0  0  0  0
  -21.9220   -4.8000   22.5610 C   0  0  0  0  0  0  0  0  0  0  0  0
  -22.2840   -4.2620   21.3710 F   0  0  0  0  0  0  0  0  0  0  0  0
  -21.3440   -3.7310   26.0220 F   0  0  0  0  0  0  0  0  0  0  0  0
  -22.7380  -13.5620   21.1250 C   0  0  0  0  0  0  0  0  0  0  0  0
  -21.9970  -12.8730   21.9870 N   0  0  0  0  0  0  0  0  0  0  0  0
  -22.3080  -14.5830   20.5900 O   0  0  0  0  0  0  0  0  0  0  0  0
  -22.3590  -12.0560   22.4560 H   0  0  0  0  0  0  0  0  0  0  0  0
  -21.0540  -13.1750   22.1870 H   0  0  0  0  0  0  0  0  0  0  0  0
  -25.3600  -15.2200   20.3020 N   0  0  0  0  0  0  0  0  0  0  0  0
  -24.5700  -15.8540   20.3800 H   0  0  0  0  0  0  0  0  0  0  0  0
  -26.1820  -15.6520   19.9010 H   0  0  0  0  0  0  0  0  0  0  0  0
  -28.0860  -24.9060   20.6040 C   0  0  0  0  0  2  0  0  0  0  0  0
  -28.2770  -26.3480   20.1680 O   0  0  0  0  0  0  0  0  0  0  0  0
  -24.6150  -31.8710   23.2420 C   0  0  0  0  0  0  0  0  0  0  0  0
  -27.1840  -27.2530   20.1730 C   0  0  0  0  0  0  0  0  0  0  0  0
  -23.4020  -30.4810   21.6040 C   0  0  0  0  0  3  0  0  0  0  0  0
  -24.8410  -28.9210   20.1650 C   0  0  0  0  0  0  0  0  0  0  0  0
  -25.9440  -30.7770   21.4140 C   0  0  0  0  0  2  0  0  0  0  0  0
  -26.0170  -29.3920   20.7640 C   0  0  0  0  0  0  0  0  0  0  0  0
  -27.1950  -28.5720   20.7530 C   0  0  0  0  0  3  0  0  0  0  0  0
  -25.9880  -26.8560   19.5480 C   0  0  0  0  0  3  0  0  0  0  0  0
  -24.8310  -27.6630   19.5450 C   0  0  0  0  0  3  0  0  0  0  0  0
  -23.6120  -29.8130   20.2190 C   0  0  0  0  0  2  0  0  0  0  0  0
  -24.6740  -31.0610   22.1440 N   0  0  0  0  0  0  0  0  0  0  0  0
  -23.5340  -32.1500   23.7820 O   0  0  0  0  0  0  0  0  0  0  0  0
  -22.7400  -29.4610   22.5640 C   0  0  0  0  0  0  0  0  0  0  0  0
  -21.4120  -29.2850   22.4440 N   0  0  0  0  0  0  0  0  0  0  0  0
  -23.4210  -28.8340   23.3780 O   0  0  0  0  0  0  0  0  0  0  0  0
  -20.9220  -29.8460   21.7610 H   0  0  0  0  0  0  0  0  0  0  0  0
  -18.0390  -28.0770   22.9500 C   0  0  0  0  0  0  0  0  0  0  0  0
  -20.5960  -28.3450   23.2160 C   0  0  0  0  0  3  0  0  0  0  0  0
  -20.7010  -26.9140   22.6420 C   0  0  0  0  0  2  0  0  0  0  0  0
  -19.5990  -26.5850   21.6310 C   0  0  0  0  0  2  0  0  0  0  0  0
  -18.2180  -26.7270   22.2750 C   0  0  0  0  0  2  0  0  0  0  0  0
  -19.1540  -28.8420   23.3780 C   0  0  0  0  0  0  0  0  0  0  0  0
  -18.9340  -30.1050   23.9690 C   0  0  0  0  0  3  0  0  0  0  0  0
  -17.6270  -30.6030   24.1350 C   0  0  0  0  0  3  0  0  0  0  0  0
  -16.5250  -29.8360   23.7200 C   0  0  0  0  0  3  0  0  0  0  0  0
  -16.7320  -28.5730   23.1360 C   0  0  0  0  0  3  0  0  0  0  0  0
  -25.9020  -32.5000   23.8600 C   0  0  0  0  0  3  0  0  0  0  0  0
  -26.4120  -31.7300   25.1400 C   0  0  1  0  0  0  0  0  0  0  0  0
  -25.3190  -31.5070   26.2090 C   0  0  0  0  0  1  0  0  0  0  0  0
  -26.9850  -30.3480   24.7530 C   0  0  0  0  0  1  0  0  0  0  0  0
  -27.5690  -32.5210   25.7980 C   0  0  0  0  0  1  0  0  0  0  0  0
  -25.5990  -33.9000   24.1890 N   0  0  0  0  0  0  0  0  0  0  0  0
  -25.9320  -34.9530   23.4290 C   0  0  0  0  0  0  0  0  0  0  0  0
  -26.5980  -34.8450   22.3960 O   0  0  0  0  0  0  0  0  0  0  0  0
  -25.0130  -34.0550   24.9960 H   0  0  0  0  0  0  0  0  0  0  0  0
  -24.2120  -36.7540   23.0770 C   0  0  0  0  0  1  0  0  0  0  0  0
  -25.4520  -36.3420   23.8890 C   0  0  0  0  0  3  0  0  0  0  0  0
  -27.5930  -37.2140   24.7200 C   0  0  0  0  0  1  0  0  0  0  0  0
  -26.4890  -37.3920   23.7780 N   0  0  0  0  0  0  0  0  0  0  0  0
  -26.0890  -38.3130   23.9290 H   0  0  0  0  0  0  0  0  0  0  0  0
  3  1  1  6
  2  3  1  0
  3  4  1  0
  3 48  1  0
  5 11  1  0
  5  4  2  0
  6 10  1  0
  8  6  2  0
  8 11  1  0
  9  7  1  0
 10  7  2  0
 11  9  2  0
 12 10  1  0
 13 18  1  0
 14 15  1  0
 14 13  1  0
 16 15  1  0
 16 23  1  0
 16 17  1  0
 18 12  1  0
 18 17  1  0
 19 12  2  0
 20 21  2  0
 21 40  1  0
 22 21  1  0
 22 25  1  0
 23 20  1  0
 23 24  1  0
 24 22  2  0
 25 26  1  0
 26 27  2  0
 28 31  1  0
 28 27  1  0
 29 28  2  0
 30 29  1  0
 30 25  2  0
 31 32  1  0
 32 33  1  0
 33 34  2  0
 35 34  1  0
 35 39  1  0
 36 35  2  0
 37 32  2  0
 37 36  1  0
 38 37  1  0
 40 41  1  0
 41 44  1  0
 41 43  1  0
 42 40  2  0
 45 46  1  0
 45 20  1  0
 47 45  1  0
 49 51  1  0
 49 48  1  0
 50 61  2  0
 51 56  1  0
 52 60  1  0
 52 62  1  0
 53 59  1  0
 53 55  1  0
 54 60  1  0
 55 54  1  0
 56 55  2  0
 57 51  2  0
 58 57  1  0
 58 53  2  0
 59 52  1  0
 60 50  1  0
 62 64  2  0
 63 62  1  0
 65 63  1  0
 66 75  2  0
 66 71  1  0
 67 63  1  0
 67 71  1  0
 68 67  1  0
 69 70  1  0
 69 68  1  0
 70 66  1  0
 71 72  2  0
 72 73  1  0
 74 73  2  0
 75 74  1  0
 76 50  1  0
 76 81  1  0
 76 77  1  0
 77 80  1  1
 77 78  1  0
 79 77  1  0
 81 84  1  0
 82 86  1  0
 82 81  1  0
 83 82  2  0
 86 85  1  0
 88 86  1  0
 88 89  1  0
 88 87  1  0
M  ISO  4  10 100  12 100  48 101  49 101
M  END
>  <TORSDO>  (53) 
F 20

>  <SCORE>  (53) 
-13.909

>  <name>  (53) 
52

>  <ligand_id>  (53) 
52

>  <original_smiles>  (53) 
[H]c1c([H])c([H])c2c(c1[H])C([H])([H])C([H])([H])C([H])([H])C2([H])N([H])C(=O)C1([H])N(C(=O)C([H])(N([H])C(=O)C([H])(N([H])C([H])([H])[H])C([H])([H])[H])C(C([H])([H])[H])(C([H])([H])[H])C([H])([H])[H])C([H])([H])c2c([H])c(OC([H])([H])C(C([H])([H])[H])(C([H])([H])[H])C([H])([H])C([H])([H])c3c([H])c([H])c(C(=O)N4C([H])([H])C([H])([H])C([H])([H])C([H])(n5nc(-c6c([H])c([H])c(Oc7c([H])c([H])c(F)c([H])c7F)c([H])c6[H])c(C(=O)N([H])[H])c5N([H])[H])C4([H])[H])c([H])c3[H])c([H])c([H])c2C1([H])[H]

>  <smiles>  (53) 
[H]c1c([H])c([H])c2c(c1[H])C([H])([H])C([H])([H])C([H])([H])C2([H])N([H])C(=O)C1([H])N(C(=O)C([H])(N([H])C(=O)C([H])(N([H])C([H])([H])[H])C([H])([H])[H])C(C([H])([H])[H])(C([H])([H])[H])C([H])([H])[H])C([H])([H])c2c([H])c(OC([H])([H])C(C([H])([H])[H])(C([H])([H])[H])C([H])([H])C([H])([H])c3c([H])c([H])c(C(=O)N4C([H])([H])C([H])([H])C([H])([H])C([H])(n5nc(-c6c([H])c([H])c(Oc7c([H])c([H])c(F)c([H])c7F)c([H])c6[H])c(C(=O)N([H])[H])c5N([H])[H])C4([H])[H])c([H])c3[H])c([H])c([H])c2C1([H])[H]

$$$$
53:0:0
     RDKit          3D

 87 95  0  0  1  0  0  0  0  0999 V2000
  -28.8570  -23.6300   22.0850 C   0  0  0  0  0  1  0  0  0  0  0  0
  -28.8820  -23.5160   20.5570 C   0  0  0  0  0  3  0  0  0  0  0  0
  -29.2200  -21.2610   19.0200 C   0  0  0  0  0  2  0  0  0  0  0  0
  -29.4650  -20.6000   20.3620 C   0  0  0  0  0  3  0  0  0  0  0  0
  -28.5550  -21.9510   20.1930 C   0  0  0  0  0  3  0  0  0  0  0  0
  -29.0510  -19.0340   20.6030 C   0  0  0  0  0  2  0  0  0  0  0  0
  -30.1320  -17.7340   18.6570 C   0  0  0  0  0  1  0  0  0  0  0  0
  -30.0180  -17.7510   20.1910 C   0  0  0  0  0  3  0  0  0  0  0  0
  -29.6930  -16.2160   20.7410 C   0  0  0  0  0  2  0  0  0  0  0  0
  -30.5290  -14.8590   20.3630 C   0  0  0  0  0  0  0  0  0  0  0  0
  -30.3920  -12.5490   19.3570 C   0  0  0  0  0  2  0  0  0  0  0  0
  -29.4540  -12.5950   18.1270 C   0  0  0  0  0  2  0  0  0  0  0  0
  -27.9850  -12.4090   18.5510 C   0  0  0  0  0  2  0  0  0  0  0  0
  -27.6010  -13.3010   19.7600 C   0  0  0  0  0  3  0  0  0  0  0  0
  -28.6540  -13.2280   20.8840 C   0  0  0  0  0  2  0  0  0  0  0  0
  -29.9490  -13.6020   20.3050 N   0  0  0  0  0  0  0  0  0  0  0  0
  -31.7110  -14.9630   20.0170 O   0  0  0  0  0  0  0  0  0  0  0  0
  -25.2110  -13.9000   20.4690 C   0  0  0  0  0  0  0  0  0  0  0  0
  -24.1410  -13.1310   20.8360 C   0  0  0  0  0  0  0  0  0  0  0  0
  -24.6030  -11.7790   20.8200 C   0  0  0  0  0  0  0  0  0  0  0  0
  -26.2560  -13.0160   20.2460 N   0  0  0  0  0  0  0  0  0  0  0  0
  -25.8970  -11.7360   20.5220 N   0  0  0  0  0  0  0  0  0  0  0  0
  -23.8760  -10.5180   21.0130 C   0  0  0  0  0  0  0  0  0  0  0  0
  -24.3060   -9.5550   21.9520 C   0  0  0  0  0  3  0  0  0  0  0  0
  -23.5770   -8.3580   22.1330 C   0  0  0  0  0  3  0  0  0  0  0  0
  -22.4080   -8.1170   21.3760 C   0  0  0  0  0  0  0  0  0  0  0  0
  -21.9980   -9.0690   20.4260 C   0  0  0  0  0  3  0  0  0  0  0  0
  -22.7250  -10.2560   20.2420 C   0  0  0  0  0  3  0  0  0  0  0  0
  -21.6490   -6.9760   21.4670 O   0  0  0  0  0  0  0  0  0  0  0  0
  -21.5990   -6.2340   22.6200 C   0  0  0  0  0  0  0  0  0  0  0  0
  -21.1810   -6.7940   23.8480 C   0  0  0  0  0  3  0  0  0  0  0  0
  -21.0800   -5.9800   24.9950 C   0  0  0  0  0  3  0  0  0  0  0  0
  -21.3840   -4.6070   24.9140 C   0  0  0  0  0  0  0  0  0  0  0  0
  -21.7970   -4.0480   23.6920 C   0  0  0  0  0  3  0  0  0  0  0  0
  -21.9000   -4.8590   22.5480 C   0  0  0  0  0  0  0  0  0  0  0  0
  -22.2760   -4.3110   21.3670 F   0  0  0  0  0  0  0  0  0  0  0  0
  -21.2790   -3.8240   26.0120 F   0  0  0  0  0  0  0  0  0  0  0  0
  -22.7430  -13.6100   21.0920 C   0  0  0  0  0  0  0  0  0  0  0  0
  -22.0100  -12.9190   21.9590 N   0  0  0  0  0  0  0  0  0  0  0  0
  -22.3100  -14.6310   20.5610 O   0  0  0  0  0  0  0  0  0  0  0  0
  -22.3750  -12.0930   22.4100 H   0  0  0  0  0  0  0  0  0  0  0  0
  -21.0710  -13.2180   22.1740 H   0  0  0  0  0  0  0  0  0  0  0  0
  -25.3810  -15.2700   20.2820 N   0  0  0  0  0  0  0  0  0  0  0  0
  -24.6190  -15.9320   20.3850 H   0  0  0  0  0  0  0  0  0  0  0  0
  -26.2390  -15.7000   19.9620 H   0  0  0  0  0  0  0  0  0  0  0  0
  -27.9810  -24.7690   19.9610 C   0  0  0  0  0  2  0  0  0  0  0  0
  -28.2300  -26.2600   20.2420 O   0  0  0  0  0  0  0  0  0  0  0  0
  -24.6100  -31.8820   23.2260 C   0  0  0  0  0  0  0  0  0  0  0  0
  -27.1680  -27.2160   20.1640 C   0  0  0  0  0  0  0  0  0  0  0  0
  -23.3990  -30.4860   21.5960 C   0  0  0  0  0  3  0  0  0  0  0  0
  -24.8380  -28.9280   20.1520 C   0  0  0  0  0  0  0  0  0  0  0  0
  -25.9480  -30.7660   21.4100 C   0  0  0  0  0  2  0  0  0  0  0  0
  -26.0180  -29.3810   20.7570 C   0  0  0  0  0  0  0  0  0  0  0  0
  -27.1850  -28.5360   20.7530 C   0  0  0  0  0  3  0  0  0  0  0  0
  -25.9680  -26.8600   19.5100 C   0  0  0  0  0  3  0  0  0  0  0  0
  -24.8220  -27.6810   19.5150 C   0  0  0  0  0  3  0  0  0  0  0  0
  -23.6080  -29.8170   20.2130 C   0  0  0  0  0  2  0  0  0  0  0  0
  -24.6720  -31.0650   22.1330 N   0  0  0  0  0  0  0  0  0  0  0  0
  -23.5270  -32.1630   23.7640 O   0  0  0  0  0  0  0  0  0  0  0  0
  -22.7340  -29.4710   22.5590 C   0  0  0  0  0  0  0  0  0  0  0  0
  -21.4060  -29.2980   22.4410 N   0  0  0  0  0  0  0  0  0  0  0  0
  -23.4140  -28.8420   23.3730 O   0  0  0  0  0  0  0  0  0  0  0  0
  -20.9130  -29.8560   21.7580 H   0  0  0  0  0  0  0  0  0  0  0  0
  -18.0290  -28.0950   22.9560 C   0  0  0  0  0  0  0  0  0  0  0  0
  -20.5880  -28.3610   23.2170 C   0  0  0  0  0  3  0  0  0  0  0  0
  -20.6920  -26.9270   22.6480 C   0  0  0  0  0  2  0  0  0  0  0  0
  -19.5890  -26.6010   21.6380 C   0  0  0  0  0  2  0  0  0  0  0  0
  -18.2070  -26.7430   22.2820 C   0  0  0  0  0  2  0  0  0  0  0  0
  -19.1470  -28.8620   23.3800 C   0  0  0  0  0  0  0  0  0  0  0  0
  -18.9280  -30.1250   23.9690 C   0  0  0  0  0  3  0  0  0  0  0  0
  -17.6230  -30.6230   24.1420 C   0  0  0  0  0  3  0  0  0  0  0  0
  -16.5190  -29.8540   23.7350 C   0  0  0  0  0  3  0  0  0  0  0  0
  -16.7220  -28.5940   23.1460 C   0  0  0  0  0  3  0  0  0  0  0  0
  -25.8930  -32.5170   23.8420 C   0  0  0  0  0  3  0  0  0  0  0  0
  -25.5810  -33.9140   24.1790 N   0  0  0  0  0  0  0  0  0  0  0  0
  -25.9000  -34.9740   23.4230 C   0  0  0  0  0  0  0  0  0  0  0  0
  -26.5580  -34.8790   22.3840 O   0  0  0  0  0  0  0  0  0  0  0  0
  -24.9920  -34.0600   24.9850 H   0  0  0  0  0  0  0  0  0  0  0  0
  -24.1580  -36.7650   23.1120 C   0  0  0  0  0  1  0  0  0  0  0  0
  -25.4160  -36.3600   23.8970 C   0  0  0  0  0  3  0  0  0  0  0  0
  -27.5610  -37.2520   24.6880 C   0  0  0  0  0  1  0  0  0  0  0  0
  -26.4400  -37.4190   23.7680 N   0  0  0  0  0  0  0  0  0  0  0  0
  -26.0330  -38.3360   23.9290 H   0  0  0  0  0  0  0  0  0  0  0  0
  -26.4150  -31.7460   25.1160 C   0  0  1  0  0  0  0  0  0  0  0  0
  -25.3260  -31.5110   26.1900 C   0  0  0  0  0  1  0  0  0  0  0  0
  -26.9960  -30.3670   24.7250 C   0  0  0  0  0  1  0  0  0  0  0  0
  -27.5680  -32.5400   25.7720 C   0  0  0  0  0  1  0  0  0  0  0  0
  2  1  1  0
  3  5  1  0
  3  4  1  0
  4  6  1  0
  5  4  1  0
  5  2  1  0
  8  7  1  0
  8  6  1  0
  8  9  1  0
 10  9  1  0
 11 16  1  0
 12 13  1  0
 12 11  1  0
 14 13  1  0
 14 21  1  0
 14 15  1  0
 16 10  1  0
 16 15  1  0
 17 10  2  0
 18 19  2  0
 19 38  1  0
 20 19  1  0
 20 23  1  0
 21 18  1  0
 21 22  1  0
 22 20  2  0
 23 24  1  0
 24 25  2  0
 26 29  1  0
 26 25  1  0
 27 26  2  0
 28 27  1  0
 28 23  2  0
 29 30  1  0
 30 31  1  0
 31 32  2  0
 33 32  1  0
 33 37  1  0
 34 33  2  0
 35 30  2  0
 35 34  1  0
 36 35  1  0
 38 39  1  0
 39 42  1  0
 39 41  1  0
 40 38  2  0
 43 44  1  0
 43 18  1  0
 45 43  1  0
 46 47  1  0
 46  2  1  0
 48 59  2  0
 49 47  1  0
 49 54  1  0
 50 58  1  0
 50 60  1  0
 51 57  1  0
 51 53  1  0
 52 58  1  0
 53 52  1  0
 54 53  2  0
 55 56  1  0
 55 49  2  0
 56 51  2  0
 57 50  1  0
 58 48  1  0
 60 62  2  0
 61 60  1  0
 63 61  1  0
 64 73  2  0
 64 69  1  0
 65 61  1  0
 65 69  1  0
 66 65  1  0
 67 68  1  0
 67 66  1  0
 68 64  1  0
 69 70  2  0
 70 71  1  0
 72 71  2  0
 73 72  1  0
 74 48  1  0
 74 75  1  0
 74 84  1  0
 75 78  1  0
 76 80  1  0
 76 75  1  0
 77 76  2  0
 80 79  1  0
 82 80  1  0
 82 83  1  0
 82 81  1  0
 84 87  1  1
 84 85  1  0
 86 84  1  0
M  ISO  4   9 100  10 100  46 101  47 101
M  END
>  <TORSDO>  (54) 
F 21

>  <SCORE>  (54) 
-13.320

>  <name>  (54) 
53

>  <ligand_id>  (54) 
53

>  <original_smiles>  (54) 
[H]c1c([H])c([H])c2c(c1[H])C([H])([H])C([H])([H])C([H])([H])C2([H])N([H])C(=O)C1([H])N(C(=O)C([H])(N([H])C(=O)C([H])(N([H])C([H])([H])[H])C([H])([H])[H])C(C([H])([H])[H])(C([H])([H])[H])C([H])([H])[H])C([H])([H])c2c([H])c(OC([H])([H])C([H])(C([H])([H])[H])C3([H])C([H])([H])C3([H])C([H])([H])C([H])(C([H])([H])[H])C([H])([H])C(=O)N3C([H])([H])C([H])([H])C([H])([H])C([H])(n4nc(-c5c([H])c([H])c(Oc6c([H])c([H])c(F)c([H])c6F)c([H])c5[H])c(C(=O)N([H])[H])c4N([H])[H])C3([H])[H])c([H])c([H])c2C1([H])[H]

>  <smiles>  (54) 
[H]c1c([H])c([H])c2c(c1[H])C([H])([H])C([H])([H])C([H])([H])C2([H])N([H])C(=O)C1([H])N(C(=O)C([H])(N([H])C(=O)C([H])(N([H])C([H])([H])[H])C([H])([H])[H])C(C([H])([H])[H])(C([H])([H])[H])C([H])([H])[H])C([H])([H])c2c([H])c(OC([H])([H])C([H])(C([H])([H])[H])C3([H])C([H])([H])C3([H])C([H])([H])C([H])(C([H])([H])[H])C([H])([H])C(=O)N3C([H])([H])C([H])([H])C([H])([H])C([H])(n4nc(-c5c([H])c([H])c(Oc6c([H])c([H])c(F)c([H])c6F)c([H])c5[H])c(C(=O)N([H])[H])c4N([H])[H])C3([H])[H])c([H])c([H])c2C1([H])[H]

$$$$
54:0:0
     RDKit          3D

 92100  0  0  1  0  0  0  0  0999 V2000
  -29.6430  -21.3890   20.4430 C   0  0  0  0  0  0  0  0  0  0  0  0
  -28.9400  -20.7330   18.3040 C   0  0  0  0  0  2  0  0  0  0  0  0
  -28.6550  -22.2390   18.5430 C   0  0  0  0  0  2  0  0  0  0  0  0
  -29.1610  -20.0760   19.7010 C   0  0  2  0  0  0  0  0  0  0  0  0
  -29.2390  -22.5520   19.8430 N   0  0  0  0  0  0  0  0  0  0  0  0
  -30.3210  -21.3580   21.4780 O   0  0  0  0  0  0  0  0  0  0  0  0
  -27.8390  -19.7000   20.3970 C   0  0  0  0  0  3  0  0  0  0  0  0
  -26.7310  -19.4730   19.8200 N   0  0  0  0  0  0  0  0  0  0  0  0
  -26.0000  -19.2580   20.4890 H   0  0  0  0  0  0  0  0  0  0  0  0
  -30.1870  -18.8150   19.7250 C   0  0  0  0  0  2  0  0  0  0  0  0
  -28.6850  -17.2770   18.3220 C   0  0  0  0  0  1  0  0  0  0  0  0
  -29.7680  -17.2700   19.4190 C   0  0  0  0  0  3  0  0  0  0  0  0
  -30.9260  -16.2320   18.9790 C   0  0  0  0  0  2  0  0  0  0  0  0
  -31.4640  -14.9350   19.7580 C   0  0  0  0  0  0  0  0  0  0  0  0
  -31.0960  -12.6000   19.0360 C   0  0  0  0  0  2  0  0  0  0  0  0
  -30.1330  -12.5580   17.8270 C   0  0  0  0  0  2  0  0  0  0  0  0
  -28.6580  -12.5500   18.2840 C   0  0  0  0  0  2  0  0  0  0  0  0
  -28.3560  -13.5620   19.4190 C   0  0  0  0  0  3  0  0  0  0  0  0
  -29.4400  -13.6100   20.5090 C   0  0  0  0  0  2  0  0  0  0  0  0
  -30.7420  -13.7740   19.8570 N   0  0  0  0  0  0  0  0  0  0  0  0
  -32.6950  -14.8630   19.7870 O   0  0  0  0  0  0  0  0  0  0  0  0
  -26.0730  -14.3570   20.2830 C   0  0  0  0  0  0  0  0  0  0  0  0
  -24.9450  -13.6770   20.6580 C   0  0  0  0  0  0  0  0  0  0  0  0
  -25.2780  -12.2950   20.5650 C   0  0  0  0  0  0  0  0  0  0  0  0
  -27.0170  -13.3920   19.9700 N   0  0  0  0  0  0  0  0  0  0  0  0
  -26.5510  -12.1410   20.2170 N   0  0  0  0  0  0  0  0  0  0  0  0
  -24.4420  -11.1020   20.7380 C   0  0  0  0  0  0  0  0  0  0  0  0
  -24.8040  -10.0770   21.6380 C   0  0  0  0  0  3  0  0  0  0  0  0
  -23.9720   -8.9470   21.8010 C   0  0  0  0  0  3  0  0  0  0  0  0
  -22.7680   -8.8400   21.0640 C   0  0  0  0  0  0  0  0  0  0  0  0
  -22.4260   -9.8560   20.1570 C   0  0  0  0  0  3  0  0  0  0  0  0
  -23.2560  -10.9770   19.9890 C   0  0  0  0  0  3  0  0  0  0  0  0
  -21.9140   -7.7670   21.1380 O   0  0  0  0  0  0  0  0  0  0  0  0
  -21.7970   -7.0210   22.2810 C   0  0  0  0  0  0  0  0  0  0  0  0
  -21.4230   -7.5950   23.5180 C   0  0  0  0  0  3  0  0  0  0  0  0
  -21.2370   -6.7740   24.6470 C   0  0  0  0  0  3  0  0  0  0  0  0
  -21.4290   -5.3830   24.5460 C   0  0  0  0  0  0  0  0  0  0  0  0
  -21.7980   -4.8090   23.3160 C   0  0  0  0  0  3  0  0  0  0  0  0
  -21.9820   -5.6260   22.1890 C   0  0  0  0  0  0  0  0  0  0  0  0
  -22.3180   -5.0670   21.0000 F   0  0  0  0  0  0  0  0  0  0  0  0
  -21.2460   -4.5910   25.6320 F   0  0  0  0  0  0  0  0  0  0  0  0
  -23.6080  -14.2780   20.9730 C   0  0  0  0  0  0  0  0  0  0  0  0
  -22.8340  -13.6380   21.8460 N   0  0  0  0  0  0  0  0  0  0  0  0
  -23.2510  -15.3440   20.4770 O   0  0  0  0  0  0  0  0  0  0  0  0
  -23.1390  -12.7850   22.2870 H   0  0  0  0  0  0  0  0  0  0  0  0
  -21.9280  -14.0170   22.0820 H   0  0  0  0  0  0  0  0  0  0  0  0
  -26.3360  -15.7130   20.1620 N   0  0  0  0  0  0  0  0  0  0  0  0
  -25.6270  -16.3910   20.4250 H   0  0  0  0  0  0  0  0  0  0  0  0
  -27.1960  -16.1360   19.8340 H   0  0  0  0  0  0  0  0  0  0  0  0
  -29.4960  -23.9860   20.2530 C   0  0  0  0  0  3  0  0  0  0  0  0
  -28.3790  -25.0490   19.8930 C   0  0  0  0  0  3  0  0  0  0  0  0
  -28.5640  -26.4820   20.2380 O   0  0  0  0  0  0  0  0  0  0  0  0
  -24.5880  -31.7430   23.2210 C   0  0  0  0  0  0  0  0  0  0  0  0
  -27.4300  -27.3150   20.1660 C   0  0  0  0  0  0  0  0  0  0  0  0
  -23.4890  -30.3450   21.5120 C   0  0  0  0  0  3  0  0  0  0  0  0
  -25.0310  -28.8710   20.1080 C   0  0  0  0  0  0  0  0  0  0  0  0
  -26.0190  -30.7470   21.4160 C   0  0  0  0  0  2  0  0  0  0  0  0
  -26.1670  -29.3770   20.7570 C   0  0  0  0  0  0  0  0  0  0  0  0
  -27.3730  -28.6120   20.7730 C   0  0  0  0  0  3  0  0  0  0  0  0
  -26.2690  -26.8720   19.4930 C   0  0  0  0  0  3  0  0  0  0  0  0
  -25.0870  -27.6290   19.4640 C   0  0  0  0  0  3  0  0  0  0  0  0
  -23.7720  -29.7160   20.1240 C   0  0  0  0  0  2  0  0  0  0  0  0
  -24.7190  -30.9610   22.1100 N   0  0  0  0  0  0  0  0  0  0  0  0
  -23.4780  -31.9770   23.7190 O   0  0  0  0  0  0  0  0  0  0  0  0
  -22.8280  -29.2800   22.4240 C   0  0  0  0  0  0  0  0  0  0  0  0
  -21.5080  -29.0780   22.2570 N   0  0  0  0  0  0  0  0  0  0  0  0
  -23.4990  -28.6470   23.2450 O   0  0  0  0  0  0  0  0  0  0  0  0
  -21.0250  -29.6600   21.5870 H   0  0  0  0  0  0  0  0  0  0  0  0
  -18.1370  -27.8320   22.6590 C   0  0  0  0  0  0  0  0  0  0  0  0
  -20.6850  -28.1030   22.9800 C   0  0  0  0  0  3  0  0  0  0  0  0
  -20.8120  -26.6950   22.3520 C   0  0  0  0  0  2  0  0  0  0  0  0
  -19.7250  -26.4000   21.3120 C   0  0  0  0  0  2  0  0  0  0  0  0
  -18.3350  -26.5100   21.9410 C   0  0  0  0  0  2  0  0  0  0  0  0
  -19.2400  -28.5860   23.1370 C   0  0  0  0  0  0  0  0  0  0  0  0
  -19.0040  -29.8260   23.7720 C   0  0  0  0  0  3  0  0  0  0  0  0
  -17.6940  -30.3100   23.9340 C   0  0  0  0  0  3  0  0  0  0  0  0
  -16.6010  -29.5530   23.4730 C   0  0  0  0  0  3  0  0  0  0  0  0
  -16.8260  -28.3140   22.8460 C   0  0  0  0  0  3  0  0  0  0  0  0
  -25.8250  -32.4050   23.9020 C   0  0  0  0  0  3  0  0  0  0  0  0
  -25.4790  -33.8020   24.1960 N   0  0  0  0  0  0  0  0  0  0  0  0
  -25.8290  -34.8500   23.4420 C   0  0  0  0  0  0  0  0  0  0  0  0
  -26.5480  -34.7450   22.4450 O   0  0  0  0  0  0  0  0  0  0  0  0
  -24.8510  -33.9560   24.9730 H   0  0  0  0  0  0  0  0  0  0  0  0
  -24.0850  -36.6030   22.9790 C   0  0  0  0  0  1  0  0  0  0  0  0
  -25.2910  -36.2330   23.8580 C   0  0  0  0  0  3  0  0  0  0  0  0
  -27.3640  -37.1640   24.7850 C   0  0  0  0  0  1  0  0  0  0  0  0
  -26.3090  -37.3080   23.7850 N   0  0  0  0  0  0  0  0  0  0  0  0
  -25.8750  -38.2170   23.9130 H   0  0  0  0  0  0  0  0  0  0  0  0
  -26.2780  -31.6650   25.2170 C   0  0  1  0  0  0  0  0  0  0  0  0
  -25.1270  -31.4260   26.2240 C   0  0  0  0  0  1  0  0  0  0  0  0
  -26.9060  -30.2970   24.8700 C   0  0  0  0  0  1  0  0  0  0  0  0
  -27.3640  -32.4920   25.9440 C   0  0  0  0  0  1  0  0  0  0  0  0
  1  6  2  0
  2  3  1  0
  2  4  1  0
  3  5  1  0
  4 10  1  6
  4  7  1  0
  4  1  1  0
  5 50  1  0
  5  1  1  0
  8  7  2  0
  8  9  1  0
 12 11  1  0
 12 10  1  0
 13 12  1  0
 13 14  1  0
 14 21  2  0
 14 20  1  0
 15 20  1  0
 16 17  1  0
 16 15  1  0
 18 17  1  0
 18 25  1  0
 18 19  1  0
 20 19  1  0
 22 23  2  0
 23 42  1  0
 24 23  1  0
 24 27  1  0
 25 26  1  0
 25 22  1  0
 26 24  2  0
 27 28  1  0
 28 29  2  0
 30 33  1  0
 30 29  1  0
 31 30  2  0
 32 31  1  0
 32 27  2  0
 33 34  1  0
 34 35  1  0
 35 36  2  0
 37 36  1  0
 37 41  1  0
 38 37  2  0
 39 34  2  0
 39 38  1  0
 40 39  1  0
 42 43  1  0
 43 46  1  0
 43 45  1  0
 44 42  2  0
 47 22  1  0
 47 48  1  0
 49 47  1  0
 51 52  1  0
 51 50  2  0
 53 64  2  0
 54 52  1  0
 54 59  1  0
 55 63  1  0
 55 65  1  0
 56 62  1  0
 56 58  1  0
 57 63  1  0
 58 59  2  0
 58 57  1  0
 60 54  2  0
 61 60  1  0
 61 56  2  0
 62 55  1  0
 63 53  1  0
 65 67  2  0
 66 65  1  0
 68 66  1  0
 69 78  2  0
 69 74  1  0
 70 66  1  0
 70 74  1  0
 71 70  1  0
 72 73  1  0
 72 71  1  0
 73 69  1  0
 74 75  2  0
 75 76  1  0
 77 76  2  0
 78 77  1  0
 79 53  1  0
 79 80  1  0
 79 89  1  0
 80 83  1  0
 81 85  1  0
 81 80  1  0
 82 81  2  0
 85 84  1  0
 87 85  1  0
 87 88  1  0
 87 86  1  0
 89 92  1  1
 89 90  1  0
 91 89  1  0
M  ISO  4  13 100  14 100  51 101  52 101
M  END
>  <TORSDO>  (55) 
F 22

>  <SCORE>  (55) 
-11.976

>  <name>  (55) 
54

>  <ligand_id>  (55) 
54

>  <original_smiles>  (55) 
[H]N=C([H])C1(C([H])([H])C([H])(C([H])([H])[H])C([H])([H])C(=O)N2C([H])([H])C([H])([H])C([H])([H])C([H])(n3nc(-c4c([H])c([H])c(Oc5c([H])c([H])c(F)c([H])c5F)c([H])c4[H])c(C(=O)N([H])[H])c3N([H])[H])C2([H])[H])C(=O)N(C([H])([H])C([H])([H])Oc2c([H])c([H])c3c(c2[H])C([H])([H])N(C(=O)C([H])(N([H])C(=O)C([H])(N([H])C([H])([H])[H])C([H])([H])[H])C(C([H])([H])[H])(C([H])([H])[H])C([H])([H])[H])C([H])(C(=O)N([H])C2([H])c4c([H])c([H])c([H])c([H])c4C([H])([H])C([H])([H])C2([H])[H])C3([H])[H])C([H])([H])C1([H])[H]

>  <smiles>  (55) 
[H]N=C([H])C1(C([H])([H])C([H])(C([H])([H])[H])C([H])([H])C(=O)N2C([H])([H])C([H])([H])C([H])([H])C([H])(n3nc(-c4c([H])c([H])c(Oc5c([H])c([H])c(F)c([H])c5F)c([H])c4[H])c(C(=O)N([H])[H])c3N([H])[H])C2([H])[H])C(=O)N(C([H])([H])C([H])([H])Oc2c([H])c([H])c3c(c2[H])C([H])([H])N(C(=O)C([H])(N([H])C(=O)C([H])(N([H])C([H])([H])[H])C([H])([H])[H])C(C([H])([H])[H])(C([H])([H])[H])C([H])([H])[H])C([H])(C(=O)N([H])C2([H])c4c([H])c([H])c([H])c([H])c4C([H])([H])C([H])([H])C2([H])[H])C3([H])[H])C([H])([H])C1([H])[H]

$$$$
55:0:0
     RDKit          3D

 89 97  0  0  1  0  0  0  0  0999 V2000
  -30.1160  -23.5930   18.6650 C   0  0  0  0  0  1  0  0  0  0  0  0
  -30.4450  -23.6660   21.1440 C   0  0  0  0  0  1  0  0  0  0  0  0
  -29.4270  -23.3940   20.0250 C   0  0  2  0  0  0  0  0  0  0  0  0
  -29.0280  -21.7570   20.1320 C   0  0  0  0  0  2  0  0  0  0  0  0
  -29.9970  -20.4630   19.6480 C   0  0  0  0  0  2  0  0  0  0  0  0
  -29.4990  -17.4860   22.1650 C   0  0  0  0  0  3  0  0  0  0  0  0
  -30.0330  -16.3330   21.5460 C   0  0  0  0  0  3  0  0  0  0  0  0
  -29.4410  -18.7390   21.5190 C   0  0  0  0  0  3  0  0  0  0  0  0
  -30.4530  -17.6750   19.5840 C   0  0  0  0  0  3  0  0  0  0  0  0
  -30.4900  -16.3220   20.2070 C   0  0  0  0  0  0  0  0  0  0  0  0
  -29.9420  -18.9220   20.2170 C   0  0  0  0  0  0  0  0  0  0  0  0
  -31.1070  -14.9690   19.5900 C   0  0  0  0  0  0  0  0  0  0  0  0
  -30.7810  -12.7100   18.4800 C   0  0  0  0  0  2  0  0  0  0  0  0
  -29.6550  -12.7920   17.4180 C   0  0  0  0  0  2  0  0  0  0  0  0
  -28.2670  -12.5720   18.0530 C   0  0  0  0  0  2  0  0  0  0  0  0
  -28.0900  -13.3830   19.3620 C   0  0  0  0  0  3  0  0  0  0  0  0
  -29.3100  -13.2200   20.2840 C   0  0  0  0  0  2  0  0  0  0  0  0
  -30.4900  -13.7100   19.5520 N   0  0  0  0  0  0  0  0  0  0  0  0
  -32.1890  -15.0620   18.9960 O   0  0  0  0  0  0  0  0  0  0  0  0
  -25.9450  -13.9310   20.6520 C   0  0  0  0  0  0  0  0  0  0  0  0
  -24.9040  -13.1540   21.0760 C   0  0  0  0  0  0  0  0  0  0  0  0
  -25.2330  -11.8130   20.7070 C   0  0  0  0  0  0  0  0  0  0  0  0
  -26.8430  -13.0650   20.0490 N   0  0  0  0  0  0  0  0  0  0  0  0
  -26.4350  -11.7720   20.1420 N   0  0  0  0  0  0  0  0  0  0  0  0
  -24.4470  -10.5760   20.8060 C   0  0  0  0  0  0  0  0  0  0  0  0
  -24.9010   -9.4670   21.5520 C   0  0  0  0  0  3  0  0  0  0  0  0
  -24.1160   -8.2980   21.6470 C   0  0  0  0  0  3  0  0  0  0  0  0
  -22.8620   -8.2300   20.9950 C   0  0  0  0  0  0  0  0  0  0  0  0
  -22.4250   -9.3290   20.2350 C   0  0  0  0  0  3  0  0  0  0  0  0
  -23.2100  -10.4890   20.1370 C   0  0  0  0  0  3  0  0  0  0  0  0
  -22.0440   -7.1270   21.0090 O   0  0  0  0  0  0  0  0  0  0  0  0
  -21.9980   -6.2780   22.0860 C   0  0  0  0  0  0  0  0  0  0  0  0
  -21.6610   -6.7330   23.3810 C   0  0  0  0  0  3  0  0  0  0  0  0
  -21.5580   -5.8150   24.4440 C   0  0  0  0  0  3  0  0  0  0  0  0
  -21.7820   -4.4440   24.2170 C   0  0  0  0  0  0  0  0  0  0  0  0
  -22.1100   -3.9880   22.9280 C   0  0  0  0  0  3  0  0  0  0  0  0
  -22.2150   -4.9030   21.8660 C   0  0  0  0  0  0  0  0  0  0  0  0
  -22.5110   -4.4560   20.6220 F   0  0  0  0  0  0  0  0  0  0  0  0
  -21.6750   -3.5610   25.2370 F   0  0  0  0  0  0  0  0  0  0  0  0
  -23.6290  -13.6380   21.7040 C   0  0  0  0  0  0  0  0  0  0  0  0
  -23.0420  -12.8450   22.5930 N   0  0  0  0  0  0  0  0  0  0  0  0
  -23.1700  -14.7490   21.4420 O   0  0  0  0  0  0  0  0  0  0  0  0
  -23.4310  -11.9430   22.8260 H   0  0  0  0  0  0  0  0  0  0  0  0
  -22.1910  -13.1430   23.0490 H   0  0  0  0  0  0  0  0  0  0  0  0
  -26.1970  -15.2980   20.7050 N   0  0  0  0  0  0  0  0  0  0  0  0
  -25.5440  -15.9570   21.1150 H   0  0  0  0  0  0  0  0  0  0  0  0
  -27.0390  -15.7410   20.3590 H   0  0  0  0  0  0  0  0  0  0  0  0
  -28.2770  -24.6130   20.1420 C   0  0  0  0  0  2  0  0  0  0  0  0
  -28.5240  -26.1470   20.1920 O   0  0  0  0  0  0  0  0  0  0  0  0
  -24.6410  -31.6930   23.0990 C   0  0  0  0  0  0  0  0  0  0  0  0
  -27.4390  -27.0900   20.1130 C   0  0  0  0  0  0  0  0  0  0  0  0
  -23.5380  -30.2960   21.3970 C   0  0  0  0  0  3  0  0  0  0  0  0
  -25.0730  -28.7740   20.0130 C   0  0  0  0  0  0  0  0  0  0  0  0
  -26.0890  -30.6220   21.3350 C   0  0  0  0  0  2  0  0  0  0  0  0
  -26.2190  -29.2410   20.6710 C   0  0  0  0  0  0  0  0  0  0  0  0
  -27.4030  -28.4160   20.7030 C   0  0  0  0  0  3  0  0  0  0  0  0
  -26.2660  -26.7220   19.4190 C   0  0  0  0  0  3  0  0  0  0  0  0
  -25.1090  -27.5290   19.3730 C   0  0  0  0  0  3  0  0  0  0  0  0
  -23.8270  -29.6420   20.0200 C   0  0  0  0  0  2  0  0  0  0  0  0
  -24.7740  -30.8910   22.0000 N   0  0  0  0  0  0  0  0  0  0  0  0
  -23.5290  -31.9470   23.5870 O   0  0  0  0  0  0  0  0  0  0  0  0
  -22.8440  -29.2600   22.3170 C   0  0  0  0  0  0  0  0  0  0  0  0
  -21.5170  -29.0970   22.1650 N   0  0  0  0  0  0  0  0  0  0  0  0
  -23.5020  -28.6060   23.1310 O   0  0  0  0  0  0  0  0  0  0  0  0
  -21.0440  -29.6760   21.4860 H   0  0  0  0  0  0  0  0  0  0  0  0
  -18.1200  -27.9230   22.6110 C   0  0  0  0  0  0  0  0  0  0  0  0
  -20.6820  -28.1410   22.8960 C   0  0  0  0  0  3  0  0  0  0  0  0
  -20.7660  -26.7320   22.2660 C   0  0  0  0  0  2  0  0  0  0  0  0
  -19.6650  -26.4620   21.2360 C   0  0  0  0  0  2  0  0  0  0  0  0
  -18.2830  -26.6000   21.8820 C   0  0  0  0  0  2  0  0  0  0  0  0
  -19.2460  -28.6540   23.0730 C   0  0  0  0  0  0  0  0  0  0  0  0
  -19.0400  -29.8930   23.7170 C   0  0  0  0  0  3  0  0  0  0  0  0
  -17.7400  -30.4020   23.9000 C   0  0  0  0  0  3  0  0  0  0  0  0
  -16.6280  -29.6680   23.4520 C   0  0  0  0  0  3  0  0  0  0  0  0
  -16.8190  -28.4290   22.8130 C   0  0  0  0  0  3  0  0  0  0  0  0
  -25.8800  -32.3470   23.7850 C   0  0  0  0  0  3  0  0  0  0  0  0
  -26.3630  -31.5630   25.0670 C   0  0  1  0  0  0  0  0  0  0  0  0
  -25.2340  -31.2780   26.0850 C   0  0  0  0  0  1  0  0  0  0  0  0
  -26.9940  -30.2060   24.6760 C   0  0  0  0  0  1  0  0  0  0  0  0
  -27.4660  -32.3700   25.7890 C   0  0  0  0  0  1  0  0  0  0  0  0
  -25.5180  -33.7290   24.1350 N   0  0  0  0  0  0  0  0  0  0  0  0
  -25.8580  -34.8120   23.4220 C   0  0  0  0  0  0  0  0  0  0  0  0
  -26.5720  -34.7520   22.4170 O   0  0  0  0  0  0  0  0  0  0  0  0
  -24.8870  -33.8480   24.9130 H   0  0  0  0  0  0  0  0  0  0  0  0
  -24.1130  -36.5850   23.0370 C   0  0  0  0  0  1  0  0  0  0  0  0
  -25.3200  -36.1780   23.8960 C   0  0  0  0  0  3  0  0  0  0  0  0
  -27.3900  -37.0800   24.8610 C   0  0  0  0  0  1  0  0  0  0  0  0
  -26.3360  -37.2530   23.8660 N   0  0  0  0  0  0  0  0  0  0  0  0
  -25.9040  -38.1610   24.0140 H   0  0  0  0  0  0  0  0  0  0  0  0
  3  1  1  6
  3  4  1  0
  3 48  1  0
  3  2  1  0
  5  4  1  0
  5 11  1  0
  7  6  1  0
  8  6  2  0
  9 10  1  0
  9 11  2  0
 10  7  2  0
 11  8  1  0
 12 10  1  0
 13 18  1  0
 14 15  1  0
 14 13  1  0
 16 15  1  0
 16 23  1  0
 16 17  1  0
 18 12  1  0
 18 17  1  0
 19 12  2  0
 20 45  1  0
 20 21  2  0
 21 40  1  0
 22 25  1  0
 22 21  1  0
 23 24  1  0
 23 20  1  0
 24 22  2  0
 25 26  1  0
 26 27  2  0
 28 31  1  0
 28 27  1  0
 29 28  2  0
 30 29  1  0
 30 25  2  0
 31 32  1  0
 32 33  1  0
 33 34  2  0
 35 34  1  0
 35 39  1  0
 36 35  2  0
 37 32  2  0
 37 36  1  0
 38 37  1  0
 40 41  1  0
 41 43  1  0
 41 44  1  0
 42 40  2  0
 45 46  1  0
 47 45  1  0
 48 49  1  0
 50 61  2  0
 51 49  1  0
 51 56  1  0
 52 60  1  0
 52 62  1  0
 53 59  1  0
 53 55  1  0
 54 60  1  0
 55 56  2  0
 55 54  1  0
 57 51  2  0
 58 57  1  0
 58 53  2  0
 59 52  1  0
 60 50  1  0
 62 64  2  0
 63 62  1  0
 65 63  1  0
 66 75  2  0
 66 71  1  0
 67 63  1  0
 67 71  1  0
 68 67  1  0
 69 70  1  0
 69 68  1  0
 70 66  1  0
 71 72  2  0
 72 73  1  0
 74 73  2  0
 75 74  1  0
 76 50  1  0
 76 81  1  0
 76 77  1  0
 77 80  1  1
 77 78  1  0
 79 77  1  0
 81 84  1  0
 82 86  1  0
 82 81  1  0
 83 82  2  0
 86 85  1  0
 88 86  1  0
 88 89  1  0
 88 87  1  0
M  ISO  4  10 100  12 100  48 101  49 101
M  END
>  <TORSDO>  (56) 
F 20

>  <SCORE>  (56) 
-10.130

>  <name>  (56) 
55

>  <ligand_id>  (56) 
55

>  <original_smiles>  (56) 
[H]c1c([H])c([H])c2c(c1[H])C([H])([H])C([H])([H])C([H])([H])C2([H])N([H])C(=O)C1([H])N(C(=O)C([H])(N([H])C(=O)C([H])(N([H])C([H])([H])[H])C([H])([H])[H])C(C([H])([H])[H])(C([H])([H])[H])C([H])([H])[H])C([H])([H])c2c([H])c(OC([H])([H])C(C([H])([H])[H])(C([H])([H])[H])C([H])([H])C([H])([H])c3c([H])c([H])c([H])c(C(=O)N4C([H])([H])C([H])([H])C([H])([H])C([H])(n5nc(-c6c([H])c([H])c(Oc7c([H])c([H])c(F)c([H])c7F)c([H])c6[H])c(C(=O)N([H])[H])c5N([H])[H])C4([H])[H])c3[H])c([H])c([H])c2C1([H])[H]

>  <smiles>  (56) 
[H]c1c([H])c([H])c2c(c1[H])C([H])([H])C([H])([H])C([H])([H])C2([H])N([H])C(=O)C1([H])N(C(=O)C([H])(N([H])C(=O)C([H])(N([H])C([H])([H])[H])C([H])([H])[H])C(C([H])([H])[H])(C([H])([H])[H])C([H])([H])[H])C([H])([H])c2c([H])c(OC([H])([H])C(C([H])([H])[H])(C([H])([H])[H])C([H])([H])C([H])([H])c3c([H])c([H])c([H])c(C(=O)N4C([H])([H])C([H])([H])C([H])([H])C([H])(n5nc(-c6c([H])c([H])c(Oc7c([H])c([H])c(F)c([H])c7F)c([H])c6[H])c(C(=O)N([H])[H])c5N([H])[H])C4([H])[H])c3[H])c([H])c([H])c2C1([H])[H]

$$$$
56:0:0
     RDKit          3D

 89 97  0  0  1  0  0  0  0  0999 V2000
  -30.0720  -20.8480   20.7150 C   0  0  0  0  0  3  0  0  0  0  0  0
  -28.3020  -20.4100   19.2820 C   0  0  0  0  0  3  0  0  0  0  0  0
  -30.4000  -19.4310   20.7090 C   0  0  0  0  0  3  0  0  0  0  0  0
  -28.6500  -18.9580   19.2730 C   0  0  0  0  0  3  0  0  0  0  0  0
  -29.0080  -21.4820   19.9950 C   0  0  0  0  0  0  0  0  0  0  0  0
  -29.7580  -18.3370   19.9920 C   0  0  0  0  0  0  0  0  0  0  0  0
  -31.4070  -17.3500   18.5940 C   0  0  0  0  0  1  0  0  0  0  0  0
  -30.6390  -16.8560   19.8890 C   0  0  2  0  0  0  0  0  0  0  0  0
  -30.6030  -15.1200   19.6100 C   0  0  0  0  0  0  0  0  0  0  0  0
  -30.1670  -12.7160   18.8590 C   0  0  0  0  0  2  0  0  0  0  0  0
  -29.1880  -12.6290   17.6770 C   0  0  0  0  0  2  0  0  0  0  0  0
  -27.7680  -12.4450   18.2210 C   0  0  0  0  0  2  0  0  0  0  0  0
  -27.4540  -13.4030   19.4010 C   0  0  0  0  0  3  0  0  0  0  0  0
  -28.6020  -13.5780   20.4280 C   0  0  0  0  0  2  0  0  0  0  0  0
  -29.8160  -13.9410   19.6840 N   0  0  0  0  0  0  0  0  0  0  0  0
  -31.7260  -14.7740   19.2390 O   0  0  0  0  0  0  0  0  0  0  0  0
  -25.1740  -13.9400   20.4010 C   0  0  0  0  0  0  0  0  0  0  0  0
  -24.1390  -13.1540   20.8270 C   0  0  0  0  0  0  0  0  0  0  0  0
  -24.5850  -11.8020   20.6980 C   0  0  0  0  0  0  0  0  0  0  0  0
  -26.1810  -13.0680   20.0300 N   0  0  0  0  0  0  0  0  0  0  0  0
  -25.8480  -11.7740   20.2830 N   0  0  0  0  0  0  0  0  0  0  0  0
  -23.8610  -10.5390   20.8960 C   0  0  0  0  0  0  0  0  0  0  0  0
  -24.2830   -9.5810   21.8440 C   0  0  0  0  0  3  0  0  0  0  0  0
  -23.5500   -8.3870   22.0320 C   0  0  0  0  0  3  0  0  0  0  0  0
  -22.3830   -8.1440   21.2720 C   0  0  0  0  0  0  0  0  0  0  0  0
  -21.9770   -9.0910   20.3160 C   0  0  0  0  0  3  0  0  0  0  0  0
  -22.7090  -10.2760   20.1260 C   0  0  0  0  0  3  0  0  0  0  0  0
  -21.6200   -7.0050   21.3680 O   0  0  0  0  0  0  0  0  0  0  0  0
  -21.4940   -6.3220   22.5530 C   0  0  0  0  0  0  0  0  0  0  0  0
  -20.9640   -6.9290   23.7110 C   0  0  0  0  0  3  0  0  0  0  0  0
  -20.7870   -6.1710   24.8860 C   0  0  0  0  0  3  0  0  0  0  0  0
  -21.1330   -4.8060   24.9030 C   0  0  0  0  0  0  0  0  0  0  0  0
  -21.6570   -4.1990   23.7460 C   0  0  0  0  0  3  0  0  0  0  0  0
  -21.8360   -4.9560   22.5750 C   0  0  0  0  0  0  0  0  0  0  0  0
  -22.3210   -4.3590   21.4600 F   0  0  0  0  0  0  0  0  0  0  0  0
  -20.9570   -4.0740   26.0270 F   0  0  0  0  0  0  0  0  0  0  0  0
  -22.7760  -13.6330   21.2240 C   0  0  0  0  0  0  0  0  0  0  0  0
  -22.1040  -12.9150   22.1160 N   0  0  0  0  0  0  0  0  0  0  0  0
  -22.3170  -14.6830   20.7770 O   0  0  0  0  0  0  0  0  0  0  0  0
  -22.4880  -12.0660   22.5000 H   0  0  0  0  0  0  0  0  0  0  0  0
  -21.1890  -13.2210   22.4170 H   0  0  0  0  0  0  0  0  0  0  0  0
  -25.3310  -15.3140   20.2660 N   0  0  0  0  0  0  0  0  0  0  0  0
  -24.5780  -15.9580   20.4790 H   0  0  0  0  0  0  0  0  0  0  0  0
  -26.1500  -15.7750   19.8820 H   0  0  0  0  0  0  0  0  0  0  0  0
  -33.0760  -17.2080   20.9320 C   0  0  0  0  0  1  0  0  0  0  0  0
  -31.5860  -16.8360   21.1550 C   0  0  0  0  0  2  0  0  0  0  0  0
  -28.9800  -23.1840   19.8330 C   0  0  0  0  0  3  0  0  0  0  0  0
  -27.9380  -24.4750   20.3190 C   0  0  0  0  0  3  0  0  0  0  0  0
  -28.1860  -26.0620   20.2870 O   0  0  0  0  0  0  0  0  0  0  0  0
  -24.5540  -31.9270   23.1920 C   0  0  0  0  0  0  0  0  0  0  0  0
  -27.1430  -27.0890   20.2510 C   0  0  0  0  0  0  0  0  0  0  0  0
  -23.3660  -30.4930   21.5740 C   0  0  0  0  0  3  0  0  0  0  0  0
  -24.8290  -28.8910   20.1870 C   0  0  0  0  0  0  0  0  0  0  0  0
  -25.9270  -30.7460   21.4260 C   0  0  0  0  0  2  0  0  0  0  0  0
  -26.0110  -29.3320   20.7980 C   0  0  0  0  0  0  0  0  0  0  0  0
  -27.1690  -28.4480   20.8010 C   0  0  0  0  0  3  0  0  0  0  0  0
  -25.9330  -26.7790   19.5930 C   0  0  0  0  0  3  0  0  0  0  0  0
  -24.8110  -27.6380   19.5600 C   0  0  0  0  0  3  0  0  0  0  0  0
  -23.6020  -29.7920   20.2120 C   0  0  0  0  0  2  0  0  0  0  0  0
  -24.6350  -31.0870   22.1150 N   0  0  0  0  0  0  0  0  0  0  0  0
  -23.4650  -32.2180   23.7120 O   0  0  0  0  0  0  0  0  0  0  0  0
  -22.6960  -29.5000   22.5580 C   0  0  0  0  0  0  0  0  0  0  0  0
  -21.3760  -29.2920   22.4180 N   0  0  0  0  0  0  0  0  0  0  0  0
  -23.3660  -28.9260   23.4200 O   0  0  0  0  0  0  0  0  0  0  0  0
  -20.9020  -29.8150   21.6970 H   0  0  0  0  0  0  0  0  0  0  0  0
  -18.0160  -27.9990   22.8830 C   0  0  0  0  0  0  0  0  0  0  0  0
  -20.5580  -28.3590   23.2030 C   0  0  0  0  0  3  0  0  0  0  0  0
  -20.7230  -26.9100   22.6920 C   0  0  0  0  0  2  0  0  0  0  0  0
  -19.6610  -26.5090   21.6640 C   0  0  0  0  0  2  0  0  0  0  0  0
  -18.2570  -26.6310   22.2660 C   0  0  0  0  0  2  0  0  0  0  0  0
  -19.0990  -28.8170   23.3060 C   0  0  0  0  0  0  0  0  0  0  0  0
  -18.8220  -30.0900   23.8500 C   0  0  0  0  0  3  0  0  0  0  0  0
  -17.4980  -30.5490   23.9730 C   0  0  0  0  0  3  0  0  0  0  0  0
  -16.4300  -29.7320   23.5580 C   0  0  0  0  0  3  0  0  0  0  0  0
  -16.6880  -28.4600   23.0200 C   0  0  0  0  0  3  0  0  0  0  0  0
  -25.8250  -32.5860   23.8080 C   0  0  0  0  0  3  0  0  0  0  0  0
  -26.3530  -31.8330   25.0940 C   0  0  1  0  0  0  0  0  0  0  0  0
  -25.2550  -31.5650   26.1470 C   0  0  0  0  0  1  0  0  0  0  0  0
  -26.9900  -30.4730   24.7280 C   0  0  0  0  0  1  0  0  0  0  0  0
  -27.4630  -32.6710   25.7700 C   0  0  0  0  0  1  0  0  0  0  0  0
  -25.4930  -33.9820   24.1340 N   0  0  0  0  0  0  0  0  0  0  0  0
  -25.8230  -35.0430   23.3850 C   0  0  0  0  0  0  0  0  0  0  0  0
  -26.5030  -34.9440   22.3620 O   0  0  0  0  0  0  0  0  0  0  0  0
  -24.8890  -34.1280   24.9290 H   0  0  0  0  0  0  0  0  0  0  0  0
  -24.0920  -36.8390   23.0150 C   0  0  0  0  0  1  0  0  0  0  0  0
  -25.3200  -36.4260   23.8440 C   0  0  0  0  0  3  0  0  0  0  0  0
  -27.4280  -37.3250   24.7270 C   0  0  0  0  0  1  0  0  0  0  0  0
  -26.3470  -37.4880   23.7620 N   0  0  0  0  0  0  0  0  0  0  0  0
  -25.9280  -38.4030   23.9090 H   0  0  0  0  0  0  0  0  0  0  0  0
  2  5  1  0
  3  1  1  0
  4  2  2  0
  4  6  1  0
  5  1  2  0
  6  3  2  0
  8  7  1  6
  8  6  1  0
  8 46  1  0
  9 15  1  0
  9  8  1  0
 10 15  1  0
 11 12  1  0
 11 10  1  0
 13 12  1  0
 13 20  1  0
 13 14  1  0
 15 14  1  0
 16  9  2  0
 17 18  2  0
 18 37  1  0
 19 18  1  0
 19 22  1  0
 20 21  1  0
 20 17  1  0
 21 19  2  0
 22 23  1  0
 23 24  2  0
 25 28  1  0
 25 24  1  0
 26 25  2  0
 27 26  1  0
 27 22  2  0
 28 29  1  0
 29 34  2  0
 29 30  1  0
 30 31  2  0
 31 32  1  0
 32 36  1  0
 33 32  2  0
 34 33  1  0
 35 34  1  0
 37 38  1  0
 38 41  1  0
 38 40  1  0
 39 37  2  0
 42 17  1  0
 42 43  1  0
 44 42  1  0
 45 46  1  0
 47  5  1  0
 47 48  2  0
 49 48  1  0
 50 61  2  0
 51 49  1  0
 51 56  1  0
 52 60  1  0
 52 62  1  0
 53 59  1  0
 53 55  1  0
 54 60  1  0
 55 56  2  0
 55 54  1  0
 57 51  2  0
 58 57  1  0
 58 53  2  0
 59 52  1  0
 60 50  1  0
 62 64  2  0
 63 62  1  0
 65 63  1  0
 66 75  2  0
 66 71  1  0
 67 63  1  0
 67 71  1  0
 68 67  1  0
 69 70  1  0
 69 68  1  0
 70 66  1  0
 71 72  2  0
 72 73  1  0
 74 73  2  0
 75 74  1  0
 76 50  1  0
 76 81  1  0
 76 77  1  0
 77 80  1  1
 77 78  1  0
 79 77  1  0
 81 84  1  0
 82 86  1  0
 82 81  1  0
 83 82  2  0
 86 85  1  0
 88 86  1  0
 88 89  1  0
 88 87  1  0
M  ISO  4   8 100   9 100  48 101  49 101
M  END
>  <TORSDO>  (57) 
F 20

>  <SCORE>  (57) 
-14.433

>  <name>  (57) 
56

>  <ligand_id>  (57) 
56

>  <original_smiles>  (57) 
[H]c1c([H])c([H])c2c(c1[H])C([H])([H])C([H])([H])C([H])([H])C2([H])N([H])C(=O)C1([H])N(C(=O)C([H])(N([H])C(=O)C([H])(N([H])C([H])([H])[H])C([H])([H])[H])C(C([H])([H])[H])(C([H])([H])[H])C([H])([H])[H])C([H])([H])c2c([H])c(OC([H])([H])C([H])([H])c3c([H])c([H])c(C(C(=O)N4C([H])([H])C([H])([H])C([H])([H])C([H])(n5nc(-c6c([H])c([H])c(Oc7c([H])c([H])c(F)c([H])c7F)c([H])c6[H])c(C(=O)N([H])[H])c5N([H])[H])C4([H])[H])(C([H])([H])[H])C([H])([H])C([H])([H])[H])c([H])c3[H])c([H])c([H])c2C1([H])[H]

>  <smiles>  (57) 
[H]c1c([H])c([H])c2c(c1[H])C([H])([H])C([H])([H])C([H])([H])C2([H])N([H])C(=O)C1([H])N(C(=O)C([H])(N([H])C(=O)C([H])(N([H])C([H])([H])[H])C([H])([H])[H])C(C([H])([H])[H])(C([H])([H])[H])C([H])([H])[H])C([H])([H])c2c([H])c(OC([H])([H])C([H])([H])c3c([H])c([H])c(C(C(=O)N4C([H])([H])C([H])([H])C([H])([H])C([H])(n5nc(-c6c([H])c([H])c(Oc7c([H])c([H])c(F)c([H])c7F)c([H])c6[H])c(C(=O)N([H])[H])c5N([H])[H])C4([H])[H])(C([H])([H])[H])C([H])([H])C([H])([H])[H])c([H])c3[H])c([H])c([H])c2C1([H])[H]

$$$$
57:0:0
     RDKit          3D

 86 94  0  0  1  0  0  0  0  0999 V2000
  -28.0480  -21.2430   19.0580 C   0  0  0  0  0  3  0  0  0  0  0  0
  -27.8010  -22.8920   18.9890 C   0  0  0  0  0  3  0  0  0  0  0  0
  -29.0580  -22.3390   20.7780 C   0  0  0  0  0  2  0  0  0  0  0  0
  -28.7450  -20.6010   20.3490 C   0  0  0  0  0  3  0  0  0  0  0  0
  -28.0460  -23.7700   20.2970 C   0  0  0  0  0  3  0  0  0  0  0  0
  -30.7410  -19.1140   21.4810 C   0  0  0  0  0  1  0  0  0  0  0  0
  -29.7420  -18.9060   20.3370 C   0  0  0  0  0  0  0  0  0  0  0  0
  -30.2630  -15.7470   20.2520 C   0  0  0  0  0  0  0  0  0  0  0  0
  -30.3790  -13.2010   19.4200 C   0  0  0  0  0  2  0  0  0  0  0  0
  -29.4940  -12.7800   18.2130 C   0  0  0  0  0  2  0  0  0  0  0  0
  -28.0770  -12.4080   18.6710 C   0  0  0  0  0  2  0  0  0  0  0  0
  -27.5550  -13.4020   19.7330 C   0  0  0  0  0  3  0  0  0  0  0  0
  -28.5830  -13.7340   20.8410 C   0  0  0  0  0  2  0  0  0  0  0  0
  -29.7410  -14.3770   20.1750 N   0  0  0  0  0  0  0  0  0  0  0  0
  -31.4970  -15.6760   20.0950 O   0  0  0  0  0  0  0  0  0  0  0  0
  -29.5130  -17.1260   20.3180 N   0  0  0  0  0  4  0  0  0  0  0  0
  -28.5250  -16.9230   20.3700 H   0  0  0  0  0  0  0  0  0  0  0  0
  -25.1910  -13.8990   20.5090 C   0  0  0  0  0  0  0  0  0  0  0  0
  -24.1430  -13.1030   20.8720 C   0  0  0  0  0  0  0  0  0  0  0  0
  -24.6300  -11.7600   20.8330 C   0  0  0  0  0  0  0  0  0  0  0  0
  -26.2450  -13.0430   20.2560 N   0  0  0  0  0  0  0  0  0  0  0  0
  -25.9240  -11.7480   20.5190 N   0  0  0  0  0  0  0  0  0  0  0  0
  -23.9180  -10.4870   21.0140 C   0  0  0  0  0  0  0  0  0  0  0  0
  -24.3380   -9.5320   21.9650 C   0  0  0  0  0  3  0  0  0  0  0  0
  -23.6210   -8.3290   22.1360 C   0  0  0  0  0  3  0  0  0  0  0  0
  -22.4680   -8.0710   21.3560 C   0  0  0  0  0  0  0  0  0  0  0  0
  -22.0670   -9.0150   20.3950 C   0  0  0  0  0  3  0  0  0  0  0  0
  -22.7860  -10.2100   20.2220 C   0  0  0  0  0  3  0  0  0  0  0  0
  -21.7240   -6.9190   21.4360 O   0  0  0  0  0  0  0  0  0  0  0  0
  -21.6290   -6.2020   22.6020 C   0  0  0  0  0  0  0  0  0  0  0  0
  -21.1020   -6.7680   23.7830 C   0  0  0  0  0  3  0  0  0  0  0  0
  -20.9570   -5.9760   24.9400 C   0  0  0  0  0  3  0  0  0  0  0  0
  -21.3290   -4.6190   24.9160 C   0  0  0  0  0  0  0  0  0  0  0  0
  -21.8500   -4.0520   23.7390 C   0  0  0  0  0  3  0  0  0  0  0  0
  -21.9950   -4.8410   22.5850 C   0  0  0  0  0  0  0  0  0  0  0  0
  -22.4770   -4.2840   21.4480 F   0  0  0  0  0  0  0  0  0  0  0  0
  -21.1840   -3.8560   26.0240 F   0  0  0  0  0  0  0  0  0  0  0  0
  -22.7390  -13.5610   21.1380 C   0  0  0  0  0  0  0  0  0  0  0  0
  -22.0210  -12.8600   22.0080 N   0  0  0  0  0  0  0  0  0  0  0  0
  -22.2890  -14.5780   20.6100 O   0  0  0  0  0  0  0  0  0  0  0  0
  -22.3990  -12.0390   22.4560 H   0  0  0  0  0  0  0  0  0  0  0  0
  -21.0780  -13.1510   22.2300 H   0  0  0  0  0  0  0  0  0  0  0  0
  -25.3310  -15.2730   20.3370 N   0  0  0  0  0  0  0  0  0  0  0  0
  -24.5500  -15.9110   20.4460 H   0  0  0  0  0  0  0  0  0  0  0  0
  -26.1630  -15.7230   19.9800 H   0  0  0  0  0  0  0  0  0  0  0  0
  -28.1500  -25.5490   20.2990 O   0  0  0  0  0  0  0  0  0  0  0  0
  -24.6550  -31.8800   23.2070 C   0  0  0  0  0  0  0  0  0  0  0  0
  -27.1640  -26.7580   20.2520 C   0  0  0  0  0  0  0  0  0  0  0  0
  -23.4610  -30.4740   21.5830 C   0  0  0  0  0  3  0  0  0  0  0  0
  -24.9000  -28.8060   20.1820 C   0  0  0  0  0  0  0  0  0  0  0  0
  -26.0410  -30.6040   21.4560 C   0  0  0  0  0  2  0  0  0  0  0  0
  -26.0990  -29.1630   20.8100 C   0  0  0  0  0  0  0  0  0  0  0  0
  -27.2140  -28.1690   20.8080 C   0  0  0  0  0  3  0  0  0  0  0  0
  -25.9280  -26.6130   19.5700 C   0  0  0  0  0  3  0  0  0  0  0  0
  -24.8540  -27.5570   19.5380 C   0  0  0  0  0  3  0  0  0  0  0  0
  -23.6970  -29.7630   20.2180 C   0  0  0  0  0  2  0  0  0  0  0  0
  -24.7440  -31.0200   22.1350 N   0  0  0  0  0  0  0  0  0  0  0  0
  -23.5640  -32.1870   23.7170 O   0  0  0  0  0  0  0  0  0  0  0  0
  -22.7410  -29.5080   22.5630 C   0  0  0  0  0  0  0  0  0  0  0  0
  -21.4090  -29.3540   22.4380 N   0  0  0  0  0  0  0  0  0  0  0  0
  -23.3960  -28.8930   23.4100 O   0  0  0  0  0  0  0  0  0  0  0  0
  -20.9310  -29.8990   21.7340 H   0  0  0  0  0  0  0  0  0  0  0  0
  -18.0210  -28.1450   22.9580 C   0  0  0  0  0  0  0  0  0  0  0  0
  -20.5810  -28.4240   23.2180 C   0  0  0  0  0  3  0  0  0  0  0  0
  -20.6840  -26.9850   22.6600 C   0  0  0  0  0  2  0  0  0  0  0  0
  -19.5850  -26.6500   21.6470 C   0  0  0  0  0  2  0  0  0  0  0  0
  -18.2020  -26.7940   22.2890 C   0  0  0  0  0  2  0  0  0  0  0  0
  -19.1370  -28.9190   23.3800 C   0  0  0  0  0  0  0  0  0  0  0  0
  -18.9080  -30.1800   23.9700 C   0  0  0  0  0  3  0  0  0  0  0  0
  -17.6000  -30.6710   24.1410 C   0  0  0  0  0  3  0  0  0  0  0  0
  -16.5000  -29.8970   23.7310 C   0  0  0  0  0  3  0  0  0  0  0  0
  -16.7110  -28.6360   23.1470 C   0  0  0  0  0  3  0  0  0  0  0  0
  -25.9200  -32.5320   23.8430 C   0  0  0  0  0  3  0  0  0  0  0  0
  -25.6010  -33.9350   24.1740 N   0  0  0  0  0  0  0  0  0  0  0  0
  -25.9190  -34.9990   23.4220 C   0  0  0  0  0  0  0  0  0  0  0  0
  -26.5700  -34.9010   22.3800 O   0  0  0  0  0  0  0  0  0  0  0  0
  -25.0180  -34.0830   24.9850 H   0  0  0  0  0  0  0  0  0  0  0  0
  -24.1800  -36.7990   23.1300 C   0  0  0  0  0  1  0  0  0  0  0  0
  -25.4460  -36.3880   23.9000 C   0  0  0  0  0  3  0  0  0  0  0  0
  -27.5980  -37.2860   24.6760 C   0  0  0  0  0  1  0  0  0  0  0  0
  -26.4730  -37.4450   23.7580 N   0  0  0  0  0  0  0  0  0  0  0  0
  -26.0670  -38.3640   23.9110 H   0  0  0  0  0  0  0  0  0  0  0  0
  -26.4170  -31.7800   25.1420 C   0  0  1  0  0  0  0  0  0  0  0  0
  -25.3120  -31.5710   26.2040 C   0  0  0  0  0  1  0  0  0  0  0  0
  -26.9930  -30.3890   24.7910 C   0  0  0  0  0  1  0  0  0  0  0  0
  -27.5690  -32.5750   25.8000 C   0  0  0  0  0  1  0  0  0  0  0  0
  1  4  1  0
  2  1  2  0
  2  5  1  0
  4  7  1  0
  4  3  1  0
  5 46  1  0
  5  3  1  0
  7  6  1  0
  8 16  1  0
  9 14  1  0
 10 11  1  0
 10  9  1  0
 12 11  1  0
 12 21  1  0
 12 13  1  0
 14  8  1  0
 14 13  1  0
 15  8  2  0
 16  7  2  0
 16 17  1  0
 18 19  2  0
 19 38  1  0
 20 19  1  0
 20 23  1  0
 21 18  1  0
 21 22  1  0
 22 20  2  0
 23 24  1  0
 24 25  2  0
 26 29  1  0
 26 25  1  0
 27 26  2  0
 28 27  1  0
 28 23  2  0
 29 30  1  0
 30 31  1  0
 31 32  2  0
 33 32  1  0
 33 37  1  0
 34 33  2  0
 35 30  2  0
 35 34  1  0
 36 35  1  0
 38 39  1  0
 39 42  1  0
 39 41  1  0
 40 38  2  0
 43 44  1  0
 43 18  1  0
 45 43  1  0
 47 58  2  0
 48 46  1  0
 48 53  1  0
 49 57  1  0
 49 59  1  0
 50 56  1  0
 50 52  1  0
 51 57  1  0
 52 51  1  0
 53 52  2  0
 54 48  2  0
 55 54  1  0
 55 50  2  0
 56 49  1  0
 57 47  1  0
 59 61  2  0
 60 59  1  0
 62 60  1  0
 63 72  2  0
 63 68  1  0
 64 60  1  0
 64 68  1  0
 65 64  1  0
 66 67  1  0
 66 65  1  0
 67 63  1  0
 68 69  2  0
 69 70  1  0
 71 70  2  0
 72 71  1  0
 73 47  1  0
 73 74  1  0
 73 83  1  0
 74 77  1  0
 75 79  1  0
 75 74  1  0
 76 75  2  0
 79 78  1  0
 81 79  1  0
 81 82  1  0
 81 80  1  0
 83 86  1  1
 83 84  1  0
 85 83  1  0
M  ISO  4   5 101   8 100  16 100  46 101
M  END
>  <TORSDO>  (58) 
F 17

>  <SCORE>  (58) 
-16.525

>  <name>  (58) 
57

>  <ligand_id>  (58) 
57

>  <original_smiles>  (58) 
[H]c1c([H])c([H])c2c(c1[H])C([H])([H])C([H])([H])C([H])([H])C2([H])N([H])C(=O)C1([H])N(C(=O)C([H])(N([H])C(=O)C([H])(N([H])C([H])([H])[H])C([H])([H])[H])C(C([H])([H])[H])(C([H])([H])[H])C([H])([H])[H])C([H])([H])c2c([H])c(OC3([H])C([H])([H])C([H])([H])C([H])(C([H])(N([H])C(=O)N4C([H])([H])C([H])([H])C([H])([H])C([H])(n5nc(-c6c([H])c([H])c(Oc7c([H])c([H])c(F)c([H])c7F)c([H])c6[H])c(C(=O)N([H])[H])c5N([H])[H])C4([H])[H])C([H])([H])[H])C3([H])[H])c([H])c([H])c2C1([H])[H]

>  <smiles>  (58) 
[H]c1c([H])c([H])c2c(c1[H])C([H])([H])C([H])([H])C([H])([H])C2([H])N([H])C(=O)C1([H])N(C(=O)C([H])(N([H])C(=O)C([H])(N([H])C([H])([H])[H])C([H])([H])[H])C(C([H])([H])[H])(C([H])([H])[H])C([H])([H])[H])C([H])([H])c2c([H])c(OC3([H])C([H])([H])C([H])([H])C([H])(C([H])(N([H])C(=O)N4C([H])([H])C([H])([H])C([H])([H])C([H])(n5nc(-c6c([H])c([H])c(Oc7c([H])c([H])c(F)c([H])c7F)c([H])c6[H])c(C(=O)N([H])[H])c5N([H])[H])C4([H])[H])C([H])([H])[H])C3([H])[H])c([H])c([H])c2C1([H])[H]

$$$$
58:0:0
     RDKit          3D

 89 97  0  0  1  0  0  0  0  0999 V2000
  -27.7900  -20.4700   20.3940 C   0  0  0  0  0  2  0  0  0  0  0  0
  -28.5780  -20.4330   21.7330 C   0  0  0  0  0  2  0  0  0  0  0  0
  -30.5320  -19.1370   20.8490 C   0  0  0  0  0  2  0  0  0  0  0  0
  -28.7480  -20.4810   19.1830 C   0  0  0  0  0  3  0  0  0  0  0  0
  -29.7720  -18.8620   19.5280 C   0  0  0  0  0  3  0  0  0  0  0  0
  -30.0540  -20.3580   21.5430 N   0  0  0  0  0  4  0  0  0  0  0  0
  -30.5110  -20.4040   22.4410 H   0  0  0  0  0  0  0  0  0  0  0  0
  -30.3430  -21.1610   21.0100 H   0  0  0  0  0  0  0  0  0  0  0  0
  -30.6220  -15.7880   19.4600 C   0  0  0  0  0  0  0  0  0  0  0  0
  -30.6670  -13.1900   18.8880 C   0  0  0  0  0  2  0  0  0  0  0  0
  -29.7100  -12.6900   17.7720 C   0  0  0  0  0  2  0  0  0  0  0  0
  -28.3080  -12.4100   18.3400 C   0  0  0  0  0  2  0  0  0  0  0  0
  -27.8580  -13.5310   19.3050 C   0  0  0  0  0  3  0  0  0  0  0  0
  -28.9460  -13.9240   20.3270 C   0  0  0  0  0  2  0  0  0  0  0  0
  -30.0820  -14.4410   19.5340 N   0  0  0  0  0  0  0  0  0  0  0  0
  -31.8590  -15.7290   19.3430 O   0  0  0  0  0  0  0  0  0  0  0  0
  -29.8330  -17.1070   19.3210 N   0  0  0  0  0  0  0  0  0  0  0  0
  -28.8760  -16.8040   19.2120 H   0  0  0  0  0  0  0  0  0  0  0  0
  -25.6150  -14.1990   20.3010 C   0  0  0  0  0  0  0  0  0  0  0  0
  -24.5290  -13.4810   20.7090 C   0  0  0  0  0  0  0  0  0  0  0  0
  -24.8840  -12.1050   20.5570 C   0  0  0  0  0  0  0  0  0  0  0  0
  -26.5640  -13.2690   19.9180 N   0  0  0  0  0  0  0  0  0  0  0  0
  -26.1420  -11.9960   20.1400 N   0  0  0  0  0  0  0  0  0  0  0  0
  -24.0770  -10.8900   20.7300 C   0  0  0  0  0  0  0  0  0  0  0  0
  -24.4520   -9.8730   21.6340 C   0  0  0  0  0  3  0  0  0  0  0  0
  -23.6440   -8.7260   21.7990 C   0  0  0  0  0  3  0  0  0  0  0  0
  -22.4430   -8.5910   21.0610 C   0  0  0  0  0  0  0  0  0  0  0  0
  -22.0850   -9.5960   20.1460 C   0  0  0  0  0  3  0  0  0  0  0  0
  -22.8950  -10.7350   19.9790 C   0  0  0  0  0  3  0  0  0  0  0  0
  -21.6100   -7.5000   21.1370 O   0  0  0  0  0  0  0  0  0  0  0  0
  -21.4710   -6.7790   22.2950 C   0  0  0  0  0  0  0  0  0  0  0  0
  -21.0290   -7.3750   23.4950 C   0  0  0  0  0  3  0  0  0  0  0  0
  -20.8350   -6.5830   24.6450 C   0  0  0  0  0  3  0  0  0  0  0  0
  -21.0750   -5.1970   24.5940 C   0  0  0  0  0  0  0  0  0  0  0  0
  -21.5120   -4.6020   23.3980 C   0  0  0  0  0  3  0  0  0  0  0  0
  -21.7070   -5.3900   22.2500 C   0  0  0  0  0  0  0  0  0  0  0  0
  -22.1080   -4.8070   21.0950 F   0  0  0  0  0  0  0  0  0  0  0  0
  -20.8820   -4.4340   25.6950 F   0  0  0  0  0  0  0  0  0  0  0  0
  -23.1990  -14.0430   21.1140 C   0  0  0  0  0  0  0  0  0  0  0  0
  -22.4870  -13.3550   21.9980 N   0  0  0  0  0  0  0  0  0  0  0  0
  -22.8050  -15.1250   20.6790 O   0  0  0  0  0  0  0  0  0  0  0  0
  -22.8200  -12.4790   22.3700 H   0  0  0  0  0  0  0  0  0  0  0  0
  -21.5970  -13.7110   22.3130 H   0  0  0  0  0  0  0  0  0  0  0  0
  -25.8670  -15.5640   20.1880 N   0  0  0  0  0  0  0  0  0  0  0  0
  -25.1470  -16.2520   20.3850 H   0  0  0  0  0  0  0  0  0  0  0  0
  -26.6850  -15.9630   19.7500 H   0  0  0  0  0  0  0  0  0  0  0  0
  -28.9490  -22.3880   19.0680 C   0  0  0  0  0  3  0  0  0  0  0  0
  -27.8670  -23.9760   19.0580 C   0  0  0  0  0  3  0  0  0  0  0  0
  -27.9850  -25.7050   19.1590 O   0  0  0  0  0  0  0  0  0  0  0  0
  -24.4420  -31.5010   22.8260 C   0  0  0  0  0  0  0  0  0  0  0  0
  -26.9430  -26.8330   19.2650 C   0  0  0  0  0  0  0  0  0  0  0  0
  -23.1820  -30.1530   21.2010 C   0  0  0  0  0  3  0  0  0  0  0  0
  -24.5760  -28.6950   19.5540 C   0  0  0  0  0  0  0  0  0  0  0  0
  -25.7250  -30.4620   20.8630 C   0  0  0  0  0  2  0  0  0  0  0  0
  -25.8020  -29.0880   20.1050 C   0  0  0  0  0  0  0  0  0  0  0  0
  -26.9700  -28.1860   19.9290 C   0  0  0  0  0  3  0  0  0  0  0  0
  -25.6680  -26.6350   18.6830 C   0  0  0  0  0  3  0  0  0  0  0  0
  -24.5400  -27.4970   18.8210 C   0  0  0  0  0  3  0  0  0  0  0  0
  -23.3300  -29.5670   19.7680 C   0  0  0  0  0  2  0  0  0  0  0  0
  -24.4770  -30.7340   21.6840 N   0  0  0  0  0  0  0  0  0  0  0  0
  -23.3850  -31.7040   23.4490 O   0  0  0  0  0  0  0  0  0  0  0  0
  -22.6070  -29.0730   22.1550 C   0  0  0  0  0  0  0  0  0  0  0  0
  -21.2840  -28.8260   22.1030 N   0  0  0  0  0  0  0  0  0  0  0  0
  -23.3610  -28.4580   22.9130 O   0  0  0  0  0  0  0  0  0  0  0  0
  -20.7220  -29.3770   21.4690 H   0  0  0  0  0  0  0  0  0  0  0  0
  -18.0470  -27.2820   22.6860 C   0  0  0  0  0  0  0  0  0  0  0  0
  -20.5780  -27.7900   22.8690 C   0  0  0  0  0  3  0  0  0  0  0  0
  -20.7940  -26.3910   22.2440 C   0  0  0  0  0  2  0  0  0  0  0  0
  -19.6910  -25.9950   21.2570 C   0  0  0  0  0  2  0  0  0  0  0  0
  -18.3270  -25.9820   21.9510 C   0  0  0  0  0  2  0  0  0  0  0  0
  -19.1020  -28.1390   23.1020 C   0  0  0  0  0  0  0  0  0  0  0  0
  -18.7810  -29.3490   23.7560 C   0  0  0  0  0  3  0  0  0  0  0  0
  -17.4410  -29.7080   23.9920 C   0  0  0  0  0  3  0  0  0  0  0  0
  -16.4020  -28.8520   23.5890 C   0  0  0  0  0  3  0  0  0  0  0  0
  -16.7050  -27.6400   22.9420 C   0  0  0  0  0  3  0  0  0  0  0  0
  -25.7250  -32.1740   23.4000 C   0  0  0  0  0  3  0  0  0  0  0  0
  -25.3660  -33.5310   23.8560 N   0  0  0  0  0  0  0  0  0  0  0  0
  -25.6220  -34.6650   23.1870 C   0  0  0  0  0  0  0  0  0  0  0  0
  -26.2430  -34.6780   22.1210 O   0  0  0  0  0  0  0  0  0  0  0  0
  -24.8030  -33.5900   24.6920 H   0  0  0  0  0  0  0  0  0  0  0  0
  -23.8150  -36.4190   23.0870 C   0  0  0  0  0  1  0  0  0  0  0  0
  -25.1140  -35.9910   23.7900 C   0  0  0  0  0  3  0  0  0  0  0  0
  -27.2550  -36.8970   24.5850 C   0  0  0  0  0  1  0  0  0  0  0  0
  -26.1000  -37.0930   23.7130 N   0  0  0  0  0  0  0  0  0  0  0  0
  -25.6680  -37.9810   23.9540 H   0  0  0  0  0  0  0  0  0  0  0  0
  -26.3660  -31.3620   24.5920 C   0  0  1  0  0  0  0  0  0  0  0  0
  -25.3690  -31.0250   25.7280 C   0  0  0  0  0  1  0  0  0  0  0  0
  -26.9690  -30.0300   24.0930 C   0  0  0  0  0  1  0  0  0  0  0  0
  -27.5340  -32.1670   25.2080 C   0  0  0  0  0  1  0  0  0  0  0  0
  1  2  1  0
  3  6  1  0
  4 47  1  0
  4  5  1  0
  4  1  1  0
  5 17  1  0
  5  3  1  0
  6  2  1  0
  6  7  1  0
  8  6  1  0
  9 15  1  0
 10 15  1  0
 11 12  1  0
 11 10  1  0
 13 12  1  0
 13 22  1  0
 13 14  1  0
 15 14  1  0
 16  9  2  0
 17  9  1  0
 18 17  1  0
 19 20  2  0
 20 39  1  0
 21 20  1  0
 21 24  1  0
 22 23  1  0
 22 19  1  0
 23 21  2  0
 24 25  1  0
 25 26  2  0
 27 30  1  0
 27 26  1  0
 28 27  2  0
 29 28  1  0
 29 24  2  0
 30 31  1  0
 31 32  1  0
 32 33  2  0
 34 33  1  0
 34 38  1  0
 35 34  2  0
 36 31  2  0
 36 35  1  0
 37 36  1  0
 39 40  1  0
 40 43  1  0
 40 42  1  0
 41 39  2  0
 44 19  1  0
 44 45  1  0
 46 44  1  0
 48 47  2  0
 48 49  1  0
 49 51  1  0
 50 61  2  0
 51 56  1  0
 52 60  1  0
 52 62  1  0
 53 59  1  0
 53 55  1  0
 54 60  1  0
 55 54  1  0
 56 55  2  0
 57 58  1  0
 57 51  2  0
 58 53  2  0
 59 52  1  0
 60 50  1  0
 62 64  2  0
 63 62  1  0
 65 63  1  0
 66 75  2  0
 66 71  1  0
 67 63  1  0
 67 71  1  0
 68 67  1  0
 69 70  1  0
 69 68  1  0
 70 66  1  0
 71 72  2  0
 72 73  1  0
 74 73  2  0
 75 74  1  0
 76 50  1  0
 76 77  1  0
 76 86  1  0
 77 80  1  0
 78 82  1  0
 78 77  1  0
 79 78  2  0
 82 81  1  0
 84 82  1  0
 84 85  1  0
 84 83  1  0
 86 89  1  1
 86 87  1  0
 88 86  1  0
M  ISO  4   9 100  17 100  48 101  49 101
M  END
>  <TORSDO>  (59) 
F 18

>  <SCORE>  (59) 
-13.667

>  <name>  (59) 
58

>  <ligand_id>  (59) 
58

>  <original_smiles>  (59) 
[H]c1c([H])c([H])c2c(c1[H])C([H])([H])C([H])([H])C([H])([H])C2([H])N([H])C(=O)C1([H])N(C(=O)C([H])(N([H])C(=O)C([H])(N([H])C([H])([H])[H])C([H])([H])[H])C(C([H])([H])[H])(C([H])([H])[H])C([H])([H])[H])C([H])([H])c2c([H])c(OC([H])([H])C([H])([H])C3([H])C([H])([H])C([H])([H])[N+]([H])([H])C([H])([H])C3([H])N([H])C(=O)N3C([H])([H])C([H])([H])C([H])([H])C([H])(n4nc(-c5c([H])c([H])c(Oc6c([H])c([H])c(F)c([H])c6F)c([H])c5[H])c(C(=O)N([H])[H])c4N([H])[H])C3([H])[H])c([H])c([H])c2C1([H])[H]

>  <smiles>  (59) 
[H]c1c([H])c([H])c2c(c1[H])C([H])([H])C([H])([H])C([H])([H])C2([H])N([H])C(=O)C1([H])N(C(=O)C([H])(N([H])C(=O)C([H])(N([H])C([H])([H])[H])C([H])([H])[H])C(C([H])([H])[H])(C([H])([H])[H])C([H])([H])[H])C([H])([H])c2c([H])c(OC([H])([H])C([H])([H])C3([H])C([H])([H])C([H])([H])[N+]([H])([H])C([H])([H])C3([H])N([H])C(=O)N3C([H])([H])C([H])([H])C([H])([H])C([H])(n4nc(-c5c([H])c([H])c(Oc6c([H])c([H])c(F)c([H])c6F)c([H])c5[H])c(C(=O)N([H])[H])c4N([H])[H])C3([H])[H])c([H])c([H])c2C1([H])[H]

$$$$
59:0:0
     RDKit          3D

 88 96  0  0  1  0  0  0  0  0999 V2000
  -30.4410  -21.5280   19.7020 C   0  0  0  0  0  2  0  0  0  0  0  0
  -30.2330  -23.0700   19.9710 C   0  0  0  0  0  2  0  0  0  0  0  0
  -28.2820  -21.8880   20.6370 C   0  0  0  0  0  2  0  0  0  0  0  0
  -29.4540  -20.7520   20.6090 C   0  0  0  0  0  3  0  0  0  0  0  0
  -28.7120  -23.3470   20.0450 C   0  0  0  0  0  3  0  0  0  0  0  0
  -29.1520  -19.1540   20.3080 C   0  0  0  0  0  0  0  0  0  0  0  0
  -28.0030  -18.8760   19.9570 O   0  0  0  0  0  0  0  0  0  0  0  0
  -31.2930  -18.1740   21.4690 C   0  0  0  0  0  1  0  0  0  0  0  0
  -30.1940  -17.8800   20.4310 C   0  0  0  0  0  3  0  0  0  0  0  0
  -29.6470  -16.3020   20.5950 C   0  0  0  0  0  2  0  0  0  0  0  0
  -30.4940  -14.9160   20.3160 C   0  0  0  0  0  0  0  0  0  0  0  0
  -30.3620  -12.5870   19.3370 C   0  0  0  0  0  2  0  0  0  0  0  0
  -29.4110  -12.6100   18.1160 C   0  0  0  0  0  2  0  0  0  0  0  0
  -27.9470  -12.4090   18.5550 C   0  0  0  0  0  2  0  0  0  0  0  0
  -27.5640  -13.3050   19.7600 C   0  0  0  0  0  3  0  0  0  0  0  0
  -28.6330  -13.2640   20.8740 C   0  0  0  0  0  2  0  0  0  0  0  0
  -29.9180  -13.6520   20.2770 N   0  0  0  0  0  0  0  0  0  0  0  0
  -31.6810  -15.0030   19.9820 O   0  0  0  0  0  0  0  0  0  0  0  0
  -25.1810  -13.8810   20.5070 C   0  0  0  0  0  0  0  0  0  0  0  0
  -24.1200  -13.1030   20.8820 C   0  0  0  0  0  0  0  0  0  0  0  0
  -24.5890  -11.7540   20.8540 C   0  0  0  0  0  0  0  0  0  0  0  0
  -26.2270  -13.0060   20.2650 N   0  0  0  0  0  0  0  0  0  0  0  0
  -25.8790  -11.7210   20.5380 N   0  0  0  0  0  0  0  0  0  0  0  0
  -23.8680  -10.4890   21.0500 C   0  0  0  0  0  0  0  0  0  0  0  0
  -24.3160   -9.5180   21.9710 C   0  0  0  0  0  3  0  0  0  0  0  0
  -23.5930   -8.3200   22.1570 C   0  0  0  0  0  3  0  0  0  0  0  0
  -22.4070   -8.0840   21.4210 C   0  0  0  0  0  0  0  0  0  0  0  0
  -21.9780   -9.0460   20.4890 C   0  0  0  0  0  3  0  0  0  0  0  0
  -22.7000  -10.2350   20.3020 C   0  0  0  0  0  3  0  0  0  0  0  0
  -21.6550   -6.9380   21.5160 O   0  0  0  0  0  0  0  0  0  0  0  0
  -21.6390   -6.1800   22.6600 C   0  0  0  0  0  0  0  0  0  0  0  0
  -21.2580   -6.7210   23.9080 C   0  0  0  0  0  3  0  0  0  0  0  0
  -21.1890   -5.8900   25.0430 C   0  0  0  0  0  3  0  0  0  0  0  0
  -21.4920   -4.5190   24.9330 C   0  0  0  0  0  0  0  0  0  0  0  0
  -21.8660   -3.9780   23.6910 C   0  0  0  0  0  3  0  0  0  0  0  0
  -21.9360   -4.8060   22.5570 C   0  0  0  0  0  0  0  0  0  0  0  0
  -22.2770   -4.2760   21.3570 F   0  0  0  0  0  0  0  0  0  0  0  0
  -21.4180   -3.7190   26.0220 F   0  0  0  0  0  0  0  0  0  0  0  0
  -22.7210  -13.5750   21.1560 C   0  0  0  0  0  0  0  0  0  0  0  0
  -21.9970  -12.8810   22.0270 N   0  0  0  0  0  0  0  0  0  0  0  0
  -22.2780  -14.5970   20.6320 O   0  0  0  0  0  0  0  0  0  0  0  0
  -22.3670  -12.0540   22.4720 H   0  0  0  0  0  0  0  0  0  0  0  0
  -21.0620  -13.1830   22.2540 H   0  0  0  0  0  0  0  0  0  0  0  0
  -25.3390  -15.2520   20.3290 N   0  0  0  0  0  0  0  0  0  0  0  0
  -24.5730  -15.9060   20.4520 H   0  0  0  0  0  0  0  0  0  0  0  0
  -26.1900  -15.6990   20.0130 H   0  0  0  0  0  0  0  0  0  0  0  0
  -28.1230  -24.7860   20.6840 C   0  0  0  0  0  2  0  0  0  0  0  0
  -28.3260  -26.2500   20.2320 O   0  0  0  0  0  0  0  0  0  0  0  0
  -24.6260  -31.8850   23.2190 C   0  0  0  0  0  0  0  0  0  0  0  0
  -27.2450  -27.1950   20.2210 C   0  0  0  0  0  0  0  0  0  0  0  0
  -23.4370  -30.4750   21.5790 C   0  0  0  0  0  3  0  0  0  0  0  0
  -24.9000  -28.9000   20.1710 C   0  0  0  0  0  0  0  0  0  0  0  0
  -25.9880  -30.7580   21.4230 C   0  0  0  0  0  2  0  0  0  0  0  0
  -26.0730  -29.3640   20.7840 C   0  0  0  0  0  0  0  0  0  0  0  0
  -27.2470  -28.5260   20.7910 C   0  0  0  0  0  3  0  0  0  0  0  0
  -26.0480  -26.8220   19.5730 C   0  0  0  0  0  3  0  0  0  0  0  0
  -24.8990  -27.6410   19.5500 C   0  0  0  0  0  3  0  0  0  0  0  0
  -23.6660  -29.7900   20.2060 C   0  0  0  0  0  2  0  0  0  0  0  0
  -24.7030  -31.0620   22.1290 N   0  0  0  0  0  0  0  0  0  0  0  0
  -23.5370  -32.1680   23.7420 O   0  0  0  0  0  0  0  0  0  0  0  0
  -22.7590  -29.4700   22.5450 C   0  0  0  0  0  0  0  0  0  0  0  0
  -21.4330  -29.2950   22.4140 N   0  0  0  0  0  0  0  0  0  0  0  0
  -23.4310  -28.8520   23.3760 O   0  0  0  0  0  0  0  0  0  0  0  0
  -20.9500  -29.8490   21.7220 H   0  0  0  0  0  0  0  0  0  0  0  0
  -18.0560  -28.0790   22.8990 C   0  0  0  0  0  0  0  0  0  0  0  0
  -20.6100  -28.3600   23.1880 C   0  0  0  0  0  3  0  0  0  0  0  0
  -20.7270  -26.9230   22.6270 C   0  0  0  0  0  2  0  0  0  0  0  0
  -19.6350  -26.5840   21.6060 C   0  0  0  0  0  2  0  0  0  0  0  0
  -18.2460  -26.7250   22.2360 C   0  0  0  0  0  2  0  0  0  0  0  0
  -19.1650  -28.8530   23.3310 C   0  0  0  0  0  0  0  0  0  0  0  0
  -18.9310  -30.1180   23.9130 C   0  0  0  0  0  3  0  0  0  0  0  0
  -17.6210  -30.6100   24.0660 C   0  0  0  0  0  3  0  0  0  0  0  0
  -16.5260  -29.8330   23.6480 C   0  0  0  0  0  3  0  0  0  0  0  0
  -16.7450  -28.5700   23.0710 C   0  0  0  0  0  3  0  0  0  0  0  0
  -25.8990  -32.5260   23.8480 C   0  0  0  0  0  3  0  0  0  0  0  0
  -26.4130  -31.7580   25.1290 C   0  0  1  0  0  0  0  0  0  0  0  0
  -25.3150  -31.5160   26.1930 C   0  0  0  0  0  1  0  0  0  0  0  0
  -27.0010  -30.3810   24.7430 C   0  0  0  0  0  1  0  0  0  0  0  0
  -27.5630  -32.5550   25.7910 C   0  0  0  0  0  1  0  0  0  0  0  0
  -25.5790  -33.9210   24.1820 N   0  0  0  0  0  0  0  0  0  0  0  0
  -25.9080  -34.9810   23.4290 C   0  0  0  0  0  0  0  0  0  0  0  0
  -26.5770  -34.8850   22.3980 O   0  0  0  0  0  0  0  0  0  0  0  0
  -24.9810  -34.0700   24.9810 H   0  0  0  0  0  0  0  0  0  0  0  0
  -24.1660  -36.7690   23.0950 C   0  0  0  0  0  1  0  0  0  0  0  0
  -25.4160  -36.3670   23.8950 C   0  0  0  0  0  3  0  0  0  0  0  0
  -27.5560  -37.2590   24.7080 C   0  0  0  0  0  1  0  0  0  0  0  0
  -26.4430  -37.4270   23.7770 N   0  0  0  0  0  0  0  0  0  0  0  0
  -26.0320  -38.3430   23.9380 H   0  0  0  0  0  0  0  0  0  0  0  0
  1  2  1  0
  1  4  1  0
  2  5  1  0
  4  6  1  0
  4  3  1  0
  5  3  1  0
  5 47  1  0
  6  9  1  0
  7  6  2  0
  9 10  1  0
  9  8  1  0
 11 10  1  0
 12 17  1  0
 13 14  1  0
 13 12  1  0
 15 14  1  0
 15 22  1  0
 15 16  1  0
 17 11  1  0
 17 16  1  0
 18 11  2  0
 19 20  2  0
 20 39  1  0
 21 20  1  0
 21 24  1  0
 22 19  1  0
 22 23  1  0
 23 21  2  0
 24 25  1  0
 25 26  2  0
 27 30  1  0
 27 26  1  0
 28 27  2  0
 29 28  1  0
 29 24  2  0
 30 31  1  0
 31 32  1  0
 32 33  2  0
 34 33  1  0
 34 38  1  0
 35 34  2  0
 36 31  2  0
 36 35  1  0
 37 36  1  0
 39 40  1  0
 40 43  1  0
 40 42  1  0
 41 39  2  0
 44 45  1  0
 44 19  1  0
 46 44  1  0
 48 47  1  0
 49 60  2  0
 50 48  1  0
 50 55  1  0
 51 59  1  0
 51 61  1  0
 52 58  1  0
 52 54  1  0
 53 59  1  0
 54 55  2  0
 54 53  1  0
 56 50  2  0
 57 56  1  0
 57 52  2  0
 58 51  1  0
 59 49  1  0
 61 63  2  0
 62 61  1  0
 64 62  1  0
 65 74  2  0
 65 70  1  0
 66 62  1  0
 66 70  1  0
 67 66  1  0
 68 69  1  0
 68 67  1  0
 69 65  1  0
 70 71  2  0
 71 72  1  0
 73 72  2  0
 74 73  1  0
 75 49  1  0
 75 80  1  0
 75 76  1  0
 76 79  1  1
 76 77  1  0
 78 76  1  0
 80 83  1  0
 81 85  1  0
 81 80  1  0
 82 81  2  0
 85 84  1  0
 87 85  1  0
 87 88  1  0
 87 86  1  0
M  ISO  4  10 100  11 100  47 101  48 101
M  END
>  <TORSDO>  (60) 
F 20

>  <SCORE>  (60) 
-13.999

>  <name>  (60) 
59

>  <ligand_id>  (60) 
59

>  <original_smiles>  (60) 
[H]c1c([H])c([H])c2c(c1[H])C([H])([H])C([H])([H])C([H])([H])C2([H])N([H])C(=O)C1([H])N(C(=O)C([H])(N([H])C(=O)C([H])(N([H])C([H])([H])[H])C([H])([H])[H])C(C([H])([H])[H])(C([H])([H])[H])C([H])([H])[H])C([H])([H])c2c([H])c(OC([H])([H])C3([H])C([H])([H])C([H])([H])C([H])(C(=O)C([H])(C([H])([H])[H])C([H])([H])C(=O)N4C([H])([H])C([H])([H])C([H])([H])C([H])(n5nc(-c6c([H])c([H])c(Oc7c([H])c([H])c(F)c([H])c7F)c([H])c6[H])c(C(=O)N([H])[H])c5N([H])[H])C4([H])[H])C3([H])[H])c([H])c([H])c2C1([H])[H]

>  <smiles>  (60) 
[H]c1c([H])c([H])c2c(c1[H])C([H])([H])C([H])([H])C([H])([H])C2([H])N([H])C(=O)C1([H])N(C(=O)C([H])(N([H])C(=O)C([H])(N([H])C([H])([H])[H])C([H])([H])[H])C(C([H])([H])[H])(C([H])([H])[H])C([H])([H])[H])C([H])([H])c2c([H])c(OC([H])([H])C3([H])C([H])([H])C([H])([H])C([H])(C(=O)C([H])(C([H])([H])[H])C([H])([H])C(=O)N4C([H])([H])C([H])([H])C([H])([H])C([H])(n5nc(-c6c([H])c([H])c(Oc7c([H])c([H])c(F)c([H])c7F)c([H])c6[H])c(C(=O)N([H])[H])c5N([H])[H])C4([H])[H])C3([H])[H])c([H])c([H])c2C1([H])[H]

$$$$
60:0:0
     RDKit          3D

 91 99  0  0  1  0  0  0  0  0999 V2000
  -29.7820  -19.0370   21.8220 C   0  0  0  0  0  2  0  0  0  0  0  0
  -29.7650  -18.4080   20.4160 C   0  0  0  0  0  3  0  0  0  0  0  0
  -30.1110  -19.6150   19.5230 C   0  0  0  0  0  3  0  0  0  0  0  0
  -29.3500  -20.7660   20.2110 C   0  0  0  0  0  3  0  0  0  0  0  0
  -29.7390  -19.4250   18.0420 C   0  0  0  0  0  1  0  0  0  0  0  0
  -29.4360  -20.4660   21.6540 N   0  0  0  0  0  4  0  0  0  0  0  0
  -30.1550  -21.0260   22.0840 H   0  0  0  0  0  0  0  0  0  0  0  0
  -28.5600  -20.6730   22.1090 H   0  0  0  0  0  0  0  0  0  0  0  0
  -29.8430  -22.1880   19.8300 C   0  0  0  0  0  2  0  0  0  0  0  0
  -28.9560  -23.3230   20.3270 C   0  0  0  0  0  3  0  0  0  0  0  0
  -29.3830  -24.5670   20.6230 C   0  0  0  0  0  3  0  0  0  0  0  0
  -28.4840  -25.6980   21.1050 C   0  0  0  0  0  2  0  0  0  0  0  0
  -28.5560  -26.8520   20.2560 O   0  0  0  0  0  0  0  0  0  0  0  0
  -24.5700  -31.9440   23.2280 C   0  0  0  0  0  0  0  0  0  0  0  0
  -27.3880  -27.5740   20.2220 C   0  0  0  0  0  0  0  0  0  0  0  0
  -23.4340  -30.5100   21.5620 C   0  0  0  0  0  3  0  0  0  0  0  0
  -24.9560  -29.0080   20.1700 C   0  0  0  0  0  0  0  0  0  0  0  0
  -25.9510  -30.9370   21.4160 C   0  0  0  0  0  2  0  0  0  0  0  0
  -26.0860  -29.5680   20.7810 C   0  0  0  0  0  0  0  0  0  0  0  0
  -27.3080  -28.8580   20.8040 C   0  0  0  0  0  3  0  0  0  0  0  0
  -26.2470  -27.0260   19.5980 C   0  0  0  0  0  3  0  0  0  0  0  0
  -25.0320  -27.7360   19.5730 C   0  0  0  0  0  3  0  0  0  0  0  0
  -23.6860  -29.8290   20.1900 C   0  0  0  0  0  2  0  0  0  0  0  0
  -24.6680  -31.1450   22.1270 N   0  0  0  0  0  0  0  0  0  0  0  0
  -23.4710  -32.1920   23.7450 O   0  0  0  0  0  0  0  0  0  0  0  0
  -22.7860  -29.4770   22.5110 C   0  0  0  0  0  0  0  0  0  0  0  0
  -21.4610  -29.2930   22.3790 N   0  0  0  0  0  0  0  0  0  0  0  0
  -23.4710  -28.8430   23.3170 O   0  0  0  0  0  0  0  0  0  0  0  0
  -20.9700  -29.8620   21.7020 H   0  0  0  0  0  0  0  0  0  0  0  0
  -18.0820  -28.1250   22.8960 C   0  0  0  0  0  0  0  0  0  0  0  0
  -20.6470  -28.3430   23.1340 C   0  0  0  0  0  3  0  0  0  0  0  0
  -20.7220  -26.9290   22.5130 C   0  0  0  0  0  2  0  0  0  0  0  0
  -19.5990  -26.6480   21.5100 C   0  0  0  0  0  2  0  0  0  0  0  0
  -18.2300  -26.7920   22.1820 C   0  0  0  0  0  2  0  0  0  0  0  0
  -19.2170  -28.8610   23.3290 C   0  0  0  0  0  0  0  0  0  0  0  0
  -19.0240  -30.1120   23.9560 C   0  0  0  0  0  3  0  0  0  0  0  0
  -17.7290  -30.6250   24.1550 C   0  0  0  0  0  3  0  0  0  0  0  0
  -16.6090  -29.8840   23.7410 C   0  0  0  0  0  3  0  0  0  0  0  0
  -16.7860  -28.6370   23.1180 C   0  0  0  0  0  3  0  0  0  0  0  0
  -25.8280  -32.6040   23.8750 C   0  0  0  0  0  3  0  0  0  0  0  0
  -25.4980  -34.0070   24.1570 N   0  0  0  0  0  0  0  0  0  0  0  0
  -25.8500  -35.0410   23.3820 C   0  0  0  0  0  0  0  0  0  0  0  0
  -26.5610  -34.9170   22.3800 O   0  0  0  0  0  0  0  0  0  0  0  0
  -24.8750  -34.1790   24.9330 H   0  0  0  0  0  0  0  0  0  0  0  0
  -24.1400  -36.8170   22.8900 C   0  0  0  0  0  1  0  0  0  0  0  0
  -25.3340  -36.4370   23.7800 C   0  0  0  0  0  3  0  0  0  0  0  0
  -27.4070  -37.3560   24.7220 C   0  0  0  0  0  1  0  0  0  0  0  0
  -26.3680  -37.4910   23.7040 N   0  0  0  0  0  0  0  0  0  0  0  0
  -25.9500  -38.4130   23.7990 H   0  0  0  0  0  0  0  0  0  0  0  0
  -26.3120  -31.8690   25.1850 C   0  0  1  0  0  0  0  0  0  0  0  0
  -25.1840  -31.6320   26.2170 C   0  0  0  0  0  1  0  0  0  0  0  0
  -26.9330  -30.4950   24.8420 C   0  0  0  0  0  1  0  0  0  0  0  0
  -27.4240  -32.6950   25.8740 C   0  0  0  0  0  1  0  0  0  0  0  0
  -30.6920  -17.1790   20.2140 C   0  0  0  0  0  2  0  0  0  0  0  0
  -30.2140  -15.8420   20.8550 C   0  0  0  0  0  2  0  0  0  0  0  0
  -30.8670  -14.6070   20.1850 C   0  0  0  0  0  0  0  0  0  0  0  0
  -30.4940  -12.4890   18.9770 C   0  0  0  0  0  2  0  0  0  0  0  0
  -29.5060  -12.7510   17.8240 C   0  0  0  0  0  2  0  0  0  0  0  0
  -28.0480  -12.6160   18.3100 C   0  0  0  0  0  2  0  0  0  0  0  0
  -27.7760  -13.4050   19.6180 C   0  0  0  0  0  3  0  0  0  0  0  0
  -28.8800  -13.1410   20.6680 C   0  0  0  0  0  2  0  0  0  0  0  0
  -30.1790  -13.4410   20.0530 N   0  0  0  0  0  0  0  0  0  0  0  0
  -31.9740  -14.7690   19.6620 O   0  0  0  0  0  0  0  0  0  0  0  0
  -25.4100  -13.9990   20.4370 C   0  0  0  0  0  0  0  0  0  0  0  0
  -24.3570  -13.2190   20.8350 C   0  0  0  0  0  0  0  0  0  0  0  0
  -24.8140  -11.8700   20.7590 C   0  0  0  0  0  0  0  0  0  0  0  0
  -26.4440  -13.1230   20.1480 N   0  0  0  0  0  0  0  0  0  0  0  0
  -26.0900  -11.8350   20.3960 N   0  0  0  0  0  0  0  0  0  0  0  0
  -24.0940  -10.6040   20.9560 C   0  0  0  0  0  0  0  0  0  0  0  0
  -24.5310   -9.6440   21.8960 C   0  0  0  0  0  3  0  0  0  0  0  0
  -23.8110   -8.4440   22.0800 C   0  0  0  0  0  3  0  0  0  0  0  0
  -22.6410   -8.1930   21.3230 C   0  0  0  0  0  0  0  0  0  0  0  0
  -22.2250   -9.1410   20.3720 C   0  0  0  0  0  3  0  0  0  0  0  0
  -22.9460  -10.3340   20.1860 C   0  0  0  0  0  3  0  0  0  0  0  0
  -21.8950   -7.0440   21.4150 O   0  0  0  0  0  0  0  0  0  0  0  0
  -21.8120   -6.3330   22.5850 C   0  0  0  0  0  0  0  0  0  0  0  0
  -21.2840   -6.9000   23.7670 C   0  0  0  0  0  3  0  0  0  0  0  0
  -21.1520   -6.1120   24.9270 C   0  0  0  0  0  3  0  0  0  0  0  0
  -21.5370   -4.7570   24.9060 C   0  0  0  0  0  0  0  0  0  0  0  0
  -22.0570   -4.1890   23.7310 C   0  0  0  0  0  3  0  0  0  0  0  0
  -22.1910   -4.9750   22.5720 C   0  0  0  0  0  0  0  0  0  0  0  0
  -22.6740   -4.4180   21.4350 F   0  0  0  0  0  0  0  0  0  0  0  0
  -21.4030   -3.9970   26.0180 F   0  0  0  0  0  0  0  0  0  0  0  0
  -22.9730  -13.6930   21.1740 C   0  0  0  0  0  0  0  0  0  0  0  0
  -22.2780  -12.9740   22.0500 N   0  0  0  0  0  0  0  0  0  0  0  0
  -22.5170  -14.7330   20.7020 O   0  0  0  0  0  0  0  0  0  0  0  0
  -22.6590  -12.1300   22.4520 H   0  0  0  0  0  0  0  0  0  0  0  0
  -21.3510  -13.2710   22.3190 H   0  0  0  0  0  0  0  0  0  0  0  0
  -25.5690  -15.3730   20.2790 N   0  0  0  0  0  0  0  0  0  0  0  0
  -24.8090  -16.0280   20.4290 H   0  0  0  0  0  0  0  0  0  0  0  0
  -26.4060  -15.8120   19.9170 H   0  0  0  0  0  0  0  0  0  0  0  0
  2 54  1  0
  2  1  1  0
  3  5  1  0
  3  4  1  0
  3  2  1  0
  4  9  1  0
  4  6  1  0
  6  1  1  0
  6  7  1  0
  6  8  1  0
  9 10  1  0
 10 11  2  0
 11 12  1  0
 13 12  1  0
 14 25  2  0
 15 13  1  0
 15 20  1  0
 16 24  1  0
 16 26  1  0
 17 23  1  0
 17 19  1  0
 18 24  1  0
 19 20  2  0
 19 18  1  0
 21 15  2  0
 22 21  1  0
 22 17  2  0
 23 16  1  0
 24 14  1  0
 26 28  2  0
 27 26  1  0
 29 27  1  0
 30 39  2  0
 30 35  1  0
 31 27  1  0
 31 35  1  0
 32 31  1  0
 33 34  1  0
 33 32  1  0
 34 30  1  0
 35 36  2  0
 36 37  1  0
 38 37  2  0
 39 38  1  0
 40 14  1  0
 40 41  1  0
 40 50  1  0
 41 44  1  0
 42 46  1  0
 42 41  1  0
 43 42  2  0
 46 45  1  0
 48 46  1  0
 48 49  1  0
 48 47  1  0
 50 53  1  1
 50 51  1  0
 52 50  1  0
 54 55  1  0
 56 55  1  0
 57 62  1  0
 58 59  1  0
 58 57  1  0
 60 59  1  0
 60 67  1  0
 60 61  1  0
 62 56  1  0
 62 61  1  0
 63 56  2  0
 64 65  2  0
 65 84  1  0
 66 65  1  0
 66 69  1  0
 67 68  1  0
 67 64  1  0
 68 66  2  0
 69 70  1  0
 70 71  2  0
 72 75  1  0
 72 71  1  0
 73 72  2  0
 74 73  1  0
 74 69  2  0
 75 76  1  0
 76 77  1  0
 77 78  2  0
 79 78  1  0
 79 83  1  0
 80 79  2  0
 81 76  2  0
 81 80  1  0
 82 81  1  0
 84 85  1  0
 85 88  1  0
 85 87  1  0
 86 84  2  0
 89 90  1  0
 89 64  1  0
 91 89  1  0
M  ISO  4  12 101  13 101  55 100  56 100
M  END
>  <TORSDO>  (61) 
F 21

>  <SCORE>  (61) 
-12.923

>  <name>  (61) 
60

>  <ligand_id>  (61) 
60

>  <original_smiles>  (61) 
[H]C(=C([H])C([H])([H])C1([H])C([H])(C([H])([H])[H])C([H])(C([H])([H])C([H])([H])C(=O)N2C([H])([H])C([H])([H])C([H])([H])C([H])(n3nc(-c4c([H])c([H])c(Oc5c([H])c([H])c(F)c([H])c5F)c([H])c4[H])c(C(=O)N([H])[H])c3N([H])[H])C2([H])[H])C([H])([H])[N+]1([H])[H])C([H])([H])Oc1c([H])c([H])c2c(c1[H])C([H])([H])N(C(=O)C([H])(N([H])C(=O)C([H])(N([H])C([H])([H])[H])C([H])([H])[H])C(C([H])([H])[H])(C([H])([H])[H])C([H])([H])[H])C([H])(C(=O)N([H])C1([H])c3c([H])c([H])c([H])c([H])c3C([H])([H])C([H])([H])C1([H])[H])C2([H])[H]

>  <smiles>  (61) 
[H]C(=C([H])C([H])([H])C1([H])C([H])(C([H])([H])[H])C([H])(C([H])([H])C([H])([H])C(=O)N2C([H])([H])C([H])([H])C([H])([H])C([H])(n3nc(-c4c([H])c([H])c(Oc5c([H])c([H])c(F)c([H])c5F)c([H])c4[H])c(C(=O)N([H])[H])c3N([H])[H])C2([H])[H])C([H])([H])[N+]1([H])[H])C([H])([H])Oc1c([H])c([H])c2c(c1[H])C([H])([H])N(C(=O)C([H])(N([H])C(=O)C([H])(N([H])C([H])([H])[H])C([H])([H])[H])C(C([H])([H])[H])(C([H])([H])[H])C([H])([H])[H])C([H])(C(=O)N([H])C1([H])c3c([H])c([H])c([H])c([H])c3C([H])([H])C([H])([H])C1([H])[H])C2([H])[H]

$$$$
61:0:0
     RDKit          3D

 87 95  0  0  1  0  0  0  0  0999 V2000
  -28.3930  -21.9250   19.3060 C   0  0  0  0  0  0  0  0  0  0  0  0
  -29.6160  -22.2440   20.9200 C   0  0  0  0  0  2  0  0  0  0  0  0
  -29.0670  -23.2930   19.8380 C   0  0  0  0  0  3  0  0  0  0  0  0
  -29.5340  -20.9640   19.9410 C   0  0  0  0  0  3  0  0  0  0  0  0
  -27.3410  -21.6850   18.7100 O   0  0  0  0  0  0  0  0  0  0  0  0
  -28.8770  -19.2680   21.8440 C   0  0  0  0  0  1  0  0  0  0  0  0
  -29.2140  -19.3540   20.3490 C   0  0  0  0  0  3  0  0  0  0  0  0
  -30.1870  -18.0240   19.9530 C   0  0  0  0  0  3  0  0  0  0  0  0
  -29.8610  -16.4180   20.3750 C   0  0  0  0  0  3  0  0  0  0  0  0
  -30.7060  -15.0430   19.9690 C   0  0  0  0  0  0  0  0  0  0  0  0
  -30.5690  -12.7150   18.9630 C   0  0  0  0  0  2  0  0  0  0  0  0
  -29.5640  -12.7250   17.7850 C   0  0  0  0  0  2  0  0  0  0  0  0
  -28.1240  -12.5020   18.2880 C   0  0  0  0  0  2  0  0  0  0  0  0
  -27.7870  -13.3860   19.5160 C   0  0  0  0  0  3  0  0  0  0  0  0
  -28.9020  -13.3460   20.5820 C   0  0  0  0  0  2  0  0  0  0  0  0
  -30.1510  -13.7660   19.9340 N   0  0  0  0  0  0  0  0  0  0  0  0
  -31.8710  -15.1510   19.5670 O   0  0  0  0  0  0  0  0  0  0  0  0
  -25.4530  -13.9460   20.4080 C   0  0  0  0  0  0  0  0  0  0  0  0
  -24.4090  -13.1620   20.8120 C   0  0  0  0  0  0  0  0  0  0  0  0
  -24.8670  -11.8120   20.7110 C   0  0  0  0  0  0  0  0  0  0  0  0
  -26.4780  -13.0750   20.0780 N   0  0  0  0  0  0  0  0  0  0  0  0
  -26.1380  -11.7830   20.3260 N   0  0  0  0  0  0  0  0  0  0  0  0
  -24.1480  -10.5450   20.9000 C   0  0  0  0  0  0  0  0  0  0  0  0
  -24.5600   -9.5980   21.8640 C   0  0  0  0  0  3  0  0  0  0  0  0
  -23.8390   -8.3960   22.0400 C   0  0  0  0  0  3  0  0  0  0  0  0
  -22.6930   -8.1340   21.2540 C   0  0  0  0  0  0  0  0  0  0  0  0
  -22.3010   -9.0700   20.2800 C   0  0  0  0  0  3  0  0  0  0  0  0
  -23.0220  -10.2620   20.1010 C   0  0  0  0  0  3  0  0  0  0  0  0
  -21.9460   -6.9830   21.3370 O   0  0  0  0  0  0  0  0  0  0  0  0
  -21.7710   -6.3240   22.5270 C   0  0  0  0  0  0  0  0  0  0  0  0
  -21.1880   -6.9530   23.6500 C   0  0  0  0  0  3  0  0  0  0  0  0
  -20.9640   -6.2180   24.8310 C   0  0  0  0  0  3  0  0  0  0  0  0
  -21.3120   -4.8560   24.8900 C   0  0  0  0  0  0  0  0  0  0  0  0
  -21.8880   -4.2270   23.7730 C   0  0  0  0  0  3  0  0  0  0  0  0
  -22.1140   -4.9590   22.5930 C   0  0  0  0  0  0  0  0  0  0  0  0
  -22.6500   -4.3410   21.5130 F   0  0  0  0  0  0  0  0  0  0  0  0
  -21.0900   -4.1480   26.0220 F   0  0  0  0  0  0  0  0  0  0  0  0
  -23.0310  -13.6310   21.1760 C   0  0  0  0  0  0  0  0  0  0  0  0
  -22.3520  -12.9120   22.0620 N   0  0  0  0  0  0  0  0  0  0  0  0
  -22.5660  -14.6720   20.7100 O   0  0  0  0  0  0  0  0  0  0  0  0
  -22.7410  -12.0700   22.4590 H   0  0  0  0  0  0  0  0  0  0  0  0
  -21.4300  -13.2080   22.3490 H   0  0  0  0  0  0  0  0  0  0  0  0
  -25.6120  -15.3220   20.2690 N   0  0  0  0  0  0  0  0  0  0  0  0
  -24.8560  -15.9730   20.4520 H   0  0  0  0  0  0  0  0  0  0  0  0
  -26.4460  -15.7730   19.9160 H   0  0  0  0  0  0  0  0  0  0  0  0
  -28.1860  -24.7260   20.0590 C   0  0  0  0  0  2  0  0  0  0  0  0
  -28.3870  -26.2730   20.0460 O   0  0  0  0  0  0  0  0  0  0  0  0
  -24.7530  -31.8570   23.1850 C   0  0  0  0  0  0  0  0  0  0  0  0
  -27.3020  -27.2200   20.0360 C   0  0  0  0  0  0  0  0  0  0  0  0
  -23.5280  -30.4800   21.5470 C   0  0  0  0  0  3  0  0  0  0  0  0
  -24.9560  -28.9330   20.0730 C   0  0  0  0  0  0  0  0  0  0  0  0
  -26.0740  -30.7700   21.3330 C   0  0  0  0  0  2  0  0  0  0  0  0
  -26.1430  -29.3880   20.6600 C   0  0  0  0  0  0  0  0  0  0  0  0
  -27.3180  -28.5490   20.6190 C   0  0  0  0  0  3  0  0  0  0  0  0
  -26.0860  -26.8550   19.4220 C   0  0  0  0  0  3  0  0  0  0  0  0
  -24.9380  -27.6810   19.4370 C   0  0  0  0  0  3  0  0  0  0  0  0
  -23.7240  -29.8220   20.1550 C   0  0  0  0  0  2  0  0  0  0  0  0
  -24.8060  -31.0570   22.0770 N   0  0  0  0  0  0  0  0  0  0  0  0
  -23.6760  -32.1260   23.7400 O   0  0  0  0  0  0  0  0  0  0  0  0
  -22.8740  -29.4550   22.5080 C   0  0  0  0  0  0  0  0  0  0  0  0
  -21.5460  -29.2700   22.3960 N   0  0  0  0  0  0  0  0  0  0  0  0
  -23.5640  -28.8290   23.3170 O   0  0  0  0  0  0  0  0  0  0  0  0
  -21.0460  -29.8290   21.7210 H   0  0  0  0  0  0  0  0  0  0  0  0
  -18.1880  -28.0190   22.9200 C   0  0  0  0  0  0  0  0  0  0  0  0
  -20.7450  -28.3160   23.1680 C   0  0  0  0  0  3  0  0  0  0  0  0
  -20.8620  -26.8900   22.5820 C   0  0  0  0  0  2  0  0  0  0  0  0
  -19.7570  -26.5590   21.5740 C   0  0  0  0  0  2  0  0  0  0  0  0
  -18.3780  -26.6780   22.2300 C   0  0  0  0  0  2  0  0  0  0  0  0
  -19.2990  -28.7950   23.3450 C   0  0  0  0  0  0  0  0  0  0  0  0
  -19.0660  -30.0490   23.9510 C   0  0  0  0  0  3  0  0  0  0  0  0
  -17.7550  -30.5270   24.1350 C   0  0  0  0  0  3  0  0  0  0  0  0
  -16.6590  -29.7500   23.7240 C   0  0  0  0  0  3  0  0  0  0  0  0
  -16.8760  -28.4970   23.1230 C   0  0  0  0  0  3  0  0  0  0  0  0
  -26.0390  -32.4900   23.7970 C   0  0  0  0  0  3  0  0  0  0  0  0
  -26.5880  -31.6960   25.0460 C   0  0  1  0  0  0  0  0  0  0  0  0
  -25.5190  -31.4260   26.1310 C   0  0  0  0  0  1  0  0  0  0  0  0
  -27.1740  -30.3320   24.6150 C   0  0  0  0  0  1  0  0  0  0  0  0
  -27.7460  -32.4850   25.7030 C   0  0  0  0  0  1  0  0  0  0  0  0
  -25.7220  -33.8770   24.1730 N   0  0  0  0  0  0  0  0  0  0  0  0
  -26.0080  -34.9550   23.4300 C   0  0  0  0  0  0  0  0  0  0  0  0
  -26.6320  -34.8870   22.3680 O   0  0  0  0  0  0  0  0  0  0  0  0
  -25.1620  -34.0030   25.0030 H   0  0  0  0  0  0  0  0  0  0  0  0
  -24.2330  -36.7260   23.2160 C   0  0  0  0  0  1  0  0  0  0  0  0
  -25.5250  -36.3260   23.9450 C   0  0  0  0  0  3  0  0  0  0  0  0
  -27.6860  -37.2360   24.6760 C   0  0  0  0  0  1  0  0  0  0  0  0
  -26.5320  -37.3990   23.7950 N   0  0  0  0  0  0  0  0  0  0  0  0
  -26.1180  -38.3090   23.9800 H   0  0  0  0  0  0  0  0  0  0  0  0
  1  3  1  0
  1  4  1  0
  3 46  1  0
  3  2  1  0
  4  7  1  0
  4  2  1  0
  5  1  2  0
  7  6  1  0
  8  7  1  0
  8  9  2  0
 10  9  1  0
 11 16  1  0
 12 13  1  0
 12 11  1  0
 14 13  1  0
 14 21  1  0
 14 15  1  0
 16 10  1  0
 16 15  1  0
 17 10  2  0
 18 19  2  0
 19 38  1  0
 20 19  1  0
 20 23  1  0
 21 22  1  0
 21 18  1  0
 22 20  2  0
 23 24  1  0
 24 25  2  0
 26 29  1  0
 26 25  1  0
 27 26  2  0
 28 27  1  0
 28 23  2  0
 29 30  1  0
 30 35  2  0
 30 31  1  0
 31 32  2  0
 32 33  1  0
 33 37  1  0
 34 33  2  0
 35 34  1  0
 36 35  1  0
 38 39  1  0
 39 42  1  0
 39 41  1  0
 40 38  2  0
 43 18  1  0
 43 44  1  0
 45 43  1  0
 47 46  1  0
 48 59  2  0
 49 47  1  0
 49 54  1  0
 50 58  1  0
 50 60  1  0
 51 57  1  0
 51 53  1  0
 52 58  1  0
 53 52  1  0
 54 53  2  0
 55 56  1  0
 55 49  2  0
 56 51  2  0
 57 50  1  0
 58 48  1  0
 60 62  2  0
 61 60  1  0
 63 61  1  0
 64 73  2  0
 64 69  1  0
 65 61  1  0
 65 69  1  0
 66 65  1  0
 67 68  1  0
 67 66  1  0
 68 64  1  0
 69 70  2  0
 70 71  1  0
 72 71  2  0
 73 72  1  0
 74 48  1  0
 74 79  1  0
 74 75  1  0
 75 78  1  1
 75 76  1  0
 77 75  1  0
 79 82  1  0
 80 84  1  0
 80 79  1  0
 81 80  2  0
 84 83  1  0
 86 84  1  0
 86 87  1  0
 86 85  1  0
M  ISO  4   9 100  10 100  46 101  47 101
M  END
>  <TORSDO>  (62) 
F 20

>  <SCORE>  (62) 
-12.931

>  <name>  (62) 
61

>  <ligand_id>  (62) 
61

>  <original_smiles>  (62) 
[H]c1c([H])c([H])c2c(c1[H])C([H])([H])C([H])([H])C([H])([H])C2([H])N([H])C(=O)C1([H])N(C(=O)C([H])(N([H])C(=O)C([H])(N([H])C([H])([H])[H])C([H])([H])[H])C(C([H])([H])[H])(C([H])([H])[H])C([H])([H])[H])C([H])([H])c2c([H])c(OC([H])([H])C3([H])C(=O)C([H])(C([H])(C([H])([H])[H])C([H])([H])C([H])([H])C(=O)N4C([H])([H])C([H])([H])C([H])([H])C([H])(n5nc(-c6c([H])c([H])c(Oc7c([H])c([H])c(F)c([H])c7F)c([H])c6[H])c(C(=O)N([H])[H])c5N([H])[H])C4([H])[H])C3([H])[H])c([H])c([H])c2C1([H])[H]

>  <smiles>  (62) 
[H]c1c([H])c([H])c2c(c1[H])C([H])([H])C([H])([H])C([H])([H])C2([H])N([H])C(=O)C1([H])N(C(=O)C([H])(N([H])C(=O)C([H])(N([H])C([H])([H])[H])C([H])([H])[H])C(C([H])([H])[H])(C([H])([H])[H])C([H])([H])[H])C([H])([H])c2c([H])c(OC([H])([H])C3([H])C(=O)C([H])(C([H])(C([H])([H])[H])C([H])([H])C([H])([H])C(=O)N4C([H])([H])C([H])([H])C([H])([H])C([H])(n5nc(-c6c([H])c([H])c(Oc7c([H])c([H])c(F)c([H])c7F)c([H])c6[H])c(C(=O)N([H])[H])c5N([H])[H])C4([H])[H])C3([H])[H])c([H])c([H])c2C1([H])[H]

$$$$
62:0:0
     RDKit          3D

 91 99  0  0  1  0  0  0  0  0999 V2000
  -28.6900  -21.7630   20.1110 N   0  0  0  0  0  4  0  0  0  0  0  0
  -28.0640  -21.5900   20.8810 H   0  0  0  0  0  0  0  0  0  0  0  0
  -28.1070  -21.7210   19.2900 H   0  0  0  0  0  0  0  0  0  0  0  0
  -29.1810  -19.0920   19.3460 C   0  0  0  0  0  2  0  0  0  0  0  0
  -29.9300  -19.4500   21.1850 C   0  0  0  0  0  3  0  0  0  0  0  0
  -30.1620  -18.1630   20.2290 C   0  0  0  0  0  3  0  0  0  0  0  0
  -29.6660  -20.4890   19.9840 C   0  0  0  0  0  3  0  0  0  0  0  0
  -31.0970  -19.7740   22.1140 C   0  0  0  0  0  0  0  0  0  0  0  0
  -31.3030  -18.7990   23.2510 C   0  0  0  0  0  1  0  0  0  0  0  0
  -31.8570  -20.7740   21.9630 N   0  0  0  0  0  0  0  0  0  0  0  0
  -31.6110  -21.3360   21.1560 H   0  0  0  0  0  0  0  0  0  0  0  0
  -29.9310  -16.5280   20.6860 C   0  0  0  0  0  2  0  0  0  0  0  0
  -30.8220  -15.1360   20.3780 C   0  0  0  0  0  0  0  0  0  0  0  0
  -30.7570  -12.7810   19.3980 C   0  0  0  0  0  2  0  0  0  0  0  0
  -29.8210  -12.7580   18.1640 C   0  0  0  0  0  2  0  0  0  0  0  0
  -28.3550  -12.5330   18.5870 C   0  0  0  0  0  2  0  0  0  0  0  0
  -27.9460  -13.4340   19.7800 C   0  0  0  0  0  3  0  0  0  0  0  0
  -28.9990  -13.4180   20.9070 C   0  0  0  0  0  2  0  0  0  0  0  0
  -30.2770  -13.8490   20.3260 N   0  0  0  0  0  0  0  0  0  0  0  0
  -32.0140  -15.2300   20.0620 O   0  0  0  0  0  0  0  0  0  0  0  0
  -25.5660  -14.0050   20.5270 C   0  0  0  0  0  0  0  0  0  0  0  0
  -24.4990  -13.2260   20.8820 C   0  0  0  0  0  0  0  0  0  0  0  0
  -24.9610  -11.8760   20.8310 C   0  0  0  0  0  0  0  0  0  0  0  0
  -26.6070  -13.1290   20.2720 N   0  0  0  0  0  0  0  0  0  0  0  0
  -26.2520  -11.8410   20.5220 N   0  0  0  0  0  0  0  0  0  0  0  0
  -24.2310  -10.6120   21.0000 C   0  0  0  0  0  0  0  0  0  0  0  0
  -24.6120   -9.6630   21.9740 C   0  0  0  0  0  3  0  0  0  0  0  0
  -23.8810   -8.4650   22.1310 C   0  0  0  0  0  3  0  0  0  0  0  0
  -22.7560   -8.2070   21.3120 C   0  0  0  0  0  0  0  0  0  0  0  0
  -22.3960   -9.1460   20.3270 C   0  0  0  0  0  3  0  0  0  0  0  0
  -23.1270  -10.3340   20.1690 C   0  0  0  0  0  3  0  0  0  0  0  0
  -22.0020   -7.0600   21.3740 O   0  0  0  0  0  0  0  0  0  0  0  0
  -21.8090   -6.3910   22.5550 C   0  0  0  0  0  0  0  0  0  0  0  0
  -21.2180   -7.0130   23.6760 C   0  0  0  0  0  3  0  0  0  0  0  0
  -20.9730   -6.2680   24.8470 C   0  0  0  0  0  3  0  0  0  0  0  0
  -21.3080   -4.9030   24.8960 C   0  0  0  0  0  0  0  0  0  0  0  0
  -21.8910   -4.2790   23.7790 C   0  0  0  0  0  3  0  0  0  0  0  0
  -22.1370   -5.0210   22.6110 C   0  0  0  0  0  0  0  0  0  0  0  0
  -22.6790   -4.4110   21.5300 F   0  0  0  0  0  0  0  0  0  0  0  0
  -21.0660   -4.1850   26.0190 F   0  0  0  0  0  0  0  0  0  0  0  0
  -23.1020  -13.7020   21.1570 C   0  0  0  0  0  0  0  0  0  0  0  0
  -22.3750  -13.0020   22.0200 N   0  0  0  0  0  0  0  0  0  0  0  0
  -22.6650  -14.7310   20.6420 O   0  0  0  0  0  0  0  0  0  0  0  0
  -22.7420  -12.1700   22.4580 H   0  0  0  0  0  0  0  0  0  0  0  0
  -21.4380  -13.3030   22.2470 H   0  0  0  0  0  0  0  0  0  0  0  0
  -25.7320  -15.3790   20.3740 N   0  0  0  0  0  0  0  0  0  0  0  0
  -24.9660  -16.0310   20.4980 H   0  0  0  0  0  0  0  0  0  0  0  0
  -26.5820  -15.8230   20.0530 H   0  0  0  0  0  0  0  0  0  0  0  0
  -29.1320  -23.3030   20.2000 C   0  0  0  0  0  3  0  0  0  0  0  0
  -28.0590  -24.6240   20.0400 C   0  0  0  0  0  3  0  0  0  0  0  0
  -28.3270  -26.1730   20.1830 O   0  0  0  0  0  0  0  0  0  0  0  0
  -24.7190  -31.8700   23.2370 C   0  0  0  0  0  0  0  0  0  0  0  0
  -27.2750  -27.1710   20.1320 C   0  0  0  0  0  0  0  0  0  0  0  0
  -23.5100  -30.4980   21.5850 C   0  0  0  0  0  3  0  0  0  0  0  0
  -24.9490  -28.9380   20.1310 C   0  0  0  0  0  0  0  0  0  0  0  0
  -26.0650  -30.7550   21.4130 C   0  0  0  0  0  2  0  0  0  0  0  0
  -26.1340  -29.3700   20.7410 C   0  0  0  0  0  0  0  0  0  0  0  0
  -27.2960  -28.5040   20.7220 C   0  0  0  0  0  3  0  0  0  0  0  0
  -26.0610  -26.8480   19.4850 C   0  0  0  0  0  3  0  0  0  0  0  0
  -24.9270  -27.6920   19.4870 C   0  0  0  0  0  3  0  0  0  0  0  0
  -23.7240  -29.8380   20.1970 C   0  0  0  0  0  2  0  0  0  0  0  0
  -24.7850  -31.0620   22.1340 N   0  0  0  0  0  0  0  0  0  0  0  0
  -23.6350  -32.1480   23.7740 O   0  0  0  0  0  0  0  0  0  0  0  0
  -22.8320  -29.4810   22.5380 C   0  0  0  0  0  0  0  0  0  0  0  0
  -21.5050  -29.3000   22.4010 N   0  0  0  0  0  0  0  0  0  0  0  0
  -23.5030  -28.8560   23.3630 O   0  0  0  0  0  0  0  0  0  0  0  0
  -21.0200  -29.8540   21.7110 H   0  0  0  0  0  0  0  0  0  0  0  0
  -18.1350  -28.0490   22.8590 C   0  0  0  0  0  0  0  0  0  0  0  0
  -20.6860  -28.3510   23.1620 C   0  0  0  0  0  3  0  0  0  0  0  0
  -20.8170  -26.9190   22.5910 C   0  0  0  0  0  2  0  0  0  0  0  0
  -19.7350  -26.5790   21.5620 C   0  0  0  0  0  2  0  0  0  0  0  0
  -18.3420  -26.7030   22.1860 C   0  0  0  0  0  2  0  0  0  0  0  0
  -19.2360  -28.8300   23.3030 C   0  0  0  0  0  0  0  0  0  0  0  0
  -18.9870  -30.0880   23.8930 C   0  0  0  0  0  3  0  0  0  0  0  0
  -17.6720  -30.5670   24.0430 C   0  0  0  0  0  3  0  0  0  0  0  0
  -16.5860  -29.7840   23.6140 C   0  0  0  0  0  3  0  0  0  0  0  0
  -16.8180  -28.5270   23.0280 C   0  0  0  0  0  3  0  0  0  0  0  0
  -25.9990  -32.4960   23.8680 C   0  0  0  0  0  3  0  0  0  0  0  0
  -25.6930  -33.8930   24.2140 N   0  0  0  0  0  0  0  0  0  0  0  0
  -26.0010  -34.9540   23.4570 C   0  0  0  0  0  0  0  0  0  0  0  0
  -26.6400  -34.8610   22.4060 O   0  0  0  0  0  0  0  0  0  0  0  0
  -25.1200  -34.0390   25.0330 H   0  0  0  0  0  0  0  0  0  0  0  0
  -24.2420  -36.7370   23.1970 C   0  0  0  0  0  1  0  0  0  0  0  0
  -25.5270  -36.3390   23.9420 C   0  0  0  0  0  3  0  0  0  0  0  0
  -27.6930  -37.2450   24.6620 C   0  0  0  0  0  1  0  0  0  0  0  0
  -26.5430  -37.4020   23.7750 N   0  0  0  0  0  0  0  0  0  0  0  0
  -26.1370  -38.3190   23.9410 H   0  0  0  0  0  0  0  0  0  0  0  0
  -26.5080  -31.7140   25.1420 C   0  0  1  0  0  0  0  0  0  0  0  0
  -25.4110  -31.4790   26.2070 C   0  0  0  0  0  1  0  0  0  0  0  0
  -27.0830  -30.3360   24.7490 C   0  0  0  0  0  1  0  0  0  0  0  0
  -27.6620  -32.4990   25.8100 C   0  0  0  0  0  1  0  0  0  0  0  0
  1 49  1  0
  1  2  1  0
  3  1  1  0
  4  7  1  0
  4  6  1  0
  5  8  1  0
  6 12  1  0
  6  5  1  0
  7  1  1  0
  7  5  1  0
  8  9  1  0
 10  8  2  0
 11 10  1  0
 13 12  1  0
 14 19  1  0
 15 16  1  0
 15 14  1  0
 17 16  1  0
 17 24  1  0
 17 18  1  0
 19 13  1  0
 19 18  1  0
 20 13  2  0
 21 22  2  0
 22 41  1  0
 23 22  1  0
 23 26  1  0
 24 25  1  0
 24 21  1  0
 25 23  2  0
 26 27  1  0
 27 28  2  0
 29 32  1  0
 29 28  1  0
 30 29  2  0
 31 30  1  0
 31 26  2  0
 32 33  1  0
 33 38  2  0
 33 34  1  0
 34 35  2  0
 35 36  1  0
 36 40  1  0
 37 36  2  0
 38 37  1  0
 39 38  1  0
 41 42  1  0
 42 45  1  0
 42 44  1  0
 43 41  2  0
 46 47  1  0
 46 21  1  0
 48 46  1  0
 50 51  1  0
 50 49  2  0
 52 63  2  0
 53 51  1  0
 53 58  1  0
 54 62  1  0
 54 64  1  0
 55 61  1  0
 55 57  1  0
 56 62  1  0
 57 56  1  0
 58 57  2  0
 59 60  1  0
 59 53  2  0
 60 55  2  0
 61 54  1  0
 62 52  1  0
 64 66  2  0
 65 64  1  0
 67 65  1  0
 68 77  2  0
 68 73  1  0
 69 65  1  0
 69 73  1  0
 70 69  1  0
 71 72  1  0
 71 70  1  0
 72 68  1  0
 73 74  2  0
 74 75  1  0
 76 75  2  0
 77 76  1  0
 78 52  1  0
 78 79  1  0
 78 88  1  0
 79 82  1  0
 80 84  1  0
 80 79  1  0
 81 80  2  0
 84 83  1  0
 86 87  1  0
 86 84  1  0
 86 85  1  0
 88 91  1  1
 88 89  1  0
 90 88  1  0
M  ISO  4  12 100  13 100  50 101  51 101
M  END
>  <TORSDO>  (63) 
F 21

>  <SCORE>  (63) 
-14.207

>  <name>  (63) 
62

>  <ligand_id>  (63) 
62

>  <original_smiles>  (63) 
[H]N=C(C([H])([H])[H])C1([H])C([H])(C([H])([H])C(=O)N2C([H])([H])C([H])([H])C([H])([H])C([H])(n3nc(-c4c([H])c([H])c(Oc5c([H])c([H])c(F)c([H])c5F)c([H])c4[H])c(C(=O)N([H])[H])c3N([H])[H])C2([H])[H])C([H])([H])C1([H])[N+]([H])([H])C([H])([H])C([H])([H])Oc1c([H])c([H])c2c(c1[H])C([H])([H])N(C(=O)C([H])(N([H])C(=O)C([H])(N([H])C([H])([H])[H])C([H])([H])[H])C(C([H])([H])[H])(C([H])([H])[H])C([H])([H])[H])C([H])(C(=O)N([H])C1([H])c3c([H])c([H])c([H])c([H])c3C([H])([H])C([H])([H])C1([H])[H])C2([H])[H]

>  <smiles>  (63) 
[H]N=C(C([H])([H])[H])C1([H])C([H])(C([H])([H])C(=O)N2C([H])([H])C([H])([H])C([H])([H])C([H])(n3nc(-c4c([H])c([H])c(Oc5c([H])c([H])c(F)c([H])c5F)c([H])c4[H])c(C(=O)N([H])[H])c3N([H])[H])C2([H])[H])C([H])([H])C1([H])[N+]([H])([H])C([H])([H])C([H])([H])Oc1c([H])c([H])c2c(c1[H])C([H])([H])N(C(=O)C([H])(N([H])C(=O)C([H])(N([H])C([H])([H])[H])C([H])([H])[H])C(C([H])([H])[H])(C([H])([H])[H])C([H])([H])[H])C([H])(C(=O)N([H])C1([H])c3c([H])c([H])c([H])c([H])c3C([H])([H])C([H])([H])C1([H])[H])C2([H])[H]

$$$$
63:0:0
     RDKit          3D

 90 98  0  0  1  0  0  0  0  0999 V2000
  -29.5650  -22.2390   20.1850 C   0  0  0  0  0  2  0  0  0  0  0  0
  -27.2140  -22.4240   20.6310 C   0  0  0  0  0  2  0  0  0  0  0  0
  -29.1070  -20.7740   20.7460 C   0  0  0  0  0  3  0  0  0  0  0  0
  -28.3690  -23.3570   20.1420 C   0  0  0  0  0  3  0  0  0  0  0  0
  -27.6520  -21.0020   20.8720 N   0  0  0  0  0  4  0  0  0  0  0  0
  -27.2400  -20.4220   20.1570 H   0  0  0  0  0  0  0  0  0  0  0  0
  -27.3220  -20.6580   21.7600 H   0  0  0  0  0  0  0  0  0  0  0  0
  -29.3000  -19.2870   19.9680 C   0  0  0  0  0  0  0  0  0  0  0  0
  -28.6440  -19.1110   18.9390 O   0  0  0  0  0  0  0  0  0  0  0  0
  -30.7620  -18.1880   21.8570 C   0  0  0  0  0  1  0  0  0  0  0  0
  -30.2030  -17.9800   20.4380 C   0  0  0  0  0  3  0  0  0  0  0  0
  -29.6780  -16.3890   20.2750 C   0  0  0  0  0  2  0  0  0  0  0  0
  -30.5800  -15.0080   20.0930 C   0  0  0  0  0  0  0  0  0  0  0  0
  -30.4560  -12.6710   19.1230 C   0  0  0  0  0  2  0  0  0  0  0  0
  -29.4820  -12.6860   17.9210 C   0  0  0  0  0  2  0  0  0  0  0  0
  -28.0250  -12.4900   18.3880 C   0  0  0  0  0  2  0  0  0  0  0  0
  -27.6700  -13.3840   19.6040 C   0  0  0  0  0  3  0  0  0  0  0  0
  -28.7570  -13.3270   20.6950 C   0  0  0  0  0  2  0  0  0  0  0  0
  -30.0250  -13.7300   20.0760 N   0  0  0  0  0  0  0  0  0  0  0  0
  -31.7700  -15.1020   19.7690 O   0  0  0  0  0  0  0  0  0  0  0  0
  -25.3180  -13.9760   20.4280 C   0  0  0  0  0  0  0  0  0  0  0  0
  -24.2590  -13.2040   20.8210 C   0  0  0  0  0  0  0  0  0  0  0  0
  -24.7100  -11.8500   20.7560 C   0  0  0  0  0  0  0  0  0  0  0  0
  -26.3440  -13.0910   20.1390 N   0  0  0  0  0  0  0  0  0  0  0  0
  -25.9900  -11.8070   20.4030 N   0  0  0  0  0  0  0  0  0  0  0  0
  -23.9790  -10.5920   20.9540 C   0  0  0  0  0  0  0  0  0  0  0  0
  -24.4260   -9.6130   21.8680 C   0  0  0  0  0  3  0  0  0  0  0  0
  -23.6940   -8.4190   22.0530 C   0  0  0  0  0  3  0  0  0  0  0  0
  -22.4990   -8.1970   21.3220 C   0  0  0  0  0  0  0  0  0  0  0  0
  -22.0730   -9.1680   20.3990 C   0  0  0  0  0  3  0  0  0  0  0  0
  -22.8040  -10.3520   20.2130 C   0  0  0  0  0  3  0  0  0  0  0  0
  -21.7370   -7.0590   21.4190 O   0  0  0  0  0  0  0  0  0  0  0  0
  -21.7080   -6.3080   22.5660 C   0  0  0  0  0  0  0  0  0  0  0  0
  -21.2900   -6.8490   23.8030 C   0  0  0  0  0  3  0  0  0  0  0  0
  -21.2080   -6.0230   24.9420 C   0  0  0  0  0  3  0  0  0  0  0  0
  -21.5310   -4.6570   24.8470 C   0  0  0  0  0  0  0  0  0  0  0  0
  -21.9390   -4.1140   23.6160 C   0  0  0  0  0  3  0  0  0  0  0  0
  -22.0240   -4.9370   22.4790 C   0  0  0  0  0  0  0  0  0  0  0  0
  -22.3990   -4.4040   21.2910 F   0  0  0  0  0  0  0  0  0  0  0  0
  -21.4440   -3.8610   25.9390 F   0  0  0  0  0  0  0  0  0  0  0  0
  -22.8750  -13.6890   21.1420 C   0  0  0  0  0  0  0  0  0  0  0  0
  -22.1690  -12.9880   22.0230 N   0  0  0  0  0  0  0  0  0  0  0  0
  -22.4320  -14.7260   20.6500 O   0  0  0  0  0  0  0  0  0  0  0  0
  -22.5460  -12.1520   22.4430 H   0  0  0  0  0  0  0  0  0  0  0  0
  -21.2410  -13.2910   22.2780 H   0  0  0  0  0  0  0  0  0  0  0  0
  -25.4880  -15.3480   20.2670 N   0  0  0  0  0  0  0  0  0  0  0  0
  -24.7260  -16.0010   20.4110 H   0  0  0  0  0  0  0  0  0  0  0  0
  -26.3250  -15.7860   19.9060 H   0  0  0  0  0  0  0  0  0  0  0  0
  -28.3210  -24.8880   20.8570 C   0  0  0  0  0  2  0  0  0  0  0  0
  -28.4420  -26.3170   20.2810 O   0  0  0  0  0  0  0  0  0  0  0  0
  -24.6690  -31.9010   23.2660 C   0  0  0  0  0  0  0  0  0  0  0  0
  -27.3490  -27.2450   20.2840 C   0  0  0  0  0  0  0  0  0  0  0  0
  -23.5040  -30.4860   21.6160 C   0  0  0  0  0  3  0  0  0  0  0  0
  -24.9890  -28.9250   20.2170 C   0  0  0  0  0  0  0  0  0  0  0  0
  -26.0520  -30.7960   21.4720 C   0  0  0  0  0  2  0  0  0  0  0  0
  -26.1540  -29.4040   20.8320 C   0  0  0  0  0  0  0  0  0  0  0  0
  -27.3380  -28.5820   20.8420 C   0  0  0  0  0  3  0  0  0  0  0  0
  -26.1580  -26.8480   19.6430 C   0  0  0  0  0  3  0  0  0  0  0  0
  -25.0020  -27.6590   19.6070 C   0  0  0  0  0  3  0  0  0  0  0  0
  -23.7500  -29.8050   20.2430 C   0  0  0  0  0  2  0  0  0  0  0  0
  -24.7600  -31.0820   22.1740 N   0  0  0  0  0  0  0  0  0  0  0  0
  -23.5740  -32.1710   23.7840 O   0  0  0  0  0  0  0  0  0  0  0  0
  -22.8300  -29.4710   22.5750 C   0  0  0  0  0  0  0  0  0  0  0  0
  -21.5050  -29.2920   22.4420 N   0  0  0  0  0  0  0  0  0  0  0  0
  -23.5020  -28.8490   23.4000 O   0  0  0  0  0  0  0  0  0  0  0  0
  -21.0180  -29.8490   21.7550 H   0  0  0  0  0  0  0  0  0  0  0  0
  -18.1270  -28.0810   22.9350 C   0  0  0  0  0  0  0  0  0  0  0  0
  -20.6850  -28.3480   23.2060 C   0  0  0  0  0  3  0  0  0  0  0  0
  -20.7900  -26.9200   22.6220 C   0  0  0  0  0  2  0  0  0  0  0  0
  -19.6890  -26.6000   21.6050 C   0  0  0  0  0  2  0  0  0  0  0  0
  -18.3070  -26.7360   22.2500 C   0  0  0  0  0  2  0  0  0  0  0  0
  -19.2430  -28.8440   23.3710 C   0  0  0  0  0  0  0  0  0  0  0  0
  -19.0210  -30.0990   23.9750 C   0  0  0  0  0  3  0  0  0  0  0  0
  -17.7150  -30.5960   24.1450 C   0  0  0  0  0  3  0  0  0  0  0  0
  -16.6130  -29.8300   23.7260 C   0  0  0  0  0  3  0  0  0  0  0  0
  -16.8200  -28.5740   23.1280 C   0  0  0  0  0  3  0  0  0  0  0  0
  -25.9330  -32.5530   23.9060 C   0  0  0  0  0  3  0  0  0  0  0  0
  -26.4310  -31.7990   25.2010 C   0  0  1  0  0  0  0  0  0  0  0  0
  -25.3210  -31.5630   26.2520 C   0  0  0  0  0  1  0  0  0  0  0  0
  -27.0340  -30.4240   24.8360 C   0  0  0  0  0  1  0  0  0  0  0  0
  -27.5630  -32.6090   25.8760 C   0  0  0  0  0  1  0  0  0  0  0  0
  -25.6050  -33.9520   24.2220 N   0  0  0  0  0  0  0  0  0  0  0  0
  -25.9260  -35.0050   23.4560 C   0  0  0  0  0  0  0  0  0  0  0  0
  -26.5960  -34.8990   22.4260 O   0  0  0  0  0  0  0  0  0  0  0  0
  -25.0060  -34.1070   25.0190 H   0  0  0  0  0  0  0  0  0  0  0  0
  -24.1750  -36.7750   23.0930 C   0  0  0  0  0  1  0  0  0  0  0  0
  -25.4240  -36.3920   23.9030 C   0  0  0  0  0  3  0  0  0  0  0  0
  -27.5480  -37.3150   24.7200 C   0  0  0  0  0  1  0  0  0  0  0  0
  -26.4450  -37.4560   23.7740 N   0  0  0  0  0  0  0  0  0  0  0  0
  -26.0270  -38.3740   23.9080 H   0  0  0  0  0  0  0  0  0  0  0  0
  1  3  1  0
  2  5  1  0
  3  8  1  0
  3  5  1  0
  4  1  1  0
  4  2  1  0
  4 49  1  0
  5  7  1  0
  6  5  1  0
  8 11  1  0
  9  8  2  0
 11 10  1  0
 12 11  1  0
 13 12  1  0
 14 19  1  0
 15 16  1  0
 15 14  1  0
 17 16  1  0
 17 24  1  0
 17 18  1  0
 19 13  1  0
 19 18  1  0
 20 13  2  0
 21 22  2  0
 22 41  1  0
 23 22  1  0
 23 26  1  0
 24 25  1  0
 24 21  1  0
 25 23  2  0
 26 27  1  0
 27 28  2  0
 29 32  1  0
 29 28  1  0
 30 29  2  0
 31 30  1  0
 31 26  2  0
 32 33  1  0
 33 34  1  0
 34 35  2  0
 36 35  1  0
 36 40  1  0
 37 36  2  0
 38 33  2  0
 38 37  1  0
 39 38  1  0
 41 42  1  0
 42 45  1  0
 42 44  1  0
 43 41  2  0
 46 47  1  0
 46 21  1  0
 48 46  1  0
 50 52  1  0
 50 49  1  0
 51 62  2  0
 52 57  1  0
 53 61  1  0
 53 63  1  0
 54 60  1  0
 54 56  1  0
 55 61  1  0
 56 57  2  0
 56 55  1  0
 58 52  2  0
 59 58  1  0
 59 54  2  0
 60 53  1  0
 61 51  1  0
 63 65  2  0
 64 63  1  0
 66 64  1  0
 67 76  2  0
 67 72  1  0
 68 64  1  0
 68 72  1  0
 69 68  1  0
 70 71  1  0
 70 69  1  0
 71 67  1  0
 72 73  2  0
 73 74  1  0
 75 74  2  0
 76 75  1  0
 77 51  1  0
 77 82  1  0
 77 78  1  0
 78 81  1  1
 78 79  1  0
 80 78  1  0
 82 85  1  0
 83 87  1  0
 83 82  1  0
 84 83  2  0
 87 86  1  0
 89 87  1  0
 89 90  1  0
 89 88  1  0
M  ISO  4  12 100  13 100  49 101  50 101
M  END
>  <TORSDO>  (64) 
F 20

>  <SCORE>  (64) 
-13.854

>  <name>  (64) 
63

>  <ligand_id>  (64) 
63

>  <original_smiles>  (64) 
[H]c1c([H])c([H])c2c(c1[H])C([H])([H])C([H])([H])C([H])([H])C2([H])N([H])C(=O)C1([H])N(C(=O)C([H])(N([H])C(=O)C([H])(N([H])C([H])([H])[H])C([H])([H])[H])C(C([H])([H])[H])(C([H])([H])[H])C([H])([H])[H])C([H])([H])c2c([H])c(OC([H])([H])C3([H])C([H])([H])C([H])(C(=O)C([H])(C([H])([H])[H])C([H])([H])C(=O)N4C([H])([H])C([H])([H])C([H])([H])C([H])(n5nc(-c6c([H])c([H])c(Oc7c([H])c([H])c(F)c([H])c7F)c([H])c6[H])c(C(=O)N([H])[H])c5N([H])[H])C4([H])[H])[N+]([H])([H])C3([H])[H])c([H])c([H])c2C1([H])[H]

>  <smiles>  (64) 
[H]c1c([H])c([H])c2c(c1[H])C([H])([H])C([H])([H])C([H])([H])C2([H])N([H])C(=O)C1([H])N(C(=O)C([H])(N([H])C(=O)C([H])(N([H])C([H])([H])[H])C([H])([H])[H])C(C([H])([H])[H])(C([H])([H])[H])C([H])([H])[H])C([H])([H])c2c([H])c(OC([H])([H])C3([H])C([H])([H])C([H])(C(=O)C([H])(C([H])([H])[H])C([H])([H])C(=O)N4C([H])([H])C([H])([H])C([H])([H])C([H])(n5nc(-c6c([H])c([H])c(Oc7c([H])c([H])c(F)c([H])c7F)c([H])c6[H])c(C(=O)N([H])[H])c5N([H])[H])C4([H])[H])[N+]([H])([H])C3([H])[H])c([H])c([H])c2C1([H])[H]

$$$$
64:0:0
     RDKit          3D

 91100  0  0  1  0  0  0  0  0999 V2000
  -29.3010  -20.1970   21.1320 C   0  0  0  0  0  2  0  0  0  0  0  0
  -30.7370  -15.1430   20.7310 C   0  0  0  0  0  0  0  0  0  0  0  0
  -30.6740  -12.7570   19.8560 C   0  0  0  0  0  2  0  0  0  0  0  0
  -29.8500  -12.6240   18.5560 C   0  0  0  0  0  2  0  0  0  0  0  0
  -28.3630  -12.3970   18.8820 C   0  0  0  0  0  2  0  0  0  0  0  0
  -27.8460  -13.3590   19.9840 C   0  0  0  0  0  3  0  0  0  0  0  0
  -28.8100  -13.4750   21.1830 C   0  0  0  0  0  2  0  0  0  0  0  0
  -30.1100  -13.8940   20.6490 N   0  0  0  0  0  0  0  0  0  0  0  0
  -31.9650  -15.1290   20.5760 O   0  0  0  0  0  0  0  0  0  0  0  0
  -30.6850  -17.6750   21.5450 C   0  0  0  0  0  2  0  0  0  0  0  0
  -29.0530  -17.3100   20.3090 C   0  0  0  0  0  3  0  0  0  0  0  0
  -29.8630  -18.6690   20.6130 C   0  0  0  0  0  3  0  0  0  0  0  0
  -30.0900  -16.4070   20.9720 N   0  0  0  0  0  0  0  0  0  0  0  0
  -25.4080  -13.9010   20.5220 C   0  0  0  0  0  0  0  0  0  0  0  0
  -24.3340  -13.1150   20.8310 C   0  0  0  0  0  0  0  0  0  0  0  0
  -24.8270  -11.7730   20.8810 C   0  0  0  0  0  0  0  0  0  0  0  0
  -26.4840  -13.0400   20.3940 N   0  0  0  0  0  0  0  0  0  0  0  0
  -26.1390  -11.7580   20.6760 N   0  0  0  0  0  0  0  0  0  0  0  0
  -24.1120  -10.5020   21.0500 C   0  0  0  0  0  0  0  0  0  0  0  0
  -24.4840   -9.5720   22.0470 C   0  0  0  0  0  3  0  0  0  0  0  0
  -23.7670   -8.3660   22.2050 C   0  0  0  0  0  3  0  0  0  0  0  0
  -22.6650   -8.0810   21.3630 C   0  0  0  0  0  0  0  0  0  0  0  0
  -22.3140   -8.9990   20.3580 C   0  0  0  0  0  3  0  0  0  0  0  0
  -23.0320  -10.1970   20.1990 C   0  0  0  0  0  3  0  0  0  0  0  0
  -21.9260   -6.9240   21.4260 O   0  0  0  0  0  0  0  0  0  0  0  0
  -21.7900   -6.2190   22.5950 C   0  0  0  0  0  0  0  0  0  0  0  0
  -21.2320   -6.7980   23.7550 C   0  0  0  0  0  3  0  0  0  0  0  0
  -21.0480   -6.0180   24.9140 C   0  0  0  0  0  3  0  0  0  0  0  0
  -21.4140   -4.6580   24.9120 C   0  0  0  0  0  0  0  0  0  0  0  0
  -21.9640   -4.0780   23.7550 C   0  0  0  0  0  3  0  0  0  0  0  0
  -22.1490   -4.8550   22.6000 C   0  0  0  0  0  0  0  0  0  0  0  0
  -22.6610   -4.2860   21.4810 F   0  0  0  0  0  0  0  0  0  0  0  0
  -21.2310   -3.9050   26.0220 F   0  0  0  0  0  0  0  0  0  0  0  0
  -22.9110  -13.5690   20.9680 C   0  0  0  0  0  0  0  0  0  0  0  0
  -22.1250  -12.8820   21.7910 N   0  0  0  0  0  0  0  0  0  0  0  0
  -22.5010  -14.5710   20.3830 O   0  0  0  0  0  0  0  0  0  0  0  0
  -22.4690  -12.0750   22.2870 H   0  0  0  0  0  0  0  0  0  0  0  0
  -21.1660  -13.1710   21.9260 H   0  0  0  0  0  0  0  0  0  0  0  0
  -25.5600  -15.2680   20.3120 N   0  0  0  0  0  0  0  0  0  0  0  0
  -24.7740  -15.9080   20.3310 H   0  0  0  0  0  0  0  0  0  0  0  0
  -26.4200  -15.6990   20.0030 H   0  0  0  0  0  0  0  0  0  0  0  0
  -28.8740  -17.0920   18.7980 C   0  0  0  0  0  0  0  0  0  0  0  0
  -28.2020  -18.0260   18.1400 N   0  0  0  0  0  0  0  0  0  0  0  0
  -29.3400  -16.1140   18.2190 O   0  0  0  0  0  0  0  0  0  0  0  0
  -27.8490  -18.8360   18.6310 H   0  0  0  0  0  0  0  0  0  0  0  0
  -28.0780  -17.9640   17.1400 H   0  0  0  0  0  0  0  0  0  0  0  0
  -27.5990  -22.1800   20.5870 C   0  0  0  0  0  2  0  0  0  0  0  0
  -28.9450  -21.6020   20.2690 C   0  0  0  0  0  3  0  0  0  0  0  0
  -28.6630  -23.2510   20.6780 C   0  0  0  0  0  3  0  0  0  0  0  0
  -28.1340  -24.6710   19.9250 C   0  0  0  0  0  2  0  0  0  0  0  0
  -28.3210  -26.2030   20.2500 O   0  0  0  0  0  0  0  0  0  0  0  0
  -24.6220  -31.8890   23.1680 C   0  0  0  0  0  0  0  0  0  0  0  0
  -27.2690  -27.1970   20.1360 C   0  0  0  0  0  0  0  0  0  0  0  0
  -23.4480  -30.4840   21.5190 C   0  0  0  0  0  3  0  0  0  0  0  0
  -24.9250  -28.9370   20.0890 C   0  0  0  0  0  0  0  0  0  0  0  0
  -26.0010  -30.7750   21.3730 C   0  0  0  0  0  2  0  0  0  0  0  0
  -26.0940  -29.3840   20.7160 C   0  0  0  0  0  0  0  0  0  0  0  0
  -27.2620  -28.5280   20.7280 C   0  0  0  0  0  3  0  0  0  0  0  0
  -26.0810  -26.8750   19.4410 C   0  0  0  0  0  3  0  0  0  0  0  0
  -24.9340  -27.6970   19.4360 C   0  0  0  0  0  3  0  0  0  0  0  0
  -23.6850  -29.8170   20.1380 C   0  0  0  0  0  2  0  0  0  0  0  0
  -24.7100  -31.0730   22.0730 N   0  0  0  0  0  0  0  0  0  0  0  0
  -23.5290  -32.1540   23.6950 O   0  0  0  0  0  0  0  0  0  0  0  0
  -22.7780  -29.4630   22.4740 C   0  0  0  0  0  0  0  0  0  0  0  0
  -21.4490  -29.2920   22.3570 N   0  0  0  0  0  0  0  0  0  0  0  0
  -23.4580  -28.8270   23.2830 O   0  0  0  0  0  0  0  0  0  0  0  0
  -20.9560  -29.8550   21.6780 H   0  0  0  0  0  0  0  0  0  0  0  0
  -18.0710  -28.1040   22.9020 C   0  0  0  0  0  0  0  0  0  0  0  0
  -20.6360  -28.3460   23.1250 C   0  0  0  0  0  3  0  0  0  0  0  0
  -20.7170  -26.9240   22.5210 C   0  0  0  0  0  2  0  0  0  0  0  0
  -19.5940  -26.6280   21.5210 C   0  0  0  0  0  2  0  0  0  0  0  0
  -18.2260  -26.7680   22.1940 C   0  0  0  0  0  2  0  0  0  0  0  0
  -19.2020  -28.8520   23.3250 C   0  0  0  0  0  0  0  0  0  0  0  0
  -19.0000  -30.1020   23.9490 C   0  0  0  0  0  3  0  0  0  0  0  0
  -17.7010  -30.6030   24.1530 C   0  0  0  0  0  3  0  0  0  0  0  0
  -16.5840  -29.8520   23.7450 C   0  0  0  0  0  3  0  0  0  0  0  0
  -16.7710  -28.6050   23.1240 C   0  0  0  0  0  3  0  0  0  0  0  0
  -25.8870  -32.5420   23.8030 C   0  0  0  0  0  3  0  0  0  0  0  0
  -26.4020  -31.7770   25.0850 C   0  0  1  0  0  0  0  0  0  0  0  0
  -25.3030  -31.5280   26.1440 C   0  0  0  0  0  1  0  0  0  0  0  0
  -27.0050  -30.4040   24.7060 C   0  0  0  0  0  1  0  0  0  0  0  0
  -27.5370  -32.5860   25.7550 C   0  0  0  0  0  1  0  0  0  0  0  0
  -25.5520  -33.9350   24.1380 N   0  0  0  0  0  0  0  0  0  0  0  0
  -25.8790  -35.0020   23.3950 C   0  0  0  0  0  0  0  0  0  0  0  0
  -26.5590  -34.9150   22.3690 O   0  0  0  0  0  0  0  0  0  0  0  0
  -24.9520  -34.0740   24.9380 H   0  0  0  0  0  0  0  0  0  0  0  0
  -24.1430  -36.7900   23.0330 C   0  0  0  0  0  1  0  0  0  0  0  0
  -25.3720  -36.3810   23.8630 C   0  0  0  0  0  3  0  0  0  0  0  0
  -27.4790  -37.2760   24.7520 C   0  0  0  0  0  1  0  0  0  0  0  0
  -26.3970  -37.4430   23.7850 N   0  0  0  0  0  0  0  0  0  0  0  0
  -25.9810  -38.3580   23.9310 H   0  0  0  0  0  0  0  0  0  0  0  0
  2 13  1  0
  3  8  1  0
  4  5  1  0
  4  3  1  0
  6  5  1  0
  6 17  1  0
  6  7  1  0
  8  2  1  0
  8  7  1  0
  9  2  2  0
 11 42  1  0
 11 12  1  0
 11 13  1  0
 12  1  1  0
 12 10  1  0
 13 10  1  0
 14 15  2  0
 15 16  1  0
 15 34  1  0
 16 19  1  0
 17 14  1  0
 17 18  1  0
 18 16  2  0
 19 20  1  0
 20 21  2  0
 22 25  1  0
 22 21  1  0
 23 22  2  0
 24 23  1  0
 24 19  2  0
 25 26  1  0
 26 31  2  0
 26 27  1  0
 27 28  2  0
 29 28  1  0
 29 33  1  0
 30 29  2  0
 31 30  1  0
 32 31  1  0
 34 35  1  0
 35 38  1  0
 35 37  1  0
 36 34  2  0
 39 40  1  0
 39 14  1  0
 41 39  1  0
 43 45  1  0
 43 42  1  0
 44 42  2  0
 46 43  1  0
 47 49  1  0
 48 47  1  0
 48 49  1  0
 48  1  1  0
 49 50  1  0
 50 51  1  0
 52 63  2  0
 53 51  1  0
 53 58  1  0
 54 62  1  0
 54 64  1  0
 55 61  1  0
 55 57  1  0
 56 62  1  0
 57 58  2  0
 57 56  1  0
 59 53  2  0
 60 59  1  0
 60 55  2  0
 61 54  1  0
 62 52  1  0
 64 66  2  0
 65 64  1  0
 67 65  1  0
 68 77  2  0
 68 73  1  0
 69 65  1  0
 69 73  1  0
 70 69  1  0
 71 72  1  0
 71 70  1  0
 72 68  1  0
 73 74  2  0
 74 75  1  0
 76 75  2  0
 77 76  1  0
 78 52  1  0
 78 83  1  0
 78 79  1  0
 79 82  1  1
 79 80  1  0
 81 79  1  0
 83 86  1  0
 84 88  1  0
 84 83  1  0
 85 84  2  0
 88 87  1  0
 90 88  1  0
 90 91  1  0
 90 89  1  0
M  ISO  4   2 100  13 100  50 101  51 101
M  END
>  <TORSDO>  (65) 
F 19

>  <SCORE>  (65) 
-14.141

>  <name>  (65) 
64

>  <ligand_id>  (65) 
64

>  <original_smiles>  (65) 
[H]c1c([H])c([H])c2c(c1[H])C([H])([H])C([H])([H])C([H])([H])C2([H])N([H])C(=O)C1([H])N(C(=O)C([H])(N([H])C(=O)C([H])(N([H])C([H])([H])[H])C([H])([H])[H])C(C([H])([H])[H])(C([H])([H])[H])C([H])([H])[H])C([H])([H])c2c([H])c(OC([H])([H])C3([H])C([H])([H])C3([H])C([H])([H])C3([H])C([H])([H])N(C(=O)N4C([H])([H])C([H])([H])C([H])([H])C([H])(n5nc(-c6c([H])c([H])c(Oc7c([H])c([H])c(F)c([H])c7F)c([H])c6[H])c(C(=O)N([H])[H])c5N([H])[H])C4([H])[H])C3([H])C(=O)N([H])[H])c([H])c([H])c2C1([H])[H]

>  <smiles>  (65) 
[H]c1c([H])c([H])c2c(c1[H])C([H])([H])C([H])([H])C([H])([H])C2([H])N([H])C(=O)C1([H])N(C(=O)C([H])(N([H])C(=O)C([H])(N([H])C([H])([H])[H])C([H])([H])[H])C(C([H])([H])[H])(C([H])([H])[H])C([H])([H])[H])C([H])([H])c2c([H])c(OC([H])([H])C3([H])C([H])([H])C3([H])C([H])([H])C3([H])C([H])([H])N(C(=O)N4C([H])([H])C([H])([H])C([H])([H])C([H])(n5nc(-c6c([H])c([H])c(Oc7c([H])c([H])c(F)c([H])c7F)c([H])c6[H])c(C(=O)N([H])[H])c5N([H])[H])C4([H])[H])C3([H])C(=O)N([H])[H])c([H])c([H])c2C1([H])[H]

$$$$
65:0:0
     RDKit          3D

 87 95  0  0  1  0  0  0  0  0999 V2000
  -29.5470  -23.1300   21.7970 C   0  0  0  0  0  1  0  0  0  0  0  0
  -28.8610  -23.0400   20.4300 C   0  0  0  0  0  3  0  0  0  0  0  0
  -28.3250  -21.3930   20.2310 C   0  0  0  0  0  2  0  0  0  0  0  0
  -29.6390  -17.4990   21.2800 C   0  0  0  0  0  3  0  0  0  0  0  0
  -29.6920  -17.6390   18.9670 C   0  0  0  0  0  3  0  0  0  0  0  0
  -29.2410  -18.9280   21.3420 C   0  0  0  0  0  3  0  0  0  0  0  0
  -29.2940  -19.0550   19.0320 C   0  0  0  0  0  3  0  0  0  0  0  0
  -29.8910  -16.7250   20.0750 C   0  0  0  0  0  0  0  0  0  0  0  0
  -29.0490  -19.8390   20.2210 C   0  0  0  0  0  0  0  0  0  0  0  0
  -30.5760  -15.2240   19.9200 C   0  0  0  0  0  0  0  0  0  0  0  0
  -30.4580  -12.8250   19.0220 C   0  0  0  0  0  2  0  0  0  0  0  0
  -29.4610  -12.6890   17.8460 C   0  0  0  0  0  2  0  0  0  0  0  0
  -28.0390  -12.4250   18.3720 C   0  0  0  0  0  2  0  0  0  0  0  0
  -27.6710  -13.3660   19.5480 C   0  0  0  0  0  3  0  0  0  0  0  0
  -28.7850  -13.4710   20.6070 C   0  0  0  0  0  2  0  0  0  0  0  0
  -29.9930  -13.9400   19.9220 N   0  0  0  0  0  0  0  0  0  0  0  0
  -31.7610  -15.2180   19.5610 O   0  0  0  0  0  0  0  0  0  0  0  0
  -25.3720  -13.8920   20.5160 C   0  0  0  0  0  0  0  0  0  0  0  0
  -24.3400  -13.0940   20.9300 C   0  0  0  0  0  0  0  0  0  0  0  0
  -24.7990  -11.7480   20.7950 C   0  0  0  0  0  0  0  0  0  0  0  0
  -26.3860  -13.0280   20.1410 N   0  0  0  0  0  0  0  0  0  0  0  0
  -26.0610  -11.7300   20.3780 N   0  0  0  0  0  0  0  0  0  0  0  0
  -24.0850  -10.4770   20.9790 C   0  0  0  0  0  0  0  0  0  0  0  0
  -24.5300   -9.5030   21.9020 C   0  0  0  0  0  3  0  0  0  0  0  0
  -23.8120   -8.3000   22.0750 C   0  0  0  0  0  3  0  0  0  0  0  0
  -22.6340   -8.0630   21.3260 C   0  0  0  0  0  0  0  0  0  0  0  0
  -22.2100   -9.0240   20.3910 C   0  0  0  0  0  3  0  0  0  0  0  0
  -22.9290  -10.2180   20.2170 C   0  0  0  0  0  3  0  0  0  0  0  0
  -21.8870   -6.9110   21.4080 O   0  0  0  0  0  0  0  0  0  0  0  0
  -21.7790   -6.2070   22.5790 C   0  0  0  0  0  0  0  0  0  0  0  0
  -21.2710   -6.7960   23.7580 C   0  0  0  0  0  3  0  0  0  0  0  0
  -21.1120   -6.0160   24.9210 C   0  0  0  0  0  3  0  0  0  0  0  0
  -21.4490   -4.6490   24.9060 C   0  0  0  0  0  0  0  0  0  0  0  0
  -21.9500   -4.0610   23.7310 C   0  0  0  0  0  3  0  0  0  0  0  0
  -22.1110   -4.8370   22.5710 C   0  0  0  0  0  0  0  0  0  0  0  0
  -22.5730   -4.2610   21.4340 F   0  0  0  0  0  0  0  0  0  0  0  0
  -21.2900   -3.8970   26.0200 F   0  0  0  0  0  0  0  0  0  0  0  0
  -22.9710  -13.5570   21.3320 C   0  0  0  0  0  0  0  0  0  0  0  0
  -22.3170  -12.8310   22.2310 N   0  0  0  0  0  0  0  0  0  0  0  0
  -22.4930  -14.5990   20.8850 O   0  0  0  0  0  0  0  0  0  0  0  0
  -22.7170  -11.9850   22.6140 H   0  0  0  0  0  0  0  0  0  0  0  0
  -21.4030  -13.1240   22.5430 H   0  0  0  0  0  0  0  0  0  0  0  0
  -25.5250  -15.2690   20.4010 N   0  0  0  0  0  0  0  0  0  0  0  0
  -24.7800  -15.9190   20.6320 H   0  0  0  0  0  0  0  0  0  0  0  0
  -26.3590  -15.7310   20.0600 H   0  0  0  0  0  0  0  0  0  0  0  0
  -27.8840  -24.4830   20.2650 C   0  0  0  0  0  2  0  0  0  0  0  0
  -28.2130  -26.0540   20.3240 O   0  0  0  0  0  0  0  0  0  0  0  0
  -24.6420  -31.8720   23.2840 C   0  0  0  0  0  0  0  0  0  0  0  0
  -27.1960  -27.1080   20.2430 C   0  0  0  0  0  0  0  0  0  0  0  0
  -23.4470  -30.5010   21.6230 C   0  0  0  0  0  3  0  0  0  0  0  0
  -24.8990  -28.9300   20.1880 C   0  0  0  0  0  0  0  0  0  0  0  0
  -26.0080  -30.7430   21.4760 C   0  0  0  0  0  2  0  0  0  0  0  0
  -26.0800  -29.3500   20.8100 C   0  0  0  0  0  0  0  0  0  0  0  0
  -27.2320  -28.4590   20.8100 C   0  0  0  0  0  3  0  0  0  0  0  0
  -25.9860  -26.8130   19.5760 C   0  0  0  0  0  3  0  0  0  0  0  0
  -24.8700  -27.6820   19.5510 C   0  0  0  0  0  3  0  0  0  0  0  0
  -23.6780  -29.8420   20.2370 C   0  0  0  0  0  2  0  0  0  0  0  0
  -24.7190  -31.0630   22.1810 N   0  0  0  0  0  0  0  0  0  0  0  0
  -23.5550  -32.1510   23.8120 O   0  0  0  0  0  0  0  0  0  0  0  0
  -22.7620  -29.4840   22.5700 C   0  0  0  0  0  0  0  0  0  0  0  0
  -21.4340  -29.3090   22.4340 N   0  0  0  0  0  0  0  0  0  0  0  0
  -23.4270  -28.8520   23.3940 O   0  0  0  0  0  0  0  0  0  0  0  0
  -20.9520  -29.8730   21.7490 H   0  0  0  0  0  0  0  0  0  0  0  0
  -18.0500  -28.1000   22.9140 C   0  0  0  0  0  0  0  0  0  0  0  0
  -20.6090  -28.3620   23.1890 C   0  0  0  0  0  3  0  0  0  0  0  0
  -20.7120  -26.9380   22.5950 C   0  0  0  0  0  2  0  0  0  0  0  0
  -19.6130  -26.6270   21.5740 C   0  0  0  0  0  2  0  0  0  0  0  0
  -18.2290  -26.7610   22.2160 C   0  0  0  0  0  2  0  0  0  0  0  0
  -19.1670  -28.8570   23.3560 C   0  0  0  0  0  0  0  0  0  0  0  0
  -18.9430  -30.1070   23.9740 C   0  0  0  0  0  3  0  0  0  0  0  0
  -17.6370  -30.6030   24.1450 C   0  0  0  0  0  3  0  0  0  0  0  0
  -16.5350  -29.8430   23.7200 C   0  0  0  0  0  3  0  0  0  0  0  0
  -16.7420  -28.5920   23.1110 C   0  0  0  0  0  3  0  0  0  0  0  0
  -25.9170  -32.5010   23.9260 C   0  0  0  0  0  3  0  0  0  0  0  0
  -26.3950  -31.7430   25.2280 C   0  0  1  0  0  0  0  0  0  0  0  0
  -25.2750  -31.5340   26.2750 C   0  0  0  0  0  1  0  0  0  0  0  0
  -26.9660  -30.3510   24.8730 C   0  0  0  0  0  1  0  0  0  0  0  0
  -27.5440  -32.5310   25.9010 C   0  0  0  0  0  1  0  0  0  0  0  0
  -25.6170  -33.9060   24.2430 N   0  0  0  0  0  0  0  0  0  0  0  0
  -25.9420  -34.9510   23.4690 C   0  0  0  0  0  0  0  0  0  0  0  0
  -26.5960  -34.8320   22.4290 O   0  0  0  0  0  0  0  0  0  0  0  0
  -25.0460  -34.0750   25.0590 H   0  0  0  0  0  0  0  0  0  0  0  0
  -24.2080  -36.7430   23.1430 C   0  0  0  0  0  1  0  0  0  0  0  0
  -25.4720  -36.3480   23.9220 C   0  0  0  0  0  3  0  0  0  0  0  0
  -27.6320  -37.2460   24.6740 C   0  0  0  0  0  1  0  0  0  0  0  0
  -26.5010  -37.3990   23.7600 N   0  0  0  0  0  0  0  0  0  0  0  0
  -26.0990  -38.3210   23.9050 H   0  0  0  0  0  0  0  0  0  0  0  0
  2  1  1  0
  3  2  1  0
  4  6  1  0
  5  7  2  0
  5  8  1  0
  7  9  1  0
  8  4  2  0
  9  3  1  0
  9  6  2  0
 10 16  1  0
 10  8  1  0
 11 16  1  0
 12 13  1  0
 12 11  1  0
 14 13  1  0
 14 21  1  0
 14 15  1  0
 16 15  1  0
 17 10  2  0
 18 19  2  0
 19 38  1  0
 20 19  1  0
 20 23  1  0
 21 22  1  0
 21 18  1  0
 22 20  2  0
 23 24  1  0
 24 25  2  0
 26 29  1  0
 26 25  1  0
 27 26  2  0
 28 27  1  0
 28 23  2  0
 29 30  1  0
 30 31  1  0
 31 32  2  0
 33 32  1  0
 33 37  1  0
 34 33  2  0
 35 30  2  0
 35 34  1  0
 36 35  1  0
 38 39  1  0
 39 42  1  0
 39 41  1  0
 40 38  2  0
 43 18  1  0
 43 44  1  0
 45 43  1  0
 46 47  1  0
 46  2  1  0
 48 59  2  0
 49 47  1  0
 49 54  1  0
 50 58  1  0
 50 60  1  0
 51 57  1  0
 51 53  1  0
 52 58  1  0
 53 52  1  0
 54 53  2  0
 55 49  2  0
 56 55  1  0
 56 51  2  0
 57 50  1  0
 58 48  1  0
 60 62  2  0
 61 60  1  0
 63 61  1  0
 64 73  2  0
 64 69  1  0
 65 61  1  0
 65 69  1  0
 66 65  1  0
 67 68  1  0
 67 66  1  0
 68 64  1  0
 69 70  2  0
 70 71  1  0
 72 71  2  0
 73 72  1  0
 74 48  1  0
 74 79  1  0
 74 75  1  0
 75 78  1  1
 75 76  1  0
 77 75  1  0
 79 82  1  0
 80 84  1  0
 80 79  1  0
 81 80  2  0
 84 83  1  0
 86 87  1  0
 86 84  1  0
 86 85  1  0
M  ISO  4   8 100  10 100  46 101  47 101
M  END
>  <TORSDO>  (66) 
F 19

>  <SCORE>  (66) 
-14.965

>  <name>  (66) 
65

>  <ligand_id>  (66) 
65

>  <original_smiles>  (66) 
[H]c1c([H])c([H])c2c(c1[H])C([H])([H])C([H])([H])C([H])([H])C2([H])N([H])C(=O)C1([H])N(C(=O)C([H])(N([H])C(=O)C([H])(N([H])C([H])([H])[H])C([H])([H])[H])C(C([H])([H])[H])(C([H])([H])[H])C([H])([H])[H])C([H])([H])c2c([H])c(OC([H])([H])C([H])(C([H])([H])[H])C([H])([H])c3c([H])c([H])c(C(=O)N4C([H])([H])C([H])([H])C([H])([H])C([H])(n5nc(-c6c([H])c([H])c(Oc7c([H])c([H])c(F)c([H])c7F)c([H])c6[H])c(C(=O)N([H])[H])c5N([H])[H])C4([H])[H])c([H])c3[H])c([H])c([H])c2C1([H])[H]

>  <smiles>  (66) 
[H]c1c([H])c([H])c2c(c1[H])C([H])([H])C([H])([H])C([H])([H])C2([H])N([H])C(=O)C1([H])N(C(=O)C([H])(N([H])C(=O)C([H])(N([H])C([H])([H])[H])C([H])([H])[H])C(C([H])([H])[H])(C([H])([H])[H])C([H])([H])[H])C([H])([H])c2c([H])c(OC([H])([H])C([H])(C([H])([H])[H])C([H])([H])c3c([H])c([H])c(C(=O)N4C([H])([H])C([H])([H])C([H])([H])C([H])(n5nc(-c6c([H])c([H])c(Oc7c([H])c([H])c(F)c([H])c7F)c([H])c6[H])c(C(=O)N([H])[H])c5N([H])[H])C4([H])[H])c([H])c3[H])c([H])c([H])c2C1([H])[H]

$$$$
66:0:0
     RDKit          3D

 86 94  0  0  1  0  0  0  0  0999 V2000
  -28.9990  -22.8310   21.6490 C   0  0  0  0  0  2  0  0  0  0  0  0
  -28.6580  -21.9300   20.4790 C   0  0  0  0  0  3  0  0  0  0  0  0
  -29.0000  -23.5330   20.3140 C   0  0  0  0  0  3  0  0  0  0  0  0
  -29.6210  -20.6400   20.3130 C   0  0  0  0  0  0  0  0  0  0  0  0
  -30.7900  -20.8320   19.9660 O   0  0  0  0  0  0  0  0  0  0  0  0
  -29.1780  -19.0990   20.6060 C   0  0  0  0  0  3  0  0  0  0  0  0
  -30.1460  -17.7740   20.3460 C   0  0  0  0  0  3  0  0  0  0  0  0
  -29.7110  -16.2330   20.7760 C   0  0  0  0  0  2  0  0  0  0  0  0
  -30.5400  -14.8760   20.3920 C   0  0  0  0  0  0  0  0  0  0  0  0
  -30.4040  -12.5690   19.3790 C   0  0  0  0  0  2  0  0  0  0  0  0
  -29.4700  -12.6160   18.1460 C   0  0  0  0  0  2  0  0  0  0  0  0
  -27.9990  -12.4210   18.5660 C   0  0  0  0  0  2  0  0  0  0  0  0
  -27.6080  -13.3100   19.7750 C   0  0  0  0  0  3  0  0  0  0  0  0
  -28.6600  -13.2440   20.9030 C   0  0  0  0  0  2  0  0  0  0  0  0
  -29.9570  -13.6200   20.3290 N   0  0  0  0  0  0  0  0  0  0  0  0
  -31.7170  -14.9830   20.0310 O   0  0  0  0  0  0  0  0  0  0  0  0
  -25.2170  -13.8970   20.4920 C   0  0  0  0  0  0  0  0  0  0  0  0
  -24.1500  -13.1210   20.8550 C   0  0  0  0  0  0  0  0  0  0  0  0
  -24.6150  -11.7710   20.8280 C   0  0  0  0  0  0  0  0  0  0  0  0
  -26.2630  -13.0180   20.2600 N   0  0  0  0  0  0  0  0  0  0  0  0
  -25.9080  -11.7340   20.5260 N   0  0  0  0  0  0  0  0  0  0  0  0
  -23.8870  -10.5080   21.0150 C   0  0  0  0  0  0  0  0  0  0  0  0
  -24.3050   -9.5480   21.9620 C   0  0  0  0  0  3  0  0  0  0  0  0
  -23.5780   -8.3510   22.1360 C   0  0  0  0  0  3  0  0  0  0  0  0
  -22.4200   -8.1050   21.3620 C   0  0  0  0  0  0  0  0  0  0  0  0
  -22.0200   -9.0540   20.4060 C   0  0  0  0  0  3  0  0  0  0  0  0
  -22.7480  -10.2430   20.2290 C   0  0  0  0  0  3  0  0  0  0  0  0
  -21.6650   -6.9600   21.4450 O   0  0  0  0  0  0  0  0  0  0  0  0
  -21.5890   -6.2300   22.6040 C   0  0  0  0  0  0  0  0  0  0  0  0
  -21.1260   -6.7960   23.8120 C   0  0  0  0  0  3  0  0  0  0  0  0
  -20.9970   -5.9930   24.9620 C   0  0  0  0  0  3  0  0  0  0  0  0
  -21.3220   -4.6250   24.9060 C   0  0  0  0  0  0  0  0  0  0  0  0
  -21.7770   -4.0580   23.7030 C   0  0  0  0  0  3  0  0  0  0  0  0
  -21.9070   -4.8570   22.5550 C   0  0  0  0  0  0  0  0  0  0  0  0
  -22.3270   -4.3020   21.3930 F   0  0  0  0  0  0  0  0  0  0  0  0
  -21.1900   -3.8500   26.0090 F   0  0  0  0  0  0  0  0  0  0  0  0
  -22.7500  -13.5980   21.1160 C   0  0  0  0  0  0  0  0  0  0  0  0
  -22.0170  -12.9020   21.9780 N   0  0  0  0  0  0  0  0  0  0  0  0
  -22.3160  -14.6240   20.5930 O   0  0  0  0  0  0  0  0  0  0  0  0
  -22.3810  -12.0730   22.4230 H   0  0  0  0  0  0  0  0  0  0  0  0
  -21.0770  -13.2030   22.1950 H   0  0  0  0  0  0  0  0  0  0  0  0
  -25.3820  -15.2670   20.3170 N   0  0  0  0  0  0  0  0  0  0  0  0
  -24.6150  -15.9220   20.4280 H   0  0  0  0  0  0  0  0  0  0  0  0
  -26.2370  -15.7080   20.0020 H   0  0  0  0  0  0  0  0  0  0  0  0
  -27.9820  -24.7890   20.0670 C   0  0  0  0  0  2  0  0  0  0  0  0
  -28.2660  -26.2850   20.2430 O   0  0  0  0  0  0  0  0  0  0  0  0
  -24.6220  -31.8930   23.2280 C   0  0  0  0  0  0  0  0  0  0  0  0
  -27.1930  -27.2310   20.1770 C   0  0  0  0  0  0  0  0  0  0  0  0
  -23.4130  -30.5030   21.5890 C   0  0  0  0  0  3  0  0  0  0  0  0
  -24.8560  -28.9380   20.1580 C   0  0  0  0  0  0  0  0  0  0  0  0
  -25.9630  -30.7800   21.4130 C   0  0  0  0  0  2  0  0  0  0  0  0
  -26.0350  -29.3940   20.7610 C   0  0  0  0  0  0  0  0  0  0  0  0
  -27.2050  -28.5560   20.7560 C   0  0  0  0  0  3  0  0  0  0  0  0
  -25.9850  -26.8630   19.5400 C   0  0  0  0  0  3  0  0  0  0  0  0
  -24.8400  -27.6840   19.5330 C   0  0  0  0  0  3  0  0  0  0  0  0
  -23.6270  -29.8290   20.2080 C   0  0  0  0  0  2  0  0  0  0  0  0
  -24.6860  -31.0790   22.1320 N   0  0  0  0  0  0  0  0  0  0  0  0
  -23.5380  -32.1780   23.7600 O   0  0  0  0  0  0  0  0  0  0  0  0
  -22.7390  -29.4920   22.5490 C   0  0  0  0  0  0  0  0  0  0  0  0
  -21.4110  -29.3230   22.4240 N   0  0  0  0  0  0  0  0  0  0  0  0
  -23.4120  -28.8630   23.3700 O   0  0  0  0  0  0  0  0  0  0  0  0
  -20.9250  -29.8830   21.7370 H   0  0  0  0  0  0  0  0  0  0  0  0
  -18.0270  -28.1350   22.9250 C   0  0  0  0  0  0  0  0  0  0  0  0
  -20.5870  -28.3890   23.1950 C   0  0  0  0  0  3  0  0  0  0  0  0
  -20.6840  -26.9570   22.6210 C   0  0  0  0  0  2  0  0  0  0  0  0
  -19.5830  -26.6360   21.6070 C   0  0  0  0  0  2  0  0  0  0  0  0
  -18.2010  -26.7850   22.2490 C   0  0  0  0  0  2  0  0  0  0  0  0
  -19.1480  -28.8950   23.3540 C   0  0  0  0  0  0  0  0  0  0  0  0
  -18.9310  -30.1570   23.9470 C   0  0  0  0  0  3  0  0  0  0  0  0
  -17.6260  -30.6610   24.1140 C   0  0  0  0  0  3  0  0  0  0  0  0
  -16.5210  -29.8980   23.7000 C   0  0  0  0  0  3  0  0  0  0  0  0
  -16.7230  -28.6370   23.1110 C   0  0  0  0  0  3  0  0  0  0  0  0
  -25.9040  -32.5220   23.8520 C   0  0  0  0  0  3  0  0  0  0  0  0
  -25.5950  -33.9190   24.1940 N   0  0  0  0  0  0  0  0  0  0  0  0
  -25.9150  -34.9780   23.4400 C   0  0  0  0  0  0  0  0  0  0  0  0
  -26.5690  -34.8830   22.3970 O   0  0  0  0  0  0  0  0  0  0  0  0
  -25.0120  -34.0660   25.0050 H   0  0  0  0  0  0  0  0  0  0  0  0
  -24.1740  -36.7710   23.1340 C   0  0  0  0  0  1  0  0  0  0  0  0
  -25.4340  -36.3640   23.9150 C   0  0  0  0  0  3  0  0  0  0  0  0
  -27.5840  -37.2520   24.7040 C   0  0  0  0  0  1  0  0  0  0  0  0
  -26.4610  -37.4210   23.7850 N   0  0  0  0  0  0  0  0  0  0  0  0
  -26.0560  -38.3390   23.9440 H   0  0  0  0  0  0  0  0  0  0  0  0
  -26.4200  -31.7430   25.1250 C   0  0  1  0  0  0  0  0  0  0  0  0
  -25.3290  -31.5040   26.1930 C   0  0  0  0  0  1  0  0  0  0  0  0
  -27.0000  -30.3660   24.7290 C   0  0  0  0  0  1  0  0  0  0  0  0
  -27.5730  -32.5330   25.7890 C   0  0  0  0  0  1  0  0  0  0  0  0
  2  4  1  0
  2  1  1  0
  3 45  1  0
  3  2  1  0
  3  1  1  0
  4  6  1  0
  5  4  2  0
  7  6  2  0
  7  8  1  0
  9  8  1  0
 10 15  1  0
 11 12  1  0
 11 10  1  0
 13 12  1  0
 13 20  1  0
 13 14  1  0
 15  9  1  0
 15 14  1  0
 16  9  2  0
 17 18  2  0
 18 37  1  0
 19 18  1  0
 19 22  1  0
 20 17  1  0
 20 21  1  0
 21 19  2  0
 22 23  1  0
 23 24  2  0
 25 28  1  0
 25 24  1  0
 26 25  2  0
 27 26  1  0
 27 22  2  0
 28 29  1  0
 29 30  1  0
 30 31  2  0
 32 31  1  0
 32 36  1  0
 33 32  2  0
 34 29  2  0
 34 33  1  0
 35 34  1  0
 37 38  1  0
 38 41  1  0
 38 40  1  0
 39 37  2  0
 42 43  1  0
 42 17  1  0
 44 42  1  0
 45 46  1  0
 47 58  2  0
 48 46  1  0
 48 53  1  0
 49 57  1  0
 49 59  1  0
 50 56  1  0
 50 52  1  0
 51 57  1  0
 52 51  1  0
 53 52  2  0
 54 48  2  0
 55 54  1  0
 55 50  2  0
 56 49  1  0
 57 47  1  0
 59 61  2  0
 60 59  1  0
 62 60  1  0
 63 72  2  0
 63 68  1  0
 64 60  1  0
 64 68  1  0
 65 64  1  0
 66 67  1  0
 66 65  1  0
 67 63  1  0
 68 69  2  0
 69 70  1  0
 71 70  2  0
 72 71  1  0
 73 47  1  0
 73 74  1  0
 73 83  1  0
 74 77  1  0
 75 79  1  0
 75 74  1  0
 76 75  2  0
 79 78  1  0
 81 79  1  0
 81 82  1  0
 81 80  1  0
 83 86  1  1
 83 84  1  0
 85 83  1  0
M  ISO  4   8 100   9 100  45 101  46 101
M  END
>  <TORSDO>  (67) 
F 21

>  <SCORE>  (67) 
-13.317

>  <name>  (67) 
66

>  <ligand_id>  (67) 
66

>  <original_smiles>  (67) 
[H]c1c([H])c([H])c2c(c1[H])C([H])([H])C([H])([H])C([H])([H])C2([H])N([H])C(=O)C1([H])N(C(=O)C([H])(N([H])C(=O)C([H])(N([H])C([H])([H])[H])C([H])([H])[H])C(C([H])([H])[H])(C([H])([H])[H])C([H])([H])[H])C([H])([H])c2c([H])c(OC([H])([H])C3([H])C([H])([H])C3([H])C(=O)C([H])([H])C([H])([H])C([H])([H])C(=O)N3C([H])([H])C([H])([H])C([H])([H])C([H])(n4nc(-c5c([H])c([H])c(Oc6c([H])c([H])c(F)c([H])c6F)c([H])c5[H])c(C(=O)N([H])[H])c4N([H])[H])C3([H])[H])c([H])c([H])c2C1([H])[H]

>  <smiles>  (67) 
[H]c1c([H])c([H])c2c(c1[H])C([H])([H])C([H])([H])C([H])([H])C2([H])N([H])C(=O)C1([H])N(C(=O)C([H])(N([H])C(=O)C([H])(N([H])C([H])([H])[H])C([H])([H])[H])C(C([H])([H])[H])(C([H])([H])[H])C([H])([H])[H])C([H])([H])c2c([H])c(OC([H])([H])C3([H])C([H])([H])C3([H])C(=O)C([H])([H])C([H])([H])C([H])([H])C(=O)N3C([H])([H])C([H])([H])C([H])([H])C([H])(n4nc(-c5c([H])c([H])c(Oc6c([H])c([H])c(F)c([H])c6F)c([H])c5[H])c(C(=O)N([H])[H])c4N([H])[H])C3([H])[H])c([H])c([H])c2C1([H])[H]

$$$$
67:0:0
     RDKit          3D

 88 96  0  0  1  0  0  0  0  0999 V2000
  -29.3920  -22.6070   20.2700 C   0  0  0  0  0  0  0  0  0  0  0  0
  -27.2060  -22.8200   19.6020 C   0  0  0  0  0  2  0  0  0  0  0  0
  -28.1760  -23.8460   20.3420 C   0  0  0  0  0  3  0  0  0  0  0  0
  -29.0070  -20.9310   19.7480 C   0  0  0  0  0  3  0  0  0  0  0  0
  -27.5440  -21.3020   19.8480 N   0  0  0  0  0  4  0  0  0  0  0  0
  -30.5490  -22.9140   20.5810 O   0  0  0  0  0  0  0  0  0  0  0  0
  -27.0030  -20.7210   19.2290 H   0  0  0  0  0  0  0  0  0  0  0  0
  -27.2560  -21.0740   20.7850 H   0  0  0  0  0  0  0  0  0  0  0  0
  -29.6770  -19.1290   21.7220 C   0  0  0  0  0  1  0  0  0  0  0  0
  -29.6880  -19.1670   20.1890 C   0  0  0  0  0  3  0  0  0  0  0  0
  -29.5080  -17.3130   19.6980 C   0  0  0  0  0  2  0  0  0  0  0  0
  -30.3550  -15.6510   19.7710 C   0  0  0  0  0  0  0  0  0  0  0  0
  -30.3860  -13.1230   18.9290 C   0  0  0  0  0  2  0  0  0  0  0  0
  -29.3980  -12.8070   17.7670 C   0  0  0  0  0  2  0  0  0  0  0  0
  -27.9930  -12.4810   18.3010 C   0  0  0  0  0  2  0  0  0  0  0  0
  -27.5880  -13.4480   19.4370 C   0  0  0  0  0  3  0  0  0  0  0  0
  -28.6990  -13.6930   20.4780 C   0  0  0  0  0  2  0  0  0  0  0  0
  -29.8520  -14.2830   19.7640 N   0  0  0  0  0  0  0  0  0  0  0  0
  -31.5820  -15.5890   19.5640 O   0  0  0  0  0  0  0  0  0  0  0  0
  -25.3120  -13.9890   20.4200 C   0  0  0  0  0  0  0  0  0  0  0  0
  -24.2690  -13.2140   20.8340 C   0  0  0  0  0  0  0  0  0  0  0  0
  -24.7060  -11.8580   20.7090 C   0  0  0  0  0  0  0  0  0  0  0  0
  -26.3120  -13.1120   20.0490 N   0  0  0  0  0  0  0  0  0  0  0  0
  -25.9700  -11.8190   20.2940 N   0  0  0  0  0  0  0  0  0  0  0  0
  -23.9660  -10.6020   20.9000 C   0  0  0  0  0  0  0  0  0  0  0  0
  -24.4300   -9.5980   21.7800 C   0  0  0  0  0  3  0  0  0  0  0  0
  -23.6900   -8.4100   21.9610 C   0  0  0  0  0  3  0  0  0  0  0  0
  -22.4720   -8.2170   21.2640 C   0  0  0  0  0  0  0  0  0  0  0  0
  -22.0300   -9.2090   20.3730 C   0  0  0  0  0  3  0  0  0  0  0  0
  -22.7690  -10.3890   20.1900 C   0  0  0  0  0  3  0  0  0  0  0  0
  -21.6990   -7.0850   21.3600 O   0  0  0  0  0  0  0  0  0  0  0  0
  -21.6840   -6.3160   22.4970 C   0  0  0  0  0  0  0  0  0  0  0  0
  -21.3020   -6.8460   23.7490 C   0  0  0  0  0  3  0  0  0  0  0  0
  -21.2350   -6.0030   24.8770 C   0  0  0  0  0  3  0  0  0  0  0  0
  -21.5380   -4.6350   24.7560 C   0  0  0  0  0  0  0  0  0  0  0  0
  -21.9120   -4.1050   23.5080 C   0  0  0  0  0  3  0  0  0  0  0  0
  -21.9830   -4.9420   22.3820 C   0  0  0  0  0  0  0  0  0  0  0  0
  -22.3250   -4.4230   21.1790 F   0  0  0  0  0  0  0  0  0  0  0  0
  -21.4650   -3.8240   25.8370 F   0  0  0  0  0  0  0  0  0  0  0  0
  -22.9060  -13.7020   21.2270 C   0  0  0  0  0  0  0  0  0  0  0  0
  -22.2330  -12.9840   22.1180 N   0  0  0  0  0  0  0  0  0  0  0  0
  -22.4520  -14.7540   20.7780 O   0  0  0  0  0  0  0  0  0  0  0  0
  -22.6210  -12.1350   22.4990 H   0  0  0  0  0  0  0  0  0  0  0  0
  -21.3190  -13.2860   22.4220 H   0  0  0  0  0  0  0  0  0  0  0  0
  -25.4900  -15.3650   20.2940 N   0  0  0  0  0  0  0  0  0  0  0  0
  -24.7470  -16.0250   20.4920 H   0  0  0  0  0  0  0  0  0  0  0  0
  -26.3160  -15.8020   19.9080 H   0  0  0  0  0  0  0  0  0  0  0  0
  -28.2890  -25.6020   20.2590 O   0  0  0  0  0  0  0  0  0  0  0  0
  -24.6410  -31.8270   23.1410 C   0  0  0  0  0  0  0  0  0  0  0  0
  -27.2790  -26.7720   20.2470 C   0  0  0  0  0  0  0  0  0  0  0  0
  -23.4970  -30.3950   21.5040 C   0  0  0  0  0  3  0  0  0  0  0  0
  -24.9850  -28.7530   20.1400 C   0  0  0  0  0  0  0  0  0  0  0  0
  -26.0730  -30.5800   21.4140 C   0  0  0  0  0  2  0  0  0  0  0  0
  -26.1680  -29.1400   20.7820 C   0  0  0  0  0  0  0  0  0  0  0  0
  -27.3040  -28.1770   20.8020 C   0  0  0  0  0  3  0  0  0  0  0  0
  -26.0560  -26.5830   19.5590 C   0  0  0  0  0  3  0  0  0  0  0  0
  -24.9640  -27.4980   19.5100 C   0  0  0  0  0  3  0  0  0  0  0  0
  -23.7670  -29.6880   20.1460 C   0  0  0  0  0  2  0  0  0  0  0  0
  -24.7600  -30.9670   22.0730 N   0  0  0  0  0  0  0  0  0  0  0  0
  -23.5360  -32.1170   23.6320 O   0  0  0  0  0  0  0  0  0  0  0  0
  -22.7840  -29.4150   22.4730 C   0  0  0  0  0  0  0  0  0  0  0  0
  -21.4500  -29.2700   22.3600 N   0  0  0  0  0  0  0  0  0  0  0  0
  -23.4440  -28.7810   23.3020 O   0  0  0  0  0  0  0  0  0  0  0  0
  -20.9670  -29.8330   21.6730 H   0  0  0  0  0  0  0  0  0  0  0  0
  -18.0580  -28.0960   22.9060 C   0  0  0  0  0  0  0  0  0  0  0  0
  -20.6250  -28.3360   23.1350 C   0  0  0  0  0  3  0  0  0  0  0  0
  -20.7040  -26.9070   22.5470 C   0  0  0  0  0  2  0  0  0  0  0  0
  -19.5870  -26.6070   21.5430 C   0  0  0  0  0  2  0  0  0  0  0  0
  -18.2150  -26.7550   22.2070 C   0  0  0  0  0  2  0  0  0  0  0  0
  -19.1890  -28.8460   23.3270 C   0  0  0  0  0  0  0  0  0  0  0  0
  -18.9870  -30.0980   23.9450 C   0  0  0  0  0  3  0  0  0  0  0  0
  -17.6870  -30.6020   24.1440 C   0  0  0  0  0  3  0  0  0  0  0  0
  -16.5710  -29.8510   23.7350 C   0  0  0  0  0  3  0  0  0  0  0  0
  -16.7580  -28.5990   23.1230 C   0  0  0  0  0  3  0  0  0  0  0  0
  -25.8860  -32.5050   23.7920 C   0  0  0  0  0  3  0  0  0  0  0  0
  -25.5340  -33.9000   24.1200 N   0  0  0  0  0  0  0  0  0  0  0  0
  -25.8710  -34.9720   23.3920 C   0  0  0  0  0  0  0  0  0  0  0  0
  -26.5710  -34.8930   22.3810 O   0  0  0  0  0  0  0  0  0  0  0  0
  -24.9120  -34.0330   24.9050 H   0  0  0  0  0  0  0  0  0  0  0  0
  -24.1400  -36.7650   23.0110 C   0  0  0  0  0  1  0  0  0  0  0  0
  -25.3550  -36.3510   23.8570 C   0  0  0  0  0  3  0  0  0  0  0  0
  -27.4470  -37.2500   24.7820 C   0  0  0  0  0  1  0  0  0  0  0  0
  -26.3800  -37.4180   23.8000 N   0  0  0  0  0  0  0  0  0  0  0  0
  -25.9550  -38.3310   23.9500 H   0  0  0  0  0  0  0  0  0  0  0  0
  -26.3820  -31.7590   25.0930 C   0  0  1  0  0  0  0  0  0  0  0  0
  -25.2640  -31.5180   26.1360 C   0  0  0  0  0  1  0  0  0  0  0  0
  -26.9990  -30.3850   24.7440 C   0  0  0  0  0  1  0  0  0  0  0  0
  -27.5030  -32.5800   25.7750 C   0  0  0  0  0  1  0  0  0  0  0  0
  1  3  1  0
  1  6  2  0
  2  5  1  0
  2  3  1  0
  3 48  1  0
  4  5  1  0
  4 10  1  0
  4  1  1  0
  5  8  1  0
  7  5  1  0
 10  9  1  0
 11 12  1  0
 11 10  1  0
 13 18  1  0
 14 15  1  0
 14 13  1  0
 16 15  1  0
 16 23  1  0
 16 17  1  0
 18 12  1  0
 18 17  1  0
 19 12  2  0
 20 21  2  0
 21 40  1  0
 22 21  1  0
 22 25  1  0
 23 24  1  0
 23 20  1  0
 24 22  2  0
 25 26  1  0
 26 27  2  0
 28 31  1  0
 28 27  1  0
 29 28  2  0
 30 29  1  0
 30 25  2  0
 31 32  1  0
 32 33  1  0
 33 34  2  0
 35 34  1  0
 35 39  1  0
 36 35  2  0
 37 32  2  0
 37 36  1  0
 38 37  1  0
 40 41  1  0
 41 44  1  0
 41 43  1  0
 42 40  2  0
 45 20  1  0
 45 46  1  0
 47 45  1  0
 49 60  2  0
 50 48  1  0
 50 55  1  0
 51 59  1  0
 51 61  1  0
 52 58  1  0
 52 54  1  0
 53 59  1  0
 54 55  2  0
 54 53  1  0
 56 50  2  0
 57 56  1  0
 57 52  2  0
 58 51  1  0
 59 49  1  0
 61 63  2  0
 62 61  1  0
 64 62  1  0
 65 74  2  0
 65 70  1  0
 66 62  1  0
 66 70  1  0
 67 66  1  0
 68 69  1  0
 68 67  1  0
 69 65  1  0
 70 71  2  0
 71 72  1  0
 73 72  2  0
 74 73  1  0
 75 49  1  0
 75 76  1  0
 75 85  1  0
 76 79  1  0
 77 81  1  0
 77 76  1  0
 78 77  2  0
 81 80  1  0
 83 81  1  0
 83 84  1  0
 83 82  1  0
 85 88  1  1
 85 86  1  0
 87 85  1  0
M  ISO  4   3 101  11 100  12 100  48 101
M  END
>  <TORSDO>  (68) 
F 18

>  <SCORE>  (68) 
-15.803

>  <name>  (68) 
67

>  <ligand_id>  (68) 
67

>  <original_smiles>  (68) 
[H]c1c([H])c([H])c2c(c1[H])C([H])([H])C([H])([H])C([H])([H])C2([H])N([H])C(=O)C1([H])N(C(=O)C([H])(N([H])C(=O)C([H])(N([H])C([H])([H])[H])C([H])([H])[H])C(C([H])([H])[H])(C([H])([H])[H])C([H])([H])[H])C([H])([H])c2c([H])c(OC3([H])C(=O)C([H])(C([H])(C([H])([H])[H])C([H])([H])C(=O)N4C([H])([H])C([H])([H])C([H])([H])C([H])(n5nc(-c6c([H])c([H])c(Oc7c([H])c([H])c(F)c([H])c7F)c([H])c6[H])c(C(=O)N([H])[H])c5N([H])[H])C4([H])[H])[N+]([H])([H])C3([H])[H])c([H])c([H])c2C1([H])[H]

>  <smiles>  (68) 
[H]c1c([H])c([H])c2c(c1[H])C([H])([H])C([H])([H])C([H])([H])C2([H])N([H])C(=O)C1([H])N(C(=O)C([H])(N([H])C(=O)C([H])(N([H])C([H])([H])[H])C([H])([H])[H])C(C([H])([H])[H])(C([H])([H])[H])C([H])([H])[H])C([H])([H])c2c([H])c(OC3([H])C(=O)C([H])(C([H])(C([H])([H])[H])C([H])([H])C(=O)N4C([H])([H])C([H])([H])C([H])([H])C([H])(n5nc(-c6c([H])c([H])c(Oc7c([H])c([H])c(F)c([H])c7F)c([H])c6[H])c(C(=O)N([H])[H])c5N([H])[H])C4([H])[H])[N+]([H])([H])C3([H])[H])c([H])c([H])c2C1([H])[H]

$$$$
68:0:0
     RDKit          3D

 85 93  0  0  1  0  0  0  0  0999 V2000
  -30.0120  -22.3930   19.8180 C   0  0  0  0  0  2  0  0  0  0  0  0
  -28.9540  -21.3070   19.9000 C   0  0  0  0  0  3  0  0  0  0  0  0
  -28.7820  -22.9360   20.5120 C   0  0  0  0  0  3  0  0  0  0  0  0
  -29.4350  -19.8070   20.5750 C   0  0  0  0  0  0  0  0  0  0  0  0
  -29.6150  -19.8280   21.7950 O   0  0  0  0  0  0  0  0  0  0  0  0
  -29.7470  -18.2790   19.8570 C   0  0  0  0  0  2  0  0  0  0  0  0
  -29.7470  -16.6620   20.5540 C   0  0  0  0  0  2  0  0  0  0  0  0
  -30.5160  -15.1870   20.1110 C   0  0  0  0  0  0  0  0  0  0  0  0
  -30.4470  -12.7840   19.1770 C   0  0  0  0  0  2  0  0  0  0  0  0
  -29.4920  -12.6880   17.9600 C   0  0  0  0  0  2  0  0  0  0  0  0
  -28.0430  -12.4430   18.4190 C   0  0  0  0  0  2  0  0  0  0  0  0
  -27.6440  -13.3660   19.5980 C   0  0  0  0  0  3  0  0  0  0  0  0
  -28.7200  -13.4180   20.7030 C   0  0  0  0  0  2  0  0  0  0  0  0
  -29.9660  -13.8850   20.0790 N   0  0  0  0  0  0  0  0  0  0  0  0
  -31.6950  -15.2300   19.7340 O   0  0  0  0  0  0  0  0  0  0  0  0
  -25.2800  -13.9250   20.3870 C   0  0  0  0  0  0  0  0  0  0  0  0
  -24.2270  -13.1460   20.7780 C   0  0  0  0  0  0  0  0  0  0  0  0
  -24.6980  -11.7970   20.7410 C   0  0  0  0  0  0  0  0  0  0  0  0
  -26.3220  -13.0520   20.1260 N   0  0  0  0  0  0  0  0  0  0  0  0
  -25.9830  -11.7660   20.4060 N   0  0  0  0  0  0  0  0  0  0  0  0
  -23.9780  -10.5330   20.9490 C   0  0  0  0  0  0  0  0  0  0  0  0
  -24.4190   -9.5750   21.8890 C   0  0  0  0  0  3  0  0  0  0  0  0
  -23.6980   -8.3780   22.0840 C   0  0  0  0  0  3  0  0  0  0  0  0
  -22.5200   -8.1290   21.3400 C   0  0  0  0  0  0  0  0  0  0  0  0
  -22.0980   -9.0750   20.3890 C   0  0  0  0  0  3  0  0  0  0  0  0
  -22.8200  -10.2640   20.1910 C   0  0  0  0  0  3  0  0  0  0  0  0
  -21.7690   -6.9820   21.4430 O   0  0  0  0  0  0  0  0  0  0  0  0
  -21.7240   -6.2550   22.6050 C   0  0  0  0  0  0  0  0  0  0  0  0
  -21.2830   -6.8190   23.8220 C   0  0  0  0  0  3  0  0  0  0  0  0
  -21.1860   -6.0170   24.9760 C   0  0  0  0  0  3  0  0  0  0  0  0
  -21.5190   -4.6510   24.9150 C   0  0  0  0  0  0  0  0  0  0  0  0
  -21.9530   -4.0860   23.7030 C   0  0  0  0  0  3  0  0  0  0  0  0
  -22.0520   -4.8850   22.5510 C   0  0  0  0  0  0  0  0  0  0  0  0
  -22.4500   -4.3300   21.3810 F   0  0  0  0  0  0  0  0  0  0  0  0
  -21.4190   -3.8780   26.0220 F   0  0  0  0  0  0  0  0  0  0  0  0
  -22.8340  -13.6190   21.0700 C   0  0  0  0  0  0  0  0  0  0  0  0
  -22.1220  -12.9230   21.9490 N   0  0  0  0  0  0  0  0  0  0  0  0
  -22.3850  -14.6420   20.5540 O   0  0  0  0  0  0  0  0  0  0  0  0
  -22.4980  -12.0960   22.3880 H   0  0  0  0  0  0  0  0  0  0  0  0
  -21.1870  -13.2220   22.1880 H   0  0  0  0  0  0  0  0  0  0  0  0
  -25.4350  -15.2960   20.2040 N   0  0  0  0  0  0  0  0  0  0  0  0
  -24.6690  -15.9480   20.3330 H   0  0  0  0  0  0  0  0  0  0  0  0
  -26.2780  -15.7390   19.8600 H   0  0  0  0  0  0  0  0  0  0  0  0
  -28.0310  -24.4170   19.9860 C   0  0  0  0  0  2  0  0  0  0  0  0
  -28.2190  -25.9840   20.3320 O   0  0  0  0  0  0  0  0  0  0  0  0
  -24.6260  -31.8600   23.2380 C   0  0  0  0  0  0  0  0  0  0  0  0
  -27.1940  -27.0390   20.2330 C   0  0  0  0  0  0  0  0  0  0  0  0
  -23.4300  -30.4580   21.6040 C   0  0  0  0  0  3  0  0  0  0  0  0
  -24.8800  -28.8640   20.1820 C   0  0  0  0  0  0  0  0  0  0  0  0
  -25.9910  -30.6920   21.4510 C   0  0  0  0  0  2  0  0  0  0  0  0
  -26.0640  -29.2870   20.8000 C   0  0  0  0  0  0  0  0  0  0  0  0
  -27.2150  -28.3930   20.8060 C   0  0  0  0  0  3  0  0  0  0  0  0
  -25.9850  -26.7520   19.5580 C   0  0  0  0  0  3  0  0  0  0  0  0
  -24.8620  -27.6150   19.5420 C   0  0  0  0  0  3  0  0  0  0  0  0
  -23.6560  -29.7730   20.2290 C   0  0  0  0  0  2  0  0  0  0  0  0
  -24.7030  -31.0290   22.1520 N   0  0  0  0  0  0  0  0  0  0  0  0
  -23.5380  -32.1490   23.7610 O   0  0  0  0  0  0  0  0  0  0  0  0
  -22.7440  -29.4610   22.5730 C   0  0  0  0  0  0  0  0  0  0  0  0
  -21.4150  -29.2920   22.4480 N   0  0  0  0  0  0  0  0  0  0  0  0
  -23.4120  -28.8390   23.4030 O   0  0  0  0  0  0  0  0  0  0  0  0
  -20.9290  -29.8450   21.7550 H   0  0  0  0  0  0  0  0  0  0  0  0
  -18.0350  -28.0790   22.9550 C   0  0  0  0  0  0  0  0  0  0  0  0
  -20.5930  -28.3570   23.2230 C   0  0  0  0  0  3  0  0  0  0  0  0
  -20.7020  -26.9210   22.6600 C   0  0  0  0  0  2  0  0  0  0  0  0
  -19.6030  -26.5870   21.6450 C   0  0  0  0  0  2  0  0  0  0  0  0
  -18.2190  -26.7280   22.2850 C   0  0  0  0  0  2  0  0  0  0  0  0
  -19.1480  -28.8510   23.3810 C   0  0  0  0  0  0  0  0  0  0  0  0
  -18.9200  -30.1130   23.9700 C   0  0  0  0  0  3  0  0  0  0  0  0
  -17.6110  -30.6060   24.1350 C   0  0  0  0  0  3  0  0  0  0  0  0
  -16.5120  -29.8320   23.7220 C   0  0  0  0  0  3  0  0  0  0  0  0
  -16.7250  -28.5700   23.1380 C   0  0  0  0  0  3  0  0  0  0  0  0
  -25.9000  -32.5040   23.8660 C   0  0  0  0  0  3  0  0  0  0  0  0
  -26.4090  -31.7430   25.1520 C   0  0  1  0  0  0  0  0  0  0  0  0
  -25.3080  -31.5140   26.2160 C   0  0  0  0  0  1  0  0  0  0  0  0
  -26.9940  -30.3610   24.7820 C   0  0  0  0  0  1  0  0  0  0  0  0
  -27.5550  -32.5410   25.8150 C   0  0  0  0  0  1  0  0  0  0  0  0
  -25.5830  -33.9040   24.1970 N   0  0  0  0  0  0  0  0  0  0  0  0
  -25.9130  -34.9630   23.4450 C   0  0  0  0  0  0  0  0  0  0  0  0
  -26.5800  -34.8640   22.4120 O   0  0  0  0  0  0  0  0  0  0  0  0
  -24.9880  -34.0530   24.9980 H   0  0  0  0  0  0  0  0  0  0  0  0
  -24.1850  -36.7630   23.1080 C   0  0  0  0  0  1  0  0  0  0  0  0
  -25.4280  -36.3510   23.9110 C   0  0  0  0  0  3  0  0  0  0  0  0
  -27.5630  -37.2370   24.7430 C   0  0  0  0  0  1  0  0  0  0  0  0
  -26.4610  -37.4050   23.8000 N   0  0  0  0  0  0  0  0  0  0  0  0
  -26.0550  -38.3250   23.9470 H   0  0  0  0  0  0  0  0  0  0  0  0
  1  2  1  0
  1  3  1  0
  2  3  1  0
  2  4  1  0
  3 44  1  0
  4  5  2  0
  6  7  1  0
  6  4  1  0
  8  7  1  0
  9 14  1  0
 10 11  1  0
 10  9  1  0
 12 11  1  0
 12 19  1  0
 12 13  1  0
 14  8  1  0
 14 13  1  0
 15  8  2  0
 16 17  2  0
 17 36  1  0
 18 17  1  0
 18 21  1  0
 19 16  1  0
 19 20  1  0
 20 18  2  0
 21 22  1  0
 22 23  2  0
 24 27  1  0
 24 23  1  0
 25 24  2  0
 26 25  1  0
 26 21  2  0
 27 28  1  0
 28 29  1  0
 29 30  2  0
 31 30  1  0
 31 35  1  0
 32 31  2  0
 33 28  2  0
 33 32  1  0
 34 33  1  0
 36 37  1  0
 37 40  1  0
 37 39  1  0
 38 36  2  0
 41 42  1  0
 41 16  1  0
 43 41  1  0
 44 45  1  0
 46 57  2  0
 47 45  1  0
 47 52  1  0
 48 56  1  0
 48 58  1  0
 49 55  1  0
 49 51  1  0
 50 56  1  0
 51 52  2  0
 51 50  1  0
 53 47  2  0
 54 53  1  0
 54 49  2  0
 55 48  1  0
 56 46  1  0
 58 60  2  0
 59 58  1  0
 61 59  1  0
 62 71  2  0
 62 67  1  0
 63 59  1  0
 63 67  1  0
 64 63  1  0
 65 66  1  0
 65 64  1  0
 66 62  1  0
 67 68  2  0
 68 69  1  0
 70 69  2  0
 71 70  1  0
 72 46  1  0
 72 77  1  0
 72 73  1  0
 73 76  1  1
 73 74  1  0
 75 73  1  0
 77 80  1  0
 78 82  1  0
 78 77  1  0
 79 78  2  0
 82 81  1  0
 84 82  1  0
 84 85  1  0
 84 83  1  0
M  ISO  4   7 100   8 100  44 101  45 101
M  END
>  <TORSDO>  (69) 
F 20

>  <SCORE>  (69) 
-15.628

>  <name>  (69) 
68

>  <ligand_id>  (69) 
68

>  <original_smiles>  (69) 
[H]c1c([H])c([H])c2c(c1[H])C([H])([H])C([H])([H])C([H])([H])C2([H])N([H])C(=O)C1([H])N(C(=O)C([H])(N([H])C(=O)C([H])(N([H])C([H])([H])[H])C([H])([H])[H])C(C([H])([H])[H])(C([H])([H])[H])C([H])([H])[H])C([H])([H])c2c([H])c(OC([H])([H])C3([H])C([H])([H])C3([H])C(=O)C([H])([H])C([H])([H])C(=O)N3C([H])([H])C([H])([H])C([H])([H])C([H])(n4nc(-c5c([H])c([H])c(Oc6c([H])c([H])c(F)c([H])c6F)c([H])c5[H])c(C(=O)N([H])[H])c4N([H])[H])C3([H])[H])c([H])c([H])c2C1([H])[H]

>  <smiles>  (69) 
[H]c1c([H])c([H])c2c(c1[H])C([H])([H])C([H])([H])C([H])([H])C2([H])N([H])C(=O)C1([H])N(C(=O)C([H])(N([H])C(=O)C([H])(N([H])C([H])([H])[H])C([H])([H])[H])C(C([H])([H])[H])(C([H])([H])[H])C([H])([H])[H])C([H])([H])c2c([H])c(OC([H])([H])C3([H])C([H])([H])C3([H])C(=O)C([H])([H])C([H])([H])C(=O)N3C([H])([H])C([H])([H])C([H])([H])C([H])(n4nc(-c5c([H])c([H])c(Oc6c([H])c([H])c(F)c([H])c6F)c([H])c5[H])c(C(=O)N([H])[H])c4N([H])[H])C3([H])[H])c([H])c([H])c2C1([H])[H]

$$$$
69:0:0
     RDKit          3D

 87 95  0  0  1  0  0  0  0  0999 V2000
  -27.5820  -21.5330   21.5050 C   0  0  0  0  0  1  0  0  0  0  0  0
  -28.4270  -21.6650   20.2260 C   0  0  0  0  0  3  0  0  0  0  0  0
  -29.1910  -18.9820   19.1420 C   0  0  0  0  0  2  0  0  0  0  0  0
  -29.5320  -19.0200   21.1160 C   0  0  0  0  0  2  0  0  0  0  0  0
  -29.4250  -20.2720   20.0930 C   0  0  0  0  0  3  0  0  0  0  0  0
  -30.0700  -17.9720   20.0290 C   0  0  0  0  0  3  0  0  0  0  0  0
  -30.5590  -15.2100   19.9500 C   0  0  0  0  0  0  0  0  0  0  0  0
  -30.4490  -12.8340   19.0340 C   0  0  0  0  0  2  0  0  0  0  0  0
  -29.4570  -12.7410   17.8520 C   0  0  0  0  0  2  0  0  0  0  0  0
  -28.0200  -12.5100   18.3580 C   0  0  0  0  0  2  0  0  0  0  0  0
  -27.6570  -13.4320   19.5520 C   0  0  0  0  0  3  0  0  0  0  0  0
  -28.7680  -13.4830   20.6210 C   0  0  0  0  0  2  0  0  0  0  0  0
  -29.9870  -13.9320   19.9370 N   0  0  0  0  0  0  0  0  0  0  0  0
  -31.7510  -15.2780   19.6290 O   0  0  0  0  0  0  0  0  0  0  0  0
  -29.7710  -16.4000   20.1220 N   0  0  0  0  0  0  0  0  0  0  0  0
  -28.8070  -16.1860   20.3330 H   0  0  0  0  0  0  0  0  0  0  0  0
  -25.3290  -13.9790   20.4570 C   0  0  0  0  0  0  0  0  0  0  0  0
  -24.2870  -13.1930   20.8600 C   0  0  0  0  0  0  0  0  0  0  0  0
  -24.7450  -11.8420   20.7540 C   0  0  0  0  0  0  0  0  0  0  0  0
  -26.3540  -13.1110   20.1230 N   0  0  0  0  0  0  0  0  0  0  0  0
  -26.0150  -11.8170   20.3650 N   0  0  0  0  0  0  0  0  0  0  0  0
  -24.0260  -10.5760   20.9420 C   0  0  0  0  0  0  0  0  0  0  0  0
  -24.4530   -9.6140   21.8860 C   0  0  0  0  0  3  0  0  0  0  0  0
  -23.7340   -8.4130   22.0620 C   0  0  0  0  0  3  0  0  0  0  0  0
  -22.5720   -8.1640   21.2940 C   0  0  0  0  0  0  0  0  0  0  0  0
  -22.1640   -9.1110   20.3380 C   0  0  0  0  0  3  0  0  0  0  0  0
  -22.8850  -10.3050   20.1610 C   0  0  0  0  0  3  0  0  0  0  0  0
  -21.8220   -7.0160   21.3790 O   0  0  0  0  0  0  0  0  0  0  0  0
  -21.6840   -6.3310   22.5600 C   0  0  0  0  0  0  0  0  0  0  0  0
  -21.1310   -6.9330   23.7100 C   0  0  0  0  0  3  0  0  0  0  0  0
  -20.9460   -6.1740   24.8820 C   0  0  0  0  0  3  0  0  0  0  0  0
  -21.3030   -4.8120   24.9020 C   0  0  0  0  0  0  0  0  0  0  0  0
  -21.8520   -4.2090   23.7560 C   0  0  0  0  0  3  0  0  0  0  0  0
  -22.0380   -4.9670   22.5870 C   0  0  0  0  0  0  0  0  0  0  0  0
  -22.5470   -4.3750   21.4780 F   0  0  0  0  0  0  0  0  0  0  0  0
  -21.1190   -4.0810   26.0250 F   0  0  0  0  0  0  0  0  0  0  0  0
  -22.9100  -13.6600   21.2290 C   0  0  0  0  0  0  0  0  0  0  0  0
  -22.2310  -12.9340   22.1110 N   0  0  0  0  0  0  0  0  0  0  0  0
  -22.4470  -14.7040   20.7710 O   0  0  0  0  0  0  0  0  0  0  0  0
  -22.6260  -12.0920   22.5000 H   0  0  0  0  0  0  0  0  0  0  0  0
  -21.3070  -13.2250   22.4010 H   0  0  0  0  0  0  0  0  0  0  0  0
  -25.4830  -15.3560   20.3180 N   0  0  0  0  0  0  0  0  0  0  0  0
  -24.7140  -15.9960   20.4820 H   0  0  0  0  0  0  0  0  0  0  0  0
  -26.2890  -15.8080   19.9080 H   0  0  0  0  0  0  0  0  0  0  0  0
  -28.9100  -23.3120   20.1400 C   0  0  0  0  0  3  0  0  0  0  0  0
  -27.8920  -24.6930   20.0660 C   0  0  0  0  0  3  0  0  0  0  0  0
  -28.2110  -26.2420   20.1270 O   0  0  0  0  0  0  0  0  0  0  0  0
  -24.6690  -31.9590   23.2500 C   0  0  0  0  0  0  0  0  0  0  0  0
  -27.1740  -27.2620   20.0990 C   0  0  0  0  0  0  0  0  0  0  0  0
  -23.4380  -30.5930   21.6120 C   0  0  0  0  0  3  0  0  0  0  0  0
  -24.8560  -29.0420   20.1290 C   0  0  0  0  0  0  0  0  0  0  0  0
  -25.9910  -30.8540   21.4010 C   0  0  0  0  0  2  0  0  0  0  0  0
  -26.0510  -29.4690   20.7230 C   0  0  0  0  0  0  0  0  0  0  0  0
  -27.2100  -28.5970   20.6870 C   0  0  0  0  0  3  0  0  0  0  0  0
  -25.9510  -26.9530   19.4620 C   0  0  0  0  0  3  0  0  0  0  0  0
  -24.8230  -27.8010   19.4780 C   0  0  0  0  0  3  0  0  0  0  0  0
  -23.6320  -29.9410   20.2170 C   0  0  0  0  0  2  0  0  0  0  0  0
  -24.7220  -31.1560   22.1430 N   0  0  0  0  0  0  0  0  0  0  0  0
  -23.5930  -32.2330   23.8030 O   0  0  0  0  0  0  0  0  0  0  0  0
  -22.7770  -29.5690   22.5690 C   0  0  0  0  0  0  0  0  0  0  0  0
  -21.4500  -29.3800   22.4490 N   0  0  0  0  0  0  0  0  0  0  0  0
  -23.4610  -28.9450   23.3830 O   0  0  0  0  0  0  0  0  0  0  0  0
  -20.9520  -29.9380   21.7690 H   0  0  0  0  0  0  0  0  0  0  0  0
  -18.0920  -28.1130   22.9500 C   0  0  0  0  0  0  0  0  0  0  0  0
  -20.6450  -28.4250   23.2170 C   0  0  0  0  0  3  0  0  0  0  0  0
  -20.7740  -26.9960   22.6390 C   0  0  0  0  0  2  0  0  0  0  0  0
  -19.6790  -26.6550   21.6250 C   0  0  0  0  0  2  0  0  0  0  0  0
  -18.2950  -26.7700   22.2690 C   0  0  0  0  0  2  0  0  0  0  0  0
  -19.1960  -28.8980   23.3810 C   0  0  0  0  0  0  0  0  0  0  0  0
  -18.9500  -30.1520   23.9790 C   0  0  0  0  0  3  0  0  0  0  0  0
  -17.6350  -30.6250   24.1480 C   0  0  0  0  0  3  0  0  0  0  0  0
  -16.5470  -29.8390   23.7310 C   0  0  0  0  0  3  0  0  0  0  0  0
  -16.7770  -28.5850   23.1400 C   0  0  0  0  0  3  0  0  0  0  0  0
  -25.9580  -32.5860   23.8630 C   0  0  0  0  0  3  0  0  0  0  0  0
  -26.4830  -31.8060   25.1300 C   0  0  1  0  0  0  0  0  0  0  0  0
  -25.4020  -31.5660   26.2090 C   0  0  0  0  0  1  0  0  0  0  0  0
  -27.0570  -30.4260   24.7320 C   0  0  0  0  0  1  0  0  0  0  0  0
  -27.6440  -32.5910   25.7850 C   0  0  0  0  0  1  0  0  0  0  0  0
  -25.6560  -33.9830   24.2120 N   0  0  0  0  0  0  0  0  0  0  0  0
  -25.9530  -35.0450   23.4490 C   0  0  0  0  0  0  0  0  0  0  0  0
  -26.5750  -34.9490   22.3870 O   0  0  0  0  0  0  0  0  0  0  0  0
  -25.0970  -34.1310   25.0380 H   0  0  0  0  0  0  0  0  0  0  0  0
  -24.1920  -36.8270   23.2040 C   0  0  0  0  0  1  0  0  0  0  0  0
  -25.4850  -36.4300   23.9360 C   0  0  0  0  0  3  0  0  0  0  0  0
  -27.6570  -37.3370   24.6360 C   0  0  0  0  0  1  0  0  0  0  0  0
  -26.4980  -37.4920   23.7590 N   0  0  0  0  0  0  0  0  0  0  0  0
  -26.0940  -38.4080   23.9280 H   0  0  0  0  0  0  0  0  0  0  0  0
  2  1  1  0
  3  6  1  0
  3  5  1  0
  5  2  1  0
  5  4  1  0
  6 15  1  0
  6  4  1  0
  7 15  1  0
  8 13  1  0
  9 10  1  0
  9  8  1  0
 11 10  1  0
 11 20  1  0
 11 12  1  0
 13  7  1  0
 13 12  1  0
 14  7  2  0
 15 16  1  0
 17 18  2  0
 18 37  1  0
 19 18  1  0
 19 22  1  0
 20 21  1  0
 20 17  1  0
 21 19  2  0
 22 23  1  0
 23 24  2  0
 25 28  1  0
 25 24  1  0
 26 25  2  0
 27 26  1  0
 27 22  2  0
 28 29  1  0
 29 34  2  0
 29 30  1  0
 30 31  2  0
 31 32  1  0
 32 36  1  0
 33 32  2  0
 34 33  1  0
 35 34  1  0
 37 38  1  0
 38 41  1  0
 38 40  1  0
 39 37  2  0
 42 17  1  0
 42 43  1  0
 44 42  1  0
 45  2  1  0
 46 47  1  0
 46 45  2  0
 48 59  2  0
 49 47  1  0
 49 54  1  0
 50 58  1  0
 50 60  1  0
 51 57  1  0
 51 53  1  0
 52 58  1  0
 53 52  1  0
 54 53  2  0
 55 56  1  0
 55 49  2  0
 56 51  2  0
 57 50  1  0
 58 48  1  0
 60 62  2  0
 61 60  1  0
 63 61  1  0
 64 73  2  0
 64 69  1  0
 65 61  1  0
 65 69  1  0
 66 65  1  0
 67 68  1  0
 67 66  1  0
 68 64  1  0
 69 70  2  0
 70 71  1  0
 72 71  2  0
 73 72  1  0
 74 48  1  0
 74 79  1  0
 74 75  1  0
 75 78  1  1
 75 76  1  0
 77 75  1  0
 79 82  1  0
 80 84  1  0
 80 79  1  0
 81 80  2  0
 84 83  1  0
 86 87  1  0
 86 84  1  0
 86 85  1  0
M  ISO  4   7 100  15 100  46 101  47 101
M  END
>  <TORSDO>  (70) 
F 19

>  <SCORE>  (70) 
-14.761

>  <name>  (70) 
69

>  <ligand_id>  (70) 
69

>  <original_smiles>  (70) 
[H]c1c([H])c([H])c2c(c1[H])C([H])([H])C([H])([H])C([H])([H])C2([H])N([H])C(=O)C1([H])N(C(=O)C([H])(N([H])C(=O)C([H])(N([H])C([H])([H])[H])C([H])([H])[H])C(C([H])([H])[H])(C([H])([H])[H])C([H])([H])[H])C([H])([H])c2c([H])c(OC([H])([H])C([H])([H])C([H])(C([H])([H])[H])C3([H])C([H])([H])C([H])(N([H])C(=O)N4C([H])([H])C([H])([H])C([H])([H])C([H])(n5nc(-c6c([H])c([H])c(Oc7c([H])c([H])c(F)c([H])c7F)c([H])c6[H])c(C(=O)N([H])[H])c5N([H])[H])C4([H])[H])C3([H])[H])c([H])c([H])c2C1([H])[H]

>  <smiles>  (70) 
[H]c1c([H])c([H])c2c(c1[H])C([H])([H])C([H])([H])C([H])([H])C2([H])N([H])C(=O)C1([H])N(C(=O)C([H])(N([H])C(=O)C([H])(N([H])C([H])([H])[H])C([H])([H])[H])C(C([H])([H])[H])(C([H])([H])[H])C([H])([H])[H])C([H])([H])c2c([H])c(OC([H])([H])C([H])([H])C([H])(C([H])([H])[H])C3([H])C([H])([H])C([H])(N([H])C(=O)N4C([H])([H])C([H])([H])C([H])([H])C([H])(n5nc(-c6c([H])c([H])c(Oc7c([H])c([H])c(F)c([H])c7F)c([H])c6[H])c(C(=O)N([H])[H])c5N([H])[H])C4([H])[H])C3([H])[H])c([H])c([H])c2C1([H])[H]

$$$$
70:0:0
     RDKit          3D

 90 98  0  0  1  0  0  0  0  0999 V2000
  -29.5400  -20.9750   21.6470 C   0  0  0  0  0  3  0  0  0  0  0  0
  -29.0510  -20.5100   19.3310 C   0  0  0  0  0  3  0  0  0  0  0  0
  -29.1000  -22.3100   21.4930 C   0  0  0  0  0  3  0  0  0  0  0  0
  -28.6130  -21.8640   19.1740 C   0  0  0  0  0  3  0  0  0  0  0  0
  -29.5010  -20.0290   20.5900 C   0  0  0  0  0  0  0  0  0  0  0  0
  -28.5990  -22.7810   20.2640 C   0  0  0  0  0  0  0  0  0  0  0  0
  -29.8790  -18.5630   20.9800 C   0  0  0  0  0  2  0  0  0  0  0  0
  -30.0370  -17.3060   20.0130 C   0  0  0  0  0  2  0  0  0  0  0  0
  -31.8000  -16.2000   21.4760 C   0  0  0  0  0  1  0  0  0  0  0  0
  -29.4370  -15.6580   21.8930 C   0  0  0  0  0  1  0  0  0  0  0  0
  -30.4460  -15.9350   20.7610 C   0  0  1  0  0  0  0  0  0  0  0  0
  -30.7520  -14.6680   19.8160 C   0  0  0  0  0  0  0  0  0  0  0  0
  -30.3450  -12.5040   18.6390 C   0  0  0  0  0  2  0  0  0  0  0  0
  -29.2780  -12.7090   17.5420 C   0  0  0  0  0  2  0  0  0  0  0  0
  -27.8530  -12.5520   18.1110 C   0  0  0  0  0  2  0  0  0  0  0  0
  -27.6590  -13.3300   19.4400 C   0  0  0  0  0  3  0  0  0  0  0  0
  -28.8260  -13.0330   20.3990 C   0  0  0  0  0  2  0  0  0  0  0  0
  -30.0720  -13.4670   19.7390 N   0  0  0  0  0  0  0  0  0  0  0  0
  -31.7440  -14.8110   19.0950 O   0  0  0  0  0  0  0  0  0  0  0  0
  -25.3750  -13.9210   20.4540 C   0  0  0  0  0  0  0  0  0  0  0  0
  -24.3390  -13.1440   20.8980 C   0  0  0  0  0  0  0  0  0  0  0  0
  -24.7630  -11.7910   20.7310 C   0  0  0  0  0  0  0  0  0  0  0  0
  -26.3650  -13.0420   20.0530 N   0  0  0  0  0  0  0  0  0  0  0  0
  -26.0080  -11.7510   20.2720 N   0  0  0  0  0  0  0  0  0  0  0  0
  -24.0360  -10.5310   20.9280 C   0  0  0  0  0  0  0  0  0  0  0  0
  -24.5000   -9.5430   21.8250 C   0  0  0  0  0  3  0  0  0  0  0  0
  -23.7730   -8.3460   22.0110 C   0  0  0  0  0  3  0  0  0  0  0  0
  -22.5680   -8.1310   21.3020 C   0  0  0  0  0  0  0  0  0  0  0  0
  -22.1210   -9.1080   20.3960 C   0  0  0  0  0  3  0  0  0  0  0  0
  -22.8480  -10.2950   20.2070 C   0  0  0  0  0  3  0  0  0  0  0  0
  -21.8090   -6.9900   21.4020 O   0  0  0  0  0  0  0  0  0  0  0  0
  -21.7500   -6.2630   22.5620 C   0  0  0  0  0  0  0  0  0  0  0  0
  -21.3110   -6.8330   23.7770 C   0  0  0  0  0  3  0  0  0  0  0  0
  -21.2000   -6.0300   24.9300 C   0  0  0  0  0  3  0  0  0  0  0  0
  -21.5170   -4.6620   24.8700 C   0  0  0  0  0  0  0  0  0  0  0  0
  -21.9480   -4.0910   23.6590 C   0  0  0  0  0  3  0  0  0  0  0  0
  -22.0610   -4.8890   22.5090 C   0  0  0  0  0  0  0  0  0  0  0  0
  -22.4590   -4.3310   21.3390 F   0  0  0  0  0  0  0  0  0  0  0  0
  -21.4010   -3.8880   25.9760 F   0  0  0  0  0  0  0  0  0  0  0  0
  -22.9940  -13.6260   21.3570 C   0  0  0  0  0  0  0  0  0  0  0  0
  -22.3500  -12.8870   22.2540 N   0  0  0  0  0  0  0  0  0  0  0  0
  -22.5250  -14.6890   20.9540 O   0  0  0  0  0  0  0  0  0  0  0  0
  -22.7430  -12.0260   22.6040 H   0  0  0  0  0  0  0  0  0  0  0  0
  -21.4510  -13.1910   22.5980 H   0  0  0  0  0  0  0  0  0  0  0  0
  -25.5460  -15.2990   20.3440 N   0  0  0  0  0  0  0  0  0  0  0  0
  -24.8120  -15.9520   20.5870 H   0  0  0  0  0  0  0  0  0  0  0  0
  -26.3640  -15.7480   19.9530 H   0  0  0  0  0  0  0  0  0  0  0  0
  -27.9190  -24.1860   20.2170 C   0  0  0  0  0  2  0  0  0  0  0  0
  -28.6330  -25.3810   19.4870 C   0  0  0  0  0  2  0  0  0  0  0  0
  -28.5030  -26.7160   20.0670 O   0  0  0  0  0  0  0  0  0  0  0  0
  -24.5730  -31.8610   23.1450 C   0  0  0  0  0  0  0  0  0  0  0  0
  -27.3200  -27.4500   20.0240 C   0  0  0  0  0  0  0  0  0  0  0  0
  -23.4110  -30.4660   21.4700 C   0  0  0  0  0  3  0  0  0  0  0  0
  -24.9050  -28.9620   20.0380 C   0  0  0  0  0  0  0  0  0  0  0  0
  -25.9420  -30.8460   21.3130 C   0  0  0  0  0  2  0  0  0  0  0  0
  -26.0530  -29.4800   20.6520 C   0  0  0  0  0  0  0  0  0  0  0  0
  -27.2590  -28.7300   20.6430 C   0  0  0  0  0  3  0  0  0  0  0  0
  -26.1550  -26.9640   19.3960 C   0  0  0  0  0  3  0  0  0  0  0  0
  -24.9560  -27.7040   19.4060 C   0  0  0  0  0  3  0  0  0  0  0  0
  -23.6510  -29.8120   20.0810 C   0  0  0  0  0  2  0  0  0  0  0  0
  -24.6610  -31.0730   22.0350 N   0  0  0  0  0  0  0  0  0  0  0  0
  -23.4790  -32.1110   23.6720 O   0  0  0  0  0  0  0  0  0  0  0  0
  -22.7600  -29.4220   22.4070 C   0  0  0  0  0  0  0  0  0  0  0  0
  -21.4410  -29.2190   22.2590 N   0  0  0  0  0  0  0  0  0  0  0  0
  -23.4430  -28.8000   23.2250 O   0  0  0  0  0  0  0  0  0  0  0  0
  -20.9500  -29.7810   21.5780 H   0  0  0  0  0  0  0  0  0  0  0  0
  -18.0770  -27.9730   22.6990 C   0  0  0  0  0  0  0  0  0  0  0  0
  -20.6300  -28.2560   23.0010 C   0  0  0  0  0  3  0  0  0  0  0  0
  -20.7550  -26.8380   22.3970 C   0  0  0  0  0  2  0  0  0  0  0  0
  -19.6660  -26.5240   21.3660 C   0  0  0  0  0  2  0  0  0  0  0  0
  -18.2750  -26.6390   22.0000 C   0  0  0  0  0  2  0  0  0  0  0  0
  -19.1820  -28.7400   23.1570 C   0  0  0  0  0  0  0  0  0  0  0  0
  -18.9420  -29.9890   23.7710 C   0  0  0  0  0  3  0  0  0  0  0  0
  -17.6300  -30.4700   23.9330 C   0  0  0  0  0  3  0  0  0  0  0  0
  -16.5400  -29.7010   23.4920 C   0  0  0  0  0  3  0  0  0  0  0  0
  -16.7640  -28.4540   22.8820 C   0  0  0  0  0  3  0  0  0  0  0  0
  -25.8390  -32.5060   23.7940 C   0  0  0  0  0  3  0  0  0  0  0  0
  -25.5240  -33.9130   24.0770 N   0  0  0  0  0  0  0  0  0  0  0  0
  -25.8930  -34.9450   23.3060 C   0  0  0  0  0  0  0  0  0  0  0  0
  -26.6030  -34.8120   22.3070 O   0  0  0  0  0  0  0  0  0  0  0  0
  -24.9010  -34.0910   24.8520 H   0  0  0  0  0  0  0  0  0  0  0  0
  -24.1940  -36.7400   22.8340 C   0  0  0  0  0  1  0  0  0  0  0  0
  -25.3960  -36.3490   23.7080 C   0  0  0  0  0  3  0  0  0  0  0  0
  -27.4980  -37.2440   24.6090 C   0  0  0  0  0  1  0  0  0  0  0  0
  -26.4410  -37.3920   23.6120 N   0  0  0  0  0  0  0  0  0  0  0  0
  -26.0350  -38.3180   23.7140 H   0  0  0  0  0  0  0  0  0  0  0  0
  -26.3080  -31.7660   25.1090 C   0  0  1  0  0  0  0  0  0  0  0  0
  -25.1720  -31.5280   26.1320 C   0  0  0  0  0  1  0  0  0  0  0  0
  -26.9290  -30.3930   24.7650 C   0  0  0  0  0  1  0  0  0  0  0  0
  -27.4130  -32.5900   25.8090 C   0  0  0  0  0  1  0  0  0  0  0  0
  2  5  1  0
  3  1  1  0
  4  2  2  0
  4  6  1  0
  5  7  1  0
  5  1  2  0
  6  3  2  0
  8 11  1  0
  8  7  1  0
 11  9  1  1
 11 10  1  0
 12 11  1  0
 13 18  1  0
 14 15  1  0
 14 13  1  0
 16 15  1  0
 16 23  1  0
 16 17  1  0
 18 12  1  0
 18 17  1  0
 19 12  2  0
 20 21  2  0
 21 40  1  0
 22 21  1  0
 22 25  1  0
 23 24  1  0
 23 20  1  0
 24 22  2  0
 25 26  1  0
 26 27  2  0
 28 31  1  0
 28 27  1  0
 29 28  2  0
 30 29  1  0
 30 25  2  0
 31 32  1  0
 32 33  1  0
 33 34  2  0
 35 34  1  0
 35 39  1  0
 36 35  2  0
 37 32  2  0
 37 36  1  0
 38 37  1  0
 40 41  1  0
 41 44  1  0
 41 43  1  0
 42 40  2  0
 45 20  1  0
 45 46  1  0
 47 45  1  0
 48  6  1  0
 49 50  1  0
 49 48  1  0
 51 62  2  0
 52 50  1  0
 52 57  1  0
 53 61  1  0
 53 63  1  0
 54 60  1  0
 54 56  1  0
 55 61  1  0
 56 55  1  0
 57 56  2  0
 58 59  1  0
 58 52  2  0
 59 54  2  0
 60 53  1  0
 61 51  1  0
 63 65  2  0
 64 63  1  0
 66 64  1  0
 67 76  2  0
 67 72  1  0
 68 64  1  0
 68 72  1  0
 69 68  1  0
 70 71  1  0
 70 69  1  0
 71 67  1  0
 72 73  2  0
 73 74  1  0
 75 74  2  0
 76 75  1  0
 77 51  1  0
 77 78  1  0
 77 87  1  0
 78 81  1  0
 79 83  1  0
 79 78  1  0
 80 79  2  0
 83 82  1  0
 85 83  1  0
 85 86  1  0
 85 84  1  0
 87 90  1  1
 87 88  1  0
 89 87  1  0
M  ISO  4  11 100  12 100  49 101  50 101
M  END
>  <TORSDO>  (71) 
F 21

>  <SCORE>  (71) 
-11.882

>  <name>  (71) 
70

>  <ligand_id>  (71) 
70

>  <original_smiles>  (71) 
[H]c1c([H])c([H])c2c(c1[H])C([H])([H])C([H])([H])C([H])([H])C2([H])N([H])C(=O)C1([H])N(C(=O)C([H])(N([H])C(=O)C([H])(N([H])C([H])([H])[H])C([H])([H])[H])C(C([H])([H])[H])(C([H])([H])[H])C([H])([H])[H])C([H])([H])c2c([H])c(OC([H])([H])C([H])([H])c3c([H])c([H])c(C([H])([H])C([H])([H])C(C(=O)N4C([H])([H])C([H])([H])C([H])([H])C([H])(n5nc(-c6c([H])c([H])c(Oc7c([H])c([H])c(F)c([H])c7F)c([H])c6[H])c(C(=O)N([H])[H])c5N([H])[H])C4([H])[H])(C([H])([H])[H])C([H])([H])[H])c([H])c3[H])c([H])c([H])c2C1([H])[H]

>  <smiles>  (71) 
[H]c1c([H])c([H])c2c(c1[H])C([H])([H])C([H])([H])C([H])([H])C2([H])N([H])C(=O)C1([H])N(C(=O)C([H])(N([H])C(=O)C([H])(N([H])C([H])([H])[H])C([H])([H])[H])C(C([H])([H])[H])(C([H])([H])[H])C([H])([H])[H])C([H])([H])c2c([H])c(OC([H])([H])C([H])([H])c3c([H])c([H])c(C([H])([H])C([H])([H])C(C(=O)N4C([H])([H])C([H])([H])C([H])([H])C([H])(n5nc(-c6c([H])c([H])c(Oc7c([H])c([H])c(F)c([H])c7F)c([H])c6[H])c(C(=O)N([H])[H])c5N([H])[H])C4([H])[H])(C([H])([H])[H])C([H])([H])[H])c([H])c3[H])c([H])c([H])c2C1([H])[H]

$$$$
71:0:0
     RDKit          3D

 87 95  0  0  1  0  0  0  0  0999 V2000
  -28.3890  -20.1480   20.1380 C   0  0  0  0  0  2  0  0  0  0  0  0
  -30.3560  -20.5560   20.5570 C   0  0  0  0  0  2  0  0  0  0  0  0
  -29.0860  -21.5280   20.6300 C   0  0  0  0  0  3  0  0  0  0  0  0
  -29.6910  -19.2040   19.9970 C   0  0  0  0  0  3  0  0  0  0  0  0
  -29.7120  -17.6260   22.1120 C   0  0  0  0  0  1  0  0  0  0  0  0
  -30.1140  -17.6650   20.6290 C   0  0  0  0  0  3  0  0  0  0  0  0
  -30.6220  -14.9970   19.9100 C   0  0  0  0  0  0  0  0  0  0  0  0
  -30.4530  -12.6430   18.9300 C   0  0  0  0  0  2  0  0  0  0  0  0
  -29.4350  -12.5740   17.7650 C   0  0  0  0  0  2  0  0  0  0  0  0
  -28.0030  -12.3670   18.2960 C   0  0  0  0  0  2  0  0  0  0  0  0
  -27.6760  -13.3060   19.4810 C   0  0  0  0  0  3  0  0  0  0  0  0
  -28.8000  -13.3130   20.5360 C   0  0  0  0  0  2  0  0  0  0  0  0
  -30.0170  -13.7420   19.8400 N   0  0  0  0  0  0  0  0  0  0  0  0
  -31.8290  -15.0470   19.6490 O   0  0  0  0  0  0  0  0  0  0  0  0
  -29.8380  -16.1930   20.0760 N   0  0  0  0  0  0  0  0  0  0  0  0
  -28.8520  -15.9870   20.0190 H   0  0  0  0  0  0  0  0  0  0  0  0
  -25.3650  -13.9160   20.3850 C   0  0  0  0  0  0  0  0  0  0  0  0
  -24.3150  -13.1510   20.8110 C   0  0  0  0  0  0  0  0  0  0  0  0
  -24.7520  -11.7930   20.7340 C   0  0  0  0  0  0  0  0  0  0  0  0
  -26.3720  -13.0220   20.0660 N   0  0  0  0  0  0  0  0  0  0  0  0
  -26.0190  -11.7400   20.3410 N   0  0  0  0  0  0  0  0  0  0  0  0
  -24.0170  -10.5400   20.9440 C   0  0  0  0  0  0  0  0  0  0  0  0
  -24.4740   -9.5600   21.8530 C   0  0  0  0  0  3  0  0  0  0  0  0
  -23.7360   -8.3730   22.0540 C   0  0  0  0  0  3  0  0  0  0  0  0
  -22.5310   -8.1580   21.3460 C   0  0  0  0  0  0  0  0  0  0  0  0
  -22.0930   -9.1270   20.4260 C   0  0  0  0  0  3  0  0  0  0  0  0
  -22.8290  -10.3060   20.2210 C   0  0  0  0  0  3  0  0  0  0  0  0
  -21.7610   -7.0260   21.4570 O   0  0  0  0  0  0  0  0  0  0  0  0
  -21.7320   -6.2880   22.6130 C   0  0  0  0  0  0  0  0  0  0  0  0
  -21.3470   -6.8540   23.8480 C   0  0  0  0  0  3  0  0  0  0  0  0
  -21.2630   -6.0460   24.9990 C   0  0  0  0  0  3  0  0  0  0  0  0
  -21.5560   -4.6710   24.9170 C   0  0  0  0  0  0  0  0  0  0  0  0
  -21.9330   -4.1030   23.6870 C   0  0  0  0  0  3  0  0  0  0  0  0
  -22.0190   -4.9110   22.5380 C   0  0  0  0  0  0  0  0  0  0  0  0
  -22.3630   -4.3550   21.3510 F   0  0  0  0  0  0  0  0  0  0  0  0
  -21.4700   -3.8910   26.0200 F   0  0  0  0  0  0  0  0  0  0  0  0
  -22.9440  -13.6460   21.1660 C   0  0  0  0  0  0  0  0  0  0  0  0
  -22.2610  -12.9510   22.0680 N   0  0  0  0  0  0  0  0  0  0  0  0
  -22.4910  -14.6830   20.6830 O   0  0  0  0  0  0  0  0  0  0  0  0
  -22.6380  -12.1090   22.4770 H   0  0  0  0  0  0  0  0  0  0  0  0
  -21.3500  -13.2740   22.3620 H   0  0  0  0  0  0  0  0  0  0  0  0
  -25.5400  -15.2850   20.2040 N   0  0  0  0  0  0  0  0  0  0  0  0
  -24.7790  -15.9440   20.3250 H   0  0  0  0  0  0  0  0  0  0  0  0
  -26.3380  -15.6930   19.7360 H   0  0  0  0  0  0  0  0  0  0  0  0
  -29.0900  -23.1440   20.0300 C   0  0  0  0  0  2  0  0  0  0  0  0
  -28.1220  -24.4950   20.4730 C   0  0  0  0  0  2  0  0  0  0  0  0
  -28.3920  -26.0510   20.2980 O   0  0  0  0  0  0  0  0  0  0  0  0
  -24.6600  -31.7820   23.1930 C   0  0  0  0  0  0  0  0  0  0  0  0
  -27.3420  -27.0560   20.2250 C   0  0  0  0  0  0  0  0  0  0  0  0
  -23.5160  -30.3840   21.5180 C   0  0  0  0  0  3  0  0  0  0  0  0
  -25.0120  -28.8210   20.1230 C   0  0  0  0  0  0  0  0  0  0  0  0
  -26.0740  -30.6570   21.4260 C   0  0  0  0  0  2  0  0  0  0  0  0
  -26.1740  -29.2640   20.7700 C   0  0  0  0  0  0  0  0  0  0  0  0
  -27.3410  -28.4010   20.7950 C   0  0  0  0  0  3  0  0  0  0  0  0
  -26.1630  -26.7400   19.5170 C   0  0  0  0  0  3  0  0  0  0  0  0
  -25.0250  -27.5770   19.4750 C   0  0  0  0  0  3  0  0  0  0  0  0
  -23.7770  -29.7140   20.1420 C   0  0  0  0  0  2  0  0  0  0  0  0
  -24.7700  -30.9640   22.1000 N   0  0  0  0  0  0  0  0  0  0  0  0
  -23.5560  -32.0530   23.6900 O   0  0  0  0  0  0  0  0  0  0  0  0
  -22.8180  -29.3670   22.4560 C   0  0  0  0  0  0  0  0  0  0  0  0
  -21.4930  -29.1960   22.2990 N   0  0  0  0  0  0  0  0  0  0  0  0
  -23.4730  -28.7330   23.2860 O   0  0  0  0  0  0  0  0  0  0  0  0
  -21.0210  -29.7620   21.6080 H   0  0  0  0  0  0  0  0  0  0  0  0
  -18.1130  -27.9610   22.7130 C   0  0  0  0  0  0  0  0  0  0  0  0
  -20.6620  -28.2450   23.0440 C   0  0  0  0  0  3  0  0  0  0  0  0
  -20.7920  -26.8180   22.4650 C   0  0  0  0  0  2  0  0  0  0  0  0
  -19.7200  -26.4940   21.4210 C   0  0  0  0  0  2  0  0  0  0  0  0
  -18.3210  -26.6190   22.0300 C   0  0  0  0  0  2  0  0  0  0  0  0
  -19.2130  -28.7310   23.1740 C   0  0  0  0  0  0  0  0  0  0  0  0
  -18.9660  -29.9870   23.7700 C   0  0  0  0  0  3  0  0  0  0  0  0
  -17.6530  -30.4740   23.9090 C   0  0  0  0  0  3  0  0  0  0  0  0
  -16.5680  -29.7010   23.4620 C   0  0  0  0  0  3  0  0  0  0  0  0
  -16.7980  -28.4450   22.8720 C   0  0  0  0  0  3  0  0  0  0  0  0
  -25.9100  -32.4290   23.8610 C   0  0  0  0  0  3  0  0  0  0  0  0
  -26.3950  -31.6560   25.1480 C   0  0  1  0  0  0  0  0  0  0  0  0
  -25.2720  -31.3990   26.1820 C   0  0  0  0  0  1  0  0  0  0  0  0
  -27.0040  -30.2850   24.7720 C   0  0  0  0  0  1  0  0  0  0  0  0
  -27.5170  -32.4590   25.8470 C   0  0  0  0  0  1  0  0  0  0  0  0
  -25.5670  -33.8200   24.1990 N   0  0  0  0  0  0  0  0  0  0  0  0
  -25.9040  -34.8910   23.4680 C   0  0  0  0  0  0  0  0  0  0  0  0
  -26.6010  -34.8090   22.4520 O   0  0  0  0  0  0  0  0  0  0  0  0
  -24.9490  -33.9550   24.9870 H   0  0  0  0  0  0  0  0  0  0  0  0
  -24.1640  -36.6740   23.1030 C   0  0  0  0  0  1  0  0  0  0  0  0
  -25.3920  -36.2690   23.9350 C   0  0  0  0  0  3  0  0  0  0  0  0
  -27.4980  -37.1690   24.8230 C   0  0  0  0  0  1  0  0  0  0  0  0
  -26.4150  -37.3350   23.8570 N   0  0  0  0  0  0  0  0  0  0  0  0
  -25.9960  -38.2510   23.9990 H   0  0  0  0  0  0  0  0  0  0  0  0
  1  3  1  0
  2  3  1  0
  3 45  1  0
  4  1  1  0
  4  2  1  0
  4  6  1  0
  6  5  1  0
  7 15  1  0
  8 13  1  0
  9 10  1  0
  9  8  1  0
 11 10  1  0
 11 20  1  0
 11 12  1  0
 13  7  1  0
 13 12  1  0
 14  7  2  0
 15  6  1  0
 16 15  1  0
 17 18  2  0
 18 37  1  0
 19 18  1  0
 19 22  1  0
 20 21  1  0
 20 17  1  0
 21 19  2  0
 22 23  1  0
 23 24  2  0
 25 28  1  0
 25 24  1  0
 26 25  2  0
 27 26  1  0
 27 22  2  0
 28 29  1  0
 29 30  1  0
 30 31  2  0
 32 31  1  0
 32 36  1  0
 33 32  2  0
 34 29  2  0
 34 33  1  0
 35 34  1  0
 37 38  1  0
 38 41  1  0
 38 40  1  0
 39 37  2  0
 42 43  1  0
 42 17  1  0
 44 42  1  0
 45 46  1  0
 47 46  1  0
 48 59  2  0
 49 47  1  0
 49 54  1  0
 50 58  1  0
 50 60  1  0
 51 57  1  0
 51 53  1  0
 52 58  1  0
 53 54  2  0
 53 52  1  0
 55 49  2  0
 56 55  1  0
 56 51  2  0
 57 50  1  0
 58 48  1  0
 60 62  2  0
 61 60  1  0
 63 61  1  0
 64 73  2  0
 64 69  1  0
 65 61  1  0
 65 69  1  0
 66 65  1  0
 67 68  1  0
 67 66  1  0
 68 64  1  0
 69 70  2  0
 70 71  1  0
 72 71  2  0
 73 72  1  0
 74 48  1  0
 74 79  1  0
 74 75  1  0
 75 78  1  1
 75 76  1  0
 77 75  1  0
 79 82  1  0
 80 84  1  0
 80 79  1  0
 81 80  2  0
 84 83  1  0
 86 84  1  0
 86 87  1  0
 86 85  1  0
M  ISO  4   7 100  15 100  46 101  47 101
M  END
>  <TORSDO>  (72) 
F 19

>  <SCORE>  (72) 
-14.868

>  <name>  (72) 
71

>  <ligand_id>  (72) 
71

>  <original_smiles>  (72) 
[H]c1c([H])c([H])c2c(c1[H])C([H])([H])C([H])([H])C([H])([H])C2([H])N([H])C(=O)C1([H])N(C(=O)C([H])(N([H])C(=O)C([H])(N([H])C([H])([H])[H])C([H])([H])[H])C(C([H])([H])[H])(C([H])([H])[H])C([H])([H])[H])C([H])([H])c2c([H])c(OC([H])([H])C([H])([H])C3([H])C([H])([H])C([H])(C([H])(N([H])C(=O)N4C([H])([H])C([H])([H])C([H])([H])C([H])(n5nc(-c6c([H])c([H])c(Oc7c([H])c([H])c(F)c([H])c7F)c([H])c6[H])c(C(=O)N([H])[H])c5N([H])[H])C4([H])[H])C([H])([H])[H])C3([H])[H])c([H])c([H])c2C1([H])[H]

>  <smiles>  (72) 
[H]c1c([H])c([H])c2c(c1[H])C([H])([H])C([H])([H])C([H])([H])C2([H])N([H])C(=O)C1([H])N(C(=O)C([H])(N([H])C(=O)C([H])(N([H])C([H])([H])[H])C([H])([H])[H])C(C([H])([H])[H])(C([H])([H])[H])C([H])([H])[H])C([H])([H])c2c([H])c(OC([H])([H])C([H])([H])C3([H])C([H])([H])C([H])(C([H])(N([H])C(=O)N4C([H])([H])C([H])([H])C([H])([H])C([H])(n5nc(-c6c([H])c([H])c(Oc7c([H])c([H])c(F)c([H])c7F)c([H])c6[H])c(C(=O)N([H])[H])c5N([H])[H])C4([H])[H])C([H])([H])[H])C3([H])[H])c([H])c([H])c2C1([H])[H]

$$$$
72:0:0
     RDKit          3D

 90 98  0  0  1  0  0  0  0  0999 V2000
  -28.5480  -21.2860   19.6700 C   0  0  0  0  0  2  0  0  0  0  0  0
  -28.5790  -19.1000   21.0730 C   0  0  0  0  0  3  0  0  0  0  0  0
  -29.9280  -19.1140   19.0790 C   0  0  0  0  0  3  0  0  0  0  0  0
  -28.9110  -17.7330   21.2820 C   0  0  0  0  0  3  0  0  0  0  0  0
  -30.2600  -17.7370   19.2870 C   0  0  0  0  0  3  0  0  0  0  0  0
  -29.0670  -19.8280   19.9610 C   0  0  0  0  0  0  0  0  0  0  0  0
  -29.7430  -17.0050   20.3900 C   0  0  0  0  0  0  0  0  0  0  0  0
  -30.6450  -14.5980   20.0150 C   0  0  0  0  0  0  0  0  0  0  0  0
  -30.3730  -12.3970   18.8890 C   0  0  0  0  0  2  0  0  0  0  0  0
  -29.3600  -12.5950   17.7370 C   0  0  0  0  0  2  0  0  0  0  0  0
  -27.9130  -12.4320   18.2470 C   0  0  0  0  0  2  0  0  0  0  0  0
  -27.6430  -13.2470   19.5420 C   0  0  0  0  0  3  0  0  0  0  0  0
  -28.7610  -13.0130   20.5830 C   0  0  0  0  0  2  0  0  0  0  0  0
  -30.0430  -13.3690   19.9530 N   0  0  0  0  0  0  0  0  0  0  0  0
  -31.7390  -14.8140   19.4830 O   0  0  0  0  0  0  0  0  0  0  0  0
  -29.9150  -15.5750   20.6360 N   0  0  0  0  0  0  0  0  0  0  0  0
  -29.2080  -15.1850   21.2370 H   0  0  0  0  0  0  0  0  0  0  0  0
  -25.2940  -13.8410   20.4030 C   0  0  0  0  0  0  0  0  0  0  0  0
  -24.2470  -13.0650   20.8210 C   0  0  0  0  0  0  0  0  0  0  0  0
  -24.7000  -11.7120   20.7350 C   0  0  0  0  0  0  0  0  0  0  0  0
  -26.3220  -12.9620   20.0930 N   0  0  0  0  0  0  0  0  0  0  0  0
  -25.9690  -11.6750   20.3460 N   0  0  0  0  0  0  0  0  0  0  0  0
  -23.9810  -10.4490   20.9420 C   0  0  0  0  0  0  0  0  0  0  0  0
  -24.4280   -9.4900   21.8780 C   0  0  0  0  0  3  0  0  0  0  0  0
  -23.7120   -8.2900   22.0720 C   0  0  0  0  0  3  0  0  0  0  0  0
  -22.5320   -8.0390   21.3350 C   0  0  0  0  0  0  0  0  0  0  0  0
  -22.1010   -8.9880   20.3910 C   0  0  0  0  0  3  0  0  0  0  0  0
  -22.8190  -10.1790   20.1920 C   0  0  0  0  0  3  0  0  0  0  0  0
  -21.7870   -6.8880   21.4390 O   0  0  0  0  0  0  0  0  0  0  0  0
  -21.7090   -6.1840   22.6140 C   0  0  0  0  0  0  0  0  0  0  0  0
  -21.2420   -6.7750   23.8080 C   0  0  0  0  0  3  0  0  0  0  0  0
  -21.1130   -5.9980   24.9750 C   0  0  0  0  0  3  0  0  0  0  0  0
  -21.4390   -4.6290   24.9510 C   0  0  0  0  0  0  0  0  0  0  0  0
  -21.8990   -4.0360   23.7630 C   0  0  0  0  0  3  0  0  0  0  0  0
  -22.0320   -4.8110   22.5980 C   0  0  0  0  0  0  0  0  0  0  0  0
  -22.4570   -4.2300   21.4500 F   0  0  0  0  0  0  0  0  0  0  0  0
  -21.3070   -3.8800   26.0710 F   0  0  0  0  0  0  0  0  0  0  0  0
  -22.8710  -13.5440   21.1820 C   0  0  0  0  0  0  0  0  0  0  0  0
  -22.1900  -12.8380   22.0800 N   0  0  0  0  0  0  0  0  0  0  0  0
  -22.4080  -14.5780   20.7020 O   0  0  0  0  0  0  0  0  0  0  0  0
  -22.5760  -12.0050   22.5000 H   0  0  0  0  0  0  0  0  0  0  0  0
  -21.2670  -13.1400   22.3560 H   0  0  0  0  0  0  0  0  0  0  0  0
  -25.4510  -15.2140   20.2420 N   0  0  0  0  0  0  0  0  0  0  0  0
  -24.6790  -15.8570   20.3800 H   0  0  0  0  0  0  0  0  0  0  0  0
  -26.2770  -15.6580   19.8600 H   0  0  0  0  0  0  0  0  0  0  0  0
  -30.0350  -22.4860   21.4210 C   0  0  0  0  0  1  0  0  0  0  0  0
  -29.4780  -22.5320   19.9900 C   0  0  0  0  0  3  0  0  0  0  0  0
  -29.0210  -24.0090   19.5270 C   0  0  0  0  0  2  0  0  0  0  0  0
  -28.3300  -25.0720   20.4960 C   0  0  0  0  0  2  0  0  0  0  0  0
  -28.4360  -26.5080   20.1340 O   0  0  0  0  0  0  0  0  0  0  0  0
  -24.6140  -31.8270   23.1990 C   0  0  0  0  0  0  0  0  0  0  0  0
  -27.2900  -27.3130   20.1420 C   0  0  0  0  0  0  0  0  0  0  0  0
  -23.4310  -30.4280   21.5460 C   0  0  0  0  0  3  0  0  0  0  0  0
  -24.9020  -28.8880   20.1270 C   0  0  0  0  0  0  0  0  0  0  0  0
  -25.9660  -30.7700   21.3750 C   0  0  0  0  0  2  0  0  0  0  0  0
  -26.0630  -29.3950   20.7270 C   0  0  0  0  0  0  0  0  0  0  0  0
  -27.2600  -28.6200   20.7190 C   0  0  0  0  0  3  0  0  0  0  0  0
  -26.1060  -26.8500   19.5310 C   0  0  0  0  0  3  0  0  0  0  0  0
  -24.9260  -27.6190   19.5230 C   0  0  0  0  0  3  0  0  0  0  0  0
  -23.6580  -29.7520   20.1680 C   0  0  0  0  0  2  0  0  0  0  0  0
  -24.6900  -31.0250   22.0980 N   0  0  0  0  0  0  0  0  0  0  0  0
  -23.5250  -32.0940   23.7300 O   0  0  0  0  0  0  0  0  0  0  0  0
  -22.7680  -29.4050   22.4980 C   0  0  0  0  0  0  0  0  0  0  0  0
  -21.4440  -29.2260   22.3650 N   0  0  0  0  0  0  0  0  0  0  0  0
  -23.4450  -28.7740   23.3140 O   0  0  0  0  0  0  0  0  0  0  0  0
  -20.9540  -29.7790   21.6770 H   0  0  0  0  0  0  0  0  0  0  0  0
  -18.0680  -28.0250   22.8470 C   0  0  0  0  0  0  0  0  0  0  0  0
  -20.6250  -28.2820   23.1280 C   0  0  0  0  0  3  0  0  0  0  0  0
  -20.7310  -26.8540   22.5430 C   0  0  0  0  0  2  0  0  0  0  0  0
  -19.6330  -26.5400   21.5220 C   0  0  0  0  0  2  0  0  0  0  0  0
  -18.2480  -26.6820   22.1590 C   0  0  0  0  0  2  0  0  0  0  0  0
  -19.1860  -28.7830   23.2870 C   0  0  0  0  0  0  0  0  0  0  0  0
  -18.9660  -30.0430   23.8840 C   0  0  0  0  0  3  0  0  0  0  0  0
  -17.6620  -30.5440   24.0500 C   0  0  0  0  0  3  0  0  0  0  0  0
  -16.5590  -29.7820   23.6310 C   0  0  0  0  0  3  0  0  0  0  0  0
  -16.7610  -28.5240   23.0330 C   0  0  0  0  0  3  0  0  0  0  0  0
  -25.8880  -32.4670   23.8320 C   0  0  0  0  0  3  0  0  0  0  0  0
  -26.4020  -31.6910   25.1060 C   0  0  1  0  0  0  0  0  0  0  0  0
  -25.3090  -31.4410   26.1720 C   0  0  0  0  0  1  0  0  0  0  0  0
  -26.9920  -30.3190   24.7080 C   0  0  0  0  0  1  0  0  0  0  0  0
  -27.5470  -32.4850   25.7790 C   0  0  0  0  0  1  0  0  0  0  0  0
  -25.5650  -33.8610   24.1690 N   0  0  0  0  0  0  0  0  0  0  0  0
  -25.8980  -34.9210   23.4220 C   0  0  0  0  0  0  0  0  0  0  0  0
  -26.5790  -34.8300   22.3980 O   0  0  0  0  0  0  0  0  0  0  0  0
  -24.9600  -34.0040   24.9650 H   0  0  0  0  0  0  0  0  0  0  0  0
  -24.1640  -36.7080   23.0650 C   0  0  0  0  0  1  0  0  0  0  0  0
  -25.3980  -36.3050   23.8860 C   0  0  0  0  0  3  0  0  0  0  0  0
  -27.5180  -37.1940   24.7430 C   0  0  0  0  0  1  0  0  0  0  0  0
  -26.4230  -37.3660   23.7930 N   0  0  0  0  0  0  0  0  0  0  0  0
  -26.0080  -38.2810   23.9480 H   0  0  0  0  0  0  0  0  0  0  0  0
  1  6  1  0
  1 47  1  0
  2  4  1  0
  3  5  2  0
  3  6  1  0
  5  7  1  0
  6  2  2  0
  7 16  1  0
  7  4  2  0
  8 16  1  0
  9 14  1  0
 10 11  1  0
 10  9  1  0
 12 11  1  0
 12 21  1  0
 12 13  1  0
 14  8  1  0
 14 13  1  0
 15  8  2  0
 16 17  1  0
 18 19  2  0
 19 38  1  0
 20 19  1  0
 20 23  1  0
 21 22  1  0
 21 18  1  0
 22 20  2  0
 23 24  1  0
 24 25  2  0
 26 29  1  0
 26 25  1  0
 27 26  2  0
 28 27  1  0
 28 23  2  0
 29 30  1  0
 30 31  1  0
 31 32  2  0
 33 32  1  0
 33 37  1  0
 34 33  2  0
 35 30  2  0
 35 34  1  0
 36 35  1  0
 38 39  1  0
 39 42  1  0
 39 41  1  0
 40 38  2  0
 43 44  1  0
 43 18  1  0
 45 43  1  0
 47 46  1  0
 48 47  1  0
 48 49  1  0
 50 52  1  0
 50 49  1  0
 51 62  2  0
 52 57  1  0
 53 61  1  0
 53 63  1  0
 54 60  1  0
 54 56  1  0
 55 61  1  0
 56 55  1  0
 57 56  2  0
 58 52  2  0
 59 58  1  0
 59 54  2  0
 60 53  1  0
 61 51  1  0
 63 65  2  0
 64 63  1  0
 66 64  1  0
 67 76  2  0
 67 72  1  0
 68 64  1  0
 68 72  1  0
 69 68  1  0
 70 71  1  0
 70 69  1  0
 71 67  1  0
 72 73  2  0
 73 74  1  0
 75 74  2  0
 76 75  1  0
 77 51  1  0
 77 82  1  0
 77 78  1  0
 78 81  1  1
 78 79  1  0
 80 78  1  0
 82 85  1  0
 83 87  1  0
 83 82  1  0
 84 83  2  0
 87 86  1  0
 89 87  1  0
 89 90  1  0
 89 88  1  0
M  ISO  4   8 100  16 100  49 101  50 101
M  END
>  <TORSDO>  (73) 
F 20

>  <SCORE>  (73) 
-12.864

>  <name>  (73) 
72

>  <ligand_id>  (73) 
72

>  <original_smiles>  (73) 
[H]c1c([H])c([H])c2c(c1[H])C([H])([H])C([H])([H])C([H])([H])C2([H])N([H])C(=O)C1([H])N(C(=O)C([H])(N([H])C(=O)C([H])(N([H])C([H])([H])[H])C([H])([H])[H])C(C([H])([H])[H])(C([H])([H])[H])C([H])([H])[H])C([H])([H])c2c([H])c(OC([H])([H])C([H])([H])C([H])(C([H])([H])[H])C([H])([H])c3c([H])c([H])c(N([H])C(=O)N4C([H])([H])C([H])([H])C([H])([H])C([H])(n5nc(-c6c([H])c([H])c(Oc7c([H])c([H])c(F)c([H])c7F)c([H])c6[H])c(C(=O)N([H])[H])c5N([H])[H])C4([H])[H])c([H])c3[H])c([H])c([H])c2C1([H])[H]

>  <smiles>  (73) 
[H]c1c([H])c([H])c2c(c1[H])C([H])([H])C([H])([H])C([H])([H])C2([H])N([H])C(=O)C1([H])N(C(=O)C([H])(N([H])C(=O)C([H])(N([H])C([H])([H])[H])C([H])([H])[H])C(C([H])([H])[H])(C([H])([H])[H])C([H])([H])[H])C([H])([H])c2c([H])c(OC([H])([H])C([H])([H])C([H])(C([H])([H])[H])C([H])([H])c3c([H])c([H])c(N([H])C(=O)N4C([H])([H])C([H])([H])C([H])([H])C([H])(n5nc(-c6c([H])c([H])c(Oc7c([H])c([H])c(F)c([H])c7F)c([H])c6[H])c(C(=O)N([H])[H])c5N([H])[H])C4([H])[H])c([H])c3[H])c([H])c([H])c2C1([H])[H]

$$$$
73:0:0
     RDKit          3D

 91 99  0  0  1  0  0  0  0  0999 V2000
  -28.2030  -21.9230   20.4720 C   0  0  0  0  0  2  0  0  0  0  0  0
  -30.5400  -21.6010   20.7740 C   0  0  0  0  0  2  0  0  0  0  0  0
  -29.2360  -20.7660   20.9430 C   0  0  0  0  0  3  0  0  0  0  0  0
  -28.7060  -23.4220   20.8480 C   0  0  0  0  0  3  0  0  0  0  0  0
  -30.2300  -23.1580   20.6250 C   0  0  0  0  0  3  0  0  0  0  0  0
  -31.1020  -23.9850   21.4920 N   0  0  0  0  0  4  0  0  0  0  0  0
  -30.8480  -23.9140   22.4610 H   0  0  0  0  0  0  0  0  0  0  0  0
  -31.0580  -24.9560   21.2330 H   0  0  0  0  0  0  0  0  0  0  0  0
  -32.0660  -23.7080   21.4060 H   0  0  0  0  0  0  0  0  0  0  0  0
  -29.1980  -19.2330   20.3160 C   0  0  0  0  0  0  0  0  0  0  0  0
  -28.4140  -19.0380   19.3850 O   0  0  0  0  0  0  0  0  0  0  0  0
  -30.0800  -17.9360   20.8120 C   0  0  0  0  0  2  0  0  0  0  0  0
  -29.5820  -16.3350   20.6850 C   0  0  0  0  0  2  0  0  0  0  0  0
  -30.4800  -14.9730   20.3870 C   0  0  0  0  0  0  0  0  0  0  0  0
  -30.4040  -12.6470   19.3800 C   0  0  0  0  0  2  0  0  0  0  0  0
  -29.4590  -12.6330   18.1500 C   0  0  0  0  0  2  0  0  0  0  0  0
  -27.9920  -12.4220   18.5720 C   0  0  0  0  0  2  0  0  0  0  0  0
  -27.5900  -13.3220   19.7680 C   0  0  0  0  0  3  0  0  0  0  0  0
  -28.6440  -13.2800   20.8930 C   0  0  0  0  0  2  0  0  0  0  0  0
  -29.9300  -13.6960   20.3230 N   0  0  0  0  0  0  0  0  0  0  0  0
  -31.6680  -15.0890   20.0630 O   0  0  0  0  0  0  0  0  0  0  0  0
  -25.2050  -13.8950   20.5090 C   0  0  0  0  0  0  0  0  0  0  0  0
  -24.1440  -13.1170   20.8810 C   0  0  0  0  0  0  0  0  0  0  0  0
  -24.6130  -11.7680   20.8500 C   0  0  0  0  0  0  0  0  0  0  0  0
  -26.2510  -13.0210   20.2660 N   0  0  0  0  0  0  0  0  0  0  0  0
  -25.9030  -11.7350   20.5340 N   0  0  0  0  0  0  0  0  0  0  0  0
  -23.8930  -10.5040   21.0420 C   0  0  0  0  0  0  0  0  0  0  0  0
  -24.3290   -9.5340   21.9700 C   0  0  0  0  0  3  0  0  0  0  0  0
  -23.6050   -8.3370   22.1500 C   0  0  0  0  0  3  0  0  0  0  0  0
  -22.4300   -8.0980   21.4000 C   0  0  0  0  0  0  0  0  0  0  0  0
  -22.0090   -9.0590   20.4610 C   0  0  0  0  0  3  0  0  0  0  0  0
  -22.7340  -10.2470   20.2800 C   0  0  0  0  0  3  0  0  0  0  0  0
  -21.6740   -6.9530   21.4910 O   0  0  0  0  0  0  0  0  0  0  0  0
  -21.6350   -6.2060   22.6400 C   0  0  0  0  0  0  0  0  0  0  0  0
  -21.2220   -6.7560   23.8750 C   0  0  0  0  0  3  0  0  0  0  0  0
  -21.1320   -5.9360   25.0160 C   0  0  0  0  0  3  0  0  0  0  0  0
  -21.4410   -4.5640   24.9250 C   0  0  0  0  0  0  0  0  0  0  0  0
  -21.8480   -4.0140   23.6970 C   0  0  0  0  0  3  0  0  0  0  0  0
  -21.9420   -4.8330   22.5570 C   0  0  0  0  0  0  0  0  0  0  0  0
  -22.3120   -4.2930   21.3710 F   0  0  0  0  0  0  0  0  0  0  0  0
  -21.3470   -3.7740   26.0200 F   0  0  0  0  0  0  0  0  0  0  0  0
  -22.7470  -13.5890   21.1550 C   0  0  0  0  0  0  0  0  0  0  0  0
  -22.0200  -12.8920   22.0220 N   0  0  0  0  0  0  0  0  0  0  0  0
  -22.3080  -14.6140   20.6350 O   0  0  0  0  0  0  0  0  0  0  0  0
  -22.3860  -12.0570   22.4590 H   0  0  0  0  0  0  0  0  0  0  0  0
  -21.0850  -13.1920   22.2490 H   0  0  0  0  0  0  0  0  0  0  0  0
  -25.3600  -15.2680   20.3310 N   0  0  0  0  0  0  0  0  0  0  0  0
  -24.5840  -15.9110   20.4450 H   0  0  0  0  0  0  0  0  0  0  0  0
  -26.2020  -15.7210   20.0030 H   0  0  0  0  0  0  0  0  0  0  0  0
  -27.9640  -24.7590   20.1620 C   0  0  0  0  0  2  0  0  0  0  0  0
  -28.2180  -26.2580   20.3970 O   0  0  0  0  0  0  0  0  0  0  0  0
  -24.6080  -31.9170   23.2530 C   0  0  0  0  0  0  0  0  0  0  0  0
  -27.1640  -27.2200   20.2520 C   0  0  0  0  0  0  0  0  0  0  0  0
  -23.3990  -30.5100   21.6270 C   0  0  0  0  0  3  0  0  0  0  0  0
  -24.8360  -28.9410   20.1930 C   0  0  0  0  0  0  0  0  0  0  0  0
  -25.9450  -30.7850   21.4490 C   0  0  0  0  0  2  0  0  0  0  0  0
  -26.0130  -29.3970   20.8010 C   0  0  0  0  0  0  0  0  0  0  0  0
  -27.1790  -28.5510   20.8150 C   0  0  0  0  0  3  0  0  0  0  0  0
  -25.9730  -26.8680   19.5730 C   0  0  0  0  0  3  0  0  0  0  0  0
  -24.8270  -27.6920   19.5550 C   0  0  0  0  0  3  0  0  0  0  0  0
  -23.6080  -29.8360   20.2450 C   0  0  0  0  0  2  0  0  0  0  0  0
  -24.6680  -31.0940   22.1620 N   0  0  0  0  0  0  0  0  0  0  0  0
  -23.5260  -32.2080   23.7840 O   0  0  0  0  0  0  0  0  0  0  0  0
  -22.7290  -29.5000   22.5890 C   0  0  0  0  0  0  0  0  0  0  0  0
  -21.4010  -29.3340   22.4720 N   0  0  0  0  0  0  0  0  0  0  0  0
  -23.4060  -28.8690   23.4060 O   0  0  0  0  0  0  0  0  0  0  0  0
  -20.9170  -29.9150   21.8020 H   0  0  0  0  0  0  0  0  0  0  0  0
  -18.0110  -28.1520   22.9710 C   0  0  0  0  0  0  0  0  0  0  0  0
  -20.5720  -28.4000   23.2370 C   0  0  0  0  0  3  0  0  0  0  0  0
  -20.6620  -26.9670   22.6650 C   0  0  0  0  0  2  0  0  0  0  0  0
  -19.5590  -26.6490   21.6500 C   0  0  0  0  0  2  0  0  0  0  0  0
  -18.1790  -26.8000   22.2960 C   0  0  0  0  0  2  0  0  0  0  0  0
  -19.1360  -28.9120   23.3920 C   0  0  0  0  0  0  0  0  0  0  0  0
  -18.9260  -30.1770   23.9820 C   0  0  0  0  0  3  0  0  0  0  0  0
  -17.6240  -30.6850   24.1480 C   0  0  0  0  0  3  0  0  0  0  0  0
  -16.5150  -29.9230   23.7420 C   0  0  0  0  0  3  0  0  0  0  0  0
  -16.7100  -28.6580   23.1600 C   0  0  0  0  0  3  0  0  0  0  0  0
  -25.8910  -32.5490   23.8720 C   0  0  0  0  0  3  0  0  0  0  0  0
  -25.5850  -33.9510   24.1940 N   0  0  0  0  0  0  0  0  0  0  0  0
  -25.9210  -34.9990   23.4350 C   0  0  0  0  0  0  0  0  0  0  0  0
  -26.5890  -34.8910   22.4040 O   0  0  0  0  0  0  0  0  0  0  0  0
  -24.9800  -34.1070   24.9860 H   0  0  0  0  0  0  0  0  0  0  0  0
  -24.1900  -36.7990   23.0960 C   0  0  0  0  0  1  0  0  0  0  0  0
  -25.4420  -36.3910   23.8940 C   0  0  0  0  0  3  0  0  0  0  0  0
  -27.5890  -37.2750   24.7000 C   0  0  0  0  0  1  0  0  0  0  0  0
  -26.4790  -37.4390   23.7670 N   0  0  0  0  0  0  0  0  0  0  0  0
  -26.0800  -38.3630   23.9170 H   0  0  0  0  0  0  0  0  0  0  0  0
  -26.3980  -31.7860   25.1570 C   0  0  1  0  0  0  0  0  0  0  0  0
  -25.2920  -31.5670   26.2190 C   0  0  0  0  0  1  0  0  0  0  0  0
  -26.9770  -30.4030   24.7790 C   0  0  0  0  0  1  0  0  0  0  0  0
  -27.5530  -32.5790   25.8120 C   0  0  0  0  0  1  0  0  0  0  0  0
  1  4  1  0
  1  3  1  0
  2  3  1  0
  3 10  1  0
  4 50  1  0
  5  2  1  0
  5  4  1  0
  5  6  1  0
  6  7  1  0
  8  6  1  0
  9  6  1  0
 10 12  1  0
 11 10  2  0
 13 12  1  0
 14 13  1  0
 15 20  1  0
 16 17  1  0
 16 15  1  0
 18 17  1  0
 18 25  1  0
 18 19  1  0
 20 14  1  0
 20 19  1  0
 21 14  2  0
 22 23  2  0
 23 42  1  0
 24 23  1  0
 24 27  1  0
 25 22  1  0
 25 26  1  0
 26 24  2  0
 27 28  1  0
 28 29  2  0
 30 33  1  0
 30 29  1  0
 31 30  2  0
 32 31  1  0
 32 27  2  0
 33 34  1  0
 34 35  1  0
 35 36  2  0
 37 36  1  0
 37 41  1  0
 38 37  2  0
 39 34  2  0
 39 38  1  0
 40 39  1  0
 42 43  1  0
 43 46  1  0
 43 45  1  0
 44 42  2  0
 47 48  1  0
 47 22  1  0
 49 47  1  0
 50 51  1  0
 52 63  2  0
 53 51  1  0
 53 58  1  0
 54 62  1  0
 54 64  1  0
 55 61  1  0
 55 57  1  0
 56 62  1  0
 57 58  2  0
 57 56  1  0
 59 53  2  0
 60 59  1  0
 60 55  2  0
 61 54  1  0
 62 52  1  0
 64 66  2  0
 65 64  1  0
 67 65  1  0
 68 77  2  0
 68 73  1  0
 69 65  1  0
 69 73  1  0
 70 69  1  0
 71 72  1  0
 71 70  1  0
 72 68  1  0
 73 74  2  0
 74 75  1  0
 76 75  2  0
 77 76  1  0
 78 52  1  0
 78 79  1  0
 78 88  1  0
 79 82  1  0
 80 84  1  0
 80 79  1  0
 81 80  2  0
 84 83  1  0
 86 84  1  0
 86 87  1  0
 86 85  1  0
 88 91  1  1
 88 89  1  0
 90 88  1  0
M  ISO  4  13 100  14 100  50 101  51 101
M  END
>  <TORSDO>  (74) 
F 21

>  <SCORE>  (74) 
-13.911

>  <name>  (74) 
73

>  <ligand_id>  (74) 
73

>  <original_smiles>  (74) 
[H]c1c([H])c([H])c2c(c1[H])C([H])([H])C([H])([H])C([H])([H])C2([H])N([H])C(=O)C1([H])N(C(=O)C([H])(N([H])C(=O)C([H])(N([H])C([H])([H])[H])C([H])([H])[H])C(C([H])([H])[H])(C([H])([H])[H])C([H])([H])[H])C([H])([H])c2c([H])c(OC([H])([H])C3([H])C([H])([H])C([H])(C(=O)C([H])([H])C([H])([H])C(=O)N4C([H])([H])C([H])([H])C([H])([H])C([H])(n5nc(-c6c([H])c([H])c(Oc7c([H])c([H])c(F)c([H])c7F)c([H])c6[H])c(C(=O)N([H])[H])c5N([H])[H])C4([H])[H])C([H])([H])C3([H])[N+]([H])([H])[H])c([H])c([H])c2C1([H])[H]

>  <smiles>  (74) 
[H]c1c([H])c([H])c2c(c1[H])C([H])([H])C([H])([H])C([H])([H])C2([H])N([H])C(=O)C1([H])N(C(=O)C([H])(N([H])C(=O)C([H])(N([H])C([H])([H])[H])C([H])([H])[H])C(C([H])([H])[H])(C([H])([H])[H])C([H])([H])[H])C([H])([H])c2c([H])c(OC([H])([H])C3([H])C([H])([H])C([H])(C(=O)C([H])([H])C([H])([H])C(=O)N4C([H])([H])C([H])([H])C([H])([H])C([H])(n5nc(-c6c([H])c([H])c(Oc7c([H])c([H])c(F)c([H])c7F)c([H])c6[H])c(C(=O)N([H])[H])c5N([H])[H])C4([H])[H])C([H])([H])C3([H])[N+]([H])([H])[H])c([H])c([H])c2C1([H])[H]

$$$$
74:0:0
     RDKit          3D

 87 93  0  0  1  0  0  0  0  0999 V2000
  -29.1460  -21.9810   19.8800 C   0  0  0  0  0  1  0  0  0  0  0  0
  -30.3670  -15.7080   19.7740 C   0  0  0  0  0  0  0  0  0  0  0  0
  -30.3270  -13.1730   18.8990 C   0  0  0  0  0  2  0  0  0  0  0  0
  -29.3260  -12.7820   17.7740 C   0  0  0  0  0  2  0  0  0  0  0  0
  -27.9730  -12.3950   18.3780 C   0  0  0  0  0  2  0  0  0  0  0  0
  -27.5570  -13.3870   19.4810 C   0  0  0  0  0  3  0  0  0  0  0  0
  -28.6830  -13.7340   20.4950 C   0  0  0  0  0  2  0  0  0  0  0  0
  -29.7930  -14.3510   19.7360 N   0  0  0  0  0  0  0  0  0  0  0  0
  -31.5630  -15.5820   19.4440 O   0  0  0  0  0  0  0  0  0  0  0  0
  -29.7000  -18.5080   19.3820 C   0  0  0  0  0  0  0  0  0  0  0  0
  -29.2330  -19.2970   21.4680 C   0  0  0  0  0  2  0  0  0  0  0  0
  -29.4540  -17.6740   21.3670 C   0  0  0  0  0  2  0  0  0  0  0  0
  -29.0150  -20.0160   20.0960 C   0  0  0  0  0  2  0  0  0  0  0  0
  -29.7200  -17.1290   20.0060 N   0  0  0  0  0  0  0  0  0  0  0  0
  -30.1670  -18.6300   18.2470 O   0  0  0  0  0  0  0  0  0  0  0  0
  -25.2770  -13.9010   20.4760 C   0  0  0  0  0  0  0  0  0  0  0  0
  -24.2440  -13.1130   20.8880 C   0  0  0  0  0  0  0  0  0  0  0  0
  -24.6960  -11.7620   20.7670 C   0  0  0  0  0  0  0  0  0  0  0  0
  -26.2900  -13.0360   20.1100 N   0  0  0  0  0  0  0  0  0  0  0  0
  -25.9610  -11.7370   20.3550 N   0  0  0  0  0  0  0  0  0  0  0  0
  -23.9790  -10.4940   20.9630 C   0  0  0  0  0  0  0  0  0  0  0  0
  -24.4400   -9.5150   21.8720 C   0  0  0  0  0  3  0  0  0  0  0  0
  -23.7170   -8.3170   22.0550 C   0  0  0  0  0  3  0  0  0  0  0  0
  -22.5200   -8.0870   21.3320 C   0  0  0  0  0  0  0  0  0  0  0  0
  -22.0830   -9.0550   20.4100 C   0  0  0  0  0  3  0  0  0  0  0  0
  -22.8060  -10.2450   20.2230 C   0  0  0  0  0  3  0  0  0  0  0  0
  -21.7670   -6.9420   21.4280 O   0  0  0  0  0  0  0  0  0  0  0  0
  -21.7000   -6.2220   22.5950 C   0  0  0  0  0  0  0  0  0  0  0  0
  -21.2410   -6.7980   23.8000 C   0  0  0  0  0  3  0  0  0  0  0  0
  -21.1170   -6.0060   24.9590 C   0  0  0  0  0  3  0  0  0  0  0  0
  -21.4460   -4.6370   24.9150 C   0  0  0  0  0  0  0  0  0  0  0  0
  -21.8960   -4.0570   23.7150 C   0  0  0  0  0  3  0  0  0  0  0  0
  -22.0180   -4.8480   22.5590 C   0  0  0  0  0  0  0  0  0  0  0  0
  -22.4330   -4.2820   21.4010 F   0  0  0  0  0  0  0  0  0  0  0  0
  -21.3220   -3.8740   26.0270 F   0  0  0  0  0  0  0  0  0  0  0  0
  -22.8770  -13.5780   21.2900 C   0  0  0  0  0  0  0  0  0  0  0  0
  -22.2250  -12.8510   22.1860 N   0  0  0  0  0  0  0  0  0  0  0  0
  -22.4040  -14.6240   20.8380 O   0  0  0  0  0  0  0  0  0  0  0  0
  -22.6310  -12.0040   22.5560 H   0  0  0  0  0  0  0  0  0  0  0  0
  -21.3150  -13.1470   22.5160 H   0  0  0  0  0  0  0  0  0  0  0  0
  -25.4520  -15.2810   20.3470 N   0  0  0  0  0  0  0  0  0  0  0  0
  -24.7480  -15.9740   20.5660 H   0  0  0  0  0  0  0  0  0  0  0  0
  -26.3270  -15.6880   20.0450 H   0  0  0  0  0  0  0  0  0  0  0  0
  -28.4420  -21.9380   17.3720 C   0  0  0  0  0  1  0  0  0  0  0  0
  -29.5930  -22.0560   18.3940 C   0  0  0  0  0  2  0  0  0  0  0  0
  -28.1670  -23.6850   20.1600 C   0  0  0  0  0  1  0  0  0  0  0  0
  -28.2940  -25.4760   20.1740 O   0  0  0  0  0  0  0  0  0  0  0  0
  -24.7210  -31.8110   23.1440 C   0  0  0  0  0  0  0  0  0  0  0  0
  -27.2910  -26.6890   20.1780 C   0  0  0  0  0  0  0  0  0  0  0  0
  -23.5500  -30.3990   21.5100 C   0  0  0  0  0  3  0  0  0  0  0  0
  -25.0100  -28.7420   20.1190 C   0  0  0  0  0  0  0  0  0  0  0  0
  -26.1330  -30.5370   21.4040 C   0  0  0  0  0  2  0  0  0  0  0  0
  -26.2050  -29.0950   20.7540 C   0  0  0  0  0  0  0  0  0  0  0  0
  -27.3270  -28.1010   20.7500 C   0  0  0  0  0  3  0  0  0  0  0  0
  -26.0420  -26.5490   19.5150 C   0  0  0  0  0  3  0  0  0  0  0  0
  -24.9660  -27.4940   19.4780 C   0  0  0  0  0  3  0  0  0  0  0  0
  -23.8030  -29.6910   20.1460 C   0  0  0  0  0  2  0  0  0  0  0  0
  -24.8240  -30.9510   22.0720 N   0  0  0  0  0  0  0  0  0  0  0  0
  -23.6210  -32.1090   23.6480 O   0  0  0  0  0  0  0  0  0  0  0  0
  -22.8260  -29.4320   22.4900 C   0  0  0  0  0  0  0  0  0  0  0  0
  -21.4930  -29.2850   22.3690 N   0  0  0  0  0  0  0  0  0  0  0  0
  -23.4780  -28.8110   23.3320 O   0  0  0  0  0  0  0  0  0  0  0  0
  -21.0150  -29.8450   21.6760 H   0  0  0  0  0  0  0  0  0  0  0  0
  -18.1000  -28.0670   22.8690 C   0  0  0  0  0  0  0  0  0  0  0  0
  -20.6600  -28.3490   23.1400 C   0  0  0  0  0  3  0  0  0  0  0  0
  -20.7670  -26.9120   22.5740 C   0  0  0  0  0  2  0  0  0  0  0  0
  -19.6690  -26.5850   21.5580 C   0  0  0  0  0  2  0  0  0  0  0  0
  -18.2840  -26.7200   22.1930 C   0  0  0  0  0  2  0  0  0  0  0  0
  -19.2130  -28.8410   23.2950 C   0  0  0  0  0  0  0  0  0  0  0  0
  -18.9830  -30.1010   23.8800 C   0  0  0  0  0  3  0  0  0  0  0  0
  -17.6710  -30.5900   24.0510 C   0  0  0  0  0  3  0  0  0  0  0  0
  -16.5760  -29.8140   23.6390 C   0  0  0  0  0  3  0  0  0  0  0  0
  -16.7880  -28.5550   23.0530 C   0  0  0  0  0  3  0  0  0  0  0  0
  -25.9730  -32.4760   23.7910 C   0  0  0  0  0  3  0  0  0  0  0  0
  -25.6310  -33.8700   24.1390 N   0  0  0  0  0  0  0  0  0  0  0  0
  -25.9480  -34.9510   23.4080 C   0  0  0  0  0  0  0  0  0  0  0  0
  -26.6100  -34.8760   22.3710 O   0  0  0  0  0  0  0  0  0  0  0  0
  -25.0330  -33.9940   24.9420 H   0  0  0  0  0  0  0  0  0  0  0  0
  -24.1920  -36.7380   23.1290 C   0  0  0  0  0  1  0  0  0  0  0  0
  -25.4570  -36.3290   23.9020 C   0  0  0  0  0  3  0  0  0  0  0  0
  -27.5950  -37.2360   24.7050 C   0  0  0  0  0  1  0  0  0  0  0  0
  -26.4750  -37.4000   23.7820 N   0  0  0  0  0  0  0  0  0  0  0  0
  -26.0600  -38.3140   23.9490 H   0  0  0  0  0  0  0  0  0  0  0  0
  -26.4740  -31.7170   25.0830 C   0  0  1  0  0  0  0  0  0  0  0  0
  -25.3700  -31.4730   26.1410 C   0  0  0  0  0  1  0  0  0  0  0  0
  -27.0730  -30.3420   24.7170 C   0  0  0  0  0  1  0  0  0  0  0  0
  -27.6120  -32.5230   25.7520 C   0  0  0  0  0  1  0  0  0  0  0  0
  2 14  1  0
  3  8  1  0
  4  5  1  0
  4  3  1  0
  6  5  1  0
  6 19  1  0
  6  7  1  0
  8  2  1  0
  8  7  1  0
  9  2  2  0
 10 14  1  0
 10 13  1  0
 12 11  1  0
 13 11  1  0
 14 12  1  0
 15 10  2  0
 16 17  2  0
 17 36  1  0
 18 17  1  0
 18 21  1  0
 19 20  1  0
 19 16  1  0
 20 18  2  0
 21 22  1  0
 22 23  2  0
 24 27  1  0
 24 23  1  0
 25 24  2  0
 26 25  1  0
 26 21  2  0
 27 28  1  0
 28 29  1  0
 29 30  2  0
 31 30  1  0
 31 35  1  0
 32 31  2  0
 33 28  2  0
 33 32  1  0
 34 33  1  0
 36 37  1  0
 37 40  1  0
 37 39  1  0
 38 36  2  0
 41 16  1  0
 41 42  1  0
 43 41  1  0
 44 45  1  0
 45  1  1  0
 46 47  1  0
 47 49  1  0
 48 59  2  0
 49 54  1  0
 50 58  1  0
 50 60  1  0
 51 57  1  0
 51 53  1  0
 52 58  1  0
 53 52  1  0
 54 53  2  0
 55 49  2  0
 56 55  1  0
 56 51  2  0
 57 50  1  0
 58 48  1  0
 60 62  2  0
 61 60  1  0
 63 61  1  0
 64 73  2  0
 64 69  1  0
 65 61  1  0
 65 69  1  0
 66 65  1  0
 67 68  1  0
 67 66  1  0
 68 64  1  0
 69 70  2  0
 70 71  1  0
 72 71  2  0
 73 72  1  0
 74 48  1  0
 74 75  1  0
 74 84  1  0
 75 78  1  0
 76 80  1  0
 76 75  1  0
 77 76  2  0
 80 79  1  0
 82 80  1  0
 82 83  1  0
 82 81  1  0
 84 87  1  1
 84 85  1  0
 86 84  1  0
M  ISO  4   2 100  14 100  46 101  47 101
M  END
>  <TORSDO>  (75) 
F 18

>  <SCORE>  (75) 
-15.183

>  <name>  (75) 
74

>  <ligand_id>  (75) 
74

>  <original_smiles>  (75) 
[H]c1c([H])c([H])c2c(c1[H])C([H])([H])C([H])([H])C([H])([H])C2([H])N([H])C(=O)C1([H])N(C(=O)C([H])(N([H])C(=O)C([H])(N([H])C([H])([H])[H])C([H])([H])[H])C(C([H])([H])[H])(C([H])([H])[H])C([H])([H])[H])C([H])([H])c2c([H])c(OC([H])([H])C([H])(C([H])([H])C([H])([H])[H])C3([H])C(=O)N(C(=O)N4C([H])([H])C([H])([H])C([H])([H])C([H])(n5nc(-c6c([H])c([H])c(Oc7c([H])c([H])c(F)c([H])c7F)c([H])c6[H])c(C(=O)N([H])[H])c5N([H])[H])C4([H])[H])C([H])([H])C3([H])[H])c([H])c([H])c2C1([H])[H]

>  <smiles>  (75) 
[H]c1c([H])c([H])c2c(c1[H])C([H])([H])C([H])([H])C([H])([H])C2([H])N([H])C(=O)C1([H])N(C(=O)C([H])(N([H])C(=O)C([H])(N([H])C([H])([H])[H])C([H])([H])[H])C(C([H])([H])[H])(C([H])([H])[H])C([H])([H])[H])C([H])([H])c2c([H])c(OC([H])([H])C([H])(C([H])([H])C([H])([H])[H])C3([H])C(=O)N(C(=O)N4C([H])([H])C([H])([H])C([H])([H])C([H])(n5nc(-c6c([H])c([H])c(Oc7c([H])c([H])c(F)c([H])c7F)c([H])c6[H])c(C(=O)N([H])[H])c5N([H])[H])C4([H])[H])C([H])([H])C3([H])[H])c([H])c([H])c2C1([H])[H]

$$$$
75:0:0
     RDKit          3D

 90 98  0  0  1  0  0  0  0  0999 V2000
  -29.5600  -21.2200   18.6590 N   0  0  0  0  0  4  0  0  0  0  0  0
  -30.5030  -21.5150   18.4520 H   0  0  0  0  0  0  0  0  0  0  0  0
  -29.1520  -21.0340   17.7590 H   0  0  0  0  0  0  0  0  0  0  0  0
  -30.9420  -15.4480   18.8490 C   0  0  0  0  0  0  0  0  0  0  0  0
  -30.8000  -12.9610   18.0680 C   0  0  0  0  0  2  0  0  0  0  0  0
  -29.6730  -12.6340   17.0550 C   0  0  0  0  0  2  0  0  0  0  0  0
  -28.3450  -12.3440   17.7770 C   0  0  0  0  0  2  0  0  0  0  0  0
  -28.0820  -13.3610   18.9150 C   0  0  0  0  0  3  0  0  0  0  0  0
  -29.3160  -13.5940   19.8090 C   0  0  0  0  0  2  0  0  0  0  0  0
  -30.3810  -14.1320   18.9390 N   0  0  0  0  0  0  0  0  0  0  0  0
  -32.0920  -15.3970   18.3750 O   0  0  0  0  0  0  0  0  0  0  0  0
  -28.9850  -17.1310   19.6870 C   0  0  0  0  0  2  0  0  0  0  0  0
  -30.5450  -18.3030   18.5130 C   0  0  0  0  0  2  0  0  0  0  0  0
  -28.6310  -18.7370   19.8140 C   0  0  0  0  0  3  0  0  0  0  0  0
  -29.8030  -19.6560   19.2930 C   0  0  0  0  0  3  0  0  0  0  0  0
  -30.2640  -16.7900   19.0030 N   0  0  0  0  0  0  0  0  0  0  0  0
  -26.0260  -13.9530   20.3020 C   0  0  0  0  0  0  0  0  0  0  0  0
  -25.0090  -13.2070   20.8100 C   0  0  0  0  0  0  0  0  0  0  0  0
  -25.3190  -11.8470   20.4920 C   0  0  0  0  0  0  0  0  0  0  0  0
  -26.8880  -13.0610   19.6890 N   0  0  0  0  0  0  0  0  0  0  0  0
  -26.4900  -11.7750   19.8710 N   0  0  0  0  0  0  0  0  0  0  0  0
  -24.5350  -10.6240   20.6920 C   0  0  0  0  0  0  0  0  0  0  0  0
  -24.9840   -9.5850   21.5350 C   0  0  0  0  0  3  0  0  0  0  0  0
  -24.2010   -8.4320   21.7260 C   0  0  0  0  0  3  0  0  0  0  0  0
  -22.9510   -8.3060   21.0800 C   0  0  0  0  0  0  0  0  0  0  0  0
  -22.5180   -9.3310   20.2190 C   0  0  0  0  0  3  0  0  0  0  0  0
  -23.3040  -10.4790   20.0280 C   0  0  0  0  0  3  0  0  0  0  0  0
  -22.1380   -7.2070   21.1840 O   0  0  0  0  0  0  0  0  0  0  0  0
  -21.9830   -6.5280   22.3660 C   0  0  0  0  0  0  0  0  0  0  0  0
  -21.4690   -7.1660   23.5190 C   0  0  0  0  0  3  0  0  0  0  0  0
  -21.2610   -6.4240   24.6970 C   0  0  0  0  0  3  0  0  0  0  0  0
  -21.5530   -5.0430   24.7210 C   0  0  0  0  0  0  0  0  0  0  0  0
  -22.0540   -4.4120   23.5750 C   0  0  0  0  0  3  0  0  0  0  0  0
  -22.2630   -5.1530   22.3970 C   0  0  0  0  0  0  0  0  0  0  0  0
  -22.7300   -4.5330   21.2840 F   0  0  0  0  0  0  0  0  0  0  0  0
  -21.3420   -4.3270   25.8500 F   0  0  0  0  0  0  0  0  0  0  0  0
  -23.7620  -13.7320   21.4620 C   0  0  0  0  0  0  0  0  0  0  0  0
  -23.2070  -12.9990   22.4120 N   0  0  0  0  0  0  0  0  0  0  0  0
  -23.3070  -14.8370   21.1610 O   0  0  0  0  0  0  0  0  0  0  0  0
  -23.5930  -12.1070   22.6880 H   0  0  0  0  0  0  0  0  0  0  0  0
  -22.3740  -13.3350   22.8770 H   0  0  0  0  0  0  0  0  0  0  0  0
  -26.2770  -15.3260   20.2820 N   0  0  0  0  0  0  0  0  0  0  0  0
  -25.6440  -15.9830   20.7240 H   0  0  0  0  0  0  0  0  0  0  0  0
  -27.0780  -15.7630   19.8540 H   0  0  0  0  0  0  0  0  0  0  0  0
  -28.1800  -19.1390   21.2360 C   0  0  0  0  0  3  0  0  0  0  0  0
  -27.6850  -18.3320   22.0730 N   0  0  0  0  0  0  0  0  0  0  0  0
  -27.6270  -17.3950   21.6800 H   0  0  0  0  0  0  0  0  0  0  0  0
  -28.8460  -22.6640   19.1970 C   0  0  0  0  0  2  0  0  0  0  0  0
  -28.7880  -24.3480   18.4740 C   0  0  0  0  0  2  0  0  0  0  0  0
  -28.6710  -25.9080   19.0340 O   0  0  0  0  0  0  0  0  0  0  0  0
  -24.7580  -31.3170   22.5360 C   0  0  0  0  0  0  0  0  0  0  0  0
  -27.5930  -26.9350   19.0390 C   0  0  0  0  0  0  0  0  0  0  0  0
  -23.6310  -29.9890   20.7840 C   0  0  0  0  0  3  0  0  0  0  0  0
  -25.1650  -28.6150   19.2100 C   0  0  0  0  0  0  0  0  0  0  0  0
  -26.1660  -30.3940   20.6330 C   0  0  0  0  0  2  0  0  0  0  0  0
  -26.3240  -29.0570   19.8540 C   0  0  0  0  0  0  0  0  0  0  0  0
  -27.5270  -28.2270   19.7640 C   0  0  0  0  0  3  0  0  0  0  0  0
  -26.4010  -26.6510   18.3510 C   0  0  0  0  0  3  0  0  0  0  0  0
  -25.2220  -27.4320   18.4440 C   0  0  0  0  0  3  0  0  0  0  0  0
  -23.8890  -29.4250   19.3560 C   0  0  0  0  0  2  0  0  0  0  0  0
  -24.8720  -30.5920   21.3750 N   0  0  0  0  0  0  0  0  0  0  0  0
  -23.6640  -31.4920   23.0980 O   0  0  0  0  0  0  0  0  0  0  0  0
  -23.0090  -28.8830   21.6750 C   0  0  0  0  0  0  0  0  0  0  0  0
  -21.6790  -28.6840   21.5920 N   0  0  0  0  0  0  0  0  0  0  0  0
  -23.7330  -28.2010   22.4030 O   0  0  0  0  0  0  0  0  0  0  0  0
  -21.1430  -29.2890   20.9850 H   0  0  0  0  0  0  0  0  0  0  0  0
  -18.3640  -27.3260   22.1780 C   0  0  0  0  0  0  0  0  0  0  0  0
  -20.9310  -27.6340   22.2940 C   0  0  0  0  0  3  0  0  0  0  0  0
  -21.0180  -26.2890   21.5370 C   0  0  0  0  0  2  0  0  0  0  0  0
  -19.8530  -26.0660   20.5670 C   0  0  0  0  0  2  0  0  0  0  0  0
  -18.5200  -26.0840   21.3160 C   0  0  0  0  0  2  0  0  0  0  0  0
  -19.4950  -28.0630   22.6250 C   0  0  0  0  0  0  0  0  0  0  0  0
  -19.2890  -29.2270   23.3970 C   0  0  0  0  0  3  0  0  0  0  0  0
  -17.9870  -29.6580   23.7200 C   0  0  0  0  0  3  0  0  0  0  0  0
  -16.8750  -28.9190   23.2860 C   0  0  0  0  0  3  0  0  0  0  0  0
  -17.0640  -27.7530   22.5240 C   0  0  0  0  0  3  0  0  0  0  0  0
  -26.0000  -31.9840   23.2080 C   0  0  0  0  0  3  0  0  0  0  0  0
  -26.6120  -31.1130   24.3730 C   0  0  1  0  0  0  0  0  0  0  0  0
  -25.5720  -30.6740   25.4300 C   0  0  0  0  0  1  0  0  0  0  0  0
  -27.2840  -29.8360   23.8160 C   0  0  0  0  0  1  0  0  0  0  0  0
  -27.7220  -31.9090   25.1000 C   0  0  0  0  0  1  0  0  0  0  0  0
  -25.5900  -33.3040   23.7270 N   0  0  0  0  0  0  0  0  0  0  0  0
  -25.8490  -34.4730   23.1300 C   0  0  0  0  0  0  0  0  0  0  0  0
  -26.5170  -34.5640   22.0970 O   0  0  0  0  0  0  0  0  0  0  0  0
  -24.9910  -33.3030   24.5390 H   0  0  0  0  0  0  0  0  0  0  0  0
  -24.0190  -36.2000   23.0210 C   0  0  0  0  0  1  0  0  0  0  0  0
  -25.2770  -35.7520   23.7800 C   0  0  0  0  0  3  0  0  0  0  0  0
  -27.3340  -36.6450   24.7850 C   0  0  0  0  0  1  0  0  0  0  0  0
  -26.2470  -36.8680   23.8360 N   0  0  0  0  0  0  0  0  0  0  0  0
  -25.7820  -37.7390   24.0860 H   0  0  0  0  0  0  0  0  0  0  0  0
  1 48  1  0
  2  1  1  0
  3  1  1  0
  4 10  1  0
  4 16  1  0
  5 10  1  0
  6  7  1  0
  6  5  1  0
  8  7  1  0
  8 20  1  0
  8  9  1  0
 10  9  1  0
 11  4  2  0
 12 14  1  0
 13 16  1  0
 13 15  1  0
 14 45  1  0
 15  1  1  0
 15 14  1  0
 16 12  1  0
 17 18  2  0
 18 37  1  0
 19 22  1  0
 19 18  1  0
 20 21  1  0
 20 17  1  0
 21 19  2  0
 22 23  1  0
 23 24  2  0
 25 28  1  0
 25 24  1  0
 26 25  2  0
 27 26  1  0
 27 22  2  0
 28 29  1  0
 29 34  2  0
 29 30  1  0
 30 31  2  0
 31 32  1  0
 32 36  1  0
 33 32  2  0
 34 33  1  0
 35 34  1  0
 37 38  1  0
 38 40  1  0
 38 41  1  0
 39 37  2  0
 42 17  1  0
 42 43  1  0
 44 42  1  0
 45 46  2  0
 47 46  1  0
 49 50  1  0
 49 48  1  0
 50 52  1  0
 51 62  2  0
 52 57  1  0
 53 61  1  0
 53 63  1  0
 54 60  1  0
 54 56  1  0
 55 61  1  0
 56 55  1  0
 57 56  2  0
 58 59  1  0
 58 52  2  0
 59 54  2  0
 60 53  1  0
 61 51  1  0
 63 65  2  0
 64 63  1  0
 66 64  1  0
 67 76  2  0
 67 72  1  0
 68 64  1  0
 68 72  1  0
 69 68  1  0
 70 71  1  0
 70 69  1  0
 71 67  1  0
 72 73  2  0
 73 74  1  0
 75 74  2  0
 76 75  1  0
 77 51  1  0
 77 82  1  0
 77 78  1  0
 78 81  1  1
 78 79  1  0
 80 78  1  0
 82 85  1  0
 83 82  1  0
 83 87  1  0
 84 83  2  0
 87 86  1  0
 87 89  1  0
 89 90  1  0
 89 88  1  0
M  ISO  4   4 100  16 100  49 101  50 101
M  END
>  <TORSDO>  (76) 
F 19

>  <SCORE>  (76) 
-6.049

>  <name>  (76) 
75

>  <ligand_id>  (76) 
75

>  <original_smiles>  (76) 
[H]N=C([H])C1([H])C([H])([H])N(C(=O)N2C([H])([H])C([H])([H])C([H])([H])C([H])(n3nc(-c4c([H])c([H])c(Oc5c([H])c([H])c(F)c([H])c5F)c([H])c4[H])c(C(=O)N([H])[H])c3N([H])[H])C2([H])[H])C([H])([H])C1([H])[N+]([H])([H])C([H])([H])C([H])([H])Oc1c([H])c([H])c2c(c1[H])C([H])([H])N(C(=O)C([H])(N([H])C(=O)C([H])(N([H])C([H])([H])[H])C([H])([H])[H])C(C([H])([H])[H])(C([H])([H])[H])C([H])([H])[H])C([H])(C(=O)N([H])C1([H])c3c([H])c([H])c([H])c([H])c3C([H])([H])C([H])([H])C1([H])[H])C2([H])[H]

>  <smiles>  (76) 
[H]N=C([H])C1([H])C([H])([H])N(C(=O)N2C([H])([H])C([H])([H])C([H])([H])C([H])(n3nc(-c4c([H])c([H])c(Oc5c([H])c([H])c(F)c([H])c5F)c([H])c4[H])c(C(=O)N([H])[H])c3N([H])[H])C2([H])[H])C([H])([H])C1([H])[N+]([H])([H])C([H])([H])C([H])([H])Oc1c([H])c([H])c2c(c1[H])C([H])([H])N(C(=O)C([H])(N([H])C(=O)C([H])(N([H])C([H])([H])[H])C([H])([H])[H])C(C([H])([H])[H])(C([H])([H])[H])C([H])([H])[H])C([H])(C(=O)N([H])C1([H])c3c([H])c([H])c([H])c([H])c3C([H])([H])C([H])([H])C1([H])[H])C2([H])[H]

$$$$
76:0:0
     RDKit          3D

 89 97  0  0  1  0  0  0  0  0999 V2000
  -29.9110  -23.2520   19.9250 C   0  0  0  0  0  3  0  0  0  0  0  0
  -27.9390  -22.3660   20.9050 C   0  0  0  0  0  3  0  0  0  0  0  0
  -30.3780  -21.9000   19.7180 C   0  0  0  0  0  3  0  0  0  0  0  0
  -28.3990  -21.0180   20.6890 C   0  0  0  0  0  3  0  0  0  0  0  0
  -28.6500  -23.5490   20.5170 C   0  0  0  0  0  0  0  0  0  0  0  0
  -29.6450  -20.7090   20.0720 C   0  0  0  0  0  0  0  0  0  0  0  0
  -31.3880  -19.2730   18.7850 C   0  0  0  0  0  1  0  0  0  0  0  0
  -30.0690  -19.2140   19.5880 C   0  0  0  0  0  3  0  0  0  0  0  0
  -30.0790  -17.8340   20.5000 C   0  0  0  0  0  2  0  0  0  0  0  0
  -28.6660  -16.2930   18.9580 C   0  0  0  0  0  1  0  0  0  0  0  0
  -29.9710  -16.3630   19.7530 C   0  0  0  0  0  3  0  0  0  0  0  0
  -30.5780  -14.9040   20.2380 C   0  0  0  0  0  0  0  0  0  0  0  0
  -30.3540  -12.5590   19.3930 C   0  0  0  0  0  2  0  0  0  0  0  0
  -29.4130  -12.5000   18.1710 C   0  0  0  0  0  2  0  0  0  0  0  0
  -27.9520  -12.2940   18.6180 C   0  0  0  0  0  2  0  0  0  0  0  0
  -27.5410  -13.2350   19.7770 C   0  0  0  0  0  3  0  0  0  0  0  0
  -28.6210  -13.3430   20.8780 C   0  0  0  0  0  2  0  0  0  0  0  0
  -29.9050  -13.6860   20.2450 N   0  0  0  0  0  0  0  0  0  0  0  0
  -31.8080  -14.8470   20.2160 O   0  0  0  0  0  0  0  0  0  0  0  0
  -25.1720  -13.8500   20.5200 C   0  0  0  0  0  0  0  0  0  0  0  0
  -24.1010  -13.0830   20.8880 C   0  0  0  0  0  0  0  0  0  0  0  0
  -24.5640  -11.7320   20.8700 C   0  0  0  0  0  0  0  0  0  0  0  0
  -26.2120  -12.9600   20.2960 N   0  0  0  0  0  0  0  0  0  0  0  0
  -25.8560  -11.6830   20.5740 N   0  0  0  0  0  0  0  0  0  0  0  0
  -23.8390  -10.4730   21.0620 C   0  0  0  0  0  0  0  0  0  0  0  0
  -24.2900   -9.5060   21.9850 C   0  0  0  0  0  3  0  0  0  0  0  0
  -23.5700   -8.3070   22.1700 C   0  0  0  0  0  3  0  0  0  0  0  0
  -22.3870   -8.0710   21.4300 C   0  0  0  0  0  0  0  0  0  0  0  0
  -21.9570   -9.0290   20.4950 C   0  0  0  0  0  3  0  0  0  0  0  0
  -22.6780  -10.2200   20.3080 C   0  0  0  0  0  3  0  0  0  0  0  0
  -21.6390   -6.9220   21.5210 O   0  0  0  0  0  0  0  0  0  0  0  0
  -21.6240   -6.1630   22.6630 C   0  0  0  0  0  0  0  0  0  0  0  0
  -21.2530   -6.7040   23.9140 C   0  0  0  0  0  3  0  0  0  0  0  0
  -21.1830   -5.8730   25.0480 C   0  0  0  0  0  3  0  0  0  0  0  0
  -21.4750   -4.5000   24.9350 C   0  0  0  0  0  0  0  0  0  0  0  0
  -21.8380   -3.9580   23.6890 C   0  0  0  0  0  3  0  0  0  0  0  0
  -21.9090   -4.7870   22.5560 C   0  0  0  0  0  0  0  0  0  0  0  0
  -22.2370   -4.2560   21.3550 F   0  0  0  0  0  0  0  0  0  0  0  0
  -21.4030   -3.6980   26.0230 F   0  0  0  0  0  0  0  0  0  0  0  0
  -22.7030  -13.5650   21.1420 C   0  0  0  0  0  0  0  0  0  0  0  0
  -21.9680  -12.8770   22.0080 N   0  0  0  0  0  0  0  0  0  0  0  0
  -22.2680  -14.5840   20.6060 O   0  0  0  0  0  0  0  0  0  0  0  0
  -22.3330  -12.0530   22.4600 H   0  0  0  0  0  0  0  0  0  0  0  0
  -21.0270  -13.1790   22.2200 H   0  0  0  0  0  0  0  0  0  0  0  0
  -25.3370  -15.2180   20.3290 N   0  0  0  0  0  0  0  0  0  0  0  0
  -24.5810  -15.8840   20.4440 H   0  0  0  0  0  0  0  0  0  0  0  0
  -26.1990  -15.6500   20.0210 H   0  0  0  0  0  0  0  0  0  0  0  0
  -28.0590  -25.0030   20.9040 C   0  0  0  0  0  2  0  0  0  0  0  0
  -28.3130  -26.3300   20.2210 O   0  0  0  0  0  0  0  0  0  0  0  0
  -24.6250  -31.8770   23.2400 C   0  0  0  0  0  0  0  0  0  0  0  0
  -27.2340  -27.2580   20.2020 C   0  0  0  0  0  0  0  0  0  0  0  0
  -23.4240  -30.4740   21.6070 C   0  0  0  0  0  3  0  0  0  0  0  0
  -24.8750  -28.9120   20.1830 C   0  0  0  0  0  0  0  0  0  0  0  0
  -25.9670  -30.7790   21.4200 C   0  0  0  0  0  2  0  0  0  0  0  0
  -26.0500  -29.3930   20.7760 C   0  0  0  0  0  0  0  0  0  0  0  0
  -27.2350  -28.5810   20.7690 C   0  0  0  0  0  3  0  0  0  0  0  0
  -26.0360  -26.8530   19.5740 C   0  0  0  0  0  3  0  0  0  0  0  0
  -24.8740  -27.6500   19.5700 C   0  0  0  0  0  3  0  0  0  0  0  0
  -23.6390  -29.7920   20.2290 C   0  0  0  0  0  2  0  0  0  0  0  0
  -24.6920  -31.0620   22.1450 N   0  0  0  0  0  0  0  0  0  0  0  0
  -23.5430  -32.1570   23.7740 O   0  0  0  0  0  0  0  0  0  0  0  0
  -22.7580  -29.4620   22.5720 C   0  0  0  0  0  0  0  0  0  0  0  0
  -21.4320  -29.2820   22.4480 N   0  0  0  0  0  0  0  0  0  0  0  0
  -23.4360  -28.8410   23.3960 O   0  0  0  0  0  0  0  0  0  0  0  0
  -20.9450  -29.8380   21.7570 H   0  0  0  0  0  0  0  0  0  0  0  0
  -18.0600  -28.0570   22.9390 C   0  0  0  0  0  0  0  0  0  0  0  0
  -20.6150  -28.3450   23.2220 C   0  0  0  0  0  3  0  0  0  0  0  0
  -20.7320  -26.9080   22.6610 C   0  0  0  0  0  2  0  0  0  0  0  0
  -19.6390  -26.5660   21.6430 C   0  0  0  0  0  2  0  0  0  0  0  0
  -18.2520  -26.7030   22.2760 C   0  0  0  0  0  2  0  0  0  0  0  0
  -19.1680  -28.8340   23.3670 C   0  0  0  0  0  0  0  0  0  0  0  0
  -18.9340  -30.1010   23.9460 C   0  0  0  0  0  3  0  0  0  0  0  0
  -17.6220  -30.5900   24.0990 C   0  0  0  0  0  3  0  0  0  0  0  0
  -16.5280  -29.8110   23.6850 C   0  0  0  0  0  3  0  0  0  0  0  0
  -16.7480  -28.5460   23.1120 C   0  0  0  0  0  3  0  0  0  0  0  0
  -25.9080  -32.5150   23.8580 C   0  0  0  0  0  3  0  0  0  0  0  0
  -26.4290  -31.7470   25.1370 C   0  0  1  0  0  0  0  0  0  0  0  0
  -25.3400  -31.5140   26.2100 C   0  0  0  0  0  1  0  0  0  0  0  0
  -27.0100  -30.3680   24.7480 C   0  0  0  0  0  1  0  0  0  0  0  0
  -27.5790  -32.5450   25.7940 C   0  0  0  0  0  1  0  0  0  0  0  0
  -25.5950  -33.9120   24.1920 N   0  0  0  0  0  0  0  0  0  0  0  0
  -25.9170  -34.9680   23.4340 C   0  0  0  0  0  0  0  0  0  0  0  0
  -26.5760  -34.8680   22.3960 O   0  0  0  0  0  0  0  0  0  0  0  0
  -25.0110  -34.0620   25.0010 H   0  0  0  0  0  0  0  0  0  0  0  0
  -24.1790  -36.7570   23.1010 C   0  0  0  0  0  1  0  0  0  0  0  0
  -25.4300  -36.3550   23.8990 C   0  0  0  0  0  3  0  0  0  0  0  0
  -27.5710  -37.2450   24.7070 C   0  0  0  0  0  1  0  0  0  0  0  0
  -26.4580  -37.4110   23.7760 N   0  0  0  0  0  0  0  0  0  0  0  0
  -26.0500  -38.3300   23.9300 H   0  0  0  0  0  0  0  0  0  0  0  0
  1  5  1  0
  3  1  2  0
  3  6  1  0
  4  2  1  0
  5 48  1  0
  5  2  2  0
  6  4  2  0
  8  7  1  0
  8  6  1  0
  8  9  1  0
 11 10  1  0
 11 12  1  0
 11  9  1  0
 12 18  1  0
 13 18  1  0
 14 15  1  0
 14 13  1  0
 16 15  1  0
 16 23  1  0
 16 17  1  0
 18 17  1  0
 19 12  2  0
 20 21  2  0
 21 40  1  0
 22 21  1  0
 22 25  1  0
 23 20  1  0
 23 24  1  0
 24 22  2  0
 25 26  1  0
 26 27  2  0
 28 31  1  0
 28 27  1  0
 29 28  2  0
 30 29  1  0
 30 25  2  0
 31 32  1  0
 32 33  1  0
 33 34  2  0
 35 34  1  0
 35 39  1  0
 36 35  2  0
 37 32  2  0
 37 36  1  0
 38 37  1  0
 40 41  1  0
 41 44  1  0
 41 43  1  0
 42 40  2  0
 45 46  1  0
 45 20  1  0
 47 45  1  0
 49 48  1  0
 50 61  2  0
 51 49  1  0
 51 56  1  0
 52 60  1  0
 52 62  1  0
 53 59  1  0
 53 55  1  0
 54 60  1  0
 55 54  1  0
 56 55  2  0
 57 51  2  0
 58 57  1  0
 58 53  2  0
 59 52  1  0
 60 50  1  0
 62 64  2  0
 63 62  1  0
 65 63  1  0
 66 75  2  0
 66 71  1  0
 67 63  1  0
 67 71  1  0
 68 67  1  0
 69 70  1  0
 69 68  1  0
 70 66  1  0
 71 72  2  0
 72 73  1  0
 74 73  2  0
 75 74  1  0
 76 50  1  0
 76 81  1  0
 76 77  1  0
 77 80  1  1
 77 78  1  0
 79 77  1  0
 81 84  1  0
 82 86  1  0
 82 81  1  0
 83 82  2  0
 86 85  1  0
 88 86  1  0
 88 89  1  0
 88 87  1  0
M  ISO  4  11 100  12 100  48 101  49 101
M  END
>  <TORSDO>  (77) 
F 20

>  <SCORE>  (77) 
-13.805

>  <name>  (77) 
76

>  <ligand_id>  (77) 
76

>  <original_smiles>  (77) 
[H]c1c([H])c([H])c2c(c1[H])C([H])([H])C([H])([H])C([H])([H])C2([H])N([H])C(=O)C1([H])N(C(=O)C([H])(N([H])C(=O)C([H])(N([H])C([H])([H])[H])C([H])([H])[H])C(C([H])([H])[H])(C([H])([H])[H])C([H])([H])[H])C([H])([H])c2c([H])c(OC([H])([H])c3c([H])c([H])c(C([H])(C([H])([H])[H])C([H])([H])C([H])(C(=O)N4C([H])([H])C([H])([H])C([H])([H])C([H])(n5nc(-c6c([H])c([H])c(Oc7c([H])c([H])c(F)c([H])c7F)c([H])c6[H])c(C(=O)N([H])[H])c5N([H])[H])C4([H])[H])C([H])([H])[H])c([H])c3[H])c([H])c([H])c2C1([H])[H]

>  <smiles>  (77) 
[H]c1c([H])c([H])c2c(c1[H])C([H])([H])C([H])([H])C([H])([H])C2([H])N([H])C(=O)C1([H])N(C(=O)C([H])(N([H])C(=O)C([H])(N([H])C([H])([H])[H])C([H])([H])[H])C(C([H])([H])[H])(C([H])([H])[H])C([H])([H])[H])C([H])([H])c2c([H])c(OC([H])([H])c3c([H])c([H])c(C([H])(C([H])([H])[H])C([H])([H])C([H])(C(=O)N4C([H])([H])C([H])([H])C([H])([H])C([H])(n5nc(-c6c([H])c([H])c(Oc7c([H])c([H])c(F)c([H])c7F)c([H])c6[H])c(C(=O)N([H])[H])c5N([H])[H])C4([H])[H])C([H])([H])[H])c([H])c3[H])c([H])c([H])c2C1([H])[H]

$$$$
77:0:0
     RDKit          3D

 89 97  0  0  1  0  0  0  0  0999 V2000
  -27.3650  -21.3740   19.9490 C   0  0  0  0  0  2  0  0  0  0  0  0
  -27.8940  -19.0450   19.6320 C   0  0  0  0  0  2  0  0  0  0  0  0
  -28.8760  -21.3350   20.2500 C   0  0  0  0  0  3  0  0  0  0  0  0
  -29.2750  -19.7390   19.5800 C   0  0  0  0  0  3  0  0  0  0  0  0
  -26.8220  -20.0180   19.8650 N   0  0  0  0  0  4  0  0  0  0  0  0
  -26.1330  -19.9680   19.1300 H   0  0  0  0  0  0  0  0  0  0  0  0
  -26.3620  -19.7940   20.7330 H   0  0  0  0  0  0  0  0  0  0  0  0
  -30.8180  -18.6010   21.4190 C   0  0  0  0  0  1  0  0  0  0  0  0
  -30.3190  -18.3810   19.9830 C   0  0  0  0  0  3  0  0  0  0  0  0
  -29.9470  -16.6650   19.8000 C   0  0  0  0  0  2  0  0  0  0  0  0
  -30.8520  -15.2010   19.7830 C   0  0  0  0  0  0  0  0  0  0  0  0
  -30.7700  -12.7670   18.9530 C   0  0  0  0  0  2  0  0  0  0  0  0
  -29.7890  -12.6350   17.7580 C   0  0  0  0  0  2  0  0  0  0  0  0
  -28.3420  -12.4350   18.2470 C   0  0  0  0  0  2  0  0  0  0  0  0
  -27.9740  -13.4080   19.3940 C   0  0  0  0  0  3  0  0  0  0  0  0
  -29.0680  -13.4730   20.4790 C   0  0  0  0  0  2  0  0  0  0  0  0
  -30.3110  -13.8990   19.8230 N   0  0  0  0  0  0  0  0  0  0  0  0
  -32.0580  -15.2370   19.5020 O   0  0  0  0  0  0  0  0  0  0  0  0
  -25.6520  -14.0430   20.2530 C   0  0  0  0  0  0  0  0  0  0  0  0
  -24.5830  -13.2970   20.6620 C   0  0  0  0  0  0  0  0  0  0  0  0
  -25.0030  -11.9330   20.6010 C   0  0  0  0  0  0  0  0  0  0  0  0
  -26.6550  -13.1370   19.9530 N   0  0  0  0  0  0  0  0  0  0  0  0
  -26.2790  -11.8610   20.2310 N   0  0  0  0  0  0  0  0  0  0  0  0
  -24.2440  -10.6930   20.8150 C   0  0  0  0  0  0  0  0  0  0  0  0
  -24.6360   -9.7430   21.7860 C   0  0  0  0  0  3  0  0  0  0  0  0
  -23.8790   -8.5670   21.9820 C   0  0  0  0  0  3  0  0  0  0  0  0
  -22.7190   -8.3330   21.2100 C   0  0  0  0  0  0  0  0  0  0  0  0
  -22.3480   -9.2690   20.2260 C   0  0  0  0  0  3  0  0  0  0  0  0
  -23.1040  -10.4350   20.0290 C   0  0  0  0  0  3  0  0  0  0  0  0
  -21.9350   -7.2090   21.3150 O   0  0  0  0  0  0  0  0  0  0  0  0
  -21.7890   -6.5420   22.5050 C   0  0  0  0  0  0  0  0  0  0  0  0
  -21.2460   -7.1690   23.6480 C   0  0  0  0  0  3  0  0  0  0  0  0
  -21.0500   -6.4290   24.8310 C   0  0  0  0  0  3  0  0  0  0  0  0
  -21.3850   -5.0630   24.8690 C   0  0  0  0  0  0  0  0  0  0  0  0
  -21.9190   -4.4340   23.7310 C   0  0  0  0  0  3  0  0  0  0  0  0
  -22.1180   -5.1720   22.5520 C   0  0  0  0  0  0  0  0  0  0  0  0
  -22.6130   -4.5580   21.4500 F   0  0  0  0  0  0  0  0  0  0  0  0
  -21.1890   -4.3480   26.0020 F   0  0  0  0  0  0  0  0  0  0  0  0
  -23.2140  -13.8140   20.9980 C   0  0  0  0  0  0  0  0  0  0  0  0
  -22.5100  -13.1420   21.9010 N   0  0  0  0  0  0  0  0  0  0  0  0
  -22.7780  -14.8480   20.4920 O   0  0  0  0  0  0  0  0  0  0  0  0
  -22.8790  -12.3050   22.3260 H   0  0  0  0  0  0  0  0  0  0  0  0
  -21.5920  -13.4670   22.1680 H   0  0  0  0  0  0  0  0  0  0  0  0
  -25.8510  -15.4100   20.0810 N   0  0  0  0  0  0  0  0  0  0  0  0
  -25.1050  -16.0820   20.2210 H   0  0  0  0  0  0  0  0  0  0  0  0
  -26.6850  -15.8130   19.6790 H   0  0  0  0  0  0  0  0  0  0  0  0
  -29.2550  -23.0170   19.9200 C   0  0  0  0  0  3  0  0  0  0  0  0
  -28.2890  -24.4420   20.2880 C   0  0  0  0  0  3  0  0  0  0  0  0
  -28.5350  -26.0330   20.2200 O   0  0  0  0  0  0  0  0  0  0  0  0
  -24.7270  -31.7600   23.1770 C   0  0  0  0  0  0  0  0  0  0  0  0
  -27.4740  -27.0500   20.1770 C   0  0  0  0  0  0  0  0  0  0  0  0
  -23.6010  -30.3490   21.5040 C   0  0  0  0  0  3  0  0  0  0  0  0
  -25.1170  -28.8080   20.1020 C   0  0  0  0  0  0  0  0  0  0  0  0
  -26.1580  -30.6540   21.4020 C   0  0  0  0  0  2  0  0  0  0  0  0
  -26.2800  -29.2610   20.7370 C   0  0  0  0  0  0  0  0  0  0  0  0
  -27.4580  -28.4020   20.7510 C   0  0  0  0  0  3  0  0  0  0  0  0
  -26.2800  -26.7300   19.4960 C   0  0  0  0  0  3  0  0  0  0  0  0
  -25.1360  -27.5600   19.4640 C   0  0  0  0  0  3  0  0  0  0  0  0
  -23.8680  -29.6820   20.1290 C   0  0  0  0  0  2  0  0  0  0  0  0
  -24.8480  -30.9460   22.0810 N   0  0  0  0  0  0  0  0  0  0  0  0
  -23.6210  -32.0130   23.6810 O   0  0  0  0  0  0  0  0  0  0  0  0
  -22.9210  -29.3210   22.4460 C   0  0  0  0  0  0  0  0  0  0  0  0
  -21.6010  -29.1170   22.2870 N   0  0  0  0  0  0  0  0  0  0  0  0
  -23.5870  -28.7080   23.2820 O   0  0  0  0  0  0  0  0  0  0  0  0
  -21.1150  -29.6580   21.5850 H   0  0  0  0  0  0  0  0  0  0  0  0
  -18.2440  -27.8170   22.7160 C   0  0  0  0  0  0  0  0  0  0  0  0
  -20.7890  -28.1520   23.0350 C   0  0  0  0  0  3  0  0  0  0  0  0
  -20.9430  -26.7280   22.4530 C   0  0  0  0  0  2  0  0  0  0  0  0
  -19.8710  -26.3830   21.4130 C   0  0  0  0  0  2  0  0  0  0  0  0
  -18.4720  -26.4810   22.0290 C   0  0  0  0  0  2  0  0  0  0  0  0
  -19.3310  -28.6080   23.1730 C   0  0  0  0  0  0  0  0  0  0  0  0
  -19.0610  -29.8560   23.7760 C   0  0  0  0  0  3  0  0  0  0  0  0
  -17.7380  -30.3170   23.9200 C   0  0  0  0  0  3  0  0  0  0  0  0
  -16.6660  -29.5220   23.4780 C   0  0  0  0  0  3  0  0  0  0  0  0
  -16.9180  -28.2730   22.8850 C   0  0  0  0  0  3  0  0  0  0  0  0
  -25.9720  -32.4260   23.8380 C   0  0  0  0  0  3  0  0  0  0  0  0
  -26.4610  -31.6740   25.1380 C   0  0  1  0  0  0  0  0  0  0  0  0
  -25.3340  -31.4110   26.1650 C   0  0  0  0  0  1  0  0  0  0  0  0
  -27.0940  -30.3100   24.7790 C   0  0  0  0  0  1  0  0  0  0  0  0
  -27.5670  -32.4990   25.8370 C   0  0  0  0  0  1  0  0  0  0  0  0
  -25.6180  -33.8180   24.1630 N   0  0  0  0  0  0  0  0  0  0  0  0
  -25.9580  -34.8860   23.4270 C   0  0  0  0  0  0  0  0  0  0  0  0
  -26.6620  -34.8010   22.4170 O   0  0  0  0  0  0  0  0  0  0  0  0
  -24.9940  -33.9550   24.9440 H   0  0  0  0  0  0  0  0  0  0  0  0
  -24.2110  -36.6510   23.0310 C   0  0  0  0  0  1  0  0  0  0  0  0
  -25.4320  -36.2620   23.8810 C   0  0  0  0  0  3  0  0  0  0  0  0
  -27.5140  -37.1820   24.8000 C   0  0  0  0  0  1  0  0  0  0  0  0
  -26.4500  -37.3340   23.8100 N   0  0  0  0  0  0  0  0  0  0  0  0
  -26.0230  -38.2460   23.9450 H   0  0  0  0  0  0  0  0  0  0  0  0
  1  3  1  0
  2  5  1  0
  3 47  1  0
  4  2  1  0
  4  9  1  0
  4  3  1  0
  5  1  1  0
  5  7  1  0
  6  5  1  0
  9  8  1  0
 10  9  1  0
 11 10  1  0
 11 17  1  0
 12 17  1  0
 13 14  1  0
 13 12  1  0
 15 14  1  0
 15 22  1  0
 15 16  1  0
 17 16  1  0
 18 11  2  0
 19 20  2  0
 20 39  1  0
 21 20  1  0
 21 24  1  0
 22 23  1  0
 22 19  1  0
 23 21  2  0
 24 25  1  0
 25 26  2  0
 27 30  1  0
 27 26  1  0
 28 27  2  0
 29 28  1  0
 29 24  2  0
 30 31  1  0
 31 36  2  0
 31 32  1  0
 32 33  2  0
 33 34  1  0
 34 38  1  0
 35 34  2  0
 36 35  1  0
 37 36  1  0
 39 40  1  0
 40 43  1  0
 40 42  1  0
 41 39  2  0
 44 45  1  0
 44 19  1  0
 46 44  1  0
 47 48  2  0
 49 48  1  0
 50 61  2  0
 51 49  1  0
 51 56  1  0
 52 60  1  0
 52 62  1  0
 53 59  1  0
 53 55  1  0
 54 60  1  0
 55 56  2  0
 55 54  1  0
 57 51  2  0
 58 57  1  0
 58 53  2  0
 59 52  1  0
 60 50  1  0
 62 64  2  0
 63 62  1  0
 65 63  1  0
 66 75  2  0
 66 71  1  0
 67 63  1  0
 67 71  1  0
 68 67  1  0
 69 70  1  0
 69 68  1  0
 70 66  1  0
 71 72  2  0
 72 73  1  0
 74 73  2  0
 75 74  1  0
 76 50  1  0
 76 81  1  0
 76 77  1  0
 77 80  1  1
 77 78  1  0
 79 77  1  0
 81 84  1  0
 82 86  1  0
 82 81  1  0
 83 82  2  0
 86 85  1  0
 88 86  1  0
 88 89  1  0
 88 87  1  0
M  ISO  4  10 100  11 100  48 101  49 101
M  END
>  <TORSDO>  (78) 
F 20

>  <SCORE>  (78) 
-15.167

>  <name>  (78) 
77

>  <ligand_id>  (78) 
77

>  <original_smiles>  (78) 
[H]c1c([H])c([H])c2c(c1[H])C([H])([H])C([H])([H])C([H])([H])C2([H])N([H])C(=O)C1([H])N(C(=O)C([H])(N([H])C(=O)C([H])(N([H])C([H])([H])[H])C([H])([H])[H])C(C([H])([H])[H])(C([H])([H])[H])C([H])([H])[H])C([H])([H])c2c([H])c(OC([H])([H])C([H])([H])C3([H])C([H])(C([H])(C([H])([H])[H])C([H])([H])C(=O)N4C([H])([H])C([H])([H])C([H])([H])C([H])(n5nc(-c6c([H])c([H])c(Oc7c([H])c([H])c(F)c([H])c7F)c([H])c6[H])c(C(=O)N([H])[H])c5N([H])[H])C4([H])[H])C([H])([H])[N+]([H])([H])C3([H])[H])c([H])c([H])c2C1([H])[H]

>  <smiles>  (78) 
[H]c1c([H])c([H])c2c(c1[H])C([H])([H])C([H])([H])C([H])([H])C2([H])N([H])C(=O)C1([H])N(C(=O)C([H])(N([H])C(=O)C([H])(N([H])C([H])([H])[H])C([H])([H])[H])C(C([H])([H])[H])(C([H])([H])[H])C([H])([H])[H])C([H])([H])c2c([H])c(OC([H])([H])C([H])([H])C3([H])C([H])(C([H])(C([H])([H])[H])C([H])([H])C(=O)N4C([H])([H])C([H])([H])C([H])([H])C([H])(n5nc(-c6c([H])c([H])c(Oc7c([H])c([H])c(F)c([H])c7F)c([H])c6[H])c(C(=O)N([H])[H])c5N([H])[H])C4([H])[H])C([H])([H])[N+]([H])([H])C3([H])[H])c([H])c([H])c2C1([H])[H]

$$$$
78:0:0
     RDKit          3D

 91 99  0  0  1  0  0  0  0  0999 V2000
  -27.4640  -21.7870   20.5290 C   0  0  0  0  0  2  0  0  0  0  0  0
  -27.9930  -20.2730   20.5940 C   0  0  0  0  0  2  0  0  0  0  0  0
  -29.5830  -21.6180   19.5870 C   0  0  0  0  0  2  0  0  0  0  0  0
  -28.3900  -22.8130   19.7660 C   0  0  0  0  0  3  0  0  0  0  0  0
  -29.0690  -19.9930   19.5130 C   0  0  0  0  0  3  0  0  0  0  0  0
  -28.3000  -24.4650   20.4480 C   0  0  0  0  0  2  0  0  0  0  0  0
  -28.4340  -26.0260   20.0180 O   0  0  0  0  0  0  0  0  0  0  0  0
  -24.7500  -31.8170   23.1210 C   0  0  0  0  0  0  0  0  0  0  0  0
  -27.3780  -27.0580   20.0560 C   0  0  0  0  0  0  0  0  0  0  0  0
  -23.5730  -30.4210   21.4690 C   0  0  0  0  0  3  0  0  0  0  0  0
  -25.0420  -28.8600   20.0310 C   0  0  0  0  0  0  0  0  0  0  0  0
  -26.1330  -30.6900   21.3140 C   0  0  0  0  0  2  0  0  0  0  0  0
  -26.2250  -29.2930   20.6450 C   0  0  0  0  0  0  0  0  0  0  0  0
  -27.3930  -28.4160   20.6250 C   0  0  0  0  0  3  0  0  0  0  0  0
  -26.1610  -26.7530   19.4110 C   0  0  0  0  0  3  0  0  0  0  0  0
  -25.0320  -27.6090   19.3920 C   0  0  0  0  0  3  0  0  0  0  0  0
  -23.8070  -29.7550   20.0860 C   0  0  0  0  0  2  0  0  0  0  0  0
  -24.8400  -31.0010   22.0220 N   0  0  0  0  0  0  0  0  0  0  0  0
  -23.6580  -32.0840   23.6470 O   0  0  0  0  0  0  0  0  0  0  0  0
  -22.8990  -29.4010   22.4230 C   0  0  0  0  0  0  0  0  0  0  0  0
  -21.5700  -29.2260   22.3040 N   0  0  0  0  0  0  0  0  0  0  0  0
  -23.5780  -28.7670   23.2350 O   0  0  0  0  0  0  0  0  0  0  0  0
  -21.0770  -29.7930   21.6280 H   0  0  0  0  0  0  0  0  0  0  0  0
  -18.2020  -27.9810   22.8170 C   0  0  0  0  0  0  0  0  0  0  0  0
  -20.7600  -28.2690   23.0660 C   0  0  0  0  0  3  0  0  0  0  0  0
  -20.8710  -26.8460   22.4700 C   0  0  0  0  0  2  0  0  0  0  0  0
  -19.7650  -26.5280   21.4590 C   0  0  0  0  0  2  0  0  0  0  0  0
  -18.3870  -26.6470   22.1140 C   0  0  0  0  0  2  0  0  0  0  0  0
  -19.3150  -28.7510   23.2480 C   0  0  0  0  0  0  0  0  0  0  0  0
  -19.0840  -29.9990   23.8650 C   0  0  0  0  0  3  0  0  0  0  0  0
  -17.7740  -30.4780   24.0560 C   0  0  0  0  0  3  0  0  0  0  0  0
  -16.6770  -29.7050   23.6390 C   0  0  0  0  0  3  0  0  0  0  0  0
  -16.8910  -28.4600   23.0240 C   0  0  0  0  0  3  0  0  0  0  0  0
  -26.0130  -32.4690   23.7590 C   0  0  0  0  0  3  0  0  0  0  0  0
  -25.6720  -33.8560   24.1200 N   0  0  0  0  0  0  0  0  0  0  0  0
  -25.9740  -34.9370   23.3880 C   0  0  0  0  0  0  0  0  0  0  0  0
  -26.6320  -34.8720   22.3460 O   0  0  0  0  0  0  0  0  0  0  0  0
  -25.0850  -33.9770   24.9320 H   0  0  0  0  0  0  0  0  0  0  0  0
  -24.2050  -36.7100   23.1090 C   0  0  0  0  0  1  0  0  0  0  0  0
  -25.4680  -36.3050   23.8890 C   0  0  0  0  0  3  0  0  0  0  0  0
  -27.5980  -37.2140   24.7080 C   0  0  0  0  0  1  0  0  0  0  0  0
  -26.4770  -37.3830   23.7870 N   0  0  0  0  0  0  0  0  0  0  0  0
  -26.0550  -38.2890   23.9670 H   0  0  0  0  0  0  0  0  0  0  0  0
  -26.5390  -31.6930   25.0300 C   0  0  1  0  0  0  0  0  0  0  0  0
  -25.4440  -31.4200   26.0900 C   0  0  0  0  0  1  0  0  0  0  0  0
  -27.1510  -30.3300   24.6310 C   0  0  0  0  0  1  0  0  0  0  0  0
  -27.6720  -32.5010   25.7050 C   0  0  0  0  0  1  0  0  0  0  0  0
  -30.0180  -18.4720   19.4370 C   0  0  0  0  0  3  0  0  0  0  0  0
  -30.6410  -18.4740   18.1010 N   0  0  0  0  0  4  0  0  0  0  0  0
  -29.9620  -18.2860   17.3850 H   0  0  0  0  0  0  0  0  0  0  0  0
  -31.3650  -17.7790   18.0450 H   0  0  0  0  0  0  0  0  0  0  0  0
  -31.0580  -19.3680   17.9100 H   0  0  0  0  0  0  0  0  0  0  0  0
  -29.6940  -16.7580   19.8450 C   0  0  0  0  0  3  0  0  0  0  0  0
  -30.4560  -15.2750   19.3210 C   0  0  0  0  0  0  0  0  0  0  0  0
  -30.2970  -12.8720   18.3650 C   0  0  0  0  0  2  0  0  0  0  0  0
  -29.1770  -12.7500   17.2980 C   0  0  0  0  0  2  0  0  0  0  0  0
  -27.8110  -12.4790   17.9560 C   0  0  0  0  0  2  0  0  0  0  0  0
  -27.5710  -13.3920   19.1830 C   0  0  0  0  0  3  0  0  0  0  0  0
  -28.7930  -13.4440   20.1210 C   0  0  0  0  0  2  0  0  0  0  0  0
  -29.9260  -13.9580   19.3370 N   0  0  0  0  0  0  0  0  0  0  0  0
  -31.5740  -15.3360   18.7900 O   0  0  0  0  0  0  0  0  0  0  0  0
  -25.4080  -13.9330   20.4260 C   0  0  0  0  0  0  0  0  0  0  0  0
  -24.3970  -13.1510   20.9100 C   0  0  0  0  0  0  0  0  0  0  0  0
  -24.7830  -11.8000   20.6470 C   0  0  0  0  0  0  0  0  0  0  0  0
  -26.3430  -13.0630   19.8950 N   0  0  0  0  0  0  0  0  0  0  0  0
  -25.9890  -11.7660   20.0920 N   0  0  0  0  0  0  0  0  0  0  0  0
  -24.0430  -10.5450   20.8380 C   0  0  0  0  0  0  0  0  0  0  0  0
  -24.5490   -9.5030   21.6450 C   0  0  0  0  0  3  0  0  0  0  0  0
  -23.8070   -8.3170   21.8310 C   0  0  0  0  0  3  0  0  0  0  0  0
  -22.5450   -8.1640   21.2100 C   0  0  0  0  0  0  0  0  0  0  0  0
  -22.0550   -9.1950   20.3910 C   0  0  0  0  0  3  0  0  0  0  0  0
  -22.7970  -10.3730   20.2030 C   0  0  0  0  0  3  0  0  0  0  0  0
  -21.7660   -7.0360   21.3120 O   0  0  0  0  0  0  0  0  0  0  0  0
  -21.7660   -6.2600   22.4430 C   0  0  0  0  0  0  0  0  0  0  0  0
  -21.4480   -6.7940   23.7110 C   0  0  0  0  0  3  0  0  0  0  0  0
  -21.3920   -5.9470   24.8370 C   0  0  0  0  0  3  0  0  0  0  0  0
  -21.6460   -4.5690   24.6960 C   0  0  0  0  0  0  0  0  0  0  0  0
  -21.9590   -4.0360   23.4330 C   0  0  0  0  0  3  0  0  0  0  0  0
  -22.0160   -4.8800   22.3100 C   0  0  0  0  0  0  0  0  0  0  0  0
  -22.2970   -4.3570   21.0910 F   0  0  0  0  0  0  0  0  0  0  0  0
  -21.5860   -3.7550   25.7750 F   0  0  0  0  0  0  0  0  0  0  0  0
  -23.1010  -13.6350   21.4880 C   0  0  0  0  0  0  0  0  0  0  0  0
  -22.5260  -12.8810   22.4210 N   0  0  0  0  0  0  0  0  0  0  0  0
  -22.6130  -14.7130   21.1510 O   0  0  0  0  0  0  0  0  0  0  0  0
  -22.9380  -12.0060   22.7120 H   0  0  0  0  0  0  0  0  0  0  0  0
  -21.6630  -13.1850   22.8480 H   0  0  0  0  0  0  0  0  0  0  0  0
  -25.6000  -15.3100   20.3690 N   0  0  0  0  0  0  0  0  0  0  0  0
  -24.9160  -15.9670   20.7290 H   0  0  0  0  0  0  0  0  0  0  0  0
  -26.4060  -15.7630   19.9610 H   0  0  0  0  0  0  0  0  0  0  0  0
  -28.3230  -16.7670   22.0790 C   0  0  0  0  0  1  0  0  0  0  0  0
  -29.7020  -16.6880   21.4030 C   0  0  0  0  0  2  0  0  0  0  0  0
  1  2  1  0
  3  4  1  0
  4  6  1  0
  4  1  1  0
  5 48  1  0
  5  3  1  0
  5  2  1  0
  7  9  1  0
  7  6  1  0
  8 19  2  0
  9 14  1  0
 10 18  1  0
 10 20  1  0
 11 17  1  0
 11 13  1  0
 12 18  1  0
 13 12  1  0
 14 13  2  0
 15  9  2  0
 16 15  1  0
 16 11  2  0
 17 10  1  0
 18  8  1  0
 20 22  2  0
 21 20  1  0
 23 21  1  0
 24 33  2  0
 24 29  1  0
 25 21  1  0
 25 29  1  0
 26 25  1  0
 27 28  1  0
 27 26  1  0
 28 24  1  0
 29 30  2  0
 30 31  1  0
 32 31  2  0
 33 32  1  0
 34  8  1  0
 34 35  1  0
 34 44  1  0
 35 38  1  0
 36 40  1  0
 36 35  1  0
 37 36  2  0
 40 39  1  0
 42 40  1  0
 42 43  1  0
 42 41  1  0
 44 47  1  1
 44 45  1  0
 46 44  1  0
 48 49  1  0
 48 53  1  0
 50 49  1  0
 51 49  1  0
 52 49  1  0
 53 91  1  0
 54 60  1  0
 54 53  1  0
 55 60  1  0
 56 57  1  0
 56 55  1  0
 58 57  1  0
 58 65  1  0
 58 59  1  0
 60 59  1  0
 61 54  2  0
 62 63  2  0
 63 82  1  0
 64 67  1  0
 64 63  1  0
 65 66  1  0
 65 62  1  0
 66 64  2  0
 67 68  1  0
 68 69  2  0
 70 73  1  0
 70 69  1  0
 71 70  2  0
 72 71  1  0
 72 67  2  0
 73 74  1  0
 74 75  1  0
 75 76  2  0
 77 76  1  0
 77 81  1  0
 78 77  2  0
 79 74  2  0
 79 78  1  0
 80 79  1  0
 82 83  1  0
 83 85  1  0
 83 86  1  0
 84 82  2  0
 87 62  1  0
 87 88  1  0
 89 87  1  0
 91 90  1  0
M  ISO  4   6 101   7 101  53 100  54 100
M  END
>  <TORSDO>  (79) 
F 21

>  <SCORE>  (79) 
-10.788

>  <name>  (79) 
78

>  <ligand_id>  (79) 
78

>  <original_smiles>  (79) 
[H]c1c([H])c([H])c2c(c1[H])C([H])([H])C([H])([H])C([H])([H])C2([H])N([H])C(=O)C1([H])N(C(=O)C([H])(N([H])C(=O)C([H])(N([H])C([H])([H])[H])C([H])([H])[H])C(C([H])([H])[H])(C([H])([H])[H])C([H])([H])[H])C([H])([H])c2c([H])c(OC([H])([H])C3([H])C([H])([H])C([H])([H])C([H])(C([H])(C([H])(C(=O)N4C([H])([H])C([H])([H])C([H])([H])C([H])(n5nc(-c6c([H])c([H])c(Oc7c([H])c([H])c(F)c([H])c7F)c([H])c6[H])c(C(=O)N([H])[H])c5N([H])[H])C4([H])[H])C([H])([H])C([H])([H])[H])[N+]([H])([H])[H])C3([H])[H])c([H])c([H])c2C1([H])[H]

>  <smiles>  (79) 
[H]c1c([H])c([H])c2c(c1[H])C([H])([H])C([H])([H])C([H])([H])C2([H])N([H])C(=O)C1([H])N(C(=O)C([H])(N([H])C(=O)C([H])(N([H])C([H])([H])[H])C([H])([H])[H])C(C([H])([H])[H])(C([H])([H])[H])C([H])([H])[H])C([H])([H])c2c([H])c(OC([H])([H])C3([H])C([H])([H])C([H])([H])C([H])(C([H])(C([H])(C(=O)N4C([H])([H])C([H])([H])C([H])([H])C([H])(n5nc(-c6c([H])c([H])c(Oc7c([H])c([H])c(F)c([H])c7F)c([H])c6[H])c(C(=O)N([H])[H])c5N([H])[H])C4([H])[H])C([H])([H])C([H])([H])[H])[N+]([H])([H])[H])C3([H])[H])c([H])c([H])c2C1([H])[H]

$$$$
79:0:0
     RDKit          3D

 87 95  0  0  1  0  0  0  0  0999 V2000
  -30.1180  -23.3190   20.8260 C   0  0  0  0  0  2  0  0  0  0  0  0
  -28.8730  -22.4760   20.8750 C   0  0  0  0  0  3  0  0  0  0  0  0
  -28.8590  -23.9150   20.2180 C   0  0  0  0  0  3  0  0  0  0  0  0
  -28.8170  -21.0940   20.1230 C   0  0  0  0  0  3  0  0  0  0  0  0
  -29.4870  -19.8120   20.8020 C   0  0  0  0  0  3  0  0  0  0  0  0
  -29.3180  -18.3990   20.0580 C   0  0  0  0  0  2  0  0  0  0  0  0
  -30.1320  -17.0950   20.4860 C   0  0  0  0  0  3  0  0  0  0  0  0
  -31.4880  -17.4110   21.1110 C   0  0  0  0  0  1  0  0  0  0  0  0
  -29.6960  -15.8740   20.2540 N   0  0  0  0  0  2  0  0  0  0  0  0
  -30.5540  -14.7300   20.1340 C   0  0  0  0  0  0  0  0  0  0  0  0
  -30.3290  -12.4650   19.1490 C   0  0  0  0  0  2  0  0  0  0  0  0
  -29.3580  -12.5860   17.9530 C   0  0  0  0  0  2  0  0  0  0  0  0
  -27.8960  -12.4270   18.4120 C   0  0  0  0  0  2  0  0  0  0  0  0
  -27.5620  -13.2910   19.6590 C   0  0  0  0  0  3  0  0  0  0  0  0
  -28.6510  -13.1680   20.7430 C   0  0  0  0  0  2  0  0  0  0  0  0
  -29.9440  -13.5010   20.1330 N   0  0  0  0  0  0  0  0  0  0  0  0
  -31.7440  -14.7980   19.8190 O   0  0  0  0  0  0  0  0  0  0  0  0
  -25.1950  -13.8720   20.4660 C   0  0  0  0  0  0  0  0  0  0  0  0
  -24.1430  -13.0930   20.8630 C   0  0  0  0  0  0  0  0  0  0  0  0
  -24.6090  -11.7440   20.8100 C   0  0  0  0  0  0  0  0  0  0  0  0
  -26.2330  -12.9960   20.1870 N   0  0  0  0  0  0  0  0  0  0  0  0
  -25.8890  -11.7120   20.4590 N   0  0  0  0  0  0  0  0  0  0  0  0
  -23.8930  -10.4790   21.0160 C   0  0  0  0  0  0  0  0  0  0  0  0
  -24.3560   -9.5050   21.9270 C   0  0  0  0  0  3  0  0  0  0  0  0
  -23.6370   -8.3040   22.1210 C   0  0  0  0  0  3  0  0  0  0  0  0
  -22.4410   -8.0690   21.4020 C   0  0  0  0  0  0  0  0  0  0  0  0
  -21.9970   -9.0340   20.4790 C   0  0  0  0  0  3  0  0  0  0  0  0
  -22.7160  -10.2240   20.2830 C   0  0  0  0  0  3  0  0  0  0  0  0
  -21.6920   -6.9200   21.5040 O   0  0  0  0  0  0  0  0  0  0  0  0
  -21.6860   -6.1650   22.6480 C   0  0  0  0  0  0  0  0  0  0  0  0
  -21.3070   -6.7050   23.8970 C   0  0  0  0  0  3  0  0  0  0  0  0
  -21.2480   -5.8750   25.0350 C   0  0  0  0  0  3  0  0  0  0  0  0
  -21.5570   -4.5070   24.9260 C   0  0  0  0  0  0  0  0  0  0  0  0
  -21.9270   -3.9660   23.6830 C   0  0  0  0  0  3  0  0  0  0  0  0
  -21.9900   -4.7920   22.5470 C   0  0  0  0  0  0  0  0  0  0  0  0
  -22.3250   -4.2600   21.3470 F   0  0  0  0  0  0  0  0  0  0  0  0
  -21.4940   -3.7080   26.0180 F   0  0  0  0  0  0  0  0  0  0  0  0
  -22.7530  -13.5650   21.1780 C   0  0  0  0  0  0  0  0  0  0  0  0
  -22.0520  -12.8620   22.0610 N   0  0  0  0  0  0  0  0  0  0  0  0
  -22.2980  -14.5930   20.6780 O   0  0  0  0  0  0  0  0  0  0  0  0
  -22.4320  -12.0330   22.4940 H   0  0  0  0  0  0  0  0  0  0  0  0
  -21.1200  -13.1610   22.3090 H   0  0  0  0  0  0  0  0  0  0  0  0
  -25.3530  -15.2440   20.2940 N   0  0  0  0  0  0  0  0  0  0  0  0
  -24.6060  -15.9090   20.4630 H   0  0  0  0  0  0  0  0  0  0  0  0
  -26.2190  -15.6810   20.0010 H   0  0  0  0  0  0  0  0  0  0  0  0
  -28.1860  -25.1900   20.8550 C   0  0  0  0  0  2  0  0  0  0  0  0
  -28.3590  -26.5310   20.2450 O   0  0  0  0  0  0  0  0  0  0  0  0
  -24.5860  -31.8910   23.2500 C   0  0  0  0  0  0  0  0  0  0  0  0
  -27.2380  -27.3690   20.2120 C   0  0  0  0  0  0  0  0  0  0  0  0
  -23.3920  -30.4900   21.6020 C   0  0  0  0  0  3  0  0  0  0  0  0
  -24.8570  -28.9490   20.1800 C   0  0  0  0  0  0  0  0  0  0  0  0
  -25.9250  -30.8360   21.4170 C   0  0  0  0  0  2  0  0  0  0  0  0
  -26.0210  -29.4580   20.7710 C   0  0  0  0  0  0  0  0  0  0  0  0
  -27.2200  -28.6860   20.7630 C   0  0  0  0  0  3  0  0  0  0  0  0
  -26.0530  -26.9040   19.6020 C   0  0  0  0  0  3  0  0  0  0  0  0
  -24.8750  -27.6780   19.5810 C   0  0  0  0  0  3  0  0  0  0  0  0
  -23.6150  -29.8160   20.2220 C   0  0  0  0  0  2  0  0  0  0  0  0
  -24.6530  -31.0870   22.1490 N   0  0  0  0  0  0  0  0  0  0  0  0
  -23.5020  -32.1580   23.7870 O   0  0  0  0  0  0  0  0  0  0  0  0
  -22.7320  -29.4680   22.5580 C   0  0  0  0  0  0  0  0  0  0  0  0
  -21.4060  -29.2910   22.4300 N   0  0  0  0  0  0  0  0  0  0  0  0
  -23.4090  -28.8390   23.3740 O   0  0  0  0  0  0  0  0  0  0  0  0
  -20.9160  -29.8490   21.7440 H   0  0  0  0  0  0  0  0  0  0  0  0
  -18.0300  -28.0870   22.9170 C   0  0  0  0  0  0  0  0  0  0  0  0
  -20.5870  -28.3500   23.1960 C   0  0  0  0  0  3  0  0  0  0  0  0
  -20.6960  -26.9210   22.6160 C   0  0  0  0  0  2  0  0  0  0  0  0
  -19.5980  -26.5980   21.5990 C   0  0  0  0  0  2  0  0  0  0  0  0
  -18.2140  -26.7410   22.2380 C   0  0  0  0  0  2  0  0  0  0  0  0
  -19.1470  -28.8490   23.3530 C   0  0  0  0  0  0  0  0  0  0  0  0
  -18.9240  -30.1090   23.9500 C   0  0  0  0  0  3  0  0  0  0  0  0
  -17.6190  -30.6080   24.1160 C   0  0  0  0  0  3  0  0  0  0  0  0
  -16.5170  -29.8420   23.6990 C   0  0  0  0  0  3  0  0  0  0  0  0
  -16.7230  -28.5830   23.1050 C   0  0  0  0  0  3  0  0  0  0  0  0
  -25.8650  -32.5290   23.8760 C   0  0  0  0  0  3  0  0  0  0  0  0
  -25.5520  -33.9250   24.2090 N   0  0  0  0  0  0  0  0  0  0  0  0
  -25.8800  -34.9800   23.4520 C   0  0  0  0  0  0  0  0  0  0  0  0
  -26.5510  -34.8810   22.4200 O   0  0  0  0  0  0  0  0  0  0  0  0
  -24.9660  -34.0760   25.0170 H   0  0  0  0  0  0  0  0  0  0  0  0
  -24.1480  -36.7680   23.0980 C   0  0  0  0  0  1  0  0  0  0  0  0
  -25.3890  -36.3660   23.9130 C   0  0  0  0  0  3  0  0  0  0  0  0
  -27.5190  -37.2560   24.7510 C   0  0  0  0  0  1  0  0  0  0  0  0
  -26.4170  -37.4240   23.8040 N   0  0  0  0  0  0  0  0  0  0  0  0
  -26.0090  -38.3420   23.9570 H   0  0  0  0  0  0  0  0  0  0  0  0
  -26.3780  -31.7600   25.1540 C   0  0  1  0  0  0  0  0  0  0  0  0
  -25.2810  -31.5170   26.2180 C   0  0  0  0  0  1  0  0  0  0  0  0
  -26.9650  -30.3860   24.7630 C   0  0  0  0  0  1  0  0  0  0  0  0
  -27.5250  -32.5550   25.8230 C   0  0  0  0  0  1  0  0  0  0  0  0
  1  2  1  0
  2  4  1  0
  3  1  1  0
  3 46  1  0
  3  2  1  0
  4  5  2  0
  6  7  1  0
  6  5  1  0
  7  8  1  0
  9  7  1  0
 10  9  1  0
 11 16  1  0
 12 13  1  0
 12 11  1  0
 14 13  1  0
 14 21  1  0
 14 15  1  0
 16 10  1  0
 16 15  1  0
 17 10  2  0
 18 19  2  0
 19 38  1  0
 20 19  1  0
 20 23  1  0
 21 22  1  0
 21 18  1  0
 22 20  2  0
 23 24  1  0
 24 25  2  0
 26 29  1  0
 26 25  1  0
 27 26  2  0
 28 27  1  0
 28 23  2  0
 29 30  1  0
 30 31  1  0
 31 32  2  0
 33 32  1  0
 33 37  1  0
 34 33  2  0
 35 30  2  0
 35 34  1  0
 36 35  1  0
 38 39  1  0
 39 42  1  0
 39 41  1  0
 40 38  2  0
 43 44  1  0
 43 18  1  0
 45 43  1  0
 47 46  1  0
 48 59  2  0
 49 47  1  0
 49 54  1  0
 50 58  1  0
 50 60  1  0
 51 57  1  0
 51 53  1  0
 52 58  1  0
 53 52  1  0
 54 53  2  0
 55 49  2  0
 56 55  1  0
 56 51  2  0
 57 50  1  0
 58 48  1  0
 60 62  2  0
 61 60  1  0
 63 61  1  0
 64 73  2  0
 64 69  1  0
 65 61  1  0
 65 69  1  0
 66 65  1  0
 67 68  1  0
 67 66  1  0
 68 64  1  0
 69 70  2  0
 70 71  1  0
 72 71  2  0
 73 72  1  0
 74 48  1  0
 74 75  1  0
 74 84  1  0
 75 78  1  0
 76 80  1  0
 76 75  1  0
 77 76  2  0
 80 79  1  0
 82 80  1  0
 82 83  1  0
 82 81  1  0
 84 87  1  1
 84 85  1  0
 86 84  1  0
M  ISO  4   9 100  10 100  46 101  47 101
M  END
>  <TORSDO>  (80) 
F 21

>  <SCORE>  (80) 
-13.381

>  <name>  (80) 
79

>  <ligand_id>  (80) 
79

>  <original_smiles>  (80) 
[H]c1c([H])c([H])c2c(c1[H])C([H])([H])C([H])([H])C([H])([H])C2([H])N([H])C(=O)C1([H])N(C(=O)C([H])(N([H])C(=O)C([H])(N([H])C([H])([H])[H])C([H])([H])[H])C(C([H])([H])[H])(C([H])([H])[H])C([H])([H])[H])C([H])([H])c2c([H])c(OC([H])([H])C3([H])C([H])([H])C3([H])C([H])([H])C([H])([H])C([H])([H])C(=NC(=O)N3C([H])([H])C([H])([H])C([H])([H])C([H])(n4nc(-c5c([H])c([H])c(Oc6c([H])c([H])c(F)c([H])c6F)c([H])c5[H])c(C(=O)N([H])[H])c4N([H])[H])C3([H])[H])C([H])([H])[H])c([H])c([H])c2C1([H])[H]

>  <smiles>  (80) 
[H]c1c([H])c([H])c2c(c1[H])C([H])([H])C([H])([H])C([H])([H])C2([H])N([H])C(=O)C1([H])N(C(=O)C([H])(N([H])C(=O)C([H])(N([H])C([H])([H])[H])C([H])([H])[H])C(C([H])([H])[H])(C([H])([H])[H])C([H])([H])[H])C([H])([H])c2c([H])c(OC([H])([H])C3([H])C([H])([H])C3([H])C([H])([H])C([H])([H])C([H])([H])C(=NC(=O)N3C([H])([H])C([H])([H])C([H])([H])C([H])(n4nc(-c5c([H])c([H])c(Oc6c([H])c([H])c(F)c([H])c6F)c([H])c5[H])c(C(=O)N([H])[H])c4N([H])[H])C3([H])[H])C([H])([H])[H])c([H])c([H])c2C1([H])[H]

$$$$
80:0:0
     RDKit          3D

 93102  0  0  1  0  0  0  0  0999 V2000
  -29.0450  -23.4260   19.4560 C   0  0  0  0  0  3  0  0  0  0  0  0
  -26.5240  -20.8180   18.9110 C   0  0  0  0  0  2  0  0  0  0  0  0
  -27.0410  -20.8730   17.4750 C   0  0  0  0  0  2  0  0  0  0  0  0
  -26.7310  -22.2290   19.4640 C   0  0  0  0  0  2  0  0  0  0  0  0
  -28.2240  -21.8480   17.5270 C   0  0  0  0  0  3  0  0  0  0  0  0
  -27.8470  -22.8870   18.6150 C   0  0  0  0  0  3  0  0  0  0  0  0
  -29.2390  -21.4840   15.1920 C   0  0  0  0  0  1  0  0  0  0  0  0
  -28.5760  -22.4730   16.1630 C   0  0  0  0  0  2  0  0  0  0  0  0
  -29.7400  -22.0800   20.3090 C   0  0  0  0  0  2  0  0  0  0  0  0
  -31.0720  -15.5530   20.0190 C   0  0  0  0  0  0  0  0  0  0  0  0
  -30.9090  -13.1440   19.1680 C   0  0  0  0  0  2  0  0  0  0  0  0
  -29.9730  -12.9980   17.9450 C   0  0  0  0  0  2  0  0  0  0  0  0
  -28.5200  -12.7860   18.4050 C   0  0  0  0  0  2  0  0  0  0  0  0
  -28.1170  -13.7660   19.5380 C   0  0  0  0  0  3  0  0  0  0  0  0
  -29.1830  -13.8780   20.6480 C   0  0  0  0  0  2  0  0  0  0  0  0
  -30.4230  -14.3050   19.9870 N   0  0  0  0  0  0  0  0  0  0  0  0
  -32.2750  -15.4910   19.7300 O   0  0  0  0  0  0  0  0  0  0  0  0
  -30.2650  -19.4510   18.8860 C   0  0  0  0  0  3  0  0  0  0  0  0
  -29.2270  -19.1860   20.9900 C   0  0  0  0  0  3  0  0  0  0  0  0
  -30.9730  -17.9830   19.0850 C   0  0  0  0  0  2  0  0  0  0  0  0
  -29.8550  -17.6650   21.1440 C   0  0  0  0  0  3  0  0  0  0  0  0
  -29.9800  -20.3350   20.1710 C   0  0  0  0  0  0  0  0  0  0  0  0
  -30.4180  -16.8660   19.9730 N   0  0  0  0  0  0  0  0  0  0  0  0
  -25.7860  -14.3730   20.3810 C   0  0  0  0  0  0  0  0  0  0  0  0
  -24.7080  -13.6140   20.7430 C   0  0  0  0  0  0  0  0  0  0  0  0
  -25.1260  -12.2530   20.6380 C   0  0  0  0  0  0  0  0  0  0  0  0
  -26.7910  -13.4760   20.0670 N   0  0  0  0  0  0  0  0  0  0  0  0
  -26.4100  -12.1910   20.2900 N   0  0  0  0  0  0  0  0  0  0  0  0
  -24.3610  -11.0080   20.7920 C   0  0  0  0  0  0  0  0  0  0  0  0
  -24.6580  -10.0800   21.8150 C   0  0  0  0  0  3  0  0  0  0  0  0
  -23.8920   -8.9020   21.9580 C   0  0  0  0  0  3  0  0  0  0  0  0
  -22.8170   -8.6430   21.0740 C   0  0  0  0  0  0  0  0  0  0  0  0
  -22.5390   -9.5600   20.0450 C   0  0  0  0  0  3  0  0  0  0  0  0
  -23.3050  -10.7300   19.9030 C   0  0  0  0  0  3  0  0  0  0  0  0
  -22.0360   -7.5130   21.1190 O   0  0  0  0  0  0  0  0  0  0  0  0
  -21.6720   -6.9370   22.3100 C   0  0  0  0  0  0  0  0  0  0  0  0
  -20.9180   -7.6400   23.2750 C   0  0  0  0  0  3  0  0  0  0  0  0
  -20.5020   -6.9890   24.4550 C   0  0  0  0  0  3  0  0  0  0  0  0
  -20.8330   -5.6370   24.6670 C   0  0  0  0  0  0  0  0  0  0  0  0
  -21.5790   -4.9340   23.7050 C   0  0  0  0  0  3  0  0  0  0  0  0
  -21.9940   -5.5820   22.5290 C   0  0  0  0  0  0  0  0  0  0  0  0
  -22.6950   -4.8950   21.5940 F   0  0  0  0  0  0  0  0  0  0  0  0
  -20.4280   -5.0090   25.7950 F   0  0  0  0  0  0  0  0  0  0  0  0
  -23.3370  -14.1250   21.0720 C   0  0  0  0  0  0  0  0  0  0  0  0
  -22.6180  -13.4370   21.9540 N   0  0  0  0  0  0  0  0  0  0  0  0
  -22.9120  -15.1730   20.5860 O   0  0  0  0  0  0  0  0  0  0  0  0
  -22.9740  -12.5880   22.3680 H   0  0  0  0  0  0  0  0  0  0  0  0
  -21.7030  -13.7670   22.2220 H   0  0  0  0  0  0  0  0  0  0  0  0
  -25.9840  -15.7450   20.2660 N   0  0  0  0  0  0  0  0  0  0  0  0
  -25.2350  -16.4040   20.4530 H   0  0  0  0  0  0  0  0  0  0  0  0
  -26.8370  -16.1890   19.9530 H   0  0  0  0  0  0  0  0  0  0  0  0
  -28.4900  -24.9110   20.2030 C   0  0  0  0  0  2  0  0  0  0  0  0
  -28.4240  -26.4660   19.8410 O   0  0  0  0  0  0  0  0  0  0  0  0
  -24.2230  -31.7360   23.0700 C   0  0  0  0  0  0  0  0  0  0  0  0
  -27.2680  -27.3490   19.9170 C   0  0  0  0  0  0  0  0  0  0  0  0
  -23.1730  -30.2450   21.4110 C   0  0  0  0  0  3  0  0  0  0  0  0
  -24.7740  -28.8740   19.9340 C   0  0  0  0  0  0  0  0  0  0  0  0
  -25.6810  -30.7980   21.2240 C   0  0  0  0  0  2  0  0  0  0  0  0
  -25.9080  -29.4270   20.5420 C   0  0  0  0  0  0  0  0  0  0  0  0
  -27.1570  -28.6830   20.5080 C   0  0  0  0  0  3  0  0  0  0  0  0
  -26.0970  -26.9090   19.2750 C   0  0  0  0  0  3  0  0  0  0  0  0
  -24.8810  -27.6350   19.2820 C   0  0  0  0  0  3  0  0  0  0  0  0
  -23.4560  -29.6340   20.0140 C   0  0  0  0  0  2  0  0  0  0  0  0
  -24.3770  -30.9510   21.9580 N   0  0  0  0  0  0  0  0  0  0  0  0
  -23.1160  -31.8760   23.6150 O   0  0  0  0  0  0  0  0  0  0  0  0
  -22.6270  -29.1430   22.3560 C   0  0  0  0  0  0  0  0  0  0  0  0
  -21.3180  -28.8420   22.2620 N   0  0  0  0  0  0  0  0  0  0  0  0
  -23.3830  -28.5660   23.1400 O   0  0  0  0  0  0  0  0  0  0  0  0
  -20.7560  -29.3740   21.6120 H   0  0  0  0  0  0  0  0  0  0  0  0
  -18.0840  -27.3190   22.8700 C   0  0  0  0  0  0  0  0  0  0  0  0
  -20.6210  -27.7980   23.0170 C   0  0  0  0  0  3  0  0  0  0  0  0
  -20.8130  -26.4110   22.3590 C   0  0  0  0  0  2  0  0  0  0  0  0
  -19.6890  -26.0420   21.3850 C   0  0  0  0  0  2  0  0  0  0  0  0
  -18.3390  -26.0300   22.1060 C   0  0  0  0  0  2  0  0  0  0  0  0
  -19.1550  -28.1560   23.2840 C   0  0  0  0  0  0  0  0  0  0  0  0
  -18.8620  -29.3580   23.9620 C   0  0  0  0  0  3  0  0  0  0  0  0
  -17.5310  -29.7320   24.2200 C   0  0  0  0  0  3  0  0  0  0  0  0
  -16.4740  -28.8940   23.8240 C   0  0  0  0  0  3  0  0  0  0  0  0
  -16.7520  -27.6880   23.1570 C   0  0  0  0  0  3  0  0  0  0  0  0
  -25.4220  -32.5070   23.7020 C   0  0  0  0  0  3  0  0  0  0  0  0
  -26.0100  -31.7970   24.9840 C   0  0  1  0  0  0  0  0  0  0  0  0
  -24.9380  -31.4030   26.0280 C   0  0  0  0  0  1  0  0  0  0  0  0
  -26.7740  -30.5110   24.5940 C   0  0  0  0  0  1  0  0  0  0  0  0
  -27.0410  -32.7250   25.6710 C   0  0  0  0  0  1  0  0  0  0  0  0
  -24.9590  -33.8630   24.0370 N   0  0  0  0  0  0  0  0  0  0  0  0
  -25.1950  -34.9560   23.3010 C   0  0  0  0  0  0  0  0  0  0  0  0
  -25.8880  -34.9350   22.2790 O   0  0  0  0  0  0  0  0  0  0  0  0
  -24.3360  -33.9430   24.8280 H   0  0  0  0  0  0  0  0  0  0  0  0
  -23.3080  -36.5860   22.9400 C   0  0  0  0  0  1  0  0  0  0  0  0
  -24.5660  -36.2840   23.7700 C   0  0  0  0  0  3  0  0  0  0  0  0
  -26.5770  -37.3630   24.6760 C   0  0  0  0  0  1  0  0  0  0  0  0
  -25.4920  -37.4340   23.7010 N   0  0  0  0  0  0  0  0  0  0  0  0
  -24.9940  -38.3070   23.8510 H   0  0  0  0  0  0  0  0  0  0  0  0
  1 52  1  0
  1  9  1  0
  2  4  1  0
  3  5  1  0
  3  2  1  0
  5  8  1  0
  5  6  1  0
  6  1  1  0
  6  4  1  0
  7  8  1  0
 11 16  1  0
 12 13  1  0
 12 11  1  0
 14 13  1  0
 14 27  1  0
 14 15  1  0
 16 10  1  0
 16 15  1  0
 17 10  2  0
 18 20  1  0
 18 22  2  0
 19 21  2  0
 20 23  1  0
 22  9  1  0
 22 19  1  0
 23 10  1  0
 23 21  1  0
 24 25  2  0
 25 44  1  0
 26 25  1  0
 26 29  1  0
 27 28  1  0
 27 24  1  0
 28 26  2  0
 29 30  1  0
 30 31  2  0
 32 35  1  0
 32 31  1  0
 33 32  2  0
 34 33  1  0
 34 29  2  0
 35 36  1  0
 36 41  2  0
 36 37  1  0
 37 38  2  0
 38 39  1  0
 39 43  1  0
 40 39  2  0
 41 40  1  0
 42 41  1  0
 44 45  1  0
 45 48  1  0
 45 47  1  0
 46 44  2  0
 49 24  1  0
 49 50  1  0
 51 49  1  0
 53 55  1  0
 53 52  1  0
 54 65  2  0
 55 60  1  0
 56 64  1  0
 56 66  1  0
 57 63  1  0
 57 59  1  0
 58 64  1  0
 59 58  1  0
 60 59  2  0
 61 62  1  0
 61 55  2  0
 62 57  2  0
 63 56  1  0
 64 54  1  0
 66 68  2  0
 67 66  1  0
 69 67  1  0
 70 79  2  0
 70 75  1  0
 71 67  1  0
 71 75  1  0
 72 71  1  0
 73 74  1  0
 73 72  1  0
 74 70  1  0
 75 76  2  0
 76 77  1  0
 78 77  2  0
 79 78  1  0
 80 54  1  0
 80 85  1  0
 80 81  1  0
 81 84  1  1
 81 82  1  0
 83 81  1  0
 85 88  1  0
 86 90  1  0
 86 85  1  0
 87 86  2  0
 90 89  1  0
 92 90  1  0
 92 93  1  0
 92 91  1  0
M  ISO  4  10 100  23 100  52 101  53 101
M  END
>  <TORSDO>  (81) 
F 20

>  <SCORE>  (81) 
-10.271

>  <name>  (81) 
80

>  <ligand_id>  (81) 
80

>  <original_smiles>  (81) 
[H]c1c([H])c([H])c2c(c1[H])C([H])([H])C([H])([H])C([H])([H])C2([H])N([H])C(=O)C1([H])N(C(=O)C([H])(N([H])C(=O)C([H])(N([H])C([H])([H])[H])C([H])([H])[H])C(C([H])([H])[H])(C([H])([H])[H])C([H])([H])[H])C([H])([H])c2c([H])c(OC([H])([H])C([H])(C([H])([H])C3([H])C([H])([H])C([H])([H])N(C(=O)N4C([H])([H])C([H])([H])C([H])([H])C([H])(n5nc(-c6c([H])c([H])c(Oc7c([H])c([H])c(F)c([H])c7F)c([H])c6[H])c(C(=O)N([H])[H])c5N([H])[H])C4([H])[H])C([H])([H])C3([H])[H])C3([H])C([H])([H])C([H])([H])C([H])([H])C3([H])C([H])([H])C([H])([H])[H])c([H])c([H])c2C1([H])[H]

>  <smiles>  (81) 
[H]c1c([H])c([H])c2c(c1[H])C([H])([H])C([H])([H])C([H])([H])C2([H])N([H])C(=O)C1([H])N(C(=O)C([H])(N([H])C(=O)C([H])(N([H])C([H])([H])[H])C([H])([H])[H])C(C([H])([H])[H])(C([H])([H])[H])C([H])([H])[H])C([H])([H])c2c([H])c(OC([H])([H])C([H])(C([H])([H])C3([H])C([H])([H])C([H])([H])N(C(=O)N4C([H])([H])C([H])([H])C([H])([H])C([H])(n5nc(-c6c([H])c([H])c(Oc7c([H])c([H])c(F)c([H])c7F)c([H])c6[H])c(C(=O)N([H])[H])c5N([H])[H])C4([H])[H])C([H])([H])C3([H])[H])C3([H])C([H])([H])C([H])([H])C([H])([H])C3([H])C([H])([H])C([H])([H])[H])c([H])c([H])c2C1([H])[H]

$$$$
81:0:0
     RDKit          3D

 89 97  0  0  1  0  0  0  0  0999 V2000
  -30.7170  -21.3530   20.5810 C   0  0  0  0  0  2  0  0  0  0  0  0
  -29.3480  -19.7120   20.7400 C   0  0  0  0  0  3  0  0  0  0  0  0
  -30.4500  -20.2790   21.6610 C   0  0  0  0  0  3  0  0  0  0  0  0
  -30.1290  -20.6880   23.0980 C   0  0  0  0  0  1  0  0  0  0  0  0
  -29.3180  -21.3140   20.1590 N   0  0  1  0  0  4  0  0  0  0  0  0
  -29.2480  -21.2630   19.1530 H   0  0  0  0  0  0  0  0  0  0  0  0
  -30.5320  -15.4820   20.1290 C   0  0  0  0  0  0  0  0  0  0  0  0
  -30.5060  -13.0300   19.2590 C   0  0  0  0  0  2  0  0  0  0  0  0
  -29.5850  -12.8540   18.0250 C   0  0  0  0  0  2  0  0  0  0  0  0
  -28.1410  -12.5610   18.4640 C   0  0  0  0  0  2  0  0  0  0  0  0
  -27.6950  -13.4950   19.6190 C   0  0  0  0  0  3  0  0  0  0  0  0
  -28.7480  -13.6390   20.7380 C   0  0  0  0  0  2  0  0  0  0  0  0
  -29.9760  -14.1640   20.1130 N   0  0  0  0  0  0  0  0  0  0  0  0
  -31.7280  -15.4680   19.8000 O   0  0  0  0  0  0  0  0  0  0  0  0
  -30.0370  -18.2060   20.0930 C   0  0  0  0  0  0  0  0  0  0  0  0
  -29.7970  -16.7600   20.3720 N   0  0  0  0  0  0  0  0  0  0  0  0
  -30.9260  -18.4330   19.2680 O   0  0  0  0  0  0  0  0  0  0  0  0
  -28.9160  -16.6090   20.8370 H   0  0  0  0  0  0  0  0  0  0  0  0
  -25.3310  -14.0220   20.4010 C   0  0  0  0  0  0  0  0  0  0  0  0
  -24.2820  -13.2360   20.7800 C   0  0  0  0  0  0  0  0  0  0  0  0
  -24.7630  -11.8910   20.7500 C   0  0  0  0  0  0  0  0  0  0  0  0
  -26.3770  -13.1590   20.1400 N   0  0  0  0  0  0  0  0  0  0  0  0
  -26.0520  -11.8700   20.4190 N   0  0  0  0  0  0  0  0  0  0  0  0
  -24.0510  -10.6220   20.9520 C   0  0  0  0  0  0  0  0  0  0  0  0
  -24.4820   -9.6730   21.9040 C   0  0  0  0  0  3  0  0  0  0  0  0
  -23.7670   -8.4710   22.0940 C   0  0  0  0  0  3  0  0  0  0  0  0
  -22.6040   -8.2060   21.3310 C   0  0  0  0  0  0  0  0  0  0  0  0
  -22.1920   -9.1430   20.3670 C   0  0  0  0  0  3  0  0  0  0  0  0
  -22.9090  -10.3360   20.1740 C   0  0  0  0  0  3  0  0  0  0  0  0
  -21.8640   -7.0540   21.4240 O   0  0  0  0  0  0  0  0  0  0  0  0
  -21.7890   -6.3380   22.5930 C   0  0  0  0  0  0  0  0  0  0  0  0
  -21.2900   -6.9070   23.7840 C   0  0  0  0  0  3  0  0  0  0  0  0
  -21.1680   -6.1180   24.9450 C   0  0  0  0  0  3  0  0  0  0  0  0
  -21.5350   -4.7590   24.9130 C   0  0  0  0  0  0  0  0  0  0  0  0
  -22.0270   -4.1880   23.7250 C   0  0  0  0  0  3  0  0  0  0  0  0
  -22.1500   -4.9770   22.5680 C   0  0  0  0  0  0  0  0  0  0  0  0
  -22.6060   -4.4180   21.4210 F   0  0  0  0  0  0  0  0  0  0  0  0
  -21.4130   -3.9990   26.0250 F   0  0  0  0  0  0  0  0  0  0  0  0
  -22.8820  -13.6980   21.0590 C   0  0  0  0  0  0  0  0  0  0  0  0
  -22.1670  -12.9970   21.9290 N   0  0  0  0  0  0  0  0  0  0  0  0
  -22.4320  -14.7200   20.5400 O   0  0  0  0  0  0  0  0  0  0  0  0
  -22.5510  -12.1830   22.3860 H   0  0  0  0  0  0  0  0  0  0  0  0
  -21.2210  -13.2800   22.1430 H   0  0  0  0  0  0  0  0  0  0  0  0
  -25.4810  -15.3950   20.2290 N   0  0  0  0  0  0  0  0  0  0  0  0
  -24.6980  -16.0310   20.3340 H   0  0  0  0  0  0  0  0  0  0  0  0
  -26.3080  -15.8420   19.8590 H   0  0  0  0  0  0  0  0  0  0  0  0
  -28.5540  -22.7260   20.6930 C   0  0  0  0  0  2  0  0  0  0  0  0
  -28.3890  -24.3840   19.9540 C   0  0  0  0  0  2  0  0  0  0  0  0
  -28.2570  -25.9790   20.4420 O   0  0  0  0  0  0  0  0  0  0  0  0
  -24.6040  -31.9350   23.2620 C   0  0  0  0  0  0  0  0  0  0  0  0
  -27.2300  -27.0600   20.2850 C   0  0  0  0  0  0  0  0  0  0  0  0
  -23.4330  -30.5210   21.6210 C   0  0  0  0  0  3  0  0  0  0  0  0
  -24.9110  -28.9280   20.2010 C   0  0  0  0  0  0  0  0  0  0  0  0
  -25.9970  -30.7560   21.4910 C   0  0  0  0  0  2  0  0  0  0  0  0
  -26.0870  -29.3450   20.8350 C   0  0  0  0  0  0  0  0  0  0  0  0
  -27.2330  -28.4300   20.8560 C   0  0  0  0  0  3  0  0  0  0  0  0
  -26.0270  -26.7990   19.5870 C   0  0  0  0  0  3  0  0  0  0  0  0
  -24.9090  -27.6790   19.5550 C   0  0  0  0  0  3  0  0  0  0  0  0
  -23.6770  -29.8330   20.2460 C   0  0  0  0  0  2  0  0  0  0  0  0
  -24.7000  -31.0990   22.1790 N   0  0  0  0  0  0  0  0  0  0  0  0
  -23.5080  -32.2180   23.7740 O   0  0  0  0  0  0  0  0  0  0  0  0
  -22.7420  -29.5240   22.5850 C   0  0  0  0  0  0  0  0  0  0  0  0
  -21.4130  -29.3430   22.4520 N   0  0  0  0  0  0  0  0  0  0  0  0
  -23.4050  -28.9150   23.4250 O   0  0  0  0  0  0  0  0  0  0  0  0
  -20.9290  -29.8780   21.7450 H   0  0  0  0  0  0  0  0  0  0  0  0
  -18.0440  -28.0970   22.9440 C   0  0  0  0  0  0  0  0  0  0  0  0
  -20.5970  -28.4000   23.2250 C   0  0  0  0  0  3  0  0  0  0  0  0
  -20.7240  -26.9660   22.6580 C   0  0  0  0  0  2  0  0  0  0  0  0
  -19.6350  -26.6250   21.6380 C   0  0  0  0  0  2  0  0  0  0  0  0
  -18.2460  -26.7520   22.2690 C   0  0  0  0  0  2  0  0  0  0  0  0
  -19.1470  -28.8800   23.3780 C   0  0  0  0  0  0  0  0  0  0  0  0
  -18.9000  -30.1370   23.9690 C   0  0  0  0  0  3  0  0  0  0  0  0
  -17.5850  -30.6140   24.1300 C   0  0  0  0  0  3  0  0  0  0  0  0
  -16.4970  -29.8290   23.7090 C   0  0  0  0  0  3  0  0  0  0  0  0
  -16.7270  -28.5720   23.1220 C   0  0  0  0  0  3  0  0  0  0  0  0
  -25.8640  -32.5930   23.9040 C   0  0  0  0  0  3  0  0  0  0  0  0
  -25.5410  -34.0000   24.2040 N   0  0  0  0  0  0  0  0  0  0  0  0
  -25.8890  -35.0450   23.4410 C   0  0  0  0  0  0  0  0  0  0  0  0
  -26.5740  -34.9270   22.4220 O   0  0  0  0  0  0  0  0  0  0  0  0
  -24.9300  -34.1640   24.9910 H   0  0  0  0  0  0  0  0  0  0  0  0
  -24.1770  -36.8480   23.0300 C   0  0  0  0  0  1  0  0  0  0  0  0
  -25.3990  -36.4440   23.8720 C   0  0  0  0  0  3  0  0  0  0  0  0
  -27.5150  -37.3360   24.7450 C   0  0  0  0  0  1  0  0  0  0  0  0
  -26.4410  -37.4910   23.7680 N   0  0  0  0  0  0  0  0  0  0  0  0
  -26.0360  -38.4170   23.8860 H   0  0  0  0  0  0  0  0  0  0  0  0
  -26.3450  -31.8570   25.2160 C   0  0  1  0  0  0  0  0  0  0  0  0
  -25.2230  -31.6490   26.2600 C   0  0  0  0  0  1  0  0  0  0  0  0
  -26.9370  -30.4690   24.8870 C   0  0  0  0  0  1  0  0  0  0  0  0
  -27.4810  -32.6670   25.8850 C   0  0  0  0  0  1  0  0  0  0  0  0
  1  3  1  0
  2 15  1  0
  2  3  1  0
  3  4  1  0
  5  1  1  0
  5 47  1  0
  5  2  1  0
  5  6  1  6
  7 16  1  0
  8 13  1  0
  9 10  1  0
  9  8  1  0
 11 10  1  0
 11 22  1  0
 11 12  1  0
 13  7  1  0
 13 12  1  0
 14  7  2  0
 15 16  1  0
 16 18  1  0
 17 15  2  0
 19 20  2  0
 20 39  1  0
 21 20  1  0
 21 24  1  0
 22 19  1  0
 22 23  1  0
 23 21  2  0
 24 25  1  0
 25 26  2  0
 27 30  1  0
 27 26  1  0
 28 27  2  0
 29 28  1  0
 29 24  2  0
 30 31  1  0
 31 32  1  0
 32 33  2  0
 34 33  1  0
 34 38  1  0
 35 34  2  0
 36 31  2  0
 36 35  1  0
 37 36  1  0
 39 40  1  0
 40 43  1  0
 40 42  1  0
 41 39  2  0
 44 45  1  0
 44 19  1  0
 46 44  1  0
 48 49  1  0
 48 47  1  0
 50 61  2  0
 51 49  1  0
 51 56  1  0
 52 60  1  0
 52 62  1  0
 53 59  1  0
 53 55  1  0
 54 60  1  0
 55 56  2  0
 55 54  1  0
 57 51  2  0
 58 57  1  0
 58 53  2  0
 59 52  1  0
 60 50  1  0
 62 64  2  0
 63 62  1  0
 65 63  1  0
 66 75  2  0
 66 71  1  0
 67 63  1  0
 67 71  1  0
 68 67  1  0
 69 70  1  0
 69 68  1  0
 70 66  1  0
 71 72  2  0
 72 73  1  0
 74 73  2  0
 75 74  1  0
 76 50  1  0
 76 77  1  0
 76 86  1  0
 77 80  1  0
 78 82  1  0
 78 77  1  0
 79 78  2  0
 82 81  1  0
 84 82  1  0
 84 85  1  0
 84 83  1  0
 86 89  1  1
 86 87  1  0
 88 86  1  0
M  ISO  4   7 100  16 100  48 101  49 101
M  END
>  <TORSDO>  (82) 
F 18

>  <SCORE>  (82) 
-16.362

>  <name>  (82) 
81

>  <ligand_id>  (82) 
81

>  <original_smiles>  (82) 
[H]c1c([H])c([H])c2c(c1[H])C([H])([H])C([H])([H])C([H])([H])C2([H])N([H])C(=O)C1([H])N(C(=O)C([H])(N([H])C(=O)C([H])(N([H])C([H])([H])[H])C([H])([H])[H])C(C([H])([H])[H])(C([H])([H])[H])C([H])([H])[H])C([H])([H])c2c([H])c(OC([H])([H])C([H])([H])[N+]3([H])C([H])([H])C([H])(C([H])([H])[H])C3([H])C(=O)N([H])C(=O)N3C([H])([H])C([H])([H])C([H])([H])C([H])(n4nc(-c5c([H])c([H])c(Oc6c([H])c([H])c(F)c([H])c6F)c([H])c5[H])c(C(=O)N([H])[H])c4N([H])[H])C3([H])[H])c([H])c([H])c2C1([H])[H]

>  <smiles>  (82) 
[H]c1c([H])c([H])c2c(c1[H])C([H])([H])C([H])([H])C([H])([H])C2([H])N([H])C(=O)C1([H])N(C(=O)C([H])(N([H])C(=O)C([H])(N([H])C([H])([H])[H])C([H])([H])[H])C(C([H])([H])[H])(C([H])([H])[H])C([H])([H])[H])C([H])([H])c2c([H])c(OC([H])([H])C([H])([H])[N+]3([H])C([H])([H])C([H])(C([H])([H])[H])C3([H])C(=O)N([H])C(=O)N3C([H])([H])C([H])([H])C([H])([H])C([H])(n4nc(-c5c([H])c([H])c(Oc6c([H])c([H])c(F)c([H])c6F)c([H])c5[H])c(C(=O)N([H])[H])c4N([H])[H])C3([H])[H])c([H])c([H])c2C1([H])[H]

$$$$
82:0:0
     RDKit          3D

 90 98  0  0  1  0  0  0  0  0999 V2000
  -30.4130  -20.7980   21.0940 C   0  0  0  0  0  3  0  0  0  0  0  0
  -29.5290  -20.0190   20.4280 C   0  0  0  0  0  0  0  0  0  0  0  0
  -28.5570  -21.2200   19.8580 C   0  0  0  0  0  2  0  0  0  0  0  0
  -30.2060  -22.3700   21.1050 C   0  0  0  0  0  3  0  0  0  0  0  0
  -28.7580  -22.7590   20.5740 C   0  0  0  0  0  3  0  0  0  0  0  0
  -30.5040  -22.9250   22.4390 N   0  0  0  0  0  4  0  0  0  0  0  0
  -31.4400  -22.6790   22.7110 H   0  0  0  0  0  0  0  0  0  0  0  0
  -29.8750  -22.5730   23.1350 H   0  0  0  0  0  0  0  0  0  0  0  0
  -30.4450  -23.9290   22.4300 H   0  0  0  0  0  0  0  0  0  0  0  0
  -29.1990  -24.5590   18.6650 C   0  0  0  0  0  1  0  0  0  0  0  0
  -28.3220  -24.3780   19.9060 C   0  0  0  0  0  3  0  0  0  0  0  0
  -28.2540  -25.9350   20.4310 O   0  0  0  0  0  0  0  0  0  0  0  0
  -24.6020  -31.8720   23.2320 C   0  0  0  0  0  0  0  0  0  0  0  0
  -27.2210  -26.9990   20.2720 C   0  0  0  0  0  0  0  0  0  0  0  0
  -23.4320  -30.4620   21.5830 C   0  0  0  0  0  3  0  0  0  0  0  0
  -24.9020  -28.8530   20.1840 C   0  0  0  0  0  0  0  0  0  0  0  0
  -25.9970  -30.6890   21.4610 C   0  0  0  0  0  2  0  0  0  0  0  0
  -26.0770  -29.2740   20.8180 C   0  0  0  0  0  0  0  0  0  0  0  0
  -27.2260  -28.3660   20.8370 C   0  0  0  0  0  3  0  0  0  0  0  0
  -26.0130  -26.7240   19.5870 C   0  0  0  0  0  3  0  0  0  0  0  0
  -24.8940  -27.5980   19.5500 C   0  0  0  0  0  3  0  0  0  0  0  0
  -23.6730  -29.7580   20.2190 C   0  0  0  0  0  2  0  0  0  0  0  0
  -24.7000  -31.0350   22.1460 N   0  0  0  0  0  0  0  0  0  0  0  0
  -23.5070  -32.1610   23.7380 O   0  0  0  0  0  0  0  0  0  0  0  0
  -22.7230  -29.4790   22.5520 C   0  0  0  0  0  0  0  0  0  0  0  0
  -21.3950  -29.3140   22.4070 N   0  0  0  0  0  0  0  0  0  0  0  0
  -23.3760  -28.8580   23.3930 O   0  0  0  0  0  0  0  0  0  0  0  0
  -20.9250  -29.8560   21.6970 H   0  0  0  0  0  0  0  0  0  0  0  0
  -18.0010  -28.1170   22.8840 C   0  0  0  0  0  0  0  0  0  0  0  0
  -20.5590  -28.3830   23.1720 C   0  0  0  0  0  3  0  0  0  0  0  0
  -20.6650  -26.9480   22.6050 C   0  0  0  0  0  2  0  0  0  0  0  0
  -19.5730  -26.6230   21.5810 C   0  0  0  0  0  2  0  0  0  0  0  0
  -18.1840  -26.7680   22.2110 C   0  0  0  0  0  2  0  0  0  0  0  0
  -19.1150  -28.8820   23.3210 C   0  0  0  0  0  0  0  0  0  0  0  0
  -18.8870  -30.1450   23.9120 C   0  0  0  0  0  3  0  0  0  0  0  0
  -17.5790  -30.6410   24.0680 C   0  0  0  0  0  3  0  0  0  0  0  0
  -16.4800  -29.8730   23.6460 C   0  0  0  0  0  3  0  0  0  0  0  0
  -16.6910  -28.6120   23.0610 C   0  0  0  0  0  3  0  0  0  0  0  0
  -25.8650  -32.5200   23.8830 C   0  0  0  0  0  3  0  0  0  0  0  0
  -26.3410  -31.7740   25.1890 C   0  0  1  0  0  0  0  0  0  0  0  0
  -25.2220  -31.5650   26.2360 C   0  0  0  0  0  1  0  0  0  0  0  0
  -26.9210  -30.3860   24.8440 C   0  0  0  0  0  1  0  0  0  0  0  0
  -27.4830  -32.5730   25.8650 C   0  0  0  0  0  1  0  0  0  0  0  0
  -25.5460  -33.9250   24.1940 N   0  0  0  0  0  0  0  0  0  0  0  0
  -25.8960  -34.9750   23.4420 C   0  0  0  0  0  0  0  0  0  0  0  0
  -26.5820  -34.8630   22.4220 O   0  0  0  0  0  0  0  0  0  0  0  0
  -24.9380  -34.0850   24.9820 H   0  0  0  0  0  0  0  0  0  0  0  0
  -24.1800  -36.7710   23.0620 C   0  0  0  0  0  1  0  0  0  0  0  0
  -25.4130  -36.3700   23.8870 C   0  0  0  0  0  3  0  0  0  0  0  0
  -27.5420  -37.2440   24.7390 C   0  0  0  0  0  1  0  0  0  0  0  0
  -26.4530  -37.4180   23.7810 N   0  0  0  0  0  0  0  0  0  0  0  0
  -26.0510  -38.3400   23.9230 H   0  0  0  0  0  0  0  0  0  0  0  0
  -29.7870  -18.3700   19.9340 C   0  0  0  0  0  3  0  0  0  0  0  0
  -29.8060  -16.7800   20.7360 C   0  0  0  0  0  3  0  0  0  0  0  0
  -30.4830  -15.2380   20.2950 C   0  0  0  0  0  0  0  0  0  0  0  0
  -30.4180  -12.8080   19.4020 C   0  0  0  0  0  2  0  0  0  0  0  0
  -29.5080  -12.6920   18.1520 C   0  0  0  0  0  2  0  0  0  0  0  0
  -28.0500  -12.4330   18.5730 C   0  0  0  0  0  2  0  0  0  0  0  0
  -27.6070  -13.3690   19.7290 C   0  0  0  0  0  3  0  0  0  0  0  0
  -28.6520  -13.4710   20.8640 C   0  0  0  0  0  2  0  0  0  0  0  0
  -29.9130  -13.9370   20.2670 N   0  0  0  0  0  0  0  0  0  0  0  0
  -31.6680  -15.2360   19.9320 O   0  0  0  0  0  0  0  0  0  0  0  0
  -25.2200  -13.9140   20.4510 C   0  0  0  0  0  0  0  0  0  0  0  0
  -24.1600  -13.1330   20.8180 C   0  0  0  0  0  0  0  0  0  0  0  0
  -24.6360  -11.7860   20.8050 C   0  0  0  0  0  0  0  0  0  0  0  0
  -26.2730  -13.0470   20.2260 N   0  0  0  0  0  0  0  0  0  0  0  0
  -25.9330  -11.7600   20.5030 N   0  0  0  0  0  0  0  0  0  0  0  0
  -23.9160  -10.5200   21.0000 C   0  0  0  0  0  0  0  0  0  0  0  0
  -24.3430   -9.5600   21.9440 C   0  0  0  0  0  3  0  0  0  0  0  0
  -23.6180   -8.3630   22.1270 C   0  0  0  0  0  3  0  0  0  0  0  0
  -22.4510   -8.1160   21.3670 C   0  0  0  0  0  0  0  0  0  0  0  0
  -22.0420   -9.0630   20.4110 C   0  0  0  0  0  3  0  0  0  0  0  0
  -22.7670  -10.2530   20.2260 C   0  0  0  0  0  3  0  0  0  0  0  0
  -21.6990   -6.9690   21.4580 O   0  0  0  0  0  0  0  0  0  0  0  0
  -21.6470   -6.2330   22.6150 C   0  0  0  0  0  0  0  0  0  0  0  0
  -21.2050   -6.7910   23.8340 C   0  0  0  0  0  3  0  0  0  0  0  0
  -21.0990   -5.9820   24.9820 C   0  0  0  0  0  3  0  0  0  0  0  0
  -21.4240   -4.6130   24.9130 C   0  0  0  0  0  0  0  0  0  0  0  0
  -21.8570   -4.0550   23.6980 C   0  0  0  0  0  3  0  0  0  0  0  0
  -21.9650   -4.8610   22.5520 C   0  0  0  0  0  0  0  0  0  0  0  0
  -22.3620   -4.3110   21.3800 F   0  0  0  0  0  0  0  0  0  0  0  0
  -21.3150   -3.8340   26.0150 F   0  0  0  0  0  0  0  0  0  0  0  0
  -22.7560  -13.6020   21.0700 C   0  0  0  0  0  0  0  0  0  0  0  0
  -22.0170  -12.9150   21.9320 N   0  0  0  0  0  0  0  0  0  0  0  0
  -22.3210  -14.6230   20.5360 O   0  0  0  0  0  0  0  0  0  0  0  0
  -22.3780  -12.0900   22.3880 H   0  0  0  0  0  0  0  0  0  0  0  0
  -21.0750  -13.2210   22.1360 H   0  0  0  0  0  0  0  0  0  0  0  0
  -25.3730  -15.2850   20.2640 N   0  0  0  0  0  0  0  0  0  0  0  0
  -24.5960  -15.9320   20.3500 H   0  0  0  0  0  0  0  0  0  0  0  0
  -26.2330  -15.7390   19.9790 H   0  0  0  0  0  0  0  0  0  0  0  0
  1  4  1  0
  2  1  2  0
  3  2  1  0
  3  5  1  0
  4  6  1  0
  5 11  1  0
  5  4  1  0
  6  7  1  0
  6  8  1  0
  9  6  1  0
 11 10  1  0
 11 12  1  0
 13 24  2  0
 14 12  1  0
 14 19  1  0
 15 23  1  0
 15 25  1  0
 16 22  1  0
 16 18  1  0
 17 23  1  0
 18 19  2  0
 18 17  1  0
 20 14  2  0
 21 20  1  0
 21 16  2  0
 22 15  1  0
 23 13  1  0
 25 27  2  0
 26 25  1  0
 28 26  1  0
 29 38  2  0
 29 34  1  0
 30 26  1  0
 30 34  1  0
 31 30  1  0
 32 33  1  0
 32 31  1  0
 33 29  1  0
 34 35  2  0
 35 36  1  0
 37 36  2  0
 38 37  1  0
 39 13  1  0
 39 44  1  0
 39 40  1  0
 40 43  1  1
 40 41  1  0
 42 40  1  0
 44 47  1  0
 45 49  1  0
 45 44  1  0
 46 45  2  0
 49 48  1  0
 51 49  1  0
 51 52  1  0
 51 50  1  0
 53  2  1  0
 53 54  2  0
 55 54  1  0
 56 61  1  0
 57 58  1  0
 57 56  1  0
 59 58  1  0
 59 66  1  0
 59 60  1  0
 61 55  1  0
 61 60  1  0
 62 55  2  0
 63 64  2  0
 64 83  1  0
 65 64  1  0
 65 68  1  0
 66 63  1  0
 66 67  1  0
 67 65  2  0
 68 69  1  0
 69 70  2  0
 71 74  1  0
 71 70  1  0
 72 71  2  0
 73 72  1  0
 73 68  2  0
 74 75  1  0
 75 76  1  0
 76 77  2  0
 78 77  1  0
 78 82  1  0
 79 78  2  0
 80 75  2  0
 80 79  1  0
 81 80  1  0
 83 84  1  0
 84 87  1  0
 84 86  1  0
 85 83  2  0
 88 89  1  0
 88 63  1  0
 90 88  1  0
M  ISO  4  11 101  12 101  54 100  55 100
M  END
>  <TORSDO>  (83) 
F 20

>  <SCORE>  (83) 
-15.879

>  <name>  (83) 
82

>  <ligand_id>  (83) 
82

>  <original_smiles>  (83) 
[H]C1=C(C([H])([H])C([H])([H])C(=O)N2C([H])([H])C([H])([H])C([H])([H])C([H])(n3nc(-c4c([H])c([H])c(Oc5c([H])c([H])c(F)c([H])c5F)c([H])c4[H])c(C(=O)N([H])[H])c3N([H])[H])C2([H])[H])C([H])([H])C([H])(C([H])(Oc2c([H])c([H])c3c(c2[H])C([H])([H])N(C(=O)C([H])(N([H])C(=O)C([H])(N([H])C([H])([H])[H])C([H])([H])[H])C(C([H])([H])[H])(C([H])([H])[H])C([H])([H])[H])C([H])(C(=O)N([H])C2([H])c4c([H])c([H])c([H])c([H])c4C([H])([H])C([H])([H])C2([H])[H])C3([H])[H])C([H])([H])[H])C1([H])[N+]([H])([H])[H]

>  <smiles>  (83) 
[H]C1=C(C([H])([H])C([H])([H])C(=O)N2C([H])([H])C([H])([H])C([H])([H])C([H])(n3nc(-c4c([H])c([H])c(Oc5c([H])c([H])c(F)c([H])c5F)c([H])c4[H])c(C(=O)N([H])[H])c3N([H])[H])C2([H])[H])C([H])([H])C([H])(C([H])(Oc2c([H])c([H])c3c(c2[H])C([H])([H])N(C(=O)C([H])(N([H])C(=O)C([H])(N([H])C([H])([H])[H])C([H])([H])[H])C(C([H])([H])[H])(C([H])([H])[H])C([H])([H])[H])C([H])(C(=O)N([H])C2([H])c4c([H])c([H])c([H])c([H])c4C([H])([H])C([H])([H])C2([H])[H])C3([H])[H])C([H])([H])[H])C1([H])[N+]([H])([H])[H]

$$$$
83:0:0
     RDKit          3D

 90 98  0  0  1  0  0  0  0  0999 V2000
  -31.1070  -21.7520   19.1700 C   0  0  0  0  0  3  0  0  0  0  0  0
  -30.2020  -22.7950   19.4410 C   0  0  0  0  0  3  0  0  0  0  0  0
  -30.7960  -20.4080   19.4690 C   0  0  0  0  0  3  0  0  0  0  0  0
  -28.6600  -21.1440   20.3490 C   0  0  0  0  0  3  0  0  0  0  0  0
  -28.9540  -22.5350   20.0380 C   0  0  0  0  0  0  0  0  0  0  0  0
  -29.5710  -20.0400   20.0750 C   0  0  0  0  0  0  0  0  0  0  0  0
  -27.9430  -23.7510   20.1620 C   0  0  0  0  0  2  0  0  0  0  0  0
  -28.3610  -25.1380   20.8740 C   0  0  0  0  0  2  0  0  0  0  0  0
  -28.4000  -26.4780   20.2170 O   0  0  0  0  0  0  0  0  0  0  0  0
  -24.6300  -31.8910   23.2480 C   0  0  0  0  0  0  0  0  0  0  0  0
  -27.2740  -27.3120   20.2420 C   0  0  0  0  0  0  0  0  0  0  0  0
  -23.4430  -30.4810   21.6030 C   0  0  0  0  0  3  0  0  0  0  0  0
  -24.9070  -28.9190   20.2040 C   0  0  0  0  0  0  0  0  0  0  0  0
  -25.9840  -30.8070   21.4350 C   0  0  0  0  0  2  0  0  0  0  0  0
  -26.0740  -29.4220   20.7950 C   0  0  0  0  0  0  0  0  0  0  0  0
  -27.2650  -28.6350   20.7910 C   0  0  0  0  0  3  0  0  0  0  0  0
  -26.0810  -26.8510   19.6510 C   0  0  0  0  0  3  0  0  0  0  0  0
  -24.9110  -27.6380   19.6260 C   0  0  0  0  0  3  0  0  0  0  0  0
  -23.6750  -29.8000   20.2280 C   0  0  0  0  0  2  0  0  0  0  0  0
  -24.7030  -31.0760   22.1510 N   0  0  0  0  0  0  0  0  0  0  0  0
  -23.5410  -32.1650   23.7720 O   0  0  0  0  0  0  0  0  0  0  0  0
  -22.7750  -29.4650   22.5610 C   0  0  0  0  0  0  0  0  0  0  0  0
  -21.4490  -29.2940   22.4310 N   0  0  0  0  0  0  0  0  0  0  0  0
  -23.4500  -28.8350   23.3780 O   0  0  0  0  0  0  0  0  0  0  0  0
  -20.9650  -29.8570   21.7460 H   0  0  0  0  0  0  0  0  0  0  0  0
  -18.0620  -28.1190   22.9350 C   0  0  0  0  0  0  0  0  0  0  0  0
  -20.6230  -28.3600   23.2000 C   0  0  0  0  0  3  0  0  0  0  0  0
  -20.7140  -26.9300   22.6200 C   0  0  0  0  0  2  0  0  0  0  0  0
  -19.6070  -26.6170   21.6080 C   0  0  0  0  0  2  0  0  0  0  0  0
  -18.2270  -26.7720   22.2540 C   0  0  0  0  0  2  0  0  0  0  0  0
  -19.1870  -28.8730   23.3650 C   0  0  0  0  0  0  0  0  0  0  0  0
  -18.9780  -30.1350   23.9610 C   0  0  0  0  0  3  0  0  0  0  0  0
  -17.6770  -30.6430   24.1330 C   0  0  0  0  0  3  0  0  0  0  0  0
  -16.5670  -29.8870   23.7180 C   0  0  0  0  0  3  0  0  0  0  0  0
  -16.7600  -28.6270   23.1250 C   0  0  0  0  0  3  0  0  0  0  0  0
  -25.9040  -32.5300   23.8780 C   0  0  0  0  0  3  0  0  0  0  0  0
  -26.4130  -31.7690   25.1650 C   0  0  1  0  0  0  0  0  0  0  0  0
  -25.3120  -31.5380   26.2270 C   0  0  0  0  0  1  0  0  0  0  0  0
  -27.0040  -30.3900   24.7870 C   0  0  0  0  0  1  0  0  0  0  0  0
  -27.5550  -32.5730   25.8320 C   0  0  0  0  0  1  0  0  0  0  0  0
  -25.5920  -33.9300   24.2010 N   0  0  0  0  0  0  0  0  0  0  0  0
  -25.9210  -34.9800   23.4350 C   0  0  0  0  0  0  0  0  0  0  0  0
  -26.5900  -34.8720   22.4050 O   0  0  0  0  0  0  0  0  0  0  0  0
  -25.0100  -34.0880   25.0100 H   0  0  0  0  0  0  0  0  0  0  0  0
  -24.1890  -36.7650   23.0640 C   0  0  0  0  0  1  0  0  0  0  0  0
  -25.4270  -36.3700   23.8850 C   0  0  0  0  0  3  0  0  0  0  0  0
  -27.5570  -37.2600   24.7190 C   0  0  0  0  0  1  0  0  0  0  0  0
  -26.4590  -37.4240   23.7700 N   0  0  0  0  0  0  0  0  0  0  0  0
  -26.0510  -38.3440   23.9160 H   0  0  0  0  0  0  0  0  0  0  0  0
  -29.2060  -18.4850   20.2150 C   0  0  0  0  0  2  0  0  0  0  0  0
  -31.6650  -17.6640   20.8650 C   0  0  0  0  0  1  0  0  0  0  0  0
  -30.1560  -17.3530   20.9080 C   0  0  0  0  0  0  0  0  0  0  0  0
  -30.5950  -14.7410   20.4020 C   0  0  0  0  0  0  0  0  0  0  0  0
  -30.3800  -12.4830   19.3600 C   0  0  0  0  0  2  0  0  0  0  0  0
  -29.4250  -12.5550   18.1490 C   0  0  0  0  0  2  0  0  0  0  0  0
  -27.9630  -12.3720   18.6000 C   0  0  0  0  0  2  0  0  0  0  0  0
  -27.5960  -13.2630   19.8180 C   0  0  0  0  0  3  0  0  0  0  0  0
  -28.6670  -13.1700   20.9270 C   0  0  0  0  0  2  0  0  0  0  0  0
  -29.9550  -13.5260   20.3180 N   0  0  0  0  0  0  0  0  0  0  0  0
  -31.7830  -14.8250   20.0770 O   0  0  0  0  0  0  0  0  0  0  0  0
  -29.8300  -15.8680   20.6640 N   0  0  0  0  0  4  0  0  0  0  0  0
  -28.8530  -15.6450   20.7900 H   0  0  0  0  0  0  0  0  0  0  0  0
  -25.2170  -13.8470   20.5790 C   0  0  0  0  0  0  0  0  0  0  0  0
  -24.1570  -13.0690   20.9570 C   0  0  0  0  0  0  0  0  0  0  0  0
  -24.6220  -11.7180   20.9150 C   0  0  0  0  0  0  0  0  0  0  0  0
  -26.2590  -12.9700   20.3240 N   0  0  0  0  0  0  0  0  0  0  0  0
  -25.9090  -11.6850   20.5920 N   0  0  0  0  0  0  0  0  0  0  0  0
  -23.9020  -10.4530   21.1050 C   0  0  0  0  0  0  0  0  0  0  0  0
  -24.3480   -9.4800   22.0270 C   0  0  0  0  0  3  0  0  0  0  0  0
  -23.6280   -8.2800   22.2060 C   0  0  0  0  0  3  0  0  0  0  0  0
  -22.4470   -8.0450   21.4640 C   0  0  0  0  0  0  0  0  0  0  0  0
  -22.0190   -9.0050   20.5310 C   0  0  0  0  0  3  0  0  0  0  0  0
  -22.7400  -10.1970   20.3500 C   0  0  0  0  0  3  0  0  0  0  0  0
  -21.6980   -6.8960   21.5530 O   0  0  0  0  0  0  0  0  0  0  0  0
  -21.6670   -6.1430   22.6980 C   0  0  0  0  0  0  0  0  0  0  0  0
  -21.2510   -6.6830   23.9360 C   0  0  0  0  0  3  0  0  0  0  0  0
  -21.1690   -5.8560   25.0730 C   0  0  0  0  0  3  0  0  0  0  0  0
  -21.4930   -4.4890   24.9750 C   0  0  0  0  0  0  0  0  0  0  0  0
  -21.9030   -3.9490   23.7430 C   0  0  0  0  0  3  0  0  0  0  0  0
  -21.9860   -4.7730   22.6070 C   0  0  0  0  0  0  0  0  0  0  0  0
  -22.3610   -4.2440   21.4180 F   0  0  0  0  0  0  0  0  0  0  0  0
  -21.4060   -3.6920   26.0650 F   0  0  0  0  0  0  0  0  0  0  0  0
  -22.7590  -13.5410   21.2400 C   0  0  0  0  0  0  0  0  0  0  0  0
  -22.0350  -12.8420   22.1060 N   0  0  0  0  0  0  0  0  0  0  0  0
  -22.3150  -14.5690   20.7280 O   0  0  0  0  0  0  0  0  0  0  0  0
  -22.4060  -12.0160   22.5510 H   0  0  0  0  0  0  0  0  0  0  0  0
  -21.0990  -13.1440   22.3350 H   0  0  0  0  0  0  0  0  0  0  0  0
  -25.3730  -15.2180   20.4010 N   0  0  0  0  0  0  0  0  0  0  0  0
  -24.5980  -15.8640   20.5160 H   0  0  0  0  0  0  0  0  0  0  0  0
  -26.1990  -15.6580   20.0150 H   0  0  0  0  0  0  0  0  0  0  0  0
  1  2  2  0
  1  3  1  0
  2  5  1  0
  3  6  2  0
  5  7  1  0
  5  4  2  0
  6 50  1  0
  6  4  1  0
  7  8  1  0
  9 11  1  0
  9  8  1  0
 10 21  2  0
 11 16  1  0
 12 20  1  0
 12 22  1  0
 13 19  1  0
 13 15  1  0
 14 20  1  0
 15 14  1  0
 16 15  2  0
 17 11  2  0
 18 17  1  0
 18 13  2  0
 19 12  1  0
 20 10  1  0
 22 24  2  0
 23 22  1  0
 25 23  1  0
 26 35  2  0
 26 31  1  0
 27 23  1  0
 27 31  1  0
 28 27  1  0
 29 30  1  0
 29 28  1  0
 30 26  1  0
 31 32  2  0
 32 33  1  0
 34 33  2  0
 35 34  1  0
 36 10  1  0
 36 41  1  0
 36 37  1  0
 37 40  1  1
 37 38  1  0
 39 37  1  0
 41 44  1  0
 42 46  1  0
 42 41  1  0
 43 42  2  0
 46 45  1  0
 48 46  1  0
 48 49  1  0
 48 47  1  0
 50 52  1  0
 51 52  1  0
 53 61  1  0
 54 59  1  0
 55 56  1  0
 55 54  1  0
 57 56  1  0
 57 66  1  0
 57 58  1  0
 59 53  1  0
 59 58  1  0
 60 53  2  0
 61 62  1  0
 61 52  2  0
 63 64  2  0
 64 83  1  0
 65 64  1  0
 65 68  1  0
 66 63  1  0
 66 67  1  0
 67 65  2  0
 68 69  1  0
 69 70  2  0
 71 74  1  0
 71 70  1  0
 72 71  2  0
 73 72  1  0
 73 68  2  0
 74 75  1  0
 75 76  1  0
 76 77  2  0
 78 77  1  0
 78 82  1  0
 79 78  2  0
 80 75  2  0
 80 79  1  0
 81 80  1  0
 83 84  1  0
 84 87  1  0
 84 86  1  0
 85 83  2  0
 88 89  1  0
 88 63  1  0
 90 88  1  0
M  ISO  4   8 101   9 101  53 100  61 100
M  END
>  <TORSDO>  (84) 
F 20

>  <SCORE>  (84) 
-13.940

>  <name>  (84) 
83

>  <ligand_id>  (84) 
83

>  <original_smiles>  (84) 
[H]c1c([H])c([H])c2c(c1[H])C([H])([H])C([H])([H])C([H])([H])C2([H])N([H])C(=O)C1([H])N(C(=O)C([H])(N([H])C(=O)C([H])(N([H])C([H])([H])[H])C([H])([H])[H])C(C([H])([H])[H])(C([H])([H])[H])C([H])([H])[H])C([H])([H])c2c([H])c(OC([H])([H])C([H])([H])c3c([H])c([H])c([H])c(C([H])([H])C([H])(N([H])C(=O)N4C([H])([H])C([H])([H])C([H])([H])C([H])(n5nc(-c6c([H])c([H])c(Oc7c([H])c([H])c(F)c([H])c7F)c([H])c6[H])c(C(=O)N([H])[H])c5N([H])[H])C4([H])[H])C([H])([H])[H])c3[H])c([H])c([H])c2C1([H])[H]

>  <smiles>  (84) 
[H]c1c([H])c([H])c2c(c1[H])C([H])([H])C([H])([H])C([H])([H])C2([H])N([H])C(=O)C1([H])N(C(=O)C([H])(N([H])C(=O)C([H])(N([H])C([H])([H])[H])C([H])([H])[H])C(C([H])([H])[H])(C([H])([H])[H])C([H])([H])[H])C([H])([H])c2c([H])c(OC([H])([H])C([H])([H])c3c([H])c([H])c([H])c(C([H])([H])C([H])(N([H])C(=O)N4C([H])([H])C([H])([H])C([H])([H])C([H])(n5nc(-c6c([H])c([H])c(Oc7c([H])c([H])c(F)c([H])c7F)c([H])c6[H])c(C(=O)N([H])[H])c5N([H])[H])C4([H])[H])C([H])([H])[H])c3[H])c([H])c([H])c2C1([H])[H]

$$$$
84:0:0
     RDKit          3D

 87 95  0  0  1  0  0  0  0  0999 V2000
  -29.3420  -21.6150   22.0630 C   0  0  0  0  0  1  0  0  0  0  0  0
  -28.6780  -21.5450   20.6820 C   0  0  0  0  0  3  0  0  0  0  0  0
  -30.5760  -15.2070   19.9280 C   0  0  0  0  0  0  0  0  0  0  0  0
  -30.3750  -12.8430   18.9600 C   0  0  0  0  0  2  0  0  0  0  0  0
  -29.3830  -12.7580   17.7810 C   0  0  0  0  0  2  0  0  0  0  0  0
  -27.9590  -12.4960   18.3010 C   0  0  0  0  0  2  0  0  0  0  0  0
  -27.6020  -13.4090   19.5040 C   0  0  0  0  0  3  0  0  0  0  0  0
  -28.7240  -13.4840   20.5660 C   0  0  0  0  0  2  0  0  0  0  0  0
  -29.9250  -13.9580   19.8630 N   0  0  0  0  0  0  0  0  0  0  0  0
  -31.7630  -15.1570   19.5720 O   0  0  0  0  0  0  0  0  0  0  0  0
  -28.3170  -18.6440   20.7960 C   0  0  0  0  0  2  0  0  0  0  0  0
  -30.3750  -19.2760   19.7670 C   0  0  0  0  0  2  0  0  0  0  0  0
  -29.0880  -17.1940   21.0460 C   0  0  0  0  0  2  0  0  0  0  0  0
  -30.4560  -17.7350   19.1950 C   0  0  0  0  0  2  0  0  0  0  0  0
  -28.9620  -19.9370   20.0540 C   0  0  0  0  0  3  0  0  0  0  0  0
  -29.9280  -16.5220   19.9690 N   0  0  0  0  0  0  0  0  0  0  0  0
  -25.2900  -13.9380   20.4420 C   0  0  0  0  0  0  0  0  0  0  0  0
  -24.2560  -13.1440   20.8510 C   0  0  0  0  0  0  0  0  0  0  0  0
  -24.7200  -11.7970   20.7350 C   0  0  0  0  0  0  0  0  0  0  0  0
  -26.3110  -13.0770   20.0890 N   0  0  0  0  0  0  0  0  0  0  0  0
  -25.9860  -11.7790   20.3330 N   0  0  0  0  0  0  0  0  0  0  0  0
  -24.0090  -10.5250   20.9280 C   0  0  0  0  0  0  0  0  0  0  0  0
  -24.4570   -9.5600   21.8560 C   0  0  0  0  0  3  0  0  0  0  0  0
  -23.7410   -8.3560   22.0350 C   0  0  0  0  0  3  0  0  0  0  0  0
  -22.5650   -8.1060   21.2860 C   0  0  0  0  0  0  0  0  0  0  0  0
  -22.1370   -9.0610   20.3470 C   0  0  0  0  0  3  0  0  0  0  0  0
  -22.8530  -10.2560   20.1670 C   0  0  0  0  0  3  0  0  0  0  0  0
  -21.8230   -6.9540   21.3760 O   0  0  0  0  0  0  0  0  0  0  0  0
  -21.7170   -6.2560   22.5530 C   0  0  0  0  0  0  0  0  0  0  0  0
  -21.2050   -6.8500   23.7280 C   0  0  0  0  0  3  0  0  0  0  0  0
  -21.0480   -6.0770   24.8940 C   0  0  0  0  0  3  0  0  0  0  0  0
  -21.3920   -4.7110   24.8880 C   0  0  0  0  0  0  0  0  0  0  0  0
  -21.8980   -4.1170   23.7180 C   0  0  0  0  0  3  0  0  0  0  0  0
  -22.0570   -4.8870   22.5530 C   0  0  0  0  0  0  0  0  0  0  0  0
  -22.5250   -4.3050   21.4220 F   0  0  0  0  0  0  0  0  0  0  0  0
  -21.2320   -3.9690   26.0080 F   0  0  0  0  0  0  0  0  0  0  0  0
  -22.8820  -13.6040   21.2340 C   0  0  0  0  0  0  0  0  0  0  0  0
  -22.2120  -12.8740   22.1170 N   0  0  0  0  0  0  0  0  0  0  0  0
  -22.4140  -14.6480   20.7820 O   0  0  0  0  0  0  0  0  0  0  0  0
  -22.6070  -12.0350   22.5160 H   0  0  0  0  0  0  0  0  0  0  0  0
  -21.2880  -13.1630   22.4080 H   0  0  0  0  0  0  0  0  0  0  0  0
  -25.4400  -15.3170   20.3130 N   0  0  0  0  0  0  0  0  0  0  0  0
  -24.6910  -15.9650   20.5280 H   0  0  0  0  0  0  0  0  0  0  0  0
  -26.2670  -15.7800   19.9620 H   0  0  0  0  0  0  0  0  0  0  0  0
  -28.8500  -23.1370   20.0140 C   0  0  0  0  0  3  0  0  0  0  0  0
  -28.0030  -24.5840   20.4610 C   0  0  0  0  0  3  0  0  0  0  0  0
  -28.2810  -26.1350   20.1990 O   0  0  0  0  0  0  0  0  0  0  0  0
  -24.6670  -31.9220   23.2060 C   0  0  0  0  0  0  0  0  0  0  0  0
  -27.2430  -27.1610   20.1810 C   0  0  0  0  0  0  0  0  0  0  0  0
  -23.4680  -30.5170   21.5760 C   0  0  0  0  0  3  0  0  0  0  0  0
  -24.9190  -28.9420   20.1450 C   0  0  0  0  0  0  0  0  0  0  0  0
  -26.0220  -30.7820   21.4000 C   0  0  0  0  0  2  0  0  0  0  0  0
  -26.1020  -29.3820   20.7540 C   0  0  0  0  0  0  0  0  0  0  0  0
  -27.2640  -28.5080   20.7520 C   0  0  0  0  0  3  0  0  0  0  0  0
  -26.0370  -26.8480   19.5180 C   0  0  0  0  0  3  0  0  0  0  0  0
  -24.9070  -27.6940   19.5080 C   0  0  0  0  0  3  0  0  0  0  0  0
  -23.6880  -29.8370   20.1980 C   0  0  0  0  0  2  0  0  0  0  0  0
  -24.7400  -31.0980   22.1150 N   0  0  0  0  0  0  0  0  0  0  0  0
  -23.5820  -32.1990   23.7380 O   0  0  0  0  0  0  0  0  0  0  0  0
  -22.8020  -29.5110   22.5460 C   0  0  0  0  0  0  0  0  0  0  0  0
  -21.4760  -29.3200   22.4230 N   0  0  0  0  0  0  0  0  0  0  0  0
  -23.4830  -28.9010   23.3740 O   0  0  0  0  0  0  0  0  0  0  0  0
  -20.9830  -29.8680   21.7330 H   0  0  0  0  0  0  0  0  0  0  0  0
  -18.1130  -28.0690   22.9390 C   0  0  0  0  0  0  0  0  0  0  0  0
  -20.6680  -28.3740   23.1980 C   0  0  0  0  0  3  0  0  0  0  0  0
  -20.7880  -26.9410   22.6310 C   0  0  0  0  0  2  0  0  0  0  0  0
  -19.6890  -26.5960   21.6200 C   0  0  0  0  0  2  0  0  0  0  0  0
  -18.3070  -26.7210   22.2660 C   0  0  0  0  0  2  0  0  0  0  0  0
  -19.2200  -28.8520   23.3610 C   0  0  0  0  0  0  0  0  0  0  0  0
  -18.9800  -30.1090   23.9540 C   0  0  0  0  0  3  0  0  0  0  0  0
  -17.6680  -30.5880   24.1240 C   0  0  0  0  0  3  0  0  0  0  0  0
  -16.5760  -29.8040   23.7140 C   0  0  0  0  0  3  0  0  0  0  0  0
  -16.7980  -28.5460   23.1290 C   0  0  0  0  0  3  0  0  0  0  0  0
  -25.9430  -32.5710   23.8260 C   0  0  0  0  0  3  0  0  0  0  0  0
  -25.6160  -33.9680   24.1600 N   0  0  0  0  0  0  0  0  0  0  0  0
  -25.9340  -35.0310   23.4090 C   0  0  0  0  0  0  0  0  0  0  0  0
  -26.5950  -34.9390   22.3710 O   0  0  0  0  0  0  0  0  0  0  0  0
  -25.0320  -34.1140   24.9700 H   0  0  0  0  0  0  0  0  0  0  0  0
  -24.1920  -36.8190   23.0790 C   0  0  0  0  0  1  0  0  0  0  0  0
  -25.4410  -36.4130   23.8790 C   0  0  0  0  0  3  0  0  0  0  0  0
  -27.5720  -37.3160   24.7040 C   0  0  0  0  0  1  0  0  0  0  0  0
  -26.4650  -37.4750   23.7650 N   0  0  0  0  0  0  0  0  0  0  0  0
  -26.0520  -38.3920   23.9130 H   0  0  0  0  0  0  0  0  0  0  0  0
  -26.4670  -31.8100   25.1070 C   0  0  1  0  0  0  0  0  0  0  0  0
  -25.3770  -31.5630   26.1750 C   0  0  0  0  0  1  0  0  0  0  0  0
  -27.0660  -30.4360   24.7250 C   0  0  0  0  0  1  0  0  0  0  0  0
  -27.6070  -32.6200   25.7680 C   0  0  0  0  0  1  0  0  0  0  0  0
  2  1  1  0
  3 16  1  0
  4  9  1  0
  5  6  1  0
  5  4  1  0
  7  6  1  0
  7 20  1  0
  7  8  1  0
  9  3  1  0
  9  8  1  0
 10  3  2  0
 11 13  1  0
 12 15  1  0
 14 12  1  0
 14 16  1  0
 15  2  1  0
 15 11  1  0
 16 13  1  0
 17 18  2  0
 18 37  1  0
 19 18  1  0
 19 22  1  0
 20 21  1  0
 20 17  1  0
 21 19  2  0
 22 23  1  0
 23 24  2  0
 25 28  1  0
 25 24  1  0
 26 25  2  0
 27 26  1  0
 27 22  2  0
 28 29  1  0
 29 34  2  0
 29 30  1  0
 30 31  2  0
 32 31  1  0
 32 36  1  0
 33 32  2  0
 34 33  1  0
 35 34  1  0
 37 38  1  0
 38 41  1  0
 38 40  1  0
 39 37  2  0
 42 17  1  0
 42 43  1  0
 44 42  1  0
 45 46  2  0
 45  2  1  0
 47 46  1  0
 48 59  2  0
 49 47  1  0
 49 54  1  0
 50 58  1  0
 50 60  1  0
 51 57  1  0
 51 53  1  0
 52 58  1  0
 53 52  1  0
 54 53  2  0
 55 49  2  0
 56 55  1  0
 56 51  2  0
 57 50  1  0
 58 48  1  0
 60 62  2  0
 61 60  1  0
 63 61  1  0
 64 73  2  0
 64 69  1  0
 65 61  1  0
 65 69  1  0
 66 65  1  0
 67 68  1  0
 67 66  1  0
 68 64  1  0
 69 70  2  0
 70 71  1  0
 72 71  2  0
 73 72  1  0
 74 48  1  0
 74 75  1  0
 74 84  1  0
 75 78  1  0
 76 80  1  0
 76 75  1  0
 77 76  2  0
 80 79  1  0
 82 80  1  0
 82 83  1  0
 82 81  1  0
 84 87  1  1
 84 85  1  0
 86 84  1  0
M  ISO  4   3 100  16 100  46 101  47 101
M  END
>  <TORSDO>  (85) 
F 18

>  <SCORE>  (85) 
-15.876

>  <name>  (85) 
84

>  <ligand_id>  (85) 
84

>  <original_smiles>  (85) 
[H]c1c([H])c([H])c2c(c1[H])C([H])([H])C([H])([H])C([H])([H])C2([H])N([H])C(=O)C1([H])N(C(=O)C([H])(N([H])C(=O)C([H])(N([H])C([H])([H])[H])C([H])([H])[H])C(C([H])([H])[H])(C([H])([H])[H])C([H])([H])[H])C([H])([H])c2c([H])c(OC([H])([H])C([H])([H])C([H])(C([H])([H])[H])C3([H])C([H])([H])C([H])([H])N(C(=O)N4C([H])([H])C([H])([H])C([H])([H])C([H])(n5nc(-c6c([H])c([H])c(Oc7c([H])c([H])c(F)c([H])c7F)c([H])c6[H])c(C(=O)N([H])[H])c5N([H])[H])C4([H])[H])C([H])([H])C3([H])[H])c([H])c([H])c2C1([H])[H]

>  <smiles>  (85) 
[H]c1c([H])c([H])c2c(c1[H])C([H])([H])C([H])([H])C([H])([H])C2([H])N([H])C(=O)C1([H])N(C(=O)C([H])(N([H])C(=O)C([H])(N([H])C([H])([H])[H])C([H])([H])[H])C(C([H])([H])[H])(C([H])([H])[H])C([H])([H])[H])C([H])([H])c2c([H])c(OC([H])([H])C([H])([H])C([H])(C([H])([H])[H])C3([H])C([H])([H])C([H])([H])N(C(=O)N4C([H])([H])C([H])([H])C([H])([H])C([H])(n5nc(-c6c([H])c([H])c(Oc7c([H])c([H])c(F)c([H])c7F)c([H])c6[H])c(C(=O)N([H])[H])c5N([H])[H])C4([H])[H])C([H])([H])C3([H])[H])c([H])c([H])c2C1([H])[H]

$$$$
85:0:0
     RDKit          3D

 89 97  0  0  1  0  0  0  0  0999 V2000
  -28.2550  -21.9320   19.0650 C   0  0  0  0  0  2  0  0  0  0  0  0
  -28.9780  -20.4840   18.9680 C   0  0  0  0  0  2  0  0  0  0  0  0
  -28.8290  -22.0110   21.3790 C   0  0  0  0  0  2  0  0  0  0  0  0
  -28.7520  -23.0280   20.1180 C   0  0  0  0  0  3  0  0  0  0  0  0
  -29.1360  -19.5750   20.2660 C   0  0  0  0  0  3  0  0  0  0  0  0
  -29.5910  -20.6530   21.2530 N   0  0  0  0  0  4  0  0  0  0  0  0
  -29.5830  -20.2230   22.1630 H   0  0  0  0  0  0  0  0  0  0  0  0
  -30.5530  -20.8720   21.0530 H   0  0  0  0  0  0  0  0  0  0  0  0
  -31.5300  -18.4190   20.2750 C   0  0  0  0  0  1  0  0  0  0  0  0
  -30.0340  -18.1020   20.0870 C   0  0  0  0  0  3  0  0  0  0  0  0
  -29.7020  -16.5180   20.6740 C   0  0  0  0  0  2  0  0  0  0  0  0
  -30.4790  -15.0540   20.3260 C   0  0  0  0  0  0  0  0  0  0  0  0
  -30.3730  -12.6820   19.3850 C   0  0  0  0  0  2  0  0  0  0  0  0
  -29.4440  -12.6390   18.1470 C   0  0  0  0  0  2  0  0  0  0  0  0
  -27.9810  -12.4190   18.5740 C   0  0  0  0  0  2  0  0  0  0  0  0
  -27.5700  -13.3400   19.7520 C   0  0  0  0  0  3  0  0  0  0  0  0
  -28.6230  -13.3620   20.8810 C   0  0  0  0  0  2  0  0  0  0  0  0
  -29.8990  -13.7770   20.2870 N   0  0  0  0  0  0  0  0  0  0  0  0
  -31.6700  -15.0860   19.9950 O   0  0  0  0  0  0  0  0  0  0  0  0
  -25.1850  -13.9140   20.4740 C   0  0  0  0  0  0  0  0  0  0  0  0
  -24.1200  -13.1410   20.8420 C   0  0  0  0  0  0  0  0  0  0  0  0
  -24.5880  -11.7910   20.8270 C   0  0  0  0  0  0  0  0  0  0  0  0
  -26.2320  -13.0380   20.2470 N   0  0  0  0  0  0  0  0  0  0  0  0
  -25.8810  -11.7540   20.5240 N   0  0  0  0  0  0  0  0  0  0  0  0
  -23.8600  -10.5290   21.0200 C   0  0  0  0  0  0  0  0  0  0  0  0
  -24.2880   -9.5660   21.9600 C   0  0  0  0  0  3  0  0  0  0  0  0
  -23.5610   -8.3710   22.1420 C   0  0  0  0  0  3  0  0  0  0  0  0
  -22.3910   -8.1290   21.3840 C   0  0  0  0  0  0  0  0  0  0  0  0
  -21.9820   -9.0800   20.4320 C   0  0  0  0  0  3  0  0  0  0  0  0
  -22.7100  -10.2670   20.2480 C   0  0  0  0  0  3  0  0  0  0  0  0
  -21.6350   -6.9850   21.4740 O   0  0  0  0  0  0  0  0  0  0  0  0
  -21.5810   -6.2470   22.6300 C   0  0  0  0  0  0  0  0  0  0  0  0
  -21.1570   -6.8070   23.8540 C   0  0  0  0  0  3  0  0  0  0  0  0
  -21.0500   -5.9970   25.0010 C   0  0  0  0  0  3  0  0  0  0  0  0
  -21.3590   -4.6260   24.9260 C   0  0  0  0  0  0  0  0  0  0  0  0
  -21.7760   -4.0630   23.7070 C   0  0  0  0  0  3  0  0  0  0  0  0
  -21.8850   -4.8720   22.5610 C   0  0  0  0  0  0  0  0  0  0  0  0
  -22.2660   -4.3200   21.3850 F   0  0  0  0  0  0  0  0  0  0  0  0
  -21.2480   -3.8440   26.0260 F   0  0  0  0  0  0  0  0  0  0  0  0
  -22.7190  -13.6170   21.0970 C   0  0  0  0  0  0  0  0  0  0  0  0
  -21.9840  -12.9290   21.9610 N   0  0  0  0  0  0  0  0  0  0  0  0
  -22.2870  -14.6390   20.5640 O   0  0  0  0  0  0  0  0  0  0  0  0
  -22.3460  -12.1020   22.4130 H   0  0  0  0  0  0  0  0  0  0  0  0
  -21.0450  -13.2310   22.1740 H   0  0  0  0  0  0  0  0  0  0  0  0
  -25.3480  -15.2850   20.2860 N   0  0  0  0  0  0  0  0  0  0  0  0
  -24.5790  -15.9380   20.3840 H   0  0  0  0  0  0  0  0  0  0  0  0
  -26.1950  -15.7200   19.9450 H   0  0  0  0  0  0  0  0  0  0  0  0
  -27.8440  -24.5070   20.1270 C   0  0  0  0  0  2  0  0  0  0  0  0
  -28.1800  -26.0530   20.2590 O   0  0  0  0  0  0  0  0  0  0  0  0
  -24.6010  -31.8720   23.2100 C   0  0  0  0  0  0  0  0  0  0  0  0
  -27.1530  -27.0880   20.1930 C   0  0  0  0  0  0  0  0  0  0  0  0
  -23.4000  -30.4700   21.5830 C   0  0  0  0  0  3  0  0  0  0  0  0
  -24.8420  -28.8870   20.1560 C   0  0  0  0  0  0  0  0  0  0  0  0
  -25.9570  -30.7100   21.4250 C   0  0  0  0  0  2  0  0  0  0  0  0
  -26.0270  -29.3130   20.7720 C   0  0  0  0  0  0  0  0  0  0  0  0
  -27.1800  -28.4280   20.7750 C   0  0  0  0  0  3  0  0  0  0  0  0
  -25.9420  -26.7890   19.5280 C   0  0  0  0  0  3  0  0  0  0  0  0
  -24.8200  -27.6420   19.5140 C   0  0  0  0  0  3  0  0  0  0  0  0
  -23.6210  -29.7920   20.2040 C   0  0  0  0  0  2  0  0  0  0  0  0
  -24.6730  -31.0420   22.1250 N   0  0  0  0  0  0  0  0  0  0  0  0
  -23.5160  -32.1620   23.7380 O   0  0  0  0  0  0  0  0  0  0  0  0
  -22.7200  -29.4680   22.5500 C   0  0  0  0  0  0  0  0  0  0  0  0
  -21.3910  -29.3030   22.4310 N   0  0  0  0  0  0  0  0  0  0  0  0
  -23.3930  -28.8440   23.3760 O   0  0  0  0  0  0  0  0  0  0  0  0
  -20.9030  -29.8560   21.7410 H   0  0  0  0  0  0  0  0  0  0  0  0
  -18.0090  -28.1050   22.9610 C   0  0  0  0  0  0  0  0  0  0  0  0
  -20.5700  -28.3720   23.2130 C   0  0  0  0  0  3  0  0  0  0  0  0
  -20.6700  -26.9350   22.6490 C   0  0  0  0  0  2  0  0  0  0  0  0
  -19.5640  -26.6040   21.6420 C   0  0  0  0  0  2  0  0  0  0  0  0
  -18.1850  -26.7520   22.2910 C   0  0  0  0  0  2  0  0  0  0  0  0
  -19.1290  -28.8720   23.3790 C   0  0  0  0  0  0  0  0  0  0  0  0
  -18.9110  -30.1350   23.9690 C   0  0  0  0  0  3  0  0  0  0  0  0
  -17.6050  -30.6340   24.1410 C   0  0  0  0  0  3  0  0  0  0  0  0
  -16.5010  -29.8650   23.7370 C   0  0  0  0  0  3  0  0  0  0  0  0
  -16.7040  -28.6020   23.1520 C   0  0  0  0  0  3  0  0  0  0  0  0
  -25.8800  -32.5140   23.8300 C   0  0  0  0  0  3  0  0  0  0  0  0
  -26.4040  -31.7460   25.1060 C   0  0  1  0  0  0  0  0  0  0  0  0
  -25.3160  -31.5020   26.1810 C   0  0  0  0  0  1  0  0  0  0  0  0
  -26.9920  -30.3690   24.7230 C   0  0  0  0  0  1  0  0  0  0  0  0
  -27.5570  -32.5440   25.7590 C   0  0  0  0  0  1  0  0  0  0  0  0
  -25.5630  -33.9110   24.1690 N   0  0  0  0  0  0  0  0  0  0  0  0
  -25.8800  -34.9730   23.4180 C   0  0  0  0  0  0  0  0  0  0  0  0
  -26.5360  -34.8810   22.3760 O   0  0  0  0  0  0  0  0  0  0  0  0
  -24.9780  -34.0520   24.9800 H   0  0  0  0  0  0  0  0  0  0  0  0
  -24.1400  -36.7660   23.1020 C   0  0  0  0  0  1  0  0  0  0  0  0
  -25.3950  -36.3570   23.8920 C   0  0  0  0  0  3  0  0  0  0  0  0
  -27.5380  -37.2440   24.6990 C   0  0  0  0  0  1  0  0  0  0  0  0
  -26.4230  -37.4150   23.7730 N   0  0  0  0  0  0  0  0  0  0  0  0
  -26.0160  -38.3320   23.9350 H   0  0  0  0  0  0  0  0  0  0  0  0
  1  4  1  0
  2  1  1  0
  2  5  1  0
  4 48  1  0
  4  3  1  0
  5 10  1  0
  5  6  1  0
  6  3  1  0
  6  7  1  0
  8  6  1  0
 10  9  1  0
 10 11  1  0
 12 11  1  0
 13 18  1  0
 14 15  1  0
 14 13  1  0
 16 15  1  0
 16 23  1  0
 16 17  1  0
 18 12  1  0
 18 17  1  0
 19 12  2  0
 20 21  2  0
 21 40  1  0
 22 21  1  0
 22 25  1  0
 23 20  1  0
 23 24  1  0
 24 22  2  0
 25 26  1  0
 26 27  2  0
 28 31  1  0
 28 27  1  0
 29 28  2  0
 30 29  1  0
 30 25  2  0
 31 32  1  0
 32 33  1  0
 33 34  2  0
 35 34  1  0
 35 39  1  0
 36 35  2  0
 37 32  2  0
 37 36  1  0
 38 37  1  0
 40 41  1  0
 41 44  1  0
 41 43  1  0
 42 40  2  0
 45 46  1  0
 45 20  1  0
 47 45  1  0
 48 49  1  0
 50 61  2  0
 51 49  1  0
 51 56  1  0
 52 60  1  0
 52 62  1  0
 53 59  1  0
 53 55  1  0
 54 60  1  0
 55 56  2  0
 55 54  1  0
 57 51  2  0
 58 57  1  0
 58 53  2  0
 59 52  1  0
 60 50  1  0
 62 64  2  0
 63 62  1  0
 65 63  1  0
 66 75  2  0
 66 71  1  0
 67 63  1  0
 67 71  1  0
 68 67  1  0
 69 70  1  0
 69 68  1  0
 70 66  1  0
 71 72  2  0
 72 73  1  0
 74 73  2  0
 75 74  1  0
 76 50  1  0
 76 81  1  0
 76 77  1  0
 77 80  1  1
 77 78  1  0
 79 77  1  0
 81 84  1  0
 82 86  1  0
 82 81  1  0
 83 82  2  0
 86 85  1  0
 88 86  1  0
 88 89  1  0
 88 87  1  0
M  ISO  4  11 100  12 100  48 101  49 101
M  END
>  <TORSDO>  (86) 
F 19

>  <SCORE>  (86) 
-16.108

>  <name>  (86) 
85

>  <ligand_id>  (86) 
85

>  <original_smiles>  (86) 
[H]c1c([H])c([H])c2c(c1[H])C([H])([H])C([H])([H])C([H])([H])C2([H])N([H])C(=O)C1([H])N(C(=O)C([H])(N([H])C(=O)C([H])(N([H])C([H])([H])[H])C([H])([H])[H])C(C([H])([H])[H])(C([H])([H])[H])C([H])([H])[H])C([H])([H])c2c([H])c(OC([H])([H])C3([H])C([H])([H])C([H])([H])C([H])(C([H])(C([H])([H])[H])C([H])([H])C(=O)N4C([H])([H])C([H])([H])C([H])([H])C([H])(n5nc(-c6c([H])c([H])c(Oc7c([H])c([H])c(F)c([H])c7F)c([H])c6[H])c(C(=O)N([H])[H])c5N([H])[H])C4([H])[H])[N+]([H])([H])C3([H])[H])c([H])c([H])c2C1([H])[H]

>  <smiles>  (86) 
[H]c1c([H])c([H])c2c(c1[H])C([H])([H])C([H])([H])C([H])([H])C2([H])N([H])C(=O)C1([H])N(C(=O)C([H])(N([H])C(=O)C([H])(N([H])C([H])([H])[H])C([H])([H])[H])C(C([H])([H])[H])(C([H])([H])[H])C([H])([H])[H])C([H])([H])c2c([H])c(OC([H])([H])C3([H])C([H])([H])C([H])([H])C([H])(C([H])(C([H])([H])[H])C([H])([H])C(=O)N4C([H])([H])C([H])([H])C([H])([H])C([H])(n5nc(-c6c([H])c([H])c(Oc7c([H])c([H])c(F)c([H])c7F)c([H])c6[H])c(C(=O)N([H])[H])c5N([H])[H])C4([H])[H])[N+]([H])([H])C3([H])[H])c([H])c([H])c2C1([H])[H]

$$$$
86:0:0
     RDKit          3D

 86 94  0  0  1  0  0  0  0  0999 V2000
  -29.4710  -19.7420   18.0300 C   0  0  0  0  0  3  0  0  0  0  0  0
  -29.6580  -18.5150   18.7260 C   0  0  0  0  0  3  0  0  0  0  0  0
  -29.1830  -20.9930   18.6450 C   0  0  0  0  0  3  0  0  0  0  0  0
  -29.2630  -19.7940   20.7360 C   0  0  0  0  0  3  0  0  0  0  0  0
  -29.5700  -18.4080   20.1300 C   0  0  0  0  0  0  0  0  0  0  0  0
  -29.0570  -21.1560   20.0420 C   0  0  0  0  0  0  0  0  0  0  0  0
  -29.6770  -16.8060   20.8130 C   0  0  0  0  0  2  0  0  0  0  0  0
  -30.4580  -15.2910   20.3830 C   0  0  0  0  0  0  0  0  0  0  0  0
  -30.4700  -12.8400   19.5070 C   0  0  0  0  0  2  0  0  0  0  0  0
  -29.5750  -12.6680   18.2520 C   0  0  0  0  0  2  0  0  0  0  0  0
  -28.1130  -12.4040   18.6530 C   0  0  0  0  0  2  0  0  0  0  0  0
  -27.6460  -13.3580   19.7810 C   0  0  0  0  0  3  0  0  0  0  0  0
  -28.6690  -13.4760   20.9310 C   0  0  0  0  0  2  0  0  0  0  0  0
  -29.9260  -13.9700   20.3490 N   0  0  0  0  0  0  0  0  0  0  0  0
  -31.6550  -15.3110   20.0540 O   0  0  0  0  0  0  0  0  0  0  0  0
  -25.2530  -13.9140   20.4710 C   0  0  0  0  0  0  0  0  0  0  0  0
  -24.1870  -13.1370   20.8240 C   0  0  0  0  0  0  0  0  0  0  0  0
  -24.6590  -11.7890   20.8180 C   0  0  0  0  0  0  0  0  0  0  0  0
  -26.3060  -13.0420   20.2600 N   0  0  0  0  0  0  0  0  0  0  0  0
  -25.9580  -11.7570   20.5360 N   0  0  0  0  0  0  0  0  0  0  0  0
  -23.9320  -10.5250   21.0060 C   0  0  0  0  0  0  0  0  0  0  0  0
  -24.3410   -9.5700   21.9630 C   0  0  0  0  0  3  0  0  0  0  0  0
  -23.6110   -8.3750   22.1380 C   0  0  0  0  0  3  0  0  0  0  0  0
  -22.4590   -8.1250   21.3560 C   0  0  0  0  0  0  0  0  0  0  0  0
  -22.0690   -9.0680   20.3890 C   0  0  0  0  0  3  0  0  0  0  0  0
  -22.8000  -10.2540   20.2120 C   0  0  0  0  0  3  0  0  0  0  0  0
  -21.7030   -6.9790   21.4390 O   0  0  0  0  0  0  0  0  0  0  0  0
  -21.6190   -6.2550   22.6010 C   0  0  0  0  0  0  0  0  0  0  0  0
  -21.1460   -6.8270   23.8020 C   0  0  0  0  0  3  0  0  0  0  0  0
  -21.0100   -6.0290   24.9560 C   0  0  0  0  0  3  0  0  0  0  0  0
  -21.3350   -4.6610   24.9090 C   0  0  0  0  0  0  0  0  0  0  0  0
  -21.8010   -4.0880   23.7120 C   0  0  0  0  0  3  0  0  0  0  0  0
  -21.9390   -4.8840   22.5610 C   0  0  0  0  0  0  0  0  0  0  0  0
  -22.3680   -4.3220   21.4050 F   0  0  0  0  0  0  0  0  0  0  0  0
  -21.1980   -3.8920   26.0150 F   0  0  0  0  0  0  0  0  0  0  0  0
  -22.7810  -13.6110   21.0540 C   0  0  0  0  0  0  0  0  0  0  0  0
  -22.0330  -12.9200   21.9050 N   0  0  0  0  0  0  0  0  0  0  0  0
  -22.3560  -14.6320   20.5140 O   0  0  0  0  0  0  0  0  0  0  0  0
  -22.3910  -12.0950   22.3640 H   0  0  0  0  0  0  0  0  0  0  0  0
  -21.0890  -13.2200   22.1020 H   0  0  0  0  0  0  0  0  0  0  0  0
  -25.4150  -15.2850   20.2840 N   0  0  0  0  0  0  0  0  0  0  0  0
  -24.6420  -15.9350   20.3740 H   0  0  0  0  0  0  0  0  0  0  0  0
  -26.2680  -15.7260   19.9640 H   0  0  0  0  0  0  0  0  0  0  0  0
  -28.8410  -22.7890   20.6230 C   0  0  0  0  0  3  0  0  0  0  0  0
  -28.1270  -24.2950   19.9430 C   0  0  0  0  0  3  0  0  0  0  0  0
  -28.2310  -25.9010   20.3030 O   0  0  0  0  0  0  0  0  0  0  0  0
  -24.6240  -31.8440   23.1870 C   0  0  0  0  0  0  0  0  0  0  0  0
  -27.2100  -26.9810   20.1890 C   0  0  0  0  0  0  0  0  0  0  0  0
  -23.4400  -30.4420   21.5440 C   0  0  0  0  0  3  0  0  0  0  0  0
  -24.9010  -28.8420   20.1280 C   0  0  0  0  0  0  0  0  0  0  0  0
  -26.0060  -30.6640   21.4100 C   0  0  0  0  0  2  0  0  0  0  0  0
  -26.0820  -29.2550   20.7560 C   0  0  0  0  0  0  0  0  0  0  0  0
  -27.2290  -28.3430   20.7660 C   0  0  0  0  0  3  0  0  0  0  0  0
  -26.0030  -26.7190   19.5030 C   0  0  0  0  0  3  0  0  0  0  0  0
  -24.8860  -27.5950   19.4810 C   0  0  0  0  0  3  0  0  0  0  0  0
  -23.6770  -29.7570   20.1700 C   0  0  0  0  0  2  0  0  0  0  0  0
  -24.7110  -31.0110   22.1010 N   0  0  0  0  0  0  0  0  0  0  0  0
  -23.5310  -32.1320   23.7030 O   0  0  0  0  0  0  0  0  0  0  0  0
  -22.7460  -29.4460   22.5090 C   0  0  0  0  0  0  0  0  0  0  0  0
  -21.4160  -29.2810   22.3820 N   0  0  0  0  0  0  0  0  0  0  0  0
  -23.4090  -28.8220   23.3410 O   0  0  0  0  0  0  0  0  0  0  0  0
  -20.9330  -29.8340   21.6870 H   0  0  0  0  0  0  0  0  0  0  0  0
  -18.0330  -28.0700   22.8820 C   0  0  0  0  0  0  0  0  0  0  0  0
  -20.5910  -28.3430   23.1510 C   0  0  0  0  0  3  0  0  0  0  0  0
  -20.6990  -26.9100   22.5800 C   0  0  0  0  0  2  0  0  0  0  0  0
  -19.6000  -26.5830   21.5620 C   0  0  0  0  0  2  0  0  0  0  0  0
  -18.2160  -26.7220   22.2030 C   0  0  0  0  0  2  0  0  0  0  0  0
  -19.1480  -28.8370   23.3120 C   0  0  0  0  0  0  0  0  0  0  0  0
  -18.9200  -30.0960   23.9090 C   0  0  0  0  0  3  0  0  0  0  0  0
  -17.6120  -30.5880   24.0780 C   0  0  0  0  0  3  0  0  0  0  0  0
  -16.5130  -29.8180   23.6610 C   0  0  0  0  0  3  0  0  0  0  0  0
  -16.7240  -28.5610   23.0690 C   0  0  0  0  0  3  0  0  0  0  0  0
  -25.8910  -32.4910   23.8240 C   0  0  0  0  0  3  0  0  0  0  0  0
  -26.3890  -31.7340   25.1180 C   0  0  1  0  0  0  0  0  0  0  0  0
  -25.2820  -31.5100   26.1750 C   0  0  0  0  0  1  0  0  0  0  0  0
  -26.9760  -30.3500   24.7570 C   0  0  0  0  0  1  0  0  0  0  0  0
  -27.5320  -32.5340   25.7860 C   0  0  0  0  0  1  0  0  0  0  0  0
  -25.5690  -33.8920   24.1510 N   0  0  0  0  0  0  0  0  0  0  0  0
  -25.9100  -34.9520   23.4060 C   0  0  0  0  0  0  0  0  0  0  0  0
  -26.5900  -34.8550   22.3820 O   0  0  0  0  0  0  0  0  0  0  0  0
  -24.9640  -34.0410   24.9450 H   0  0  0  0  0  0  0  0  0  0  0  0
  -24.1910  -36.7590   23.0470 C   0  0  0  0  0  1  0  0  0  0  0  0
  -25.4210  -36.3410   23.8690 C   0  0  0  0  0  3  0  0  0  0  0  0
  -27.5460  -37.2190   24.7340 C   0  0  0  0  0  1  0  0  0  0  0  0
  -26.4580  -37.3920   23.7750 N   0  0  0  0  0  0  0  0  0  0  0  0
  -26.0520  -38.3130   23.9190 H   0  0  0  0  0  0  0  0  0  0  0  0
  1  3  2  0
  1  2  1  0
  2  5  2  0
  3  6  1  0
  5  4  1  0
  5  7  1  0
  6 44  1  0
  6  4  2  0
  8  7  1  0
  9 14  1  0
 10 11  1  0
 10  9  1  0
 12 11  1  0
 12 19  1  0
 12 13  1  0
 14  8  1  0
 14 13  1  0
 15  8  2  0
 16 17  2  0
 17 36  1  0
 18 17  1  0
 18 21  1  0
 19 16  1  0
 19 20  1  0
 20 18  2  0
 21 22  1  0
 22 23  2  0
 24 27  1  0
 24 23  1  0
 25 24  2  0
 26 25  1  0
 26 21  2  0
 27 28  1  0
 28 29  1  0
 29 30  2  0
 31 30  1  0
 31 35  1  0
 32 31  2  0
 33 28  2  0
 33 32  1  0
 34 33  1  0
 36 37  1  0
 37 40  1  0
 37 39  1  0
 38 36  2  0
 41 42  1  0
 41 16  1  0
 43 41  1  0
 45 46  1  0
 45 44  2  0
 47 58  2  0
 48 46  1  0
 48 53  1  0
 49 57  1  0
 49 59  1  0
 50 56  1  0
 50 52  1  0
 51 57  1  0
 52 53  2  0
 52 51  1  0
 54 48  2  0
 55 54  1  0
 55 50  2  0
 56 49  1  0
 57 47  1  0
 59 61  2  0
 60 59  1  0
 62 60  1  0
 63 72  2  0
 63 68  1  0
 64 60  1  0
 64 68  1  0
 65 64  1  0
 66 67  1  0
 66 65  1  0
 67 63  1  0
 68 69  2  0
 69 70  1  0
 71 70  2  0
 72 71  1  0
 73 47  1  0
 73 78  1  0
 73 74  1  0
 74 77  1  1
 74 75  1  0
 76 74  1  0
 78 81  1  0
 79 83  1  0
 79 78  1  0
 80 79  2  0
 83 82  1  0
 85 83  1  0
 85 86  1  0
 85 84  1  0
M  ISO  4   7 100   8 100  45 101  46 101
M  END
>  <TORSDO>  (87) 
F 19

>  <SCORE>  (87) 
-16.052

>  <name>  (87) 
86

>  <ligand_id>  (87) 
86

>  <original_smiles>  (87) 
[H]c1c([H])c(C([H])([H])C(=O)N2C([H])([H])C([H])([H])C([H])([H])C([H])(n3nc(-c4c([H])c([H])c(Oc5c([H])c([H])c(F)c([H])c5F)c([H])c4[H])c(C(=O)N([H])[H])c3N([H])[H])C2([H])[H])c([H])c(C([H])([H])C([H])([H])Oc2c([H])c([H])c3c(c2[H])C([H])([H])N(C(=O)C([H])(N([H])C(=O)C([H])(N([H])C([H])([H])[H])C([H])([H])[H])C(C([H])([H])[H])(C([H])([H])[H])C([H])([H])[H])C([H])(C(=O)N([H])C2([H])c4c([H])c([H])c([H])c([H])c4C([H])([H])C([H])([H])C2([H])[H])C3([H])[H])c1[H]

>  <smiles>  (87) 
[H]c1c([H])c(C([H])([H])C(=O)N2C([H])([H])C([H])([H])C([H])([H])C([H])(n3nc(-c4c([H])c([H])c(Oc5c([H])c([H])c(F)c([H])c5F)c([H])c4[H])c(C(=O)N([H])[H])c3N([H])[H])C2([H])[H])c([H])c(C([H])([H])C([H])([H])Oc2c([H])c([H])c3c(c2[H])C([H])([H])N(C(=O)C([H])(N([H])C(=O)C([H])(N([H])C([H])([H])[H])C([H])([H])[H])C(C([H])([H])[H])(C([H])([H])[H])C([H])([H])[H])C([H])(C(=O)N([H])C2([H])c4c([H])c([H])c([H])c([H])c4C([H])([H])C([H])([H])C2([H])[H])C3([H])[H])c1[H]

$$$$
87:0:0
     RDKit          3D

 87 95  0  0  1  0  0  0  0  0999 V2000
  -28.0830  -21.1870   20.6930 C   0  0  0  0  0  2  0  0  0  0  0  0
  -29.8990  -21.7330   20.1560 C   0  0  0  0  0  2  0  0  0  0  0  0
  -28.5530  -22.6650   20.0900 C   0  0  0  0  0  3  0  0  0  0  0  0
  -29.2360  -20.2180   20.0390 C   0  0  0  0  0  3  0  0  0  0  0  0
  -28.1000  -24.3220   20.6830 C   0  0  0  0  0  2  0  0  0  0  0  0
  -28.2730  -25.9200   20.3060 O   0  0  0  0  0  0  0  0  0  0  0  0
  -24.6320  -31.8940   23.2350 C   0  0  0  0  0  0  0  0  0  0  0  0
  -27.2400  -26.9950   20.3060 C   0  0  0  0  0  0  0  0  0  0  0  0
  -23.4620  -30.4790   21.5960 C   0  0  0  0  0  3  0  0  0  0  0  0
  -24.9320  -28.8610   20.2140 C   0  0  0  0  0  0  0  0  0  0  0  0
  -26.0290  -30.6990   21.4760 C   0  0  0  0  0  2  0  0  0  0  0  0
  -26.1130  -29.2810   20.8380 C   0  0  0  0  0  0  0  0  0  0  0  0
  -27.2650  -28.3720   20.8520 C   0  0  0  0  0  3  0  0  0  0  0  0
  -26.0230  -26.7200   19.6450 C   0  0  0  0  0  3  0  0  0  0  0  0
  -24.9090  -27.5990   19.5990 C   0  0  0  0  0  3  0  0  0  0  0  0
  -23.7110  -29.7800   20.2320 C   0  0  0  0  0  2  0  0  0  0  0  0
  -24.7290  -31.0520   22.1560 N   0  0  0  0  0  0  0  0  0  0  0  0
  -23.5360  -32.1850   23.7400 O   0  0  0  0  0  0  0  0  0  0  0  0
  -22.7600  -29.4900   22.5630 C   0  0  0  0  0  0  0  0  0  0  0  0
  -21.4300  -29.3310   22.4320 N   0  0  0  0  0  0  0  0  0  0  0  0
  -23.4180  -28.8670   23.3980 O   0  0  0  0  0  0  0  0  0  0  0  0
  -20.9510  -29.8840   21.7350 H   0  0  0  0  0  0  0  0  0  0  0  0
  -18.0370  -28.1470   22.9420 C   0  0  0  0  0  0  0  0  0  0  0  0
  -20.5990  -28.4000   23.2040 C   0  0  0  0  0  3  0  0  0  0  0  0
  -20.6910  -26.9660   22.6310 C   0  0  0  0  0  2  0  0  0  0  0  0
  -19.5870  -26.6490   21.6170 C   0  0  0  0  0  2  0  0  0  0  0  0
  -18.2060  -26.8000   22.2620 C   0  0  0  0  0  2  0  0  0  0  0  0
  -19.1600  -28.9050   23.3700 C   0  0  0  0  0  0  0  0  0  0  0  0
  -18.9450  -30.1650   23.9690 C   0  0  0  0  0  3  0  0  0  0  0  0
  -17.6420  -30.6680   24.1430 C   0  0  0  0  0  3  0  0  0  0  0  0
  -16.5350  -29.9090   23.7290 C   0  0  0  0  0  3  0  0  0  0  0  0
  -16.7320  -28.6500   23.1360 C   0  0  0  0  0  3  0  0  0  0  0  0
  -25.8940  -32.5480   23.8770 C   0  0  0  0  0  3  0  0  0  0  0  0
  -25.5690  -33.9520   24.1860 N   0  0  0  0  0  0  0  0  0  0  0  0
  -25.9120  -35.0040   23.4290 C   0  0  0  0  0  0  0  0  0  0  0  0
  -26.5950  -34.8950   22.4090 O   0  0  0  0  0  0  0  0  0  0  0  0
  -24.9640  -34.1080   24.9790 H   0  0  0  0  0  0  0  0  0  0  0  0
  -24.1920  -36.8030   23.0480 C   0  0  0  0  0  1  0  0  0  0  0  0
  -25.4220  -36.3970   23.8760 C   0  0  0  0  0  3  0  0  0  0  0  0
  -27.5440  -37.2890   24.7320 C   0  0  0  0  0  1  0  0  0  0  0  0
  -26.4580  -37.4490   23.7700 N   0  0  0  0  0  0  0  0  0  0  0  0
  -26.0500  -38.3710   23.9030 H   0  0  0  0  0  0  0  0  0  0  0  0
  -26.3790  -31.8040   25.1830 C   0  0  1  0  0  0  0  0  0  0  0  0
  -25.2600  -31.5900   26.2300 C   0  0  0  0  0  1  0  0  0  0  0  0
  -26.9700  -30.4180   24.8410 C   0  0  0  0  0  1  0  0  0  0  0  0
  -27.5150  -32.6110   25.8540 C   0  0  0  0  0  1  0  0  0  0  0  0
  -30.0170  -18.6140   20.4220 C   0  0  0  0  0  3  0  0  0  0  0  0
  -29.5370  -16.8770   20.2420 C   0  0  0  0  0  2  0  0  0  0  0  0
  -30.4000  -15.3310   20.2030 C   0  0  0  0  0  0  0  0  0  0  0  0
  -30.4020  -12.8800   19.3340 C   0  0  0  0  0  2  0  0  0  0  0  0
  -29.4690  -12.7040   18.1070 C   0  0  0  0  0  2  0  0  0  0  0  0
  -28.0200  -12.4330   18.5520 C   0  0  0  0  0  2  0  0  0  0  0  0
  -27.5800  -13.3760   19.6980 C   0  0  0  0  0  3  0  0  0  0  0  0
  -28.6390  -13.5030   20.8100 C   0  0  0  0  0  2  0  0  0  0  0  0
  -29.8740  -14.0060   20.1860 N   0  0  0  0  0  0  0  0  0  0  0  0
  -31.6230  -15.3250   19.9880 O   0  0  0  0  0  0  0  0  0  0  0  0
  -25.2140  -13.9110   20.4830 C   0  0  0  0  0  0  0  0  0  0  0  0
  -24.1620  -13.1230   20.8590 C   0  0  0  0  0  0  0  0  0  0  0  0
  -24.6390  -11.7770   20.8190 C   0  0  0  0  0  0  0  0  0  0  0  0
  -26.2610  -13.0450   20.2220 N   0  0  0  0  0  0  0  0  0  0  0  0
  -25.9280  -11.7550   20.4950 N   0  0  0  0  0  0  0  0  0  0  0  0
  -23.9220  -10.5080   21.0120 C   0  0  0  0  0  0  0  0  0  0  0  0
  -24.3580   -9.5450   21.9490 C   0  0  0  0  0  3  0  0  0  0  0  0
  -23.6370   -8.3440   22.1290 C   0  0  0  0  0  3  0  0  0  0  0  0
  -22.4670   -8.0980   21.3720 C   0  0  0  0  0  0  0  0  0  0  0  0
  -22.0510   -9.0490   20.4240 C   0  0  0  0  0  3  0  0  0  0  0  0
  -22.7720  -10.2400   20.2420 C   0  0  0  0  0  3  0  0  0  0  0  0
  -21.7190   -6.9490   21.4610 O   0  0  0  0  0  0  0  0  0  0  0  0
  -21.6580   -6.2160   22.6210 C   0  0  0  0  0  0  0  0  0  0  0  0
  -21.1950   -6.7760   23.8310 C   0  0  0  0  0  3  0  0  0  0  0  0
  -21.0820   -5.9710   24.9820 C   0  0  0  0  0  3  0  0  0  0  0  0
  -21.4250   -4.6070   24.9230 C   0  0  0  0  0  0  0  0  0  0  0  0
  -21.8810   -4.0460   23.7170 C   0  0  0  0  0  3  0  0  0  0  0  0
  -21.9940   -4.8490   22.5690 C   0  0  0  0  0  0  0  0  0  0  0  0
  -22.4160   -4.2990   21.4050 F   0  0  0  0  0  0  0  0  0  0  0  0
  -21.3100   -3.8300   26.0260 F   0  0  0  0  0  0  0  0  0  0  0  0
  -22.7640  -13.5880   21.1400 C   0  0  0  0  0  0  0  0  0  0  0  0
  -22.0450  -12.8820   22.0060 N   0  0  0  0  0  0  0  0  0  0  0  0
  -22.3170  -14.6140   20.6280 O   0  0  0  0  0  0  0  0  0  0  0  0
  -22.4190  -12.0530   22.4420 H   0  0  0  0  0  0  0  0  0  0  0  0
  -21.1070  -13.1770   22.2370 H   0  0  0  0  0  0  0  0  0  0  0  0
  -25.3650  -15.2840   20.3120 N   0  0  0  0  0  0  0  0  0  0  0  0
  -24.5980  -15.9340   20.4450 H   0  0  0  0  0  0  0  0  0  0  0  0
  -26.2100  -15.7330   19.9840 H   0  0  0  0  0  0  0  0  0  0  0  0
  -31.4020  -18.7120   19.7350 C   0  0  0  0  0  2  0  0  0  0  0  0
  -33.8620  -19.3760   19.8840 C   0  0  0  0  0  1  0  0  0  0  0  0
  -32.5150  -19.3050   20.6150 C   0  0  0  0  0  2  0  0  0  0  0  0
  3  2  1  0
  3  5  1  0
  3  1  1  0
  4  2  1  0
  4 47  1  0
  4  1  1  0
  6  5  1  0
  7 18  2  0
  8  6  1  0
  8 13  1  0
  9 17  1  0
  9 19  1  0
 10 16  1  0
 10 12  1  0
 11 17  1  0
 12 13  2  0
 12 11  1  0
 14  8  2  0
 15 14  1  0
 15 10  2  0
 16  9  1  0
 17  7  1  0
 19 21  2  0
 20 19  1  0
 22 20  1  0
 23 32  2  0
 23 28  1  0
 24 20  1  0
 24 28  1  0
 25 24  1  0
 26 27  1  0
 26 25  1  0
 27 23  1  0
 28 29  2  0
 29 30  1  0
 31 30  2  0
 32 31  1  0
 33  7  1  0
 33 34  1  0
 33 43  1  0
 34 37  1  0
 35 39  1  0
 35 34  1  0
 36 35  2  0
 39 38  1  0
 41 39  1  0
 41 42  1  0
 41 40  1  0
 43 46  1  1
 43 44  1  0
 45 43  1  0
 47 85  1  0
 48 47  1  0
 49 48  1  0
 50 55  1  0
 51 52  1  0
 51 50  1  0
 53 52  1  0
 53 60  1  0
 53 54  1  0
 55 49  1  0
 55 54  1  0
 56 49  2  0
 57 58  2  0
 58 77  1  0
 59 58  1  0
 59 62  1  0
 60 57  1  0
 60 61  1  0
 61 59  2  0
 62 63  1  0
 63 64  2  0
 65 68  1  0
 65 64  1  0
 66 65  2  0
 67 66  1  0
 67 62  2  0
 68 69  1  0
 69 70  1  0
 70 71  2  0
 72 71  1  0
 72 76  1  0
 73 72  2  0
 74 69  2  0
 74 73  1  0
 75 74  1  0
 77 78  1  0
 78 81  1  0
 78 80  1  0
 79 77  2  0
 82 83  1  0
 82 57  1  0
 84 82  1  0
 85 87  1  0
 86 87  1  0
M  ISO  4   5 101   6 101  48 100  49 100
M  END
>  <TORSDO>  (88) 
F 21

>  <SCORE>  (88) 
-15.965

>  <name>  (88) 
87

>  <ligand_id>  (88) 
87

>  <original_smiles>  (88) 
[H]c1c([H])c([H])c2c(c1[H])C([H])([H])C([H])([H])C([H])([H])C2([H])N([H])C(=O)C1([H])N(C(=O)C([H])(N([H])C(=O)C([H])(N([H])C([H])([H])[H])C([H])([H])[H])C(C([H])([H])[H])(C([H])([H])[H])C([H])([H])[H])C([H])([H])c2c([H])c(OC([H])([H])C3([H])C([H])([H])C([H])(C([H])(C([H])([H])C(=O)N4C([H])([H])C([H])([H])C([H])([H])C([H])(n5nc(-c6c([H])c([H])c(Oc7c([H])c([H])c(F)c([H])c7F)c([H])c6[H])c(C(=O)N([H])[H])c5N([H])[H])C4([H])[H])C([H])([H])C([H])([H])C([H])([H])[H])C3([H])[H])c([H])c([H])c2C1([H])[H]

>  <smiles>  (88) 
[H]c1c([H])c([H])c2c(c1[H])C([H])([H])C([H])([H])C([H])([H])C2([H])N([H])C(=O)C1([H])N(C(=O)C([H])(N([H])C(=O)C([H])(N([H])C([H])([H])[H])C([H])([H])[H])C(C([H])([H])[H])(C([H])([H])[H])C([H])([H])[H])C([H])([H])c2c([H])c(OC([H])([H])C3([H])C([H])([H])C([H])(C([H])(C([H])([H])C(=O)N4C([H])([H])C([H])([H])C([H])([H])C([H])(n5nc(-c6c([H])c([H])c(Oc7c([H])c([H])c(F)c([H])c7F)c([H])c6[H])c(C(=O)N([H])[H])c5N([H])[H])C4([H])[H])C([H])([H])C([H])([H])C([H])([H])[H])C3([H])[H])c([H])c([H])c2C1([H])[H]

$$$$
88:0:0
     RDKit          3D

 86 95  0  0  1  0  0  0  0  0999 V2000
  -28.6950  -22.6380   19.8080 C   0  0  0  0  0  0  0  0  0  0  0  0
  -28.7560  -22.7910   18.5850 O   0  0  0  0  0  0  0  0  0  0  0  0
  -28.4350  -19.5410   20.6820 C   0  0  0  0  0  3  0  0  0  0  0  0
  -29.9620  -19.7740   19.4650 C   0  0  0  0  0  3  0  0  0  0  0  0
  -29.2310  -20.9790   20.3840 C   0  0  0  0  0  3  0  0  0  0  0  0
  -29.7010  -18.4650   20.4510 C   0  0  0  0  0  3  0  0  0  0  0  0
  -30.3550  -15.4840   20.0300 C   0  0  0  0  0  0  0  0  0  0  0  0
  -30.3600  -13.0160   19.1250 C   0  0  0  0  0  2  0  0  0  0  0  0
  -29.4030  -12.7420   17.9360 C   0  0  0  0  0  2  0  0  0  0  0  0
  -27.9830  -12.4280   18.4380 C   0  0  0  0  0  2  0  0  0  0  0  0
  -27.5470  -13.3850   19.5720 C   0  0  0  0  0  3  0  0  0  0  0  0
  -28.6350  -13.5880   20.6470 C   0  0  0  0  0  2  0  0  0  0  0  0
  -29.8050  -14.1580   19.9530 N   0  0  0  0  0  0  0  0  0  0  0  0
  -31.5840  -15.4640   19.8470 O   0  0  0  0  0  0  0  0  0  0  0  0
  -29.5740  -16.7820   20.1150 N   0  0  0  0  0  0  0  0  0  0  0  0
  -28.5960  -16.5340   20.0780 H   0  0  0  0  0  0  0  0  0  0  0  0
  -25.2140  -13.9100   20.4430 C   0  0  0  0  0  0  0  0  0  0  0  0
  -24.1730  -13.1200   20.8410 C   0  0  0  0  0  0  0  0  0  0  0  0
  -24.6470  -11.7740   20.7720 C   0  0  0  0  0  0  0  0  0  0  0  0
  -26.2500  -13.0460   20.1390 N   0  0  0  0  0  0  0  0  0  0  0  0
  -25.9260  -11.7540   20.4060 N   0  0  0  0  0  0  0  0  0  0  0  0
  -23.9340  -10.5050   20.9730 C   0  0  0  0  0  0  0  0  0  0  0  0
  -24.3820   -9.5450   21.9070 C   0  0  0  0  0  3  0  0  0  0  0  0
  -23.6660   -8.3440   22.0980 C   0  0  0  0  0  3  0  0  0  0  0  0
  -22.4880   -8.0930   21.3550 C   0  0  0  0  0  0  0  0  0  0  0  0
  -22.0590   -9.0420   20.4110 C   0  0  0  0  0  3  0  0  0  0  0  0
  -22.7750  -10.2350   20.2180 C   0  0  0  0  0  3  0  0  0  0  0  0
  -21.7430   -6.9430   21.4540 O   0  0  0  0  0  0  0  0  0  0  0  0
  -21.6860   -6.2210   22.6190 C   0  0  0  0  0  0  0  0  0  0  0  0
  -21.2090   -6.7850   23.8210 C   0  0  0  0  0  3  0  0  0  0  0  0
  -21.1010   -5.9880   24.9790 C   0  0  0  0  0  3  0  0  0  0  0  0
  -21.4590   -4.6270   24.9330 C   0  0  0  0  0  0  0  0  0  0  0  0
  -21.9280   -4.0630   23.7350 C   0  0  0  0  0  3  0  0  0  0  0  0
  -22.0390   -4.8570   22.5800 C   0  0  0  0  0  0  0  0  0  0  0  0
  -22.4720   -4.3030   21.4230 F   0  0  0  0  0  0  0  0  0  0  0  0
  -21.3480   -3.8600   26.0430 F   0  0  0  0  0  0  0  0  0  0  0  0
  -22.7840  -13.5860   21.1690 C   0  0  0  0  0  0  0  0  0  0  0  0
  -22.0910  -12.8740   22.0490 N   0  0  0  0  0  0  0  0  0  0  0  0
  -22.3270  -14.6190   20.6800 O   0  0  0  0  0  0  0  0  0  0  0  0
  -22.4760  -12.0400   22.4660 H   0  0  0  0  0  0  0  0  0  0  0  0
  -21.1610  -13.1710   22.3120 H   0  0  0  0  0  0  0  0  0  0  0  0
  -25.3560  -15.2840   20.2820 N   0  0  0  0  0  0  0  0  0  0  0  0
  -24.5900  -15.9270   20.4530 H   0  0  0  0  0  0  0  0  0  0  0  0
  -26.1780  -15.7420   19.9100 H   0  0  0  0  0  0  0  0  0  0  0  0
  -28.1150  -24.1450   20.5960 C   0  0  0  0  0  2  0  0  0  0  0  0
  -28.2590  -25.7870   20.1980 O   0  0  0  0  0  0  0  0  0  0  0  0
  -24.6520  -31.8640   23.1840 C   0  0  0  0  0  0  0  0  0  0  0  0
  -27.2420  -26.9100   20.2230 C   0  0  0  0  0  0  0  0  0  0  0  0
  -23.4790  -30.4550   21.5460 C   0  0  0  0  0  3  0  0  0  0  0  0
  -24.9440  -28.8330   20.1500 C   0  0  0  0  0  0  0  0  0  0  0  0
  -26.0520  -30.6550   21.4230 C   0  0  0  0  0  2  0  0  0  0  0  0
  -26.1320  -29.2320   20.7760 C   0  0  0  0  0  0  0  0  0  0  0  0
  -27.2760  -28.2970   20.7750 C   0  0  0  0  0  3  0  0  0  0  0  0
  -26.0180  -26.6810   19.5550 C   0  0  0  0  0  3  0  0  0  0  0  0
  -24.9170  -27.5790   19.5180 C   0  0  0  0  0  3  0  0  0  0  0  0
  -23.7280  -29.7620   20.1770 C   0  0  0  0  0  2  0  0  0  0  0  0
  -24.7500  -31.0220   22.1030 N   0  0  0  0  0  0  0  0  0  0  0  0
  -23.5570  -32.1530   23.6930 O   0  0  0  0  0  0  0  0  0  0  0  0
  -22.7780  -29.4640   22.5120 C   0  0  0  0  0  0  0  0  0  0  0  0
  -21.4460  -29.3070   22.3930 N   0  0  0  0  0  0  0  0  0  0  0  0
  -23.4410  -28.8360   23.3420 O   0  0  0  0  0  0  0  0  0  0  0  0
  -20.9630  -29.8630   21.7010 H   0  0  0  0  0  0  0  0  0  0  0  0
  -18.0570  -28.1170   22.9290 C   0  0  0  0  0  0  0  0  0  0  0  0
  -20.6230  -28.3710   23.1670 C   0  0  0  0  0  3  0  0  0  0  0  0
  -20.7090  -26.9410   22.5850 C   0  0  0  0  0  2  0  0  0  0  0  0
  -19.5960  -26.6300   21.5790 C   0  0  0  0  0  2  0  0  0  0  0  0
  -18.2210  -26.7740   22.2390 C   0  0  0  0  0  2  0  0  0  0  0  0
  -19.1840  -28.8740   23.3520 C   0  0  0  0  0  0  0  0  0  0  0  0
  -18.9730  -30.1290   23.9650 C   0  0  0  0  0  3  0  0  0  0  0  0
  -17.6710  -30.6270   24.1550 C   0  0  0  0  0  3  0  0  0  0  0  0
  -16.5600  -29.8700   23.7430 C   0  0  0  0  0  3  0  0  0  0  0  0
  -16.7550  -28.6160   23.1380 C   0  0  0  0  0  3  0  0  0  0  0  0
  -25.9120  -32.5210   23.8250 C   0  0  0  0  0  3  0  0  0  0  0  0
  -25.5840  -33.9220   24.1430 N   0  0  0  0  0  0  0  0  0  0  0  0
  -25.9260  -34.9820   23.3980 C   0  0  0  0  0  0  0  0  0  0  0  0
  -26.6130  -34.8810   22.3780 O   0  0  0  0  0  0  0  0  0  0  0  0
  -24.9700  -34.0730   24.9320 H   0  0  0  0  0  0  0  0  0  0  0  0
  -24.2120  -36.7890   23.0210 C   0  0  0  0  0  1  0  0  0  0  0  0
  -25.4340  -36.3720   23.8540 C   0  0  0  0  0  3  0  0  0  0  0  0
  -27.5500  -37.2560   24.7370 C   0  0  0  0  0  1  0  0  0  0  0  0
  -26.4730  -37.4230   23.7650 N   0  0  0  0  0  0  0  0  0  0  0  0
  -26.0660  -38.3450   23.8980 H   0  0  0  0  0  0  0  0  0  0  0  0
  -26.4030  -31.7740   25.1270 C   0  0  1  0  0  0  0  0  0  0  0  0
  -25.2900  -31.5590   26.1810 C   0  0  0  0  0  1  0  0  0  0  0  0
  -26.9920  -30.3870   24.7850 C   0  0  0  0  0  1  0  0  0  0  0  0
  -27.5420  -32.5810   25.7950 C   0  0  0  0  0  1  0  0  0  0  0  0
  1  5  1  0
  1 45  1  0
  2  1  2  0
  4  5  1  0
  4  6  1  0
  4  3  1  0
  5  3  1  0
  6  3  1  0
  7 15  1  0
  8 13  1  0
  9 10  1  0
  9  8  1  0
 10 11  1  0
 11 20  1  0
 11 12  1  0
 13  7  1  0
 13 12  1  0
 14  7  2  0
 15  6  1  0
 16 15  1  0
 17 18  2  0
 18 37  1  0
 19 18  1  0
 19 22  1  0
 20 21  1  0
 20 17  1  0
 21 19  2  0
 22 23  1  0
 23 24  2  0
 25 28  1  0
 25 24  1  0
 26 25  2  0
 27 26  1  0
 27 22  2  0
 28 29  1  0
 29 30  1  0
 30 31  2  0
 32 31  1  0
 32 36  1  0
 33 32  2  0
 34 29  2  0
 34 33  1  0
 35 34  1  0
 37 38  1  0
 38 41  1  0
 38 40  1  0
 39 37  2  0
 42 17  1  0
 42 43  1  0
 44 42  1  0
 46 48  1  0
 46 45  1  0
 47 58  2  0
 47 73  1  0
 48 53  1  0
 49 57  1  0
 49 59  1  0
 50 56  1  0
 50 52  1  0
 51 57  1  0
 52 51  1  0
 53 52  2  0
 54 48  2  0
 55 54  1  0
 55 50  2  0
 56 49  1  0
 57 47  1  0
 59 61  2  0
 60 59  1  0
 60 64  1  0
 62 60  1  0
 63 72  2  0
 63 68  1  0
 64 68  1  0
 65 64  1  0
 66 67  1  0
 66 65  1  0
 67 63  1  0
 68 69  2  0
 69 70  1  0
 71 70  2  0
 72 71  1  0
 73 74  1  0
 73 83  1  0
 74 77  1  0
 75 79  1  0
 75 74  1  0
 76 75  2  0
 78 79  1  0
 81 79  1  0
 81 82  1  0
 81 80  1  0
 83 86  1  1
 83 84  1  0
 85 83  1  0
M  ISO  4   7 100  15 100  45 101  46 101
M  END
>  <TORSDO>  (89) 
F 18

>  <SCORE>  (89) 
-16.441

>  <name>  (89) 
88

>  <ligand_id>  (89) 
88

>  <original_smiles>  (89) 
[H]c1c([H])c([H])c2c(c1[H])C([H])([H])C([H])([H])C([H])([H])C2([H])N([H])C(=O)C1([H])N(C(=O)C([H])(N([H])C(=O)C([H])(N([H])C([H])([H])[H])C([H])([H])[H])C(C([H])([H])[H])(C([H])([H])[H])C([H])([H])[H])C([H])([H])c2c([H])c(OC([H])([H])C(=O)C3([H])C([H])([H])C([H])(N([H])C(=O)N4C([H])([H])C([H])([H])C([H])([H])C([H])(n5nc(-c6c([H])c([H])c(Oc7c([H])c([H])c(F)c([H])c7F)c([H])c6[H])c(C(=O)N([H])[H])c5N([H])[H])C4([H])[H])C3([H])[H])c([H])c([H])c2C1([H])[H]

>  <smiles>  (89) 
[H]c1c([H])c([H])c2c(c1[H])C([H])([H])C([H])([H])C([H])([H])C2([H])N([H])C(=O)C1([H])N(C(=O)C([H])(N([H])C(=O)C([H])(N([H])C([H])([H])[H])C([H])([H])[H])C(C([H])([H])[H])(C([H])([H])[H])C([H])([H])[H])C([H])([H])c2c([H])c(OC([H])([H])C(=O)C3([H])C([H])([H])C([H])(N([H])C(=O)N4C([H])([H])C([H])([H])C([H])([H])C([H])(n5nc(-c6c([H])c([H])c(Oc7c([H])c([H])c(F)c([H])c7F)c([H])c6[H])c(C(=O)N([H])[H])c5N([H])[H])C4([H])[H])C3([H])[H])c([H])c([H])c2C1([H])[H]

$$$$
89:0:0
     RDKit          3D

 88 96  0  0  1  0  0  0  0  0999 V2000
  -29.7160  -22.1570   20.1930 C   0  0  0  0  0  2  0  0  0  0  0  0
  -27.6540  -19.4500   18.8380 C   0  0  0  0  0  2  0  0  0  0  0  0
  -28.7990  -18.8270   18.5790 C   0  0  0  0  0  2  0  0  0  0  0  0
  -27.8970  -20.5660   19.7160 C   0  0  0  0  0  0  0  0  0  0  0  0
  -29.9560  -19.3850   19.3560 C   0  0  0  0  0  3  0  0  0  0  0  0
  -29.2360  -20.6980   19.8760 N   0  0  0  0  0  0  0  0  0  0  0  0
  -27.0430  -21.3440   20.1510 O   0  0  0  0  0  0  0  0  0  0  0  0
  -30.5270  -18.0820   20.2530 C   0  0  0  0  0  2  0  0  0  0  0  0
  -30.1470  -16.4810   19.8920 C   0  0  0  0  0  2  0  0  0  0  0  0
  -31.0740  -15.1100   19.9310 C   0  0  0  0  0  0  0  0  0  0  0  0
  -30.9470  -12.7150   19.1310 C   0  0  0  0  0  2  0  0  0  0  0  0
  -29.9890  -12.6670   17.9140 C   0  0  0  0  0  2  0  0  0  0  0  0
  -28.5210  -12.5270   18.3640 C   0  0  0  0  0  2  0  0  0  0  0  0
  -28.1610  -13.5040   19.5130 C   0  0  0  0  0  3  0  0  0  0  0  0
  -29.2280  -13.4960   20.6240 C   0  0  0  0  0  2  0  0  0  0  0  0
  -30.5150  -13.8390   20.0040 N   0  0  0  0  0  0  0  0  0  0  0  0
  -32.2780  -15.1840   19.6520 O   0  0  0  0  0  0  0  0  0  0  0  0
  -25.8360  -14.1970   20.3310 C   0  0  0  0  0  0  0  0  0  0  0  0
  -24.7370  -13.4730   20.7070 C   0  0  0  0  0  0  0  0  0  0  0  0
  -25.1230  -12.1000   20.6230 C   0  0  0  0  0  0  0  0  0  0  0  0
  -26.8200  -13.2690   20.0370 N   0  0  0  0  0  0  0  0  0  0  0  0
  -26.4010  -12.0010   20.2770 N   0  0  0  0  0  0  0  0  0  0  0  0
  -24.3310  -10.8750   20.7990 C   0  0  0  0  0  0  0  0  0  0  0  0
  -24.7250   -9.8620   21.7010 C   0  0  0  0  0  3  0  0  0  0  0  0
  -23.9360   -8.7030   21.8650 C   0  0  0  0  0  3  0  0  0  0  0  0
  -22.7380   -8.5500   21.1270 C   0  0  0  0  0  0  0  0  0  0  0  0
  -22.3630   -9.5500   20.2130 C   0  0  0  0  0  3  0  0  0  0  0  0
  -23.1520  -10.7010   20.0480 C   0  0  0  0  0  3  0  0  0  0  0  0
  -21.9220   -7.4470   21.2010 O   0  0  0  0  0  0  0  0  0  0  0  0
  -21.8380   -6.6900   22.3430 C   0  0  0  0  0  0  0  0  0  0  0  0
  -21.4180   -7.2430   23.5730 C   0  0  0  0  0  3  0  0  0  0  0  0
  -21.2770   -6.4160   24.7050 C   0  0  0  0  0  3  0  0  0  0  0  0
  -21.5460   -5.0370   24.6080 C   0  0  0  0  0  0  0  0  0  0  0  0
  -21.9600   -4.4840   23.3830 C   0  0  0  0  0  3  0  0  0  0  0  0
  -22.1020   -5.3090   22.2530 C   0  0  0  0  0  0  0  0  0  0  0  0
  -22.4790   -4.7680   21.0700 F   0  0  0  0  0  0  0  0  0  0  0  0
  -21.4050   -4.2400   25.6920 F   0  0  0  0  0  0  0  0  0  0  0  0
  -23.3780  -14.0190   21.0300 C   0  0  0  0  0  0  0  0  0  0  0  0
  -22.6420  -13.3490   21.9090 N   0  0  0  0  0  0  0  0  0  0  0  0
  -22.9800  -15.0750   20.5390 O   0  0  0  0  0  0  0  0  0  0  0  0
  -22.9790  -12.4940   22.3260 H   0  0  0  0  0  0  0  0  0  0  0  0
  -21.7310  -13.6980   22.1710 H   0  0  0  0  0  0  0  0  0  0  0  0
  -26.0730  -15.5620   20.1950 N   0  0  0  0  0  0  0  0  0  0  0  0
  -25.3510  -16.2550   20.3600 H   0  0  0  0  0  0  0  0  0  0  0  0
  -26.9470  -15.9650   19.8860 H   0  0  0  0  0  0  0  0  0  0  0  0
  -29.0140  -23.5840   19.6250 C   0  0  0  0  0  2  0  0  0  0  0  0
  -28.5410  -24.9140   20.5220 C   0  0  0  0  0  2  0  0  0  0  0  0
  -28.6070  -26.4130   20.1530 O   0  0  0  0  0  0  0  0  0  0  0  0
  -24.6180  -31.7830   23.2280 C   0  0  0  0  0  0  0  0  0  0  0  0
  -27.4750  -27.2910   20.1670 C   0  0  0  0  0  0  0  0  0  0  0  0
  -23.5250  -30.3920   21.5090 C   0  0  0  0  0  3  0  0  0  0  0  0
  -25.0760  -28.9110   20.0960 C   0  0  0  0  0  0  0  0  0  0  0  0
  -26.0650  -30.7680   21.4350 C   0  0  0  0  0  2  0  0  0  0  0  0
  -26.2140  -29.3990   20.7530 C   0  0  0  0  0  0  0  0  0  0  0  0
  -27.4170  -28.6050   20.7680 C   0  0  0  0  0  3  0  0  0  0  0  0
  -26.3110  -26.8810   19.4870 C   0  0  0  0  0  3  0  0  0  0  0  0
  -25.1360  -27.6640   19.4490 C   0  0  0  0  0  3  0  0  0  0  0  0
  -23.8150  -29.7600   20.1220 C   0  0  0  0  0  2  0  0  0  0  0  0
  -24.7530  -31.0000   22.1150 N   0  0  0  0  0  0  0  0  0  0  0  0
  -23.5050  -32.0120   23.7270 O   0  0  0  0  0  0  0  0  0  0  0  0
  -22.8550  -29.3340   22.4200 C   0  0  0  0  0  0  0  0  0  0  0  0
  -21.5370  -29.1290   22.2500 N   0  0  0  0  0  0  0  0  0  0  0  0
  -23.5240  -28.7020   23.2430 O   0  0  0  0  0  0  0  0  0  0  0  0
  -21.0550  -29.6880   21.5600 H   0  0  0  0  0  0  0  0  0  0  0  0
  -18.1730  -27.8500   22.6580 C   0  0  0  0  0  0  0  0  0  0  0  0
  -20.7240  -28.1440   22.9670 C   0  0  0  0  0  3  0  0  0  0  0  0
  -20.8580  -26.7420   22.3270 C   0  0  0  0  0  2  0  0  0  0  0  0
  -19.7720  -26.4480   21.2870 C   0  0  0  0  0  2  0  0  0  0  0  0
  -18.3810  -26.5380   21.9210 C   0  0  0  0  0  2  0  0  0  0  0  0
  -19.2740  -28.6120   23.1350 C   0  0  0  0  0  0  0  0  0  0  0  0
  -19.0240  -29.8390   23.7860 C   0  0  0  0  0  3  0  0  0  0  0  0
  -17.7080  -30.3070   23.9640 C   0  0  0  0  0  3  0  0  0  0  0  0
  -16.6230  -29.5420   23.5020 C   0  0  0  0  0  3  0  0  0  0  0  0
  -16.8560  -28.3160   22.8550 C   0  0  0  0  0  3  0  0  0  0  0  0
  -25.8500  -32.4430   23.9190 C   0  0  0  0  0  3  0  0  0  0  0  0
  -25.5020  -33.8420   24.2110 N   0  0  0  0  0  0  0  0  0  0  0  0
  -25.8570  -34.8920   23.4580 C   0  0  0  0  0  0  0  0  0  0  0  0
  -26.5790  -34.7860   22.4640 O   0  0  0  0  0  0  0  0  0  0  0  0
  -24.8590  -33.9980   24.9750 H   0  0  0  0  0  0  0  0  0  0  0  0
  -24.1160  -36.6530   23.0110 C   0  0  0  0  0  1  0  0  0  0  0  0
  -25.3320  -36.2800   23.8750 C   0  0  0  0  0  3  0  0  0  0  0  0
  -27.4110  -37.2200   24.7800 C   0  0  0  0  0  1  0  0  0  0  0  0
  -26.3520  -37.3480   23.7840 N   0  0  0  0  0  0  0  0  0  0  0  0
  -25.9240  -38.2640   23.8910 H   0  0  0  0  0  0  0  0  0  0  0  0
  -26.2990  -31.6990   25.2370 C   0  0  1  0  0  0  0  0  0  0  0  0
  -25.1440  -31.4510   26.2370 C   0  0  0  0  0  1  0  0  0  0  0  0
  -26.9310  -30.3270   24.9060 C   0  0  0  0  0  1  0  0  0  0  0  0
  -27.3920  -32.5220   25.9570 C   0  0  0  0  0  1  0  0  0  0  0  0
  2  4  1  0
  3  2  1  0
  3  5  1  0
  4  6  1  0
  4  7  2  0
  5  6  1  0
  5  8  1  0
  6  1  1  0
  9 10  1  0
  9  8  1  0
 10 16  1  0
 11 16  1  0
 12 13  1  0
 12 11  1  0
 14 13  1  0
 14 21  1  0
 14 15  1  0
 16 15  1  0
 17 10  2  0
 18 19  2  0
 19 38  1  0
 20 19  1  0
 20 23  1  0
 21 22  1  0
 21 18  1  0
 22 20  2  0
 23 24  1  0
 24 25  2  0
 26 29  1  0
 26 25  1  0
 27 26  2  0
 28 27  1  0
 28 23  2  0
 29 30  1  0
 30 31  1  0
 31 32  2  0
 33 32  1  0
 33 37  1  0
 34 33  2  0
 35 30  2  0
 35 34  1  0
 36 35  1  0
 38 39  1  0
 39 42  1  0
 39 41  1  0
 40 38  2  0
 43 18  1  0
 43 44  1  0
 45 43  1  0
 46  1  1  0
 46 47  1  0
 48 50  1  0
 48 47  1  0
 49 60  2  0
 50 55  1  0
 51 59  1  0
 51 61  1  0
 52 58  1  0
 52 54  1  0
 53 59  1  0
 54 55  2  0
 54 53  1  0
 56 50  2  0
 57 56  1  0
 57 52  2  0
 58 51  1  0
 59 49  1  0
 61 63  2  0
 62 61  1  0
 64 62  1  0
 65 74  2  0
 65 70  1  0
 66 62  1  0
 66 70  1  0
 67 66  1  0
 68 69  1  0
 68 67  1  0
 69 65  1  0
 70 71  2  0
 71 72  1  0
 73 72  2  0
 74 73  1  0
 75 49  1  0
 75 76  1  0
 75 85  1  0
 76 79  1  0
 77 81  1  0
 77 76  1  0
 78 77  2  0
 81 80  1  0
 83 81  1  0
 83 84  1  0
 83 82  1  0
 85 88  1  1
 85 86  1  0
 87 85  1  0
M  ISO  4   9 100  10 100  47 101  48 101
M  END
>  <TORSDO>  (90) 
F 21

>  <SCORE>  (90) 
-12.679

>  <name>  (90) 
89

>  <ligand_id>  (90) 
89

>  <original_smiles>  (90) 
[H]C1=C([H])C([H])(C([H])([H])C([H])([H])C(=O)N2C([H])([H])C([H])([H])C([H])([H])C([H])(n3nc(-c4c([H])c([H])c(Oc5c([H])c([H])c(F)c([H])c5F)c([H])c4[H])c(C(=O)N([H])[H])c3N([H])[H])C2([H])[H])N(C([H])([H])C([H])([H])C([H])([H])Oc2c([H])c([H])c3c(c2[H])C([H])([H])N(C(=O)C([H])(N([H])C(=O)C([H])(N([H])C([H])([H])[H])C([H])([H])[H])C(C([H])([H])[H])(C([H])([H])[H])C([H])([H])[H])C([H])(C(=O)N([H])C2([H])c4c([H])c([H])c([H])c([H])c4C([H])([H])C([H])([H])C2([H])[H])C3([H])[H])C1=O

>  <smiles>  (90) 
[H]C1=C([H])C([H])(C([H])([H])C([H])([H])C(=O)N2C([H])([H])C([H])([H])C([H])([H])C([H])(n3nc(-c4c([H])c([H])c(Oc5c([H])c([H])c(F)c([H])c5F)c([H])c4[H])c(C(=O)N([H])[H])c3N([H])[H])C2([H])[H])N(C([H])([H])C([H])([H])C([H])([H])Oc2c([H])c([H])c3c(c2[H])C([H])([H])N(C(=O)C([H])(N([H])C(=O)C([H])(N([H])C([H])([H])[H])C([H])([H])[H])C(C([H])([H])[H])(C([H])([H])[H])C([H])([H])[H])C([H])(C(=O)N([H])C2([H])c4c([H])c([H])c([H])c([H])c4C([H])([H])C([H])([H])C2([H])[H])C3([H])[H])C1=O

$$$$
90:0:0
     RDKit          3D

 87 95  0  0  1  0  0  0  0  0999 V2000
  -26.8480  -21.2880   20.0810 C   0  0  0  0  0  1  0  0  0  0  0  0
  -28.3200  -21.3810   20.5130 C   0  0  0  0  0  3  0  0  0  0  0  0
  -28.8960  -17.3350   19.4580 C   0  0  0  0  0  3  0  0  0  0  0  0
  -30.4590  -17.7930   21.1080 C   0  0  0  0  0  3  0  0  0  0  0  0
  -28.4880  -18.7560   19.4750 C   0  0  0  0  0  3  0  0  0  0  0  0
  -30.0360  -19.2080   21.1380 C   0  0  0  0  0  3  0  0  0  0  0  0
  -29.9100  -16.7210   20.2900 C   0  0  0  0  0  0  0  0  0  0  0  0
  -29.0170  -19.8240   20.3140 C   0  0  0  0  0  0  0  0  0  0  0  0
  -30.5630  -15.2090   20.1470 C   0  0  0  0  0  0  0  0  0  0  0  0
  -30.4460  -12.8050   19.2660 C   0  0  0  0  0  2  0  0  0  0  0  0
  -29.4970  -12.6670   18.0520 C   0  0  0  0  0  2  0  0  0  0  0  0
  -28.0600  -12.4050   18.5320 C   0  0  0  0  0  2  0  0  0  0  0  0
  -27.6460  -13.3650   19.6760 C   0  0  0  0  0  3  0  0  0  0  0  0
  -28.7200  -13.4930   20.7730 C   0  0  0  0  0  2  0  0  0  0  0  0
  -29.9550  -13.9380   20.1200 N   0  0  0  0  0  0  0  0  0  0  0  0
  -31.7740  -15.1740   19.8910 O   0  0  0  0  0  0  0  0  0  0  0  0
  -25.3080  -13.9100   20.5350 C   0  0  0  0  0  0  0  0  0  0  0  0
  -24.2570  -13.1220   20.9140 C   0  0  0  0  0  0  0  0  0  0  0  0
  -24.7200  -11.7730   20.8290 C   0  0  0  0  0  0  0  0  0  0  0  0
  -26.3370  -13.0410   20.2250 N   0  0  0  0  0  0  0  0  0  0  0  0
  -25.9990  -11.7480   20.4730 N   0  0  0  0  0  0  0  0  0  0  0  0
  -23.9990  -10.5070   21.0080 C   0  0  0  0  0  0  0  0  0  0  0  0
  -24.4300   -9.5360   21.9400 C   0  0  0  0  0  3  0  0  0  0  0  0
  -23.7060   -8.3350   22.1090 C   0  0  0  0  0  3  0  0  0  0  0  0
  -22.5380   -8.0960   21.3470 C   0  0  0  0  0  0  0  0  0  0  0  0
  -22.1280   -9.0560   20.4040 C   0  0  0  0  0  3  0  0  0  0  0  0
  -22.8510  -10.2480   20.2340 C   0  0  0  0  0  3  0  0  0  0  0  0
  -21.7870   -6.9490   21.4250 O   0  0  0  0  0  0  0  0  0  0  0  0
  -21.6880   -6.2300   22.5890 C   0  0  0  0  0  0  0  0  0  0  0  0
  -21.1910   -6.8060   23.7780 C   0  0  0  0  0  3  0  0  0  0  0  0
  -21.0400   -6.0140   24.9330 C   0  0  0  0  0  3  0  0  0  0  0  0
  -21.3750   -4.6470   24.9010 C   0  0  0  0  0  0  0  0  0  0  0  0
  -21.8660   -4.0720   23.7150 C   0  0  0  0  0  3  0  0  0  0  0  0
  -22.0180   -4.8610   22.5620 C   0  0  0  0  0  0  0  0  0  0  0  0
  -22.4710   -4.2950   21.4160 F   0  0  0  0  0  0  0  0  0  0  0  0
  -21.2230   -3.8830   26.0070 F   0  0  0  0  0  0  0  0  0  0  0  0
  -22.8710  -13.5920   21.2420 C   0  0  0  0  0  0  0  0  0  0  0  0
  -22.1740  -12.8760   22.1180 N   0  0  0  0  0  0  0  0  0  0  0  0
  -22.4170  -14.6300   20.7590 O   0  0  0  0  0  0  0  0  0  0  0  0
  -22.5580  -12.0350   22.5240 H   0  0  0  0  0  0  0  0  0  0  0  0
  -21.2470  -13.1720   22.3820 H   0  0  0  0  0  0  0  0  0  0  0  0
  -25.4710  -15.2860   20.4020 N   0  0  0  0  0  0  0  0  0  0  0  0
  -24.7330  -15.9450   20.6180 H   0  0  0  0  0  0  0  0  0  0  0  0
  -26.3400  -15.7360   20.1420 H   0  0  0  0  0  0  0  0  0  0  0  0
  -28.8260  -23.0110   20.1510 C   0  0  0  0  0  3  0  0  0  0  0  0
  -27.8700  -24.4780   20.2460 C   0  0  0  0  0  3  0  0  0  0  0  0
  -28.1930  -26.0510   20.1300 O   0  0  0  0  0  0  0  0  0  0  0  0
  -24.6290  -31.8690   23.1710 C   0  0  0  0  0  0  0  0  0  0  0  0
  -27.1710  -27.1040   20.0920 C   0  0  0  0  0  0  0  0  0  0  0  0
  -23.4240  -30.4890   21.5270 C   0  0  0  0  0  3  0  0  0  0  0  0
  -24.8650  -28.9230   20.0750 C   0  0  0  0  0  0  0  0  0  0  0  0
  -25.9830  -30.7350   21.3570 C   0  0  0  0  0  2  0  0  0  0  0  0
  -26.0530  -29.3410   20.6880 C   0  0  0  0  0  0  0  0  0  0  0  0
  -27.2060  -28.4500   20.6750 C   0  0  0  0  0  3  0  0  0  0  0  0
  -25.9590  -26.8230   19.4250 C   0  0  0  0  0  3  0  0  0  0  0  0
  -24.8370  -27.6830   19.4220 C   0  0  0  0  0  3  0  0  0  0  0  0
  -23.6400  -29.8260   20.1400 C   0  0  0  0  0  2  0  0  0  0  0  0
  -24.6990  -31.0550   22.0710 N   0  0  0  0  0  0  0  0  0  0  0  0
  -23.5430  -32.1460   23.7060 O   0  0  0  0  0  0  0  0  0  0  0  0
  -22.7490  -29.4720   22.4830 C   0  0  0  0  0  0  0  0  0  0  0  0
  -21.4190  -29.3020   22.3670 N   0  0  0  0  0  0  0  0  0  0  0  0
  -23.4260  -28.8370   23.2960 O   0  0  0  0  0  0  0  0  0  0  0  0
  -20.9260  -29.8660   21.6880 H   0  0  0  0  0  0  0  0  0  0  0  0
  -18.0420  -28.1000   22.9040 C   0  0  0  0  0  0  0  0  0  0  0  0
  -20.6060  -28.3560   23.1360 C   0  0  0  0  0  3  0  0  0  0  0  0
  -20.6960  -26.9330   22.5370 C   0  0  0  0  0  2  0  0  0  0  0  0
  -19.5810  -26.6280   21.5330 C   0  0  0  0  0  2  0  0  0  0  0  0
  -18.2080  -26.7630   22.1990 C   0  0  0  0  0  2  0  0  0  0  0  0
  -19.1680  -28.8540   23.3290 C   0  0  0  0  0  0  0  0  0  0  0  0
  -18.9570  -30.1040   23.9500 C   0  0  0  0  0  3  0  0  0  0  0  0
  -17.6560  -30.6010   24.1470 C   0  0  0  0  0  3  0  0  0  0  0  0
  -16.5440  -29.8430   23.7360 C   0  0  0  0  0  3  0  0  0  0  0  0
  -16.7390  -28.5930   23.1200 C   0  0  0  0  0  3  0  0  0  0  0  0
  -25.9060  -32.5060   23.7980 C   0  0  0  0  0  3  0  0  0  0  0  0
  -26.4360  -31.7160   25.0580 C   0  0  1  0  0  0  0  0  0  0  0  0
  -25.3520  -31.4560   26.1320 C   0  0  0  0  0  1  0  0  0  0  0  0
  -27.0230  -30.3480   24.6460 C   0  0  0  0  0  1  0  0  0  0  0  0
  -27.5870  -32.5050   25.7240 C   0  0  0  0  0  1  0  0  0  0  0  0
  -25.5830  -33.8940   24.1650 N   0  0  0  0  0  0  0  0  0  0  0  0
  -25.8690  -34.9710   23.4200 C   0  0  0  0  0  0  0  0  0  0  0  0
  -26.4980  -34.8990   22.3610 O   0  0  0  0  0  0  0  0  0  0  0  0
  -25.0200  -34.0220   24.9940 H   0  0  0  0  0  0  0  0  0  0  0  0
  -24.0920  -36.7390   23.1950 C   0  0  0  0  0  1  0  0  0  0  0  0
  -25.3830  -36.3430   23.9280 C   0  0  0  0  0  3  0  0  0  0  0  0
  -27.5420  -37.2600   24.6590 C   0  0  0  0  0  1  0  0  0  0  0  0
  -26.3900  -37.4170   23.7760 N   0  0  0  0  0  0  0  0  0  0  0  0
  -25.9750  -38.3280   23.9560 H   0  0  0  0  0  0  0  0  0  0  0  0
  2  1  1  0
  3  5  2  0
  3  7  1  0
  4  6  1  0
  5  8  1  0
  7  4  2  0
  8  2  1  0
  8  6  2  0
  9  7  1  0
 10 15  1  0
 11 12  1  0
 11 10  1  0
 13 12  1  0
 13 20  1  0
 13 14  1  0
 15  9  1  0
 15 14  1  0
 16  9  2  0
 17 18  2  0
 18 37  1  0
 19 18  1  0
 19 22  1  0
 20 21  1  0
 20 17  1  0
 21 19  2  0
 22 23  1  0
 23 24  2  0
 25 28  1  0
 25 24  1  0
 26 25  2  0
 27 26  1  0
 27 22  2  0
 28 29  1  0
 29 30  1  0
 30 31  2  0
 32 31  1  0
 32 36  1  0
 33 32  2  0
 34 29  2  0
 34 33  1  0
 35 34  1  0
 37 38  1  0
 38 41  1  0
 38 40  1  0
 39 37  2  0
 42 17  1  0
 42 43  1  0
 44 42  1  0
 45 46  2  0
 45  2  1  0
 47 46  1  0
 48 59  2  0
 49 47  1  0
 49 54  1  0
 50 58  1  0
 50 60  1  0
 51 57  1  0
 51 53  1  0
 52 58  1  0
 53 52  1  0
 54 53  2  0
 55 49  2  0
 56 55  1  0
 56 51  2  0
 57 50  1  0
 58 48  1  0
 60 62  2  0
 61 60  1  0
 63 61  1  0
 64 73  2  0
 64 69  1  0
 65 61  1  0
 65 69  1  0
 66 65  1  0
 67 68  1  0
 67 66  1  0
 68 64  1  0
 69 70  2  0
 70 71  1  0
 72 71  2  0
 73 72  1  0
 74 48  1  0
 74 79  1  0
 74 75  1  0
 75 78  1  1
 75 76  1  0
 77 75  1  0
 79 82  1  0
 80 84  1  0
 80 79  1  0
 81 80  2  0
 84 83  1  0
 86 84  1  0
 86 87  1  0
 86 85  1  0
M  ISO  4   7 100   9 100  46 101  47 101
M  END
>  <TORSDO>  (91) 
F 19

>  <SCORE>  (91) 
-15.118

>  <name>  (91) 
90

>  <ligand_id>  (91) 
90

>  <original_smiles>  (91) 
[H]c1c([H])c([H])c2c(c1[H])C([H])([H])C([H])([H])C([H])([H])C2([H])N([H])C(=O)C1([H])N(C(=O)C([H])(N([H])C(=O)C([H])(N([H])C([H])([H])[H])C([H])([H])[H])C(C([H])([H])[H])(C([H])([H])[H])C([H])([H])[H])C([H])([H])c2c([H])c(OC([H])([H])C([H])([H])C([H])(c3c([H])c([H])c(C(=O)N4C([H])([H])C([H])([H])C([H])([H])C([H])(n5nc(-c6c([H])c([H])c(Oc7c([H])c([H])c(F)c([H])c7F)c([H])c6[H])c(C(=O)N([H])[H])c5N([H])[H])C4([H])[H])c([H])c3[H])C([H])([H])[H])c([H])c([H])c2C1([H])[H]

>  <smiles>  (91) 
[H]c1c([H])c([H])c2c(c1[H])C([H])([H])C([H])([H])C([H])([H])C2([H])N([H])C(=O)C1([H])N(C(=O)C([H])(N([H])C(=O)C([H])(N([H])C([H])([H])[H])C([H])([H])[H])C(C([H])([H])[H])(C([H])([H])[H])C([H])([H])[H])C([H])([H])c2c([H])c(OC([H])([H])C([H])([H])C([H])(c3c([H])c([H])c(C(=O)N4C([H])([H])C([H])([H])C([H])([H])C([H])(n5nc(-c6c([H])c([H])c(Oc7c([H])c([H])c(F)c([H])c7F)c([H])c6[H])c(C(=O)N([H])[H])c5N([H])[H])C4([H])[H])c([H])c3[H])C([H])([H])[H])c([H])c([H])c2C1([H])[H]

$$$$
91:0:0
     RDKit          3D

 90 98  0  0  1  0  0  0  0  0999 V2000
  -29.5400  -20.9750   21.6470 C   0  0  0  0  0  3  0  0  0  0  0  0
  -29.0510  -20.5100   19.3310 C   0  0  0  0  0  3  0  0  0  0  0  0
  -29.1000  -22.3100   21.4930 C   0  0  0  0  0  3  0  0  0  0  0  0
  -28.6130  -21.8640   19.1740 C   0  0  0  0  0  3  0  0  0  0  0  0
  -29.5010  -20.0290   20.5900 C   0  0  0  0  0  0  0  0  0  0  0  0
  -28.5990  -22.7810   20.2640 C   0  0  0  0  0  0  0  0  0  0  0  0
  -29.8790  -18.5630   20.9800 C   0  0  0  0  0  2  0  0  0  0  0  0
  -30.0370  -17.3060   20.0130 C   0  0  0  0  0  2  0  0  0  0  0  0
  -31.8000  -16.2000   21.4760 C   0  0  0  0  0  1  0  0  0  0  0  0
  -29.4370  -15.6580   21.8930 C   0  0  0  0  0  1  0  0  0  0  0  0
  -30.4460  -15.9350   20.7610 C   0  0  1  0  0  0  0  0  0  0  0  0
  -30.7520  -14.6680   19.8160 C   0  0  0  0  0  0  0  0  0  0  0  0
  -30.3450  -12.5040   18.6390 C   0  0  0  0  0  2  0  0  0  0  0  0
  -29.2780  -12.7090   17.5420 C   0  0  0  0  0  2  0  0  0  0  0  0
  -27.8530  -12.5520   18.1110 C   0  0  0  0  0  2  0  0  0  0  0  0
  -27.6590  -13.3300   19.4400 C   0  0  0  0  0  3  0  0  0  0  0  0
  -28.8260  -13.0330   20.3990 C   0  0  0  0  0  2  0  0  0  0  0  0
  -30.0720  -13.4670   19.7390 N   0  0  0  0  0  0  0  0  0  0  0  0
  -31.7440  -14.8110   19.0950 O   0  0  0  0  0  0  0  0  0  0  0  0
  -25.3750  -13.9210   20.4540 C   0  0  0  0  0  0  0  0  0  0  0  0
  -24.3390  -13.1440   20.8980 C   0  0  0  0  0  0  0  0  0  0  0  0
  -24.7630  -11.7910   20.7310 C   0  0  0  0  0  0  0  0  0  0  0  0
  -26.3650  -13.0420   20.0530 N   0  0  0  0  0  0  0  0  0  0  0  0
  -26.0080  -11.7510   20.2720 N   0  0  0  0  0  0  0  0  0  0  0  0
  -24.0360  -10.5310   20.9280 C   0  0  0  0  0  0  0  0  0  0  0  0
  -24.5000   -9.5430   21.8250 C   0  0  0  0  0  3  0  0  0  0  0  0
  -23.7730   -8.3460   22.0110 C   0  0  0  0  0  3  0  0  0  0  0  0
  -22.5680   -8.1310   21.3020 C   0  0  0  0  0  0  0  0  0  0  0  0
  -22.1210   -9.1080   20.3960 C   0  0  0  0  0  3  0  0  0  0  0  0
  -22.8480  -10.2950   20.2070 C   0  0  0  0  0  3  0  0  0  0  0  0
  -21.8090   -6.9900   21.4020 O   0  0  0  0  0  0  0  0  0  0  0  0
  -21.7500   -6.2630   22.5620 C   0  0  0  0  0  0  0  0  0  0  0  0
  -21.3110   -6.8330   23.7770 C   0  0  0  0  0  3  0  0  0  0  0  0
  -21.2000   -6.0300   24.9300 C   0  0  0  0  0  3  0  0  0  0  0  0
  -21.5170   -4.6620   24.8700 C   0  0  0  0  0  0  0  0  0  0  0  0
  -21.9480   -4.0910   23.6590 C   0  0  0  0  0  3  0  0  0  0  0  0
  -22.0610   -4.8890   22.5090 C   0  0  0  0  0  0  0  0  0  0  0  0
  -22.4590   -4.3310   21.3390 F   0  0  0  0  0  0  0  0  0  0  0  0
  -21.4010   -3.8880   25.9760 F   0  0  0  0  0  0  0  0  0  0  0  0
  -22.9940  -13.6260   21.3570 C   0  0  0  0  0  0  0  0  0  0  0  0
  -22.3500  -12.8870   22.2540 N   0  0  0  0  0  0  0  0  0  0  0  0
  -22.5250  -14.6890   20.9540 O   0  0  0  0  0  0  0  0  0  0  0  0
  -22.7430  -12.0260   22.6040 H   0  0  0  0  0  0  0  0  0  0  0  0
  -21.4510  -13.1910   22.5980 H   0  0  0  0  0  0  0  0  0  0  0  0
  -25.5460  -15.2990   20.3440 N   0  0  0  0  0  0  0  0  0  0  0  0
  -24.8120  -15.9520   20.5870 H   0  0  0  0  0  0  0  0  0  0  0  0
  -26.3640  -15.7480   19.9530 H   0  0  0  0  0  0  0  0  0  0  0  0
  -27.9190  -24.1860   20.2170 C   0  0  0  0  0  2  0  0  0  0  0  0
  -28.6330  -25.3810   19.4870 C   0  0  0  0  0  2  0  0  0  0  0  0
  -28.5030  -26.7160   20.0670 O   0  0  0  0  0  0  0  0  0  0  0  0
  -24.5730  -31.8610   23.1450 C   0  0  0  0  0  0  0  0  0  0  0  0
  -27.3200  -27.4500   20.0240 C   0  0  0  0  0  0  0  0  0  0  0  0
  -23.4110  -30.4660   21.4700 C   0  0  0  0  0  3  0  0  0  0  0  0
  -24.9050  -28.9620   20.0380 C   0  0  0  0  0  0  0  0  0  0  0  0
  -25.9420  -30.8460   21.3130 C   0  0  0  0  0  2  0  0  0  0  0  0
  -26.0530  -29.4800   20.6520 C   0  0  0  0  0  0  0  0  0  0  0  0
  -27.2590  -28.7300   20.6430 C   0  0  0  0  0  3  0  0  0  0  0  0
  -26.1550  -26.9640   19.3960 C   0  0  0  0  0  3  0  0  0  0  0  0
  -24.9560  -27.7040   19.4060 C   0  0  0  0  0  3  0  0  0  0  0  0
  -23.6510  -29.8120   20.0810 C   0  0  0  0  0  2  0  0  0  0  0  0
  -24.6610  -31.0730   22.0350 N   0  0  0  0  0  0  0  0  0  0  0  0
  -23.4790  -32.1110   23.6720 O   0  0  0  0  0  0  0  0  0  0  0  0
  -22.7600  -29.4220   22.4070 C   0  0  0  0  0  0  0  0  0  0  0  0
  -21.4410  -29.2190   22.2590 N   0  0  0  0  0  0  0  0  0  0  0  0
  -23.4430  -28.8000   23.2250 O   0  0  0  0  0  0  0  0  0  0  0  0
  -20.9500  -29.7810   21.5780 H   0  0  0  0  0  0  0  0  0  0  0  0
  -18.0770  -27.9730   22.6990 C   0  0  0  0  0  0  0  0  0  0  0  0
  -20.6300  -28.2560   23.0010 C   0  0  0  0  0  3  0  0  0  0  0  0
  -20.7550  -26.8380   22.3970 C   0  0  0  0  0  2  0  0  0  0  0  0
  -19.6660  -26.5240   21.3660 C   0  0  0  0  0  2  0  0  0  0  0  0
  -18.2750  -26.6390   22.0000 C   0  0  0  0  0  2  0  0  0  0  0  0
  -19.1820  -28.7400   23.1570 C   0  0  0  0  0  0  0  0  0  0  0  0
  -18.9420  -29.9890   23.7710 C   0  0  0  0  0  3  0  0  0  0  0  0
  -17.6300  -30.4700   23.9330 C   0  0  0  0  0  3  0  0  0  0  0  0
  -16.5400  -29.7010   23.4920 C   0  0  0  0  0  3  0  0  0  0  0  0
  -16.7640  -28.4540   22.8820 C   0  0  0  0  0  3  0  0  0  0  0  0
  -25.8390  -32.5060   23.7940 C   0  0  0  0  0  3  0  0  0  0  0  0
  -25.5240  -33.9130   24.0770 N   0  0  0  0  0  0  0  0  0  0  0  0
  -25.8930  -34.9450   23.3060 C   0  0  0  0  0  0  0  0  0  0  0  0
  -26.6030  -34.8120   22.3070 O   0  0  0  0  0  0  0  0  0  0  0  0
  -24.9010  -34.0910   24.8520 H   0  0  0  0  0  0  0  0  0  0  0  0
  -24.1940  -36.7400   22.8340 C   0  0  0  0  0  1  0  0  0  0  0  0
  -25.3960  -36.3490   23.7080 C   0  0  0  0  0  3  0  0  0  0  0  0
  -27.4980  -37.2440   24.6090 C   0  0  0  0  0  1  0  0  0  0  0  0
  -26.4410  -37.3920   23.6120 N   0  0  0  0  0  0  0  0  0  0  0  0
  -26.0350  -38.3180   23.7140 H   0  0  0  0  0  0  0  0  0  0  0  0
  -26.3080  -31.7660   25.1090 C   0  0  1  0  0  0  0  0  0  0  0  0
  -25.1720  -31.5280   26.1320 C   0  0  0  0  0  1  0  0  0  0  0  0
  -26.9290  -30.3930   24.7650 C   0  0  0  0  0  1  0  0  0  0  0  0
  -27.4130  -32.5900   25.8090 C   0  0  0  0  0  1  0  0  0  0  0  0
  2  5  1  0
  3  1  1  0
  4  2  2  0
  4  6  1  0
  5  7  1  0
  5  1  2  0
  6  3  2  0
  8 11  1  0
  8  7  1  0
 11  9  1  1
 11 10  1  0
 12 11  1  0
 13 18  1  0
 14 15  1  0
 14 13  1  0
 16 15  1  0
 16 23  1  0
 16 17  1  0
 18 12  1  0
 18 17  1  0
 19 12  2  0
 20 21  2  0
 21 40  1  0
 22 21  1  0
 22 25  1  0
 23 24  1  0
 23 20  1  0
 24 22  2  0
 25 26  1  0
 26 27  2  0
 28 31  1  0
 28 27  1  0
 29 28  2  0
 30 29  1  0
 30 25  2  0
 31 32  1  0
 32 33  1  0
 33 34  2  0
 35 34  1  0
 35 39  1  0
 36 35  2  0
 37 32  2  0
 37 36  1  0
 38 37  1  0
 40 41  1  0
 41 44  1  0
 41 43  1  0
 42 40  2  0
 45 20  1  0
 45 46  1  0
 47 45  1  0
 48  6  1  0
 49 50  1  0
 49 48  1  0
 51 62  2  0
 52 50  1  0
 52 57  1  0
 53 61  1  0
 53 63  1  0
 54 60  1  0
 54 56  1  0
 55 61  1  0
 56 55  1  0
 57 56  2  0
 58 59  1  0
 58 52  2  0
 59 54  2  0
 60 53  1  0
 61 51  1  0
 63 65  2  0
 64 63  1  0
 66 64  1  0
 67 76  2  0
 67 72  1  0
 68 64  1  0
 68 72  1  0
 69 68  1  0
 70 71  1  0
 70 69  1  0
 71 67  1  0
 72 73  2  0
 73 74  1  0
 75 74  2  0
 76 75  1  0
 77 51  1  0
 77 78  1  0
 77 87  1  0
 78 81  1  0
 79 83  1  0
 79 78  1  0
 80 79  2  0
 83 82  1  0
 85 83  1  0
 85 86  1  0
 85 84  1  0
 87 90  1  1
 87 88  1  0
 89 87  1  0
M  ISO  4  11 100  12 100  49 101  50 101
M  END
>  <TORSDO>  (92) 
F 21

>  <SCORE>  (92) 
-11.882

>  <name>  (92) 
91

>  <ligand_id>  (92) 
91

>  <original_smiles>  (92) 
[H]c1c([H])c([H])c2c(c1[H])C([H])([H])C([H])([H])C([H])([H])C2([H])N([H])C(=O)C1([H])N(C(=O)C([H])(N([H])C(=O)C([H])(N([H])C([H])([H])[H])C([H])([H])[H])C(C([H])([H])[H])(C([H])([H])[H])C([H])([H])[H])C([H])([H])c2c([H])c(OC([H])([H])C([H])([H])c3c([H])c([H])c(C([H])([H])C([H])([H])C(C(=O)N4C([H])([H])C([H])([H])C([H])([H])C([H])(n5nc(-c6c([H])c([H])c(Oc7c([H])c([H])c(F)c([H])c7F)c([H])c6[H])c(C(=O)N([H])[H])c5N([H])[H])C4([H])[H])(C([H])([H])[H])C([H])([H])[H])c([H])c3[H])c([H])c([H])c2C1([H])[H]

>  <smiles>  (92) 
[H]c1c([H])c([H])c2c(c1[H])C([H])([H])C([H])([H])C([H])([H])C2([H])N([H])C(=O)C1([H])N(C(=O)C([H])(N([H])C(=O)C([H])(N([H])C([H])([H])[H])C([H])([H])[H])C(C([H])([H])[H])(C([H])([H])[H])C([H])([H])[H])C([H])([H])c2c([H])c(OC([H])([H])C([H])([H])c3c([H])c([H])c(C([H])([H])C([H])([H])C(C(=O)N4C([H])([H])C([H])([H])C([H])([H])C([H])(n5nc(-c6c([H])c([H])c(Oc7c([H])c([H])c(F)c([H])c7F)c([H])c6[H])c(C(=O)N([H])[H])c5N([H])[H])C4([H])[H])(C([H])([H])[H])C([H])([H])[H])c([H])c3[H])c([H])c([H])c2C1([H])[H]

$$$$
92:0:0
     RDKit          3D

 89 97  0  0  1  0  0  0  0  0999 V2000
  -29.0400  -20.1660   19.6790 C   0  0  0  0  0  0  0  0  0  0  0  0
  -27.8970  -19.9120   19.2870 O   0  0  0  0  0  0  0  0  0  0  0  0
  -30.1330  -18.8880   19.5940 C   0  0  0  0  0  2  0  0  0  0  0  0
  -30.9670  -16.7010   23.3950 C   0  0  0  0  0  3  0  0  0  0  0  0
  -30.2030  -17.8500   23.2590 C   0  0  0  0  0  3  0  0  0  0  0  0
  -31.3830  -16.0170   22.2510 C   0  0  0  0  0  3  0  0  0  0  0  0
  -29.9580  -18.3620   21.9830 C   0  0  0  0  0  3  0  0  0  0  0  0
  -31.0550  -16.3760   20.9120 C   0  0  0  0  0  0  0  0  0  0  0  0
  -30.3980  -17.7640   20.7700 C   0  0  0  0  0  0  0  0  0  0  0  0
  -31.5830  -15.1910   19.9580 C   0  0  0  0  0  0  0  0  0  0  0  0
  -31.2700  -12.9110   18.8320 C   0  0  0  0  0  2  0  0  0  0  0  0
  -30.2590  -13.0090   17.6630 C   0  0  0  0  0  2  0  0  0  0  0  0
  -28.8070  -12.8690   18.1640 C   0  0  0  0  0  2  0  0  0  0  0  0
  -28.5480  -13.7330   19.4220 C   0  0  0  0  0  3  0  0  0  0  0  0
  -29.6530  -13.5360   20.4710 C   0  0  0  0  0  2  0  0  0  0  0  0
  -30.9310  -13.9500   19.8520 N   0  0  0  0  0  0  0  0  0  0  0  0
  -32.6660  -15.3050   19.3670 O   0  0  0  0  0  0  0  0  0  0  0  0
  -26.2760  -14.4680   20.3460 C   0  0  0  0  0  0  0  0  0  0  0  0
  -25.1730  -13.7620   20.7460 C   0  0  0  0  0  0  0  0  0  0  0  0
  -25.5170  -12.3830   20.6070 C   0  0  0  0  0  0  0  0  0  0  0  0
  -27.2200  -13.5210   19.9830 N   0  0  0  0  0  0  0  0  0  0  0  0
  -26.7770  -12.2580   20.2070 N   0  0  0  0  0  0  0  0  0  0  0  0
  -24.6990  -11.1730   20.7790 C   0  0  0  0  0  0  0  0  0  0  0  0
  -25.0760  -10.1470   21.6760 C   0  0  0  0  0  3  0  0  0  0  0  0
  -24.2620   -9.0050   21.8400 C   0  0  0  0  0  3  0  0  0  0  0  0
  -23.0560   -8.8820   21.1090 C   0  0  0  0  0  0  0  0  0  0  0  0
  -22.6990   -9.8930   20.1990 C   0  0  0  0  0  3  0  0  0  0  0  0
  -23.5120  -11.0260   20.0340 C   0  0  0  0  0  3  0  0  0  0  0  0
  -22.2210   -7.7930   21.1820 O   0  0  0  0  0  0  0  0  0  0  0  0
  -22.0830   -7.0640   22.3360 C   0  0  0  0  0  0  0  0  0  0  0  0
  -21.7280   -7.6650   23.5620 C   0  0  0  0  0  3  0  0  0  0  0  0
  -21.5320   -6.8680   24.7080 C   0  0  0  0  0  3  0  0  0  0  0  0
  -21.6830   -5.4710   24.6260 C   0  0  0  0  0  0  0  0  0  0  0  0
  -22.0310   -4.8680   23.4040 C   0  0  0  0  0  3  0  0  0  0  0  0
  -22.2270   -5.6630   22.2620 C   0  0  0  0  0  0  0  0  0  0  0  0
  -22.5410   -5.0760   21.0830 F   0  0  0  0  0  0  0  0  0  0  0  0
  -21.4870   -4.7030   25.7250 F   0  0  0  0  0  0  0  0  0  0  0  0
  -23.8410  -14.3330   21.1390 C   0  0  0  0  0  0  0  0  0  0  0  0
  -23.1470  -13.6890   22.0710 N   0  0  0  0  0  0  0  0  0  0  0  0
  -23.4280  -15.3850   20.6510 O   0  0  0  0  0  0  0  0  0  0  0  0
  -23.4960  -12.8370   22.4860 H   0  0  0  0  0  0  0  0  0  0  0  0
  -22.2560  -14.0550   22.3700 H   0  0  0  0  0  0  0  0  0  0  0  0
  -26.5550  -15.8270   20.2330 N   0  0  0  0  0  0  0  0  0  0  0  0
  -25.8940  -16.5540   20.4850 H   0  0  0  0  0  0  0  0  0  0  0  0
  -27.4450  -16.1930   19.9180 H   0  0  0  0  0  0  0  0  0  0  0  0
  -29.2520  -21.7220   20.2210 C   0  0  0  0  0  2  0  0  0  0  0  0
  -28.5260  -23.1160   19.5690 C   0  0  0  0  0  2  0  0  0  0  0  0
  -28.1750  -24.5720   20.3560 C   0  0  0  0  0  2  0  0  0  0  0  0
  -28.3000  -26.0490   19.8650 O   0  0  0  0  0  0  0  0  0  0  0  0
  -24.7150  -31.7060   23.0070 C   0  0  0  0  0  0  0  0  0  0  0  0
  -27.2250  -27.0060   19.9110 C   0  0  0  0  0  0  0  0  0  0  0  0
  -23.4790  -30.3110   21.3960 C   0  0  0  0  0  3  0  0  0  0  0  0
  -24.8930  -28.7390   19.9350 C   0  0  0  0  0  0  0  0  0  0  0  0
  -26.0260  -30.5870   21.1640 C   0  0  0  0  0  2  0  0  0  0  0  0
  -26.0880  -29.1940   20.5110 C   0  0  0  0  0  0  0  0  0  0  0  0
  -27.2580  -28.3470   20.4740 C   0  0  0  0  0  3  0  0  0  0  0  0
  -26.0040  -26.6440   19.3090 C   0  0  0  0  0  3  0  0  0  0  0  0
  -24.8620  -27.4760   19.3220 C   0  0  0  0  0  3  0  0  0  0  0  0
  -23.6630  -29.6290   20.0140 C   0  0  0  0  0  2  0  0  0  0  0  0
  -24.7610  -30.8910   21.9090 N   0  0  0  0  0  0  0  0  0  0  0  0
  -23.6410  -31.9850   23.5630 O   0  0  0  0  0  0  0  0  0  0  0  0
  -22.8260  -29.3010   22.3730 C   0  0  0  0  0  0  0  0  0  0  0  0
  -21.4920  -29.1470   22.2900 N   0  0  0  0  0  0  0  0  0  0  0  0
  -23.5210  -28.6580   23.1640 O   0  0  0  0  0  0  0  0  0  0  0  0
  -20.9880  -29.7140   21.6230 H   0  0  0  0  0  0  0  0  0  0  0  0
  -18.1170  -27.9910   22.9180 C   0  0  0  0  0  0  0  0  0  0  0  0
  -20.6890  -28.2090   23.0800 C   0  0  0  0  0  3  0  0  0  0  0  0
  -20.7440  -26.7860   22.4760 C   0  0  0  0  0  2  0  0  0  0  0  0
  -19.5940  -26.4980   21.5050 C   0  0  0  0  0  2  0  0  0  0  0  0
  -18.2440  -26.6530   22.2090 C   0  0  0  0  0  2  0  0  0  0  0  0
  -19.2650  -28.7290   23.3120 C   0  0  0  0  0  0  0  0  0  0  0  0
  -19.0910  -29.9830   23.9360 C   0  0  0  0  0  3  0  0  0  0  0  0
  -17.8020  -30.4990   24.1690 C   0  0  0  0  0  3  0  0  0  0  0  0
  -16.6700  -29.7580   23.7910 C   0  0  0  0  0  3  0  0  0  0  0  0
  -16.8280  -28.5060   23.1710 C   0  0  0  0  0  3  0  0  0  0  0  0
  -26.0070  -32.3410   23.6080 C   0  0  0  0  0  3  0  0  0  0  0  0
  -25.6730  -33.7040   24.0480 N   0  0  0  0  0  0  0  0  0  0  0  0
  -25.9400  -34.8190   23.3530 C   0  0  0  0  0  0  0  0  0  0  0  0
  -26.5590  -34.8060   22.2850 O   0  0  0  0  0  0  0  0  0  0  0  0
  -25.1150  -33.7850   24.8870 H   0  0  0  0  0  0  0  0  0  0  0  0
  -24.1530  -36.5850   23.2110 C   0  0  0  0  0  1  0  0  0  0  0  0
  -25.4410  -36.1580   23.9320 C   0  0  0  0  0  3  0  0  0  0  0  0
  -27.5910  -37.0430   24.7240 C   0  0  0  0  0  1  0  0  0  0  0  0
  -26.4410  -37.2470   23.8460 N   0  0  0  0  0  0  0  0  0  0  0  0
  -26.0200  -38.1410   24.0780 H   0  0  0  0  0  0  0  0  0  0  0  0
  -26.6040  -31.5100   24.8110 C   0  0  1  0  0  0  0  0  0  0  0  0
  -25.5710  -31.1720   25.9110 C   0  0  0  0  0  1  0  0  0  0  0  0
  -27.2080  -30.1790   24.3100 C   0  0  0  0  0  1  0  0  0  0  0  0
  -27.7630  -32.2990   25.4650 C   0  0  0  0  0  1  0  0  0  0  0  0
  1 46  1  0
  2  1  2  0
  3  1  1  0
  3  9  1  0
  5  4  1  0
  6  4  2  0
  7  5  2  0
  8  6  1  0
  9  8  2  0
  9  7  1  0
 10  8  1  0
 11 16  1  0
 12 13  1  0
 12 11  1  0
 14 13  1  0
 14 21  1  0
 14 15  1  0
 16 10  1  0
 16 15  1  0
 17 10  2  0
 18 19  2  0
 19 38  1  0
 20 19  1  0
 20 23  1  0
 21 22  1  0
 21 18  1  0
 22 20  2  0
 23 24  1  0
 24 25  2  0
 26 29  1  0
 26 25  1  0
 27 26  2  0
 28 27  1  0
 28 23  2  0
 29 30  1  0
 30 31  1  0
 31 32  2  0
 33 32  1  0
 33 37  1  0
 34 33  2  0
 35 30  2  0
 35 34  1  0
 36 35  1  0
 38 39  1  0
 39 42  1  0
 39 41  1  0
 40 38  2  0
 43 18  1  0
 43 44  1  0
 45 43  1  0
 47 46  1  0
 47 48  1  0
 49 51  1  0
 49 48  1  0
 50 61  2  0
 51 56  1  0
 52 60  1  0
 52 62  1  0
 53 59  1  0
 53 55  1  0
 54 60  1  0
 55 54  1  0
 56 55  2  0
 57 58  1  0
 57 51  2  0
 58 53  2  0
 59 52  1  0
 60 50  1  0
 62 64  2  0
 63 62  1  0
 65 63  1  0
 66 75  2  0
 66 71  1  0
 67 63  1  0
 67 71  1  0
 68 67  1  0
 69 70  1  0
 69 68  1  0
 70 66  1  0
 71 72  2  0
 72 73  1  0
 74 73  2  0
 75 74  1  0
 76 50  1  0
 76 77  1  0
 76 86  1  0
 77 80  1  0
 78 82  1  0
 78 77  1  0
 79 78  2  0
 82 81  1  0
 84 82  1  0
 84 85  1  0
 84 83  1  0
 86 89  1  1
 86 87  1  0
 88 86  1  0
M  ISO  4   8 100  10 100  48 101  49 101
M  END
>  <TORSDO>  (93) 
F 21

>  <SCORE>  (93) 
-9.650

>  <name>  (93) 
92

>  <ligand_id>  (93) 
92

>  <original_smiles>  (93) 
[H]c1c([H])c([H])c(C([H])([H])C(=O)C([H])([H])C([H])([H])C([H])([H])Oc2c([H])c([H])c3c(c2[H])C([H])([H])N(C(=O)C([H])(N([H])C(=O)C([H])(N([H])C([H])([H])[H])C([H])([H])[H])C(C([H])([H])[H])(C([H])([H])[H])C([H])([H])[H])C([H])(C(=O)N([H])C2([H])c4c([H])c([H])c([H])c([H])c4C([H])([H])C([H])([H])C2([H])[H])C3([H])[H])c(C(=O)N2C([H])([H])C([H])([H])C([H])([H])C([H])(n3nc(-c4c([H])c([H])c(Oc5c([H])c([H])c(F)c([H])c5F)c([H])c4[H])c(C(=O)N([H])[H])c3N([H])[H])C2([H])[H])c1[H]

>  <smiles>  (93) 
[H]c1c([H])c([H])c(C([H])([H])C(=O)C([H])([H])C([H])([H])C([H])([H])Oc2c([H])c([H])c3c(c2[H])C([H])([H])N(C(=O)C([H])(N([H])C(=O)C([H])(N([H])C([H])([H])[H])C([H])([H])[H])C(C([H])([H])[H])(C([H])([H])[H])C([H])([H])[H])C([H])(C(=O)N([H])C2([H])c4c([H])c([H])c([H])c([H])c4C([H])([H])C([H])([H])C2([H])[H])C3([H])[H])c(C(=O)N2C([H])([H])C([H])([H])C([H])([H])C([H])(n3nc(-c4c([H])c([H])c(Oc5c([H])c([H])c(F)c([H])c5F)c([H])c4[H])c(C(=O)N([H])[H])c3N([H])[H])C2([H])[H])c1[H]

$$$$
93:0:0
     RDKit          3D

 87 95  0  0  1  0  0  0  0  0999 V2000
  -29.4700  -22.3470   19.2430 C   0  0  0  0  0  3  0  0  0  0  0  0
  -28.1480  -21.9690   21.1060 C   0  0  0  0  0  3  0  0  0  0  0  0
  -29.8850  -20.9320   19.2730 C   0  0  0  0  0  3  0  0  0  0  0  0
  -28.5680  -20.5500   21.1390 C   0  0  0  0  0  3  0  0  0  0  0  0
  -28.5680  -23.0010   20.1660 C   0  0  0  0  0  0  0  0  0  0  0  0
  -29.4680  -19.8990   20.2070 C   0  0  0  0  0  0  0  0  0  0  0  0
  -31.3560  -18.4980   21.2590 C   0  0  0  0  0  1  0  0  0  0  0  0
  -30.1950  -18.3450   20.2660 C   0  0  0  0  0  3  0  0  0  0  0  0
  -29.6130  -16.7080   20.4360 C   0  0  0  0  0  2  0  0  0  0  0  0
  -30.4470  -15.2220   20.1900 C   0  0  0  0  0  0  0  0  0  0  0  0
  -30.3800  -12.8290   19.2490 C   0  0  0  0  0  2  0  0  0  0  0  0
  -29.4190  -12.7410   18.0370 C   0  0  0  0  0  2  0  0  0  0  0  0
  -27.9710  -12.4930   18.5000 C   0  0  0  0  0  2  0  0  0  0  0  0
  -27.5730  -13.4100   19.6830 C   0  0  0  0  0  3  0  0  0  0  0  0
  -28.6520  -13.4590   20.7820 C   0  0  0  0  0  2  0  0  0  0  0  0
  -29.8990  -13.9220   20.1590 N   0  0  0  0  0  0  0  0  0  0  0  0
  -31.6440  -15.2590   19.8740 O   0  0  0  0  0  0  0  0  0  0  0  0
  -25.2150  -13.9570   20.5030 C   0  0  0  0  0  0  0  0  0  0  0  0
  -24.1660  -13.1710   20.8890 C   0  0  0  0  0  0  0  0  0  0  0  0
  -24.6370  -11.8240   20.8280 C   0  0  0  0  0  0  0  0  0  0  0  0
  -26.2550  -13.0900   20.2190 N   0  0  0  0  0  0  0  0  0  0  0  0
  -25.9200  -11.8000   20.4830 N   0  0  0  0  0  0  0  0  0  0  0  0
  -23.9210  -10.5550   21.0200 C   0  0  0  0  0  0  0  0  0  0  0  0
  -24.3660   -9.5860   21.9450 C   0  0  0  0  0  3  0  0  0  0  0  0
  -23.6480   -8.3840   22.1260 C   0  0  0  0  0  3  0  0  0  0  0  0
  -22.4680   -8.1430   21.3810 C   0  0  0  0  0  0  0  0  0  0  0  0
  -22.0400   -9.1020   20.4460 C   0  0  0  0  0  3  0  0  0  0  0  0
  -22.7610  -10.2950   20.2620 C   0  0  0  0  0  3  0  0  0  0  0  0
  -21.7180   -6.9950   21.4730 O   0  0  0  0  0  0  0  0  0  0  0  0
  -21.6690   -6.2580   22.6290 C   0  0  0  0  0  0  0  0  0  0  0  0
  -21.2090   -6.8070   23.8450 C   0  0  0  0  0  3  0  0  0  0  0  0
  -21.1090   -5.9940   24.9920 C   0  0  0  0  0  3  0  0  0  0  0  0
  -21.4600   -4.6330   24.9230 C   0  0  0  0  0  0  0  0  0  0  0  0
  -21.9130   -4.0820   23.7110 C   0  0  0  0  0  3  0  0  0  0  0  0
  -22.0140   -4.8930   22.5670 C   0  0  0  0  0  0  0  0  0  0  0  0
  -22.4300   -4.3530   21.3970 F   0  0  0  0  0  0  0  0  0  0  0  0
  -21.3570   -3.8510   26.0220 F   0  0  0  0  0  0  0  0  0  0  0  0
  -22.7720  -13.6370   21.2000 C   0  0  0  0  0  0  0  0  0  0  0  0
  -22.0710  -12.9330   22.0790 N   0  0  0  0  0  0  0  0  0  0  0  0
  -22.3170  -14.6640   20.6960 O   0  0  0  0  0  0  0  0  0  0  0  0
  -22.4540  -12.1050   22.5110 H   0  0  0  0  0  0  0  0  0  0  0  0
  -21.1350  -13.2250   22.3260 H   0  0  0  0  0  0  0  0  0  0  0  0
  -25.3690  -15.3310   20.3420 N   0  0  0  0  0  0  0  0  0  0  0  0
  -24.6060  -15.9820   20.4920 H   0  0  0  0  0  0  0  0  0  0  0  0
  -26.2130  -15.7790   20.0080 H   0  0  0  0  0  0  0  0  0  0  0  0
  -27.8100  -24.5210   19.9630 C   0  0  0  0  0  2  0  0  0  0  0  0
  -28.2010  -26.0500   20.2380 O   0  0  0  0  0  0  0  0  0  0  0  0
  -24.6530  -31.8890   23.2790 C   0  0  0  0  0  0  0  0  0  0  0  0
  -27.1950  -27.1240   20.1790 C   0  0  0  0  0  0  0  0  0  0  0  0
  -23.4440  -30.5110   21.6350 C   0  0  0  0  0  3  0  0  0  0  0  0
  -24.8840  -28.9460   20.1800 C   0  0  0  0  0  0  0  0  0  0  0  0
  -26.0050  -30.7520   21.4630 C   0  0  0  0  0  2  0  0  0  0  0  0
  -26.0750  -29.3590   20.7920 C   0  0  0  0  0  0  0  0  0  0  0  0
  -27.2280  -28.4680   20.7730 C   0  0  0  0  0  3  0  0  0  0  0  0
  -25.9760  -26.8500   19.5190 C   0  0  0  0  0  3  0  0  0  0  0  0
  -24.8530  -27.7090   19.5260 C   0  0  0  0  0  3  0  0  0  0  0  0
  -23.6600  -29.8500   20.2470 C   0  0  0  0  0  2  0  0  0  0  0  0
  -24.7220  -31.0750   22.1800 N   0  0  0  0  0  0  0  0  0  0  0  0
  -23.5700  -32.1700   23.8150 O   0  0  0  0  0  0  0  0  0  0  0  0
  -22.7680  -29.4960   22.5910 C   0  0  0  0  0  0  0  0  0  0  0  0
  -21.4400  -29.3160   22.4660 N   0  0  0  0  0  0  0  0  0  0  0  0
  -23.4420  -28.8700   23.4130 O   0  0  0  0  0  0  0  0  0  0  0  0
  -20.9490  -29.8750   21.7820 H   0  0  0  0  0  0  0  0  0  0  0  0
  -18.0710  -28.0660   22.9520 C   0  0  0  0  0  0  0  0  0  0  0  0
  -20.6250  -28.3680   23.2320 C   0  0  0  0  0  3  0  0  0  0  0  0
  -20.7490  -26.9350   22.6590 C   0  0  0  0  0  2  0  0  0  0  0  0
  -19.6580  -26.5980   21.6380 C   0  0  0  0  0  2  0  0  0  0  0  0
  -18.2710  -26.7210   22.2740 C   0  0  0  0  0  2  0  0  0  0  0  0
  -19.1760  -28.8460   23.3860 C   0  0  0  0  0  0  0  0  0  0  0  0
  -18.9340  -30.1040   23.9820 C   0  0  0  0  0  3  0  0  0  0  0  0
  -17.6210  -30.5830   24.1450 C   0  0  0  0  0  3  0  0  0  0  0  0
  -16.5310  -29.8000   23.7260 C   0  0  0  0  0  3  0  0  0  0  0  0
  -16.7570  -28.5450   23.1340 C   0  0  0  0  0  3  0  0  0  0  0  0
  -25.9330  -32.5210   23.9040 C   0  0  0  0  0  3  0  0  0  0  0  0
  -26.4410  -31.7540   25.1880 C   0  0  1  0  0  0  0  0  0  0  0  0
  -25.3420  -31.5290   26.2530 C   0  0  0  0  0  1  0  0  0  0  0  0
  -27.0200  -30.3710   24.8110 C   0  0  0  0  0  1  0  0  0  0  0  0
  -27.5920  -32.5470   25.8500 C   0  0  0  0  0  1  0  0  0  0  0  0
  -25.6240  -33.9220   24.2400 N   0  0  0  0  0  0  0  0  0  0  0  0
  -25.9260  -34.9780   23.4730 C   0  0  0  0  0  0  0  0  0  0  0  0
  -26.5590  -34.8790   22.4190 O   0  0  0  0  0  0  0  0  0  0  0  0
  -25.0590  -34.0750   25.0610 H   0  0  0  0  0  0  0  0  0  0  0  0
  -24.1650  -36.7600   23.2110 C   0  0  0  0  0  1  0  0  0  0  0  0
  -25.4540  -36.3660   23.9510 C   0  0  0  0  0  3  0  0  0  0  0  0
  -27.6200  -37.2820   24.6600 C   0  0  0  0  0  1  0  0  0  0  0  0
  -26.4680  -37.4290   23.7740 N   0  0  0  0  0  0  0  0  0  0  0  0
  -26.0600  -38.3450   23.9350 H   0  0  0  0  0  0  0  0  0  0  0  0
  1  3  2  0
  1  5  1  0
  2  4  1  0
  3  6  1  0
  5  2  2  0
  6  8  1  0
  6  4  2  0
  8  9  1  0
  8  7  1  0
 10  9  1  0
 11 16  1  0
 12 13  1  0
 12 11  1  0
 14 13  1  0
 14 21  1  0
 14 15  1  0
 16 10  1  0
 16 15  1  0
 17 10  2  0
 18 19  2  0
 19 38  1  0
 20 19  1  0
 20 23  1  0
 21 22  1  0
 21 18  1  0
 22 20  2  0
 23 24  1  0
 24 25  2  0
 26 29  1  0
 26 25  1  0
 27 26  2  0
 28 27  1  0
 28 23  2  0
 29 30  1  0
 30 31  1  0
 31 32  2  0
 33 32  1  0
 33 37  1  0
 34 33  2  0
 35 30  2  0
 35 34  1  0
 36 35  1  0
 38 39  1  0
 39 42  1  0
 39 41  1  0
 40 38  2  0
 43 44  1  0
 43 18  1  0
 45 43  1  0
 46  5  1  0
 46 47  1  0
 48 59  2  0
 49 47  1  0
 49 54  1  0
 50 58  1  0
 50 60  1  0
 51 57  1  0
 51 53  1  0
 52 58  1  0
 53 52  1  0
 54 53  2  0
 55 56  1  0
 55 49  2  0
 56 51  2  0
 57 50  1  0
 58 48  1  0
 60 62  2  0
 61 60  1  0
 63 61  1  0
 64 73  2  0
 64 69  1  0
 65 61  1  0
 65 69  1  0
 66 65  1  0
 67 68  1  0
 67 66  1  0
 68 64  1  0
 69 70  2  0
 70 71  1  0
 72 71  2  0
 73 72  1  0
 74 48  1  0
 74 79  1  0
 74 75  1  0
 75 78  1  1
 75 76  1  0
 77 75  1  0
 79 82  1  0
 80 84  1  0
 80 79  1  0
 81 80  2  0
 84 83  1  0
 86 87  1  0
 86 84  1  0
 86 85  1  0
M  ISO  4   9 100  10 100  46 101  47 101
M  END
>  <TORSDO>  (94) 
F 19

>  <SCORE>  (94) 
-16.189

>  <name>  (94) 
93

>  <ligand_id>  (94) 
93

>  <original_smiles>  (94) 
[H]c1c([H])c([H])c2c(c1[H])C([H])([H])C([H])([H])C([H])([H])C2([H])N([H])C(=O)C1([H])N(C(=O)C([H])(N([H])C(=O)C([H])(N([H])C([H])([H])[H])C([H])([H])[H])C(C([H])([H])[H])(C([H])([H])[H])C([H])([H])[H])C([H])([H])c2c([H])c(OC([H])([H])c3c([H])c([H])c(C([H])(C([H])([H])[H])C([H])([H])C(=O)N4C([H])([H])C([H])([H])C([H])([H])C([H])(n5nc(-c6c([H])c([H])c(Oc7c([H])c([H])c(F)c([H])c7F)c([H])c6[H])c(C(=O)N([H])[H])c5N([H])[H])C4([H])[H])c([H])c3[H])c([H])c([H])c2C1([H])[H]

>  <smiles>  (94) 
[H]c1c([H])c([H])c2c(c1[H])C([H])([H])C([H])([H])C([H])([H])C2([H])N([H])C(=O)C1([H])N(C(=O)C([H])(N([H])C(=O)C([H])(N([H])C([H])([H])[H])C([H])([H])[H])C(C([H])([H])[H])(C([H])([H])[H])C([H])([H])[H])C([H])([H])c2c([H])c(OC([H])([H])c3c([H])c([H])c(C([H])(C([H])([H])[H])C([H])([H])C(=O)N4C([H])([H])C([H])([H])C([H])([H])C([H])(n5nc(-c6c([H])c([H])c(Oc7c([H])c([H])c(F)c([H])c7F)c([H])c6[H])c(C(=O)N([H])[H])c5N([H])[H])C4([H])[H])c([H])c3[H])c([H])c([H])c2C1([H])[H]

$$$$
94:0:0
     RDKit          3D

 88 96  0  0  1  0  0  0  0  0999 V2000
  -27.9820  -19.5870   20.8710 C   0  0  0  0  0  2  0  0  0  0  0  0
  -28.5570  -20.8710   21.5120 C   0  0  0  0  0  2  0  0  0  0  0  0
  -29.0680  -19.5690   19.7860 C   0  0  0  0  0  3  0  0  0  0  0  0
  -29.2220  -21.3130   20.2000 C   0  0  0  0  0  3  0  0  0  0  0  0
  -30.5320  -15.4260   19.8120 C   0  0  0  0  0  0  0  0  0  0  0  0
  -30.4510  -12.9860   18.9250 C   0  0  0  0  0  2  0  0  0  0  0  0
  -29.4480  -12.7740   17.7640 C   0  0  0  0  0  2  0  0  0  0  0  0
  -28.0310  -12.5080   18.3020 C   0  0  0  0  0  2  0  0  0  0  0  0
  -27.6570  -13.4650   19.4600 C   0  0  0  0  0  3  0  0  0  0  0  0
  -28.7830  -13.6080   20.5040 C   0  0  0  0  0  2  0  0  0  0  0  0
  -29.9550  -14.1240   19.7810 N   0  0  0  0  0  0  0  0  0  0  0  0
  -31.7450  -15.4040   19.5600 O   0  0  0  0  0  0  0  0  0  0  0  0
  -30.0800  -18.1410   19.9340 C   0  0  0  0  0  0  0  0  0  0  0  0
  -29.7620  -16.6940   19.8960 N   0  0  0  0  0  0  0  0  0  0  0  0
  -31.2710  -18.4320   20.0750 O   0  0  0  0  0  0  0  0  0  0  0  0
  -28.7700  -16.5280   19.9000 H   0  0  0  0  0  0  0  0  0  0  0  0
  -25.3540  -14.0140   20.4060 C   0  0  0  0  0  0  0  0  0  0  0  0
  -24.3170  -13.2320   20.8320 C   0  0  0  0  0  0  0  0  0  0  0  0
  -24.7730  -11.8820   20.7310 C   0  0  0  0  0  0  0  0  0  0  0  0
  -26.3700  -13.1420   20.0610 N   0  0  0  0  0  0  0  0  0  0  0  0
  -26.0380  -11.8520   20.3260 N   0  0  0  0  0  0  0  0  0  0  0  0
  -24.0550  -10.6180   20.9380 C   0  0  0  0  0  0  0  0  0  0  0  0
  -24.5200   -9.6440   21.8490 C   0  0  0  0  0  3  0  0  0  0  0  0
  -23.7970   -8.4460   22.0470 C   0  0  0  0  0  3  0  0  0  0  0  0
  -22.5970   -8.2150   21.3350 C   0  0  0  0  0  0  0  0  0  0  0  0
  -22.1520   -9.1780   20.4120 C   0  0  0  0  0  3  0  0  0  0  0  0
  -22.8730  -10.3660   20.2120 C   0  0  0  0  0  3  0  0  0  0  0  0
  -21.8430   -7.0720   21.4440 O   0  0  0  0  0  0  0  0  0  0  0  0
  -21.8050   -6.3420   22.6050 C   0  0  0  0  0  0  0  0  0  0  0  0
  -21.3550   -6.8990   23.8220 C   0  0  0  0  0  3  0  0  0  0  0  0
  -21.2680   -6.0930   24.9740 C   0  0  0  0  0  3  0  0  0  0  0  0
  -21.6190   -4.7310   24.9110 C   0  0  0  0  0  0  0  0  0  0  0  0
  -22.0600   -4.1730   23.6990 C   0  0  0  0  0  3  0  0  0  0  0  0
  -22.1510   -4.9760   22.5480 C   0  0  0  0  0  0  0  0  0  0  0  0
  -22.5560   -4.4280   21.3770 F   0  0  0  0  0  0  0  0  0  0  0  0
  -21.5270   -3.9550   26.0160 F   0  0  0  0  0  0  0  0  0  0  0  0
  -22.9450  -13.7080   21.2060 C   0  0  0  0  0  0  0  0  0  0  0  0
  -22.2730  -12.9960   22.1030 N   0  0  0  0  0  0  0  0  0  0  0  0
  -22.4800  -14.7470   20.7370 O   0  0  0  0  0  0  0  0  0  0  0  0
  -22.6650  -12.1610   22.5090 H   0  0  0  0  0  0  0  0  0  0  0  0
  -21.3520  -13.2980   22.3890 H   0  0  0  0  0  0  0  0  0  0  0  0
  -25.5040  -15.3890   20.2510 N   0  0  0  0  0  0  0  0  0  0  0  0
  -24.7400  -16.0290   20.4360 H   0  0  0  0  0  0  0  0  0  0  0  0
  -26.2950  -15.8420   19.8150 H   0  0  0  0  0  0  0  0  0  0  0  0
  -29.6110  -23.2440   18.3730 C   0  0  0  0  0  1  0  0  0  0  0  0
  -28.6720  -22.8940   19.5320 C   0  0  0  0  0  3  0  0  0  0  0  0
  -28.2410  -24.4640   20.2980 C   0  0  0  0  0  2  0  0  0  0  0  0
  -28.3090  -26.0570   19.8930 O   0  0  0  0  0  0  0  0  0  0  0  0
  -24.6790  -31.8700   23.0850 C   0  0  0  0  0  0  0  0  0  0  0  0
  -27.2510  -27.0980   19.9540 C   0  0  0  0  0  0  0  0  0  0  0  0
  -23.4740  -30.4850   21.4450 C   0  0  0  0  0  3  0  0  0  0  0  0
  -24.9180  -28.9230   19.9760 C   0  0  0  0  0  0  0  0  0  0  0  0
  -26.0320  -30.7460   21.2490 C   0  0  0  0  0  2  0  0  0  0  0  0
  -26.1110  -29.3460   20.5750 C   0  0  0  0  0  0  0  0  0  0  0  0
  -27.2760  -28.4590   20.5320 C   0  0  0  0  0  3  0  0  0  0  0  0
  -26.0220  -26.8130   19.3230 C   0  0  0  0  0  3  0  0  0  0  0  0
  -24.8950  -27.6750   19.3300 C   0  0  0  0  0  3  0  0  0  0  0  0
  -23.6870  -29.8240   20.0560 C   0  0  0  0  0  2  0  0  0  0  0  0
  -24.7510  -31.0600   21.9800 N   0  0  0  0  0  0  0  0  0  0  0  0
  -23.5960  -32.1340   23.6310 O   0  0  0  0  0  0  0  0  0  0  0  0
  -22.8150  -29.4630   22.4070 C   0  0  0  0  0  0  0  0  0  0  0  0
  -21.4870  -29.2740   22.2980 N   0  0  0  0  0  0  0  0  0  0  0  0
  -23.5050  -28.8380   23.2170 O   0  0  0  0  0  0  0  0  0  0  0  0
  -20.9820  -29.8300   21.6210 H   0  0  0  0  0  0  0  0  0  0  0  0
  -18.1360  -27.9920   22.8400 C   0  0  0  0  0  0  0  0  0  0  0  0
  -20.6950  -28.3100   23.0680 C   0  0  0  0  0  3  0  0  0  0  0  0
  -20.8160  -26.8880   22.4730 C   0  0  0  0  0  2  0  0  0  0  0  0
  -19.7060  -26.5550   21.4710 C   0  0  0  0  0  2  0  0  0  0  0  0
  -18.3320  -26.6580   22.1380 C   0  0  0  0  0  2  0  0  0  0  0  0
  -19.2450  -28.7750   23.2620 C   0  0  0  0  0  0  0  0  0  0  0  0
  -19.0070  -30.0190   23.8830 C   0  0  0  0  0  3  0  0  0  0  0  0
  -17.6930  -30.4850   24.0840 C   0  0  0  0  0  3  0  0  0  0  0  0
  -16.6000  -29.7020   23.6740 C   0  0  0  0  0  3  0  0  0  0  0  0
  -16.8220  -28.4570   23.0590 C   0  0  0  0  0  3  0  0  0  0  0  0
  -25.9540  -32.5210   23.7050 C   0  0  0  0  0  3  0  0  0  0  0  0
  -25.6200  -33.9090   24.0710 N   0  0  0  0  0  0  0  0  0  0  0  0
  -25.9300  -34.9910   23.3430 C   0  0  0  0  0  0  0  0  0  0  0  0
  -26.5900  -34.9250   22.3030 O   0  0  0  0  0  0  0  0  0  0  0  0
  -25.0280  -34.0310   24.8800 H   0  0  0  0  0  0  0  0  0  0  0  0
  -24.1820  -36.7820   23.0560 C   0  0  0  0  0  1  0  0  0  0  0  0
  -25.4310  -36.3610   23.8460 C   0  0  0  0  0  3  0  0  0  0  0  0
  -27.5590  -37.2500   24.6970 C   0  0  0  0  0  1  0  0  0  0  0  0
  -26.4520  -37.4300   23.7610 N   0  0  0  0  0  0  0  0  0  0  0  0
  -26.0350  -38.3400   23.9350 H   0  0  0  0  0  0  0  0  0  0  0  0
  -26.4940  -31.7400   24.9680 C   0  0  1  0  0  0  0  0  0  0  0  0
  -25.4170  -31.4750   26.0470 C   0  0  0  0  0  1  0  0  0  0  0  0
  -27.0900  -30.3740   24.5600 C   0  0  0  0  0  1  0  0  0  0  0  0
  -27.6410  -32.5410   25.6260 C   0  0  0  0  0  1  0  0  0  0  0  0
  1  2  1  0
  3 13  1  0
  3  4  1  0
  3  1  1  0
  4 46  1  0
  4  2  1  0
  5 14  1  0
  6 11  1  0
  7  8  1  0
  7  6  1  0
  9  8  1  0
  9 20  1  0
  9 10  1  0
 11  5  1  0
 11 10  1  0
 12  5  2  0
 13 15  2  0
 14 16  1  0
 14 13  1  0
 17 18  2  0
 18 37  1  0
 19 18  1  0
 19 22  1  0
 20 21  1  0
 20 17  1  0
 21 19  2  0
 22 23  1  0
 23 24  2  0
 25 28  1  0
 25 24  1  0
 26 25  2  0
 27 26  1  0
 27 22  2  0
 28 29  1  0
 29 30  1  0
 30 31  2  0
 32 31  1  0
 32 36  1  0
 33 32  2  0
 34 29  2  0
 34 33  1  0
 35 34  1  0
 37 38  1  0
 38 41  1  0
 38 40  1  0
 39 37  2  0
 42 17  1  0
 42 43  1  0
 44 42  1  0
 46 45  1  0
 46 47  1  0
 48 50  1  0
 48 47  1  0
 49 60  2  0
 50 55  1  0
 51 59  1  0
 51 61  1  0
 52 58  1  0
 52 54  1  0
 53 59  1  0
 54 53  1  0
 55 54  2  0
 56 57  1  0
 56 50  2  0
 57 52  2  0
 58 51  1  0
 59 49  1  0
 61 63  2  0
 62 61  1  0
 64 62  1  0
 65 74  2  0
 65 70  1  0
 66 62  1  0
 66 70  1  0
 67 66  1  0
 68 69  1  0
 68 67  1  0
 69 65  1  0
 70 71  2  0
 71 72  1  0
 73 72  2  0
 74 73  1  0
 75 49  1  0
 75 76  1  0
 75 85  1  0
 76 79  1  0
 77 81  1  0
 77 76  1  0
 78 77  2  0
 81 80  1  0
 83 81  1  0
 83 84  1  0
 83 82  1  0
 85 88  1  1
 85 86  1  0
 87 85  1  0
M  ISO  4   5 100  14 100  47 101  48 101
M  END
>  <TORSDO>  (95) 
F 18

>  <SCORE>  (95) 
-15.023

>  <name>  (95) 
94

>  <ligand_id>  (95) 
94

>  <original_smiles>  (95) 
[H]c1c([H])c([H])c2c(c1[H])C([H])([H])C([H])([H])C([H])([H])C2([H])N([H])C(=O)C1([H])N(C(=O)C([H])(N([H])C(=O)C([H])(N([H])C([H])([H])[H])C([H])([H])[H])C(C([H])([H])[H])(C([H])([H])[H])C([H])([H])[H])C([H])([H])c2c([H])c(OC([H])([H])C([H])(C([H])([H])[H])C3([H])C([H])([H])C([H])([H])C3([H])C(=O)N([H])C(=O)N3C([H])([H])C([H])([H])C([H])([H])C([H])(n4nc(-c5c([H])c([H])c(Oc6c([H])c([H])c(F)c([H])c6F)c([H])c5[H])c(C(=O)N([H])[H])c4N([H])[H])C3([H])[H])c([H])c([H])c2C1([H])[H]

>  <smiles>  (95) 
[H]c1c([H])c([H])c2c(c1[H])C([H])([H])C([H])([H])C([H])([H])C2([H])N([H])C(=O)C1([H])N(C(=O)C([H])(N([H])C(=O)C([H])(N([H])C([H])([H])[H])C([H])([H])[H])C(C([H])([H])[H])(C([H])([H])[H])C([H])([H])[H])C([H])([H])c2c([H])c(OC([H])([H])C([H])(C([H])([H])[H])C3([H])C([H])([H])C([H])([H])C3([H])C(=O)N([H])C(=O)N3C([H])([H])C([H])([H])C([H])([H])C([H])(n4nc(-c5c([H])c([H])c(Oc6c([H])c([H])c(F)c([H])c6F)c([H])c5[H])c(C(=O)N([H])[H])c4N([H])[H])C3([H])[H])c([H])c([H])c2C1([H])[H]

$$$$
95:0:0
     RDKit          3D

 85 93  0  0  1  0  0  0  0  0999 V2000
  -28.5190  -23.0190   19.2440 C   0  0  0  0  0  2  0  0  0  0  0  0
  -28.5450  -23.0520   21.2800 C   0  0  0  0  0  2  0  0  0  0  0  0
  -29.1170  -21.8680   20.2750 C   0  0  0  0  0  3  0  0  0  0  0  0
  -27.9770  -24.2100   20.2510 C   0  0  0  0  0  3  0  0  0  0  0  0
  -28.7760  -20.1100   20.3340 C   0  0  0  0  0  0  0  0  0  0  0  0
  -27.5910  -19.7910   20.4490 O   0  0  0  0  0  0  0  0  0  0  0  0
  -29.8130  -18.6800   20.2700 C   0  0  0  0  0  3  0  0  0  0  0  0
  -29.4770  -16.8980   20.4710 C   0  0  0  0  0  3  0  0  0  0  0  0
  -30.3530  -15.3750   20.2270 C   0  0  0  0  0  0  0  0  0  0  0  0
  -30.3790  -12.9190   19.3350 C   0  0  0  0  0  2  0  0  0  0  0  0
  -29.4370  -12.7270   18.1170 C   0  0  0  0  0  2  0  0  0  0  0  0
  -27.9950  -12.4380   18.5730 C   0  0  0  0  0  2  0  0  0  0  0  0
  -27.5570  -13.3790   19.7210 C   0  0  0  0  0  3  0  0  0  0  0  0
  -28.6230  -13.5140   20.8280 C   0  0  0  0  0  2  0  0  0  0  0  0
  -29.8470  -14.0380   20.2010 N   0  0  0  0  0  0  0  0  0  0  0  0
  -31.5590  -15.4020   19.9360 O   0  0  0  0  0  0  0  0  0  0  0  0
  -25.1980  -13.9110   20.5240 C   0  0  0  0  0  0  0  0  0  0  0  0
  -24.1480  -13.1240   20.9060 C   0  0  0  0  0  0  0  0  0  0  0  0
  -24.6250  -11.7770   20.8570 C   0  0  0  0  0  0  0  0  0  0  0  0
  -26.2420  -13.0470   20.2530 N   0  0  0  0  0  0  0  0  0  0  0  0
  -25.9120  -11.7560   20.5210 N   0  0  0  0  0  0  0  0  0  0  0  0
  -23.9100  -10.5080   21.0510 C   0  0  0  0  0  0  0  0  0  0  0  0
  -24.3460   -9.5490   21.9910 C   0  0  0  0  0  3  0  0  0  0  0  0
  -23.6280   -8.3470   22.1740 C   0  0  0  0  0  3  0  0  0  0  0  0
  -22.4590   -8.0970   21.4170 C   0  0  0  0  0  0  0  0  0  0  0  0
  -22.0410   -9.0450   20.4660 C   0  0  0  0  0  3  0  0  0  0  0  0
  -22.7600  -10.2370   20.2830 C   0  0  0  0  0  3  0  0  0  0  0  0
  -21.7130   -6.9470   21.5080 O   0  0  0  0  0  0  0  0  0  0  0  0
  -21.6450   -6.2220   22.6720 C   0  0  0  0  0  0  0  0  0  0  0  0
  -21.1550   -6.7830   23.8710 C   0  0  0  0  0  3  0  0  0  0  0  0
  -21.0380   -5.9830   25.0270 C   0  0  0  0  0  3  0  0  0  0  0  0
  -21.4000   -4.6240   24.9820 C   0  0  0  0  0  0  0  0  0  0  0  0
  -21.8840   -4.0620   23.7860 C   0  0  0  0  0  3  0  0  0  0  0  0
  -22.0020   -4.8590   22.6340 C   0  0  0  0  0  0  0  0  0  0  0  0
  -22.4480   -4.3070   21.4800 F   0  0  0  0  0  0  0  0  0  0  0  0
  -21.2820   -3.8540   26.0890 F   0  0  0  0  0  0  0  0  0  0  0  0
  -22.7520  -13.5890   21.2010 C   0  0  0  0  0  0  0  0  0  0  0  0
  -22.0450  -12.8870   22.0790 N   0  0  0  0  0  0  0  0  0  0  0  0
  -22.2970  -14.6100   20.6860 O   0  0  0  0  0  0  0  0  0  0  0  0
  -22.4270  -12.0610   22.5170 H   0  0  0  0  0  0  0  0  0  0  0  0
  -21.1090  -13.1810   22.3200 H   0  0  0  0  0  0  0  0  0  0  0  0
  -25.3460  -15.2850   20.3570 N   0  0  0  0  0  0  0  0  0  0  0  0
  -24.5800  -15.9340   20.4980 H   0  0  0  0  0  0  0  0  0  0  0  0
  -26.1910  -15.7370   20.0320 H   0  0  0  0  0  0  0  0  0  0  0  0
  -28.1910  -25.8640   20.2670 O   0  0  0  0  0  0  0  0  0  0  0  0
  -24.6310  -31.8680   23.2330 C   0  0  0  0  0  0  0  0  0  0  0  0
  -27.1740  -26.9650   20.2190 C   0  0  0  0  0  0  0  0  0  0  0  0
  -23.4350  -30.4780   21.5900 C   0  0  0  0  0  3  0  0  0  0  0  0
  -24.8800  -28.8650   20.1690 C   0  0  0  0  0  0  0  0  0  0  0  0
  -26.0030  -30.6760   21.4480 C   0  0  0  0  0  2  0  0  0  0  0  0
  -26.0690  -29.2640   20.7910 C   0  0  0  0  0  0  0  0  0  0  0  0
  -27.2100  -28.3380   20.7880 C   0  0  0  0  0  3  0  0  0  0  0  0
  -25.9530  -26.7230   19.5490 C   0  0  0  0  0  3  0  0  0  0  0  0
  -24.8490  -27.6160   19.5270 C   0  0  0  0  0  3  0  0  0  0  0  0
  -23.6660  -29.7930   20.2150 C   0  0  0  0  0  2  0  0  0  0  0  0
  -24.7120  -31.0350   22.1440 N   0  0  0  0  0  0  0  0  0  0  0  0
  -23.5430  -32.1610   23.7520 O   0  0  0  0  0  0  0  0  0  0  0  0
  -22.7350  -29.4860   22.5560 C   0  0  0  0  0  0  0  0  0  0  0  0
  -21.4040  -29.3250   22.4280 N   0  0  0  0  0  0  0  0  0  0  0  0
  -23.3960  -28.8580   23.3860 O   0  0  0  0  0  0  0  0  0  0  0  0
  -20.9230  -29.8820   21.7360 H   0  0  0  0  0  0  0  0  0  0  0  0
  -18.0160  -28.1260   22.9340 C   0  0  0  0  0  0  0  0  0  0  0  0
  -20.5770  -28.3880   23.1980 C   0  0  0  0  0  3  0  0  0  0  0  0
  -20.6760  -26.9570   22.6210 C   0  0  0  0  0  2  0  0  0  0  0  0
  -19.5730  -26.6380   21.6050 C   0  0  0  0  0  2  0  0  0  0  0  0
  -18.1920  -26.7800   22.2500 C   0  0  0  0  0  2  0  0  0  0  0  0
  -19.1360  -28.8880   23.3640 C   0  0  0  0  0  0  0  0  0  0  0  0
  -18.9160  -30.1450   23.9670 C   0  0  0  0  0  3  0  0  0  0  0  0
  -17.6100  -30.6430   24.1400 C   0  0  0  0  0  3  0  0  0  0  0  0
  -16.5060  -29.8790   23.7240 C   0  0  0  0  0  3  0  0  0  0  0  0
  -16.7090  -28.6220   23.1270 C   0  0  0  0  0  3  0  0  0  0  0  0
  -25.9030  -32.5060   23.8690 C   0  0  0  0  0  3  0  0  0  0  0  0
  -26.4090  -31.7330   25.1500 C   0  0  1  0  0  0  0  0  0  0  0  0
  -25.3080  -31.4950   26.2100 C   0  0  0  0  0  1  0  0  0  0  0  0
  -26.9940  -30.3540   24.7680 C   0  0  0  0  0  1  0  0  0  0  0  0
  -27.5560  -32.5250   25.8210 C   0  0  0  0  0  1  0  0  0  0  0  0
  -25.5850  -33.9040   24.2170 N   0  0  0  0  0  0  0  0  0  0  0  0
  -25.8870  -34.9700   23.4650 C   0  0  0  0  0  0  0  0  0  0  0  0
  -26.5260  -34.8840   22.4130 O   0  0  0  0  0  0  0  0  0  0  0  0
  -25.0120  -34.0440   25.0360 H   0  0  0  0  0  0  0  0  0  0  0  0
  -24.1290  -36.7560   23.2060 C   0  0  0  0  0  1  0  0  0  0  0  0
  -25.4090  -36.3540   23.9560 C   0  0  0  0  0  3  0  0  0  0  0  0
  -27.5680  -37.2630   24.7000 C   0  0  0  0  0  1  0  0  0  0  0  0
  -26.4260  -37.4190   23.8020 N   0  0  0  0  0  0  0  0  0  0  0  0
  -26.0160  -38.3340   23.9650 H   0  0  0  0  0  0  0  0  0  0  0  0
  1  4  1  0
  1  3  1  0
  3  5  1  0
  3  2  1  0
  4 45  1  0
  4  2  1  0
  5  6  2  0
  7  5  1  0
  7  8  2  0
  9  8  1  0
 10 15  1  0
 11 12  1  0
 11 10  1  0
 13 12  1  0
 13 20  1  0
 13 14  1  0
 15  9  1  0
 15 14  1  0
 16  9  2  0
 17 18  2  0
 18 37  1  0
 19 18  1  0
 19 22  1  0
 20 21  1  0
 20 17  1  0
 21 19  2  0
 22 23  1  0
 23 24  2  0
 25 28  1  0
 25 24  1  0
 26 25  2  0
 27 26  1  0
 27 22  2  0
 28 29  1  0
 29 30  1  0
 30 31  2  0
 32 31  1  0
 32 36  1  0
 33 32  2  0
 34 29  2  0
 34 33  1  0
 35 34  1  0
 37 38  1  0
 38 41  1  0
 38 40  1  0
 39 37  2  0
 42 43  1  0
 42 17  1  0
 44 42  1  0
 46 57  2  0
 47 45  1  0
 47 52  1  0
 48 56  1  0
 48 58  1  0
 49 55  1  0
 49 51  1  0
 50 56  1  0
 51 50  1  0
 52 51  2  0
 53 47  2  0
 54 53  1  0
 54 49  2  0
 55 48  1  0
 56 46  1  0
 58 60  2  0
 59 58  1  0
 61 59  1  0
 62 71  2  0
 62 67  1  0
 63 59  1  0
 63 67  1  0
 64 63  1  0
 65 66  1  0
 65 64  1  0
 66 62  1  0
 67 68  2  0
 68 69  1  0
 70 69  2  0
 71 70  1  0
 72 46  1  0
 72 77  1  0
 72 73  1  0
 73 76  1  1
 73 74  1  0
 75 73  1  0
 77 80  1  0
 78 82  1  0
 78 77  1  0
 79 78  2  0
 82 81  1  0
 84 82  1  0
 84 85  1  0
 84 83  1  0
M  ISO  4   4 101   8 100   9 100  45 101
M  END
>  <TORSDO>  (96) 
F 19

>  <SCORE>  (96) 
-16.453

>  <name>  (96) 
95

>  <ligand_id>  (96) 
95

>  <original_smiles>  (96) 
[H]c1c([H])c([H])c2c(c1[H])C([H])([H])C([H])([H])C([H])([H])C2([H])N([H])C(=O)C1([H])N(C(=O)C([H])(N([H])C(=O)C([H])(N([H])C([H])([H])[H])C([H])([H])[H])C(C([H])([H])[H])(C([H])([H])[H])C([H])([H])[H])C([H])([H])c2c([H])c(OC3([H])C([H])([H])C([H])(C(=O)C([H])([H])C([H])([H])C(=O)N4C([H])([H])C([H])([H])C([H])([H])C([H])(n5nc(-c6c([H])c([H])c(Oc7c([H])c([H])c(F)c([H])c7F)c([H])c6[H])c(C(=O)N([H])[H])c5N([H])[H])C4([H])[H])C3([H])[H])c([H])c([H])c2C1([H])[H]

>  <smiles>  (96) 
[H]c1c([H])c([H])c2c(c1[H])C([H])([H])C([H])([H])C([H])([H])C2([H])N([H])C(=O)C1([H])N(C(=O)C([H])(N([H])C(=O)C([H])(N([H])C([H])([H])[H])C([H])([H])[H])C(C([H])([H])[H])(C([H])([H])[H])C([H])([H])[H])C([H])([H])c2c([H])c(OC3([H])C([H])([H])C([H])(C(=O)C([H])([H])C([H])([H])C(=O)N4C([H])([H])C([H])([H])C([H])([H])C([H])(n5nc(-c6c([H])c([H])c(Oc7c([H])c([H])c(F)c([H])c7F)c([H])c6[H])c(C(=O)N([H])[H])c5N([H])[H])C4([H])[H])C3([H])[H])c([H])c([H])c2C1([H])[H]

$$$$
