0:0:0
     RDKit          3D

 89 97  0  0  1  0  0  0  0  0999 V2000
  -28.9210  -22.8240   21.8550 C   0  0  0  0  0  1  0  0  0  0  0  0
  -30.6430  -23.4670   20.1810 C   0  0  0  0  0  1  0  0  0  0  0  0
  -29.1700  -23.0420   20.3500 C   0  0  1  0  0  0  0  0  0  0  0  0
  -29.0790  -21.4360   19.6640 C   0  0  0  0  0  0  0  0  0  0  0  0
  -28.2050  -21.3090   18.8040 O   0  0  0  0  0  0  0  0  0  0  0  0
  -30.0110  -19.9830   19.9570 C   0  0  0  0  0  2  0  0  0  0  0  0
  -30.8100  -15.5060   19.8080 C   0  0  0  0  0  0  0  0  0  0  0  0
  -30.6950  -13.0490   18.9650 C   0  0  0  0  0  2  0  0  0  0  0  0
  -29.7330  -12.8570   17.7640 C   0  0  0  0  0  2  0  0  0  0  0  0
  -28.2960  -12.6070   18.2520 C   0  0  0  0  0  2  0  0  0  0  0  0
  -27.9030  -13.5740   19.3960 C   0  0  0  0  0  3  0  0  0  0  0  0
  -28.9930  -13.7030   20.4820 C   0  0  0  0  0  2  0  0  0  0  0  0
  -30.2170  -14.2040   19.8210 N   0  0  0  0  0  0  0  0  0  0  0  0
  -31.9530  -15.4950   19.3300 O   0  0  0  0  0  0  0  0  0  0  0  0
  -28.2760  -17.6390   21.3800 C   0  0  0  0  0  2  0  0  0  0  0  0
  -28.2080  -18.1100   19.9220 C   0  0  0  0  0  2  0  0  0  0  0  0
  -29.6400  -16.9470   21.5260 C   0  0  0  0  0  2  0  0  0  0  0  0
  -29.6790  -18.2670   19.5370 C   0  0  0  0  0  3  0  0  0  0  0  0
  -30.1580  -16.7990   20.1680 N   0  0  0  0  0  0  0  0  0  0  0  0
  -25.5810  -14.1560   20.2820 C   0  0  0  0  0  0  0  0  0  0  0  0
  -24.5220  -13.3940   20.6820 C   0  0  0  0  0  0  0  0  0  0  0  0
  -24.9570  -12.0370   20.5930 C   0  0  0  0  0  0  0  0  0  0  0  0
  -26.5930  -13.2690   19.9600 N   0  0  0  0  0  0  0  0  0  0  0  0
  -26.2300  -11.9840   20.2140 N   0  0  0  0  0  0  0  0  0  0  0  0
  -24.2120  -10.7870   20.7910 C   0  0  0  0  0  0  0  0  0  0  0  0
  -24.6200   -9.8240   21.7400 C   0  0  0  0  0  3  0  0  0  0  0  0
  -23.8730   -8.6410   21.9280 C   0  0  0  0  0  3  0  0  0  0  0  0
  -22.7010   -8.4140   21.1660 C   0  0  0  0  0  0  0  0  0  0  0  0
  -22.3110   -9.3650   20.2090 C   0  0  0  0  0  3  0  0  0  0  0  0
  -23.0580  -10.5390   20.0190 C   0  0  0  0  0  3  0  0  0  0  0  0
  -21.9300   -7.2800   21.2610 O   0  0  0  0  0  0  0  0  0  0  0  0
  -21.7930   -6.5970   22.4430 C   0  0  0  0  0  0  0  0  0  0  0  0
  -21.3060   -7.2220   23.6120 C   0  0  0  0  0  3  0  0  0  0  0  0
  -21.1140   -6.4670   24.7860 C   0  0  0  0  0  3  0  0  0  0  0  0
  -21.4000   -5.0900   24.7920 C   0  0  0  0  0  0  0  0  0  0  0  0
  -21.8800   -4.4640   23.6280 C   0  0  0  0  0  3  0  0  0  0  0  0
  -22.0730   -5.2160   22.4550 C   0  0  0  0  0  0  0  0  0  0  0  0
  -22.5150   -4.6050   21.3290 F   0  0  0  0  0  0  0  0  0  0  0  0
  -21.2090   -4.3610   25.9170 F   0  0  0  0  0  0  0  0  0  0  0  0
  -23.1520  -13.8970   21.0320 C   0  0  0  0  0  0  0  0  0  0  0  0
  -22.4580  -13.2100   21.9310 N   0  0  0  0  0  0  0  0  0  0  0  0
  -22.7110  -14.9370   20.5440 O   0  0  0  0  0  0  0  0  0  0  0  0
  -22.8350  -12.3740   22.3530 H   0  0  0  0  0  0  0  0  0  0  0  0
  -21.5440  -13.5340   22.2110 H   0  0  0  0  0  0  0  0  0  0  0  0
  -25.7530  -15.5280   20.1370 N   0  0  0  0  0  0  0  0  0  0  0  0
  -25.0050  -16.1830   20.3420 H   0  0  0  0  0  0  0  0  0  0  0  0
  -26.6040  -15.9780   19.8270 H   0  0  0  0  0  0  0  0  0  0  0  0
  -28.2220  -24.5070   19.9350 C   0  0  0  0  0  2  0  0  0  0  0  0
  -28.3190  -26.0830   20.3660 O   0  0  0  0  0  0  0  0  0  0  0  0
  -24.5850  -31.9090   23.2830 C   0  0  0  0  0  0  0  0  0  0  0  0
  -27.2760  -27.1360   20.2680 C   0  0  0  0  0  0  0  0  0  0  0  0
  -23.4370  -30.5180   21.6050 C   0  0  0  0  0  3  0  0  0  0  0  0
  -24.9370  -28.9520   20.1910 C   0  0  0  0  0  0  0  0  0  0  0  0
  -25.9990  -30.7760   21.5050 C   0  0  0  0  0  2  0  0  0  0  0  0
  -26.1050  -29.3780   20.8400 C   0  0  0  0  0  0  0  0  0  0  0  0
  -27.2660  -28.4880   20.8550 C   0  0  0  0  0  3  0  0  0  0  0  0
  -26.0800  -26.8530   19.5680 C   0  0  0  0  0  3  0  0  0  0  0  0
  -24.9490  -27.7090   19.5350 C   0  0  0  0  0  3  0  0  0  0  0  0
  -23.7030  -29.8520   20.2250 C   0  0  0  0  0  2  0  0  0  0  0  0
  -24.6930  -31.0930   22.1860 N   0  0  0  0  0  0  0  0  0  0  0  0
  -23.4830  -32.1770   23.7900 O   0  0  0  0  0  0  0  0  0  0  0  0
  -22.7400  -29.5010   22.5450 C   0  0  0  0  0  0  0  0  0  0  0  0
  -21.4220  -29.2990   22.3710 N   0  0  0  0  0  0  0  0  0  0  0  0
  -23.3960  -28.8960   23.3970 O   0  0  0  0  0  0  0  0  0  0  0  0
  -20.9470  -29.8390   21.6610 H   0  0  0  0  0  0  0  0  0  0  0  0
  -18.0680  -27.9660   22.7310 C   0  0  0  0  0  0  0  0  0  0  0  0
  -20.6000  -28.3380   23.1130 C   0  0  0  0  0  3  0  0  0  0  0  0
  -20.7860  -26.9050   22.5630 C   0  0  0  0  0  2  0  0  0  0  0  0
  -19.7480  -26.5260   21.5030 C   0  0  0  0  0  2  0  0  0  0  0  0
  -18.3320  -26.6190   22.0780 C   0  0  0  0  0  2  0  0  0  0  0  0
  -19.1330  -28.7800   23.2020 C   0  0  0  0  0  0  0  0  0  0  0  0
  -18.8320  -30.0340   23.7760 C   0  0  0  0  0  3  0  0  0  0  0  0
  -17.5000  -30.4790   23.8800 C   0  0  0  0  0  3  0  0  0  0  0  0
  -16.4500  -29.6650   23.4210 C   0  0  0  0  0  3  0  0  0  0  0  0
  -16.7340  -28.4100   22.8540 C   0  0  0  0  0  3  0  0  0  0  0  0
  -25.8360  -32.5570   23.9480 C   0  0  0  0  0  3  0  0  0  0  0  0
  -26.2880  -31.8200   25.2690 C   0  0  1  0  0  0  0  0  0  0  0  0
  -25.1440  -31.6190   26.2920 C   0  0  0  0  0  1  0  0  0  0  0  0
  -26.8770  -30.4260   24.9490 C   0  0  0  0  0  1  0  0  0  0  0  0
  -27.4140  -32.6240   25.9600 C   0  0  0  0  0  1  0  0  0  0  0  0
  -25.5200  -33.9670   24.2370 N   0  0  0  0  0  0  0  0  0  0  0  0
  -25.8700  -35.0050   23.4660 C   0  0  0  0  0  0  0  0  0  0  0  0
  -26.5570  -34.8780   22.4500 O   0  0  0  0  0  0  0  0  0  0  0  0
  -24.9120  -34.1390   25.0230 H   0  0  0  0  0  0  0  0  0  0  0  0
  -24.1540  -36.8010   23.0490 C   0  0  0  0  0  1  0  0  0  0  0  0
  -25.3840  -36.4080   23.8860 C   0  0  0  0  0  3  0  0  0  0  0  0
  -27.5090  -37.3100   24.7260 C   0  0  0  0  0  1  0  0  0  0  0  0
  -26.4230  -37.4550   23.7600 N   0  0  0  0  0  0  0  0  0  0  0  0
  -26.0180  -38.3800   23.8760 H   0  0  0  0  0  0  0  0  0  0  0  0
  3  2  1  1
  3  1  1  0
  4  6  1  0
  4  3  1  0
  5  4  2  0
  7 13  1  0
  7 19  1  0
  8 13  1  0
  9 10  1  0
  9  8  1  0
 11 10  1  0
 11 23  1  0
 11 12  1  0
 13 12  1  0
 14  7  2  0
 15 17  1  0
 16 15  1  0
 18 16  1  0
 18  6  1  0
 18 19  1  0
 19 17  1  0
 20 21  2  0
 21 40  1  0
 22 21  1  0
 22 25  1  0
 23 24  1  0
 23 20  1  0
 24 22  2  0
 25 26  1  0
 26 27  2  0
 28 31  1  0
 28 27  1  0
 29 28  2  0
 30 29  1  0
 30 25  2  0
 31 32  1  0
 32 37  2  0
 32 33  1  0
 33 34  2  0
 34 35  1  0
 35 39  1  0
 36 35  2  0
 37 36  1  0
 38 37  1  0
 40 41  1  0
 41 44  1  0
 41 43  1  0
 42 40  2  0
 45 20  1  0
 45 46  1  0
 47 45  1  0
 48  3  1  0
 48 49  1  0
 50 61  2  0
 51 49  1  0
 51 56  1  0
 52 60  1  0
 52 62  1  0
 53 59  1  0
 53 55  1  0
 54 60  1  0
 55 56  2  0
 55 54  1  0
 57 51  2  0
 58 57  1  0
 58 53  2  0
 59 52  1  0
 60 50  1  0
 62 64  2  0
 63 62  1  0
 65 63  1  0
 66 75  2  0
 66 71  1  0
 67 63  1  0
 67 71  1  0
 68 67  1  0
 69 70  1  0
 69 68  1  0
 70 66  1  0
 71 72  2  0
 72 73  1  0
 74 73  2  0
 75 74  1  0
 76 50  1  0
 76 81  1  0
 76 77  1  0
 77 80  1  1
 77 78  1  0
 79 77  1  0
 81 84  1  0
 82 86  1  0
 82 81  1  0
 83 82  2  0
 86 85  1  0
 88 89  1  0
 88 86  1  0
 88 87  1  0
M  ISO  4   7 100  19 100  48 101  49 101
M  END
>  <TORSDO>  (1) 
F 19

>  <SCORE>  (1) 
-14.548

>  <name>  (1) 
0

>  <ligand_id>  (1) 
0

>  <original_smiles>  (1) 
[H]c1c([H])c([H])c2c(c1[H])C([H])([H])C([H])([H])C([H])([H])C2([H])N([H])C(=O)C1([H])N(C(=O)C([H])(N([H])C(=O)C([H])(N([H])C([H])([H])[H])C([H])([H])[H])C(C([H])([H])[H])(C([H])([H])[H])C([H])([H])[H])C([H])([H])c2c([H])c(OC([H])([H])C(C(=O)C([H])([H])C3([H])N(C(=O)N4C([H])([H])C([H])([H])C([H])([H])C([H])(n5nc(-c6c([H])c([H])c(Oc7c([H])c([H])c(F)c([H])c7F)c([H])c6[H])c(C(=O)N([H])[H])c5N([H])[H])C4([H])[H])C([H])([H])C([H])([H])C3([H])[H])(C([H])([H])[H])C([H])([H])[H])c([H])c([H])c2C1([H])[H]

>  <smiles>  (1) 
[H]c1c([H])c([H])c2c(c1[H])C([H])([H])C([H])([H])C([H])([H])C2([H])N([H])C(=O)C1([H])N(C(=O)C([H])(N([H])C(=O)C([H])(N([H])C([H])([H])[H])C([H])([H])[H])C(C([H])([H])[H])(C([H])([H])[H])C([H])([H])[H])C([H])([H])c2c([H])c(OC([H])([H])C(C(=O)C([H])([H])C3([H])N(C(=O)N4C([H])([H])C([H])([H])C([H])([H])C([H])(n5nc(-c6c([H])c([H])c(Oc7c([H])c([H])c(F)c([H])c7F)c([H])c6[H])c(C(=O)N([H])[H])c5N([H])[H])C4([H])[H])C([H])([H])C([H])([H])C3([H])[H])(C([H])([H])[H])C([H])([H])[H])c([H])c([H])c2C1([H])[H]

$$$$
1:0:0
     RDKit          3D

 89 98  0  0  1  0  0  0  0  0999 V2000
  -27.1440  -23.1810   21.5380 C   0  0  0  0  0  2  0  0  0  0  0  0
  -26.5100  -24.3330   20.7650 C   0  0  0  0  0  2  0  0  0  0  0  0
  -27.9300  -22.8600   20.2820 C   0  0  0  0  0  3  0  0  0  0  0  0
  -27.8060  -24.5550   19.9070 C   0  0  0  0  0  3  0  0  0  0  0  0
  -29.0080  -21.5880   20.5200 C   0  0  0  0  0  3  0  0  0  0  0  0
  -30.1150  -21.9760   21.4720 C   0  0  0  0  0  1  0  0  0  0  0  0
  -28.8450  -20.2910   20.1140 N   0  0  0  0  0  2  0  0  0  0  0  0
  -30.5840  -15.0350   20.2870 C   0  0  0  0  0  0  0  0  0  0  0  0
  -30.3910  -12.6740   19.3600 C   0  0  0  0  0  2  0  0  0  0  0  0
  -29.4670  -12.6110   18.1250 C   0  0  0  0  0  2  0  0  0  0  0  0
  -28.0090  -12.3990   18.5640 C   0  0  0  0  0  2  0  0  0  0  0  0
  -27.6040  -13.3350   19.7350 C   0  0  0  0  0  3  0  0  0  0  0  0
  -28.6630  -13.3980   20.8570 C   0  0  0  0  0  2  0  0  0  0  0  0
  -29.9280  -13.8000   20.2330 N   0  0  0  0  0  0  0  0  0  0  0  0
  -31.7710  -15.0070   19.9340 O   0  0  0  0  0  0  0  0  0  0  0  0
  -30.7780  -18.6850   21.1460 C   0  0  0  0  0  2  0  0  0  0  0  0
  -30.8490  -17.1710   21.5790 C   0  0  0  0  0  2  0  0  0  0  0  0
  -29.1860  -17.4160   20.0150 C   0  0  0  0  0  2  0  0  0  0  0  0
  -29.3260  -18.9010   20.7430 C   0  0  0  0  0  3  0  0  0  0  0  0
  -30.0090  -16.2870   20.7170 N   0  0  0  0  0  0  0  0  0  0  0  0
  -25.2380  -13.9010   20.5130 C   0  0  0  0  0  0  0  0  0  0  0  0
  -24.1750  -13.1230   20.8790 C   0  0  0  0  0  0  0  0  0  0  0  0
  -24.6370  -11.7710   20.8340 C   0  0  0  0  0  0  0  0  0  0  0  0
  -26.2760  -13.0260   20.2510 N   0  0  0  0  0  0  0  0  0  0  0  0
  -25.9270  -11.7380   20.5120 N   0  0  0  0  0  0  0  0  0  0  0  0
  -23.9080  -10.5090   21.0190 C   0  0  0  0  0  0  0  0  0  0  0  0
  -24.3300   -9.5430   21.9610 C   0  0  0  0  0  3  0  0  0  0  0  0
  -23.6000   -8.3480   22.1350 C   0  0  0  0  0  3  0  0  0  0  0  0
  -22.4340   -8.1100   21.3690 C   0  0  0  0  0  0  0  0  0  0  0  0
  -22.0310   -9.0630   20.4170 C   0  0  0  0  0  3  0  0  0  0  0  0
  -22.7610  -10.2510   20.2410 C   0  0  0  0  0  3  0  0  0  0  0  0
  -21.6770   -6.9660   21.4530 O   0  0  0  0  0  0  0  0  0  0  0  0
  -21.5960   -6.2380   22.6130 C   0  0  0  0  0  0  0  0  0  0  0  0
  -21.1280   -6.8050   23.8180 C   0  0  0  0  0  3  0  0  0  0  0  0
  -20.9970   -6.0030   24.9700 C   0  0  0  0  0  3  0  0  0  0  0  0
  -21.3240   -4.6340   24.9150 C   0  0  0  0  0  0  0  0  0  0  0  0
  -21.7850   -4.0670   23.7150 C   0  0  0  0  0  3  0  0  0  0  0  0
  -21.9180   -4.8670   22.5660 C   0  0  0  0  0  0  0  0  0  0  0  0
  -22.3430   -4.3100   21.4070 F   0  0  0  0  0  0  0  0  0  0  0  0
  -21.1900   -3.8620   26.0190 F   0  0  0  0  0  0  0  0  0  0  0  0
  -22.7800  -13.6010   21.1650 C   0  0  0  0  0  0  0  0  0  0  0  0
  -22.0530  -12.9030   22.0290 N   0  0  0  0  0  0  0  0  0  0  0  0
  -22.3460  -14.6310   20.6520 O   0  0  0  0  0  0  0  0  0  0  0  0
  -22.4200  -12.0740   22.4730 H   0  0  0  0  0  0  0  0  0  0  0  0
  -21.1180  -13.2080   22.2570 H   0  0  0  0  0  0  0  0  0  0  0  0
  -25.4020  -15.2750   20.3580 N   0  0  0  0  0  0  0  0  0  0  0  0
  -24.6390  -15.9270   20.5070 H   0  0  0  0  0  0  0  0  0  0  0  0
  -26.2600  -15.7290   20.0730 H   0  0  0  0  0  0  0  0  0  0  0  0
  -28.1480  -26.0550   20.3030 O   0  0  0  0  0  0  0  0  0  0  0  0
  -24.6200  -31.8660   23.2360 C   0  0  0  0  0  0  0  0  0  0  0  0
  -27.1740  -27.1370   20.1590 C   0  0  0  0  0  0  0  0  0  0  0  0
  -23.4190  -30.4810   21.5900 C   0  0  0  0  0  3  0  0  0  0  0  0
  -24.8670  -28.9290   20.1380 C   0  0  0  0  0  0  0  0  0  0  0  0
  -25.9780  -30.7310   21.4350 C   0  0  0  0  0  2  0  0  0  0  0  0
  -26.0480  -29.3440   20.7690 C   0  0  0  0  0  0  0  0  0  0  0  0
  -27.2000  -28.4590   20.7750 C   0  0  0  0  0  3  0  0  0  0  0  0
  -25.9930  -26.8830   19.4250 C   0  0  0  0  0  3  0  0  0  0  0  0
  -24.8550  -27.7130   19.4500 C   0  0  0  0  0  3  0  0  0  0  0  0
  -23.6400  -29.8220   20.2040 C   0  0  0  0  0  2  0  0  0  0  0  0
  -24.6920  -31.0490   22.1420 N   0  0  0  0  0  0  0  0  0  0  0  0
  -23.5340  -32.1500   23.7650 O   0  0  0  0  0  0  0  0  0  0  0  0
  -22.7390  -29.4680   22.5460 C   0  0  0  0  0  0  0  0  0  0  0  0
  -21.4090  -29.3000   22.4240 N   0  0  0  0  0  0  0  0  0  0  0  0
  -23.4100  -28.8320   23.3650 O   0  0  0  0  0  0  0  0  0  0  0  0
  -20.9230  -29.8620   21.7400 H   0  0  0  0  0  0  0  0  0  0  0  0
  -18.0290  -28.0950   22.9350 C   0  0  0  0  0  0  0  0  0  0  0  0
  -20.5890  -28.3590   23.1910 C   0  0  0  0  0  3  0  0  0  0  0  0
  -20.6900  -26.9290   22.6110 C   0  0  0  0  0  2  0  0  0  0  0  0
  -19.5830  -26.6030   21.6030 C   0  0  0  0  0  2  0  0  0  0  0  0
  -18.2050  -26.7470   22.2530 C   0  0  0  0  0  2  0  0  0  0  0  0
  -19.1480  -28.8570   23.3630 C   0  0  0  0  0  0  0  0  0  0  0  0
  -18.9290  -30.1130   23.9690 C   0  0  0  0  0  3  0  0  0  0  0  0
  -17.6240  -30.6120   24.1410 C   0  0  0  0  0  3  0  0  0  0  0  0
  -16.5190  -29.8480   23.7270 C   0  0  0  0  0  3  0  0  0  0  0  0
  -16.7230  -28.5900   23.1320 C   0  0  0  0  0  3  0  0  0  0  0  0
  -25.8980  -32.5010   23.8640 C   0  0  0  0  0  3  0  0  0  0  0  0
  -26.4040  -31.7320   25.1460 C   0  0  1  0  0  0  0  0  0  0  0  0
  -25.3050  -31.5020   26.2090 C   0  0  0  0  0  1  0  0  0  0  0  0
  -26.9870  -30.3500   24.7690 C   0  0  0  0  0  1  0  0  0  0  0  0
  -27.5550  -32.5230   25.8120 C   0  0  0  0  0  1  0  0  0  0  0  0
  -25.5880  -33.9000   24.1970 N   0  0  0  0  0  0  0  0  0  0  0  0
  -25.9050  -34.9570   23.4370 C   0  0  0  0  0  0  0  0  0  0  0  0
  -26.5580  -34.8550   22.3960 O   0  0  0  0  0  0  0  0  0  0  0  0
  -25.0050  -34.0530   25.0070 H   0  0  0  0  0  0  0  0  0  0  0  0
  -24.1660  -36.7500   23.1210 C   0  0  0  0  0  1  0  0  0  0  0  0
  -25.4240  -36.3450   23.9060 C   0  0  0  0  0  3  0  0  0  0  0  0
  -27.5710  -37.2370   24.6980 C   0  0  0  0  0  1  0  0  0  0  0  0
  -26.4520  -37.4010   23.7740 N   0  0  0  0  0  0  0  0  0  0  0  0
  -26.0470  -38.3200   23.9260 H   0  0  0  0  0  0  0  0  0  0  0  0
  2  1  1  0
  3  5  1  0
  3  1  1  0
  4  3  1  0
  4 49  1  0
  4  2  1  0
  5  6  1  0
  7  5  1  0
  8 20  1  0
  9 14  1  0
 10 11  1  0
 10  9  1  0
 12 11  1  0
 12 24  1  0
 12 13  1  0
 14  8  1  0
 14 13  1  0
 15  8  2  0
 16 17  1  0
 18 20  1  0
 18 19  1  0
 19  7  1  0
 19 16  1  0
 20 17  1  0
 21 22  2  0
 22 41  1  0
 23 22  1  0
 23 26  1  0
 24 25  1  0
 24 21  1  0
 25 23  2  0
 26 27  1  0
 27 28  2  0
 29 32  1  0
 29 28  1  0
 30 29  2  0
 31 30  1  0
 31 26  2  0
 32 33  1  0
 33 34  1  0
 34 35  2  0
 36 35  1  0
 36 40  1  0
 37 36  2  0
 38 33  2  0
 38 37  1  0
 39 38  1  0
 41 42  1  0
 42 45  1  0
 42 44  1  0
 43 41  2  0
 46 47  1  0
 46 21  1  0
 48 46  1  0
 50 61  2  0
 51 49  1  0
 51 56  1  0
 52 60  1  0
 52 62  1  0
 53 59  1  0
 53 55  1  0
 54 60  1  0
 55 56  2  0
 55 54  1  0
 57 58  1  0
 57 51  2  0
 58 53  2  0
 59 52  1  0
 60 50  1  0
 62 64  2  0
 63 62  1  0
 65 63  1  0
 66 75  2  0
 66 71  1  0
 67 63  1  0
 67 71  1  0
 68 67  1  0
 69 70  1  0
 69 68  1  0
 70 66  1  0
 71 72  2  0
 72 73  1  0
 74 73  2  0
 75 74  1  0
 76 50  1  0
 76 81  1  0
 76 77  1  0
 77 80  1  1
 77 78  1  0
 79 77  1  0
 81 84  1  0
 82 86  1  0
 82 81  1  0
 83 82  2  0
 86 85  1  0
 88 86  1  0
 88 89  1  0
 88 87  1  0
M  ISO  4   4 101   8 100  20 100  49 101
M  END
>  <TORSDO>  (2) 
F 17

>  <SCORE>  (2) 
-15.278

>  <name>  (2) 
1

>  <ligand_id>  (2) 
1

>  <original_smiles>  (2) 
[H]c1c([H])c([H])c2c(c1[H])C([H])([H])C([H])([H])C([H])([H])C2([H])N([H])C(=O)C1([H])N(C(=O)C([H])(N([H])C(=O)C([H])(N([H])C([H])([H])[H])C([H])([H])[H])C(C([H])([H])[H])(C([H])([H])[H])C([H])([H])[H])C([H])([H])c2c([H])c(OC3([H])C([H])([H])C([H])([H])C3([H])C(=NC3([H])C([H])([H])N(C(=O)N4C([H])([H])C([H])([H])C([H])([H])C([H])(n5nc(-c6c([H])c([H])c(Oc7c([H])c([H])c(F)c([H])c7F)c([H])c6[H])c(C(=O)N([H])[H])c5N([H])[H])C4([H])[H])C([H])([H])C3([H])[H])C([H])([H])[H])c([H])c([H])c2C1([H])[H]

>  <smiles>  (2) 
[H]c1c([H])c([H])c2c(c1[H])C([H])([H])C([H])([H])C([H])([H])C2([H])N([H])C(=O)C1([H])N(C(=O)C([H])(N([H])C(=O)C([H])(N([H])C([H])([H])[H])C([H])([H])[H])C(C([H])([H])[H])(C([H])([H])[H])C([H])([H])[H])C([H])([H])c2c([H])c(OC3([H])C([H])([H])C([H])([H])C3([H])C(=NC3([H])C([H])([H])N(C(=O)N4C([H])([H])C([H])([H])C([H])([H])C([H])(n5nc(-c6c([H])c([H])c(Oc7c([H])c([H])c(F)c([H])c7F)c([H])c6[H])c(C(=O)N([H])[H])c5N([H])[H])C4([H])[H])C([H])([H])C3([H])[H])C([H])([H])[H])c([H])c([H])c2C1([H])[H]

$$$$
2:0:0
     RDKit          3D

 91 99  0  0  1  0  0  0  0  0999 V2000
  -29.9260  -23.8570   21.3990 C   0  0  0  0  0  2  0  0  0  0  0  0
  -29.2710  -22.9530   20.3180 C   0  0  0  0  0  3  0  0  0  0  0  0
  -28.5870  -24.4890   21.7390 C   0  0  0  0  0  3  0  0  0  0  0  0
  -28.1820  -24.4130   20.2560 C   0  0  0  0  0  3  0  0  0  0  0  0
  -27.6910  -23.7050   22.6190 N   0  0  0  0  0  4  0  0  0  0  0  0
  -27.4920  -22.8010   22.2330 H   0  0  0  0  0  0  0  0  0  0  0  0
  -26.8180  -24.1870   22.7370 H   0  0  0  0  0  0  0  0  0  0  0  0
  -28.0940  -23.5870   23.5310 H   0  0  0  0  0  0  0  0  0  0  0  0
  -30.9360  -21.0300   21.1900 C   0  0  0  0  0  1  0  0  0  0  0  0
  -29.4390  -21.2130   20.8110 C   0  0  0  0  0  3  0  0  0  0  0  0
  -29.2240  -19.6090   20.0750 C   0  0  0  0  0  3  0  0  0  0  0  0
  -30.0190  -18.0700   20.5300 C   0  0  0  0  0  3  0  0  0  0  0  0
  -30.4530  -15.2190   20.2190 C   0  0  0  0  0  0  0  0  0  0  0  0
  -30.3860  -12.8000   19.3200 C   0  0  0  0  0  2  0  0  0  0  0  0
  -29.4570  -12.6370   18.0920 C   0  0  0  0  0  2  0  0  0  0  0  0
  -28.0030  -12.3970   18.5350 C   0  0  0  0  0  2  0  0  0  0  0  0
  -27.5710  -13.3590   19.6690 C   0  0  0  0  0  3  0  0  0  0  0  0
  -28.6230  -13.4660   20.7900 C   0  0  0  0  0  2  0  0  0  0  0  0
  -29.8620  -13.9360   20.1530 N   0  0  0  0  0  0  0  0  0  0  0  0
  -31.6770  -15.2200   20.0390 O   0  0  0  0  0  0  0  0  0  0  0  0
  -29.6940  -16.4740   20.2870 N   0  0  0  0  0  0  0  0  0  0  0  0
  -28.7030  -16.2870   20.3000 H   0  0  0  0  0  0  0  0  0  0  0  0
  -25.2010  -13.9420   20.4150 C   0  0  0  0  0  0  0  0  0  0  0  0
  -24.1360  -13.1750   20.7930 C   0  0  0  0  0  0  0  0  0  0  0  0
  -24.5970  -11.8220   20.7780 C   0  0  0  0  0  0  0  0  0  0  0  0
  -26.2400  -13.0600   20.1800 N   0  0  0  0  0  0  0  0  0  0  0  0
  -25.8890  -11.7800   20.4680 N   0  0  0  0  0  0  0  0  0  0  0  0
  -23.8650  -10.5650   20.9780 C   0  0  0  0  0  0  0  0  0  0  0  0
  -24.2950   -9.5990   21.9140 C   0  0  0  0  0  3  0  0  0  0  0  0
  -23.5600   -8.4090   22.1040 C   0  0  0  0  0  3  0  0  0  0  0  0
  -22.3820   -8.1740   21.3560 C   0  0  0  0  0  0  0  0  0  0  0  0
  -21.9720   -9.1280   20.4080 C   0  0  0  0  0  3  0  0  0  0  0  0
  -22.7070  -10.3100   20.2160 C   0  0  0  0  0  3  0  0  0  0  0  0
  -21.6170   -7.0370   21.4560 O   0  0  0  0  0  0  0  0  0  0  0  0
  -21.5790   -6.2950   22.6090 C   0  0  0  0  0  0  0  0  0  0  0  0
  -21.1840   -6.8550   23.8440 C   0  0  0  0  0  3  0  0  0  0  0  0
  -21.0920   -6.0390   24.9900 C   0  0  0  0  0  3  0  0  0  0  0  0
  -21.3830   -4.6650   24.9020 C   0  0  0  0  0  0  0  0  0  0  0  0
  -21.7720   -4.1040   23.6730 C   0  0  0  0  0  3  0  0  0  0  0  0
  -21.8670   -4.9170   22.5300 C   0  0  0  0  0  0  0  0  0  0  0  0
  -22.2210   -4.3680   21.3430 F   0  0  0  0  0  0  0  0  0  0  0  0
  -21.2880   -3.8810   26.0010 F   0  0  0  0  0  0  0  0  0  0  0  0
  -22.7400  -13.6590   21.0500 C   0  0  0  0  0  0  0  0  0  0  0  0
  -22.0060  -12.9790   21.9240 N   0  0  0  0  0  0  0  0  0  0  0  0
  -22.3090  -14.6780   20.5100 O   0  0  0  0  0  0  0  0  0  0  0  0
  -22.3690  -12.1560   22.3820 H   0  0  0  0  0  0  0  0  0  0  0  0
  -21.0680  -13.2840   22.1390 H   0  0  0  0  0  0  0  0  0  0  0  0
  -25.3690  -15.3110   20.2200 N   0  0  0  0  0  0  0  0  0  0  0  0
  -24.5970  -15.9640   20.3070 H   0  0  0  0  0  0  0  0  0  0  0  0
  -26.2010  -15.7360   19.8370 H   0  0  0  0  0  0  0  0  0  0  0  0
  -28.2950  -26.0370   20.1730 O   0  0  0  0  0  0  0  0  0  0  0  0
  -24.6870  -31.8680   23.1890 C   0  0  0  0  0  0  0  0  0  0  0  0
  -27.2340  -27.0550   20.1600 C   0  0  0  0  0  0  0  0  0  0  0  0
  -23.4800  -30.4680   21.5600 C   0  0  0  0  0  3  0  0  0  0  0  0
  -24.9170  -28.8700   20.1310 C   0  0  0  0  0  0  0  0  0  0  0  0
  -26.0380  -30.7070   21.3830 C   0  0  0  0  0  2  0  0  0  0  0  0
  -26.1060  -29.3020   20.7320 C   0  0  0  0  0  0  0  0  0  0  0  0
  -27.2630  -28.4150   20.7180 C   0  0  0  0  0  3  0  0  0  0  0  0
  -26.0130  -26.7460   19.5260 C   0  0  0  0  0  3  0  0  0  0  0  0
  -24.8910  -27.6110   19.5090 C   0  0  0  0  0  3  0  0  0  0  0  0
  -23.6960  -29.7810   20.1830 C   0  0  0  0  0  2  0  0  0  0  0  0
  -24.7570  -31.0400   22.0980 N   0  0  0  0  0  0  0  0  0  0  0  0
  -23.6030  -32.1530   23.7220 O   0  0  0  0  0  0  0  0  0  0  0  0
  -22.8010  -29.4690   22.5320 C   0  0  0  0  0  0  0  0  0  0  0  0
  -21.4710  -29.3010   22.4190 N   0  0  0  0  0  0  0  0  0  0  0  0
  -23.4780  -28.8430   23.3530 O   0  0  0  0  0  0  0  0  0  0  0  0
  -20.9800  -29.8560   21.7310 H   0  0  0  0  0  0  0  0  0  0  0  0
  -18.0950  -28.0890   22.9500 C   0  0  0  0  0  0  0  0  0  0  0  0
  -20.6560  -28.3630   23.1970 C   0  0  0  0  0  3  0  0  0  0  0  0
  -20.7580  -26.9300   22.6240 C   0  0  0  0  0  2  0  0  0  0  0  0
  -19.6500  -26.6020   21.6180 C   0  0  0  0  0  2  0  0  0  0  0  0
  -18.2730  -26.7420   22.2720 C   0  0  0  0  0  2  0  0  0  0  0  0
  -19.2140  -28.8580   23.3710 C   0  0  0  0  0  0  0  0  0  0  0  0
  -18.9940  -30.1170   23.9680 C   0  0  0  0  0  3  0  0  0  0  0  0
  -17.6870  -30.6100   24.1490 C   0  0  0  0  0  3  0  0  0  0  0  0
  -16.5830  -29.8390   23.7430 C   0  0  0  0  0  3  0  0  0  0  0  0
  -16.7890  -28.5810   23.1490 C   0  0  0  0  0  3  0  0  0  0  0  0
  -25.9650  -32.5100   23.8110 C   0  0  0  0  0  3  0  0  0  0  0  0
  -26.4920  -31.7360   25.0820 C   0  0  1  0  0  0  0  0  0  0  0  0
  -25.4070  -31.4930   26.1580 C   0  0  0  0  0  1  0  0  0  0  0  0
  -27.0740  -30.3610   24.6870 C   0  0  0  0  0  1  0  0  0  0  0  0
  -27.6450  -32.5310   25.7380 C   0  0  0  0  0  1  0  0  0  0  0  0
  -25.6440  -33.9050   24.1610 N   0  0  0  0  0  0  0  0  0  0  0  0
  -25.9500  -34.9740   23.4130 C   0  0  0  0  0  0  0  0  0  0  0  0
  -26.5970  -34.8900   22.3660 O   0  0  0  0  0  0  0  0  0  0  0  0
  -25.0650  -34.0430   24.9770 H   0  0  0  0  0  0  0  0  0  0  0  0
  -24.1920  -36.7560   23.1410 C   0  0  0  0  0  1  0  0  0  0  0  0
  -25.4650  -36.3540   23.9030 C   0  0  0  0  0  3  0  0  0  0  0  0
  -27.6190  -37.2560   24.6680 C   0  0  0  0  0  1  0  0  0  0  0  0
  -26.4830  -37.4190   23.7650 N   0  0  0  0  0  0  0  0  0  0  0  0
  -26.0720  -38.3340   23.9340 H   0  0  0  0  0  0  0  0  0  0  0  0
  1  3  1  0
  2 10  1  0
  2  1  1  0
  3  5  1  0
  4 51  1  0
  4  2  1  0
  4  3  1  0
  5  7  1  0
  5  8  1  0
  6  5  1  0
 10  9  1  0
 11 12  2  0
 11 10  1  0
 13 21  1  0
 14 19  1  0
 15 16  1  0
 15 14  1  0
 17 16  1  0
 17 26  1  0
 17 18  1  0
 19 13  1  0
 19 18  1  0
 20 13  2  0
 21 22  1  0
 21 12  1  0
 23 24  2  0
 24 43  1  0
 25 24  1  0
 25 28  1  0
 26 23  1  0
 26 27  1  0
 27 25  2  0
 28 29  1  0
 29 30  2  0
 31 34  1  0
 31 30  1  0
 32 31  2  0
 33 32  1  0
 33 28  2  0
 34 35  1  0
 35 36  1  0
 36 37  2  0
 38 37  1  0
 38 42  1  0
 39 38  2  0
 40 35  2  0
 40 39  1  0
 41 40  1  0
 43 44  1  0
 44 47  1  0
 44 46  1  0
 45 43  2  0
 48 49  1  0
 48 23  1  0
 50 48  1  0
 52 63  2  0
 53 51  1  0
 53 58  1  0
 54 62  1  0
 54 64  1  0
 55 61  1  0
 55 57  1  0
 56 62  1  0
 57 56  1  0
 58 57  2  0
 59 53  2  0
 60 59  1  0
 60 55  2  0
 61 54  1  0
 62 52  1  0
 64 66  2  0
 65 64  1  0
 67 65  1  0
 68 77  2  0
 68 73  1  0
 69 65  1  0
 69 73  1  0
 70 69  1  0
 71 72  1  0
 71 70  1  0
 72 68  1  0
 73 74  2  0
 74 75  1  0
 76 75  2  0
 77 76  1  0
 78 52  1  0
 78 83  1  0
 78 79  1  0
 79 82  1  1
 79 80  1  0
 81 79  1  0
 83 86  1  0
 84 88  1  0
 84 83  1  0
 85 84  2  0
 88 87  1  0
 90 88  1  0
 90 91  1  0
 90 89  1  0
M  ISO  4   4 101  13 100  21 100  51 101
M  END
>  <TORSDO>  (3) 
F 20

>  <SCORE>  (3) 
-15.156

>  <name>  (3) 
2

>  <ligand_id>  (3) 
2

>  <original_smiles>  (3) 
[H]c1c([H])c([H])c2c(c1[H])C([H])([H])C([H])([H])C([H])([H])C2([H])N([H])C(=O)C1([H])N(C(=O)C([H])(N([H])C(=O)C([H])(N([H])C([H])([H])[H])C([H])([H])[H])C(C([H])([H])[H])(C([H])([H])[H])C([H])([H])[H])C([H])([H])c2c([H])c(OC3([H])C([H])(C([H])(C([H])([H])[H])C([H])([H])C([H])([H])N([H])C(=O)N4C([H])([H])C([H])([H])C([H])([H])C([H])(n5nc(-c6c([H])c([H])c(Oc7c([H])c([H])c(F)c([H])c7F)c([H])c6[H])c(C(=O)N([H])[H])c5N([H])[H])C4([H])[H])C([H])([H])C3([H])[N+]([H])([H])[H])c([H])c([H])c2C1([H])[H]

>  <smiles>  (3) 
[H]c1c([H])c([H])c2c(c1[H])C([H])([H])C([H])([H])C([H])([H])C2([H])N([H])C(=O)C1([H])N(C(=O)C([H])(N([H])C(=O)C([H])(N([H])C([H])([H])[H])C([H])([H])[H])C(C([H])([H])[H])(C([H])([H])[H])C([H])([H])[H])C([H])([H])c2c([H])c(OC3([H])C([H])(C([H])(C([H])([H])[H])C([H])([H])C([H])([H])N([H])C(=O)N4C([H])([H])C([H])([H])C([H])([H])C([H])(n5nc(-c6c([H])c([H])c(Oc7c([H])c([H])c(F)c([H])c7F)c([H])c6[H])c(C(=O)N([H])[H])c5N([H])[H])C4([H])[H])C([H])([H])C3([H])[N+]([H])([H])[H])c([H])c([H])c2C1([H])[H]

$$$$
3:0:0
     RDKit          3D

 90 98  0  0  1  0  0  0  0  0999 V2000
  -28.8770  -20.3930   20.8330 C   0  0  0  0  0  2  0  0  0  0  0  0
  -29.9980  -19.8040   18.8380 C   0  0  0  0  0  2  0  0  0  0  0  0
  -29.2490  -19.0250   19.9590 C   0  0  0  0  0  3  0  0  0  0  0  0
  -29.2140  -21.8230   20.0690 C   0  0  0  0  0  3  0  0  0  0  0  0
  -29.5170  -21.2260   18.7400 N   0  0  0  0  0  4  0  0  0  0  0  0
  -28.6710  -21.2230   18.1930 H   0  0  0  0  0  0  0  0  0  0  0  0
  -30.1930  -21.7840   18.2430 H   0  0  0  0  0  0  0  0  0  0  0  0
  -30.5360  -15.0810   20.2630 C   0  0  0  0  0  0  0  0  0  0  0  0
  -30.4150  -12.7250   19.3030 C   0  0  0  0  0  2  0  0  0  0  0  0
  -29.4690  -12.6510   18.0830 C   0  0  0  0  0  2  0  0  0  0  0  0
  -28.0150  -12.4230   18.5360 C   0  0  0  0  0  2  0  0  0  0  0  0
  -27.6080  -13.3520   19.7110 C   0  0  0  0  0  3  0  0  0  0  0  0
  -28.6780  -13.3940   20.8210 C   0  0  0  0  0  2  0  0  0  0  0  0
  -29.9260  -13.8270   20.1820 N   0  0  0  0  0  0  0  0  0  0  0  0
  -31.7570  -15.0950   20.0710 O   0  0  0  0  0  0  0  0  0  0  0  0
  -30.1140  -17.6720   20.4430 C   0  0  0  0  0  0  0  0  0  0  0  0
  -29.7610  -16.2910   20.2860 N   0  0  0  0  0  0  0  0  0  0  0  0
  -31.2020  -17.9360   20.9620 O   0  0  0  0  0  0  0  0  0  0  0  0
  -28.7830  -16.1420   20.1030 H   0  0  0  0  0  0  0  0  0  0  0  0
  -25.2360  -13.9120   20.4810 C   0  0  0  0  0  0  0  0  0  0  0  0
  -24.1800  -13.1290   20.8600 C   0  0  0  0  0  0  0  0  0  0  0  0
  -24.6550  -11.7820   20.8250 C   0  0  0  0  0  0  0  0  0  0  0  0
  -26.2810  -13.0420   20.2290 N   0  0  0  0  0  0  0  0  0  0  0  0
  -25.9430  -11.7550   20.5040 N   0  0  0  0  0  0  0  0  0  0  0  0
  -23.9380  -10.5150   21.0180 C   0  0  0  0  0  0  0  0  0  0  0  0
  -24.3790   -9.5510   21.9520 C   0  0  0  0  0  3  0  0  0  0  0  0
  -23.6600   -8.3500   22.1340 C   0  0  0  0  0  3  0  0  0  0  0  0
  -22.4860   -8.1040   21.3830 C   0  0  0  0  0  0  0  0  0  0  0  0
  -22.0650   -9.0560   20.4390 C   0  0  0  0  0  3  0  0  0  0  0  0
  -22.7850  -10.2490   20.2540 C   0  0  0  0  0  3  0  0  0  0  0  0
  -21.7380   -6.9550   21.4750 O   0  0  0  0  0  0  0  0  0  0  0  0
  -21.6940   -6.2150   22.6300 C   0  0  0  0  0  0  0  0  0  0  0  0
  -21.2530   -6.7680   23.8520 C   0  0  0  0  0  3  0  0  0  0  0  0
  -21.1580   -5.9540   24.9980 C   0  0  0  0  0  3  0  0  0  0  0  0
  -21.4930   -4.5880   24.9230 C   0  0  0  0  0  0  0  0  0  0  0  0
  -21.9270   -4.0350   23.7050 C   0  0  0  0  0  3  0  0  0  0  0  0
  -22.0230   -4.8470   22.5610 C   0  0  0  0  0  0  0  0  0  0  0  0
  -22.4220   -4.3040   21.3860 F   0  0  0  0  0  0  0  0  0  0  0  0
  -21.3940   -3.8050   26.0220 F   0  0  0  0  0  0  0  0  0  0  0  0
  -22.7820  -13.5980   21.1370 C   0  0  0  0  0  0  0  0  0  0  0  0
  -22.0610  -12.8960   22.0050 N   0  0  0  0  0  0  0  0  0  0  0  0
  -22.3370  -14.6220   20.6210 O   0  0  0  0  0  0  0  0  0  0  0  0
  -22.4340  -12.0680   22.4450 H   0  0  0  0  0  0  0  0  0  0  0  0
  -21.1230  -13.1910   22.2330 H   0  0  0  0  0  0  0  0  0  0  0  0
  -25.3850  -15.2840   20.3010 N   0  0  0  0  0  0  0  0  0  0  0  0
  -24.6060  -15.9240   20.4160 H   0  0  0  0  0  0  0  0  0  0  0  0
  -26.2090  -15.7300   19.9240 H   0  0  0  0  0  0  0  0  0  0  0  0
  -28.3170  -23.2850   19.8760 C   0  0  0  0  0  2  0  0  0  0  0  0
  -28.2790  -24.7530   20.7310 C   0  0  0  0  0  2  0  0  0  0  0  0
  -28.3080  -26.2470   20.2410 O   0  0  0  0  0  0  0  0  0  0  0  0
  -24.6150  -31.9320   23.2440 C   0  0  0  0  0  0  0  0  0  0  0  0
  -27.2150  -27.1900   20.2690 C   0  0  0  0  0  0  0  0  0  0  0  0
  -23.4250  -30.5230   21.6070 C   0  0  0  0  0  3  0  0  0  0  0  0
  -24.8820  -28.9310   20.2090 C   0  0  0  0  0  0  0  0  0  0  0  0
  -25.9780  -30.7910   21.4500 C   0  0  0  0  0  2  0  0  0  0  0  0
  -26.0590  -29.3900   20.8140 C   0  0  0  0  0  0  0  0  0  0  0  0
  -27.2290  -28.5380   20.8160 C   0  0  0  0  0  3  0  0  0  0  0  0
  -26.0100  -26.8230   19.6400 C   0  0  0  0  0  3  0  0  0  0  0  0
  -24.8700  -27.6610   19.6060 C   0  0  0  0  0  3  0  0  0  0  0  0
  -23.6550  -29.8310   20.2370 C   0  0  0  0  0  2  0  0  0  0  0  0
  -24.6930  -31.1060   22.1560 N   0  0  0  0  0  0  0  0  0  0  0  0
  -23.5260  -32.2170   23.7650 O   0  0  0  0  0  0  0  0  0  0  0  0
  -22.7420  -29.5240   22.5750 C   0  0  0  0  0  0  0  0  0  0  0  0
  -21.4140  -29.3560   22.4460 N   0  0  0  0  0  0  0  0  0  0  0  0
  -23.4110  -28.9010   23.4030 O   0  0  0  0  0  0  0  0  0  0  0  0
  -20.9300  -29.9100   21.7530 H   0  0  0  0  0  0  0  0  0  0  0  0
  -18.0280  -28.1710   22.9570 C   0  0  0  0  0  0  0  0  0  0  0  0
  -20.5890  -28.4230   23.2190 C   0  0  0  0  0  3  0  0  0  0  0  0
  -20.6840  -26.9910   22.6460 C   0  0  0  0  0  2  0  0  0  0  0  0
  -19.5780  -26.6710   21.6330 C   0  0  0  0  0  2  0  0  0  0  0  0
  -18.1980  -26.8210   22.2800 C   0  0  0  0  0  2  0  0  0  0  0  0
  -19.1510  -28.9300   23.3840 C   0  0  0  0  0  0  0  0  0  0  0  0
  -18.9370  -30.1910   23.9780 C   0  0  0  0  0  3  0  0  0  0  0  0
  -17.6330  -30.6960   24.1500 C   0  0  0  0  0  3  0  0  0  0  0  0
  -16.5260  -29.9350   23.7380 C   0  0  0  0  0  3  0  0  0  0  0  0
  -16.7240  -28.6730   23.1470 C   0  0  0  0  0  3  0  0  0  0  0  0
  -25.8880  -32.5750   23.8750 C   0  0  0  0  0  3  0  0  0  0  0  0
  -25.5730  -33.9760   24.1930 N   0  0  0  0  0  0  0  0  0  0  0  0
  -25.9100  -35.0280   23.4340 C   0  0  0  0  0  0  0  0  0  0  0  0
  -26.5850  -34.9190   22.4070 O   0  0  0  0  0  0  0  0  0  0  0  0
  -24.9740  -34.1340   24.9900 H   0  0  0  0  0  0  0  0  0  0  0  0
  -24.1880  -36.8260   23.0670 C   0  0  0  0  0  1  0  0  0  0  0  0
  -25.4250  -36.4200   23.8840 C   0  0  0  0  0  3  0  0  0  0  0  0
  -27.5550  -37.3080   24.7240 C   0  0  0  0  0  1  0  0  0  0  0  0
  -26.4600  -37.4710   23.7720 N   0  0  0  0  0  0  0  0  0  0  0  0
  -26.0550  -38.3930   23.9080 H   0  0  0  0  0  0  0  0  0  0  0  0
  -26.3880  -31.8180   25.1680 C   0  0  1  0  0  0  0  0  0  0  0  0
  -25.2820  -31.5940   26.2260 C   0  0  0  0  0  1  0  0  0  0  0  0
  -26.9750  -30.4350   24.8030 C   0  0  0  0  0  1  0  0  0  0  0  0
  -27.5320  -32.6190   25.8340 C   0  0  0  0  0  1  0  0  0  0  0  0
  2  3  1  0
  3 16  1  0
  3  1  1  0
  4 48  1  0
  4  1  1  0
  5  2  1  0
  5  4  1  0
  6  5  1  0
  7  5  1  0
  8 17  1  0
  9 14  1  0
 10 11  1  0
 10  9  1  0
 12 11  1  0
 12 23  1  0
 12 13  1  0
 14  8  1  0
 14 13  1  0
 15  8  2  0
 16 18  2  0
 17 16  1  0
 19 17  1  0
 20 21  2  0
 21 40  1  0
 22 21  1  0
 22 25  1  0
 23 20  1  0
 23 24  1  0
 24 22  2  0
 25 26  1  0
 26 27  2  0
 28 31  1  0
 28 27  1  0
 29 28  2  0
 30 29  1  0
 30 25  2  0
 31 32  1  0
 32 33  1  0
 33 34  2  0
 35 34  1  0
 35 39  1  0
 36 35  2  0
 37 32  2  0
 37 36  1  0
 38 37  1  0
 40 41  1  0
 41 44  1  0
 41 43  1  0
 42 40  2  0
 45 46  1  0
 45 20  1  0
 47 45  1  0
 48 49  1  0
 50 52  1  0
 50 49  1  0
 51 62  2  0
 52 57  1  0
 53 61  1  0
 53 63  1  0
 54 60  1  0
 54 56  1  0
 55 61  1  0
 56 57  2  0
 56 55  1  0
 58 52  2  0
 59 58  1  0
 59 54  2  0
 60 53  1  0
 61 51  1  0
 63 65  2  0
 64 63  1  0
 66 64  1  0
 67 76  2  0
 67 72  1  0
 68 64  1  0
 68 72  1  0
 69 68  1  0
 70 71  1  0
 70 69  1  0
 71 67  1  0
 72 73  2  0
 73 74  1  0
 75 74  2  0
 76 75  1  0
 77 51  1  0
 77 78  1  0
 77 87  1  0
 78 81  1  0
 79 83  1  0
 79 78  1  0
 80 79  2  0
 83 82  1  0
 85 83  1  0
 85 86  1  0
 85 84  1  0
 87 90  1  1
 87 88  1  0
 89 87  1  0
M  ISO  4   8 100  17 100  49 101  50 101
M  END
>  <TORSDO>  (4) 
F 18

>  <SCORE>  (4) 
-15.706

>  <name>  (4) 
3

>  <ligand_id>  (4) 
3

>  <original_smiles>  (4) 
[H]c1c([H])c([H])c2c(c1[H])C([H])([H])C([H])([H])C([H])([H])C2([H])N([H])C(=O)C1([H])N(C(=O)C([H])(N([H])C(=O)C([H])(N([H])C([H])([H])[H])C([H])([H])[H])C(C([H])([H])[H])(C([H])([H])[H])C([H])([H])[H])C([H])([H])c2c([H])c(OC([H])([H])C([H])([H])C3([H])C([H])([H])C([H])(C(=O)N([H])C(=O)N4C([H])([H])C([H])([H])C([H])([H])C([H])(n5nc(-c6c([H])c([H])c(Oc7c([H])c([H])c(F)c([H])c7F)c([H])c6[H])c(C(=O)N([H])[H])c5N([H])[H])C4([H])[H])C([H])([H])[N+]3([H])[H])c([H])c([H])c2C1([H])[H]

>  <smiles>  (4) 
[H]c1c([H])c([H])c2c(c1[H])C([H])([H])C([H])([H])C([H])([H])C2([H])N([H])C(=O)C1([H])N(C(=O)C([H])(N([H])C(=O)C([H])(N([H])C([H])([H])[H])C([H])([H])[H])C(C([H])([H])[H])(C([H])([H])[H])C([H])([H])[H])C([H])([H])c2c([H])c(OC([H])([H])C([H])([H])C3([H])C([H])([H])C([H])(C(=O)N([H])C(=O)N4C([H])([H])C([H])([H])C([H])([H])C([H])(n5nc(-c6c([H])c([H])c(Oc7c([H])c([H])c(F)c([H])c7F)c([H])c6[H])c(C(=O)N([H])[H])c5N([H])[H])C4([H])[H])C([H])([H])[N+]3([H])[H])c([H])c([H])c2C1([H])[H]

$$$$
4:0:0
     RDKit          3D

 90 98  0  0  1  0  0  0  0  0999 V2000
  -27.6410  -23.0800   21.0350 C   0  0  0  0  0  2  0  0  0  0  0  0
  -27.1590  -24.4500   20.5820 C   0  0  0  0  0  2  0  0  0  0  0  0
  -29.5770  -24.5150   20.6820 C   0  0  0  0  0  2  0  0  0  0  0  0
  -29.0800  -23.0440   20.5210 C   0  0  0  0  0  3  0  0  0  0  0  0
  -28.3240  -25.4130   20.8800 C   0  0  0  0  0  3  0  0  0  0  0  0
  -29.9020  -21.9090   21.1710 C   0  0  0  0  0  0  0  0  0  0  0  0
  -30.9130  -22.1370   21.8420 O   0  0  0  0  0  0  0  0  0  0  0  0
  -29.4030  -20.4680   20.9210 C   0  0  0  0  0  2  0  0  0  0  0  0
  -30.3620  -19.3210   21.3410 C   0  0  0  0  0  2  0  0  0  0  0  0
  -29.8050  -17.9070   21.0200 C   0  0  0  0  0  2  0  0  0  0  0  0
  -30.7250  -16.7490   21.4780 C   0  0  0  0  0  2  0  0  0  0  0  0
  -30.7580  -14.4530   20.4420 C   0  0  0  0  0  0  0  0  0  0  0  0
  -30.4180  -12.3130   19.2530 C   0  0  0  0  0  2  0  0  0  0  0  0
  -29.4830  -12.5190   18.0460 C   0  0  0  0  0  2  0  0  0  0  0  0
  -28.0070  -12.3930   18.4710 C   0  0  0  0  0  2  0  0  0  0  0  0
  -27.6730  -13.2410   19.7270 C   0  0  0  0  0  3  0  0  0  0  0  0
  -28.7190  -13.0130   20.8420 C   0  0  0  0  0  2  0  0  0  0  0  0
  -30.0510  -13.2990   20.2830 N   0  0  0  0  0  0  0  0  0  0  0  0
  -31.8480  -14.6460   19.8950 O   0  0  0  0  0  0  0  0  0  0  0  0
  -30.1720  -15.4150   21.1810 N   0  0  0  0  0  0  0  0  0  0  0  0
  -29.2790  -15.1830   21.5890 H   0  0  0  0  0  0  0  0  0  0  0  0
  -25.2710  -13.8710   20.4080 C   0  0  0  0  0  0  0  0  0  0  0  0
  -24.1960  -13.1100   20.7810 C   0  0  0  0  0  0  0  0  0  0  0  0
  -24.6480  -11.7550   20.7720 C   0  0  0  0  0  0  0  0  0  0  0  0
  -26.3140  -12.9810   20.1990 N   0  0  0  0  0  0  0  0  0  0  0  0
  -25.9400  -11.7030   20.4720 N   0  0  0  0  0  0  0  0  0  0  0  0
  -23.9130  -10.5000   20.9710 C   0  0  0  0  0  0  0  0  0  0  0  0
  -24.3360   -9.5400   21.9180 C   0  0  0  0  0  3  0  0  0  0  0  0
  -23.6020   -8.3500   22.1070 C   0  0  0  0  0  3  0  0  0  0  0  0
  -22.4300   -8.1100   21.3480 C   0  0  0  0  0  0  0  0  0  0  0  0
  -22.0280   -9.0580   20.3910 C   0  0  0  0  0  3  0  0  0  0  0  0
  -22.7620  -10.2400   20.2010 C   0  0  0  0  0  3  0  0  0  0  0  0
  -21.6680   -6.9710   21.4460 O   0  0  0  0  0  0  0  0  0  0  0  0
  -21.6070   -6.2430   22.6070 C   0  0  0  0  0  0  0  0  0  0  0  0
  -21.1840   -6.8170   23.8260 C   0  0  0  0  0  3  0  0  0  0  0  0
  -21.0690   -6.0150   24.9800 C   0  0  0  0  0  3  0  0  0  0  0  0
  -21.3680   -4.6410   24.9150 C   0  0  0  0  0  0  0  0  0  0  0  0
  -21.7850   -4.0670   23.7020 C   0  0  0  0  0  3  0  0  0  0  0  0
  -21.9010   -4.8650   22.5500 C   0  0  0  0  0  0  0  0  0  0  0  0
  -22.2830   -4.3030   21.3780 F   0  0  0  0  0  0  0  0  0  0  0  0
  -21.2510   -3.8690   26.0210 F   0  0  0  0  0  0  0  0  0  0  0  0
  -22.8000  -13.5990   21.0370 C   0  0  0  0  0  0  0  0  0  0  0  0
  -22.0630  -12.9190   21.9080 N   0  0  0  0  0  0  0  0  0  0  0  0
  -22.3710  -14.6190   20.5000 O   0  0  0  0  0  0  0  0  0  0  0  0
  -22.4230  -12.0940   22.3670 H   0  0  0  0  0  0  0  0  0  0  0  0
  -21.1260  -13.2300   22.1220 H   0  0  0  0  0  0  0  0  0  0  0  0
  -25.4440  -15.2370   20.2120 N   0  0  0  0  0  0  0  0  0  0  0  0
  -24.6790  -15.8970   20.3050 H   0  0  0  0  0  0  0  0  0  0  0  0
  -26.3020  -15.6670   19.8850 H   0  0  0  0  0  0  0  0  0  0  0  0
  -28.3720  -26.6530   20.1230 O   0  0  0  0  0  0  0  0  0  0  0  0
  -24.6020  -31.8830   23.2390 C   0  0  0  0  0  0  0  0  0  0  0  0
  -27.2310  -27.4360   20.1360 C   0  0  0  0  0  0  0  0  0  0  0  0
  -23.3960  -30.4910   21.5920 C   0  0  0  0  0  3  0  0  0  0  0  0
  -24.8480  -28.9710   20.1520 C   0  0  0  0  0  0  0  0  0  0  0  0
  -25.9260  -30.8430   21.4000 C   0  0  0  0  0  2  0  0  0  0  0  0
  -26.0090  -29.4740   20.7550 C   0  0  0  0  0  0  0  0  0  0  0  0
  -27.2040  -28.7110   20.7530 C   0  0  0  0  0  3  0  0  0  0  0  0
  -26.0650  -26.9870   19.4770 C   0  0  0  0  0  3  0  0  0  0  0  0
  -24.8710  -27.7250   19.5110 C   0  0  0  0  0  3  0  0  0  0  0  0
  -23.6040  -29.8280   20.2060 C   0  0  0  0  0  2  0  0  0  0  0  0
  -24.6590  -31.0880   22.1340 N   0  0  0  0  0  0  0  0  0  0  0  0
  -23.5210  -32.1520   23.7800 O   0  0  0  0  0  0  0  0  0  0  0  0
  -22.7470  -29.4590   22.5440 C   0  0  0  0  0  0  0  0  0  0  0  0
  -21.4220  -29.2810   22.4210 N   0  0  0  0  0  0  0  0  0  0  0  0
  -23.4340  -28.8250   23.3500 O   0  0  0  0  0  0  0  0  0  0  0  0
  -20.9290  -29.8450   21.7430 H   0  0  0  0  0  0  0  0  0  0  0  0
  -18.0480  -28.0890   22.9260 C   0  0  0  0  0  0  0  0  0  0  0  0
  -20.6070  -28.3380   23.1880 C   0  0  0  0  0  3  0  0  0  0  0  0
  -20.7030  -26.9110   22.6000 C   0  0  0  0  0  2  0  0  0  0  0  0
  -19.5960  -26.5990   21.5890 C   0  0  0  0  0  2  0  0  0  0  0  0
  -18.2180  -26.7440   22.2400 C   0  0  0  0  0  2  0  0  0  0  0  0
  -19.1710  -28.8440   23.3570 C   0  0  0  0  0  0  0  0  0  0  0  0
  -18.9580  -30.1050   23.9580 C   0  0  0  0  0  3  0  0  0  0  0  0
  -17.6550  -30.6090   24.1320 C   0  0  0  0  0  3  0  0  0  0  0  0
  -16.5480  -29.8500   23.7190 C   0  0  0  0  0  3  0  0  0  0  0  0
  -16.7450  -28.5920   23.1220 C   0  0  0  0  0  3  0  0  0  0  0  0
  -25.8880  -32.5120   23.8570 C   0  0  0  0  0  3  0  0  0  0  0  0
  -25.5780  -33.9070   24.1990 N   0  0  0  0  0  0  0  0  0  0  0  0
  -25.9040  -34.9640   23.4440 C   0  0  0  0  0  0  0  0  0  0  0  0
  -26.5680  -34.8700   22.4090 O   0  0  0  0  0  0  0  0  0  0  0  0
  -24.9880  -34.0560   25.0050 H   0  0  0  0  0  0  0  0  0  0  0  0
  -24.1670  -36.7520   23.1070 C   0  0  0  0  0  1  0  0  0  0  0  0
  -25.4130  -36.3480   23.9110 C   0  0  0  0  0  3  0  0  0  0  0  0
  -27.5470  -37.2340   24.7400 C   0  0  0  0  0  1  0  0  0  0  0  0
  -26.4420  -37.4050   23.8020 N   0  0  0  0  0  0  0  0  0  0  0  0
  -26.0340  -38.3230   23.9570 H   0  0  0  0  0  0  0  0  0  0  0  0
  -26.4140  -31.7300   25.1220 C   0  0  1  0  0  0  0  0  0  0  0  0
  -25.3280  -31.4780   26.1940 C   0  0  0  0  0  1  0  0  0  0  0  0
  -27.0000  -30.3580   24.7140 C   0  0  0  0  0  1  0  0  0  0  0  0
  -27.5660  -32.5220   25.7850 C   0  0  0  0  0  1  0  0  0  0  0  0
  2  5  1  0
  2  1  1  0
  3  5  1  0
  4  3  1  0
  4  1  1  0
  4  6  1  0
  5 50  1  0
  6  7  2  0
  8  6  1  0
  8  9  1  0
 10  9  1  0
 10 11  1  0
 12 20  1  0
 13 18  1  0
 14 15  1  0
 14 13  1  0
 16 15  1  0
 16 25  1  0
 16 17  1  0
 18 12  1  0
 18 17  1  0
 19 12  2  0
 20 11  1  0
 20 21  1  0
 22 23  2  0
 23 42  1  0
 24 23  1  0
 24 27  1  0
 25 22  1  0
 25 26  1  0
 26 24  2  0
 27 28  1  0
 28 29  2  0
 30 33  1  0
 30 29  1  0
 31 30  2  0
 32 31  1  0
 32 27  2  0
 33 34  1  0
 34 35  1  0
 35 36  2  0
 37 36  1  0
 37 41  1  0
 38 37  2  0
 39 34  2  0
 39 38  1  0
 40 39  1  0
 42 43  1  0
 43 46  1  0
 43 45  1  0
 44 42  2  0
 47 48  1  0
 47 22  1  0
 49 47  1  0
 50 52  1  0
 51 62  2  0
 52 57  1  0
 53 61  1  0
 53 63  1  0
 54 60  1  0
 54 56  1  0
 55 61  1  0
 56 55  1  0
 57 56  2  0
 58 59  1  0
 58 52  2  0
 59 54  2  0
 60 53  1  0
 61 51  1  0
 63 65  2  0
 64 63  1  0
 66 64  1  0
 67 76  2  0
 67 72  1  0
 68 64  1  0
 68 72  1  0
 69 68  1  0
 70 71  1  0
 70 69  1  0
 71 67  1  0
 72 73  2  0
 73 74  1  0
 75 74  2  0
 76 75  1  0
 77 51  1  0
 77 78  1  0
 77 87  1  0
 78 81  1  0
 79 83  1  0
 79 78  1  0
 80 79  2  0
 83 82  1  0
 85 83  1  0
 85 86  1  0
 85 84  1  0
 87 90  1  1
 87 88  1  0
 89 87  1  0
M  ISO  4   5 101  12 100  20 100  50 101
M  END
>  <TORSDO>  (5) 
F 21

>  <SCORE>  (5) 
-13.560

>  <name>  (5) 
4

>  <ligand_id>  (5) 
4

>  <original_smiles>  (5) 
[H]c1c([H])c([H])c2c(c1[H])C([H])([H])C([H])([H])C([H])([H])C2([H])N([H])C(=O)C1([H])N(C(=O)C([H])(N([H])C(=O)C([H])(N([H])C([H])([H])[H])C([H])([H])[H])C(C([H])([H])[H])(C([H])([H])[H])C([H])([H])[H])C([H])([H])c2c([H])c(OC3([H])C([H])([H])C([H])([H])C([H])(C(=O)C([H])([H])C([H])([H])C([H])([H])C([H])([H])N([H])C(=O)N4C([H])([H])C([H])([H])C([H])([H])C([H])(n5nc(-c6c([H])c([H])c(Oc7c([H])c([H])c(F)c([H])c7F)c([H])c6[H])c(C(=O)N([H])[H])c5N([H])[H])C4([H])[H])C3([H])[H])c([H])c([H])c2C1([H])[H]

>  <smiles>  (5) 
[H]c1c([H])c([H])c2c(c1[H])C([H])([H])C([H])([H])C([H])([H])C2([H])N([H])C(=O)C1([H])N(C(=O)C([H])(N([H])C(=O)C([H])(N([H])C([H])([H])[H])C([H])([H])[H])C(C([H])([H])[H])(C([H])([H])[H])C([H])([H])[H])C([H])([H])c2c([H])c(OC3([H])C([H])([H])C([H])([H])C([H])(C(=O)C([H])([H])C([H])([H])C([H])([H])C([H])([H])N([H])C(=O)N4C([H])([H])C([H])([H])C([H])([H])C([H])(n5nc(-c6c([H])c([H])c(Oc7c([H])c([H])c(F)c([H])c7F)c([H])c6[H])c(C(=O)N([H])[H])c5N([H])[H])C4([H])[H])C3([H])[H])c([H])c([H])c2C1([H])[H]

$$$$
5:0:0
     RDKit          3D

 86 94  0  0  1  0  0  0  0  0999 V2000
  -30.0430  -22.9840   18.7920 C   0  0  0  0  0  1  0  0  0  0  0  0
  -28.8910  -22.5850   19.7310 C   0  0  0  0  0  3  0  0  0  0  0  0
  -30.1560  -19.6740   19.4630 C   0  0  0  0  0  2  0  0  0  0  0  0
  -28.6410  -19.4640   20.7220 C   0  0  0  0  0  2  0  0  0  0  0  0
  -29.3930  -20.8970   20.3200 C   0  0  0  0  0  3  0  0  0  0  0  0
  -29.8740  -18.3800   20.4570 C   0  0  0  0  0  3  0  0  0  0  0  0
  -30.3990  -15.4070   20.0220 C   0  0  0  0  0  0  0  0  0  0  0  0
  -30.3400  -12.9690   19.0650 C   0  0  0  0  0  2  0  0  0  0  0  0
  -29.3600  -12.6950   17.8960 C   0  0  0  0  0  2  0  0  0  0  0  0
  -27.9490  -12.3870   18.4200 C   0  0  0  0  0  2  0  0  0  0  0  0
  -27.5300  -13.3440   19.5590 C   0  0  0  0  0  3  0  0  0  0  0  0
  -28.6360  -13.5420   20.6190 C   0  0  0  0  0  2  0  0  0  0  0  0
  -29.8050  -14.1060   19.9100 N   0  0  0  0  0  0  0  0  0  0  0  0
  -31.6290  -15.3580   19.8630 O   0  0  0  0  0  0  0  0  0  0  0  0
  -29.6690  -16.7220   20.0960 N   0  0  0  0  0  0  0  0  0  0  0  0
  -28.6880  -16.5270   19.9630 H   0  0  0  0  0  0  0  0  0  0  0  0
  -25.1940  -13.8620   20.4410 C   0  0  0  0  0  0  0  0  0  0  0  0
  -24.1560  -13.0720   20.8410 C   0  0  0  0  0  0  0  0  0  0  0  0
  -24.6320  -11.7270   20.7670 C   0  0  0  0  0  0  0  0  0  0  0  0
  -26.2350  -13.0040   20.1360 N   0  0  0  0  0  0  0  0  0  0  0  0
  -25.9100  -11.7100   20.3970 N   0  0  0  0  0  0  0  0  0  0  0  0
  -23.9190  -10.4550   20.9640 C   0  0  0  0  0  0  0  0  0  0  0  0
  -24.3790   -9.4880   21.8850 C   0  0  0  0  0  3  0  0  0  0  0  0
  -23.6660   -8.2850   22.0750 C   0  0  0  0  0  3  0  0  0  0  0  0
  -22.4790   -8.0380   21.3440 C   0  0  0  0  0  0  0  0  0  0  0  0
  -22.0360   -8.9950   20.4130 C   0  0  0  0  0  3  0  0  0  0  0  0
  -22.7500  -10.1920   20.2220 C   0  0  0  0  0  3  0  0  0  0  0  0
  -21.7370   -6.8860   21.4430 O   0  0  0  0  0  0  0  0  0  0  0  0
  -21.7070   -6.1470   22.5990 C   0  0  0  0  0  0  0  0  0  0  0  0
  -21.2640   -6.6950   23.8220 C   0  0  0  0  0  3  0  0  0  0  0  0
  -21.1810   -5.8810   24.9690 C   0  0  0  0  0  3  0  0  0  0  0  0
  -21.5300   -4.5190   24.8940 C   0  0  0  0  0  0  0  0  0  0  0  0
  -21.9690   -3.9720   23.6760 C   0  0  0  0  0  3  0  0  0  0  0  0
  -22.0550   -4.7830   22.5310 C   0  0  0  0  0  0  0  0  0  0  0  0
  -22.4540   -4.2440   21.3550 F   0  0  0  0  0  0  0  0  0  0  0  0
  -21.4460   -3.7360   25.9950 F   0  0  0  0  0  0  0  0  0  0  0  0
  -22.7680  -13.5340   21.1760 C   0  0  0  0  0  0  0  0  0  0  0  0
  -22.0800  -12.8190   22.0560 N   0  0  0  0  0  0  0  0  0  0  0  0
  -22.3060  -14.5680   20.6910 O   0  0  0  0  0  0  0  0  0  0  0  0
  -22.4710  -11.9840   22.4680 H   0  0  0  0  0  0  0  0  0  0  0  0
  -21.1530  -13.1130   22.3270 H   0  0  0  0  0  0  0  0  0  0  0  0
  -25.3340  -15.2390   20.2810 N   0  0  0  0  0  0  0  0  0  0  0  0
  -24.5500  -15.8690   20.3950 H   0  0  0  0  0  0  0  0  0  0  0  0
  -26.1510  -15.6910   19.8950 H   0  0  0  0  0  0  0  0  0  0  0  0
  -28.3310  -24.1770   20.4940 C   0  0  0  0  0  2  0  0  0  0  0  0
  -28.3440  -25.8330   20.1600 O   0  0  0  0  0  0  0  0  0  0  0  0
  -24.6390  -31.8260   23.1670 C   0  0  0  0  0  0  0  0  0  0  0  0
  -27.2850  -26.9130   20.1990 C   0  0  0  0  0  0  0  0  0  0  0  0
  -23.4820  -30.4290   21.5020 C   0  0  0  0  0  3  0  0  0  0  0  0
  -24.9650  -28.8050   20.1290 C   0  0  0  0  0  0  0  0  0  0  0  0
  -26.0560  -30.6390   21.4050 C   0  0  0  0  0  2  0  0  0  0  0  0
  -26.1480  -29.2180   20.7550 C   0  0  0  0  0  0  0  0  0  0  0  0
  -27.3040  -28.2990   20.7470 C   0  0  0  0  0  3  0  0  0  0  0  0
  -26.0580  -26.6570   19.5450 C   0  0  0  0  0  3  0  0  0  0  0  0
  -24.9470  -27.5450   19.5080 C   0  0  0  0  0  3  0  0  0  0  0  0
  -23.7450  -29.7280   20.1380 C   0  0  0  0  0  2  0  0  0  0  0  0
  -24.7470  -30.9940   22.0790 N   0  0  0  0  0  0  0  0  0  0  0  0
  -23.5400  -32.1150   23.6650 O   0  0  0  0  0  0  0  0  0  0  0  0
  -22.7630  -29.4420   22.4580 C   0  0  0  0  0  0  0  0  0  0  0  0
  -21.4290  -29.3050   22.3280 N   0  0  0  0  0  0  0  0  0  0  0  0
  -23.4130  -28.7960   23.2850 O   0  0  0  0  0  0  0  0  0  0  0  0
  -20.9600  -29.8670   21.6340 H   0  0  0  0  0  0  0  0  0  0  0  0
  -18.0220  -28.1690   22.8550 C   0  0  0  0  0  0  0  0  0  0  0  0
  -20.5910  -28.3730   23.0910 C   0  0  0  0  0  3  0  0  0  0  0  0
  -20.6480  -26.9500   22.4860 C   0  0  0  0  0  2  0  0  0  0  0  0
  -19.5290  -26.6800   21.4750 C   0  0  0  0  0  2  0  0  0  0  0  0
  -18.1610  -26.8340   22.1430 C   0  0  0  0  0  2  0  0  0  0  0  0
  -19.1630  -28.8980   23.2880 C   0  0  0  0  0  0  0  0  0  0  0  0
  -18.9750  -30.1440   23.9230 C   0  0  0  0  0  3  0  0  0  0  0  0
  -17.6820  -30.6640   24.1240 C   0  0  0  0  0  3  0  0  0  0  0  0
  -16.5570  -29.9340   23.7010 C   0  0  0  0  0  3  0  0  0  0  0  0
  -16.7280  -28.6870   23.0750 C   0  0  0  0  0  3  0  0  0  0  0  0
  -25.8930  -32.4740   23.8290 C   0  0  0  0  0  3  0  0  0  0  0  0
  -25.5640  -33.8740   24.1550 N   0  0  0  0  0  0  0  0  0  0  0  0
  -25.9180  -34.9370   23.4180 C   0  0  0  0  0  0  0  0  0  0  0  0
  -26.6140  -34.8390   22.4030 O   0  0  0  0  0  0  0  0  0  0  0  0
  -24.9410  -34.0200   24.9350 H   0  0  0  0  0  0  0  0  0  0  0  0
  -24.2120  -36.7480   23.0420 C   0  0  0  0  0  1  0  0  0  0  0  0
  -25.4340  -36.3280   23.8770 C   0  0  0  0  0  3  0  0  0  0  0  0
  -27.5390  -37.2140   24.7790 C   0  0  0  0  0  1  0  0  0  0  0  0
  -26.4810  -37.3700   23.7830 N   0  0  0  0  0  0  0  0  0  0  0  0
  -26.0820  -38.3000   23.8800 H   0  0  0  0  0  0  0  0  0  0  0  0
  -26.3690  -31.7130   25.1270 C   0  0  1  0  0  0  0  0  0  0  0  0
  -25.2460  -31.4870   26.1680 C   0  0  0  0  0  1  0  0  0  0  0  0
  -26.9570  -30.3290   24.7760 C   0  0  0  0  0  1  0  0  0  0  0  0
  -27.5070  -32.5080   25.8120 C   0  0  0  0  0  1  0  0  0  0  0  0
  2  1  1  0
  2 45  1  0
  3  5  1  0
  3  6  1  0
  5  2  1  0
  5  4  1  0
  6 15  1  0
  6  4  1  0
  7 15  1  0
  8 13  1  0
  9 10  1  0
  9  8  1  0
 11 10  1  0
 11 20  1  0
 11 12  1  0
 13  7  1  0
 13 12  1  0
 14  7  2  0
 16 15  1  0
 17 18  2  0
 18 37  1  0
 19 18  1  0
 19 22  1  0
 20 21  1  0
 20 17  1  0
 21 19  2  0
 22 23  1  0
 23 24  2  0
 25 28  1  0
 25 24  1  0
 26 25  2  0
 27 26  1  0
 27 22  2  0
 28 29  1  0
 29 30  1  0
 30 31  2  0
 32 31  1  0
 32 36  1  0
 33 32  2  0
 34 29  2  0
 34 33  1  0
 35 34  1  0
 37 38  1  0
 38 41  1  0
 38 40  1  0
 39 37  2  0
 42 43  1  0
 42 17  1  0
 44 42  1  0
 46 48  1  0
 46 45  1  0
 47 58  2  0
 48 53  1  0
 49 57  1  0
 49 59  1  0
 50 56  1  0
 50 52  1  0
 51 57  1  0
 52 51  1  0
 53 52  2  0
 54 48  2  0
 55 54  1  0
 55 50  2  0
 56 49  1  0
 57 47  1  0
 59 61  2  0
 60 59  1  0
 62 60  1  0
 63 72  2  0
 63 68  1  0
 64 60  1  0
 64 68  1  0
 65 64  1  0
 66 67  1  0
 66 65  1  0
 67 63  1  0
 68 69  2  0
 69 70  1  0
 71 70  2  0
 72 71  1  0
 73 47  1  0
 73 74  1  0
 73 83  1  0
 74 77  1  0
 75 79  1  0
 75 74  1  0
 76 75  2  0
 79 78  1  0
 81 79  1  0
 81 82  1  0
 81 80  1  0
 83 86  1  1
 83 84  1  0
 85 83  1  0
M  ISO  4   7 100  15 100  45 101  46 101
M  END
>  <TORSDO>  (6) 
F 18

>  <SCORE>  (6) 
-16.374

>  <name>  (6) 
5

>  <ligand_id>  (6) 
5

>  <original_smiles>  (6) 
[H]c1c([H])c([H])c2c(c1[H])C([H])([H])C([H])([H])C([H])([H])C2([H])N([H])C(=O)C1([H])N(C(=O)C([H])(N([H])C(=O)C([H])(N([H])C([H])([H])[H])C([H])([H])[H])C(C([H])([H])[H])(C([H])([H])[H])C([H])([H])[H])C([H])([H])c2c([H])c(OC([H])([H])C([H])(C([H])([H])[H])C3([H])C([H])([H])C([H])(N([H])C(=O)N4C([H])([H])C([H])([H])C([H])([H])C([H])(n5nc(-c6c([H])c([H])c(Oc7c([H])c([H])c(F)c([H])c7F)c([H])c6[H])c(C(=O)N([H])[H])c5N([H])[H])C4([H])[H])C3([H])[H])c([H])c([H])c2C1([H])[H]

>  <smiles>  (6) 
[H]c1c([H])c([H])c2c(c1[H])C([H])([H])C([H])([H])C([H])([H])C2([H])N([H])C(=O)C1([H])N(C(=O)C([H])(N([H])C(=O)C([H])(N([H])C([H])([H])[H])C([H])([H])[H])C(C([H])([H])[H])(C([H])([H])[H])C([H])([H])[H])C([H])([H])c2c([H])c(OC([H])([H])C([H])(C([H])([H])[H])C3([H])C([H])([H])C([H])(N([H])C(=O)N4C([H])([H])C([H])([H])C([H])([H])C([H])(n5nc(-c6c([H])c([H])c(Oc7c([H])c([H])c(F)c([H])c7F)c([H])c6[H])c(C(=O)N([H])[H])c5N([H])[H])C4([H])[H])C3([H])[H])c([H])c([H])c2C1([H])[H]

$$$$
6:0:0
     RDKit          3D

 91 99  0  0  1  0  0  0  0  0999 V2000
  -29.2480  -22.3550   21.3330 C   0  0  0  0  0  3  0  0  0  0  0  0
  -28.0620  -22.1410   19.3610 C   0  0  0  0  0  3  0  0  0  0  0  0
  -29.0350  -23.8160   21.2910 C   0  0  0  0  0  3  0  0  0  0  0  0
  -27.8500  -23.6070   19.3190 C   0  0  0  0  0  3  0  0  0  0  0  0
  -28.7830  -21.3790   20.3690 C   0  0  0  0  0  0  0  0  0  0  0  0
  -28.3000  -24.5800   20.2980 C   0  0  0  0  0  0  0  0  0  0  0  0
  -28.2670  -26.0910   20.2380 O   0  0  0  0  0  0  0  0  0  0  0  0
  -24.6470  -31.9070   23.2280 C   0  0  0  0  0  0  0  0  0  0  0  0
  -27.1830  -27.0800   20.2260 C   0  0  0  0  0  0  0  0  0  0  0  0
  -23.4350  -30.5080   21.6000 C   0  0  0  0  0  3  0  0  0  0  0  0
  -24.8700  -28.8970   20.1820 C   0  0  0  0  0  0  0  0  0  0  0  0
  -25.9940  -30.7340   21.4330 C   0  0  0  0  0  2  0  0  0  0  0  0
  -26.0560  -29.3250   20.7920 C   0  0  0  0  0  0  0  0  0  0  0  0
  -27.2060  -28.4350   20.7930 C   0  0  0  0  0  3  0  0  0  0  0  0
  -25.9710  -26.7740   19.5740 C   0  0  0  0  0  3  0  0  0  0  0  0
  -24.8450  -27.6370   19.5570 C   0  0  0  0  0  3  0  0  0  0  0  0
  -23.6530  -29.8140   20.2260 C   0  0  0  0  0  2  0  0  0  0  0  0
  -24.7130  -31.0760   22.1400 N   0  0  0  0  0  0  0  0  0  0  0  0
  -23.5620  -32.2020   23.7560 O   0  0  0  0  0  0  0  0  0  0  0  0
  -22.7480  -29.5170   22.5730 C   0  0  0  0  0  0  0  0  0  0  0  0
  -21.4180  -29.3540   22.4520 N   0  0  0  0  0  0  0  0  0  0  0  0
  -23.4170  -28.8940   23.4020 O   0  0  0  0  0  0  0  0  0  0  0  0
  -20.9340  -29.9080   21.7590 H   0  0  0  0  0  0  0  0  0  0  0  0
  -18.0350  -28.1590   22.9690 C   0  0  0  0  0  0  0  0  0  0  0  0
  -20.5950  -28.4240   23.2320 C   0  0  0  0  0  3  0  0  0  0  0  0
  -20.6950  -26.9880   22.6690 C   0  0  0  0  0  2  0  0  0  0  0  0
  -19.5930  -26.6580   21.6570 C   0  0  0  0  0  2  0  0  0  0  0  0
  -18.2120  -26.8060   22.3000 C   0  0  0  0  0  2  0  0  0  0  0  0
  -19.1540  -28.9260   23.3910 C   0  0  0  0  0  0  0  0  0  0  0  0
  -18.9330  -30.1900   23.9790 C   0  0  0  0  0  3  0  0  0  0  0  0
  -17.6280  -30.6890   24.1470 C   0  0  0  0  0  3  0  0  0  0  0  0
  -16.5240  -29.9200   23.7390 C   0  0  0  0  0  3  0  0  0  0  0  0
  -16.7280  -28.6570   23.1560 C   0  0  0  0  0  3  0  0  0  0  0  0
  -25.9260  -32.5430   23.8500 C   0  0  0  0  0  3  0  0  0  0  0  0
  -26.4460  -31.7700   25.1250 C   0  0  1  0  0  0  0  0  0  0  0  0
  -25.3560  -31.5320   26.1980 C   0  0  0  0  0  1  0  0  0  0  0  0
  -27.0270  -30.3910   24.7350 C   0  0  0  0  0  1  0  0  0  0  0  0
  -27.6010  -32.5610   25.7840 C   0  0  0  0  0  1  0  0  0  0  0  0
  -25.6140  -33.9400   24.1960 N   0  0  0  0  0  0  0  0  0  0  0  0
  -25.9230  -35.0040   23.4440 C   0  0  0  0  0  0  0  0  0  0  0  0
  -26.5660  -34.9140   22.3950 O   0  0  0  0  0  0  0  0  0  0  0  0
  -25.0380  -34.0830   25.0130 H   0  0  0  0  0  0  0  0  0  0  0  0
  -24.1720  -36.7940   23.1710 C   0  0  0  0  0  1  0  0  0  0  0  0
  -25.4460  -36.3880   23.9300 C   0  0  0  0  0  3  0  0  0  0  0  0
  -27.6030  -37.2860   24.6880 C   0  0  0  0  0  1  0  0  0  0  0  0
  -26.4680  -37.4500   23.7840 N   0  0  0  0  0  0  0  0  0  0  0  0
  -26.0610  -38.3660   23.9480 H   0  0  0  0  0  0  0  0  0  0  0  0
  -28.7620  -19.6710   20.5650 C   0  0  0  0  0  2  0  0  0  0  0  0
  -29.8290  -18.3210   20.2360 C   0  0  0  0  0  3  0  0  0  0  0  0
  -31.1650  -18.6030   20.9230 C   0  0  0  0  0  0  0  0  0  0  0  0
  -32.2140  -18.8990   20.1640 N   0  0  0  0  0  0  0  0  0  0  0  0
  -31.2610  -18.5460   22.1470 O   0  0  0  0  0  0  0  0  0  0  0  0
  -32.1260  -18.9370   19.1570 H   0  0  0  0  0  0  0  0  0  0  0  0
  -33.1130  -19.0850   20.5850 H   0  0  0  0  0  0  0  0  0  0  0  0
  -29.4900  -16.6210   20.5180 C   0  0  0  0  0  2  0  0  0  0  0  0
  -30.3800  -15.1770   20.2510 C   0  0  0  0  0  0  0  0  0  0  0  0
  -30.3520  -12.7750   19.3250 C   0  0  0  0  0  2  0  0  0  0  0  0
  -29.4040  -12.6780   18.1030 C   0  0  0  0  0  2  0  0  0  0  0  0
  -27.9500  -12.4290   18.5510 C   0  0  0  0  0  2  0  0  0  0  0  0
  -27.5390  -13.3530   19.7240 C   0  0  0  0  0  3  0  0  0  0  0  0
  -28.6050  -13.4030   20.8360 C   0  0  0  0  0  2  0  0  0  0  0  0
  -29.8560  -13.8680   20.2250 N   0  0  0  0  0  0  0  0  0  0  0  0
  -31.5770  -15.2430   19.9370 O   0  0  0  0  0  0  0  0  0  0  0  0
  -25.1750  -13.9110   20.5170 C   0  0  0  0  0  0  0  0  0  0  0  0
  -24.1170  -13.1300   20.8920 C   0  0  0  0  0  0  0  0  0  0  0  0
  -24.5830  -11.7810   20.8380 C   0  0  0  0  0  0  0  0  0  0  0  0
  -26.2130  -13.0390   20.2440 N   0  0  0  0  0  0  0  0  0  0  0  0
  -25.8690  -11.7500   20.5050 N   0  0  0  0  0  0  0  0  0  0  0  0
  -23.8590  -10.5160   21.0240 C   0  0  0  0  0  0  0  0  0  0  0  0
  -24.2890   -9.5480   21.9570 C   0  0  0  0  0  3  0  0  0  0  0  0
  -23.5630   -8.3500   22.1320 C   0  0  0  0  0  3  0  0  0  0  0  0
  -22.3930   -8.1110   21.3720 C   0  0  0  0  0  0  0  0  0  0  0  0
  -21.9820   -9.0690   20.4290 C   0  0  0  0  0  3  0  0  0  0  0  0
  -22.7080  -10.2580   20.2520 C   0  0  0  0  0  3  0  0  0  0  0  0
  -21.6390   -6.9650   21.4560 O   0  0  0  0  0  0  0  0  0  0  0  0
  -21.5670   -6.2340   22.6150 C   0  0  0  0  0  0  0  0  0  0  0  0
  -21.1070   -6.7970   23.8250 C   0  0  0  0  0  3  0  0  0  0  0  0
  -20.9830   -5.9920   24.9740 C   0  0  0  0  0  3  0  0  0  0  0  0
  -21.3110   -4.6240   24.9150 C   0  0  0  0  0  0  0  0  0  0  0  0
  -21.7640   -4.0600   23.7100 C   0  0  0  0  0  3  0  0  0  0  0  0
  -21.8890   -4.8630   22.5630 C   0  0  0  0  0  0  0  0  0  0  0  0
  -22.3070   -4.3090   21.3990 F   0  0  0  0  0  0  0  0  0  0  0  0
  -21.1840   -3.8480   26.0180 F   0  0  0  0  0  0  0  0  0  0  0  0
  -22.7240  -13.6040   21.1880 C   0  0  0  0  0  0  0  0  0  0  0  0
  -22.0090  -12.8990   22.0560 N   0  0  0  0  0  0  0  0  0  0  0  0
  -22.2800  -14.6350   20.6850 O   0  0  0  0  0  0  0  0  0  0  0  0
  -22.3810  -12.0650   22.4860 H   0  0  0  0  0  0  0  0  0  0  0  0
  -21.0740  -13.1980   22.2970 H   0  0  0  0  0  0  0  0  0  0  0  0
  -25.3350  -15.2850   20.3570 N   0  0  0  0  0  0  0  0  0  0  0  0
  -24.5710  -15.9380   20.4970 H   0  0  0  0  0  0  0  0  0  0  0  0
  -26.1800  -15.7320   20.0270 H   0  0  0  0  0  0  0  0  0  0  0  0
  2  5  1  0
  3  1  1  0
  4  2  2  0
  4  6  1  0
  5 48  1  0
  5  1  2  0
  6  3  2  0
  7  6  1  0
  8 19  2  0
  9  7  1  0
  9 14  1  0
 10 18  1  0
 10 20  1  0
 11 17  1  0
 11 13  1  0
 12 18  1  0
 13 14  2  0
 13 12  1  0
 15  9  2  0
 16 15  1  0
 16 11  2  0
 17 10  1  0
 18  8  1  0
 20 22  2  0
 21 20  1  0
 23 21  1  0
 24 33  2  0
 24 29  1  0
 25 21  1  0
 25 29  1  0
 26 25  1  0
 27 28  1  0
 27 26  1  0
 28 24  1  0
 29 30  2  0
 30 31  1  0
 32 31  2  0
 33 32  1  0
 34  8  1  0
 34 39  1  0
 34 35  1  0
 35 38  1  1
 35 36  1  0
 37 35  1  0
 39 42  1  0
 40 44  1  0
 40 39  1  0
 41 40  2  0
 44 43  1  0
 46 44  1  0
 46 47  1  0
 46 45  1  0
 49 55  1  0
 49 48  1  0
 49 50  1  0
 50 52  2  0
 51 54  1  0
 51 50  1  0
 53 51  1  0
 56 55  1  0
 57 62  1  0
 58 59  1  0
 58 57  1  0
 60 59  1  0
 60 67  1  0
 60 61  1  0
 62 56  1  0
 62 61  1  0
 63 56  2  0
 64 65  2  0
 65 84  1  0
 66 65  1  0
 66 69  1  0
 67 68  1  0
 67 64  1  0
 68 66  2  0
 69 70  1  0
 70 71  2  0
 72 75  1  0
 72 71  1  0
 73 72  2  0
 74 73  1  0
 74 69  2  0
 75 76  1  0
 76 77  1  0
 77 78  2  0
 79 78  1  0
 79 83  1  0
 80 79  2  0
 81 76  2  0
 81 80  1  0
 82 81  1  0
 84 85  1  0
 85 88  1  0
 85 87  1  0
 86 84  2  0
 89 90  1  0
 89 64  1  0
 91 89  1  0
M  ISO  4   6 101   7 101  55 100  56 100
M  END
>  <TORSDO>  (7) 
F 20

>  <SCORE>  (7) 
-15.903

>  <name>  (7) 
6

>  <ligand_id>  (7) 
6

>  <original_smiles>  (7) 
[H]c1c([H])c([H])c2c(c1[H])C([H])([H])C([H])([H])C([H])([H])C2([H])N([H])C(=O)C1([H])N(C(=O)C([H])(N([H])C(=O)C([H])(N([H])C([H])([H])[H])C([H])([H])[H])C(C([H])([H])[H])(C([H])([H])[H])C([H])([H])[H])C([H])([H])c2c([H])c(Oc3c([H])c([H])c(C([H])([H])C([H])(C(=O)N([H])[H])C([H])([H])C(=O)N4C([H])([H])C([H])([H])C([H])([H])C([H])(n5nc(-c6c([H])c([H])c(Oc7c([H])c([H])c(F)c([H])c7F)c([H])c6[H])c(C(=O)N([H])[H])c5N([H])[H])C4([H])[H])c([H])c3[H])c([H])c([H])c2C1([H])[H]

>  <smiles>  (7) 
[H]c1c([H])c([H])c2c(c1[H])C([H])([H])C([H])([H])C([H])([H])C2([H])N([H])C(=O)C1([H])N(C(=O)C([H])(N([H])C(=O)C([H])(N([H])C([H])([H])[H])C([H])([H])[H])C(C([H])([H])[H])(C([H])([H])[H])C([H])([H])[H])C([H])([H])c2c([H])c(Oc3c([H])c([H])c(C([H])([H])C([H])(C(=O)N([H])[H])C([H])([H])C(=O)N4C([H])([H])C([H])([H])C([H])([H])C([H])(n5nc(-c6c([H])c([H])c(Oc7c([H])c([H])c(F)c([H])c7F)c([H])c6[H])c(C(=O)N([H])[H])c5N([H])[H])C4([H])[H])c([H])c3[H])c([H])c([H])c2C1([H])[H]

$$$$
7:0:0
     RDKit          3D

 90 98  0  0  1  0  0  0  0  0999 V2000
  -29.4150  -20.0110   21.9850 C   0  0  0  0  0  2  0  0  0  0  0  0
  -31.2280  -18.4860   21.4010 C   0  0  0  0  0  2  0  0  0  0  0  0
  -29.1890  -19.8160   20.4660 C   0  0  0  0  0  3  0  0  0  0  0  0
  -30.0570  -18.2390   20.4460 C   0  0  0  0  0  3  0  0  0  0  0  0
  -30.8350  -19.6500   22.2320 N   0  0  0  0  0  4  0  0  0  0  0  0
  -30.9860  -19.4550   23.2080 H   0  0  0  0  0  0  0  0  0  0  0  0
  -31.4270  -20.4270   21.9870 H   0  0  0  0  0  0  0  0  0  0  0  0
  -30.6400  -15.4130   19.9140 C   0  0  0  0  0  0  0  0  0  0  0  0
  -30.5640  -13.0160   18.9510 C   0  0  0  0  0  2  0  0  0  0  0  0
  -29.5550  -12.8550   17.7880 C   0  0  0  0  0  2  0  0  0  0  0  0
  -28.1380  -12.5740   18.3230 C   0  0  0  0  0  2  0  0  0  0  0  0
  -27.7670  -13.5050   19.5040 C   0  0  0  0  0  3  0  0  0  0  0  0
  -28.8910  -13.6070   20.5530 C   0  0  0  0  0  2  0  0  0  0  0  0
  -30.0740  -14.1190   19.8460 N   0  0  0  0  0  0  0  0  0  0  0  0
  -31.8540  -15.4470   19.6730 O   0  0  0  0  0  0  0  0  0  0  0  0
  -29.8500  -16.6450   20.0490 N   0  0  0  0  0  0  0  0  0  0  0  0
  -28.8680  -16.4080   20.0440 H   0  0  0  0  0  0  0  0  0  0  0  0
  -25.4580  -14.0400   20.4500 C   0  0  0  0  0  0  0  0  0  0  0  0
  -24.4240  -13.2490   20.8610 C   0  0  0  0  0  0  0  0  0  0  0  0
  -24.8820  -11.9000   20.7400 C   0  0  0  0  0  0  0  0  0  0  0  0
  -26.4770  -13.1740   20.0940 N   0  0  0  0  0  0  0  0  0  0  0  0
  -26.1480  -11.8790   20.3370 N   0  0  0  0  0  0  0  0  0  0  0  0
  -24.1670  -10.6310   20.9250 C   0  0  0  0  0  0  0  0  0  0  0  0
  -24.6080   -9.6620   21.8520 C   0  0  0  0  0  3  0  0  0  0  0  0
  -23.8900   -8.4600   22.0270 C   0  0  0  0  0  3  0  0  0  0  0  0
  -22.7170   -8.2170   21.2750 C   0  0  0  0  0  0  0  0  0  0  0  0
  -22.2950   -9.1760   20.3360 C   0  0  0  0  0  3  0  0  0  0  0  0
  -23.0130  -10.3690   20.1600 C   0  0  0  0  0  3  0  0  0  0  0  0
  -21.9700   -7.0670   21.3590 O   0  0  0  0  0  0  0  0  0  0  0  0
  -21.8670   -6.3590   22.5300 C   0  0  0  0  0  0  0  0  0  0  0  0
  -21.3160   -6.9280   23.6980 C   0  0  0  0  0  3  0  0  0  0  0  0
  -21.1670   -6.1440   24.8590 C   0  0  0  0  0  3  0  0  0  0  0  0
  -21.5570   -4.7910   24.8530 C   0  0  0  0  0  0  0  0  0  0  0  0
  -22.1020   -4.2220   23.6890 C   0  0  0  0  0  3  0  0  0  0  0  0
  -22.2540   -5.0040   22.5290 C   0  0  0  0  0  0  0  0  0  0  0  0
  -22.7600   -4.4450   21.4040 F   0  0  0  0  0  0  0  0  0  0  0  0
  -21.4070   -4.0360   25.9650 F   0  0  0  0  0  0  0  0  0  0  0  0
  -23.0500  -13.7130   21.2450 C   0  0  0  0  0  0  0  0  0  0  0  0
  -22.3810  -12.9850   22.1320 N   0  0  0  0  0  0  0  0  0  0  0  0
  -22.5810  -14.7580   20.7940 O   0  0  0  0  0  0  0  0  0  0  0  0
  -22.7750  -12.1370   22.5140 H   0  0  0  0  0  0  0  0  0  0  0  0
  -21.4630  -13.2780   22.4330 H   0  0  0  0  0  0  0  0  0  0  0  0
  -25.6110  -15.4170   20.3180 N   0  0  0  0  0  0  0  0  0  0  0  0
  -24.8460  -16.0570   20.4980 H   0  0  0  0  0  0  0  0  0  0  0  0
  -26.4050  -15.8680   19.8820 H   0  0  0  0  0  0  0  0  0  0  0  0
  -29.5270  -21.4930   19.9530 C   0  0  0  0  0  2  0  0  0  0  0  0
  -27.1070  -22.5630   19.6310 C   0  0  0  0  0  1  0  0  0  0  0  0
  -28.5710  -22.9980   19.7690 C   0  0  0  0  0  3  0  0  0  0  0  0
  -28.5630  -24.6150   20.5140 C   0  0  0  0  0  2  0  0  0  0  0  0
  -28.4730  -26.1750   20.0450 O   0  0  0  0  0  0  0  0  0  0  0  0
  -24.6710  -31.8770   23.1950 C   0  0  0  0  0  0  0  0  0  0  0  0
  -27.3790  -27.1650   20.1180 C   0  0  0  0  0  0  0  0  0  0  0  0
  -23.5210  -30.4790   21.5240 C   0  0  0  0  0  3  0  0  0  0  0  0
  -25.0180  -28.9390   20.0910 C   0  0  0  0  0  0  0  0  0  0  0  0
  -26.0770  -30.7800   21.3860 C   0  0  0  0  0  2  0  0  0  0  0  0
  -26.1900  -29.3850   20.7130 C   0  0  0  0  0  0  0  0  0  0  0  0
  -27.3690  -28.5220   20.6950 C   0  0  0  0  0  3  0  0  0  0  0  0
  -26.1690  -26.8490   19.4610 C   0  0  0  0  0  3  0  0  0  0  0  0
  -25.0280  -27.6910   19.4440 C   0  0  0  0  0  3  0  0  0  0  0  0
  -23.7750  -29.8240   20.1380 C   0  0  0  0  0  2  0  0  0  0  0  0
  -24.7770  -31.0710   22.0900 N   0  0  0  0  0  0  0  0  0  0  0  0
  -23.5730  -32.1250   23.7180 O   0  0  0  0  0  0  0  0  0  0  0  0
  -22.8560  -29.4450   22.4680 C   0  0  0  0  0  0  0  0  0  0  0  0
  -21.5320  -29.2380   22.3280 N   0  0  0  0  0  0  0  0  0  0  0  0
  -23.5340  -28.8280   23.2930 O   0  0  0  0  0  0  0  0  0  0  0  0
  -21.0380  -29.7870   21.6400 H   0  0  0  0  0  0  0  0  0  0  0  0
  -18.1830  -27.9260   22.7960 C   0  0  0  0  0  0  0  0  0  0  0  0
  -20.7340  -28.2620   23.0770 C   0  0  0  0  0  3  0  0  0  0  0  0
  -20.8790  -26.8460   22.4740 C   0  0  0  0  0  2  0  0  0  0  0  0
  -19.7920  -26.5110   21.4490 C   0  0  0  0  0  2  0  0  0  0  0  0
  -18.4030  -26.5990   22.0900 C   0  0  0  0  0  2  0  0  0  0  0  0
  -19.2780  -28.7140   23.2450 C   0  0  0  0  0  0  0  0  0  0  0  0
  -19.0170  -29.9540   23.8680 C   0  0  0  0  0  3  0  0  0  0  0  0
  -17.6960  -30.4090   24.0450 C   0  0  0  0  0  3  0  0  0  0  0  0
  -16.6180  -29.6200   23.6090 C   0  0  0  0  0  3  0  0  0  0  0  0
  -16.8620  -28.3790   22.9920 C   0  0  0  0  0  3  0  0  0  0  0  0
  -25.9220  -32.5400   23.8450 C   0  0  0  0  0  3  0  0  0  0  0  0
  -26.4110  -31.7940   25.1490 C   0  0  1  0  0  0  0  0  0  0  0  0
  -25.2850  -31.5410   26.1800 C   0  0  0  0  0  1  0  0  0  0  0  0
  -27.0410  -30.4270   24.7990 C   0  0  0  0  0  1  0  0  0  0  0  0
  -27.5180  -32.6230   25.8430 C   0  0  0  0  0  1  0  0  0  0  0  0
  -25.5830  -33.9390   24.1600 N   0  0  0  0  0  0  0  0  0  0  0  0
  -25.9190  -34.9970   23.4100 C   0  0  0  0  0  0  0  0  0  0  0  0
  -26.6100  -34.8990   22.3930 O   0  0  0  0  0  0  0  0  0  0  0  0
  -24.9730  -34.0870   24.9510 H   0  0  0  0  0  0  0  0  0  0  0  0
  -24.1840  -36.7780   23.0120 C   0  0  0  0  0  1  0  0  0  0  0  0
  -25.4080  -36.3830   23.8560 C   0  0  0  0  0  3  0  0  0  0  0  0
  -27.5060  -37.2940   24.7480 C   0  0  0  0  0  1  0  0  0  0  0  0
  -26.4340  -37.4460   23.7690 N   0  0  0  0  0  0  0  0  0  0  0  0
  -26.0150  -38.3640   23.8960 H   0  0  0  0  0  0  0  0  0  0  0  0
  1  5  1  0
  2  5  1  0
  3 46  1  0
  3  1  1  0
  4 16  1  0
  4  3  1  0
  4  2  1  0
  5  6  1  0
  7  5  1  0
  8 16  1  0
  9 14  1  0
 10 11  1  0
 10  9  1  0
 12 11  1  0
 12 21  1  0
 12 13  1  0
 14  8  1  0
 14 13  1  0
 15  8  2  0
 17 16  1  0
 18 19  2  0
 19 38  1  0
 20 19  1  0
 20 23  1  0
 21 22  1  0
 21 18  1  0
 22 20  2  0
 23 24  1  0
 24 25  2  0
 26 29  1  0
 26 25  1  0
 27 26  2  0
 28 27  1  0
 28 23  2  0
 29 30  1  0
 30 31  1  0
 31 32  2  0
 33 32  1  0
 33 37  1  0
 34 33  2  0
 35 30  2  0
 35 34  1  0
 36 35  1  0
 38 39  1  0
 39 42  1  0
 39 41  1  0
 40 38  2  0
 43 18  1  0
 43 44  1  0
 45 43  1  0
 48 47  1  0
 48 46  1  0
 48 49  1  0
 50 52  1  0
 50 49  1  0
 51 62  2  0
 52 57  1  0
 53 61  1  0
 53 63  1  0
 54 60  1  0
 54 56  1  0
 55 61  1  0
 56 55  1  0
 57 56  2  0
 58 52  2  0
 59 58  1  0
 59 54  2  0
 60 53  1  0
 61 51  1  0
 63 65  2  0
 64 63  1  0
 66 64  1  0
 67 76  2  0
 67 72  1  0
 68 64  1  0
 68 72  1  0
 69 68  1  0
 70 71  1  0
 70 69  1  0
 71 67  1  0
 72 73  2  0
 73 74  1  0
 75 74  2  0
 76 75  1  0
 77 51  1  0
 77 82  1  0
 77 78  1  0
 78 81  1  1
 78 79  1  0
 80 78  1  0
 82 85  1  0
 83 87  1  0
 83 82  1  0
 84 83  2  0
 87 86  1  0
 89 87  1  0
 89 90  1  0
 89 88  1  0
M  ISO  4   8 100  16 100  49 101  50 101
M  END
>  <TORSDO>  (8) 
F 19

>  <SCORE>  (8) 
-14.772

>  <name>  (8) 
7

>  <ligand_id>  (8) 
7

>  <original_smiles>  (8) 
[H]c1c([H])c([H])c2c(c1[H])C([H])([H])C([H])([H])C([H])([H])C2([H])N([H])C(=O)C1([H])N(C(=O)C([H])(N([H])C(=O)C([H])(N([H])C([H])([H])[H])C([H])([H])[H])C(C([H])([H])[H])(C([H])([H])[H])C([H])([H])[H])C([H])([H])c2c([H])c(OC([H])([H])C([H])(C([H])([H])[H])C([H])([H])C3([H])C([H])(N([H])C(=O)N4C([H])([H])C([H])([H])C([H])([H])C([H])(n5nc(-c6c([H])c([H])c(Oc7c([H])c([H])c(F)c([H])c7F)c([H])c6[H])c(C(=O)N([H])[H])c5N([H])[H])C4([H])[H])C([H])([H])[N+]([H])([H])C3([H])[H])c([H])c([H])c2C1([H])[H]

>  <smiles>  (8) 
[H]c1c([H])c([H])c2c(c1[H])C([H])([H])C([H])([H])C([H])([H])C2([H])N([H])C(=O)C1([H])N(C(=O)C([H])(N([H])C(=O)C([H])(N([H])C([H])([H])[H])C([H])([H])[H])C(C([H])([H])[H])(C([H])([H])[H])C([H])([H])[H])C([H])([H])c2c([H])c(OC([H])([H])C([H])(C([H])([H])[H])C([H])([H])C3([H])C([H])(N([H])C(=O)N4C([H])([H])C([H])([H])C([H])([H])C([H])(n5nc(-c6c([H])c([H])c(Oc7c([H])c([H])c(F)c([H])c7F)c([H])c6[H])c(C(=O)N([H])[H])c5N([H])[H])C4([H])[H])C([H])([H])[N+]([H])([H])C3([H])[H])c([H])c([H])c2C1([H])[H]

$$$$
8:0:0
     RDKit          3D

 87 95  0  0  1  0  0  0  0  0999 V2000
  -29.4230  -19.4230   20.3270 C   0  0  0  0  0  3  0  0  0  0  0  0
  -28.6870  -20.3450   19.2810 C   0  0  0  0  0  2  0  0  0  0  0  0
  -28.5720  -21.4610   20.4180 C   0  0  0  0  0  3  0  0  0  0  0  0
  -29.5210  -20.3880   21.1700 N   0  0  0  0  0  2  0  0  0  0  0  0
  -30.8940  -18.0010   18.7780 C   0  0  0  0  0  1  0  0  0  0  0  0
  -30.2100  -17.9280   20.1560 C   0  0  0  0  0  0  0  0  0  0  0  0
  -30.4780  -15.1360   20.2740 C   0  0  0  0  0  0  0  0  0  0  0  0
  -30.3520  -12.7610   19.3380 C   0  0  0  0  0  2  0  0  0  0  0  0
  -29.4150  -12.6730   18.1110 C   0  0  0  0  0  2  0  0  0  0  0  0
  -27.9610  -12.4400   18.5580 C   0  0  0  0  0  2  0  0  0  0  0  0
  -27.5510  -13.3650   19.7330 C   0  0  0  0  0  3  0  0  0  0  0  0
  -28.6160  -13.4280   20.8480 C   0  0  0  0  0  2  0  0  0  0  0  0
  -29.8630  -13.8740   20.2150 N   0  0  0  0  0  0  0  0  0  0  0  0
  -31.6900  -15.1320   20.0280 O   0  0  0  0  0  0  0  0  0  0  0  0
  -29.7560  -16.3910   20.3810 N   0  0  0  0  0  4  0  0  0  0  0  0
  -28.7710  -16.2750   20.5650 H   0  0  0  0  0  0  0  0  0  0  0  0
  -25.1810  -13.9180   20.5080 C   0  0  0  0  0  0  0  0  0  0  0  0
  -24.1260  -13.1340   20.8830 C   0  0  0  0  0  0  0  0  0  0  0  0
  -24.5980  -11.7870   20.8400 C   0  0  0  0  0  0  0  0  0  0  0  0
  -26.2250  -13.0480   20.2500 N   0  0  0  0  0  0  0  0  0  0  0  0
  -25.8870  -11.7600   20.5170 N   0  0  0  0  0  0  0  0  0  0  0  0
  -23.8790  -10.5190   21.0270 C   0  0  0  0  0  0  0  0  0  0  0  0
  -24.3120   -9.5530   21.9620 C   0  0  0  0  0  3  0  0  0  0  0  0
  -23.5900   -8.3530   22.1380 C   0  0  0  0  0  3  0  0  0  0  0  0
  -22.4200   -8.1090   21.3780 C   0  0  0  0  0  0  0  0  0  0  0  0
  -22.0060   -9.0650   20.4330 C   0  0  0  0  0  3  0  0  0  0  0  0
  -22.7290  -10.2560   20.2550 C   0  0  0  0  0  3  0  0  0  0  0  0
  -21.6690   -6.9620   21.4640 O   0  0  0  0  0  0  0  0  0  0  0  0
  -21.6050   -6.2290   22.6220 C   0  0  0  0  0  0  0  0  0  0  0  0
  -21.1300   -6.7840   23.8300 C   0  0  0  0  0  3  0  0  0  0  0  0
  -21.0150   -5.9760   24.9790 C   0  0  0  0  0  3  0  0  0  0  0  0
  -21.3650   -4.6140   24.9200 C   0  0  0  0  0  0  0  0  0  0  0  0
  -21.8320   -4.0580   23.7160 C   0  0  0  0  0  3  0  0  0  0  0  0
  -21.9480   -4.8630   22.5700 C   0  0  0  0  0  0  0  0  0  0  0  0
  -22.3790   -4.3170   21.4070 F   0  0  0  0  0  0  0  0  0  0  0  0
  -21.2470   -3.8350   26.0210 F   0  0  0  0  0  0  0  0  0  0  0  0
  -22.7280  -13.6030   21.1650 C   0  0  0  0  0  0  0  0  0  0  0  0
  -22.0090  -12.9010   22.0330 N   0  0  0  0  0  0  0  0  0  0  0  0
  -22.2830  -14.6280   20.6500 O   0  0  0  0  0  0  0  0  0  0  0  0
  -22.3830  -12.0720   22.4710 H   0  0  0  0  0  0  0  0  0  0  0  0
  -21.0720  -13.1980   22.2640 H   0  0  0  0  0  0  0  0  0  0  0  0
  -25.3320  -15.2900   20.3350 N   0  0  0  0  0  0  0  0  0  0  0  0
  -24.5580  -15.9340   20.4530 H   0  0  0  0  0  0  0  0  0  0  0  0
  -26.1620  -15.7350   19.9650 H   0  0  0  0  0  0  0  0  0  0  0  0
  -28.9750  -23.1500   20.3640 C   0  0  0  0  0  3  0  0  0  0  0  0
  -27.9280  -24.5210   20.1720 C   0  0  0  0  0  3  0  0  0  0  0  0
  -28.2090  -26.0910   20.2770 O   0  0  0  0  0  0  0  0  0  0  0  0
  -24.6310  -31.9080   23.2470 C   0  0  0  0  0  0  0  0  0  0  0  0
  -27.1740  -27.1220   20.2170 C   0  0  0  0  0  0  0  0  0  0  0  0
  -23.4250  -30.5180   21.6080 C   0  0  0  0  0  3  0  0  0  0  0  0
  -24.8650  -28.9300   20.1810 C   0  0  0  0  0  0  0  0  0  0  0  0
  -25.9850  -30.7540   21.4460 C   0  0  0  0  0  2  0  0  0  0  0  0
  -26.0510  -29.3550   20.7910 C   0  0  0  0  0  0  0  0  0  0  0  0
  -27.2050  -28.4710   20.7860 C   0  0  0  0  0  3  0  0  0  0  0  0
  -25.9590  -26.8170   19.5660 C   0  0  0  0  0  3  0  0  0  0  0  0
  -24.8370  -27.6770   19.5480 C   0  0  0  0  0  3  0  0  0  0  0  0
  -23.6450  -29.8400   20.2290 C   0  0  0  0  0  2  0  0  0  0  0  0
  -24.7010  -31.0840   22.1540 N   0  0  0  0  0  0  0  0  0  0  0  0
  -23.5450  -32.1980   23.7740 O   0  0  0  0  0  0  0  0  0  0  0  0
  -22.7390  -29.5170   22.5720 C   0  0  0  0  0  0  0  0  0  0  0  0
  -21.4100  -29.3490   22.4440 N   0  0  0  0  0  0  0  0  0  0  0  0
  -23.4060  -28.8920   23.4000 O   0  0  0  0  0  0  0  0  0  0  0  0
  -20.9270  -29.9050   21.7520 H   0  0  0  0  0  0  0  0  0  0  0  0
  -18.0250  -28.1550   22.9500 C   0  0  0  0  0  0  0  0  0  0  0  0
  -20.5850  -28.4140   23.2160 C   0  0  0  0  0  3  0  0  0  0  0  0
  -20.6840  -26.9820   22.6410 C   0  0  0  0  0  2  0  0  0  0  0  0
  -19.5800  -26.6610   21.6270 C   0  0  0  0  0  2  0  0  0  0  0  0
  -18.1990  -26.8070   22.2720 C   0  0  0  0  0  2  0  0  0  0  0  0
  -19.1450  -28.9170   23.3790 C   0  0  0  0  0  0  0  0  0  0  0  0
  -18.9260  -30.1770   23.9760 C   0  0  0  0  0  3  0  0  0  0  0  0
  -17.6210  -30.6770   24.1470 C   0  0  0  0  0  3  0  0  0  0  0  0
  -16.5160  -29.9130   23.7330 C   0  0  0  0  0  3  0  0  0  0  0  0
  -16.7190  -28.6540   23.1400 C   0  0  0  0  0  3  0  0  0  0  0  0
  -25.9100  -32.5410   23.8740 C   0  0  0  0  0  3  0  0  0  0  0  0
  -26.4140  -31.7730   25.1590 C   0  0  1  0  0  0  0  0  0  0  0  0
  -25.3130  -31.5450   26.2210 C   0  0  0  0  0  1  0  0  0  0  0  0
  -26.9950  -30.3910   24.7820 C   0  0  0  0  0  1  0  0  0  0  0  0
  -27.5630  -32.5660   25.8240 C   0  0  0  0  0  1  0  0  0  0  0  0
  -25.6010  -33.9420   24.2070 N   0  0  0  0  0  0  0  0  0  0  0  0
  -25.9230  -34.9970   23.4470 C   0  0  0  0  0  0  0  0  0  0  0  0
  -26.5730  -34.8950   22.4040 O   0  0  0  0  0  0  0  0  0  0  0  0
  -25.0210  -34.0950   25.0180 H   0  0  0  0  0  0  0  0  0  0  0  0
  -24.1840  -36.7940   23.1410 C   0  0  0  0  0  1  0  0  0  0  0  0
  -25.4480  -36.3880   23.9170 C   0  0  0  0  0  3  0  0  0  0  0  0
  -27.6000  -37.2820   24.6910 C   0  0  0  0  0  1  0  0  0  0  0  0
  -26.4770  -37.4420   23.7730 N   0  0  0  0  0  0  0  0  0  0  0  0
  -26.0730  -38.3620   23.9240 H   0  0  0  0  0  0  0  0  0  0  0  0
  1  6  1  0
  1  4  1  0
  2  1  1  0
  2  3  1  0
  3 45  1  0
  3  4  1  0
  5  6  1  0
  6 15  2  0
  7 15  1  0
  8 13  1  0
  9 10  1  0
  9  8  1  0
 11 10  1  0
 11 20  1  0
 11 12  1  0
 13  7  1  0
 13 12  1  0
 14  7  2  0
 15 16  1  0
 17 18  2  0
 18 37  1  0
 19 18  1  0
 19 22  1  0
 20 17  1  0
 20 21  1  0
 21 19  2  0
 22 23  1  0
 23 24  2  0
 25 28  1  0
 25 24  1  0
 26 25  2  0
 27 26  1  0
 27 22  2  0
 28 29  1  0
 29 30  1  0
 30 31  2  0
 32 31  1  0
 32 36  1  0
 33 32  2  0
 34 29  2  0
 34 33  1  0
 35 34  1  0
 37 38  1  0
 38 41  1  0
 38 40  1  0
 39 37  2  0
 42 43  1  0
 42 17  1  0
 44 42  1  0
 46 47  1  0
 46 45  2  0
 48 59  2  0
 49 47  1  0
 49 54  1  0
 50 58  1  0
 50 60  1  0
 51 57  1  0
 51 53  1  0
 52 58  1  0
 53 52  1  0
 54 53  2  0
 55 49  2  0
 56 55  1  0
 56 51  2  0
 57 50  1  0
 58 48  1  0
 60 62  2  0
 61 60  1  0
 63 61  1  0
 64 73  2  0
 64 69  1  0
 65 61  1  0
 65 69  1  0
 66 65  1  0
 67 68  1  0
 67 66  1  0
 68 64  1  0
 69 70  2  0
 70 71  1  0
 72 71  2  0
 73 72  1  0
 74 48  1  0
 74 79  1  0
 74 75  1  0
 75 78  1  1
 75 76  1  0
 77 75  1  0
 79 82  1  0
 80 84  1  0
 80 79  1  0
 81 80  2  0
 84 83  1  0
 86 84  1  0
 86 87  1  0
 86 85  1  0
M  ISO  4   7 100  15 100  46 101  47 101
M  END
>  <TORSDO>  (9) 
F 19

>  <SCORE>  (9) 
-15.667

>  <name>  (9) 
8

>  <ligand_id>  (9) 
8

>  <original_smiles>  (9) 
[H]c1c([H])c([H])c2c(c1[H])C([H])([H])C([H])([H])C([H])([H])C2([H])N([H])C(=O)C1([H])N(C(=O)C([H])(N([H])C(=O)C([H])(N([H])C([H])([H])[H])C([H])([H])[H])C(C([H])([H])[H])(C([H])([H])[H])C([H])([H])[H])C([H])([H])c2c([H])c(OC([H])([H])C([H])([H])C3([H])N=C(C([H])(N([H])C(=O)N4C([H])([H])C([H])([H])C([H])([H])C([H])(n5nc(-c6c([H])c([H])c(Oc7c([H])c([H])c(F)c([H])c7F)c([H])c6[H])c(C(=O)N([H])[H])c5N([H])[H])C4([H])[H])C([H])([H])[H])C3([H])[H])c([H])c([H])c2C1([H])[H]

>  <smiles>  (9) 
[H]c1c([H])c([H])c2c(c1[H])C([H])([H])C([H])([H])C([H])([H])C2([H])N([H])C(=O)C1([H])N(C(=O)C([H])(N([H])C(=O)C([H])(N([H])C([H])([H])[H])C([H])([H])[H])C(C([H])([H])[H])(C([H])([H])[H])C([H])([H])[H])C([H])([H])c2c([H])c(OC([H])([H])C([H])([H])C3([H])N=C(C([H])(N([H])C(=O)N4C([H])([H])C([H])([H])C([H])([H])C([H])(n5nc(-c6c([H])c([H])c(Oc7c([H])c([H])c(F)c([H])c7F)c([H])c6[H])c(C(=O)N([H])[H])c5N([H])[H])C4([H])[H])C([H])([H])[H])C3([H])[H])c([H])c([H])c2C1([H])[H]

$$$$
9:0:0
     RDKit          3D

 94103  0  0  1  0  0  0  0  0999 V2000
  -30.7590  -22.6990   20.0550 C   0  0  0  0  0  2  0  0  0  0  0  0
  -28.8680  -21.4580   19.3390 C   0  0  0  0  0  2  0  0  0  0  0  0
  -30.8550  -21.2540   20.6130 C   0  0  0  0  0  3  0  0  0  0  0  0
  -29.9930  -20.4220   19.6510 C   0  0  0  0  0  3  0  0  0  0  0  0
  -32.3140  -20.7860   20.7600 C   0  0  0  0  0  1  0  0  0  0  0  0
  -29.4650  -22.8220   19.3360 N   0  0  1  0  0  4  0  0  0  0  0  0
  -29.7000  -23.0100   18.3720 H   0  0  0  0  0  0  0  0  0  0  0  0
  -29.3900  -19.0620   20.1580 C   0  0  0  0  0  2  0  0  0  0  0  0
  -29.8540  -17.3420   21.8870 C   0  0  0  0  0  0  0  0  0  0  0  0
  -28.8420  -16.3620   21.2620 C   0  0  0  0  0  2  0  0  0  0  0  0
  -30.2700  -17.7820   20.4590 C   0  0  0  0  0  3  0  0  0  0  0  0
  -29.7980  -16.3180   20.0410 C   0  0  0  0  0  3  0  0  0  0  0  0
  -30.2130  -17.6170   23.0340 O   0  0  0  0  0  0  0  0  0  0  0  0
  -31.1370  -14.2600   19.3530 C   0  0  0  0  0  0  0  0  0  0  0  0
  -30.6670  -12.0830   18.2610 C   0  0  0  0  0  2  0  0  0  0  0  0
  -29.5320  -12.2980   17.2360 C   0  0  0  0  0  2  0  0  0  0  0  0
  -28.1500  -12.1730   17.9080 C   0  0  0  0  0  2  0  0  0  0  0  0
  -28.0480  -13.0150   19.2080 C   0  0  0  0  0  3  0  0  0  0  0  0
  -29.2690  -12.7490   20.1210 C   0  0  0  0  0  2  0  0  0  0  0  0
  -30.4930  -13.0570   19.3550 N   0  0  0  0  0  0  0  0  0  0  0  0
  -32.0570  -14.5300   18.5720 O   0  0  0  0  0  0  0  0  0  0  0  0
  -30.7010  -15.1460   20.2740 N   0  0  0  0  0  0  0  0  0  0  0  0
  -30.3910  -14.6250   21.0800 H   0  0  0  0  0  0  0  0  0  0  0  0
  -25.8710  -13.6860   20.4120 C   0  0  0  0  0  0  0  0  0  0  0  0
  -24.8390  -12.9420   20.9160 C   0  0  0  0  0  0  0  0  0  0  0  0
  -25.1810  -11.5770   20.6760 C   0  0  0  0  0  0  0  0  0  0  0  0
  -26.7880  -12.7750   19.9080 N   0  0  0  0  0  0  0  0  0  0  0  0
  -26.3820  -11.4950   20.1160 N   0  0  0  0  0  0  0  0  0  0  0  0
  -24.4110  -10.3470   20.8950 C   0  0  0  0  0  0  0  0  0  0  0  0
  -24.8410   -9.3590   21.8080 C   0  0  0  0  0  3  0  0  0  0  0  0
  -24.0730   -8.1920   22.0150 C   0  0  0  0  0  3  0  0  0  0  0  0
  -22.8630   -8.0050   21.3070 C   0  0  0  0  0  0  0  0  0  0  0  0
  -22.4520   -8.9810   20.3820 C   0  0  0  0  0  3  0  0  0  0  0  0
  -23.2180  -10.1390   20.1730 C   0  0  0  0  0  3  0  0  0  0  0  0
  -22.0670   -6.8910   21.4240 O   0  0  0  0  0  0  0  0  0  0  0  0
  -21.9090   -6.2410   22.6210 C   0  0  0  0  0  0  0  0  0  0  0  0
  -21.3860   -6.8930   23.7600 C   0  0  0  0  0  3  0  0  0  0  0  0
  -21.1750   -6.1710   24.9510 C   0  0  0  0  0  3  0  0  0  0  0  0
  -21.4760   -4.7970   25.0050 C   0  0  0  0  0  0  0  0  0  0  0  0
  -21.9920   -4.1440   23.8710 C   0  0  0  0  0  3  0  0  0  0  0  0
  -22.2050   -4.8650   22.6820 C   0  0  0  0  0  0  0  0  0  0  0  0
  -22.6840   -4.2270   21.5880 F   0  0  0  0  0  0  0  0  0  0  0  0
  -21.2680   -4.1000   26.1460 F   0  0  0  0  0  0  0  0  0  0  0  0
  -23.5580  -13.4710   21.4970 C   0  0  0  0  0  0  0  0  0  0  0  0
  -22.9660  -12.7460   22.4400 N   0  0  0  0  0  0  0  0  0  0  0  0
  -23.0970  -14.5580   21.1500 O   0  0  0  0  0  0  0  0  0  0  0  0
  -23.3550  -11.8650   22.7430 H   0  0  0  0  0  0  0  0  0  0  0  0
  -22.1140  -13.0820   22.8660 H   0  0  0  0  0  0  0  0  0  0  0  0
  -26.0920  -15.0540   20.3180 N   0  0  0  0  0  0  0  0  0  0  0  0
  -25.3920  -15.7290   20.6050 H   0  0  0  0  0  0  0  0  0  0  0  0
  -26.8580  -15.4690   19.8050 H   0  0  0  0  0  0  0  0  0  0  0  0
  -28.5650  -23.9440   19.8000 C   0  0  0  0  0  2  0  0  0  0  0  0
  -28.8520  -25.3270   19.1270 C   0  0  0  0  0  2  0  0  0  0  0  0
  -28.5890  -26.4950   19.9480 O   0  0  0  0  0  0  0  0  0  0  0  0
  -24.7000  -31.6450   22.9880 C   0  0  0  0  0  0  0  0  0  0  0  0
  -27.3900  -27.1910   19.9110 C   0  0  0  0  0  0  0  0  0  0  0  0
  -23.5100  -30.2370   21.3400 C   0  0  0  0  0  3  0  0  0  0  0  0
  -24.9790  -28.7020   19.9190 C   0  0  0  0  0  0  0  0  0  0  0  0
  -26.0370  -30.5990   21.1580 C   0  0  0  0  0  2  0  0  0  0  0  0
  -26.1310  -29.2280   20.5140 C   0  0  0  0  0  0  0  0  0  0  0  0
  -27.3320  -28.4790   20.5080 C   0  0  0  0  0  3  0  0  0  0  0  0
  -26.2110  -26.6830   19.3170 C   0  0  0  0  0  3  0  0  0  0  0  0
  -25.0160  -27.4310   19.3180 C   0  0  0  0  0  3  0  0  0  0  0  0
  -23.7280  -29.5550   19.9620 C   0  0  0  0  0  2  0  0  0  0  0  0
  -24.7660  -30.8440   21.8870 N   0  0  0  0  0  0  0  0  0  0  0  0
  -23.6140  -31.9110   23.5230 O   0  0  0  0  0  0  0  0  0  0  0  0
  -22.8570  -29.2150   22.2970 C   0  0  0  0  0  0  0  0  0  0  0  0
  -21.5300  -29.0480   22.1850 N   0  0  0  0  0  0  0  0  0  0  0  0
  -23.5430  -28.5710   23.0970 O   0  0  0  0  0  0  0  0  0  0  0  0
  -21.0370  -29.6180   21.5100 H   0  0  0  0  0  0  0  0  0  0  0  0
  -18.1440  -27.9120   22.7370 C   0  0  0  0  0  0  0  0  0  0  0  0
  -20.7120  -28.1090   22.9530 C   0  0  0  0  0  3  0  0  0  0  0  0
  -20.7710  -26.6910   22.3410 C   0  0  0  0  0  2  0  0  0  0  0  0
  -19.6390  -26.4160   21.3460 C   0  0  0  0  0  2  0  0  0  0  0  0
  -18.2770  -26.5740   22.0280 C   0  0  0  0  0  2  0  0  0  0  0  0
  -19.2890  -28.6400   23.1590 C   0  0  0  0  0  0  0  0  0  0  0  0
  -19.1110  -29.8930   23.7850 C   0  0  0  0  0  3  0  0  0  0  0  0
  -17.8220  -30.4180   23.9920 C   0  0  0  0  0  3  0  0  0  0  0  0
  -16.6930  -29.6870   23.5880 C   0  0  0  0  0  3  0  0  0  0  0  0
  -16.8540  -28.4350   22.9670 C   0  0  0  0  0  3  0  0  0  0  0  0
  -25.9790  -32.2820   23.6150 C   0  0  0  0  0  3  0  0  0  0  0  0
  -26.5590  -31.4520   24.8260 C   0  0  1  0  0  0  0  0  0  0  0  0
  -25.5040  -31.1020   25.9000 C   0  0  0  0  0  1  0  0  0  0  0  0
  -27.1840  -30.1280   24.3300 C   0  0  0  0  0  1  0  0  0  0  0  0
  -27.6960  -32.2470   25.5100 C   0  0  0  0  0  1  0  0  0  0  0  0
  -25.6300  -33.6440   24.0410 N   0  0  0  0  0  0  0  0  0  0  0  0
  -25.8860  -34.7520   23.3320 C   0  0  0  0  0  0  0  0  0  0  0  0
  -26.5130  -34.7380   22.2680 O   0  0  0  0  0  0  0  0  0  0  0  0
  -25.0650  -33.7270   24.8720 H   0  0  0  0  0  0  0  0  0  0  0  0
  -24.0640  -36.4790   23.1720 C   0  0  0  0  0  1  0  0  0  0  0  0
  -25.3660  -36.0920   23.8900 C   0  0  0  0  0  3  0  0  0  0  0  0
  -27.5020  -37.0340   24.6540 C   0  0  0  0  0  1  0  0  0  0  0  0
  -26.3440  -37.1960   23.7790 N   0  0  0  0  0  0  0  0  0  0  0  0
  -25.9070  -38.0900   23.9910 H   0  0  0  0  0  0  0  0  0  0  0  0
  1  3  1  0
  2  4  1  0
  3  5  1  0
  4  8  1  0
  4  3  1  0
  6  2  1  0
  6 52  1  0
  6  1  1  0
  6  7  1  6
  9 13  2  0
 10  9  1  0
 11  8  1  0
 11  9  1  0
 12 22  1  0
 12 11  1  0
 12 10  1  0
 14 20  1  0
 14 22  1  0
 15 20  1  0
 16 17  1  0
 16 15  1  0
 18 17  1  0
 18 27  1  0
 18 19  1  0
 20 19  1  0
 21 14  2  0
 22 23  1  0
 24 25  2  0
 25 44  1  0
 26 29  1  0
 26 25  1  0
 27 28  1  0
 27 24  1  0
 28 26  2  0
 29 30  1  0
 30 31  2  0
 32 35  1  0
 32 31  1  0
 33 32  2  0
 34 33  1  0
 34 29  2  0
 35 36  1  0
 36 41  2  0
 36 37  1  0
 37 38  2  0
 38 39  1  0
 39 43  1  0
 40 39  2  0
 41 40  1  0
 42 41  1  0
 44 45  1  0
 45 47  1  0
 45 48  1  0
 46 44  2  0
 49 24  1  0
 49 50  1  0
 51 49  1  0
 53 52  1  0
 53 54  1  0
 55 66  2  0
 56 54  1  0
 56 61  1  0
 57 65  1  0
 57 67  1  0
 58 64  1  0
 58 60  1  0
 59 65  1  0
 60 59  1  0
 61 60  2  0
 62 63  1  0
 62 56  2  0
 63 58  2  0
 64 57  1  0
 65 55  1  0
 67 69  2  0
 68 67  1  0
 70 68  1  0
 71 80  2  0
 71 76  1  0
 72 68  1  0
 72 76  1  0
 73 72  1  0
 74 75  1  0
 74 73  1  0
 75 71  1  0
 76 77  2  0
 77 78  1  0
 79 78  2  0
 80 79  1  0
 81 55  1  0
 81 86  1  0
 81 82  1  0
 82 85  1  1
 82 83  1  0
 84 82  1  0
 86 89  1  0
 87 91  1  0
 87 86  1  0
 88 87  2  0
 91 90  1  0
 93 91  1  0
 93 94  1  0
 93 92  1  0
M  ISO  4  14 100  22 100  53 101  54 101
M  END
>  <TORSDO>  (10) 
F 20

>  <SCORE>  (10) 
-11.536

>  <name>  (10) 
9

>  <ligand_id>  (10) 
9

>  <original_smiles>  (10) 
[H]c1c([H])c([H])c2c(c1[H])C([H])([H])C([H])([H])C([H])([H])C2([H])N([H])C(=O)C1([H])N(C(=O)C([H])(N([H])C(=O)C([H])(N([H])C([H])([H])[H])C([H])([H])[H])C(C([H])([H])[H])(C([H])([H])[H])C([H])([H])[H])C([H])([H])c2c([H])c(OC([H])([H])C([H])([H])[N+]3([H])C([H])([H])C([H])(C([H])([H])[H])C([H])(C([H])([H])C4([H])C(=O)C([H])([H])C4([H])N([H])C(=O)N4C([H])([H])C([H])([H])C([H])([H])C([H])(n5nc(-c6c([H])c([H])c(Oc7c([H])c([H])c(F)c([H])c7F)c([H])c6[H])c(C(=O)N([H])[H])c5N([H])[H])C4([H])[H])C3([H])[H])c([H])c([H])c2C1([H])[H]

>  <smiles>  (10) 
[H]c1c([H])c([H])c2c(c1[H])C([H])([H])C([H])([H])C([H])([H])C2([H])N([H])C(=O)C1([H])N(C(=O)C([H])(N([H])C(=O)C([H])(N([H])C([H])([H])[H])C([H])([H])[H])C(C([H])([H])[H])(C([H])([H])[H])C([H])([H])[H])C([H])([H])c2c([H])c(OC([H])([H])C([H])([H])[N+]3([H])C([H])([H])C([H])(C([H])([H])[H])C([H])(C([H])([H])C4([H])C(=O)C([H])([H])C4([H])N([H])C(=O)N4C([H])([H])C([H])([H])C([H])([H])C([H])(n5nc(-c6c([H])c([H])c(Oc7c([H])c([H])c(F)c([H])c7F)c([H])c6[H])c(C(=O)N([H])[H])c5N([H])[H])C4([H])[H])C3([H])[H])c([H])c([H])c2C1([H])[H]

$$$$
10:0:0
     RDKit          3D

 89 98  0  0  1  0  0  0  0  0999 V2000
  -28.5450  -22.1080   20.7140 C   0  0  0  0  0  3  0  0  0  0  0  0
  -29.6180  -24.5480   20.9210 C   0  0  0  0  0  2  0  0  0  0  0  0
  -28.7590  -23.6010   20.1260 C   0  0  0  0  0  3  0  0  0  0  0  0
  -28.1880  -25.0040   20.7140 C   0  0  0  0  0  3  0  0  0  0  0  0
  -28.3700  -26.4310   20.2590 O   0  0  0  0  0  0  0  0  0  0  0  0
  -24.6040  -31.9020   23.2380 C   0  0  0  0  0  0  0  0  0  0  0  0
  -27.2610  -27.3040   20.2380 C   0  0  0  0  0  0  0  0  0  0  0  0
  -23.4220  -30.4940   21.5840 C   0  0  0  0  0  3  0  0  0  0  0  0
  -24.8950  -28.9320   20.1850 C   0  0  0  0  0  0  0  0  0  0  0  0
  -25.9640  -30.8120   21.4310 C   0  0  0  0  0  2  0  0  0  0  0  0
  -26.0590  -29.4250   20.7930 C   0  0  0  0  0  0  0  0  0  0  0  0
  -27.2470  -28.6270   20.8010 C   0  0  0  0  0  3  0  0  0  0  0  0
  -26.0780  -26.8720   19.6100 C   0  0  0  0  0  3  0  0  0  0  0  0
  -24.9120  -27.6660   19.5770 C   0  0  0  0  0  3  0  0  0  0  0  0
  -23.6580  -29.8100   20.2110 C   0  0  0  0  0  2  0  0  0  0  0  0
  -24.6800  -31.0910   22.1400 N   0  0  0  0  0  0  0  0  0  0  0  0
  -23.5130  -32.1780   23.7600 O   0  0  0  0  0  0  0  0  0  0  0  0
  -22.7480  -29.4830   22.5420 C   0  0  0  0  0  0  0  0  0  0  0  0
  -21.4230  -29.3120   22.4090 N   0  0  0  0  0  0  0  0  0  0  0  0
  -23.4190  -28.8530   23.3640 O   0  0  0  0  0  0  0  0  0  0  0  0
  -20.9400  -29.8750   21.7220 H   0  0  0  0  0  0  0  0  0  0  0  0
  -18.0380  -28.1310   22.9050 C   0  0  0  0  0  0  0  0  0  0  0  0
  -20.5980  -28.3750   23.1750 C   0  0  0  0  0  3  0  0  0  0  0  0
  -20.6880  -26.9440   22.5930 C   0  0  0  0  0  2  0  0  0  0  0  0
  -19.5850  -26.6340   21.5760 C   0  0  0  0  0  2  0  0  0  0  0  0
  -18.2050  -26.7840   22.2210 C   0  0  0  0  0  2  0  0  0  0  0  0
  -19.1620  -28.8850   23.3390 C   0  0  0  0  0  0  0  0  0  0  0  0
  -18.9510  -30.1450   23.9390 C   0  0  0  0  0  3  0  0  0  0  0  0
  -17.6480  -30.6520   24.1090 C   0  0  0  0  0  3  0  0  0  0  0  0
  -16.5400  -29.8960   23.6910 C   0  0  0  0  0  3  0  0  0  0  0  0
  -16.7340  -28.6370   23.0960 C   0  0  0  0  0  3  0  0  0  0  0  0
  -25.8760  -32.5380   23.8740 C   0  0  0  0  0  3  0  0  0  0  0  0
  -26.3750  -31.7780   25.1640 C   0  0  1  0  0  0  0  0  0  0  0  0
  -25.2660  -31.5480   26.2180 C   0  0  0  0  0  1  0  0  0  0  0  0
  -26.9620  -30.3950   24.7960 C   0  0  0  0  0  1  0  0  0  0  0  0
  -27.5140  -32.5800   25.8360 C   0  0  0  0  0  1  0  0  0  0  0  0
  -25.5610  -33.9410   24.1880 N   0  0  0  0  0  0  0  0  0  0  0  0
  -25.9060  -34.9910   23.4290 C   0  0  0  0  0  0  0  0  0  0  0  0
  -26.5930  -34.8800   22.4100 O   0  0  0  0  0  0  0  0  0  0  0  0
  -24.9530  -34.0990   24.9780 H   0  0  0  0  0  0  0  0  0  0  0  0
  -24.1900  -36.7890   23.0300 C   0  0  0  0  0  1  0  0  0  0  0  0
  -25.4130  -36.3840   23.8690 C   0  0  0  0  0  3  0  0  0  0  0  0
  -27.5340  -37.2700   24.7370 C   0  0  0  0  0  1  0  0  0  0  0  0
  -26.4510  -37.4340   23.7720 N   0  0  0  0  0  0  0  0  0  0  0  0
  -26.0440  -38.3580   23.9060 H   0  0  0  0  0  0  0  0  0  0  0  0
  -29.2100  -20.7720   20.0350 C   0  0  0  0  0  3  0  0  0  0  0  0
  -29.2420  -19.4600   20.8520 N   0  0  0  0  0  4  0  0  0  0  0  0
  -30.0420  -19.5100   21.4610 H   0  0  0  0  0  0  0  0  0  0  0  0
  -28.4390  -19.5150   21.4570 H   0  0  0  0  0  0  0  0  0  0  0  0
  -30.6030  -14.8070   20.1000 C   0  0  0  0  0  0  0  0  0  0  0  0
  -30.3450  -12.5440   19.0470 C   0  0  0  0  0  2  0  0  0  0  0  0
  -29.3700  -12.6370   17.8560 C   0  0  0  0  0  2  0  0  0  0  0  0
  -27.9170  -12.4590   18.3350 C   0  0  0  0  0  2  0  0  0  0  0  0
  -27.5880  -13.3190   19.5870 C   0  0  0  0  0  3  0  0  0  0  0  0
  -28.6890  -13.2280   20.6640 C   0  0  0  0  0  2  0  0  0  0  0  0
  -29.9460  -13.5980   20.0130 N   0  0  0  0  0  0  0  0  0  0  0  0
  -31.7980  -14.8510   19.7890 O   0  0  0  0  0  0  0  0  0  0  0  0
  -30.4080  -17.3270   19.6080 C   0  0  0  0  0  2  0  0  0  0  0  0
  -29.2410  -16.7790   21.1910 C   0  0  0  0  0  2  0  0  0  0  0  0
  -29.1810  -18.0310   20.2430 C   0  0  0  0  0  3  0  0  0  0  0  0
  -29.8670  -15.9980   20.0770 N   0  0  0  0  0  0  0  0  0  0  0  0
  -25.2280  -13.8900   20.4010 C   0  0  0  0  0  0  0  0  0  0  0  0
  -24.1780  -13.1070   20.7960 C   0  0  0  0  0  0  0  0  0  0  0  0
  -24.6450  -11.7580   20.7420 C   0  0  0  0  0  0  0  0  0  0  0  0
  -26.2670  -13.0180   20.1240 N   0  0  0  0  0  0  0  0  0  0  0  0
  -25.9270  -11.7300   20.3960 N   0  0  0  0  0  0  0  0  0  0  0  0
  -23.9280  -10.4910   20.9450 C   0  0  0  0  0  0  0  0  0  0  0  0
  -24.3780   -9.5330   21.8800 C   0  0  0  0  0  3  0  0  0  0  0  0
  -23.6620   -8.3330   22.0750 C   0  0  0  0  0  3  0  0  0  0  0  0
  -22.4820   -8.0800   21.3350 C   0  0  0  0  0  0  0  0  0  0  0  0
  -22.0530   -9.0270   20.3870 C   0  0  0  0  0  3  0  0  0  0  0  0
  -22.7700  -10.2190   20.1910 C   0  0  0  0  0  3  0  0  0  0  0  0
  -21.7390   -6.9300   21.4340 O   0  0  0  0  0  0  0  0  0  0  0  0
  -21.6880   -6.2060   22.5980 C   0  0  0  0  0  0  0  0  0  0  0  0
  -21.2450   -6.7740   23.8110 C   0  0  0  0  0  3  0  0  0  0  0  0
  -21.1410   -5.9750   24.9680 C   0  0  0  0  0  3  0  0  0  0  0  0
  -21.4740   -4.6080   24.9140 C   0  0  0  0  0  0  0  0  0  0  0  0
  -21.9100   -4.0390   23.7040 C   0  0  0  0  0  3  0  0  0  0  0  0
  -22.0160   -4.8360   22.5500 C   0  0  0  0  0  0  0  0  0  0  0  0
  -22.4150   -4.2760   21.3830 F   0  0  0  0  0  0  0  0  0  0  0  0
  -21.3670   -3.8380   26.0220 F   0  0  0  0  0  0  0  0  0  0  0  0
  -22.7870  -13.5740   21.1110 C   0  0  0  0  0  0  0  0  0  0  0  0
  -22.0900  -12.8700   21.9950 N   0  0  0  0  0  0  0  0  0  0  0  0
  -22.3290  -14.6010   20.6110 O   0  0  0  0  0  0  0  0  0  0  0  0
  -22.4750  -12.0400   22.4240 H   0  0  0  0  0  0  0  0  0  0  0  0
  -21.1560  -13.1640   22.2450 H   0  0  0  0  0  0  0  0  0  0  0  0
  -25.3830  -15.2640   20.2260 N   0  0  0  0  0  0  0  0  0  0  0  0
  -24.6220  -15.9190   20.3650 H   0  0  0  0  0  0  0  0  0  0  0  0
  -26.2230  -15.6990   19.8640 H   0  0  0  0  0  0  0  0  0  0  0  0
  3  4  1  0
  3  1  1  0
  3  2  1  0
  4  5  1  0
  4  2  1  0
  6 17  2  0
  7  5  1  0
  7 12  1  0
  8 16  1  0
  8 18  1  0
  9 15  1  0
  9 11  1  0
 10 16  1  0
 11 12  2  0
 11 10  1  0
 13  7  2  0
 14 13  1  0
 14  9  2  0
 15  8  1  0
 16  6  1  0
 18 20  2  0
 19 18  1  0
 21 19  1  0
 22 31  2  0
 22 27  1  0
 23 19  1  0
 23 27  1  0
 24 23  1  0
 25 26  1  0
 25 24  1  0
 26 22  1  0
 27 28  2  0
 28 29  1  0
 30 29  2  0
 31 30  1  0
 32  6  1  0
 32 37  1  0
 32 33  1  0
 33 36  1  1
 33 34  1  0
 35 33  1  0
 37 40  1  0
 38 42  1  0
 38 37  1  0
 39 38  2  0
 42 41  1  0
 44 42  1  0
 44 45  1  0
 44 43  1  0
 46  1  2  0
 46 47  1  0
 47 49  1  0
 47 48  1  0
 51 56  1  0
 52 53  1  0
 52 51  1  0
 54 53  1  0
 54 65  1  0
 54 55  1  0
 56 50  1  0
 56 55  1  0
 57 50  2  0
 58 61  1  0
 58 60  1  0
 60 47  1  0
 60 59  1  0
 61 50  1  0
 61 59  1  0
 62 63  2  0
 63 82  1  0
 64 63  1  0
 64 67  1  0
 65 66  1  0
 65 62  1  0
 66 64  2  0
 67 68  1  0
 68 69  2  0
 70 73  1  0
 70 69  1  0
 71 70  2  0
 72 71  1  0
 72 67  2  0
 73 74  1  0
 74 75  1  0
 75 76  2  0
 77 76  1  0
 77 81  1  0
 78 77  2  0
 79 74  2  0
 79 78  1  0
 80 79  1  0
 82 83  1  0
 83 86  1  0
 83 85  1  0
 84 82  2  0
 87 88  1  0
 87 62  1  0
 89 87  1  0
M  ISO  4   4 101   5 101  50 100  61 100
M  END
>  <TORSDO>  (11) 
F 19

>  <SCORE>  (11) 
-14.256

>  <name>  (11) 
10

>  <ligand_id>  (11) 
10

>  <original_smiles>  (11) 
[H]c1c([H])c([H])c2c(c1[H])C([H])([H])C([H])([H])C([H])([H])C2([H])N([H])C(=O)C1([H])N(C(=O)C([H])(N([H])C(=O)C([H])(N([H])C([H])([H])[H])C([H])([H])[H])C(C([H])([H])[H])(C([H])([H])[H])C([H])([H])[H])C([H])([H])c2c([H])c(OC3([H])C([H])([H])C3([H])C([H])([H])C([H])([H])[N+]([H])([H])C3([H])C([H])([H])N(C(=O)N4C([H])([H])C([H])([H])C([H])([H])C([H])(n5nc(-c6c([H])c([H])c(Oc7c([H])c([H])c(F)c([H])c7F)c([H])c6[H])c(C(=O)N([H])[H])c5N([H])[H])C4([H])[H])C3([H])[H])c([H])c([H])c2C1([H])[H]

>  <smiles>  (11) 
[H]c1c([H])c([H])c2c(c1[H])C([H])([H])C([H])([H])C([H])([H])C2([H])N([H])C(=O)C1([H])N(C(=O)C([H])(N([H])C(=O)C([H])(N([H])C([H])([H])[H])C([H])([H])[H])C(C([H])([H])[H])(C([H])([H])[H])C([H])([H])[H])C([H])([H])c2c([H])c(OC3([H])C([H])([H])C3([H])C([H])([H])C([H])([H])[N+]([H])([H])C3([H])C([H])([H])N(C(=O)N4C([H])([H])C([H])([H])C([H])([H])C([H])(n5nc(-c6c([H])c([H])c(Oc7c([H])c([H])c(F)c([H])c7F)c([H])c6[H])c(C(=O)N([H])[H])c5N([H])[H])C4([H])[H])C3([H])[H])c([H])c([H])c2C1([H])[H]

$$$$
11:0:0
     RDKit          3D

 96106  0  0  1  0  0  0  0  0999 V2000
  -27.0230  -20.0170   18.8420 C   0  0  0  0  0  2  0  0  0  0  0  0
  -28.2930  -19.6310   18.0470 C   0  0  0  0  0  2  0  0  0  0  0  0
  -29.5240  -22.7090   20.2480 C   0  0  0  0  0  2  0  0  0  0  0  0
  -27.8720  -19.8480   21.2440 C   0  0  0  0  0  2  0  0  0  0  0  0
  -27.5490  -20.8130   20.0620 C   0  0  0  0  0  3  0  0  0  0  0  0
  -29.4690  -20.1060   18.9380 C   0  0  0  0  0  3  0  0  0  0  0  0
  -28.4840  -23.6770   19.5580 C   0  0  0  0  0  3  0  0  0  0  0  0
  -29.7890  -18.8570   19.9600 C   0  0  0  0  0  3  0  0  0  0  0  0
  -28.8310  -21.4800   19.5420 C   0  0  2  0  0  0  0  0  0  0  0  0
  -28.5950  -18.6170   20.8110 N   0  0  0  0  0  4  0  0  0  0  0  0
  -28.4910  -22.5690   18.5540 N   0  0  0  0  0  4  0  0  0  0  0  0
  -27.9410  -18.0570   20.2930 H   0  0  0  0  0  0  0  0  0  0  0  0
  -28.8650  -18.0960   21.6280 H   0  0  0  0  0  0  0  0  0  0  0  0
  -29.2420  -22.7110   17.8980 H   0  0  0  0  0  0  0  0  0  0  0  0
  -27.6180  -22.4570   18.0610 H   0  0  0  0  0  0  0  0  0  0  0  0
  -30.4150  -17.4470   19.3660 C   0  0  0  0  0  2  0  0  0  0  0  0
  -30.9050  -14.8820   19.7280 C   0  0  0  0  0  0  0  0  0  0  0  0
  -30.6470  -12.5670   18.8180 C   0  0  0  0  0  2  0  0  0  0  0  0
  -29.6240  -12.5970   17.6620 C   0  0  0  0  0  2  0  0  0  0  0  0
  -28.1910  -12.4220   18.2020 C   0  0  0  0  0  2  0  0  0  0  0  0
  -27.9010  -13.3410   19.4170 C   0  0  0  0  0  3  0  0  0  0  0  0
  -29.0400  -13.3040   20.4610 C   0  0  0  0  0  2  0  0  0  0  0  0
  -30.2840  -13.6490   19.7650 N   0  0  0  0  0  0  0  0  0  0  0  0
  -32.0570  -14.9650   19.2950 O   0  0  0  0  0  0  0  0  0  0  0  0
  -30.1480  -16.0350   19.9350 N   0  0  0  0  0  0  0  0  0  0  0  0
  -29.2230  -15.8510   20.2900 H   0  0  0  0  0  0  0  0  0  0  0  0
  -25.6070  -13.9470   20.3850 C   0  0  0  0  0  0  0  0  0  0  0  0
  -24.5620  -13.1810   20.8180 C   0  0  0  0  0  0  0  0  0  0  0  0
  -24.9840  -11.8210   20.6870 C   0  0  0  0  0  0  0  0  0  0  0  0
  -26.6010  -13.0570   20.0150 N   0  0  0  0  0  0  0  0  0  0  0  0
  -26.2400  -11.7700   20.2590 N   0  0  0  0  0  0  0  0  0  0  0  0
  -24.2450  -10.5680   20.8850 C   0  0  0  0  0  0  0  0  0  0  0  0
  -24.6720   -9.5990   21.8210 C   0  0  0  0  0  3  0  0  0  0  0  0
  -23.9340   -8.4100   22.0080 C   0  0  0  0  0  3  0  0  0  0  0  0
  -22.7570   -8.1810   21.2580 C   0  0  0  0  0  0  0  0  0  0  0  0
  -22.3490   -9.1370   20.3120 C   0  0  0  0  0  3  0  0  0  0  0  0
  -23.0870  -10.3170   20.1230 C   0  0  0  0  0  3  0  0  0  0  0  0
  -21.9910   -7.0440   21.3550 O   0  0  0  0  0  0  0  0  0  0  0  0
  -21.8450   -6.3720   22.5420 C   0  0  0  0  0  0  0  0  0  0  0  0
  -21.3250   -7.0020   23.6950 C   0  0  0  0  0  3  0  0  0  0  0  0
  -21.1270   -6.2580   24.8750 C   0  0  0  0  0  3  0  0  0  0  0  0
  -21.4380   -4.8850   24.9030 C   0  0  0  0  0  0  0  0  0  0  0  0
  -21.9490   -4.2550   23.7530 C   0  0  0  0  0  3  0  0  0  0  0  0
  -22.1480   -4.9970   22.5760 C   0  0  0  0  0  0  0  0  0  0  0  0
  -22.6210   -4.3810   21.4660 F   0  0  0  0  0  0  0  0  0  0  0  0
  -21.2400   -4.1660   26.0330 F   0  0  0  0  0  0  0  0  0  0  0  0
  -23.2060  -13.6750   21.2300 C   0  0  0  0  0  0  0  0  0  0  0  0
  -22.5460  -12.9640   22.1380 N   0  0  0  0  0  0  0  0  0  0  0  0
  -22.7450  -14.7240   20.7830 O   0  0  0  0  0  0  0  0  0  0  0  0
  -22.9370  -12.1140   22.5180 H   0  0  0  0  0  0  0  0  0  0  0  0
  -21.6380  -13.2720   22.4550 H   0  0  0  0  0  0  0  0  0  0  0  0
  -25.7920  -15.3190   20.2420 N   0  0  0  0  0  0  0  0  0  0  0  0
  -25.0040  -15.9480   20.3550 H   0  0  0  0  0  0  0  0  0  0  0  0
  -26.5090  -15.6920   19.6360 H   0  0  0  0  0  0  0  0  0  0  0  0
  -28.6910  -25.1570   18.9000 C   0  0  0  0  0  2  0  0  0  0  0  0
  -28.5430  -26.5000   19.5660 O   0  0  0  0  0  0  0  0  0  0  0  0
  -24.7160  -31.6220   22.9660 C   0  0  0  0  0  0  0  0  0  0  0  0
  -27.3880  -27.3180   19.5490 C   0  0  0  0  0  0  0  0  0  0  0  0
  -23.5130  -30.2930   21.2680 C   0  0  0  0  0  3  0  0  0  0  0  0
  -24.9710  -28.8730   19.7070 C   0  0  0  0  0  0  0  0  0  0  0  0
  -26.0380  -30.6920   21.0440 C   0  0  0  0  0  2  0  0  0  0  0  0
  -26.1410  -29.3560   20.3050 C   0  0  0  0  0  0  0  0  0  0  0  0
  -27.3460  -28.5910   20.2140 C   0  0  0  0  0  3  0  0  0  0  0  0
  -26.1890  -26.8900   18.9380 C   0  0  0  0  0  3  0  0  0  0  0  0
  -25.0000  -27.6480   19.0160 C   0  0  0  0  0  3  0  0  0  0  0  0
  -23.7110  -29.7080   19.8430 C   0  0  0  0  0  2  0  0  0  0  0  0
  -24.7760  -30.8850   21.8150 N   0  0  0  0  0  0  0  0  0  0  0  0
  -23.6380  -31.8300   23.5440 O   0  0  0  0  0  0  0  0  0  0  0  0
  -22.9020  -29.2020   22.1800 C   0  0  0  0  0  0  0  0  0  0  0  0
  -21.5740  -29.0090   22.0910 N   0  0  0  0  0  0  0  0  0  0  0  0
  -23.6210  -28.5330   22.9250 O   0  0  0  0  0  0  0  0  0  0  0  0
  -21.0460  -29.5990   21.4640 H   0  0  0  0  0  0  0  0  0  0  0  0
  -18.2470  -27.6930   22.6280 C   0  0  0  0  0  0  0  0  0  0  0  0
  -20.8070  -27.9970   22.8220 C   0  0  0  0  0  3  0  0  0  0  0  0
  -20.9190  -26.6120   22.1390 C   0  0  0  0  0  2  0  0  0  0  0  0
  -19.7830  -26.3290   21.1530 C   0  0  0  0  0  2  0  0  0  0  0  0
  -18.4290  -26.3930   21.8620 C   0  0  0  0  0  2  0  0  0  0  0  0
  -19.3640  -28.4510   23.0690 C   0  0  0  0  0  0  0  0  0  0  0  0
  -19.1390  -29.6650   23.7570 C   0  0  0  0  0  3  0  0  0  0  0  0
  -17.8290  -30.1160   24.0080 C   0  0  0  0  0  3  0  0  0  0  0  0
  -16.7280  -29.3550   23.5790 C   0  0  0  0  0  3  0  0  0  0  0  0
  -16.9380  -28.1470   22.8930 C   0  0  0  0  0  3  0  0  0  0  0  0
  -25.9930  -32.2570   23.5950 C   0  0  0  0  0  3  0  0  0  0  0  0
  -25.6440  -33.6150   24.0410 N   0  0  0  0  0  0  0  0  0  0  0  0
  -25.9200  -34.7350   23.3610 C   0  0  0  0  0  0  0  0  0  0  0  0
  -26.5620  -34.7360   22.3070 O   0  0  0  0  0  0  0  0  0  0  0  0
  -25.0720  -33.6860   24.8680 H   0  0  0  0  0  0  0  0  0  0  0  0
  -24.1190  -36.4860   23.2010 C   0  0  0  0  0  1  0  0  0  0  0  0
  -25.4010  -36.0670   23.9390 C   0  0  0  0  0  3  0  0  0  0  0  0
  -27.5270  -36.9690   24.7740 C   0  0  0  0  0  1  0  0  0  0  0  0
  -26.3920  -37.1630   23.8750 N   0  0  0  0  0  0  0  0  0  0  0  0
  -25.9590  -38.0550   24.0990 H   0  0  0  0  0  0  0  0  0  0  0  0
  -26.5780  -31.4170   24.7970 C   0  0  1  0  0  0  0  0  0  0  0  0
  -25.5310  -31.0750   25.8840 C   0  0  0  0  0  1  0  0  0  0  0  0
  -27.1830  -30.0850   24.2940 C   0  0  0  0  0  1  0  0  0  0  0  0
  -27.7290  -32.1960   25.4760 C   0  0  0  0  0  1  0  0  0  0  0  0
  2  1  1  0
  5  1  1  0
  5  4  1  0
  6  2  1  0
  6  9  1  0
  6  8  1  0
  7 55  1  0
  7  3  1  0
  8 16  1  0
  8 10  1  0
  9  5  1  0
  9  3  1  1
 10  4  1  0
 10 13  1  0
 11  9  1  0
 11  7  1  0
 12 10  1  0
 14 11  1  0
 15 11  1  0
 16 25  1  0
 17 23  1  0
 17 25  1  0
 18 23  1  0
 19 20  1  0
 19 18  1  0
 21 20  1  0
 21 30  1  0
 21 22  1  0
 23 22  1  0
 24 17  2  0
 25 26  1  0
 27 28  2  0
 28 47  1  0
 29 28  1  0
 29 32  1  0
 30 31  1  0
 30 27  1  0
 31 29  2  0
 32 33  1  0
 33 34  2  0
 35 38  1  0
 35 34  1  0
 36 35  2  0
 37 36  1  0
 37 32  2  0
 38 39  1  0
 39 44  2  0
 39 40  1  0
 40 41  2  0
 41 42  1  0
 42 46  1  0
 43 42  2  0
 44 43  1  0
 45 44  1  0
 47 48  1  0
 48 51  1  0
 48 50  1  0
 49 47  2  0
 52 53  1  0
 52 27  1  0
 54 52  1  0
 55 56  1  0
 57 68  2  0
 58 56  1  0
 58 63  1  0
 59 67  1  0
 59 69  1  0
 60 66  1  0
 60 62  1  0
 61 67  1  0
 62 61  1  0
 63 62  2  0
 64 65  1  0
 64 58  2  0
 65 60  2  0
 66 59  1  0
 67 57  1  0
 69 71  2  0
 70 69  1  0
 72 70  1  0
 73 82  2  0
 73 78  1  0
 74 70  1  0
 74 78  1  0
 75 74  1  0
 76 77  1  0
 76 75  1  0
 77 73  1  0
 78 79  2  0
 79 80  1  0
 81 80  2  0
 82 81  1  0
 83 57  1  0
 83 84  1  0
 83 93  1  0
 84 87  1  0
 85 89  1  0
 85 84  1  0
 86 85  2  0
 89 88  1  0
 91 89  1  0
 91 92  1  0
 91 90  1  0
 93 96  1  1
 93 94  1  0
 95 93  1  0
M  ISO  4  17 100  25 100  55 101  56 101
M  END
>  <TORSDO>  (12) 
F 18

>  <SCORE>  (12) 
-12.301

>  <name>  (12) 
11

>  <ligand_id>  (12) 
11

>  <original_smiles>  (12) 
[H]c1c([H])c([H])c2c(c1[H])C([H])([H])C([H])([H])C([H])([H])C2([H])N([H])C(=O)C1([H])N(C(=O)C([H])(N([H])C(=O)C([H])(N([H])C([H])([H])[H])C([H])([H])[H])C(C([H])([H])[H])(C([H])([H])[H])C([H])([H])[H])C([H])([H])c2c([H])c(OC([H])([H])C3([H])C([H])([H])C4(C5([H])C([H])([H])C([H])([H])C4([H])C([H])(C([H])([H])N([H])C(=O)N4C([H])([H])C([H])([H])C([H])([H])C([H])(n6nc(-c7c([H])c([H])c(Oc8c([H])c([H])c(F)c([H])c8F)c([H])c7[H])c(C(=O)N([H])[H])c6N([H])[H])C4([H])[H])[N+]([H])([H])C5([H])[H])[N+]3([H])[H])c([H])c([H])c2C1([H])[H]

>  <smiles>  (12) 
[H]c1c([H])c([H])c2c(c1[H])C([H])([H])C([H])([H])C([H])([H])C2([H])N([H])C(=O)C1([H])N(C(=O)C([H])(N([H])C(=O)C([H])(N([H])C([H])([H])[H])C([H])([H])[H])C(C([H])([H])[H])(C([H])([H])[H])C([H])([H])[H])C([H])([H])c2c([H])c(OC([H])([H])C3([H])C([H])([H])C4(C5([H])C([H])([H])C([H])([H])C4([H])C([H])(C([H])([H])N([H])C(=O)N4C([H])([H])C([H])([H])C([H])([H])C([H])(n6nc(-c7c([H])c([H])c(Oc8c([H])c([H])c(F)c([H])c8F)c([H])c7[H])c(C(=O)N([H])[H])c6N([H])[H])C4([H])[H])[N+]([H])([H])C5([H])[H])[N+]3([H])[H])c([H])c([H])c2C1([H])[H]

$$$$
12:0:0
     RDKit          3D

 87 95  0  0  1  0  0  0  0  0999 V2000
  -30.9380  -19.0250   20.0100 C   0  0  0  0  0  0  0  0  0  0  0  0
  -30.6790  -20.5950   19.9310 C   0  0  0  0  0  2  0  0  0  0  0  0
  -28.6420  -19.5020   20.3790 C   0  0  0  0  0  2  0  0  0  0  0  0
  -29.7570  -18.2160   20.5740 C   0  0  0  0  0  3  0  0  0  0  0  0
  -29.2820  -21.0960   20.5010 C   0  0  0  0  0  3  0  0  0  0  0  0
  -32.0010  -18.5320   19.6290 O   0  0  0  0  0  0  0  0  0  0  0  0
  -30.3960  -15.3050   20.2690 C   0  0  0  0  0  0  0  0  0  0  0  0
  -30.3730  -12.8690   19.3610 C   0  0  0  0  0  2  0  0  0  0  0  0
  -29.4390  -12.6710   18.1410 C   0  0  0  0  0  2  0  0  0  0  0  0
  -27.9890  -12.4070   18.5860 C   0  0  0  0  0  2  0  0  0  0  0  0
  -27.5520  -13.3500   19.7340 C   0  0  0  0  0  3  0  0  0  0  0  0
  -28.6150  -13.4820   20.8450 C   0  0  0  0  0  2  0  0  0  0  0  0
  -29.8340  -13.9990   20.2000 N   0  0  0  0  0  0  0  0  0  0  0  0
  -31.6190  -15.3120   20.0680 O   0  0  0  0  0  0  0  0  0  0  0  0
  -29.6030  -16.5520   20.3860 N   0  0  0  0  0  0  0  0  0  0  0  0
  -28.6290  -16.3000   20.4340 H   0  0  0  0  0  0  0  0  0  0  0  0
  -25.1840  -13.8960   20.5050 C   0  0  0  0  0  0  0  0  0  0  0  0
  -24.1290  -13.1140   20.8790 C   0  0  0  0  0  0  0  0  0  0  0  0
  -24.6020  -11.7660   20.8440 C   0  0  0  0  0  0  0  0  0  0  0  0
  -26.2310  -13.0270   20.2550 N   0  0  0  0  0  0  0  0  0  0  0  0
  -25.8930  -11.7390   20.5260 N   0  0  0  0  0  0  0  0  0  0  0  0
  -23.8820  -10.5000   21.0340 C   0  0  0  0  0  0  0  0  0  0  0  0
  -24.3210   -9.5300   21.9610 C   0  0  0  0  0  3  0  0  0  0  0  0
  -23.5980   -8.3330   22.1430 C   0  0  0  0  0  3  0  0  0  0  0  0
  -22.4200   -8.0940   21.3980 C   0  0  0  0  0  0  0  0  0  0  0  0
  -21.9980   -9.0520   20.4580 C   0  0  0  0  0  3  0  0  0  0  0  0
  -22.7230  -10.2420   20.2740 C   0  0  0  0  0  3  0  0  0  0  0  0
  -21.6670   -6.9470   21.4880 O   0  0  0  0  0  0  0  0  0  0  0  0
  -21.6310   -6.1980   22.6370 C   0  0  0  0  0  0  0  0  0  0  0  0
  -21.2200   -6.7470   23.8710 C   0  0  0  0  0  3  0  0  0  0  0  0
  -21.1320   -5.9250   25.0120 C   0  0  0  0  0  3  0  0  0  0  0  0
  -21.4450   -4.5550   24.9200 C   0  0  0  0  0  0  0  0  0  0  0  0
  -21.8500   -4.0060   23.6910 C   0  0  0  0  0  3  0  0  0  0  0  0
  -21.9400   -4.8260   22.5510 C   0  0  0  0  0  0  0  0  0  0  0  0
  -22.3090   -4.2880   21.3640 F   0  0  0  0  0  0  0  0  0  0  0  0
  -21.3520   -3.7630   26.0140 F   0  0  0  0  0  0  0  0  0  0  0  0
  -22.7310  -13.5840   21.1540 C   0  0  0  0  0  0  0  0  0  0  0  0
  -22.0090  -12.8840   22.0210 N   0  0  0  0  0  0  0  0  0  0  0  0
  -22.2900  -14.6090   20.6340 O   0  0  0  0  0  0  0  0  0  0  0  0
  -22.3810  -12.0560   22.4600 H   0  0  0  0  0  0  0  0  0  0  0  0
  -21.0700  -13.1780   22.2470 H   0  0  0  0  0  0  0  0  0  0  0  0
  -25.3360  -15.2690   20.3250 N   0  0  0  0  0  0  0  0  0  0  0  0
  -24.5570  -15.9100   20.4280 H   0  0  0  0  0  0  0  0  0  0  0  0
  -26.1610  -15.7090   19.9430 H   0  0  0  0  0  0  0  0  0  0  0  0
  -28.8180  -22.7610   19.9260 C   0  0  0  0  0  2  0  0  0  0  0  0
  -28.1120  -24.2920   20.5730 C   0  0  0  0  0  2  0  0  0  0  0  0
  -28.2670  -25.9080   20.2600 O   0  0  0  0  0  0  0  0  0  0  0  0
  -24.6400  -31.8690   23.2050 C   0  0  0  0  0  0  0  0  0  0  0  0
  -27.2280  -26.9770   20.2550 C   0  0  0  0  0  0  0  0  0  0  0  0
  -23.4590  -30.4570   21.5720 C   0  0  0  0  0  3  0  0  0  0  0  0
  -24.9190  -28.8410   20.1770 C   0  0  0  0  0  0  0  0  0  0  0  0
  -26.0250  -30.6780   21.4340 C   0  0  0  0  0  2  0  0  0  0  0  0
  -26.1040  -29.2610   20.7950 C   0  0  0  0  0  0  0  0  0  0  0  0
  -27.2550  -28.3530   20.8030 C   0  0  0  0  0  3  0  0  0  0  0  0
  -26.0100  -26.7030   19.5950 C   0  0  0  0  0  3  0  0  0  0  0  0
  -24.8970  -27.5820   19.5560 C   0  0  0  0  0  3  0  0  0  0  0  0
  -23.6980  -29.7600   20.2040 C   0  0  0  0  0  2  0  0  0  0  0  0
  -24.7290  -31.0290   22.1240 N   0  0  0  0  0  0  0  0  0  0  0  0
  -23.5470  -32.1590   23.7190 O   0  0  0  0  0  0  0  0  0  0  0  0
  -22.7620  -29.4660   22.5430 C   0  0  0  0  0  0  0  0  0  0  0  0
  -21.4310  -29.3040   22.4180 N   0  0  0  0  0  0  0  0  0  0  0  0
  -23.4260  -28.8440   23.3760 O   0  0  0  0  0  0  0  0  0  0  0  0
  -20.9480  -29.8570   21.7240 H   0  0  0  0  0  0  0  0  0  0  0  0
  -18.0460  -28.1070   22.9390 C   0  0  0  0  0  0  0  0  0  0  0  0
  -20.6070  -28.3710   23.1940 C   0  0  0  0  0  3  0  0  0  0  0  0
  -20.7040  -26.9360   22.6250 C   0  0  0  0  0  2  0  0  0  0  0  0
  -19.5980  -26.6110   21.6140 C   0  0  0  0  0  2  0  0  0  0  0  0
  -18.2190  -26.7580   22.2630 C   0  0  0  0  0  2  0  0  0  0  0  0
  -19.1670  -28.8710   23.3630 C   0  0  0  0  0  0  0  0  0  0  0  0
  -18.9480  -30.1310   23.9600 C   0  0  0  0  0  3  0  0  0  0  0  0
  -17.6430  -30.6290   24.1350 C   0  0  0  0  0  3  0  0  0  0  0  0
  -16.5370  -29.8630   23.7270 C   0  0  0  0  0  3  0  0  0  0  0  0
  -16.7400  -28.6040   23.1340 C   0  0  0  0  0  3  0  0  0  0  0  0
  -25.9050  -32.5230   23.8400 C   0  0  0  0  0  3  0  0  0  0  0  0
  -25.5780  -33.9230   24.1640 N   0  0  0  0  0  0  0  0  0  0  0  0
  -25.9090  -34.9820   23.4130 C   0  0  0  0  0  0  0  0  0  0  0  0
  -26.5830  -34.8840   22.3840 O   0  0  0  0  0  0  0  0  0  0  0  0
  -24.9810  -34.0720   24.9640 H   0  0  0  0  0  0  0  0  0  0  0  0
  -24.1770  -36.7770   23.0630 C   0  0  0  0  0  1  0  0  0  0  0  0
  -25.4170  -36.3710   23.8740 C   0  0  0  0  0  3  0  0  0  0  0  0
  -27.5460  -37.2650   24.7100 C   0  0  0  0  0  1  0  0  0  0  0  0
  -26.4460  -37.4280   23.7660 N   0  0  0  0  0  0  0  0  0  0  0  0
  -26.0350  -38.3460   23.9120 H   0  0  0  0  0  0  0  0  0  0  0  0
  -26.4060  -31.7700   25.1350 C   0  0  1  0  0  0  0  0  0  0  0  0
  -25.3000  -31.5440   26.1940 C   0  0  0  0  0  1  0  0  0  0  0  0
  -26.9960  -30.3860   24.7790 C   0  0  0  0  0  1  0  0  0  0  0  0
  -27.5470  -32.5760   25.7990 C   0  0  0  0  0  1  0  0  0  0  0  0
  1  4  1  0
  2  1  1  0
  2  5  1  0
  3  5  1  0
  3  4  1  0
  4 15  1  0
  5 45  1  0
  6  1  2  0
  7 15  1  0
  8 13  1  0
  9 10  1  0
  9  8  1  0
 11 10  1  0
 11 20  1  0
 11 12  1  0
 13  7  1  0
 13 12  1  0
 14  7  2  0
 15 16  1  0
 17 18  2  0
 18 37  1  0
 19 18  1  0
 19 22  1  0
 20 17  1  0
 20 21  1  0
 21 19  2  0
 22 23  1  0
 23 24  2  0
 25 28  1  0
 25 24  1  0
 26 25  2  0
 27 26  1  0
 27 22  2  0
 28 29  1  0
 29 30  1  0
 30 31  2  0
 32 31  1  0
 32 36  1  0
 33 32  2  0
 34 29  2  0
 34 33  1  0
 35 34  1  0
 37 38  1  0
 38 41  1  0
 38 40  1  0
 39 37  2  0
 42 43  1  0
 42 17  1  0
 44 42  1  0
 45 46  1  0
 47 46  1  0
 48 59  2  0
 49 47  1  0
 49 54  1  0
 50 58  1  0
 50 60  1  0
 51 57  1  0
 51 53  1  0
 52 58  1  0
 53 54  2  0
 53 52  1  0
 55 49  2  0
 56 55  1  0
 56 51  2  0
 57 50  1  0
 58 48  1  0
 60 62  2  0
 61 60  1  0
 63 61  1  0
 64 73  2  0
 64 69  1  0
 65 61  1  0
 65 69  1  0
 66 65  1  0
 67 68  1  0
 67 66  1  0
 68 64  1  0
 69 70  2  0
 70 71  1  0
 72 71  2  0
 73 72  1  0
 74 48  1  0
 74 75  1  0
 74 84  1  0
 75 78  1  0
 76 80  1  0
 76 75  1  0
 77 76  2  0
 80 79  1  0
 82 80  1  0
 82 83  1  0
 82 81  1  0
 84 87  1  1
 84 85  1  0
 86 84  1  0
M  ISO  4   7 100  15 100  46 101  47 101
M  END
>  <TORSDO>  (13) 
F 18

>  <SCORE>  (13) 
-16.714

>  <name>  (13) 
12

>  <ligand_id>  (13) 
12

>  <original_smiles>  (13) 
[H]c1c([H])c([H])c2c(c1[H])C([H])([H])C([H])([H])C([H])([H])C2([H])N([H])C(=O)C1([H])N(C(=O)C([H])(N([H])C(=O)C([H])(N([H])C([H])([H])[H])C([H])([H])[H])C(C([H])([H])[H])(C([H])([H])[H])C([H])([H])[H])C([H])([H])c2c([H])c(OC([H])([H])C([H])([H])C3([H])C([H])([H])C(=O)C([H])(N([H])C(=O)N4C([H])([H])C([H])([H])C([H])([H])C([H])(n5nc(-c6c([H])c([H])c(Oc7c([H])c([H])c(F)c([H])c7F)c([H])c6[H])c(C(=O)N([H])[H])c5N([H])[H])C4([H])[H])C3([H])[H])c([H])c([H])c2C1([H])[H]

>  <smiles>  (13) 
[H]c1c([H])c([H])c2c(c1[H])C([H])([H])C([H])([H])C([H])([H])C2([H])N([H])C(=O)C1([H])N(C(=O)C([H])(N([H])C(=O)C([H])(N([H])C([H])([H])[H])C([H])([H])[H])C(C([H])([H])[H])(C([H])([H])[H])C([H])([H])[H])C([H])([H])c2c([H])c(OC([H])([H])C([H])([H])C3([H])C([H])([H])C(=O)C([H])(N([H])C(=O)N4C([H])([H])C([H])([H])C([H])([H])C([H])(n5nc(-c6c([H])c([H])c(Oc7c([H])c([H])c(F)c([H])c7F)c([H])c6[H])c(C(=O)N([H])[H])c5N([H])[H])C4([H])[H])C3([H])[H])c([H])c([H])c2C1([H])[H]

$$$$
13:0:0
     RDKit          3D

 89 97  0  0  1  0  0  0  0  0999 V2000
  -31.5270  -20.4880   20.8400 C   0  0  0  0  0  3  0  0  0  0  0  0
  -30.6300  -21.5780   20.7300 C   0  0  0  0  0  3  0  0  0  0  0  0
  -31.1580  -19.1290   20.6730 C   0  0  0  0  0  3  0  0  0  0  0  0
  -28.9150  -19.9220   20.3100 C   0  0  0  0  0  3  0  0  0  0  0  0
  -29.2640  -21.4180   20.4250 C   0  0  0  0  0  0  0  0  0  0  0  0
  -29.8290  -18.6830   20.4300 C   0  0  0  0  0  0  0  0  0  0  0  0
  -30.0660  -16.8350   21.8160 C   0  0  0  0  0  1  0  0  0  0  0  0
  -29.5500  -16.9310   20.3180 C   0  0  1  0  0  0  0  0  0  0  0  0
  -30.4130  -15.3530   20.2030 C   0  0  0  0  0  0  0  0  0  0  0  0
  -30.3880  -12.9460   19.2440 C   0  0  0  0  0  2  0  0  0  0  0  0
  -29.4390  -12.8290   18.0240 C   0  0  0  0  0  2  0  0  0  0  0  0
  -27.9950  -12.5480   18.4730 C   0  0  0  0  0  2  0  0  0  0  0  0
  -27.5740  -13.4490   19.6600 C   0  0  0  0  0  3  0  0  0  0  0  0
  -28.6450  -13.5230   20.7630 C   0  0  0  0  0  2  0  0  0  0  0  0
  -29.8750  -14.0390   20.1450 N   0  0  0  0  0  0  0  0  0  0  0  0
  -31.6410  -15.3400   19.9850 O   0  0  0  0  0  0  0  0  0  0  0  0
  -25.2130  -13.9570   20.4780 C   0  0  0  0  0  0  0  0  0  0  0  0
  -24.1720  -13.1580   20.8580 C   0  0  0  0  0  0  0  0  0  0  0  0
  -24.6620  -11.8150   20.8000 C   0  0  0  0  0  0  0  0  0  0  0  0
  -26.2630  -13.1030   20.1940 N   0  0  0  0  0  0  0  0  0  0  0  0
  -25.9460  -11.8080   20.4590 N   0  0  0  0  0  0  0  0  0  0  0  0
  -23.9620  -10.5370   20.9870 C   0  0  0  0  0  0  0  0  0  0  0  0
  -24.4130   -9.5740   21.9160 C   0  0  0  0  0  3  0  0  0  0  0  0
  -23.7080   -8.3640   22.0920 C   0  0  0  0  0  3  0  0  0  0  0  0
  -22.5380   -8.1070   21.3390 C   0  0  0  0  0  0  0  0  0  0  0  0
  -22.1050   -9.0590   20.3990 C   0  0  0  0  0  3  0  0  0  0  0  0
  -22.8110  -10.2600   20.2220 C   0  0  0  0  0  3  0  0  0  0  0  0
  -21.8050   -6.9470   21.4230 O   0  0  0  0  0  0  0  0  0  0  0  0
  -21.7580   -6.2070   22.5770 C   0  0  0  0  0  0  0  0  0  0  0  0
  -21.2870   -6.7500   23.7920 C   0  0  0  0  0  3  0  0  0  0  0  0
  -21.1930   -5.9340   24.9380 C   0  0  0  0  0  3  0  0  0  0  0  0
  -21.5570   -4.5770   24.8680 C   0  0  0  0  0  0  0  0  0  0  0  0
  -22.0200   -4.0330   23.6570 C   0  0  0  0  0  3  0  0  0  0  0  0
  -22.1170   -4.8460   22.5130 C   0  0  0  0  0  0  0  0  0  0  0  0
  -22.5450   -4.3120   21.3440 F   0  0  0  0  0  0  0  0  0  0  0  0
  -21.4580   -3.7890   25.9640 F   0  0  0  0  0  0  0  0  0  0  0  0
  -22.7720  -13.6050   21.1590 C   0  0  0  0  0  0  0  0  0  0  0  0
  -22.0650  -12.8760   22.0150 N   0  0  0  0  0  0  0  0  0  0  0  0
  -22.3150  -14.6380   20.6700 O   0  0  0  0  0  0  0  0  0  0  0  0
  -22.4480  -12.0400   22.4320 H   0  0  0  0  0  0  0  0  0  0  0  0
  -21.1260  -13.1560   22.2570 H   0  0  0  0  0  0  0  0  0  0  0  0
  -25.3530  -15.3340   20.3200 N   0  0  0  0  0  0  0  0  0  0  0  0
  -24.5850  -15.9770   20.4740 H   0  0  0  0  0  0  0  0  0  0  0  0
  -26.1960  -15.7910   19.9980 H   0  0  0  0  0  0  0  0  0  0  0  0
  -28.7160  -17.6850   17.9350 C   0  0  0  0  0  1  0  0  0  0  0  0
  -29.8790  -17.0700   18.7500 C   0  0  0  0  0  2  0  0  0  0  0  0
  -28.4330  -22.8970   20.0570 C   0  0  0  0  0  2  0  0  0  0  0  0
  -28.3440  -24.5040   20.8250 C   0  0  0  0  0  2  0  0  0  0  0  0
  -28.3400  -26.0770   20.3690 O   0  0  0  0  0  0  0  0  0  0  0  0
  -24.6380  -31.9730   23.2880 C   0  0  0  0  0  0  0  0  0  0  0  0
  -27.2700  -27.0980   20.3930 C   0  0  0  0  0  0  0  0  0  0  0  0
  -23.4730  -30.5410   21.6600 C   0  0  0  0  0  3  0  0  0  0  0  0
  -24.9470  -28.9220   20.2920 C   0  0  0  0  0  0  0  0  0  0  0  0
  -26.0360  -30.7840   21.5310 C   0  0  0  0  0  2  0  0  0  0  0  0
  -26.1250  -29.3640   20.9070 C   0  0  0  0  0  0  0  0  0  0  0  0
  -27.2860  -28.4750   20.9250 C   0  0  0  0  0  3  0  0  0  0  0  0
  -26.0580  -26.7870   19.7440 C   0  0  0  0  0  3  0  0  0  0  0  0
  -24.9340  -27.6520   19.6920 C   0  0  0  0  0  3  0  0  0  0  0  0
  -23.7210  -29.8320   20.3000 C   0  0  0  0  0  2  0  0  0  0  0  0
  -24.7360  -31.1270   22.2130 N   0  0  0  0  0  0  0  0  0  0  0  0
  -23.5410  -32.2620   23.7940 O   0  0  0  0  0  0  0  0  0  0  0  0
  -22.7780  -29.5560   22.6350 C   0  0  0  0  0  0  0  0  0  0  0  0
  -21.4540  -29.3680   22.4880 N   0  0  0  0  0  0  0  0  0  0  0  0
  -23.4380  -28.9570   23.4890 O   0  0  0  0  0  0  0  0  0  0  0  0
  -20.9750  -29.9010   21.7750 H   0  0  0  0  0  0  0  0  0  0  0  0
  -18.0800  -28.1200   22.9540 C   0  0  0  0  0  0  0  0  0  0  0  0
  -20.6290  -28.4360   23.2630 C   0  0  0  0  0  3  0  0  0  0  0  0
  -20.7660  -26.9920   22.7250 C   0  0  0  0  0  2  0  0  0  0  0  0
  -19.6900  -26.6280   21.6970 C   0  0  0  0  0  2  0  0  0  0  0  0
  -18.2930  -26.7620   22.3090 C   0  0  0  0  0  2  0  0  0  0  0  0
  -19.1750  -28.9130   23.3880 C   0  0  0  0  0  0  0  0  0  0  0  0
  -18.9210  -30.1810   23.9530 C   0  0  0  0  0  3  0  0  0  0  0  0
  -17.6030  -30.6580   24.0880 C   0  0  0  0  0  3  0  0  0  0  0  0
  -16.5210  -29.8640   23.6680 C   0  0  0  0  0  3  0  0  0  0  0  0
  -16.7610  -28.5970   23.1080 C   0  0  0  0  0  3  0  0  0  0  0  0
  -25.8980  -32.6340   23.9250 C   0  0  0  0  0  3  0  0  0  0  0  0
  -26.3910  -31.8960   25.2320 C   0  0  1  0  0  0  0  0  0  0  0  0
  -25.2740  -31.6670   26.2770 C   0  0  0  0  0  1  0  0  0  0  0  0
  -26.9990  -30.5180   24.8910 C   0  0  0  0  0  1  0  0  0  0  0  0
  -27.5160  -32.7170   25.9040 C   0  0  0  0  0  1  0  0  0  0  0  0
  -25.5690  -34.0380   24.2290 N   0  0  0  0  0  0  0  0  0  0  0  0
  -25.9050  -35.0870   23.4660 C   0  0  0  0  0  0  0  0  0  0  0  0
  -26.5870  -34.9750   22.4440 O   0  0  0  0  0  0  0  0  0  0  0  0
  -24.9620  -34.1960   25.0190 H   0  0  0  0  0  0  0  0  0  0  0  0
  -24.1720  -36.8720   23.0790 C   0  0  0  0  0  1  0  0  0  0  0  0
  -25.4080  -36.4800   23.9040 C   0  0  0  0  0  3  0  0  0  0  0  0
  -27.5270  -37.3910   24.7480 C   0  0  0  0  0  1  0  0  0  0  0  0
  -26.4360  -37.5370   23.7880 N   0  0  0  0  0  0  0  0  0  0  0  0
  -26.0240  -38.4560   23.9140 H   0  0  0  0  0  0  0  0  0  0  0  0
  2  1  1  0
  3  1  2  0
  4  5  1  0
  4  6  2  0
  5  2  2  0
  6  3  1  0
  8  6  1  0
  8  7  1  6
  9  8  1  0
 10 15  1  0
 11 12  1  0
 11 10  1  0
 13 12  1  0
 13 20  1  0
 13 14  1  0
 15  9  1  0
 15 14  1  0
 16  9  2  0
 17 18  2  0
 18 37  1  0
 19 18  1  0
 19 22  1  0
 20 21  1  0
 20 17  1  0
 21 19  2  0
 22 23  1  0
 23 24  2  0
 25 28  1  0
 25 24  1  0
 26 25  2  0
 27 26  1  0
 27 22  2  0
 28 29  1  0
 29 30  1  0
 30 31  2  0
 32 31  1  0
 32 36  1  0
 33 32  2  0
 34 29  2  0
 34 33  1  0
 35 34  1  0
 37 38  1  0
 38 41  1  0
 38 40  1  0
 39 37  2  0
 42 43  1  0
 42 17  1  0
 44 42  1  0
 45 46  1  0
 46  8  1  0
 47  5  1  0
 47 48  1  0
 49 51  1  0
 49 48  1  0
 50 61  2  0
 51 56  1  0
 52 60  1  0
 52 62  1  0
 53 59  1  0
 53 55  1  0
 54 60  1  0
 55 56  2  0
 55 54  1  0
 57 51  2  0
 58 57  1  0
 58 53  2  0
 59 52  1  0
 60 50  1  0
 62 64  2  0
 63 62  1  0
 65 63  1  0
 66 75  2  0
 66 71  1  0
 67 63  1  0
 67 71  1  0
 68 67  1  0
 69 70  1  0
 69 68  1  0
 70 66  1  0
 71 72  2  0
 72 73  1  0
 74 73  2  0
 75 74  1  0
 76 50  1  0
 76 81  1  0
 76 77  1  0
 77 80  1  1
 77 78  1  0
 79 77  1  0
 81 84  1  0
 82 86  1  0
 82 81  1  0
 83 82  2  0
 86 85  1  0
 88 86  1  0
 88 89  1  0
 88 87  1  0
M  ISO  4   8 100   9 100  48 101  49 101
M  END
>  <TORSDO>  (14) 
F 20

>  <SCORE>  (14) 
-15.828

>  <name>  (14) 
13

>  <ligand_id>  (14) 
13

>  <original_smiles>  (14) 
[H]c1c([H])c([H])c2c(c1[H])C([H])([H])C([H])([H])C([H])([H])C2([H])N([H])C(=O)C1([H])N(C(=O)C([H])(N([H])C(=O)C([H])(N([H])C([H])([H])[H])C([H])([H])[H])C(C([H])([H])[H])(C([H])([H])[H])C([H])([H])[H])C([H])([H])c2c([H])c(OC([H])([H])C([H])([H])c3c([H])c([H])c([H])c(C(C(=O)N4C([H])([H])C([H])([H])C([H])([H])C([H])(n5nc(-c6c([H])c([H])c(Oc7c([H])c([H])c(F)c([H])c7F)c([H])c6[H])c(C(=O)N([H])[H])c5N([H])[H])C4([H])[H])(C([H])([H])[H])C([H])([H])C([H])([H])[H])c3[H])c([H])c([H])c2C1([H])[H]

>  <smiles>  (14) 
[H]c1c([H])c([H])c2c(c1[H])C([H])([H])C([H])([H])C([H])([H])C2([H])N([H])C(=O)C1([H])N(C(=O)C([H])(N([H])C(=O)C([H])(N([H])C([H])([H])[H])C([H])([H])[H])C(C([H])([H])[H])(C([H])([H])[H])C([H])([H])[H])C([H])([H])c2c([H])c(OC([H])([H])C([H])([H])c3c([H])c([H])c([H])c(C(C(=O)N4C([H])([H])C([H])([H])C([H])([H])C([H])(n5nc(-c6c([H])c([H])c(Oc7c([H])c([H])c(F)c([H])c7F)c([H])c6[H])c(C(=O)N([H])[H])c5N([H])[H])C4([H])[H])(C([H])([H])[H])C([H])([H])C([H])([H])[H])c3[H])c([H])c([H])c2C1([H])[H]

$$$$
14:0:0
     RDKit          3D

 87 95  0  0  1  0  0  0  0  0999 V2000
  -30.4750  -22.1600   18.4360 C   0  0  0  0  0  1  0  0  0  0  0  0
  -29.2340  -22.0250   19.3900 C   0  0  0  0  0  3  0  0  0  0  0  0
  -27.7260  -20.3550   20.8120 C   0  0  0  0  0  1  0  0  0  0  0  0
  -29.1440  -20.5360   20.1850 C   0  0  0  0  0  3  0  0  0  0  0  0
  -29.6210  -19.0640   19.5130 C   0  0  0  0  0  2  0  0  0  0  0  0
  -30.5250  -15.0100   20.0880 C   0  0  0  0  0  0  0  0  0  0  0  0
  -30.4350  -12.6470   19.1870 C   0  0  0  0  0  2  0  0  0  0  0  0
  -29.4700  -12.5470   17.9870 C   0  0  0  0  0  2  0  0  0  0  0  0
  -28.0040  -12.3840   18.4370 C   0  0  0  0  0  2  0  0  0  0  0  0
  -27.6110  -13.3130   19.6100 C   0  0  0  0  0  3  0  0  0  0  0  0
  -28.6880  -13.3280   20.7140 C   0  0  0  0  0  2  0  0  0  0  0  0
  -29.9320  -13.7490   20.0510 N   0  0  0  0  0  0  0  0  0  0  0  0
  -31.7530  -15.0460   19.9500 O   0  0  0  0  0  0  0  0  0  0  0  0
  -28.4710  -16.6260   20.2130 C   0  0  0  0  0  2  0  0  0  0  0  0
  -29.6460  -17.6120   20.3400 C   0  0  0  0  0  3  0  0  0  0  0  0
  -29.7630  -16.1890   19.7860 N   0  0  0  0  0  0  0  0  0  0  0  0
  -25.2410  -13.8950   20.3860 C   0  0  0  0  0  0  0  0  0  0  0  0
  -24.1920  -13.1240   20.7660 C   0  0  0  0  0  0  0  0  0  0  0  0
  -24.6600  -11.7730   20.7560 C   0  0  0  0  0  0  0  0  0  0  0  0
  -26.2910  -13.0200   20.1430 N   0  0  0  0  0  0  0  0  0  0  0  0
  -25.9480  -11.7390   20.4360 N   0  0  0  0  0  0  0  0  0  0  0  0
  -23.9400  -10.5180   20.9670 C   0  0  0  0  0  0  0  0  0  0  0  0
  -24.3860   -9.5610   21.9030 C   0  0  0  0  0  3  0  0  0  0  0  0
  -23.6670   -8.3630   22.0990 C   0  0  0  0  0  3  0  0  0  0  0  0
  -22.4870   -8.1220   21.3520 C   0  0  0  0  0  0  0  0  0  0  0  0
  -22.0630   -9.0670   20.3980 C   0  0  0  0  0  3  0  0  0  0  0  0
  -22.7820  -10.2540   20.2050 C   0  0  0  0  0  3  0  0  0  0  0  0
  -21.7270   -6.9810   21.4620 O   0  0  0  0  0  0  0  0  0  0  0  0
  -21.6920   -6.2410   22.6180 C   0  0  0  0  0  0  0  0  0  0  0  0
  -21.2750   -6.8040   23.8470 C   0  0  0  0  0  3  0  0  0  0  0  0
  -21.1910   -5.9950   25.0000 C   0  0  0  0  0  3  0  0  0  0  0  0
  -21.5080   -4.6270   24.9210 C   0  0  0  0  0  0  0  0  0  0  0  0
  -21.9070   -4.0610   23.6960 C   0  0  0  0  0  3  0  0  0  0  0  0
  -21.9980   -4.8700   22.5490 C   0  0  0  0  0  0  0  0  0  0  0  0
  -22.3680   -4.3190   21.3700 F   0  0  0  0  0  0  0  0  0  0  0  0
  -21.4130   -3.8460   26.0230 F   0  0  0  0  0  0  0  0  0  0  0  0
  -22.7870  -13.5960   21.0420 C   0  0  0  0  0  0  0  0  0  0  0  0
  -22.0670  -12.9120   21.9240 N   0  0  0  0  0  0  0  0  0  0  0  0
  -22.3410  -14.6120   20.5130 O   0  0  0  0  0  0  0  0  0  0  0  0
  -22.4450  -12.0950   22.3820 H   0  0  0  0  0  0  0  0  0  0  0  0
  -21.1290  -13.2180   22.1530 H   0  0  0  0  0  0  0  0  0  0  0  0
  -25.3880  -15.2680   20.1930 N   0  0  0  0  0  0  0  0  0  0  0  0
  -24.6190  -15.9190   20.3310 H   0  0  0  0  0  0  0  0  0  0  0  0
  -26.2270  -15.7210   19.8570 H   0  0  0  0  0  0  0  0  0  0  0  0
  -28.9150  -23.4710   20.1950 C   0  0  0  0  0  3  0  0  0  0  0  0
  -28.5110  -24.9200   19.4650 C   0  0  0  0  0  3  0  0  0  0  0  0
  -28.3970  -26.3050   20.1500 O   0  0  0  0  0  0  0  0  0  0  0  0
  -24.6370  -31.8450   23.2280 C   0  0  0  0  0  0  0  0  0  0  0  0
  -27.2840  -27.2160   20.1070 C   0  0  0  0  0  0  0  0  0  0  0  0
  -23.4470  -30.4730   21.5550 C   0  0  0  0  0  3  0  0  0  0  0  0
  -24.9240  -28.9190   20.1270 C   0  0  0  0  0  0  0  0  0  0  0  0
  -26.0010  -30.7550   21.4140 C   0  0  0  0  0  2  0  0  0  0  0  0
  -26.0960  -29.3710   20.7440 C   0  0  0  0  0  0  0  0  0  0  0  0
  -27.2680  -28.5260   20.7340 C   0  0  0  0  0  3  0  0  0  0  0  0
  -26.0720  -26.8550   19.4730 C   0  0  0  0  0  3  0  0  0  0  0  0
  -24.9250  -27.6740   19.4850 C   0  0  0  0  0  3  0  0  0  0  0  0
  -23.6870  -29.8030   20.1730 C   0  0  0  0  0  2  0  0  0  0  0  0
  -24.7140  -31.0420   22.1220 N   0  0  0  0  0  0  0  0  0  0  0  0
  -23.5500  -32.1200   23.7620 O   0  0  0  0  0  0  0  0  0  0  0  0
  -22.7670  -29.4480   22.4980 C   0  0  0  0  0  0  0  0  0  0  0  0
  -21.4370  -29.2880   22.3770 N   0  0  0  0  0  0  0  0  0  0  0  0
  -23.4380  -28.8030   23.3080 O   0  0  0  0  0  0  0  0  0  0  0  0
  -20.9440  -29.8760   21.7170 H   0  0  0  0  0  0  0  0  0  0  0  0
  -18.0490  -28.0990   22.8660 C   0  0  0  0  0  0  0  0  0  0  0  0
  -20.6130  -28.3410   23.1400 C   0  0  0  0  0  3  0  0  0  0  0  0
  -20.6970  -26.9120   22.5500 C   0  0  0  0  0  2  0  0  0  0  0  0
  -19.5930  -26.6120   21.5270 C   0  0  0  0  0  2  0  0  0  0  0  0
  -18.2130  -26.7570   22.1720 C   0  0  0  0  0  2  0  0  0  0  0  0
  -19.1740  -28.8460   23.3100 C   0  0  0  0  0  0  0  0  0  0  0  0
  -18.9580  -30.0980   23.9230 C   0  0  0  0  0  3  0  0  0  0  0  0
  -17.6590  -30.6090   24.0860 C   0  0  0  0  0  3  0  0  0  0  0  0
  -16.5490  -29.8570   23.6590 C   0  0  0  0  0  3  0  0  0  0  0  0
  -16.7480  -28.6010   23.0580 C   0  0  0  0  0  3  0  0  0  0  0  0
  -25.9130  -32.4710   23.8720 C   0  0  0  0  0  3  0  0  0  0  0  0
  -26.4100  -31.6910   25.1510 C   0  0  1  0  0  0  0  0  0  0  0  0
  -25.3040  -31.4530   26.2080 C   0  0  0  0  0  1  0  0  0  0  0  0
  -26.9830  -30.3070   24.7600 C   0  0  0  0  0  1  0  0  0  0  0  0
  -27.5660  -32.4710   25.8210 C   0  0  0  0  0  1  0  0  0  0  0  0
  -25.6070  -33.8720   24.2060 N   0  0  0  0  0  0  0  0  0  0  0  0
  -25.9430  -34.9260   23.4480 C   0  0  0  0  0  0  0  0  0  0  0  0
  -26.6080  -34.8200   22.4140 O   0  0  0  0  0  0  0  0  0  0  0  0
  -25.0230  -34.0240   25.0150 H   0  0  0  0  0  0  0  0  0  0  0  0
  -24.2260  -36.7260   23.0980 C   0  0  0  0  0  1  0  0  0  0  0  0
  -25.4650  -36.3160   23.9090 C   0  0  0  0  0  3  0  0  0  0  0  0
  -27.6030  -37.1910   24.7330 C   0  0  0  0  0  1  0  0  0  0  0  0
  -26.5010  -37.3660   23.7920 N   0  0  0  0  0  0  0  0  0  0  0  0
  -26.0960  -38.2840   23.9540 H   0  0  0  0  0  0  0  0  0  0  0  0
  2  1  1  0
  2  4  1  0
  2 45  1  0
  4  3  1  0
  5  4  1  0
  7 12  1  0
  8  9  1  0
  8  7  1  0
 10  9  1  0
 10 20  1  0
 10 11  1  0
 12  6  1  0
 12 11  1  0
 13  6  2  0
 14 15  1  0
 15  5  1  0
 16  6  1  0
 16 14  1  0
 16 15  1  0
 17 18  2  0
 18 37  1  0
 19 18  1  0
 19 22  1  0
 20 17  1  0
 20 21  1  0
 21 19  2  0
 22 23  1  0
 23 24  2  0
 25 28  1  0
 25 24  1  0
 26 25  2  0
 27 26  1  0
 27 22  2  0
 28 29  1  0
 29 30  1  0
 30 31  2  0
 32 31  1  0
 32 36  1  0
 33 32  2  0
 34 29  2  0
 34 33  1  0
 35 34  1  0
 37 38  1  0
 38 41  1  0
 38 40  1  0
 39 37  2  0
 42 43  1  0
 42 17  1  0
 44 42  1  0
 46 47  1  0
 46 45  2  0
 48 59  2  0
 49 47  1  0
 49 54  1  0
 50 58  1  0
 50 60  1  0
 51 57  1  0
 51 53  1  0
 52 58  1  0
 53 52  1  0
 54 53  2  0
 55 56  1  0
 55 49  2  0
 56 51  2  0
 57 50  1  0
 58 48  1  0
 60 62  2  0
 61 60  1  0
 63 61  1  0
 64 73  2  0
 64 69  1  0
 65 61  1  0
 65 69  1  0
 66 65  1  0
 67 68  1  0
 67 66  1  0
 68 64  1  0
 69 70  2  0
 70 71  1  0
 72 71  2  0
 73 72  1  0
 74 48  1  0
 74 79  1  0
 74 75  1  0
 75 78  1  1
 75 76  1  0
 77 75  1  0
 79 82  1  0
 80 84  1  0
 80 79  1  0
 81 80  2  0
 84 83  1  0
 86 84  1  0
 86 87  1  0
 86 85  1  0
M  ISO  4   6 100  16 100  46 101  47 101
M  END
>  <TORSDO>  (15) 
F 20

>  <SCORE>  (15) 
-13.274

>  <name>  (15) 
14

>  <ligand_id>  (15) 
14

>  <original_smiles>  (15) 
[H]c1c([H])c([H])c2c(c1[H])C([H])([H])C([H])([H])C([H])([H])C2([H])N([H])C(=O)C1([H])N(C(=O)C([H])(N([H])C(=O)C([H])(N([H])C([H])([H])[H])C([H])([H])[H])C(C([H])([H])[H])(C([H])([H])[H])C([H])([H])[H])C([H])([H])c2c([H])c(OC([H])([H])C([H])([H])C([H])(C([H])([H])[H])C([H])(C([H])([H])[H])C([H])([H])C3([H])N(C(=O)N4C([H])([H])C([H])([H])C([H])([H])C([H])(n5nc(-c6c([H])c([H])c(Oc7c([H])c([H])c(F)c([H])c7F)c([H])c6[H])c(C(=O)N([H])[H])c5N([H])[H])C4([H])[H])C3([H])[H])c([H])c([H])c2C1([H])[H]

>  <smiles>  (15) 
[H]c1c([H])c([H])c2c(c1[H])C([H])([H])C([H])([H])C([H])([H])C2([H])N([H])C(=O)C1([H])N(C(=O)C([H])(N([H])C(=O)C([H])(N([H])C([H])([H])[H])C([H])([H])[H])C(C([H])([H])[H])(C([H])([H])[H])C([H])([H])[H])C([H])([H])c2c([H])c(OC([H])([H])C([H])([H])C([H])(C([H])([H])[H])C([H])(C([H])([H])[H])C([H])([H])C3([H])N(C(=O)N4C([H])([H])C([H])([H])C([H])([H])C([H])(n5nc(-c6c([H])c([H])c(Oc7c([H])c([H])c(F)c([H])c7F)c([H])c6[H])c(C(=O)N([H])[H])c5N([H])[H])C4([H])[H])C3([H])[H])c([H])c([H])c2C1([H])[H]

$$$$
15:0:0
     RDKit          3D

 92101  0  0  1  0  0  0  0  0999 V2000
  -29.7390  -21.9940   22.7800 C   0  0  0  0  0  3  0  0  0  0  0  0
  -29.7650  -20.5940   22.5880 C   0  0  0  0  0  3  0  0  0  0  0  0
  -29.8980  -20.8960   20.1600 C   0  0  0  0  0  3  0  0  0  0  0  0
  -29.7910  -22.8270   21.6500 C   0  0  0  0  0  0  0  0  0  0  0  0
  -29.8740  -22.2920   20.3720 C   0  0  0  0  0  0  0  0  0  0  0  0
  -29.8370  -20.0370   21.2860 C   0  0  0  0  0  0  0  0  0  0  0  0
  -29.7470  -24.3350   21.6280 C   0  0  0  0  0  2  0  0  0  0  0  0
  -29.9030  -23.3790   19.3280 C   0  0  0  0  0  2  0  0  0  0  0  0
  -29.8120  -24.7190   20.1230 C   0  0  0  0  0  3  0  0  0  0  0  0
  -29.8300  -18.5170   21.1230 C   0  0  0  0  0  2  0  0  0  0  0  0
  -31.2450  -17.9070   21.0460 C   0  0  0  0  0  2  0  0  0  0  0  0
  -31.4180  -16.5470   21.7620 C   0  0  0  0  0  2  0  0  0  0  0  0
  -31.0890  -14.5800   20.2590 C   0  0  0  0  0  0  0  0  0  0  0  0
  -30.6730  -12.4660   19.0490 C   0  0  0  0  0  2  0  0  0  0  0  0
  -29.6920  -12.6710   17.8800 C   0  0  0  0  0  2  0  0  0  0  0  0
  -28.2350  -12.5450   18.3630 C   0  0  0  0  0  2  0  0  0  0  0  0
  -27.9510  -13.4020   19.6250 C   0  0  0  0  0  3  0  0  0  0  0  0
  -29.0350  -13.1740   20.7000 C   0  0  0  0  0  2  0  0  0  0  0  0
  -30.3520  -13.4490   20.0950 N   0  0  0  0  0  0  0  0  0  0  0  0
  -32.1190  -14.8110   19.6180 O   0  0  0  0  0  0  0  0  0  0  0  0
  -30.6480  -15.4330   21.1960 N   0  0  0  0  0  0  0  0  0  0  0  0
  -29.7920  -15.1770   21.6640 H   0  0  0  0  0  0  0  0  0  0  0  0
  -25.5950  -14.0510   20.4370 C   0  0  0  0  0  0  0  0  0  0  0  0
  -24.5230  -13.2960   20.8290 C   0  0  0  0  0  0  0  0  0  0  0  0
  -24.9490  -11.9350   20.7500 C   0  0  0  0  0  0  0  0  0  0  0  0
  -26.6090  -13.1510   20.1470 N   0  0  0  0  0  0  0  0  0  0  0  0
  -26.2250  -11.8710   20.3910 N   0  0  0  0  0  0  0  0  0  0  0  0
  -24.1990  -10.6860   20.9400 C   0  0  0  0  0  0  0  0  0  0  0  0
  -24.6110   -9.7120   21.8760 C   0  0  0  0  0  3  0  0  0  0  0  0
  -23.8640   -8.5290   22.0530 C   0  0  0  0  0  3  0  0  0  0  0  0
  -22.6900   -8.3100   21.2930 C   0  0  0  0  0  0  0  0  0  0  0  0
  -22.2970   -9.2720   20.3480 C   0  0  0  0  0  3  0  0  0  0  0  0
  -23.0450  -10.4470   20.1680 C   0  0  0  0  0  3  0  0  0  0  0  0
  -21.9160   -7.1780   21.3800 O   0  0  0  0  0  0  0  0  0  0  0  0
  -21.8020   -6.4710   22.5500 C   0  0  0  0  0  0  0  0  0  0  0  0
  -21.3190   -7.0660   23.7360 C   0  0  0  0  0  3  0  0  0  0  0  0
  -21.1530   -6.2850   24.8970 C   0  0  0  0  0  3  0  0  0  0  0  0
  -21.4590   -4.9120   24.8740 C   0  0  0  0  0  0  0  0  0  0  0  0
  -21.9340   -4.3170   23.6920 C   0  0  0  0  0  3  0  0  0  0  0  0
  -22.1020   -5.0940   22.5330 C   0  0  0  0  0  0  0  0  0  0  0  0
  -22.5400   -4.5110   21.3910 F   0  0  0  0  0  0  0  0  0  0  0  0
  -21.2910   -4.1600   25.9870 F   0  0  0  0  0  0  0  0  0  0  0  0
  -23.1490  -13.8000   21.1680 C   0  0  0  0  0  0  0  0  0  0  0  0
  -22.4450  -13.1080   22.0560 N   0  0  0  0  0  0  0  0  0  0  0  0
  -22.7130  -14.8420   20.6810 O   0  0  0  0  0  0  0  0  0  0  0  0
  -22.8120  -12.2640   22.4700 H   0  0  0  0  0  0  0  0  0  0  0  0
  -21.5240  -13.4260   22.3250 H   0  0  0  0  0  0  0  0  0  0  0  0
  -25.7890  -15.4210   20.2840 N   0  0  0  0  0  0  0  0  0  0  0  0
  -25.0470  -16.0950   20.4390 H   0  0  0  0  0  0  0  0  0  0  0  0
  -26.6450  -15.8440   19.9470 H   0  0  0  0  0  0  0  0  0  0  0  0
  -28.6080  -25.5730   19.6690 C   0  0  0  0  0  2  0  0  0  0  0  0
  -28.6270  -26.9160   20.1790 O   0  0  0  0  0  0  0  0  0  0  0  0
  -24.7000  -31.9760   23.2990 C   0  0  0  0  0  0  0  0  0  0  0  0
  -27.4360  -27.6230   20.1560 C   0  0  0  0  0  0  0  0  0  0  0  0
  -23.5280  -30.5810   21.6310 C   0  0  0  0  0  3  0  0  0  0  0  0
  -25.0140  -29.0970   20.1860 C   0  0  0  0  0  0  0  0  0  0  0  0
  -26.0500  -30.9820   21.4550 C   0  0  0  0  0  2  0  0  0  0  0  0
  -26.1610  -29.6240   20.7910 C   0  0  0  0  0  0  0  0  0  0  0  0
  -27.3730  -28.8940   20.7760 C   0  0  0  0  0  3  0  0  0  0  0  0
  -26.2650  -27.1210   19.5360 C   0  0  0  0  0  3  0  0  0  0  0  0
  -25.0610  -27.8440   19.5580 C   0  0  0  0  0  3  0  0  0  0  0  0
  -23.7550  -29.9320   20.2400 C   0  0  0  0  0  2  0  0  0  0  0  0
  -24.7770  -31.1940   22.1860 N   0  0  0  0  0  0  0  0  0  0  0  0
  -23.6120  -32.2210   23.8380 O   0  0  0  0  0  0  0  0  0  0  0  0
  -22.8920  -29.5300   22.5690 C   0  0  0  0  0  0  0  0  0  0  0  0
  -21.5750  -29.3110   22.4180 N   0  0  0  0  0  0  0  0  0  0  0  0
  -23.5790  -28.9150   23.3890 O   0  0  0  0  0  0  0  0  0  0  0  0
  -21.0800  -29.8610   21.7280 H   0  0  0  0  0  0  0  0  0  0  0  0
  -18.2300  -28.0100   22.8350 C   0  0  0  0  0  0  0  0  0  0  0  0
  -20.7720  -28.3440   23.1660 C   0  0  0  0  0  3  0  0  0  0  0  0
  -20.9310  -26.9200   22.5850 C   0  0  0  0  0  2  0  0  0  0  0  0
  -19.8630  -26.5690   21.5450 C   0  0  0  0  0  2  0  0  0  0  0  0
  -18.4630  -26.6700   22.1590 C   0  0  0  0  0  2  0  0  0  0  0  0
  -19.3150  -28.8030   23.2940 C   0  0  0  0  0  0  0  0  0  0  0  0
  -19.0450  -30.0570   23.8840 C   0  0  0  0  0  3  0  0  0  0  0  0
  -17.7220  -30.5180   24.0220 C   0  0  0  0  0  3  0  0  0  0  0  0
  -16.6510  -29.7220   23.5810 C   0  0  0  0  0  3  0  0  0  0  0  0
  -16.9060  -28.4690   22.9940 C   0  0  0  0  0  3  0  0  0  0  0  0
  -25.9720  -32.6190   23.9350 C   0  0  0  0  0  3  0  0  0  0  0  0
  -26.4770  -31.8600   25.2230 C   0  0  1  0  0  0  0  0  0  0  0  0
  -25.3660  -31.5980   26.2650 C   0  0  0  0  0  1  0  0  0  0  0  0
  -27.0980  -30.4950   24.8430 C   0  0  0  0  0  1  0  0  0  0  0  0
  -27.5940  -32.6780   25.9100 C   0  0  0  0  0  1  0  0  0  0  0  0
  -25.6500  -34.0170   24.2490 N   0  0  0  0  0  0  0  0  0  0  0  0
  -25.9780  -35.0640   23.4800 C   0  0  0  0  0  0  0  0  0  0  0  0
  -26.6550  -34.9560   22.4540 O   0  0  0  0  0  0  0  0  0  0  0  0
  -25.0480  -34.1750   25.0440 H   0  0  0  0  0  0  0  0  0  0  0  0
  -24.2290  -36.8310   23.1000 C   0  0  0  0  0  1  0  0  0  0  0  0
  -25.4730  -36.4520   23.9190 C   0  0  0  0  0  3  0  0  0  0  0  0
  -27.5930  -37.3750   24.7460 C   0  0  0  0  0  1  0  0  0  0  0  0
  -26.4940  -37.5150   23.7940 N   0  0  0  0  0  0  0  0  0  0  0  0
  -26.0760  -38.4330   23.9240 H   0  0  0  0  0  0  0  0  0  0  0  0
  2  1  1  0
  3  5  2  0
  3  6  1  0
  4  1  2  0
  5  4  1  0
  6  2  2  0
  7  4  1  0
  8  9  1  0
  8  5  1  0
  9 51  1  0
  9  7  1  0
 10  6  1  0
 11 10  1  0
 11 12  1  0
 13 21  1  0
 14 19  1  0
 15 16  1  0
 15 14  1  0
 17 16  1  0
 17 26  1  0
 17 18  1  0
 19 13  1  0
 19 18  1  0
 20 13  2  0
 21 22  1  0
 21 12  1  0
 23 24  2  0
 24 43  1  0
 25 24  1  0
 25 28  1  0
 26 27  1  0
 26 23  1  0
 27 25  2  0
 28 29  1  0
 29 30  2  0
 31 34  1  0
 31 30  1  0
 32 31  2  0
 33 32  1  0
 33 28  2  0
 34 35  1  0
 35 36  1  0
 36 37  2  0
 38 37  1  0
 38 42  1  0
 39 38  2  0
 40 35  2  0
 40 39  1  0
 41 40  1  0
 43 44  1  0
 44 47  1  0
 44 46  1  0
 45 43  2  0
 48 23  1  0
 48 49  1  0
 50 48  1  0
 51 52  1  0
 53 64  2  0
 54 52  1  0
 54 59  1  0
 55 63  1  0
 55 65  1  0
 56 62  1  0
 56 58  1  0
 57 63  1  0
 58 57  1  0
 59 58  2  0
 60 61  1  0
 60 54  2  0
 61 56  2  0
 62 55  1  0
 63 53  1  0
 65 67  2  0
 66 65  1  0
 68 66  1  0
 69 78  2  0
 69 74  1  0
 70 66  1  0
 70 74  1  0
 71 70  1  0
 72 73  1  0
 72 71  1  0
 73 69  1  0
 74 75  2  0
 75 76  1  0
 77 76  2  0
 78 77  1  0
 79 53  1  0
 79 84  1  0
 79 80  1  0
 80 83  1  1
 80 81  1  0
 82 80  1  0
 84 87  1  0
 85 89  1  0
 85 84  1  0
 86 85  2  0
 89 88  1  0
 91 89  1  0
 91 92  1  0
 91 90  1  0
M  ISO  4  13 100  21 100  51 101  52 101
M  END
>  <TORSDO>  (16) 
F 20

>  <SCORE>  (16) 
-13.151

>  <name>  (16) 
15

>  <ligand_id>  (16) 
15

>  <original_smiles>  (16) 
[H]c1c([H])c([H])c2c(c1[H])C([H])([H])C([H])([H])C([H])([H])C2([H])N([H])C(=O)C1([H])N(C(=O)C([H])(N([H])C(=O)C([H])(N([H])C([H])([H])[H])C([H])([H])[H])C(C([H])([H])[H])(C([H])([H])[H])C([H])([H])[H])C([H])([H])c2c([H])c(OC([H])([H])C3([H])C([H])([H])c4c([H])c([H])c(C([H])([H])C([H])([H])C([H])([H])N([H])C(=O)N5C([H])([H])C([H])([H])C([H])([H])C([H])(n6nc(-c7c([H])c([H])c(Oc8c([H])c([H])c(F)c([H])c8F)c([H])c7[H])c(C(=O)N([H])[H])c6N([H])[H])C5([H])[H])c([H])c4C3([H])[H])c([H])c([H])c2C1([H])[H]

>  <smiles>  (16) 
[H]c1c([H])c([H])c2c(c1[H])C([H])([H])C([H])([H])C([H])([H])C2([H])N([H])C(=O)C1([H])N(C(=O)C([H])(N([H])C(=O)C([H])(N([H])C([H])([H])[H])C([H])([H])[H])C(C([H])([H])[H])(C([H])([H])[H])C([H])([H])[H])C([H])([H])c2c([H])c(OC([H])([H])C3([H])C([H])([H])c4c([H])c([H])c(C([H])([H])C([H])([H])C([H])([H])N([H])C(=O)N5C([H])([H])C([H])([H])C([H])([H])C([H])(n6nc(-c7c([H])c([H])c(Oc8c([H])c([H])c(F)c([H])c8F)c([H])c7[H])c(C(=O)N([H])[H])c6N([H])[H])C5([H])[H])c([H])c4C3([H])[H])c([H])c([H])c2C1([H])[H]

$$$$
16:0:0
     RDKit          3D

 88 96  0  0  1  0  0  0  0  0999 V2000
  -30.4300  -19.3400   21.7620 C   0  0  0  0  0  2  0  0  0  0  0  0
  -30.3670  -20.9420   21.6710 C   0  0  0  0  0  2  0  0  0  0  0  0
  -28.9780  -19.9810   20.0790 C   0  0  0  0  0  2  0  0  0  0  0  0
  -29.9860  -18.6560   20.4430 C   0  0  0  0  0  3  0  0  0  0  0  0
  -29.5060  -21.5250   20.4870 C   0  0  0  0  0  3  0  0  0  0  0  0
  -27.3200  -22.6600   21.4610 C   0  0  0  0  0  1  0  0  0  0  0  0
  -28.6720  -23.0530   20.8500 C   0  0  0  0  0  3  0  0  0  0  0  0
  -28.4520  -24.5880   20.0000 C   0  0  0  0  0  2  0  0  0  0  0  0
  -28.3670  -26.1430   20.4600 O   0  0  0  0  0  0  0  0  0  0  0  0
  -24.6900  -31.9890   23.2660 C   0  0  0  0  0  0  0  0  0  0  0  0
  -27.3120  -27.1650   20.3120 C   0  0  0  0  0  0  0  0  0  0  0  0
  -23.5120  -30.5710   21.6320 C   0  0  0  0  0  3  0  0  0  0  0  0
  -24.9800  -28.9750   20.2240 C   0  0  0  0  0  0  0  0  0  0  0  0
  -26.0710  -30.8200   21.4870 C   0  0  0  0  0  2  0  0  0  0  0  0
  -26.1540  -29.4120   20.8480 C   0  0  0  0  0  0  0  0  0  0  0  0
  -27.3100  -28.5260   20.8730 C   0  0  0  0  0  3  0  0  0  0  0  0
  -26.1100  -26.8590   19.6350 C   0  0  0  0  0  3  0  0  0  0  0  0
  -24.9780  -27.7150   19.6000 C   0  0  0  0  0  3  0  0  0  0  0  0
  -23.7490  -29.8810   20.2600 C   0  0  0  0  0  2  0  0  0  0  0  0
  -24.7790  -31.1530   22.1830 N   0  0  0  0  0  0  0  0  0  0  0  0
  -23.5960  -32.2710   23.7820 O   0  0  0  0  0  0  0  0  0  0  0  0
  -22.8240  -29.5750   22.6010 C   0  0  0  0  0  0  0  0  0  0  0  0
  -21.4960  -29.3950   22.4690 N   0  0  0  0  0  0  0  0  0  0  0  0
  -23.4900  -28.9620   23.4380 O   0  0  0  0  0  0  0  0  0  0  0  0
  -21.0080  -29.9390   21.7690 H   0  0  0  0  0  0  0  0  0  0  0  0
  -18.1220  -28.1680   22.9680 C   0  0  0  0  0  0  0  0  0  0  0  0
  -20.6780  -28.4570   23.2460 C   0  0  0  0  0  3  0  0  0  0  0  0
  -20.7970  -27.0220   22.6840 C   0  0  0  0  0  2  0  0  0  0  0  0
  -19.7020  -26.6820   21.6670 C   0  0  0  0  0  2  0  0  0  0  0  0
  -18.3160  -26.8170   22.3020 C   0  0  0  0  0  2  0  0  0  0  0  0
  -19.2310  -28.9450   23.3990 C   0  0  0  0  0  0  0  0  0  0  0  0
  -18.9960  -30.2070   23.9860 C   0  0  0  0  0  3  0  0  0  0  0  0
  -17.6840  -30.6920   24.1480 C   0  0  0  0  0  3  0  0  0  0  0  0
  -16.5900  -29.9130   23.7350 C   0  0  0  0  0  3  0  0  0  0  0  0
  -16.8090  -28.6540   23.1480 C   0  0  0  0  0  3  0  0  0  0  0  0
  -25.9530  -32.6450   23.9000 C   0  0  0  0  0  3  0  0  0  0  0  0
  -26.4520  -31.8970   25.1970 C   0  0  1  0  0  0  0  0  0  0  0  0
  -25.3410  -31.6620   26.2460 C   0  0  0  0  0  1  0  0  0  0  0  0
  -27.0610  -30.5220   24.8410 C   0  0  0  0  0  1  0  0  0  0  0  0
  -27.5810  -32.7140   25.8690 C   0  0  0  0  0  1  0  0  0  0  0  0
  -25.6270  -34.0460   24.2150 N   0  0  0  0  0  0  0  0  0  0  0  0
  -25.9620  -35.1010   23.4590 C   0  0  0  0  0  0  0  0  0  0  0  0
  -26.6420  -34.9950   22.4350 O   0  0  0  0  0  0  0  0  0  0  0  0
  -25.0270  -34.2030   25.0120 H   0  0  0  0  0  0  0  0  0  0  0  0
  -24.2340  -36.8920   23.0850 C   0  0  0  0  0  1  0  0  0  0  0  0
  -25.4680  -36.4900   23.9080 C   0  0  0  0  0  3  0  0  0  0  0  0
  -27.5900  -37.3920   24.7540 C   0  0  0  0  0  1  0  0  0  0  0  0
  -26.4990  -37.5450   23.7950 N   0  0  0  0  0  0  0  0  0  0  0  0
  -26.0880  -38.4660   23.9260 H   0  0  0  0  0  0  0  0  0  0  0  0
  -29.5750  -16.9250   20.3860 C   0  0  0  0  0  3  0  0  0  0  0  0
  -30.4640  -15.4080   20.2970 C   0  0  0  0  0  0  0  0  0  0  0  0
  -30.4470  -12.9850   19.3730 C   0  0  0  0  0  2  0  0  0  0  0  0
  -29.4910  -12.8230   18.1620 C   0  0  0  0  0  2  0  0  0  0  0  0
  -28.0590  -12.4970   18.6260 C   0  0  0  0  0  2  0  0  0  0  0  0
  -27.6200  -13.4210   19.7800 C   0  0  0  0  0  3  0  0  0  0  0  0
  -28.6920  -13.5910   20.8800 C   0  0  0  0  0  2  0  0  0  0  0  0
  -29.9290  -14.0910   20.2550 N   0  0  0  0  0  0  0  0  0  0  0  0
  -31.6820  -15.4290   20.0680 O   0  0  0  0  0  0  0  0  0  0  0  0
  -25.2730  -14.0110   20.5910 C   0  0  0  0  0  0  0  0  0  0  0  0
  -24.2130  -13.2340   20.9650 C   0  0  0  0  0  0  0  0  0  0  0  0
  -24.6770  -11.8840   20.9070 C   0  0  0  0  0  0  0  0  0  0  0  0
  -26.3040  -13.1270   20.3160 N   0  0  0  0  0  0  0  0  0  0  0  0
  -25.9610  -11.8440   20.5740 N   0  0  0  0  0  0  0  0  0  0  0  0
  -23.9580  -10.6210   21.0880 C   0  0  0  0  0  0  0  0  0  0  0  0
  -24.4020   -9.6460   22.0080 C   0  0  0  0  0  3  0  0  0  0  0  0
  -23.6840   -8.4440   22.1770 C   0  0  0  0  0  3  0  0  0  0  0  0
  -22.5070   -8.2100   21.4260 C   0  0  0  0  0  0  0  0  0  0  0  0
  -22.0840   -9.1730   20.4930 C   0  0  0  0  0  3  0  0  0  0  0  0
  -22.8030  -10.3670   20.3220 C   0  0  0  0  0  3  0  0  0  0  0  0
  -21.7590   -7.0620   21.5070 O   0  0  0  0  0  0  0  0  0  0  0  0
  -21.7170   -6.3120   22.6540 C   0  0  0  0  0  0  0  0  0  0  0  0
  -21.2730   -6.8510   23.8820 C   0  0  0  0  0  3  0  0  0  0  0  0
  -21.1820   -6.0250   25.0200 C   0  0  0  0  0  3  0  0  0  0  0  0
  -21.5240   -4.6610   24.9310 C   0  0  0  0  0  0  0  0  0  0  0  0
  -21.9610   -4.1230   23.7080 C   0  0  0  0  0  3  0  0  0  0  0  0
  -22.0550   -4.9470   22.5730 C   0  0  0  0  0  0  0  0  0  0  0  0
  -22.4570   -4.4190   21.3910 F   0  0  0  0  0  0  0  0  0  0  0  0
  -21.4270   -3.8660   26.0210 F   0  0  0  0  0  0  0  0  0  0  0  0
  -22.8200  -13.7080   21.2620 C   0  0  0  0  0  0  0  0  0  0  0  0
  -22.1050  -13.0000   22.1300 N   0  0  0  0  0  0  0  0  0  0  0  0
  -22.3750  -14.7390   20.7610 O   0  0  0  0  0  0  0  0  0  0  0  0
  -22.4780  -12.1630   22.5550 H   0  0  0  0  0  0  0  0  0  0  0  0
  -21.1720  -13.3000   22.3740 H   0  0  0  0  0  0  0  0  0  0  0  0
  -25.4380  -15.3850   20.4350 N   0  0  0  0  0  0  0  0  0  0  0  0
  -24.6760  -16.0380   20.5790 H   0  0  0  0  0  0  0  0  0  0  0  0
  -26.2920  -15.8340   20.1320 H   0  0  0  0  0  0  0  0  0  0  0  0
  -29.2960  -17.1700   17.8070 C   0  0  0  0  0  1  0  0  0  0  0  0
  -28.6190  -16.9660   19.1710 C   0  0  0  0  0  2  0  0  0  0  0  0
  2  1  1  0
  3  4  1  0
  3  5  1  0
  4 50  1  0
  4  1  1  0
  5  7  1  0
  5  2  1  0
  7  6  1  0
  8  9  1  0
  8  7  1  0
 10 21  2  0
 11  9  1  0
 11 16  1  0
 12 20  1  0
 12 22  1  0
 13 19  1  0
 13 15  1  0
 14 20  1  0
 15 16  2  0
 15 14  1  0
 17 11  2  0
 18 17  1  0
 18 13  2  0
 19 12  1  0
 20 10  1  0
 22 24  2  0
 23 22  1  0
 25 23  1  0
 26 35  2  0
 26 31  1  0
 27 23  1  0
 27 31  1  0
 28 27  1  0
 29 30  1  0
 29 28  1  0
 30 26  1  0
 31 32  2  0
 32 33  1  0
 34 33  2  0
 35 34  1  0
 36 10  1  0
 36 41  1  0
 36 37  1  0
 37 40  1  1
 37 38  1  0
 39 37  1  0
 41 44  1  0
 42 46  1  0
 42 41  1  0
 43 42  2  0
 46 45  1  0
 48 46  1  0
 48 49  1  0
 48 47  1  0
 50 88  1  0
 51 50  1  0
 52 57  1  0
 53 54  1  0
 53 52  1  0
 55 54  1  0
 55 62  1  0
 55 56  1  0
 57 51  1  0
 57 56  1  0
 58 51  2  0
 59 60  2  0
 60 79  1  0
 61 60  1  0
 61 64  1  0
 62 63  1  0
 62 59  1  0
 63 61  2  0
 64 65  1  0
 65 66  2  0
 67 70  1  0
 67 66  1  0
 68 67  2  0
 69 68  1  0
 69 64  2  0
 70 71  1  0
 71 72  1  0
 72 73  2  0
 74 73  1  0
 74 78  1  0
 75 74  2  0
 76 71  2  0
 76 75  1  0
 77 76  1  0
 79 80  1  0
 80 83  1  0
 80 82  1  0
 81 79  2  0
 84 85  1  0
 84 59  1  0
 86 84  1  0
 87 88  1  0
M  ISO  4   8 101   9 101  50 100  51 100
M  END
>  <TORSDO>  (17) 
F 20

>  <SCORE>  (17) 
-15.285

>  <name>  (17) 
16

>  <ligand_id>  (17) 
16

>  <original_smiles>  (17) 
[H]c1c([H])c([H])c2c(c1[H])C([H])([H])C([H])([H])C([H])([H])C2([H])N([H])C(=O)C1([H])N(C(=O)C([H])(N([H])C(=O)C([H])(N([H])C([H])([H])[H])C([H])([H])[H])C(C([H])([H])[H])(C([H])([H])[H])C([H])([H])[H])C([H])([H])c2c([H])c(OC([H])([H])C([H])(C([H])([H])[H])C3([H])C([H])([H])C([H])([H])C([H])(C([H])(C(=O)N4C([H])([H])C([H])([H])C([H])([H])C([H])(n5nc(-c6c([H])c([H])c(Oc7c([H])c([H])c(F)c([H])c7F)c([H])c6[H])c(C(=O)N([H])[H])c5N([H])[H])C4([H])[H])C([H])([H])C([H])([H])[H])C3([H])[H])c([H])c([H])c2C1([H])[H]

>  <smiles>  (17) 
[H]c1c([H])c([H])c2c(c1[H])C([H])([H])C([H])([H])C([H])([H])C2([H])N([H])C(=O)C1([H])N(C(=O)C([H])(N([H])C(=O)C([H])(N([H])C([H])([H])[H])C([H])([H])[H])C(C([H])([H])[H])(C([H])([H])[H])C([H])([H])[H])C([H])([H])c2c([H])c(OC([H])([H])C([H])(C([H])([H])[H])C3([H])C([H])([H])C([H])([H])C([H])(C([H])(C(=O)N4C([H])([H])C([H])([H])C([H])([H])C([H])(n5nc(-c6c([H])c([H])c(Oc7c([H])c([H])c(F)c([H])c7F)c([H])c6[H])c(C(=O)N([H])[H])c5N([H])[H])C4([H])[H])C([H])([H])C([H])([H])[H])C3([H])[H])c([H])c([H])c2C1([H])[H]

$$$$
17:0:0
     RDKit          3D

 93101  0  0  1  0  0  0  0  0999 V2000
  -30.5020  -18.4280   20.3830 C   0  0  0  0  0  2  0  0  0  0  0  0
  -28.3310  -17.4620   19.9140 C   0  0  0  0  0  2  0  0  0  0  0  0
  -29.5230  -19.6280   20.0140 C   0  0  0  0  0  3  0  0  0  0  0  0
  -29.8300  -17.0780   19.8960 C   0  0  0  0  0  3  0  0  0  0  0  0
  -28.1860  -18.9420   20.3690 C   0  0  0  0  0  3  0  0  0  0  0  0
  -30.7640  -14.6570   20.1950 C   0  0  0  0  0  0  0  0  0  0  0  0
  -30.4670  -12.4100   19.1720 C   0  0  0  0  0  2  0  0  0  0  0  0
  -29.5210  -12.5740   17.9570 C   0  0  0  0  0  2  0  0  0  0  0  0
  -28.0490  -12.4570   18.3980 C   0  0  0  0  0  2  0  0  0  0  0  0
  -27.7250  -13.3330   19.6370 C   0  0  0  0  0  3  0  0  0  0  0  0
  -28.7900  -13.1610   20.7490 C   0  0  0  0  0  2  0  0  0  0  0  0
  -30.1080  -13.4490   20.1630 N   0  0  0  0  0  0  0  0  0  0  0  0
  -31.8890  -14.7900   19.7080 O   0  0  0  0  0  0  0  0  0  0  0  0
  -30.0310  -15.7450   20.5940 N   0  0  0  0  0  0  0  0  0  0  0  0
  -29.2310  -15.4640   21.1400 H   0  0  0  0  0  0  0  0  0  0  0  0
  -25.3480  -13.9850   20.3730 C   0  0  0  0  0  0  0  0  0  0  0  0
  -24.2710  -13.2420   20.7640 C   0  0  0  0  0  0  0  0  0  0  0  0
  -24.7040  -11.8800   20.7430 C   0  0  0  0  0  0  0  0  0  0  0  0
  -26.3730  -13.0830   20.1350 N   0  0  0  0  0  0  0  0  0  0  0  0
  -25.9890  -11.8110   20.4180 N   0  0  0  0  0  0  0  0  0  0  0  0
  -23.9510  -10.6360   20.9500 C   0  0  0  0  0  0  0  0  0  0  0  0
  -24.3730   -9.6650   21.8850 C   0  0  0  0  0  3  0  0  0  0  0  0
  -23.6200   -8.4870   22.0810 C   0  0  0  0  0  3  0  0  0  0  0  0
  -22.4320   -8.2730   21.3420 C   0  0  0  0  0  0  0  0  0  0  0  0
  -22.0310   -9.2310   20.3940 C   0  0  0  0  0  3  0  0  0  0  0  0
  -22.7850  -10.4010   20.1950 C   0  0  0  0  0  3  0  0  0  0  0  0
  -21.6520   -7.1460   21.4490 O   0  0  0  0  0  0  0  0  0  0  0  0
  -21.5990   -6.4130   22.6080 C   0  0  0  0  0  0  0  0  0  0  0  0
  -21.1870   -6.9830   23.8320 C   0  0  0  0  0  3  0  0  0  0  0  0
  -21.0820   -6.1780   24.9830 C   0  0  0  0  0  3  0  0  0  0  0  0
  -21.3760   -4.8030   24.9100 C   0  0  0  0  0  0  0  0  0  0  0  0
  -21.7830   -4.2330   23.6910 C   0  0  0  0  0  3  0  0  0  0  0  0
  -21.8910   -5.0360   22.5430 C   0  0  0  0  0  0  0  0  0  0  0  0
  -22.2610   -4.4770   21.3650 F   0  0  0  0  0  0  0  0  0  0  0  0
  -21.2680   -4.0270   26.0140 F   0  0  0  0  0  0  0  0  0  0  0  0
  -22.8860  -13.7510   21.0480 C   0  0  0  0  0  0  0  0  0  0  0  0
  -22.1580  -13.0930   21.9420 N   0  0  0  0  0  0  0  0  0  0  0  0
  -22.4580  -14.7710   20.5060 O   0  0  0  0  0  0  0  0  0  0  0  0
  -22.5150  -12.2680   22.4010 H   0  0  0  0  0  0  0  0  0  0  0  0
  -21.2310  -13.4200   22.1710 H   0  0  0  0  0  0  0  0  0  0  0  0
  -25.5380  -15.3510   20.1760 N   0  0  0  0  0  0  0  0  0  0  0  0
  -24.7690  -16.0100   20.2450 H   0  0  0  0  0  0  0  0  0  0  0  0
  -26.3610  -15.7430   19.7420 H   0  0  0  0  0  0  0  0  0  0  0  0
  -26.9950  -19.5870   19.7840 N   0  0  0  0  0  4  0  0  0  0  0  0
  -26.8580  -20.4970   20.1830 H   0  0  0  0  0  0  0  0  0  0  0  0
  -26.1740  -19.0450   19.9880 H   0  0  0  0  0  0  0  0  0  0  0  0
  -27.0730  -19.6820   18.7880 H   0  0  0  0  0  0  0  0  0  0  0  0
  -29.8870  -21.1790   22.0930 C   0  0  0  0  0  1  0  0  0  0  0  0
  -29.8000  -21.1320   20.5590 C   0  0  0  0  0  3  0  0  0  0  0  0
  -28.8810  -22.3390   20.0160 C   0  0  0  0  0  2  0  0  0  0  0  0
  -29.2110  -23.8730   20.3770 C   0  0  0  0  0  3  0  0  0  0  0  0
  -28.1320  -24.9720   19.9340 C   0  0  0  0  0  3  0  0  0  0  0  0
  -28.3430  -26.4330   20.1510 O   0  0  0  0  0  0  0  0  0  0  0  0
  -24.5540  -31.8230   23.1370 C   0  0  0  0  0  0  0  0  0  0  0  0
  -27.2250  -27.2900   20.0800 C   0  0  0  0  0  0  0  0  0  0  0  0
  -23.3750  -30.4290   21.4790 C   0  0  0  0  0  3  0  0  0  0  0  0
  -24.8480  -28.8970   20.0590 C   0  0  0  0  0  0  0  0  0  0  0  0
  -25.9150  -30.7670   21.3130 C   0  0  0  0  0  2  0  0  0  0  0  0
  -26.0130  -29.3910   20.6620 C   0  0  0  0  0  0  0  0  0  0  0  0
  -27.2060  -28.6010   20.6560 C   0  0  0  0  0  3  0  0  0  0  0  0
  -26.0330  -26.8590   19.4490 C   0  0  0  0  0  3  0  0  0  0  0  0
  -24.8630  -27.6400   19.4410 C   0  0  0  0  0  3  0  0  0  0  0  0
  -23.6040  -29.7600   20.1000 C   0  0  0  0  0  2  0  0  0  0  0  0
  -24.6350  -31.0230   22.0340 N   0  0  0  0  0  0  0  0  0  0  0  0
  -23.4630  -32.0910   23.6620 O   0  0  0  0  0  0  0  0  0  0  0  0
  -22.7070  -29.4030   22.4270 C   0  0  0  0  0  0  0  0  0  0  0  0
  -21.3770  -29.2510   22.3110 N   0  0  0  0  0  0  0  0  0  0  0  0
  -23.3850  -28.7480   23.2230 O   0  0  0  0  0  0  0  0  0  0  0  0
  -20.8930  -29.8270   21.6390 H   0  0  0  0  0  0  0  0  0  0  0  0
  -17.9800  -28.1350   22.8660 C   0  0  0  0  0  0  0  0  0  0  0  0
  -20.5510  -28.3120   23.0720 C   0  0  0  0  0  3  0  0  0  0  0  0
  -20.5950  -26.8990   22.4480 C   0  0  0  0  0  2  0  0  0  0  0  0
  -19.4580  -26.6410   21.4550 C   0  0  0  0  0  2  0  0  0  0  0  0
  -18.0980  -26.8030   22.1420 C   0  0  0  0  0  2  0  0  0  0  0  0
  -19.1310  -28.8510   23.2890 C   0  0  0  0  0  0  0  0  0  0  0  0
  -18.9640  -30.0970   23.9320 C   0  0  0  0  0  3  0  0  0  0  0  0
  -17.6790  -30.6300   24.1480 C   0  0  0  0  0  3  0  0  0  0  0  0
  -16.5430  -29.9110   23.7390 C   0  0  0  0  0  3  0  0  0  0  0  0
  -16.6940  -28.6640   23.1040 C   0  0  0  0  0  3  0  0  0  0  0  0
  -25.8270  -32.4580   23.7770 C   0  0  0  0  0  3  0  0  0  0  0  0
  -25.5040  -33.8520   24.1140 N   0  0  0  0  0  0  0  0  0  0  0  0
  -25.8570  -34.9150   23.3760 C   0  0  0  0  0  0  0  0  0  0  0  0
  -26.5570  -34.8230   22.3630 O   0  0  0  0  0  0  0  0  0  0  0  0
  -24.8830  -33.9980   24.8960 H   0  0  0  0  0  0  0  0  0  0  0  0
  -24.1530  -36.7190   22.9770 C   0  0  0  0  0  1  0  0  0  0  0  0
  -25.3560  -36.2980   23.8350 C   0  0  0  0  0  3  0  0  0  0  0  0
  -27.4500  -37.1590   24.7840 C   0  0  0  0  0  1  0  0  0  0  0  0
  -26.3980  -37.3470   23.7890 N   0  0  0  0  0  0  0  0  0  0  0  0
  -25.9900  -38.2670   23.9280 H   0  0  0  0  0  0  0  0  0  0  0  0
  -26.3360  -31.6810   25.0530 C   0  0  1  0  0  0  0  0  0  0  0  0
  -25.2290  -31.4300   26.1030 C   0  0  0  0  0  1  0  0  0  0  0  0
  -26.9280  -30.3090   24.6550 C   0  0  0  0  0  1  0  0  0  0  0  0
  -27.4790  -32.4740   25.7300 C   0  0  0  0  0  1  0  0  0  0  0  0
  2  5  1  0
  3  5  1  0
  3  1  1  0
  3 49  1  0
  4  2  1  0
  4  1  1  0
  4 14  1  0
  5 44  1  0
  6 14  1  0
  7 12  1  0
  8  9  1  0
  8  7  1  0
 10  9  1  0
 10 19  1  0
 10 11  1  0
 12  6  1  0
 12 11  1  0
 13  6  2  0
 14 15  1  0
 16 17  2  0
 17 36  1  0
 18 17  1  0
 18 21  1  0
 19 16  1  0
 19 20  1  0
 20 18  2  0
 21 22  1  0
 22 23  2  0
 24 27  1  0
 24 23  1  0
 25 24  2  0
 26 25  1  0
 26 21  2  0
 27 28  1  0
 28 29  1  0
 29 30  2  0
 31 30  1  0
 31 35  1  0
 32 31  2  0
 33 28  2  0
 33 32  1  0
 34 33  1  0
 36 37  1  0
 37 40  1  0
 37 39  1  0
 38 36  2  0
 41 42  1  0
 41 16  1  0
 43 41  1  0
 44 46  1  0
 44 45  1  0
 47 44  1  0
 49 48  1  0
 50 51  1  0
 50 49  1  0
 52 53  1  0
 52 51  2  0
 54 65  2  0
 55 53  1  0
 55 60  1  0
 56 64  1  0
 56 66  1  0
 57 63  1  0
 57 59  1  0
 58 64  1  0
 59 58  1  0
 60 59  2  0
 61 55  2  0
 62 61  1  0
 62 57  2  0
 63 56  1  0
 64 54  1  0
 66 68  2  0
 67 66  1  0
 69 67  1  0
 70 79  2  0
 70 75  1  0
 71 67  1  0
 71 75  1  0
 72 71  1  0
 73 74  1  0
 73 72  1  0
 74 70  1  0
 75 76  2  0
 76 77  1  0
 78 77  2  0
 79 78  1  0
 80 54  1  0
 80 81  1  0
 80 90  1  0
 81 84  1  0
 82 86  1  0
 82 81  1  0
 83 82  2  0
 86 85  1  0
 88 86  1  0
 88 89  1  0
 88 87  1  0
 90 93  1  1
 90 91  1  0
 92 90  1  0
M  ISO  4   6 100  14 100  52 101  53 101
M  END
>  <TORSDO>  (18) 
F 21

>  <SCORE>  (18) 
-13.711

>  <name>  (18) 
17

>  <ligand_id>  (18) 
17

>  <original_smiles>  (18) 
[H]c1c([H])c([H])c2c(c1[H])C([H])([H])C([H])([H])C([H])([H])C2([H])N([H])C(=O)C1([H])N(C(=O)C([H])(N([H])C(=O)C([H])(N([H])C([H])([H])[H])C([H])([H])[H])C(C([H])([H])[H])(C([H])([H])[H])C([H])([H])[H])C([H])([H])c2c([H])c(OC([H])([H])C([H])([H])C([H])([H])C([H])(C([H])([H])[H])C3([H])C([H])([H])C([H])(N([H])C(=O)N4C([H])([H])C([H])([H])C([H])([H])C([H])(n5nc(-c6c([H])c([H])c(Oc7c([H])c([H])c(F)c([H])c7F)c([H])c6[H])c(C(=O)N([H])[H])c5N([H])[H])C4([H])[H])C([H])([H])C3([H])[N+]([H])([H])[H])c([H])c([H])c2C1([H])[H]

>  <smiles>  (18) 
[H]c1c([H])c([H])c2c(c1[H])C([H])([H])C([H])([H])C([H])([H])C2([H])N([H])C(=O)C1([H])N(C(=O)C([H])(N([H])C(=O)C([H])(N([H])C([H])([H])[H])C([H])([H])[H])C(C([H])([H])[H])(C([H])([H])[H])C([H])([H])[H])C([H])([H])c2c([H])c(OC([H])([H])C([H])([H])C([H])([H])C([H])(C([H])([H])[H])C3([H])C([H])([H])C([H])(N([H])C(=O)N4C([H])([H])C([H])([H])C([H])([H])C([H])(n5nc(-c6c([H])c([H])c(Oc7c([H])c([H])c(F)c([H])c7F)c([H])c6[H])c(C(=O)N([H])[H])c5N([H])[H])C4([H])[H])C([H])([H])C3([H])[N+]([H])([H])[H])c([H])c([H])c2C1([H])[H]

$$$$
18:0:0
     RDKit          3D

 89 97  0  0  1  0  0  0  0  0999 V2000
  -30.6330  -22.0320   19.2550 C   0  0  0  0  0  2  0  0  0  0  0  0
  -30.1490  -23.5070   19.0700 C   0  0  0  0  0  2  0  0  0  0  0  0
  -28.8020  -22.4000   20.7490 C   0  0  0  0  0  2  0  0  0  0  0  0
  -29.5310  -21.2170   19.9870 C   0  0  0  0  0  3  0  0  0  0  0  0
  -28.7520  -23.5590   19.6900 C   0  0  0  0  0  3  0  0  0  0  0  0
  -30.0540  -19.8820   20.7270 C   0  0  0  0  0  2  0  0  0  0  0  0
  -28.2070  -18.1340   20.4110 C   0  0  0  0  0  1  0  0  0  0  0  0
  -29.6900  -18.4260   20.1360 C   0  0  0  0  0  3  0  0  0  0  0  0
  -30.5820  -17.1700   20.5950 C   0  0  0  0  0  2  0  0  0  0  0  0
  -30.6870  -14.6240   20.0400 C   0  0  0  0  0  0  0  0  0  0  0  0
  -30.3320  -12.3820   19.0030 C   0  0  0  0  0  2  0  0  0  0  0  0
  -29.3330  -12.4900   17.8330 C   0  0  0  0  0  2  0  0  0  0  0  0
  -27.8850  -12.3460   18.3380 C   0  0  0  0  0  2  0  0  0  0  0  0
  -27.5940  -13.2340   19.5790 C   0  0  0  0  0  3  0  0  0  0  0  0
  -28.7150  -13.1290   20.6390 C   0  0  0  0  0  2  0  0  0  0  0  0
  -29.9890  -13.4410   19.9760 N   0  0  0  0  0  0  0  0  0  0  0  0
  -31.8380  -14.6970   19.6040 O   0  0  0  0  0  0  0  0  0  0  0  0
  -30.0260  -15.7640   20.4320 N   0  0  0  0  0  0  0  0  0  0  0  0
  -29.0650  -15.6410   20.7030 H   0  0  0  0  0  0  0  0  0  0  0  0
  -25.2600  -13.8460   20.4630 C   0  0  0  0  0  0  0  0  0  0  0  0
  -24.2040  -13.0840   20.8820 C   0  0  0  0  0  0  0  0  0  0  0  0
  -24.6390  -11.7250   20.7960 C   0  0  0  0  0  0  0  0  0  0  0  0
  -26.2740  -12.9560   20.1450 N   0  0  0  0  0  0  0  0  0  0  0  0
  -25.9090  -11.6730   20.4060 N   0  0  0  0  0  0  0  0  0  0  0  0
  -23.8990  -10.4720   20.9990 C   0  0  0  0  0  0  0  0  0  0  0  0
  -24.3580   -9.4800   21.8890 C   0  0  0  0  0  3  0  0  0  0  0  0
  -23.6190   -8.2920   22.0830 C   0  0  0  0  0  3  0  0  0  0  0  0
  -22.4030   -8.0910   21.3860 C   0  0  0  0  0  0  0  0  0  0  0  0
  -21.9630   -9.0730   20.4810 C   0  0  0  0  0  3  0  0  0  0  0  0
  -22.7040  -10.2500   20.2850 C   0  0  0  0  0  3  0  0  0  0  0  0
  -21.6300   -6.9600   21.4930 O   0  0  0  0  0  0  0  0  0  0  0  0
  -21.6200   -6.1980   22.6350 C   0  0  0  0  0  0  0  0  0  0  0  0
  -21.2500   -6.7360   23.8860 C   0  0  0  0  0  3  0  0  0  0  0  0
  -21.1850   -5.9000   25.0190 C   0  0  0  0  0  3  0  0  0  0  0  0
  -21.4820   -4.5290   24.9020 C   0  0  0  0  0  0  0  0  0  0  0  0
  -21.8450   -3.9910   23.6560 C   0  0  0  0  0  3  0  0  0  0  0  0
  -21.9120   -4.8230   22.5240 C   0  0  0  0  0  0  0  0  0  0  0  0
  -22.2390   -4.2930   21.3210 F   0  0  0  0  0  0  0  0  0  0  0  0
  -21.4120   -3.7270   25.9890 F   0  0  0  0  0  0  0  0  0  0  0  0
  -22.8350  -13.5790   21.2480 C   0  0  0  0  0  0  0  0  0  0  0  0
  -22.1480  -12.8820   22.1460 N   0  0  0  0  0  0  0  0  0  0  0  0
  -22.3840  -14.6220   20.7750 O   0  0  0  0  0  0  0  0  0  0  0  0
  -22.5250  -12.0380   22.5520 H   0  0  0  0  0  0  0  0  0  0  0  0
  -21.2310  -13.1990   22.4290 H   0  0  0  0  0  0  0  0  0  0  0  0
  -25.4340  -15.2170   20.3060 N   0  0  0  0  0  0  0  0  0  0  0  0
  -24.6780  -15.8720   20.4790 H   0  0  0  0  0  0  0  0  0  0  0  0
  -26.2520  -15.6590   19.9060 H   0  0  0  0  0  0  0  0  0  0  0  0
  -27.9140  -24.9320   19.7700 C   0  0  0  0  0  2  0  0  0  0  0  0
  -28.2480  -26.3270   20.2040 O   0  0  0  0  0  0  0  0  0  0  0  0
  -24.6020  -31.8430   23.2430 C   0  0  0  0  0  0  0  0  0  0  0  0
  -27.1700  -27.2510   20.1560 C   0  0  0  0  0  0  0  0  0  0  0  0
  -23.3930  -30.4660   21.5940 C   0  0  0  0  0  3  0  0  0  0  0  0
  -24.8320  -28.9260   20.1620 C   0  0  0  0  0  0  0  0  0  0  0  0
  -25.9420  -30.7560   21.4240 C   0  0  0  0  0  2  0  0  0  0  0  0
  -26.0110  -29.3800   20.7650 C   0  0  0  0  0  0  0  0  0  0  0  0
  -27.1850  -28.5560   20.7560 C   0  0  0  0  0  3  0  0  0  0  0  0
  -25.9540  -26.8790   19.5220 C   0  0  0  0  0  3  0  0  0  0  0  0
  -24.8030  -27.6790   19.5380 C   0  0  0  0  0  3  0  0  0  0  0  0
  -23.6070  -29.8130   20.2090 C   0  0  0  0  0  2  0  0  0  0  0  0
  -24.6650  -31.0370   22.1440 N   0  0  0  0  0  0  0  0  0  0  0  0
  -23.5170  -32.1250   23.7740 O   0  0  0  0  0  0  0  0  0  0  0  0
  -22.7210  -29.4410   22.5410 C   0  0  0  0  0  0  0  0  0  0  0  0
  -21.3950  -29.2700   22.4080 N   0  0  0  0  0  0  0  0  0  0  0  0
  -23.3940  -28.8050   23.3570 O   0  0  0  0  0  0  0  0  0  0  0  0
  -20.9090  -29.8450   21.7330 H   0  0  0  0  0  0  0  0  0  0  0  0
  -18.0080  -28.0920   22.8950 C   0  0  0  0  0  0  0  0  0  0  0  0
  -20.5680  -28.3320   23.1710 C   0  0  0  0  0  3  0  0  0  0  0  0
  -20.6600  -26.9030   22.5910 C   0  0  0  0  0  2  0  0  0  0  0  0
  -19.5600  -26.5890   21.5730 C   0  0  0  0  0  2  0  0  0  0  0  0
  -18.1770  -26.7430   22.2140 C   0  0  0  0  0  2  0  0  0  0  0  0
  -19.1320  -28.8430   23.3300 C   0  0  0  0  0  0  0  0  0  0  0  0
  -18.9220  -30.1050   23.9280 C   0  0  0  0  0  3  0  0  0  0  0  0
  -17.6210  -30.6160   24.0970 C   0  0  0  0  0  3  0  0  0  0  0  0
  -16.5120  -29.8600   23.6770 C   0  0  0  0  0  3  0  0  0  0  0  0
  -16.7050  -28.6010   23.0820 C   0  0  0  0  0  3  0  0  0  0  0  0
  -25.8870  -32.4640   23.8680 C   0  0  0  0  0  3  0  0  0  0  0  0
  -26.3990  -31.6810   25.1400 C   0  0  1  0  0  0  0  0  0  0  0  0
  -25.3050  -31.4400   26.2040 C   0  0  0  0  0  1  0  0  0  0  0  0
  -26.9800  -30.3040   24.7420 C   0  0  0  0  0  1  0  0  0  0  0  0
  -27.5450  -32.4710   25.8180 C   0  0  0  0  0  1  0  0  0  0  0  0
  -25.5800  -33.8590   24.2110 N   0  0  0  0  0  0  0  0  0  0  0  0
  -25.9000  -34.9180   23.4570 C   0  0  0  0  0  0  0  0  0  0  0  0
  -26.5560  -34.8240   22.4150 O   0  0  0  0  0  0  0  0  0  0  0  0
  -24.9930  -34.0060   25.0200 H   0  0  0  0  0  0  0  0  0  0  0  0
  -24.1640  -36.7150   23.1440 C   0  0  0  0  0  1  0  0  0  0  0  0
  -25.4170  -36.3020   23.9320 C   0  0  0  0  0  3  0  0  0  0  0  0
  -27.5570  -37.1910   24.7430 C   0  0  0  0  0  1  0  0  0  0  0  0
  -26.4440  -37.3580   23.8130 N   0  0  0  0  0  0  0  0  0  0  0  0
  -26.0350  -38.2740   23.9730 H   0  0  0  0  0  0  0  0  0  0  0  0
  1  4  1  0
  2  1  1  0
  2  5  1  0
  4  6  1  0
  4  3  1  0
  5 48  1  0
  5  3  1  0
  8  7  1  0
  8  9  1  0
  8  6  1  0
 10 18  1  0
 11 16  1  0
 12 13  1  0
 12 11  1  0
 14 13  1  0
 14 23  1  0
 14 15  1  0
 16 10  1  0
 16 15  1  0
 17 10  2  0
 18  9  1  0
 18 19  1  0
 20 21  2  0
 21 40  1  0
 22 21  1  0
 22 25  1  0
 23 24  1  0
 23 20  1  0
 24 22  2  0
 25 26  1  0
 26 27  2  0
 28 31  1  0
 28 27  1  0
 29 28  2  0
 30 29  1  0
 30 25  2  0
 31 32  1  0
 32 33  1  0
 33 34  2  0
 35 34  1  0
 35 39  1  0
 36 35  2  0
 37 32  2  0
 37 36  1  0
 38 37  1  0
 40 41  1  0
 41 44  1  0
 41 43  1  0
 42 40  2  0
 45 20  1  0
 45 46  1  0
 47 45  1  0
 48 49  1  0
 50 61  2  0
 51 49  1  0
 51 56  1  0
 52 60  1  0
 52 62  1  0
 53 59  1  0
 53 55  1  0
 54 60  1  0
 55 54  1  0
 56 55  2  0
 57 58  1  0
 57 51  2  0
 58 53  2  0
 59 52  1  0
 60 50  1  0
 62 64  2  0
 63 62  1  0
 65 63  1  0
 66 75  2  0
 66 71  1  0
 67 63  1  0
 67 71  1  0
 68 67  1  0
 69 70  1  0
 69 68  1  0
 70 66  1  0
 71 72  2  0
 72 73  1  0
 74 73  2  0
 75 74  1  0
 76 50  1  0
 76 81  1  0
 76 77  1  0
 77 80  1  1
 77 78  1  0
 79 77  1  0
 81 84  1  0
 82 86  1  0
 82 81  1  0
 83 82  2  0
 86 85  1  0
 88 86  1  0
 88 89  1  0
 88 87  1  0
M  ISO  4  10 100  18 100  48 101  49 101
M  END
>  <TORSDO>  (19) 
F 20

>  <SCORE>  (19) 
-13.690

>  <name>  (19) 
18

>  <ligand_id>  (19) 
18

>  <original_smiles>  (19) 
[H]c1c([H])c([H])c2c(c1[H])C([H])([H])C([H])([H])C([H])([H])C2([H])N([H])C(=O)C1([H])N(C(=O)C([H])(N([H])C(=O)C([H])(N([H])C([H])([H])[H])C([H])([H])[H])C(C([H])([H])[H])(C([H])([H])[H])C([H])([H])[H])C([H])([H])c2c([H])c(OC([H])([H])C3([H])C([H])([H])C([H])([H])C([H])(C([H])([H])C([H])(C([H])([H])[H])C([H])([H])N([H])C(=O)N4C([H])([H])C([H])([H])C([H])([H])C([H])(n5nc(-c6c([H])c([H])c(Oc7c([H])c([H])c(F)c([H])c7F)c([H])c6[H])c(C(=O)N([H])[H])c5N([H])[H])C4([H])[H])C3([H])[H])c([H])c([H])c2C1([H])[H]

>  <smiles>  (19) 
[H]c1c([H])c([H])c2c(c1[H])C([H])([H])C([H])([H])C([H])([H])C2([H])N([H])C(=O)C1([H])N(C(=O)C([H])(N([H])C(=O)C([H])(N([H])C([H])([H])[H])C([H])([H])[H])C(C([H])([H])[H])(C([H])([H])[H])C([H])([H])[H])C([H])([H])c2c([H])c(OC([H])([H])C3([H])C([H])([H])C([H])([H])C([H])(C([H])([H])C([H])(C([H])([H])[H])C([H])([H])N([H])C(=O)N4C([H])([H])C([H])([H])C([H])([H])C([H])(n5nc(-c6c([H])c([H])c(Oc7c([H])c([H])c(F)c([H])c7F)c([H])c6[H])c(C(=O)N([H])[H])c5N([H])[H])C4([H])[H])C3([H])[H])c([H])c([H])c2C1([H])[H]

$$$$
19:0:0
     RDKit          3D

 88 96  0  0  1  0  0  0  0  0999 V2000
  -29.7160  -21.3950   18.8580 C   0  0  0  0  0  3  0  0  0  0  0  0
  -30.0930  -20.0530   18.9020 C   0  0  0  0  0  3  0  0  0  0  0  0
  -28.9130  -21.9840   20.0500 C   0  0  0  0  0  3  0  0  0  0  0  0
  -29.8630  -19.2190   20.2050 C   0  0  0  0  0  3  0  0  0  0  0  0
  -28.9940  -20.5110   20.8400 N   0  0  0  0  0  4  0  0  0  0  0  0
  -28.0440  -20.1980   20.9620 H   0  0  0  0  0  0  0  0  0  0  0  0
  -29.3430  -20.6780   21.7710 H   0  0  0  0  0  0  0  0  0  0  0  0
  -28.2000  -23.7820   20.3720 C   0  0  0  0  0  2  0  0  0  0  0  0
  -28.3960  -25.5280   20.2710 O   0  0  0  0  0  0  0  0  0  0  0  0
  -24.7350  -31.7750   23.1080 C   0  0  0  0  0  0  0  0  0  0  0  0
  -27.3940  -26.7140   20.2220 C   0  0  0  0  0  0  0  0  0  0  0  0
  -23.5960  -30.3420   21.4660 C   0  0  0  0  0  3  0  0  0  0  0  0
  -25.0930  -28.7020   20.1030 C   0  0  0  0  0  0  0  0  0  0  0  0
  -26.1750  -30.5230   21.3900 C   0  0  0  0  0  2  0  0  0  0  0  0
  -26.2730  -29.0870   20.7510 C   0  0  0  0  0  0  0  0  0  0  0  0
  -27.4100  -28.1220   20.7740 C   0  0  0  0  0  3  0  0  0  0  0  0
  -26.1740  -26.5330   19.5210 C   0  0  0  0  0  3  0  0  0  0  0  0
  -25.0800  -27.4510   19.4640 C   0  0  0  0  0  3  0  0  0  0  0  0
  -23.8720  -29.6340   20.1090 C   0  0  0  0  0  2  0  0  0  0  0  0
  -24.8570  -30.9130   22.0400 N   0  0  0  0  0  0  0  0  0  0  0  0
  -23.6290  -32.0650   23.5950 O   0  0  0  0  0  0  0  0  0  0  0  0
  -22.8770  -29.3650   22.4350 C   0  0  0  0  0  0  0  0  0  0  0  0
  -21.5470  -29.2050   22.2970 N   0  0  0  0  0  0  0  0  0  0  0  0
  -23.5280  -28.7480   23.2810 O   0  0  0  0  0  0  0  0  0  0  0  0
  -21.0720  -29.7560   21.5950 H   0  0  0  0  0  0  0  0  0  0  0  0
  -18.1590  -27.9810   22.7820 C   0  0  0  0  0  0  0  0  0  0  0  0
  -20.7150  -28.2680   23.0650 C   0  0  0  0  0  3  0  0  0  0  0  0
  -20.8300  -26.8330   22.5020 C   0  0  0  0  0  2  0  0  0  0  0  0
  -19.7400  -26.4970   21.4780 C   0  0  0  0  0  2  0  0  0  0  0  0
  -18.3510  -26.6320   22.1090 C   0  0  0  0  0  2  0  0  0  0  0  0
  -19.2690  -28.7560   23.2160 C   0  0  0  0  0  0  0  0  0  0  0  0
  -19.0320  -30.0130   23.8110 C   0  0  0  0  0  3  0  0  0  0  0  0
  -17.7200  -30.4990   23.9740 C   0  0  0  0  0  3  0  0  0  0  0  0
  -16.6260  -29.7240   23.5520 C   0  0  0  0  0  3  0  0  0  0  0  0
  -16.8460  -28.4660   22.9630 C   0  0  0  0  0  3  0  0  0  0  0  0
  -25.9770  -32.4480   23.7660 C   0  0  0  0  0  3  0  0  0  0  0  0
  -26.4890  -31.6820   25.0500 C   0  0  1  0  0  0  0  0  0  0  0  0
  -25.3830  -31.4080   26.0970 C   0  0  0  0  0  1  0  0  0  0  0  0
  -27.1170  -30.3220   24.6710 C   0  0  0  0  0  1  0  0  0  0  0  0
  -27.6060  -32.5030   25.7380 C   0  0  0  0  0  1  0  0  0  0  0  0
  -25.6130  -33.8330   24.1260 N   0  0  0  0  0  0  0  0  0  0  0  0
  -25.9140  -34.9230   23.4070 C   0  0  0  0  0  0  0  0  0  0  0  0
  -26.5850  -34.8700   22.3740 O   0  0  0  0  0  0  0  0  0  0  0  0
  -25.0090  -33.9430   24.9270 H   0  0  0  0  0  0  0  0  0  0  0  0
  -24.1310  -36.6840   23.1290 C   0  0  0  0  0  1  0  0  0  0  0  0
  -25.3920  -36.2860   23.9120 C   0  0  0  0  0  3  0  0  0  0  0  0
  -27.5060  -37.2180   24.7480 C   0  0  0  0  0  1  0  0  0  0  0  0
  -26.3920  -37.3730   23.8170 N   0  0  0  0  0  0  0  0  0  0  0  0
  -25.9590  -38.2770   23.9910 H   0  0  0  0  0  0  0  0  0  0  0  0
  -29.6830  -17.2870   20.3700 C   0  0  0  0  0  3  0  0  0  0  0  0
  -30.4950  -15.6430   19.9330 C   0  0  0  0  0  0  0  0  0  0  0  0
  -30.5030  -13.1660   18.9020 C   0  0  0  0  0  2  0  0  0  0  0  0
  -29.4880  -12.9210   17.7450 C   0  0  0  0  0  2  0  0  0  0  0  0
  -28.0920  -12.5660   18.2810 C   0  0  0  0  0  2  0  0  0  0  0  0
  -27.7170  -13.4590   19.4860 C   0  0  0  0  0  3  0  0  0  0  0  0
  -28.8570  -13.5970   20.5160 C   0  0  0  0  0  2  0  0  0  0  0  0
  -29.9950  -14.2670   19.8380 N   0  0  0  0  0  0  0  0  0  0  0  0
  -31.6860  -15.6100   19.5680 O   0  0  0  0  0  0  0  0  0  0  0  0
  -25.4370  -13.9560   20.4940 C   0  0  0  0  0  0  0  0  0  0  0  0
  -24.4050  -13.1610   20.9020 C   0  0  0  0  0  0  0  0  0  0  0  0
  -24.8520  -11.8130   20.7360 C   0  0  0  0  0  0  0  0  0  0  0  0
  -26.4430  -13.0970   20.0940 N   0  0  0  0  0  0  0  0  0  0  0  0
  -26.1120  -11.7960   20.3060 N   0  0  0  0  0  0  0  0  0  0  0  0
  -24.1260  -10.5460   20.9050 C   0  0  0  0  0  0  0  0  0  0  0  0
  -24.5820   -9.5410   21.7860 C   0  0  0  0  0  3  0  0  0  0  0  0
  -23.8520   -8.3430   21.9470 C   0  0  0  0  0  3  0  0  0  0  0  0
  -22.6500   -8.1410   21.2260 C   0  0  0  0  0  0  0  0  0  0  0  0
  -22.2120   -9.1350   20.3320 C   0  0  0  0  0  3  0  0  0  0  0  0
  -22.9450  -10.3240   20.1700 C   0  0  0  0  0  3  0  0  0  0  0  0
  -21.8890   -7.0000   21.2980 O   0  0  0  0  0  0  0  0  0  0  0  0
  -21.8210   -6.2520   22.4460 C   0  0  0  0  0  0  0  0  0  0  0  0
  -21.3800   -6.8030   23.6700 C   0  0  0  0  0  3  0  0  0  0  0  0
  -21.2580   -5.9830   24.8090 C   0  0  0  0  0  3  0  0  0  0  0  0
  -21.5670   -4.6110   24.7260 C   0  0  0  0  0  0  0  0  0  0  0  0
  -22.0010   -4.0600   23.5070 C   0  0  0  0  0  3  0  0  0  0  0  0
  -22.1230   -4.8770   22.3700 C   0  0  0  0  0  0  0  0  0  0  0  0
  -22.5210   -4.3360   21.1940 F   0  0  0  0  0  0  0  0  0  0  0  0
  -21.4420   -3.8210   25.8170 F   0  0  0  0  0  0  0  0  0  0  0  0
  -23.0420  -13.6280   21.3240 C   0  0  0  0  0  0  0  0  0  0  0  0
  -22.3940  -12.8990   22.2240 N   0  0  0  0  0  0  0  0  0  0  0  0
  -22.5660  -14.6760   20.8900 O   0  0  0  0  0  0  0  0  0  0  0  0
  -22.7960  -12.0510   22.5960 H   0  0  0  0  0  0  0  0  0  0  0  0
  -21.4840  -13.1940   22.5490 H   0  0  0  0  0  0  0  0  0  0  0  0
  -25.5980  -15.3360   20.4010 N   0  0  0  0  0  0  0  0  0  0  0  0
  -24.8470  -15.9790   20.6280 H   0  0  0  0  0  0  0  0  0  0  0  0
  -26.4180  -15.7990   20.0320 H   0  0  0  0  0  0  0  0  0  0  0  0
  -30.6890  -17.1590   22.7640 C   0  0  0  0  0  1  0  0  0  0  0  0
  -29.4210  -17.1670   21.8900 C   0  0  0  0  0  2  0  0  0  0  0  0
  1  2  2  0
  1  3  1  0
  2  4  1  0
  3  8  1  0
  3  5  1  0
  4 50  1  0
  4  5  1  0
  5  6  1  0
  5  7  1  0
  9  8  1  0
 10 21  2  0
 11  9  1  0
 11 16  1  0
 12 20  1  0
 12 22  1  0
 13 19  1  0
 13 15  1  0
 14 20  1  0
 15 16  2  0
 15 14  1  0
 17 11  2  0
 18 17  1  0
 18 13  2  0
 19 12  1  0
 20 10  1  0
 22 24  2  0
 23 22  1  0
 25 23  1  0
 26 35  2  0
 26 31  1  0
 27 23  1  0
 27 31  1  0
 28 27  1  0
 29 30  1  0
 29 28  1  0
 30 26  1  0
 31 32  2  0
 32 33  1  0
 34 33  2  0
 35 34  1  0
 36 10  1  0
 36 41  1  0
 36 37  1  0
 37 40  1  1
 37 38  1  0
 39 37  1  0
 41 44  1  0
 42 46  1  0
 42 41  1  0
 43 42  2  0
 46 45  1  0
 48 46  1  0
 48 49  1  0
 48 47  1  0
 50 88  1  0
 51 50  1  0
 52 57  1  0
 53 54  1  0
 53 52  1  0
 55 54  1  0
 55 62  1  0
 55 56  1  0
 57 51  1  0
 57 56  1  0
 58 51  2  0
 59 60  2  0
 60 79  1  0
 61 60  1  0
 61 64  1  0
 62 63  1  0
 62 59  1  0
 63 61  2  0
 64 65  1  0
 65 66  2  0
 67 70  1  0
 67 66  1  0
 68 67  2  0
 69 68  1  0
 69 64  2  0
 70 71  1  0
 71 72  1  0
 72 73  2  0
 74 73  1  0
 74 78  1  0
 75 74  2  0
 76 71  2  0
 76 75  1  0
 77 76  1  0
 79 80  1  0
 80 83  1  0
 80 82  1  0
 81 79  2  0
 84 59  1  0
 84 85  1  0
 86 84  1  0
 88 87  1  0
M  ISO  4   8 101   9 101  50 100  51 100
M  END
>  <TORSDO>  (20) 
F 19

>  <SCORE>  (20) 
-15.129

>  <name>  (20) 
19

>  <ligand_id>  (20) 
19

>  <original_smiles>  (20) 
[H]C1=C([H])C([H])(C([H])(C(=O)N2C([H])([H])C([H])([H])C([H])([H])C([H])(n3nc(-c4c([H])c([H])c(Oc5c([H])c([H])c(F)c([H])c5F)c([H])c4[H])c(C(=O)N([H])[H])c3N([H])[H])C2([H])[H])C([H])([H])C([H])([H])[H])[N+]([H])([H])C1([H])C([H])([H])Oc1c([H])c([H])c2c(c1[H])C([H])([H])N(C(=O)C([H])(N([H])C(=O)C([H])(N([H])C([H])([H])[H])C([H])([H])[H])C(C([H])([H])[H])(C([H])([H])[H])C([H])([H])[H])C([H])(C(=O)N([H])C1([H])c3c([H])c([H])c([H])c([H])c3C([H])([H])C([H])([H])C1([H])[H])C2([H])[H]

>  <smiles>  (20) 
[H]C1=C([H])C([H])(C([H])(C(=O)N2C([H])([H])C([H])([H])C([H])([H])C([H])(n3nc(-c4c([H])c([H])c(Oc5c([H])c([H])c(F)c([H])c5F)c([H])c4[H])c(C(=O)N([H])[H])c3N([H])[H])C2([H])[H])C([H])([H])C([H])([H])[H])[N+]([H])([H])C1([H])C([H])([H])Oc1c([H])c([H])c2c(c1[H])C([H])([H])N(C(=O)C([H])(N([H])C(=O)C([H])(N([H])C([H])([H])[H])C([H])([H])[H])C(C([H])([H])[H])(C([H])([H])[H])C([H])([H])[H])C([H])(C(=O)N([H])C1([H])c3c([H])c([H])c([H])c([H])c3C([H])([H])C([H])([H])C1([H])[H])C2([H])[H]

$$$$
20:0:0
     RDKit          3D

 89 97  0  0  1  0  0  0  0  0999 V2000
  -29.8250  -22.2760   21.2200 C   0  0  0  0  0  2  0  0  0  0  0  0
  -29.9580  -20.6800   21.4630 C   0  0  0  0  0  2  0  0  0  0  0  0
  -28.5730  -21.1750   19.6430 C   0  0  0  0  0  2  0  0  0  0  0  0
  -28.5150  -22.6760   20.4680 C   0  0  0  0  0  3  0  0  0  0  0  0
  -29.1440  -19.7750   20.4540 C   0  0  0  0  0  3  0  0  0  0  0  0
  -28.1890  -24.3470   19.8450 C   0  0  0  0  0  2  0  0  0  0  0  0
  -28.1970  -25.9130   20.3630 O   0  0  0  0  0  0  0  0  0  0  0  0
  -24.6240  -31.8840   23.2280 C   0  0  0  0  0  0  0  0  0  0  0  0
  -27.1880  -27.0030   20.2300 C   0  0  0  0  0  0  0  0  0  0  0  0
  -23.4340  -30.4820   21.5920 C   0  0  0  0  0  3  0  0  0  0  0  0
  -24.8850  -28.8780   20.1710 C   0  0  0  0  0  0  0  0  0  0  0  0
  -26.0000  -30.6960   21.4500 C   0  0  0  0  0  2  0  0  0  0  0  0
  -26.0700  -29.2860   20.7980 C   0  0  0  0  0  0  0  0  0  0  0  0
  -27.2090  -28.3650   20.8090 C   0  0  0  0  0  3  0  0  0  0  0  0
  -25.9790  -26.7540   19.5380 C   0  0  0  0  0  3  0  0  0  0  0  0
  -24.8660  -27.6340   19.5200 C   0  0  0  0  0  3  0  0  0  0  0  0
  -23.6640  -29.7960   20.2180 C   0  0  0  0  0  2  0  0  0  0  0  0
  -24.7070  -31.0490   22.1440 N   0  0  0  0  0  0  0  0  0  0  0  0
  -23.5340  -32.1730   23.7480 O   0  0  0  0  0  0  0  0  0  0  0  0
  -22.7420  -29.4880   22.5600 C   0  0  0  0  0  0  0  0  0  0  0  0
  -21.4110  -29.3200   22.4360 N   0  0  0  0  0  0  0  0  0  0  0  0
  -23.4080  -28.8660   23.3920 O   0  0  0  0  0  0  0  0  0  0  0  0
  -20.9250  -29.8730   21.7450 H   0  0  0  0  0  0  0  0  0  0  0  0
  -18.0310  -28.1080   22.9500 C   0  0  0  0  0  0  0  0  0  0  0  0
  -20.5900  -28.3840   23.2120 C   0  0  0  0  0  3  0  0  0  0  0  0
  -20.6950  -26.9490   22.6430 C   0  0  0  0  0  2  0  0  0  0  0  0
  -19.5930  -26.6200   21.6300 C   0  0  0  0  0  2  0  0  0  0  0  0
  -18.2120  -26.7600   22.2740 C   0  0  0  0  0  2  0  0  0  0  0  0
  -19.1460  -28.8780   23.3760 C   0  0  0  0  0  0  0  0  0  0  0  0
  -18.9200  -30.1370   23.9720 C   0  0  0  0  0  3  0  0  0  0  0  0
  -17.6120  -30.6300   24.1420 C   0  0  0  0  0  3  0  0  0  0  0  0
  -16.5110  -29.8590   23.7300 C   0  0  0  0  0  3  0  0  0  0  0  0
  -16.7220  -28.5990   23.1410 C   0  0  0  0  0  3  0  0  0  0  0  0
  -25.8940  -32.5330   23.8590 C   0  0  0  0  0  3  0  0  0  0  0  0
  -26.3930  -31.7810   25.1550 C   0  0  1  0  0  0  0  0  0  0  0  0
  -25.2870  -31.5630   26.2140 C   0  0  0  0  0  1  0  0  0  0  0  0
  -26.9780  -30.3950   24.8010 C   0  0  0  0  0  1  0  0  0  0  0  0
  -27.5370  -32.5820   25.8180 C   0  0  0  0  0  1  0  0  0  0  0  0
  -25.5760  -33.9350   24.1800 N   0  0  0  0  0  0  0  0  0  0  0  0
  -25.9100  -34.9910   23.4240 C   0  0  0  0  0  0  0  0  0  0  0  0
  -26.5780  -34.8840   22.3930 O   0  0  0  0  0  0  0  0  0  0  0  0
  -24.9810  -34.0910   24.9810 H   0  0  0  0  0  0  0  0  0  0  0  0
  -24.1830  -36.7920   23.0780 C   0  0  0  0  0  1  0  0  0  0  0  0
  -25.4270  -36.3830   23.8830 C   0  0  0  0  0  3  0  0  0  0  0  0
  -27.5640  -37.2720   24.7060 C   0  0  0  0  0  1  0  0  0  0  0  0
  -26.4600  -37.4350   23.7620 N   0  0  0  0  0  0  0  0  0  0  0  0
  -26.0550  -38.3550   23.9060 H   0  0  0  0  0  0  0  0  0  0  0  0
  -29.8540  -18.2240   19.8310 C   0  0  0  0  0  0  0  0  0  0  0  0
  -30.4800  -15.3380   20.1500 C   0  0  0  0  0  0  0  0  0  0  0  0
  -30.4340  -12.8980   19.2730 C   0  0  0  0  0  2  0  0  0  0  0  0
  -29.5040  -12.7210   18.0470 C   0  0  0  0  0  2  0  0  0  0  0  0
  -28.0580  -12.4490   18.4960 C   0  0  0  0  0  2  0  0  0  0  0  0
  -27.6220  -13.3920   19.6450 C   0  0  0  0  0  3  0  0  0  0  0  0
  -28.6830  -13.5280   20.7600 C   0  0  0  0  0  2  0  0  0  0  0  0
  -29.9090  -14.0320   20.1220 N   0  0  0  0  0  0  0  0  0  0  0  0
  -31.6850  -15.3260   19.8600 O   0  0  0  0  0  0  0  0  0  0  0  0
  -29.7330  -16.6150   20.2990 N   0  0  0  0  0  4  0  0  0  0  0  0
  -28.7950  -16.4130   20.6140 H   0  0  0  0  0  0  0  0  0  0  0  0
  -25.2520  -13.9260   20.4150 C   0  0  0  0  0  0  0  0  0  0  0  0
  -24.2020  -13.1390   20.7970 C   0  0  0  0  0  0  0  0  0  0  0  0
  -24.6830  -11.7930   20.7670 C   0  0  0  0  0  0  0  0  0  0  0  0
  -26.3020  -13.0610   20.1660 N   0  0  0  0  0  0  0  0  0  0  0  0
  -25.9720  -11.7720   20.4460 N   0  0  0  0  0  0  0  0  0  0  0  0
  -23.9700  -10.5240   20.9670 C   0  0  0  0  0  0  0  0  0  0  0  0
  -24.4090   -9.5700   21.9110 C   0  0  0  0  0  3  0  0  0  0  0  0
  -23.6930   -8.3680   22.1010 C   0  0  0  0  0  3  0  0  0  0  0  0
  -22.5230   -8.1110   21.3470 C   0  0  0  0  0  0  0  0  0  0  0  0
  -22.1030   -9.0550   20.3920 C   0  0  0  0  0  3  0  0  0  0  0  0
  -22.8200  -10.2480   20.2010 C   0  0  0  0  0  3  0  0  0  0  0  0
  -21.7790   -6.9610   21.4440 O   0  0  0  0  0  0  0  0  0  0  0  0
  -21.7280   -6.2330   22.6050 C   0  0  0  0  0  0  0  0  0  0  0  0
  -21.2730   -6.7950   23.8180 C   0  0  0  0  0  3  0  0  0  0  0  0
  -21.1700   -5.9930   24.9720 C   0  0  0  0  0  3  0  0  0  0  0  0
  -21.5130   -4.6280   24.9150 C   0  0  0  0  0  0  0  0  0  0  0  0
  -21.9600   -4.0640   23.7070 C   0  0  0  0  0  3  0  0  0  0  0  0
  -22.0650   -4.8640   22.5550 C   0  0  0  0  0  0  0  0  0  0  0  0
  -22.4760   -4.3120   21.3890 F   0  0  0  0  0  0  0  0  0  0  0  0
  -21.4080   -3.8550   26.0210 F   0  0  0  0  0  0  0  0  0  0  0  0
  -22.8020  -13.6020   21.0740 C   0  0  0  0  0  0  0  0  0  0  0  0
  -22.0850  -12.9010   21.9460 N   0  0  0  0  0  0  0  0  0  0  0  0
  -22.3530  -14.6220   20.5520 O   0  0  0  0  0  0  0  0  0  0  0  0
  -22.4610  -12.0770   22.3890 H   0  0  0  0  0  0  0  0  0  0  0  0
  -21.1450  -13.1950   22.1720 H   0  0  0  0  0  0  0  0  0  0  0  0
  -25.3960  -15.2990   20.2280 N   0  0  0  0  0  0  0  0  0  0  0  0
  -24.6200  -15.9420   20.3380 H   0  0  0  0  0  0  0  0  0  0  0  0
  -26.2240  -15.7430   19.8530 H   0  0  0  0  0  0  0  0  0  0  0  0
  -31.3180  -18.4700   19.3820 C   0  0  0  0  0  2  0  0  0  0  0  0
  -33.0010  -19.7870   17.9780 C   0  0  0  0  0  1  0  0  0  0  0  0
  -31.5510  -19.6880   18.4700 C   0  0  0  0  0  2  0  0  0  0  0  0
  1  2  1  0
  3  5  1  0
  3  4  1  0
  4  6  1  0
  4  1  1  0
  5 48  1  0
  5  2  1  0
  6  7  1  0
  8 19  2  0
  9  7  1  0
  9 14  1  0
 10 18  1  0
 10 20  1  0
 11 17  1  0
 11 13  1  0
 12 18  1  0
 13 14  2  0
 13 12  1  0
 15  9  2  0
 16 15  1  0
 16 11  2  0
 17 10  1  0
 18  8  1  0
 20 22  2  0
 21 20  1  0
 23 21  1  0
 24 33  2  0
 24 29  1  0
 25 21  1  0
 25 29  1  0
 26 25  1  0
 27 28  1  0
 27 26  1  0
 28 24  1  0
 29 30  2  0
 30 31  1  0
 32 31  2  0
 33 32  1  0
 34  8  1  0
 34 39  1  0
 34 35  1  0
 35 38  1  1
 35 36  1  0
 37 35  1  0
 39 42  1  0
 40 44  1  0
 40 39  1  0
 41 40  2  0
 44 43  1  0
 46 44  1  0
 46 47  1  0
 46 45  1  0
 48 57  2  0
 49 57  1  0
 50 55  1  0
 51 52  1  0
 51 50  1  0
 53 52  1  0
 53 62  1  0
 53 54  1  0
 55 49  1  0
 55 54  1  0
 56 49  2  0
 57 58  1  0
 59 60  2  0
 60 79  1  0
 61 60  1  0
 61 64  1  0
 62 59  1  0
 62 63  1  0
 63 61  2  0
 64 65  1  0
 65 66  2  0
 67 70  1  0
 67 66  1  0
 68 67  2  0
 69 68  1  0
 69 64  2  0
 70 71  1  0
 71 72  1  0
 72 73  2  0
 74 73  1  0
 74 78  1  0
 75 74  2  0
 76 71  2  0
 76 75  1  0
 77 76  1  0
 79 80  1  0
 80 83  1  0
 80 82  1  0
 81 79  2  0
 84 85  1  0
 84 59  1  0
 86 84  1  0
 87 48  1  0
 88 89  1  0
 89 87  1  0
M  ISO  4   6 101   7 101  49 100  57 100
M  END
>  <TORSDO>  (21) 
F 20

>  <SCORE>  (21) 
-15.462

>  <name>  (21) 
20

>  <ligand_id>  (21) 
20

>  <original_smiles>  (21) 
[H]c1c([H])c([H])c2c(c1[H])C([H])([H])C([H])([H])C([H])([H])C2([H])N([H])C(=O)C1([H])N(C(=O)C([H])(N([H])C(=O)C([H])(N([H])C([H])([H])[H])C([H])([H])[H])C(C([H])([H])[H])(C([H])([H])[H])C([H])([H])[H])C([H])([H])c2c([H])c(OC([H])([H])C3([H])C([H])([H])C([H])([H])C([H])(C([H])(N([H])C(=O)N4C([H])([H])C([H])([H])C([H])([H])C([H])(n5nc(-c6c([H])c([H])c(Oc7c([H])c([H])c(F)c([H])c7F)c([H])c6[H])c(C(=O)N([H])[H])c5N([H])[H])C4([H])[H])C([H])([H])C([H])([H])C([H])([H])[H])C3([H])[H])c([H])c([H])c2C1([H])[H]

>  <smiles>  (21) 
[H]c1c([H])c([H])c2c(c1[H])C([H])([H])C([H])([H])C([H])([H])C2([H])N([H])C(=O)C1([H])N(C(=O)C([H])(N([H])C(=O)C([H])(N([H])C([H])([H])[H])C([H])([H])[H])C(C([H])([H])[H])(C([H])([H])[H])C([H])([H])[H])C([H])([H])c2c([H])c(OC([H])([H])C3([H])C([H])([H])C([H])([H])C([H])(C([H])(N([H])C(=O)N4C([H])([H])C([H])([H])C([H])([H])C([H])(n5nc(-c6c([H])c([H])c(Oc7c([H])c([H])c(F)c([H])c7F)c([H])c6[H])c(C(=O)N([H])[H])c5N([H])[H])C4([H])[H])C([H])([H])C([H])([H])C([H])([H])[H])C3([H])[H])c([H])c([H])c2C1([H])[H]

$$$$
21:0:0
     RDKit          3D

 91 99  0  0  1  0  0  0  0  0999 V2000
  -29.7730  -21.4560   21.5930 C   0  0  0  0  0  3  0  0  0  0  0  0
  -28.8140  -21.3340   19.4270 C   0  0  0  0  0  3  0  0  0  0  0  0
  -30.0460  -20.0440   21.5630 C   0  0  0  0  0  3  0  0  0  0  0  0
  -29.0780  -19.9080   19.4020 C   0  0  0  0  0  3  0  0  0  0  0  0
  -29.1860  -22.1860   20.5130 C   0  0  0  0  0  0  0  0  0  0  0  0
  -29.7550  -19.1970   20.4510 C   0  0  0  0  0  0  0  0  0  0  0  0
  -29.2260  -23.8110   20.5000 C   0  0  0  0  0  3  0  0  0  0  0  0
  -28.0210  -24.8610   20.1700 C   0  0  0  0  0  3  0  0  0  0  0  0
  -28.2510  -26.3640   20.2710 O   0  0  0  0  0  0  0  0  0  0  0  0
  -24.5930  -31.9220   23.2480 C   0  0  0  0  0  0  0  0  0  0  0  0
  -27.1620  -27.2780   20.2060 C   0  0  0  0  0  0  0  0  0  0  0  0
  -23.3810  -30.5300   21.6100 C   0  0  0  0  0  3  0  0  0  0  0  0
  -24.8220  -28.9640   20.1820 C   0  0  0  0  0  0  0  0  0  0  0  0
  -25.9290  -30.8160   21.4300 C   0  0  0  0  0  2  0  0  0  0  0  0
  -25.9990  -29.4300   20.7800 C   0  0  0  0  0  0  0  0  0  0  0  0
  -27.1730  -28.6020   20.7740 C   0  0  0  0  0  3  0  0  0  0  0  0
  -25.9600  -26.8870   19.5770 C   0  0  0  0  0  3  0  0  0  0  0  0
  -24.8100  -27.7030   19.5660 C   0  0  0  0  0  3  0  0  0  0  0  0
  -23.5930  -29.8540   20.2310 C   0  0  0  0  0  2  0  0  0  0  0  0
  -24.6540  -31.1090   22.1510 N   0  0  0  0  0  0  0  0  0  0  0  0
  -23.5100  -32.2070   23.7810 O   0  0  0  0  0  0  0  0  0  0  0  0
  -22.7100  -29.5210   22.5730 C   0  0  0  0  0  0  0  0  0  0  0  0
  -21.3840  -29.3440   22.4390 N   0  0  0  0  0  0  0  0  0  0  0  0
  -23.3810  -28.9000   23.4010 O   0  0  0  0  0  0  0  0  0  0  0  0
  -20.9010  -29.8950   21.7430 H   0  0  0  0  0  0  0  0  0  0  0  0
  -18.0040  -28.1430   22.9250 C   0  0  0  0  0  0  0  0  0  0  0  0
  -20.5590  -28.4100   23.2090 C   0  0  0  0  0  3  0  0  0  0  0  0
  -20.6680  -26.9750   22.6420 C   0  0  0  0  0  2  0  0  0  0  0  0
  -19.5730  -26.6450   21.6220 C   0  0  0  0  0  2  0  0  0  0  0  0
  -18.1870  -26.7900   22.2560 C   0  0  0  0  0  2  0  0  0  0  0  0
  -19.1180  -28.9090   23.3580 C   0  0  0  0  0  0  0  0  0  0  0  0
  -18.8920  -30.1740   23.9440 C   0  0  0  0  0  3  0  0  0  0  0  0
  -17.5840  -30.6730   24.0990 C   0  0  0  0  0  3  0  0  0  0  0  0
  -16.4850  -29.9030   23.6810 C   0  0  0  0  0  3  0  0  0  0  0  0
  -16.6950  -28.6400   23.1020 C   0  0  0  0  0  3  0  0  0  0  0  0
  -25.8760  -32.5510   23.8710 C   0  0  0  0  0  3  0  0  0  0  0  0
  -25.5700  -33.9480   24.2110 N   0  0  0  0  0  0  0  0  0  0  0  0
  -25.8840  -35.0060   23.4500 C   0  0  0  0  0  0  0  0  0  0  0  0
  -26.5310  -34.9070   22.4040 O   0  0  0  0  0  0  0  0  0  0  0  0
  -24.9910  -34.0990   25.0240 H   0  0  0  0  0  0  0  0  0  0  0  0
  -24.1350  -36.7900   23.1540 C   0  0  0  0  0  1  0  0  0  0  0  0
  -25.4050  -36.3920   23.9240 C   0  0  0  0  0  3  0  0  0  0  0  0
  -27.5600  -37.2870   24.6850 C   0  0  0  0  0  1  0  0  0  0  0  0
  -26.4270  -37.4510   23.7780 N   0  0  0  0  0  0  0  0  0  0  0  0
  -26.0210  -38.3690   23.9390 H   0  0  0  0  0  0  0  0  0  0  0  0
  -26.3910  -31.7740   25.1450 C   0  0  1  0  0  0  0  0  0  0  0  0
  -25.2990  -31.5370   26.2130 C   0  0  0  0  0  1  0  0  0  0  0  0
  -26.9690  -30.3950   24.7500 C   0  0  0  0  0  1  0  0  0  0  0  0
  -27.5450  -32.5620   25.8090 C   0  0  0  0  0  1  0  0  0  0  0  0
  -30.4240  -17.7180   20.3070 C   0  0  0  0  0  3  0  0  0  0  0  0
  -31.1930  -17.6970   19.0490 N   0  0  0  0  0  4  0  0  0  0  0  0
  -30.5860  -17.6720   18.2510 H   0  0  0  0  0  0  0  0  0  0  0  0
  -31.7910  -16.8870   19.0370 H   0  0  0  0  0  0  0  0  0  0  0  0
  -31.7670  -18.5190   18.9900 H   0  0  0  0  0  0  0  0  0  0  0  0
  -29.7150  -16.2590   20.5850 C   0  0  0  0  0  2  0  0  0  0  0  0
  -30.5260  -14.8670   20.3180 C   0  0  0  0  0  0  0  0  0  0  0  0
  -30.3610  -12.5720   19.3110 C   0  0  0  0  0  2  0  0  0  0  0  0
  -29.4170  -12.6450   18.0880 C   0  0  0  0  0  2  0  0  0  0  0  0
  -27.9510  -12.4510   18.5190 C   0  0  0  0  0  2  0  0  0  0  0  0
  -27.5740  -13.3260   19.7440 C   0  0  0  0  0  3  0  0  0  0  0  0
  -28.6380  -13.2530   20.8580 C   0  0  0  0  0  2  0  0  0  0  0  0
  -29.9320  -13.6200   20.2720 N   0  0  0  0  0  0  0  0  0  0  0  0
  -31.7070  -14.9590   19.9640 O   0  0  0  0  0  0  0  0  0  0  0  0
  -25.1910  -13.8960   20.4950 C   0  0  0  0  0  0  0  0  0  0  0  0
  -24.1320  -13.1140   20.8690 C   0  0  0  0  0  0  0  0  0  0  0  0
  -24.6040  -11.7660   20.8330 C   0  0  0  0  0  0  0  0  0  0  0  0
  -26.2370  -13.0240   20.2450 N   0  0  0  0  0  0  0  0  0  0  0  0
  -25.8930  -11.7380   20.5130 N   0  0  0  0  0  0  0  0  0  0  0  0
  -23.8850  -10.4990   21.0250 C   0  0  0  0  0  0  0  0  0  0  0  0
  -24.3230   -9.5360   21.9600 C   0  0  0  0  0  3  0  0  0  0  0  0
  -23.6040   -8.3340   22.1410 C   0  0  0  0  0  3  0  0  0  0  0  0
  -22.4340   -8.0870   21.3840 C   0  0  0  0  0  0  0  0  0  0  0  0
  -22.0150   -9.0400   20.4370 C   0  0  0  0  0  3  0  0  0  0  0  0
  -22.7350  -10.2330   20.2560 C   0  0  0  0  0  3  0  0  0  0  0  0
  -21.6860   -6.9380   21.4730 O   0  0  0  0  0  0  0  0  0  0  0  0
  -21.6320   -6.2030   22.6290 C   0  0  0  0  0  0  0  0  0  0  0  0
  -21.1840   -6.7620   23.8450 C   0  0  0  0  0  3  0  0  0  0  0  0
  -21.0770   -5.9520   24.9950 C   0  0  0  0  0  3  0  0  0  0  0  0
  -21.4060   -4.5850   24.9270 C   0  0  0  0  0  0  0  0  0  0  0  0
  -21.8480   -4.0260   23.7150 C   0  0  0  0  0  3  0  0  0  0  0  0
  -21.9570   -4.8330   22.5690 C   0  0  0  0  0  0  0  0  0  0  0  0
  -22.3620   -4.2840   21.3980 F   0  0  0  0  0  0  0  0  0  0  0  0
  -21.2970   -3.8060   26.0290 F   0  0  0  0  0  0  0  0  0  0  0  0
  -22.7340  -13.5820   21.1500 C   0  0  0  0  0  0  0  0  0  0  0  0
  -22.0160  -12.8820   22.0210 N   0  0  0  0  0  0  0  0  0  0  0  0
  -22.2880  -14.6060   20.6340 O   0  0  0  0  0  0  0  0  0  0  0  0
  -22.3930  -12.0550   22.4600 H   0  0  0  0  0  0  0  0  0  0  0  0
  -21.0790  -13.1770   22.2510 H   0  0  0  0  0  0  0  0  0  0  0  0
  -25.3480  -15.2680   20.3230 N   0  0  0  0  0  0  0  0  0  0  0  0
  -24.5810  -15.9200   20.4460 H   0  0  0  0  0  0  0  0  0  0  0  0
  -26.1950  -15.7140   19.9950 H   0  0  0  0  0  0  0  0  0  0  0  0
  2  5  1  0
  3  1  1  0
  4  2  2  0
  4  6  1  0
  5  1  2  0
  6  3  2  0
  7  5  1  0
  8  9  1  0
  8  7  2  0
 10 21  2  0
 11  9  1  0
 11 16  1  0
 12 20  1  0
 12 22  1  0
 13 19  1  0
 13 15  1  0
 14 20  1  0
 15 14  1  0
 16 15  2  0
 17 11  2  0
 18 17  1  0
 18 13  2  0
 19 12  1  0
 20 10  1  0
 22 24  2  0
 23 22  1  0
 25 23  1  0
 26 35  2  0
 26 31  1  0
 27 23  1  0
 27 31  1  0
 28 27  1  0
 29 30  1  0
 29 28  1  0
 30 26  1  0
 31 32  2  0
 32 33  1  0
 34 33  2  0
 35 34  1  0
 36 10  1  0
 36 37  1  0
 36 46  1  0
 37 40  1  0
 38 42  1  0
 38 37  1  0
 39 38  2  0
 42 41  1  0
 44 42  1  0
 44 45  1  0
 44 43  1  0
 46 49  1  1
 46 47  1  0
 48 46  1  0
 50  6  1  0
 50 55  1  0
 51 50  1  0
 52 51  1  0
 53 51  1  0
 54 51  1  0
 56 55  1  0
 57 62  1  0
 58 59  1  0
 58 57  1  0
 60 59  1  0
 60 67  1  0
 60 61  1  0
 62 56  1  0
 62 61  1  0
 63 56  2  0
 64 65  2  0
 65 84  1  0
 66 65  1  0
 66 69  1  0
 67 64  1  0
 67 68  1  0
 68 66  2  0
 69 70  1  0
 70 71  2  0
 72 75  1  0
 72 71  1  0
 73 72  2  0
 74 73  1  0
 74 69  2  0
 75 76  1  0
 76 77  1  0
 77 78  2  0
 79 78  1  0
 79 83  1  0
 80 79  2  0
 81 76  2  0
 81 80  1  0
 82 81  1  0
 84 85  1  0
 85 88  1  0
 85 87  1  0
 86 84  2  0
 89 90  1  0
 89 64  1  0
 91 89  1  0
M  ISO  4   8 101   9 101  55 100  56 100
M  END
>  <TORSDO>  (22) 
F 21

>  <SCORE>  (22) 
-13.609

>  <name>  (22) 
21

>  <ligand_id>  (22) 
21

>  <original_smiles>  (22) 
[H]c1c([H])c([H])c2c(c1[H])C([H])([H])C([H])([H])C([H])([H])C2([H])N([H])C(=O)C1([H])N(C(=O)C([H])(N([H])C(=O)C([H])(N([H])C([H])([H])[H])C([H])([H])[H])C(C([H])([H])[H])(C([H])([H])[H])C([H])([H])[H])C([H])([H])c2c([H])c(OC([H])([H])C([H])([H])c3c([H])c([H])c(C([H])(C([H])([H])C(=O)N4C([H])([H])C([H])([H])C([H])([H])C([H])(n5nc(-c6c([H])c([H])c(Oc7c([H])c([H])c(F)c([H])c7F)c([H])c6[H])c(C(=O)N([H])[H])c5N([H])[H])C4([H])[H])[N+]([H])([H])[H])c([H])c3[H])c([H])c([H])c2C1([H])[H]

>  <smiles>  (22) 
[H]c1c([H])c([H])c2c(c1[H])C([H])([H])C([H])([H])C([H])([H])C2([H])N([H])C(=O)C1([H])N(C(=O)C([H])(N([H])C(=O)C([H])(N([H])C([H])([H])[H])C([H])([H])[H])C(C([H])([H])[H])(C([H])([H])[H])C([H])([H])[H])C([H])([H])c2c([H])c(OC([H])([H])C([H])([H])c3c([H])c([H])c(C([H])(C([H])([H])C(=O)N4C([H])([H])C([H])([H])C([H])([H])C([H])(n5nc(-c6c([H])c([H])c(Oc7c([H])c([H])c(F)c([H])c7F)c([H])c6[H])c(C(=O)N([H])[H])c5N([H])[H])C4([H])[H])[N+]([H])([H])[H])c([H])c3[H])c([H])c([H])c2C1([H])[H]

$$$$
22:0:0
     RDKit          3D

 91 99  0  0  1  0  0  0  0  0999 V2000
  -28.9320  -22.1900   19.1560 C   0  0  0  0  0  3  0  0  0  0  0  0
  -28.6230  -22.2280   21.4470 C   0  0  0  0  0  3  0  0  0  0  0  0
  -28.7010  -23.6540   19.1200 C   0  0  0  0  0  3  0  0  0  0  0  0
  -28.3830  -23.6830   21.4090 C   0  0  0  0  0  3  0  0  0  0  0  0
  -28.9230  -21.3420   20.3340 C   0  0  0  0  0  0  0  0  0  0  0  0
  -28.3850  -24.5330   20.2380 C   0  0  0  0  0  0  0  0  0  0  0  0
  -28.3540  -26.0440   20.2210 O   0  0  0  0  0  0  0  0  0  0  0  0
  -24.6310  -31.8210   23.1610 C   0  0  0  0  0  0  0  0  0  0  0  0
  -27.2610  -27.0210   20.2020 C   0  0  0  0  0  0  0  0  0  0  0  0
  -23.4570  -30.4010   21.5230 C   0  0  0  0  0  3  0  0  0  0  0  0
  -24.9270  -28.8040   20.1270 C   0  0  0  0  0  0  0  0  0  0  0  0
  -26.0140  -30.6590   21.3840 C   0  0  0  0  0  2  0  0  0  0  0  0
  -26.1000  -29.2500   20.7490 C   0  0  0  0  0  0  0  0  0  0  0  0
  -27.2620  -28.3750   20.7650 C   0  0  0  0  0  3  0  0  0  0  0  0
  -26.0600  -26.6940   19.5380 C   0  0  0  0  0  3  0  0  0  0  0  0
  -24.9240  -27.5430   19.5060 C   0  0  0  0  0  3  0  0  0  0  0  0
  -23.6970  -29.7070   20.1540 C   0  0  0  0  0  2  0  0  0  0  0  0
  -24.7210  -30.9870   22.0760 N   0  0  0  0  0  0  0  0  0  0  0  0
  -23.5380  -32.1040   23.6750 O   0  0  0  0  0  0  0  0  0  0  0  0
  -22.7710  -29.4040   22.4920 C   0  0  0  0  0  0  0  0  0  0  0  0
  -21.4450  -29.2230   22.3560 N   0  0  0  0  0  0  0  0  0  0  0  0
  -23.4380  -28.7950   23.3320 O   0  0  0  0  0  0  0  0  0  0  0  0
  -20.9620  -29.7650   21.6540 H   0  0  0  0  0  0  0  0  0  0  0  0
  -18.0760  -27.9670   22.8190 C   0  0  0  0  0  0  0  0  0  0  0  0
  -20.6250  -28.2850   23.1280 C   0  0  0  0  0  3  0  0  0  0  0  0
  -20.7650  -26.8440   22.5820 C   0  0  0  0  0  2  0  0  0  0  0  0
  -19.6880  -26.4830   21.5530 C   0  0  0  0  0  2  0  0  0  0  0  0
  -18.2920  -26.6120   22.1680 C   0  0  0  0  0  2  0  0  0  0  0  0
  -19.1720  -28.7590   23.2560 C   0  0  0  0  0  0  0  0  0  0  0  0
  -18.9160  -30.0260   23.8260 C   0  0  0  0  0  3  0  0  0  0  0  0
  -17.5970  -30.5000   23.9630 C   0  0  0  0  0  3  0  0  0  0  0  0
  -16.5170  -29.7060   23.5420 C   0  0  0  0  0  3  0  0  0  0  0  0
  -16.7570  -28.4430   22.9750 C   0  0  0  0  0  3  0  0  0  0  0  0
  -25.8960  -32.4750   23.7950 C   0  0  0  0  0  3  0  0  0  0  0  0
  -26.4150  -31.7080   25.0740 C   0  0  1  0  0  0  0  0  0  0  0  0
  -25.3190  -31.4560   26.1370 C   0  0  0  0  0  1  0  0  0  0  0  0
  -27.0170  -30.3380   24.6890 C   0  0  0  0  0  1  0  0  0  0  0  0
  -27.5520  -32.5150   25.7430 C   0  0  0  0  0  1  0  0  0  0  0  0
  -25.5610  -33.8670   24.1400 N   0  0  0  0  0  0  0  0  0  0  0  0
  -25.8800  -34.9380   23.4010 C   0  0  0  0  0  0  0  0  0  0  0  0
  -26.5520  -34.8580   22.3680 O   0  0  0  0  0  0  0  0  0  0  0  0
  -24.9670  -34.0020   24.9440 H   0  0  0  0  0  0  0  0  0  0  0  0
  -24.1280  -36.7160   23.0780 C   0  0  0  0  0  1  0  0  0  0  0  0
  -25.3760  -36.3140   23.8800 C   0  0  0  0  0  3  0  0  0  0  0  0
  -27.4990  -37.2200   24.7190 C   0  0  0  0  0  1  0  0  0  0  0  0
  -26.3940  -37.3840   23.7780 N   0  0  0  0  0  0  0  0  0  0  0  0
  -25.9750  -38.2960   23.9370 H   0  0  0  0  0  0  0  0  0  0  0  0
  -28.9390  -19.6280   20.4710 C   0  0  0  0  0  2  0  0  0  0  0  0
  -29.9600  -18.2890   19.9800 C   0  0  0  0  0  3  0  0  0  0  0  0
  -30.1070  -18.3490   18.5160 N   0  0  0  0  0  4  0  0  0  0  0  0
  -29.2510  -18.1010   18.0520 H   0  0  0  0  0  0  0  0  0  0  0  0
  -30.8360  -17.7310   18.2060 H   0  0  0  0  0  0  0  0  0  0  0  0
  -30.3570  -19.2790   18.2340 H   0  0  0  0  0  0  0  0  0  0  0  0
  -29.8410  -16.6420   22.0170 C   0  0  0  0  0  1  0  0  0  0  0  0
  -29.7720  -16.6050   20.4790 C   0  0  0  0  0  3  0  0  0  0  0  0
  -30.5570  -15.1460   19.9930 C   0  0  0  0  0  0  0  0  0  0  0  0
  -30.4220  -12.7920   18.9480 C   0  0  0  0  0  2  0  0  0  0  0  0
  -29.4110  -12.7560   17.7730 C   0  0  0  0  0  2  0  0  0  0  0  0
  -27.9770  -12.5150   18.2830 C   0  0  0  0  0  2  0  0  0  0  0  0
  -27.6440  -13.3920   19.5140 C   0  0  0  0  0  3  0  0  0  0  0  0
  -28.7650  -13.3660   20.5690 C   0  0  0  0  0  2  0  0  0  0  0  0
  -29.9910  -13.8520   19.9190 N   0  0  0  0  0  0  0  0  0  0  0  0
  -31.7240  -15.2000   19.5840 O   0  0  0  0  0  0  0  0  0  0  0  0
  -25.3200  -13.9580   20.4120 C   0  0  0  0  0  0  0  0  0  0  0  0
  -24.2750  -13.1800   20.8270 C   0  0  0  0  0  0  0  0  0  0  0  0
  -24.7300  -11.8290   20.7420 C   0  0  0  0  0  0  0  0  0  0  0  0
  -26.3410  -13.0820   20.0880 N   0  0  0  0  0  0  0  0  0  0  0  0
  -26.0010  -11.7930   20.3530 N   0  0  0  0  0  0  0  0  0  0  0  0
  -24.0070  -10.5660   20.9460 C   0  0  0  0  0  0  0  0  0  0  0  0
  -24.4540   -9.6000   21.8740 C   0  0  0  0  0  3  0  0  0  0  0  0
  -23.7290   -8.4040   22.0680 C   0  0  0  0  0  3  0  0  0  0  0  0
  -22.5420   -8.1670   21.3340 C   0  0  0  0  0  0  0  0  0  0  0  0
  -22.1140   -9.1210   20.3960 C   0  0  0  0  0  3  0  0  0  0  0  0
  -22.8400  -10.3090   20.2000 C   0  0  0  0  0  3  0  0  0  0  0  0
  -21.7860   -7.0230   21.4380 O   0  0  0  0  0  0  0  0  0  0  0  0
  -21.7150   -6.3120   22.6090 C   0  0  0  0  0  0  0  0  0  0  0  0
  -21.2640   -6.9000   23.8120 C   0  0  0  0  0  3  0  0  0  0  0  0
  -21.1400   -6.1150   24.9750 C   0  0  0  0  0  3  0  0  0  0  0  0
  -21.4560   -4.7430   24.9370 C   0  0  0  0  0  0  0  0  0  0  0  0
  -21.8990   -4.1550   23.7390 C   0  0  0  0  0  3  0  0  0  0  0  0
  -22.0250   -4.9380   22.5780 C   0  0  0  0  0  0  0  0  0  0  0  0
  -22.4330   -4.3610   21.4220 F   0  0  0  0  0  0  0  0  0  0  0  0
  -21.3290   -3.9870   26.0530 F   0  0  0  0  0  0  0  0  0  0  0  0
  -22.8990  -13.6600   21.1870 C   0  0  0  0  0  0  0  0  0  0  0  0
  -22.2220  -12.9580   22.0890 N   0  0  0  0  0  0  0  0  0  0  0  0
  -22.4370  -14.6920   20.7040 O   0  0  0  0  0  0  0  0  0  0  0  0
  -22.6100  -12.1210   22.4990 H   0  0  0  0  0  0  0  0  0  0  0  0
  -21.3030  -13.2630   22.3730 H   0  0  0  0  0  0  0  0  0  0  0  0
  -25.4800  -15.3310   20.2550 N   0  0  0  0  0  0  0  0  0  0  0  0
  -24.7190  -15.9830   20.4140 H   0  0  0  0  0  0  0  0  0  0  0  0
  -26.3090  -15.7760   19.8840 H   0  0  0  0  0  0  0  0  0  0  0  0
  1  5  1  0
  3  1  2  0
  3  6  1  0
  4  2  1  0
  5 48  1  0
  5  2  2  0
  6  4  2  0
  7  6  1  0
  8 19  2  0
  9  7  1  0
  9 14  1  0
 10 18  1  0
 10 20  1  0
 11 17  1  0
 11 13  1  0
 12 18  1  0
 13 14  2  0
 13 12  1  0
 15  9  2  0
 16 15  1  0
 16 11  2  0
 17 10  1  0
 18  8  1  0
 20 22  2  0
 21 20  1  0
 23 21  1  0
 24 33  2  0
 24 29  1  0
 25 21  1  0
 25 29  1  0
 26 25  1  0
 27 28  1  0
 27 26  1  0
 28 24  1  0
 29 30  2  0
 30 31  1  0
 32 31  2  0
 33 32  1  0
 34  8  1  0
 34 39  1  0
 34 35  1  0
 35 38  1  1
 35 36  1  0
 37 35  1  0
 39 42  1  0
 40 44  1  0
 40 39  1  0
 41 40  2  0
 44 43  1  0
 46 44  1  0
 46 47  1  0
 46 45  1  0
 49 48  1  0
 49 55  1  0
 50 49  1  0
 51 50  1  0
 52 50  1  0
 53 50  1  0
 55 54  1  0
 56 55  1  0
 57 62  1  0
 58 59  1  0
 58 57  1  0
 60 59  1  0
 60 67  1  0
 60 61  1  0
 62 56  1  0
 62 61  1  0
 63 56  2  0
 64 65  2  0
 65 84  1  0
 66 65  1  0
 66 69  1  0
 67 68  1  0
 67 64  1  0
 68 66  2  0
 69 70  1  0
 70 71  2  0
 72 75  1  0
 72 71  1  0
 73 72  2  0
 74 73  1  0
 74 69  2  0
 75 76  1  0
 76 77  1  0
 77 78  2  0
 79 78  1  0
 79 83  1  0
 80 79  2  0
 81 76  2  0
 81 80  1  0
 82 81  1  0
 84 85  1  0
 85 88  1  0
 85 87  1  0
 86 84  2  0
 89 64  1  0
 89 90  1  0
 91 89  1  0
M  ISO  4   6 101   7 101  55 100  56 100
M  END
>  <TORSDO>  (23) 
F 20

>  <SCORE>  (23) 
-15.705

>  <name>  (23) 
22

>  <ligand_id>  (23) 
22

>  <original_smiles>  (23) 
[H]c1c([H])c([H])c2c(c1[H])C([H])([H])C([H])([H])C([H])([H])C2([H])N([H])C(=O)C1([H])N(C(=O)C([H])(N([H])C(=O)C([H])(N([H])C([H])([H])[H])C([H])([H])[H])C(C([H])([H])[H])(C([H])([H])[H])C([H])([H])[H])C([H])([H])c2c([H])c(Oc3c([H])c([H])c(C([H])([H])C([H])(C([H])(C(=O)N4C([H])([H])C([H])([H])C([H])([H])C([H])(n5nc(-c6c([H])c([H])c(Oc7c([H])c([H])c(F)c([H])c7F)c([H])c6[H])c(C(=O)N([H])[H])c5N([H])[H])C4([H])[H])C([H])([H])[H])[N+]([H])([H])[H])c([H])c3[H])c([H])c([H])c2C1([H])[H]

>  <smiles>  (23) 
[H]c1c([H])c([H])c2c(c1[H])C([H])([H])C([H])([H])C([H])([H])C2([H])N([H])C(=O)C1([H])N(C(=O)C([H])(N([H])C(=O)C([H])(N([H])C([H])([H])[H])C([H])([H])[H])C(C([H])([H])[H])(C([H])([H])[H])C([H])([H])[H])C([H])([H])c2c([H])c(Oc3c([H])c([H])c(C([H])([H])C([H])(C([H])(C(=O)N4C([H])([H])C([H])([H])C([H])([H])C([H])(n5nc(-c6c([H])c([H])c(Oc7c([H])c([H])c(F)c([H])c7F)c([H])c6[H])c(C(=O)N([H])[H])c5N([H])[H])C4([H])[H])C([H])([H])[H])[N+]([H])([H])[H])c([H])c3[H])c([H])c([H])c2C1([H])[H]

$$$$
23:0:0
     RDKit          3D

 88 96  0  0  1  0  0  0  0  0999 V2000
  -27.3090  -22.3010   20.2130 C   0  0  0  0  0  2  0  0  0  0  0  0
  -27.0370  -23.8040   19.8180 C   0  0  0  0  0  2  0  0  0  0  0  0
  -29.2840  -23.5820   20.5350 C   0  0  0  0  0  2  0  0  0  0  0  0
  -28.8280  -22.0530   20.1100 C   0  0  0  0  0  3  0  0  0  0  0  0
  -28.0860  -24.7070   20.5250 C   0  0  0  0  0  3  0  0  0  0  0  0
  -29.4540  -20.6640   20.7770 C   0  0  0  0  0  0  0  0  0  0  0  0
  -29.3360  -19.3350   20.2820 N   0  0  0  0  0  0  0  0  0  0  0  0
  -30.1530  -20.8320   21.7760 O   0  0  0  0  0  0  0  0  0  0  0  0
  -28.6980  -19.2540   19.5000 H   0  0  0  0  0  0  0  0  0  0  0  0
  -30.1860  -18.0190   20.5630 C   0  0  0  0  0  2  0  0  0  0  0  0
  -29.6300  -16.4250   20.5650 C   0  0  0  0  0  2  0  0  0  0  0  0
  -30.5290  -15.0380   20.3420 C   0  0  0  0  0  0  0  0  0  0  0  0
  -30.4580  -12.6950   19.3620 C   0  0  0  0  0  2  0  0  0  0  0  0
  -29.5150  -12.6840   18.1350 C   0  0  0  0  0  2  0  0  0  0  0  0
  -28.0500  -12.4670   18.5640 C   0  0  0  0  0  2  0  0  0  0  0  0
  -27.6500  -13.3650   19.7640 C   0  0  0  0  0  3  0  0  0  0  0  0
  -28.7070  -13.3350   20.8850 C   0  0  0  0  0  2  0  0  0  0  0  0
  -29.9850  -13.7540   20.2990 N   0  0  0  0  0  0  0  0  0  0  0  0
  -31.7240  -15.1350   20.0350 O   0  0  0  0  0  0  0  0  0  0  0  0
  -25.2680  -13.9290   20.5110 C   0  0  0  0  0  0  0  0  0  0  0  0
  -24.2080  -13.1470   20.8760 C   0  0  0  0  0  0  0  0  0  0  0  0
  -24.6780  -11.7980   20.8350 C   0  0  0  0  0  0  0  0  0  0  0  0
  -26.3140  -13.0570   20.2600 N   0  0  0  0  0  0  0  0  0  0  0  0
  -25.9680  -11.7690   20.5220 N   0  0  0  0  0  0  0  0  0  0  0  0
  -23.9560  -10.5320   21.0180 C   0  0  0  0  0  0  0  0  0  0  0  0
  -24.3780   -9.5710   21.9640 C   0  0  0  0  0  3  0  0  0  0  0  0
  -23.6560   -8.3700   22.1360 C   0  0  0  0  0  3  0  0  0  0  0  0
  -22.5000   -8.1200   21.3590 C   0  0  0  0  0  0  0  0  0  0  0  0
  -22.0980   -9.0680   20.4020 C   0  0  0  0  0  3  0  0  0  0  0  0
  -22.8200  -10.2610   20.2290 C   0  0  0  0  0  3  0  0  0  0  0  0
  -21.7510   -6.9710   21.4370 O   0  0  0  0  0  0  0  0  0  0  0  0
  -21.6610   -6.2490   22.6010 C   0  0  0  0  0  0  0  0  0  0  0  0
  -21.1560   -6.8170   23.7920 C   0  0  0  0  0  3  0  0  0  0  0  0
  -21.0150   -6.0200   24.9450 C   0  0  0  0  0  3  0  0  0  0  0  0
  -21.3690   -4.6570   24.9100 C   0  0  0  0  0  0  0  0  0  0  0  0
  -21.8660   -4.0910   23.7230 C   0  0  0  0  0  3  0  0  0  0  0  0
  -22.0090   -4.8840   22.5710 C   0  0  0  0  0  0  0  0  0  0  0  0
  -22.4680   -4.3280   21.4240 F   0  0  0  0  0  0  0  0  0  0  0  0
  -21.2270   -3.8890   26.0150 F   0  0  0  0  0  0  0  0  0  0  0  0
  -22.8080  -13.6150   21.1530 C   0  0  0  0  0  0  0  0  0  0  0  0
  -22.0820  -12.9060   22.0100 N   0  0  0  0  0  0  0  0  0  0  0  0
  -22.3670  -14.6460   20.6450 O   0  0  0  0  0  0  0  0  0  0  0  0
  -22.4510  -12.0720   22.4400 H   0  0  0  0  0  0  0  0  0  0  0  0
  -21.1440  -13.2020   22.2400 H   0  0  0  0  0  0  0  0  0  0  0  0
  -25.4250  -15.3020   20.3450 N   0  0  0  0  0  0  0  0  0  0  0  0
  -24.6570  -15.9530   20.4650 H   0  0  0  0  0  0  0  0  0  0  0  0
  -26.2760  -15.7470   20.0280 H   0  0  0  0  0  0  0  0  0  0  0  0
  -28.2630  -26.2280   20.1860 O   0  0  0  0  0  0  0  0  0  0  0  0
  -24.6340  -31.9020   23.2320 C   0  0  0  0  0  0  0  0  0  0  0  0
  -27.1960  -27.2000   20.1790 C   0  0  0  0  0  0  0  0  0  0  0  0
  -23.4290  -30.5140   21.5910 C   0  0  0  0  0  3  0  0  0  0  0  0
  -24.8720  -28.9530   20.1530 C   0  0  0  0  0  0  0  0  0  0  0  0
  -25.9820  -30.7840   21.4150 C   0  0  0  0  0  2  0  0  0  0  0  0
  -26.0530  -29.3950   20.7610 C   0  0  0  0  0  0  0  0  0  0  0  0
  -27.2170  -28.5340   20.7580 C   0  0  0  0  0  3  0  0  0  0  0  0
  -25.9970  -26.8760   19.5120 C   0  0  0  0  0  3  0  0  0  0  0  0
  -24.8550  -27.7050   19.5140 C   0  0  0  0  0  3  0  0  0  0  0  0
  -23.6460  -29.8490   20.2060 C   0  0  0  0  0  2  0  0  0  0  0  0
  -24.7020  -31.0900   22.1340 N   0  0  0  0  0  0  0  0  0  0  0  0
  -23.5520  -32.1830   23.7660 O   0  0  0  0  0  0  0  0  0  0  0  0
  -22.7610  -29.4980   22.5490 C   0  0  0  0  0  0  0  0  0  0  0  0
  -21.4330  -29.3190   22.4270 N   0  0  0  0  0  0  0  0  0  0  0  0
  -23.4390  -28.8740   23.3710 O   0  0  0  0  0  0  0  0  0  0  0  0
  -20.9410  -29.8770   21.7420 H   0  0  0  0  0  0  0  0  0  0  0  0
  -18.0580  -28.1120   22.9400 C   0  0  0  0  0  0  0  0  0  0  0  0
  -20.6180  -28.3740   23.1970 C   0  0  0  0  0  3  0  0  0  0  0  0
  -20.7180  -26.9470   22.6110 C   0  0  0  0  0  2  0  0  0  0  0  0
  -19.6120  -26.6310   21.6010 C   0  0  0  0  0  2  0  0  0  0  0  0
  -18.2330  -26.7670   22.2530 C   0  0  0  0  0  2  0  0  0  0  0  0
  -19.1780  -28.8730   23.3680 C   0  0  0  0  0  0  0  0  0  0  0  0
  -18.9580  -30.1300   23.9710 C   0  0  0  0  0  3  0  0  0  0  0  0
  -17.6530  -30.6250   24.1530 C   0  0  0  0  0  3  0  0  0  0  0  0
  -16.5490  -29.8610   23.7410 C   0  0  0  0  0  3  0  0  0  0  0  0
  -16.7520  -28.6060   23.1380 C   0  0  0  0  0  3  0  0  0  0  0  0
  -25.9150  -32.5380   23.8550 C   0  0  0  0  0  3  0  0  0  0  0  0
  -26.4200  -31.7750   25.1420 C   0  0  1  0  0  0  0  0  0  0  0  0
  -25.3210  -31.5500   26.2060 C   0  0  0  0  0  1  0  0  0  0  0  0
  -27.0030  -30.3930   24.7670 C   0  0  0  0  0  1  0  0  0  0  0  0
  -27.5690  -32.5710   25.8040 C   0  0  0  0  0  1  0  0  0  0  0  0
  -25.6090  -33.9400   24.1810 N   0  0  0  0  0  0  0  0  0  0  0  0
  -25.9500  -34.9920   23.4240 C   0  0  0  0  0  0  0  0  0  0  0  0
  -26.6240  -34.8830   22.3960 O   0  0  0  0  0  0  0  0  0  0  0  0
  -25.0120  -34.1010   24.9790 H   0  0  0  0  0  0  0  0  0  0  0  0
  -24.2440  -36.8030   23.0510 C   0  0  0  0  0  1  0  0  0  0  0  0
  -25.4700  -36.3840   23.8780 C   0  0  0  0  0  3  0  0  0  0  0  0
  -27.5960  -37.2510   24.7450 C   0  0  0  0  0  1  0  0  0  0  0  0
  -26.5120  -37.4280   23.7810 N   0  0  0  0  0  0  0  0  0  0  0  0
  -26.1120  -38.3520   23.9250 H   0  0  0  0  0  0  0  0  0  0  0  0
  2  1  1  0
  2  5  1  0
  4  1  1  0
  4  3  1  0
  4  6  1  0
  5 48  1  0
  5  3  1  0
  6  8  2  0
  7 10  1  0
  7  6  1  0
  9  7  1  0
 10 11  1  0
 12 11  1  0
 13 18  1  0
 14 15  1  0
 14 13  1  0
 16 15  1  0
 16 23  1  0
 16 17  1  0
 18 12  1  0
 18 17  1  0
 19 12  2  0
 20 21  2  0
 21 40  1  0
 22 21  1  0
 22 25  1  0
 23 20  1  0
 23 24  1  0
 24 22  2  0
 25 26  1  0
 26 27  2  0
 28 31  1  0
 28 27  1  0
 29 28  2  0
 30 29  1  0
 30 25  2  0
 31 32  1  0
 32 33  1  0
 33 34  2  0
 35 34  1  0
 35 39  1  0
 36 35  2  0
 37 32  2  0
 37 36  1  0
 38 37  1  0
 40 41  1  0
 41 44  1  0
 41 43  1  0
 42 40  2  0
 45 46  1  0
 45 20  1  0
 47 45  1  0
 49 60  2  0
 50 48  1  0
 50 55  1  0
 51 59  1  0
 51 61  1  0
 52 58  1  0
 52 54  1  0
 53 59  1  0
 54 53  1  0
 55 54  2  0
 56 57  1  0
 56 50  2  0
 57 52  2  0
 58 51  1  0
 59 49  1  0
 61 63  2  0
 62 61  1  0
 64 62  1  0
 65 74  2  0
 65 70  1  0
 66 62  1  0
 66 70  1  0
 67 66  1  0
 68 69  1  0
 68 67  1  0
 69 65  1  0
 70 71  2  0
 71 72  1  0
 73 72  2  0
 74 73  1  0
 75 49  1  0
 75 80  1  0
 75 76  1  0
 76 79  1  1
 76 77  1  0
 78 76  1  0
 80 83  1  0
 81 85  1  0
 81 80  1  0
 82 81  2  0
 85 84  1  0
 87 85  1  0
 87 88  1  0
 87 86  1  0
M  ISO  4   5 101  11 100  12 100  48 101
M  END
>  <TORSDO>  (24) 
F 19

>  <SCORE>  (24) 
-14.165

>  <name>  (24) 
23

>  <ligand_id>  (24) 
23

>  <original_smiles>  (24) 
[H]c1c([H])c([H])c2c(c1[H])C([H])([H])C([H])([H])C([H])([H])C2([H])N([H])C(=O)C1([H])N(C(=O)C([H])(N([H])C(=O)C([H])(N([H])C([H])([H])[H])C([H])([H])[H])C(C([H])([H])[H])(C([H])([H])[H])C([H])([H])[H])C([H])([H])c2c([H])c(OC3([H])C([H])([H])C([H])([H])C([H])(C(=O)N([H])C([H])([H])C([H])([H])C(=O)N4C([H])([H])C([H])([H])C([H])([H])C([H])(n5nc(-c6c([H])c([H])c(Oc7c([H])c([H])c(F)c([H])c7F)c([H])c6[H])c(C(=O)N([H])[H])c5N([H])[H])C4([H])[H])C3([H])[H])c([H])c([H])c2C1([H])[H]

>  <smiles>  (24) 
[H]c1c([H])c([H])c2c(c1[H])C([H])([H])C([H])([H])C([H])([H])C2([H])N([H])C(=O)C1([H])N(C(=O)C([H])(N([H])C(=O)C([H])(N([H])C([H])([H])[H])C([H])([H])[H])C(C([H])([H])[H])(C([H])([H])[H])C([H])([H])[H])C([H])([H])c2c([H])c(OC3([H])C([H])([H])C([H])([H])C([H])(C(=O)N([H])C([H])([H])C([H])([H])C(=O)N4C([H])([H])C([H])([H])C([H])([H])C([H])(n5nc(-c6c([H])c([H])c(Oc7c([H])c([H])c(F)c([H])c7F)c([H])c6[H])c(C(=O)N([H])[H])c5N([H])[H])C4([H])[H])C3([H])[H])c([H])c([H])c2C1([H])[H]

$$$$
24:0:0
     RDKit          3D

 91 99  0  0  1  0  0  0  0  0999 V2000
  -28.2380  -21.9060   20.4260 C   0  0  0  0  0  2  0  0  0  0  0  0
  -30.5740  -21.5290   20.3560 C   0  0  0  0  0  2  0  0  0  0  0  0
  -29.2960  -20.7200   20.0630 C   0  0  0  0  0  3  0  0  0  0  0  0
  -28.8820  -23.3990   20.5480 C   0  0  0  0  0  3  0  0  0  0  0  0
  -30.2840  -23.0360   19.9760 C   0  0  0  0  0  3  0  0  0  0  0  0
  -31.3490  -23.9400   20.4450 N   0  0  0  0  0  4  0  0  0  0  0  0
  -31.4310  -23.9240   21.4460 H   0  0  0  0  0  0  0  0  0  0  0  0
  -31.1640  -24.8840   20.1580 H   0  0  0  0  0  0  0  0  0  0  0  0
  -32.2330  -23.6680   20.0520 H   0  0  0  0  0  0  0  0  0  0  0  0
  -27.7010  -18.7160   20.3790 C   0  0  0  0  0  1  0  0  0  0  0  0
  -29.1530  -19.1530   20.6380 C   0  0  0  0  0  3  0  0  0  0  0  0
  -30.1220  -17.8590   20.2180 C   0  0  0  0  0  3  0  0  0  0  0  0
  -29.8220  -16.2890   20.7110 C   0  0  0  0  0  3  0  0  0  0  0  0
  -30.6620  -14.9380   20.2940 C   0  0  0  0  0  0  0  0  0  0  0  0
  -30.5530  -12.6200   19.2850 C   0  0  0  0  0  2  0  0  0  0  0  0
  -29.5970  -12.6470   18.0680 C   0  0  0  0  0  2  0  0  0  0  0  0
  -28.1360  -12.4280   18.5130 C   0  0  0  0  0  2  0  0  0  0  0  0
  -27.7530  -13.3100   19.7290 C   0  0  0  0  0  3  0  0  0  0  0  0
  -28.8260  -13.2580   20.8380 C   0  0  0  0  0  2  0  0  0  0  0  0
  -30.1020  -13.6660   20.2410 N   0  0  0  0  0  0  0  0  0  0  0  0
  -31.8330  -15.0580   19.9150 O   0  0  0  0  0  0  0  0  0  0  0  0
  -25.3740  -13.8680   20.4990 C   0  0  0  0  0  0  0  0  0  0  0  0
  -24.3190  -13.0810   20.8680 C   0  0  0  0  0  0  0  0  0  0  0  0
  -24.7910  -11.7330   20.8140 C   0  0  0  0  0  0  0  0  0  0  0  0
  -26.4210  -13.0010   20.2360 N   0  0  0  0  0  0  0  0  0  0  0  0
  -26.0790  -11.7110   20.4890 N   0  0  0  0  0  0  0  0  0  0  0  0
  -24.0760  -10.4630   20.9920 C   0  0  0  0  0  0  0  0  0  0  0  0
  -24.4860   -9.5130   21.9530 C   0  0  0  0  0  3  0  0  0  0  0  0
  -23.7700   -8.3090   22.1200 C   0  0  0  0  0  3  0  0  0  0  0  0
  -22.6280   -8.0460   21.3250 C   0  0  0  0  0  0  0  0  0  0  0  0
  -22.2370   -8.9850   20.3540 C   0  0  0  0  0  3  0  0  0  0  0  0
  -22.9550  -10.1820   20.1860 C   0  0  0  0  0  3  0  0  0  0  0  0
  -21.8840   -6.8930   21.4010 O   0  0  0  0  0  0  0  0  0  0  0  0
  -21.7530   -6.1960   22.5750 C   0  0  0  0  0  0  0  0  0  0  0  0
  -21.1850   -6.7810   23.7280 C   0  0  0  0  0  3  0  0  0  0  0  0
  -21.0040   -6.0090   24.8930 C   0  0  0  0  0  3  0  0  0  0  0  0
  -21.3800   -4.6530   24.9050 C   0  0  0  0  0  0  0  0  0  0  0  0
  -21.9390   -4.0680   23.7550 C   0  0  0  0  0  3  0  0  0  0  0  0
  -22.1220   -4.8360   22.5920 C   0  0  0  0  0  0  0  0  0  0  0  0
  -22.6420   -4.2620   21.4810 F   0  0  0  0  0  0  0  0  0  0  0  0
  -21.1980   -3.9080   26.0210 F   0  0  0  0  0  0  0  0  0  0  0  0
  -22.9210  -13.5440   21.1630 C   0  0  0  0  0  0  0  0  0  0  0  0
  -22.2050  -12.8290   22.0240 N   0  0  0  0  0  0  0  0  0  0  0  0
  -22.4740  -14.5760   20.6640 O   0  0  0  0  0  0  0  0  0  0  0  0
  -22.5790  -11.9930   22.4480 H   0  0  0  0  0  0  0  0  0  0  0  0
  -21.2700  -13.1260   22.2640 H   0  0  0  0  0  0  0  0  0  0  0  0
  -25.5270  -15.2430   20.3410 N   0  0  0  0  0  0  0  0  0  0  0  0
  -24.7560  -15.8890   20.4730 H   0  0  0  0  0  0  0  0  0  0  0  0
  -26.3690  -15.6940   20.0090 H   0  0  0  0  0  0  0  0  0  0  0  0
  -28.0590  -24.7490   20.0010 C   0  0  0  0  0  2  0  0  0  0  0  0
  -28.3100  -26.2450   20.2970 O   0  0  0  0  0  0  0  0  0  0  0  0
  -24.6350  -31.8960   23.2050 C   0  0  0  0  0  0  0  0  0  0  0  0
  -27.2470  -27.2080   20.2020 C   0  0  0  0  0  0  0  0  0  0  0  0
  -23.4490  -30.4940   21.5600 C   0  0  0  0  0  3  0  0  0  0  0  0
  -24.9120  -28.9260   20.1470 C   0  0  0  0  0  0  0  0  0  0  0  0
  -26.0010  -30.7740   21.4080 C   0  0  0  0  0  2  0  0  0  0  0  0
  -26.0830  -29.3830   20.7640 C   0  0  0  0  0  0  0  0  0  0  0  0
  -27.2510  -28.5370   20.7810 C   0  0  0  0  0  3  0  0  0  0  0  0
  -26.0520  -26.8500   19.5380 C   0  0  0  0  0  3  0  0  0  0  0  0
  -24.9060  -27.6710   19.5210 C   0  0  0  0  0  3  0  0  0  0  0  0
  -23.6790  -29.8150   20.1840 C   0  0  0  0  0  2  0  0  0  0  0  0
  -24.7140  -31.0760   22.1140 N   0  0  0  0  0  0  0  0  0  0  0  0
  -23.5460  -32.1770   23.7270 O   0  0  0  0  0  0  0  0  0  0  0  0
  -22.7670  -29.4850   22.5170 C   0  0  0  0  0  0  0  0  0  0  0  0
  -21.4380  -29.3260   22.3920 N   0  0  0  0  0  0  0  0  0  0  0  0
  -23.4350  -28.8460   23.3340 O   0  0  0  0  0  0  0  0  0  0  0  0
  -20.9530  -29.8950   21.7120 H   0  0  0  0  0  0  0  0  0  0  0  0
  -18.0430  -28.1830   22.9210 C   0  0  0  0  0  0  0  0  0  0  0  0
  -20.6100  -28.3910   23.1590 C   0  0  0  0  0  3  0  0  0  0  0  0
  -20.6760  -26.9670   22.5610 C   0  0  0  0  0  2  0  0  0  0  0  0
  -19.5550  -26.6800   21.5570 C   0  0  0  0  0  2  0  0  0  0  0  0
  -18.1840  -26.8430   22.2200 C   0  0  0  0  0  2  0  0  0  0  0  0
  -19.1820  -28.9180   23.3470 C   0  0  0  0  0  0  0  0  0  0  0  0
  -18.9950  -30.1750   23.9630 C   0  0  0  0  0  3  0  0  0  0  0  0
  -17.7020  -30.6970   24.1530 C   0  0  0  0  0  3  0  0  0  0  0  0
  -16.5770  -29.9600   23.7430 C   0  0  0  0  0  3  0  0  0  0  0  0
  -16.7490  -28.7050   23.1330 C   0  0  0  0  0  3  0  0  0  0  0  0
  -25.9090  -32.5330   23.8400 C   0  0  0  0  0  3  0  0  0  0  0  0
  -25.5940  -33.9300   24.1760 N   0  0  0  0  0  0  0  0  0  0  0  0
  -25.9170  -34.9870   23.4210 C   0  0  0  0  0  0  0  0  0  0  0  0
  -26.5810  -34.8890   22.3860 O   0  0  0  0  0  0  0  0  0  0  0  0
  -25.0100  -34.0810   24.9860 H   0  0  0  0  0  0  0  0  0  0  0  0
  -24.1840  -36.7760   23.0800 C   0  0  0  0  0  1  0  0  0  0  0  0
  -25.4290  -36.3730   23.8850 C   0  0  0  0  0  3  0  0  0  0  0  0
  -27.5590  -37.2650   24.7190 C   0  0  0  0  0  1  0  0  0  0  0  0
  -26.4580  -37.4300   23.7740 N   0  0  0  0  0  0  0  0  0  0  0  0
  -26.0480  -38.3470   23.9230 H   0  0  0  0  0  0  0  0  0  0  0  0
  -26.4150  -31.7620   25.1210 C   0  0  1  0  0  0  0  0  0  0  0  0
  -25.3100  -31.5110   26.1740 C   0  0  0  0  0  1  0  0  0  0  0  0
  -27.0140  -30.3910   24.7310 C   0  0  0  0  0  1  0  0  0  0  0  0
  -27.5530  -32.5600   25.7990 C   0  0  0  0  0  1  0  0  0  0  0  0
  1  4  1  0
  3  2  1  0
  3  1  1  0
  3 11  1  0
  4 50  1  0
  5  2  1  0
  5  6  1  0
  5  4  1  0
  6  7  1  0
  8  6  1  0
  9  6  1  0
 11 10  1  0
 12 11  1  0
 12 13  2  0
 14 13  1  0
 15 20  1  0
 16 17  1  0
 16 15  1  0
 18 17  1  0
 18 25  1  0
 18 19  1  0
 20 14  1  0
 20 19  1  0
 21 14  2  0
 22 23  2  0
 23 42  1  0
 24 23  1  0
 24 27  1  0
 25 26  1  0
 25 22  1  0
 26 24  2  0
 27 28  1  0
 28 29  2  0
 30 33  1  0
 30 29  1  0
 31 30  2  0
 32 31  1  0
 32 27  2  0
 33 34  1  0
 34 39  2  0
 34 35  1  0
 35 36  2  0
 36 37  1  0
 37 41  1  0
 38 37  2  0
 39 38  1  0
 40 39  1  0
 42 43  1  0
 43 46  1  0
 43 45  1  0
 44 42  2  0
 47 48  1  0
 47 22  1  0
 49 47  1  0
 50 51  1  0
 52 63  2  0
 53 51  1  0
 53 58  1  0
 54 62  1  0
 54 64  1  0
 55 61  1  0
 55 57  1  0
 56 62  1  0
 57 58  2  0
 57 56  1  0
 59 53  2  0
 60 59  1  0
 60 55  2  0
 61 54  1  0
 62 52  1  0
 64 66  2  0
 65 64  1  0
 67 65  1  0
 68 77  2  0
 68 73  1  0
 69 65  1  0
 69 73  1  0
 70 69  1  0
 71 72  1  0
 71 70  1  0
 72 68  1  0
 73 74  2  0
 74 75  1  0
 76 75  2  0
 77 76  1  0
 78 52  1  0
 78 79  1  0
 78 88  1  0
 79 82  1  0
 80 84  1  0
 80 79  1  0
 81 80  2  0
 84 83  1  0
 86 84  1  0
 86 87  1  0
 86 85  1  0
 88 91  1  1
 88 89  1  0
 90 88  1  0
M  ISO  4  13 100  14 100  50 101  51 101
M  END
>  <TORSDO>  (25) 
F 21

>  <SCORE>  (25) 
-13.523

>  <name>  (25) 
24

>  <ligand_id>  (25) 
24

>  <original_smiles>  (25) 
[H]c1c([H])c([H])c2c(c1[H])C([H])([H])C([H])([H])C([H])([H])C2([H])N([H])C(=O)C1([H])N(C(=O)C([H])(N([H])C(=O)C([H])(N([H])C([H])([H])[H])C([H])([H])[H])C(C([H])([H])[H])(C([H])([H])[H])C([H])([H])[H])C([H])([H])c2c([H])c(OC([H])([H])C3([H])C([H])([H])C([H])(C([H])(C([H])([H])[H])C([H])([H])C([H])([H])C(=O)N4C([H])([H])C([H])([H])C([H])([H])C([H])(n5nc(-c6c([H])c([H])c(Oc7c([H])c([H])c(F)c([H])c7F)c([H])c6[H])c(C(=O)N([H])[H])c5N([H])[H])C4([H])[H])C([H])([H])C3([H])[N+]([H])([H])[H])c([H])c([H])c2C1([H])[H]

>  <smiles>  (25) 
[H]c1c([H])c([H])c2c(c1[H])C([H])([H])C([H])([H])C([H])([H])C2([H])N([H])C(=O)C1([H])N(C(=O)C([H])(N([H])C(=O)C([H])(N([H])C([H])([H])[H])C([H])([H])[H])C(C([H])([H])[H])(C([H])([H])[H])C([H])([H])[H])C([H])([H])c2c([H])c(OC([H])([H])C3([H])C([H])([H])C([H])(C([H])(C([H])([H])[H])C([H])([H])C([H])([H])C(=O)N4C([H])([H])C([H])([H])C([H])([H])C([H])(n5nc(-c6c([H])c([H])c(Oc7c([H])c([H])c(F)c([H])c7F)c([H])c6[H])c(C(=O)N([H])[H])c5N([H])[H])C4([H])[H])C([H])([H])C3([H])[N+]([H])([H])[H])c([H])c([H])c2C1([H])[H]

$$$$
25:0:0
     RDKit          3D

 89 97  0  0  1  0  0  0  0  0999 V2000
  -29.9110  -23.2520   19.9250 C   0  0  0  0  0  3  0  0  0  0  0  0
  -27.9390  -22.3660   20.9050 C   0  0  0  0  0  3  0  0  0  0  0  0
  -30.3780  -21.9000   19.7180 C   0  0  0  0  0  3  0  0  0  0  0  0
  -28.3990  -21.0180   20.6890 C   0  0  0  0  0  3  0  0  0  0  0  0
  -28.6500  -23.5490   20.5170 C   0  0  0  0  0  0  0  0  0  0  0  0
  -29.6450  -20.7090   20.0720 C   0  0  0  0  0  0  0  0  0  0  0  0
  -31.3880  -19.2730   18.7850 C   0  0  0  0  0  1  0  0  0  0  0  0
  -30.0690  -19.2140   19.5880 C   0  0  0  0  0  3  0  0  0  0  0  0
  -30.0790  -17.8340   20.5000 C   0  0  0  0  0  2  0  0  0  0  0  0
  -28.6660  -16.2930   18.9580 C   0  0  0  0  0  1  0  0  0  0  0  0
  -29.9710  -16.3630   19.7530 C   0  0  0  0  0  3  0  0  0  0  0  0
  -30.5780  -14.9040   20.2380 C   0  0  0  0  0  0  0  0  0  0  0  0
  -30.3540  -12.5590   19.3930 C   0  0  0  0  0  2  0  0  0  0  0  0
  -29.4130  -12.5000   18.1710 C   0  0  0  0  0  2  0  0  0  0  0  0
  -27.9520  -12.2940   18.6180 C   0  0  0  0  0  2  0  0  0  0  0  0
  -27.5410  -13.2350   19.7770 C   0  0  0  0  0  3  0  0  0  0  0  0
  -28.6210  -13.3430   20.8780 C   0  0  0  0  0  2  0  0  0  0  0  0
  -29.9050  -13.6860   20.2450 N   0  0  0  0  0  0  0  0  0  0  0  0
  -31.8080  -14.8470   20.2160 O   0  0  0  0  0  0  0  0  0  0  0  0
  -25.1720  -13.8500   20.5200 C   0  0  0  0  0  0  0  0  0  0  0  0
  -24.1010  -13.0830   20.8880 C   0  0  0  0  0  0  0  0  0  0  0  0
  -24.5640  -11.7320   20.8700 C   0  0  0  0  0  0  0  0  0  0  0  0
  -26.2120  -12.9600   20.2960 N   0  0  0  0  0  0  0  0  0  0  0  0
  -25.8560  -11.6830   20.5740 N   0  0  0  0  0  0  0  0  0  0  0  0
  -23.8390  -10.4730   21.0620 C   0  0  0  0  0  0  0  0  0  0  0  0
  -24.2900   -9.5060   21.9850 C   0  0  0  0  0  3  0  0  0  0  0  0
  -23.5700   -8.3070   22.1700 C   0  0  0  0  0  3  0  0  0  0  0  0
  -22.3870   -8.0710   21.4300 C   0  0  0  0  0  0  0  0  0  0  0  0
  -21.9570   -9.0290   20.4950 C   0  0  0  0  0  3  0  0  0  0  0  0
  -22.6780  -10.2200   20.3080 C   0  0  0  0  0  3  0  0  0  0  0  0
  -21.6390   -6.9220   21.5210 O   0  0  0  0  0  0  0  0  0  0  0  0
  -21.6240   -6.1630   22.6630 C   0  0  0  0  0  0  0  0  0  0  0  0
  -21.2530   -6.7040   23.9140 C   0  0  0  0  0  3  0  0  0  0  0  0
  -21.1830   -5.8730   25.0480 C   0  0  0  0  0  3  0  0  0  0  0  0
  -21.4750   -4.5000   24.9350 C   0  0  0  0  0  0  0  0  0  0  0  0
  -21.8380   -3.9580   23.6890 C   0  0  0  0  0  3  0  0  0  0  0  0
  -21.9090   -4.7870   22.5560 C   0  0  0  0  0  0  0  0  0  0  0  0
  -22.2370   -4.2560   21.3550 F   0  0  0  0  0  0  0  0  0  0  0  0
  -21.4030   -3.6980   26.0230 F   0  0  0  0  0  0  0  0  0  0  0  0
  -22.7030  -13.5650   21.1420 C   0  0  0  0  0  0  0  0  0  0  0  0
  -21.9680  -12.8770   22.0080 N   0  0  0  0  0  0  0  0  0  0  0  0
  -22.2680  -14.5840   20.6060 O   0  0  0  0  0  0  0  0  0  0  0  0
  -22.3330  -12.0530   22.4600 H   0  0  0  0  0  0  0  0  0  0  0  0
  -21.0270  -13.1790   22.2200 H   0  0  0  0  0  0  0  0  0  0  0  0
  -25.3370  -15.2180   20.3290 N   0  0  0  0  0  0  0  0  0  0  0  0
  -24.5810  -15.8840   20.4440 H   0  0  0  0  0  0  0  0  0  0  0  0
  -26.1990  -15.6500   20.0210 H   0  0  0  0  0  0  0  0  0  0  0  0
  -28.0590  -25.0030   20.9040 C   0  0  0  0  0  2  0  0  0  0  0  0
  -28.3130  -26.3300   20.2210 O   0  0  0  0  0  0  0  0  0  0  0  0
  -24.6250  -31.8770   23.2400 C   0  0  0  0  0  0  0  0  0  0  0  0
  -27.2340  -27.2580   20.2020 C   0  0  0  0  0  0  0  0  0  0  0  0
  -23.4240  -30.4740   21.6070 C   0  0  0  0  0  3  0  0  0  0  0  0
  -24.8750  -28.9120   20.1830 C   0  0  0  0  0  0  0  0  0  0  0  0
  -25.9670  -30.7790   21.4200 C   0  0  0  0  0  2  0  0  0  0  0  0
  -26.0500  -29.3930   20.7760 C   0  0  0  0  0  0  0  0  0  0  0  0
  -27.2350  -28.5810   20.7690 C   0  0  0  0  0  3  0  0  0  0  0  0
  -26.0360  -26.8530   19.5740 C   0  0  0  0  0  3  0  0  0  0  0  0
  -24.8740  -27.6500   19.5700 C   0  0  0  0  0  3  0  0  0  0  0  0
  -23.6390  -29.7920   20.2290 C   0  0  0  0  0  2  0  0  0  0  0  0
  -24.6920  -31.0620   22.1450 N   0  0  0  0  0  0  0  0  0  0  0  0
  -23.5430  -32.1570   23.7740 O   0  0  0  0  0  0  0  0  0  0  0  0
  -22.7580  -29.4620   22.5720 C   0  0  0  0  0  0  0  0  0  0  0  0
  -21.4320  -29.2820   22.4480 N   0  0  0  0  0  0  0  0  0  0  0  0
  -23.4360  -28.8410   23.3960 O   0  0  0  0  0  0  0  0  0  0  0  0
  -20.9450  -29.8380   21.7570 H   0  0  0  0  0  0  0  0  0  0  0  0
  -18.0600  -28.0570   22.9390 C   0  0  0  0  0  0  0  0  0  0  0  0
  -20.6150  -28.3450   23.2220 C   0  0  0  0  0  3  0  0  0  0  0  0
  -20.7320  -26.9080   22.6610 C   0  0  0  0  0  2  0  0  0  0  0  0
  -19.6390  -26.5660   21.6430 C   0  0  0  0  0  2  0  0  0  0  0  0
  -18.2520  -26.7030   22.2760 C   0  0  0  0  0  2  0  0  0  0  0  0
  -19.1680  -28.8340   23.3670 C   0  0  0  0  0  0  0  0  0  0  0  0
  -18.9340  -30.1010   23.9460 C   0  0  0  0  0  3  0  0  0  0  0  0
  -17.6220  -30.5900   24.0990 C   0  0  0  0  0  3  0  0  0  0  0  0
  -16.5280  -29.8110   23.6850 C   0  0  0  0  0  3  0  0  0  0  0  0
  -16.7480  -28.5460   23.1120 C   0  0  0  0  0  3  0  0  0  0  0  0
  -25.9080  -32.5150   23.8580 C   0  0  0  0  0  3  0  0  0  0  0  0
  -26.4290  -31.7470   25.1370 C   0  0  1  0  0  0  0  0  0  0  0  0
  -25.3400  -31.5140   26.2100 C   0  0  0  0  0  1  0  0  0  0  0  0
  -27.0100  -30.3680   24.7480 C   0  0  0  0  0  1  0  0  0  0  0  0
  -27.5790  -32.5450   25.7940 C   0  0  0  0  0  1  0  0  0  0  0  0
  -25.5950  -33.9120   24.1920 N   0  0  0  0  0  0  0  0  0  0  0  0
  -25.9170  -34.9680   23.4340 C   0  0  0  0  0  0  0  0  0  0  0  0
  -26.5760  -34.8680   22.3960 O   0  0  0  0  0  0  0  0  0  0  0  0
  -25.0110  -34.0620   25.0010 H   0  0  0  0  0  0  0  0  0  0  0  0
  -24.1790  -36.7570   23.1010 C   0  0  0  0  0  1  0  0  0  0  0  0
  -25.4300  -36.3550   23.8990 C   0  0  0  0  0  3  0  0  0  0  0  0
  -27.5710  -37.2450   24.7070 C   0  0  0  0  0  1  0  0  0  0  0  0
  -26.4580  -37.4110   23.7760 N   0  0  0  0  0  0  0  0  0  0  0  0
  -26.0500  -38.3300   23.9300 H   0  0  0  0  0  0  0  0  0  0  0  0
  1  5  1  0
  3  1  2  0
  3  6  1  0
  4  2  1  0
  5 48  1  0
  5  2  2  0
  6  4  2  0
  8  7  1  0
  8  6  1  0
  8  9  1  0
 11 10  1  0
 11 12  1  0
 11  9  1  0
 12 18  1  0
 13 18  1  0
 14 15  1  0
 14 13  1  0
 16 15  1  0
 16 23  1  0
 16 17  1  0
 18 17  1  0
 19 12  2  0
 20 21  2  0
 21 40  1  0
 22 21  1  0
 22 25  1  0
 23 20  1  0
 23 24  1  0
 24 22  2  0
 25 26  1  0
 26 27  2  0
 28 31  1  0
 28 27  1  0
 29 28  2  0
 30 29  1  0
 30 25  2  0
 31 32  1  0
 32 33  1  0
 33 34  2  0
 35 34  1  0
 35 39  1  0
 36 35  2  0
 37 32  2  0
 37 36  1  0
 38 37  1  0
 40 41  1  0
 41 44  1  0
 41 43  1  0
 42 40  2  0
 45 46  1  0
 45 20  1  0
 47 45  1  0
 49 48  1  0
 50 61  2  0
 51 49  1  0
 51 56  1  0
 52 60  1  0
 52 62  1  0
 53 59  1  0
 53 55  1  0
 54 60  1  0
 55 54  1  0
 56 55  2  0
 57 51  2  0
 58 57  1  0
 58 53  2  0
 59 52  1  0
 60 50  1  0
 62 64  2  0
 63 62  1  0
 65 63  1  0
 66 75  2  0
 66 71  1  0
 67 63  1  0
 67 71  1  0
 68 67  1  0
 69 70  1  0
 69 68  1  0
 70 66  1  0
 71 72  2  0
 72 73  1  0
 74 73  2  0
 75 74  1  0
 76 50  1  0
 76 81  1  0
 76 77  1  0
 77 80  1  1
 77 78  1  0
 79 77  1  0
 81 84  1  0
 82 86  1  0
 82 81  1  0
 83 82  2  0
 86 85  1  0
 88 86  1  0
 88 89  1  0
 88 87  1  0
M  ISO  4  11 100  12 100  48 101  49 101
M  END
>  <TORSDO>  (26) 
F 20

>  <SCORE>  (26) 
-13.805

>  <name>  (26) 
25

>  <ligand_id>  (26) 
25

>  <original_smiles>  (26) 
[H]c1c([H])c([H])c2c(c1[H])C([H])([H])C([H])([H])C([H])([H])C2([H])N([H])C(=O)C1([H])N(C(=O)C([H])(N([H])C(=O)C([H])(N([H])C([H])([H])[H])C([H])([H])[H])C(C([H])([H])[H])(C([H])([H])[H])C([H])([H])[H])C([H])([H])c2c([H])c(OC([H])([H])c3c([H])c([H])c(C([H])(C([H])([H])[H])C([H])([H])C([H])(C(=O)N4C([H])([H])C([H])([H])C([H])([H])C([H])(n5nc(-c6c([H])c([H])c(Oc7c([H])c([H])c(F)c([H])c7F)c([H])c6[H])c(C(=O)N([H])[H])c5N([H])[H])C4([H])[H])C([H])([H])[H])c([H])c3[H])c([H])c([H])c2C1([H])[H]

>  <smiles>  (26) 
[H]c1c([H])c([H])c2c(c1[H])C([H])([H])C([H])([H])C([H])([H])C2([H])N([H])C(=O)C1([H])N(C(=O)C([H])(N([H])C(=O)C([H])(N([H])C([H])([H])[H])C([H])([H])[H])C(C([H])([H])[H])(C([H])([H])[H])C([H])([H])[H])C([H])([H])c2c([H])c(OC([H])([H])c3c([H])c([H])c(C([H])(C([H])([H])[H])C([H])([H])C([H])(C(=O)N4C([H])([H])C([H])([H])C([H])([H])C([H])(n5nc(-c6c([H])c([H])c(Oc7c([H])c([H])c(F)c([H])c7F)c([H])c6[H])c(C(=O)N([H])[H])c5N([H])[H])C4([H])[H])C([H])([H])[H])c([H])c3[H])c([H])c([H])c2C1([H])[H]

$$$$
26:0:0
     RDKit          3D

 88 96  0  0  1  0  0  0  0  0999 V2000
  -30.2370  -20.7410   20.2640 C   0  0  0  0  0  2  0  0  0  0  0  0
  -28.8710  -21.2520   20.0850 C   0  0  0  0  0  3  0  0  0  0  0  0
  -29.3340  -19.5900   20.6310 C   0  0  0  0  0  3  0  0  0  0  0  0
  -28.7810  -22.9100   20.6540 C   0  0  0  0  0  3  0  0  0  0  0  0
  -27.9810  -24.3630   20.0400 C   0  0  0  0  0  3  0  0  0  0  0  0
  -28.1790  -25.9460   20.3490 O   0  0  0  0  0  0  0  0  0  0  0  0
  -24.6270  -31.8730   23.2290 C   0  0  0  0  0  0  0  0  0  0  0  0
  -27.1700  -27.0180   20.2400 C   0  0  0  0  0  0  0  0  0  0  0  0
  -23.4310  -30.4700   21.5960 C   0  0  0  0  0  3  0  0  0  0  0  0
  -24.8760  -28.8680   20.1740 C   0  0  0  0  0  0  0  0  0  0  0  0
  -25.9910  -30.6900   21.4480 C   0  0  0  0  0  2  0  0  0  0  0  0
  -26.0580  -29.2820   20.8010 C   0  0  0  0  0  0  0  0  0  0  0  0
  -27.1990  -28.3730   20.8200 C   0  0  0  0  0  3  0  0  0  0  0  0
  -25.9680  -26.7480   19.5530 C   0  0  0  0  0  3  0  0  0  0  0  0
  -24.8500  -27.6200   19.5320 C   0  0  0  0  0  3  0  0  0  0  0  0
  -23.6570  -29.7850   20.2200 C   0  0  0  0  0  2  0  0  0  0  0  0
  -24.7030  -31.0370   22.1440 N   0  0  0  0  0  0  0  0  0  0  0  0
  -23.5400  -32.1670   23.7490 O   0  0  0  0  0  0  0  0  0  0  0  0
  -22.7390  -29.4780   22.5640 C   0  0  0  0  0  0  0  0  0  0  0  0
  -21.4090  -29.3180   22.4400 N   0  0  0  0  0  0  0  0  0  0  0  0
  -23.4050  -28.8550   23.3950 O   0  0  0  0  0  0  0  0  0  0  0  0
  -20.9280  -29.8660   21.7400 H   0  0  0  0  0  0  0  0  0  0  0  0
  -18.0220  -28.1290   22.9540 C   0  0  0  0  0  0  0  0  0  0  0  0
  -20.5830  -28.3890   23.2170 C   0  0  0  0  0  3  0  0  0  0  0  0
  -20.6830  -26.9550   22.6470 C   0  0  0  0  0  2  0  0  0  0  0  0
  -19.5780  -26.6300   21.6360 C   0  0  0  0  0  2  0  0  0  0  0  0
  -18.1960  -26.7790   22.2790 C   0  0  0  0  0  2  0  0  0  0  0  0
  -19.1430  -28.8920   23.3790 C   0  0  0  0  0  0  0  0  0  0  0  0
  -18.9250  -30.1550   23.9720 C   0  0  0  0  0  3  0  0  0  0  0  0
  -17.6210  -30.6550   24.1440 C   0  0  0  0  0  3  0  0  0  0  0  0
  -16.5150  -29.8910   23.7340 C   0  0  0  0  0  3  0  0  0  0  0  0
  -16.7170  -28.6300   23.1430 C   0  0  0  0  0  3  0  0  0  0  0  0
  -25.9020  -32.5130   23.8570 C   0  0  0  0  0  3  0  0  0  0  0  0
  -25.5880  -33.9140   24.1880 N   0  0  0  0  0  0  0  0  0  0  0  0
  -25.9180  -34.9710   23.4350 C   0  0  0  0  0  0  0  0  0  0  0  0
  -26.5800  -34.8700   22.3990 O   0  0  0  0  0  0  0  0  0  0  0  0
  -24.9950  -34.0660   24.9900 H   0  0  0  0  0  0  0  0  0  0  0  0
  -24.1860  -36.7710   23.1080 C   0  0  0  0  0  1  0  0  0  0  0  0
  -25.4360  -36.3600   23.9020 C   0  0  0  0  0  3  0  0  0  0  0  0
  -27.5800  -37.2470   24.7110 C   0  0  0  0  0  1  0  0  0  0  0  0
  -26.4680  -37.4150   23.7780 N   0  0  0  0  0  0  0  0  0  0  0  0
  -26.0630  -38.3360   23.9290 H   0  0  0  0  0  0  0  0  0  0  0  0
  -26.4060  -31.7500   25.1460 C   0  0  1  0  0  0  0  0  0  0  0  0
  -25.3040  -31.5260   26.2080 C   0  0  0  0  0  1  0  0  0  0  0  0
  -26.9880  -30.3660   24.7750 C   0  0  0  0  0  1  0  0  0  0  0  0
  -27.5570  -32.5450   25.8080 C   0  0  0  0  0  1  0  0  0  0  0  0
  -30.0650  -18.0570   20.1060 C   0  0  0  0  0  0  0  0  0  0  0  0
  -30.4510  -15.1750   20.2830 C   0  0  0  0  0  0  0  0  0  0  0  0
  -30.3440  -12.7750   19.3720 C   0  0  0  0  0  2  0  0  0  0  0  0
  -29.4220  -12.6600   18.1350 C   0  0  0  0  0  2  0  0  0  0  0  0
  -27.9590  -12.4390   18.5640 C   0  0  0  0  0  2  0  0  0  0  0  0
  -27.5410  -13.3640   19.7380 C   0  0  0  0  0  3  0  0  0  0  0  0
  -28.6010  -13.4350   20.8600 C   0  0  0  0  0  2  0  0  0  0  0  0
  -29.8410  -13.9040   20.2310 N   0  0  0  0  0  0  0  0  0  0  0  0
  -31.6580  -15.1280   20.0250 O   0  0  0  0  0  0  0  0  0  0  0  0
  -29.7380  -16.4610   20.4120 N   0  0  0  0  0  4  0  0  0  0  0  0
  -28.7660  -16.3110   20.6320 H   0  0  0  0  0  0  0  0  0  0  0  0
  -25.1690  -13.9210   20.4910 C   0  0  0  0  0  0  0  0  0  0  0  0
  -24.1100  -13.1440   20.8620 C   0  0  0  0  0  0  0  0  0  0  0  0
  -24.5790  -11.7930   20.8360 C   0  0  0  0  0  0  0  0  0  0  0  0
  -26.2140  -13.0470   20.2470 N   0  0  0  0  0  0  0  0  0  0  0  0
  -25.8700  -11.7610   20.5230 N   0  0  0  0  0  0  0  0  0  0  0  0
  -23.8520  -10.5310   21.0280 C   0  0  0  0  0  0  0  0  0  0  0  0
  -24.2880   -9.5640   21.9600 C   0  0  0  0  0  3  0  0  0  0  0  0
  -23.5600   -8.3680   22.1440 C   0  0  0  0  0  3  0  0  0  0  0  0
  -22.3830   -8.1300   21.3950 C   0  0  0  0  0  0  0  0  0  0  0  0
  -21.9650   -9.0870   20.4530 C   0  0  0  0  0  3  0  0  0  0  0  0
  -22.6930  -10.2740   20.2670 C   0  0  0  0  0  3  0  0  0  0  0  0
  -21.6260   -6.9870   21.4870 O   0  0  0  0  0  0  0  0  0  0  0  0
  -21.5870   -6.2410   22.6380 C   0  0  0  0  0  0  0  0  0  0  0  0
  -21.1730   -6.7930   23.8700 C   0  0  0  0  0  3  0  0  0  0  0  0
  -21.0810   -5.9740   25.0130 C   0  0  0  0  0  3  0  0  0  0  0  0
  -21.3930   -4.6050   24.9250 C   0  0  0  0  0  0  0  0  0  0  0  0
  -21.8000   -4.0520   23.6990 C   0  0  0  0  0  3  0  0  0  0  0  0
  -21.8950   -4.8670   22.5580 C   0  0  0  0  0  0  0  0  0  0  0  0
  -22.2690   -4.3260   21.3740 F   0  0  0  0  0  0  0  0  0  0  0  0
  -21.2970   -3.8160   26.0220 F   0  0  0  0  0  0  0  0  0  0  0  0
  -22.7130  -13.6200   21.1240 C   0  0  0  0  0  0  0  0  0  0  0  0
  -21.9810  -12.9290   21.9890 N   0  0  0  0  0  0  0  0  0  0  0  0
  -22.2780  -14.6430   20.5970 O   0  0  0  0  0  0  0  0  0  0  0  0
  -22.3500  -12.1050   22.4420 H   0  0  0  0  0  0  0  0  0  0  0  0
  -21.0410  -13.2300   22.2060 H   0  0  0  0  0  0  0  0  0  0  0  0
  -25.3250  -15.2930   20.3100 N   0  0  0  0  0  0  0  0  0  0  0  0
  -24.5450  -15.9340   20.4040 H   0  0  0  0  0  0  0  0  0  0  0  0
  -26.1530  -15.7300   19.9290 H   0  0  0  0  0  0  0  0  0  0  0  0
  -31.6150  -18.1600   20.2980 C   0  0  0  0  0  2  0  0  0  0  0  0
  -32.8830  -19.1620   18.2600 C   0  0  0  0  0  1  0  0  0  0  0  0
  -32.4580  -17.9010   19.0270 C   0  0  0  0  0  2  0  0  0  0  0  0
  1  3  1  0
  2  1  1  0
  2  3  1  0
  2  4  1  0
  3 47  1  0
  5  6  1  0
  5  4  2  0
  7 18  2  0
  8  6  1  0
  8 13  1  0
  9 17  1  0
  9 19  1  0
 10 16  1  0
 10 12  1  0
 11 17  1  0
 12 13  2  0
 12 11  1  0
 14  8  2  0
 15 14  1  0
 15 10  2  0
 16  9  1  0
 17  7  1  0
 19 21  2  0
 20 19  1  0
 22 20  1  0
 23 32  2  0
 23 28  1  0
 24 20  1  0
 24 28  1  0
 25 24  1  0
 26 27  1  0
 26 25  1  0
 27 23  1  0
 28 29  2  0
 29 30  1  0
 31 30  2  0
 32 31  1  0
 33  7  1  0
 33 34  1  0
 33 43  1  0
 34 37  1  0
 35 39  1  0
 35 34  1  0
 36 35  2  0
 39 38  1  0
 41 39  1  0
 41 42  1  0
 41 40  1  0
 43 46  1  1
 43 44  1  0
 45 43  1  0
 47 86  1  0
 47 56  2  0
 48 56  1  0
 49 54  1  0
 50 51  1  0
 50 49  1  0
 52 51  1  0
 52 61  1  0
 52 53  1  0
 54 48  1  0
 54 53  1  0
 55 48  2  0
 56 57  1  0
 58 59  2  0
 59 78  1  0
 60 59  1  0
 60 63  1  0
 61 58  1  0
 61 62  1  0
 62 60  2  0
 63 64  1  0
 64 65  2  0
 66 69  1  0
 66 65  1  0
 67 66  2  0
 68 67  1  0
 68 63  2  0
 69 70  1  0
 70 71  1  0
 71 72  2  0
 73 72  1  0
 73 77  1  0
 74 73  2  0
 75 70  2  0
 75 74  1  0
 76 75  1  0
 78 79  1  0
 79 82  1  0
 79 81  1  0
 80 78  2  0
 83 84  1  0
 83 58  1  0
 85 83  1  0
 87 88  1  0
 88 86  1  0
M  ISO  4   5 101   6 101  48 100  56 100
M  END
>  <TORSDO>  (27) 
F 21

>  <SCORE>  (27) 
-14.686

>  <name>  (27) 
26

>  <ligand_id>  (27) 
26

>  <original_smiles>  (27) 
[H]c1c([H])c([H])c2c(c1[H])C([H])([H])C([H])([H])C([H])([H])C2([H])N([H])C(=O)C1([H])N(C(=O)C([H])(N([H])C(=O)C([H])(N([H])C([H])([H])[H])C([H])([H])[H])C(C([H])([H])[H])(C([H])([H])[H])C([H])([H])[H])C([H])([H])c2c([H])c(OC([H])([H])C([H])([H])C3([H])C([H])([H])C3([H])C([H])(N([H])C(=O)N3C([H])([H])C([H])([H])C([H])([H])C([H])(n4nc(-c5c([H])c([H])c(Oc6c([H])c([H])c(F)c([H])c6F)c([H])c5[H])c(C(=O)N([H])[H])c4N([H])[H])C3([H])[H])C([H])([H])C([H])([H])C([H])([H])[H])c([H])c([H])c2C1([H])[H]

>  <smiles>  (27) 
[H]c1c([H])c([H])c2c(c1[H])C([H])([H])C([H])([H])C([H])([H])C2([H])N([H])C(=O)C1([H])N(C(=O)C([H])(N([H])C(=O)C([H])(N([H])C([H])([H])[H])C([H])([H])[H])C(C([H])([H])[H])(C([H])([H])[H])C([H])([H])[H])C([H])([H])c2c([H])c(OC([H])([H])C([H])([H])C3([H])C([H])([H])C3([H])C([H])(N([H])C(=O)N3C([H])([H])C([H])([H])C([H])([H])C([H])(n4nc(-c5c([H])c([H])c(Oc6c([H])c([H])c(F)c([H])c6F)c([H])c5[H])c(C(=O)N([H])[H])c4N([H])[H])C3([H])[H])C([H])([H])C([H])([H])C([H])([H])[H])c([H])c([H])c2C1([H])[H]

$$$$
27:0:0
     RDKit          3D

 90 98  0  0  1  0  0  0  0  0999 V2000
  -27.9540  -22.0010   19.0400 C   0  0  0  0  0  2  0  0  0  0  0  0
  -27.3270  -23.4720   19.2500 C   0  0  0  0  0  2  0  0  0  0  0  0
  -29.1190  -23.1140   20.7500 C   0  0  0  0  0  3  0  0  0  0  0  0
  -28.6980  -21.5180   20.3300 C   0  0  0  0  0  3  0  0  0  0  0  0
  -28.3760  -24.4010   19.9320 C   0  0  0  0  0  0  0  0  0  0  0  0
  -28.2580  -25.9970   20.2780 O   0  0  0  0  0  0  0  0  0  0  0  0
  -24.6470  -31.8560   23.1990 C   0  0  0  0  0  0  0  0  0  0  0  0
  -27.1990  -27.0210   20.1680 C   0  0  0  0  0  0  0  0  0  0  0  0
  -23.4430  -30.4550   21.5690 C   0  0  0  0  0  3  0  0  0  0  0  0
  -24.8820  -28.8550   20.1350 C   0  0  0  0  0  0  0  0  0  0  0  0
  -26.0020  -30.6850   21.4010 C   0  0  0  0  0  2  0  0  0  0  0  0
  -26.0680  -29.2790   20.7460 C   0  0  0  0  0  0  0  0  0  0  0  0
  -27.2170  -28.3800   20.7400 C   0  0  0  0  0  3  0  0  0  0  0  0
  -25.9850  -26.7330   19.5090 C   0  0  0  0  0  3  0  0  0  0  0  0
  -24.8630  -27.6020   19.4970 C   0  0  0  0  0  3  0  0  0  0  0  0
  -23.6600  -29.7680   20.1910 C   0  0  0  0  0  2  0  0  0  0  0  0
  -24.7190  -31.0260   22.1090 N   0  0  0  0  0  0  0  0  0  0  0  0
  -23.5630  -32.1430   23.7300 O   0  0  0  0  0  0  0  0  0  0  0  0
  -22.7610  -29.4590   22.5420 C   0  0  0  0  0  0  0  0  0  0  0  0
  -21.4300  -29.2930   22.4290 N   0  0  0  0  0  0  0  0  0  0  0  0
  -23.4350  -28.8350   23.3660 O   0  0  0  0  0  0  0  0  0  0  0  0
  -20.9380  -29.8480   21.7420 H   0  0  0  0  0  0  0  0  0  0  0  0
  -18.0560  -28.0710   22.9540 C   0  0  0  0  0  0  0  0  0  0  0  0
  -20.6150  -28.3550   23.2090 C   0  0  0  0  0  3  0  0  0  0  0  0
  -20.7240  -26.9190   22.6440 C   0  0  0  0  0  2  0  0  0  0  0  0
  -19.6220  -26.5830   21.6340 C   0  0  0  0  0  2  0  0  0  0  0  0
  -18.2410  -26.7210   22.2810 C   0  0  0  0  0  2  0  0  0  0  0  0
  -19.1710  -28.8450   23.3750 C   0  0  0  0  0  0  0  0  0  0  0  0
  -18.9420  -30.1060   23.9680 C   0  0  0  0  0  3  0  0  0  0  0  0
  -17.6330  -30.5950   24.1390 C   0  0  0  0  0  3  0  0  0  0  0  0
  -16.5340  -29.8190   23.7310 C   0  0  0  0  0  3  0  0  0  0  0  0
  -16.7460  -28.5590   23.1450 C   0  0  0  0  0  3  0  0  0  0  0  0
  -25.9240  -32.5000   23.8220 C   0  0  0  0  0  3  0  0  0  0  0  0
  -26.4460  -31.7340   25.1000 C   0  0  1  0  0  0  0  0  0  0  0  0
  -25.3580  -31.4970   26.1740 C   0  0  0  0  0  1  0  0  0  0  0  0
  -27.0290  -30.3550   24.7150 C   0  0  0  0  0  1  0  0  0  0  0  0
  -27.5980  -32.5300   25.7550 C   0  0  0  0  0  1  0  0  0  0  0  0
  -25.6060  -33.8970   24.1660 N   0  0  0  0  0  0  0  0  0  0  0  0
  -25.9240  -34.9640   23.4210 C   0  0  0  0  0  0  0  0  0  0  0  0
  -26.5810  -34.8760   22.3800 O   0  0  0  0  0  0  0  0  0  0  0  0
  -25.0260  -34.0400   24.9790 H   0  0  0  0  0  0  0  0  0  0  0  0
  -24.1850  -36.7570   23.1160 C   0  0  0  0  0  1  0  0  0  0  0  0
  -25.4400  -36.3460   23.9030 C   0  0  0  0  0  3  0  0  0  0  0  0
  -27.5820  -37.2320   24.7140 C   0  0  0  0  0  1  0  0  0  0  0  0
  -26.4660  -37.4050   23.7880 N   0  0  0  0  0  0  0  0  0  0  0  0
  -26.0580  -38.3220   23.9500 H   0  0  0  0  0  0  0  0  0  0  0  0
  -29.6800  -20.0240   20.4630 C   0  0  0  0  0  3  0  0  0  0  0  0
  -30.1620  -19.9790   21.8510 N   0  0  0  0  0  4  0  0  0  0  0  0
  -29.4400  -19.6540   22.4680 H   0  0  0  0  0  0  0  0  0  0  0  0
  -30.4530  -20.8930   22.1480 H   0  0  0  0  0  0  0  0  0  0  0  0
  -30.9540  -19.3670   21.9270 H   0  0  0  0  0  0  0  0  0  0  0  0
  -28.1400  -18.1660   19.3000 C   0  0  0  0  0  1  0  0  0  0  0  0
  -29.5190  -18.3210   19.9530 C   0  0  0  0  0  3  0  0  0  0  0  0
  -29.8970  -16.7780   20.7600 C   0  0  0  0  0  2  0  0  0  0  0  0
  -30.5730  -15.2530   20.2710 C   0  0  0  0  0  0  0  0  0  0  0  0
  -30.5280  -12.8220   19.3880 C   0  0  0  0  0  2  0  0  0  0  0  0
  -29.6150  -12.6820   18.1440 C   0  0  0  0  0  2  0  0  0  0  0  0
  -28.1570  -12.4340   18.5660 C   0  0  0  0  0  2  0  0  0  0  0  0
  -27.7160  -13.3810   19.7090 C   0  0  0  0  0  3  0  0  0  0  0  0
  -28.7560  -13.4770   20.8460 C   0  0  0  0  0  2  0  0  0  0  0  0
  -30.0150  -13.9490   20.2490 N   0  0  0  0  0  0  0  0  0  0  0  0
  -31.7540  -15.2600   19.9000 O   0  0  0  0  0  0  0  0  0  0  0  0
  -25.3350  -13.9440   20.4330 C   0  0  0  0  0  0  0  0  0  0  0  0
  -24.2690  -13.1680   20.7940 C   0  0  0  0  0  0  0  0  0  0  0  0
  -24.7370  -11.8170   20.7730 C   0  0  0  0  0  0  0  0  0  0  0  0
  -26.3810  -13.0690   20.2030 N   0  0  0  0  0  0  0  0  0  0  0  0
  -26.0320  -11.7830   20.4740 N   0  0  0  0  0  0  0  0  0  0  0  0
  -24.0090  -10.5550   20.9620 C   0  0  0  0  0  0  0  0  0  0  0  0
  -24.4350   -9.5860   21.8960 C   0  0  0  0  0  3  0  0  0  0  0  0
  -23.7040   -8.3920   22.0730 C   0  0  0  0  0  3  0  0  0  0  0  0
  -22.5320   -8.1570   21.3150 C   0  0  0  0  0  0  0  0  0  0  0  0
  -22.1260   -9.1150   20.3690 C   0  0  0  0  0  3  0  0  0  0  0  0
  -22.8560  -10.3000   20.1900 C   0  0  0  0  0  3  0  0  0  0  0  0
  -21.7730   -7.0150   21.4020 O   0  0  0  0  0  0  0  0  0  0  0  0
  -21.7210   -6.2710   22.5540 C   0  0  0  0  0  0  0  0  0  0  0  0
  -21.2960   -6.8270   23.7820 C   0  0  0  0  0  3  0  0  0  0  0  0
  -21.1900   -6.0080   24.9240 C   0  0  0  0  0  3  0  0  0  0  0  0
  -21.4990   -4.6380   24.8410 C   0  0  0  0  0  0  0  0  0  0  0  0
  -21.9170   -4.0820   23.6190 C   0  0  0  0  0  3  0  0  0  0  0  0
  -22.0240   -4.8960   22.4780 C   0  0  0  0  0  0  0  0  0  0  0  0
  -22.4060   -4.3520   21.2990 F   0  0  0  0  0  0  0  0  0  0  0  0
  -21.3910   -3.8510   25.9370 F   0  0  0  0  0  0  0  0  0  0  0  0
  -22.8700  -13.6450   21.0470 C   0  0  0  0  0  0  0  0  0  0  0  0
  -22.1330  -12.9540   21.9090 N   0  0  0  0  0  0  0  0  0  0  0  0
  -22.4390  -14.6680   20.5160 O   0  0  0  0  0  0  0  0  0  0  0  0
  -22.4950  -12.1270   22.3590 H   0  0  0  0  0  0  0  0  0  0  0  0
  -21.1920  -13.2570   22.1210 H   0  0  0  0  0  0  0  0  0  0  0  0
  -25.5000  -15.3150   20.2550 N   0  0  0  0  0  0  0  0  0  0  0  0
  -24.7330  -15.9690   20.3670 H   0  0  0  0  0  0  0  0  0  0  0  0
  -26.3550  -15.7550   19.9440 H   0  0  0  0  0  0  0  0  0  0  0  0
  1  2  1  0
  1  4  1  0
  2  5  1  0
  4 47  1  0
  4  3  1  0
  5  6  1  0
  5  3  2  0
  7 18  2  0
  8  6  1  0
  8 13  1  0
  9 17  1  0
  9 19  1  0
 10 16  1  0
 10 12  1  0
 11 17  1  0
 12 11  1  0
 13 12  2  0
 14  8  2  0
 15 14  1  0
 15 10  2  0
 16  9  1  0
 17  7  1  0
 19 21  2  0
 20 19  1  0
 22 20  1  0
 23 32  2  0
 23 28  1  0
 24 20  1  0
 24 28  1  0
 25 24  1  0
 26 27  1  0
 26 25  1  0
 27 23  1  0
 28 29  2  0
 29 30  1  0
 31 30  2  0
 32 31  1  0
 33  7  1  0
 33 38  1  0
 33 34  1  0
 34 37  1  1
 34 35  1  0
 36 34  1  0
 38 41  1  0
 39 43  1  0
 39 38  1  0
 40 39  2  0
 43 42  1  0
 45 43  1  0
 45 46  1  0
 45 44  1  0
 47 48  1  0
 48 51  1  0
 48 50  1  0
 48 49  1  0
 53 52  1  0
 53 47  1  0
 53 54  1  0
 55 54  1  0
 56 61  1  0
 57 58  1  0
 57 56  1  0
 59 58  1  0
 59 66  1  0
 59 60  1  0
 61 55  1  0
 61 60  1  0
 62 55  2  0
 63 64  2  0
 64 83  1  0
 65 64  1  0
 65 68  1  0
 66 63  1  0
 66 67  1  0
 67 65  2  0
 68 69  1  0
 69 70  2  0
 71 74  1  0
 71 70  1  0
 72 71  2  0
 73 72  1  0
 73 68  2  0
 74 75  1  0
 75 76  1  0
 76 77  2  0
 78 77  1  0
 78 82  1  0
 79 78  2  0
 80 75  2  0
 80 79  1  0
 81 80  1  0
 83 84  1  0
 84 87  1  0
 84 86  1  0
 85 83  2  0
 88 89  1  0
 88 63  1  0
 90 88  1  0
M  ISO  4   5 101   6 101  54 100  55 100
M  END
>  <TORSDO>  (28) 
F 20

>  <SCORE>  (28) 
-16.080

>  <name>  (28) 
27

>  <ligand_id>  (28) 
27

>  <original_smiles>  (28) 
[H]c1c([H])c([H])c2c(c1[H])C([H])([H])C([H])([H])C([H])([H])C2([H])N([H])C(=O)C1([H])N(C(=O)C([H])(N([H])C(=O)C([H])(N([H])C([H])([H])[H])C([H])([H])[H])C(C([H])([H])[H])(C([H])([H])[H])C([H])([H])[H])C([H])([H])c2c([H])c(OC3([H])C([H])([H])C([H])([H])C([H])(C([H])(C([H])(C([H])([H])[H])C([H])([H])C(=O)N4C([H])([H])C([H])([H])C([H])([H])C([H])(n5nc(-c6c([H])c([H])c(Oc7c([H])c([H])c(F)c([H])c7F)c([H])c6[H])c(C(=O)N([H])[H])c5N([H])[H])C4([H])[H])[N+]([H])([H])[H])C3([H])[H])c([H])c([H])c2C1([H])[H]

>  <smiles>  (28) 
[H]c1c([H])c([H])c2c(c1[H])C([H])([H])C([H])([H])C([H])([H])C2([H])N([H])C(=O)C1([H])N(C(=O)C([H])(N([H])C(=O)C([H])(N([H])C([H])([H])[H])C([H])([H])[H])C(C([H])([H])[H])(C([H])([H])[H])C([H])([H])[H])C([H])([H])c2c([H])c(OC3([H])C([H])([H])C([H])([H])C([H])(C([H])(C([H])(C([H])([H])[H])C([H])([H])C(=O)N4C([H])([H])C([H])([H])C([H])([H])C([H])(n5nc(-c6c([H])c([H])c(Oc7c([H])c([H])c(F)c([H])c7F)c([H])c6[H])c(C(=O)N([H])[H])c5N([H])[H])C4([H])[H])[N+]([H])([H])[H])C3([H])[H])c([H])c([H])c2C1([H])[H]

$$$$
28:0:0
     RDKit          3D

 87 95  0  0  1  0  0  0  0  0999 V2000
  -29.2300  -21.2780   19.9350 C   0  0  0  0  0  2  0  0  0  0  0  0
  -28.0600  -18.9450   19.4360 C   0  0  0  0  0  0  0  0  0  0  0  0
  -29.1820  -18.2120   18.6430 C   0  0  0  0  0  2  0  0  0  0  0  0
  -29.0910  -19.5550   20.4040 C   0  0  0  0  0  3  0  0  0  0  0  0
  -29.9640  -18.0570   19.9680 C   0  0  0  0  0  3  0  0  0  0  0  0
  -26.8300  -18.9790   19.3530 O   0  0  0  0  0  0  0  0  0  0  0  0
  -30.5200  -15.2180   20.2070 C   0  0  0  0  0  0  0  0  0  0  0  0
  -30.4430  -12.8090   19.2950 C   0  0  0  0  0  2  0  0  0  0  0  0
  -29.5060  -12.6840   18.0700 C   0  0  0  0  0  2  0  0  0  0  0  0
  -28.0530  -12.4370   18.5130 C   0  0  0  0  0  2  0  0  0  0  0  0
  -27.6370  -13.3570   19.6900 C   0  0  0  0  0  3  0  0  0  0  0  0
  -28.7050  -13.4400   20.8040 C   0  0  0  0  0  2  0  0  0  0  0  0
  -29.9420  -13.9240   20.1740 N   0  0  0  0  0  0  0  0  0  0  0  0
  -31.7130  -15.2390   19.8790 O   0  0  0  0  0  0  0  0  0  0  0  0
  -29.7700  -16.4680   20.3980 N   0  0  0  0  0  0  0  0  0  0  0  0
  -28.8420  -16.2700   20.7440 H   0  0  0  0  0  0  0  0  0  0  0  0
  -25.2700  -13.9050   20.4670 C   0  0  0  0  0  0  0  0  0  0  0  0
  -24.2160  -13.1220   20.8460 C   0  0  0  0  0  0  0  0  0  0  0  0
  -24.6880  -11.7740   20.8020 C   0  0  0  0  0  0  0  0  0  0  0  0
  -26.3130  -13.0350   20.2070 N   0  0  0  0  0  0  0  0  0  0  0  0
  -25.9760  -11.7470   20.4750 N   0  0  0  0  0  0  0  0  0  0  0  0
  -23.9660  -10.5080   20.9930 C   0  0  0  0  0  0  0  0  0  0  0  0
  -24.3960   -9.5450   21.9330 C   0  0  0  0  0  3  0  0  0  0  0  0
  -23.6720   -8.3470   22.1130 C   0  0  0  0  0  3  0  0  0  0  0  0
  -22.5040   -8.0990   21.3520 C   0  0  0  0  0  0  0  0  0  0  0  0
  -22.0930   -9.0500   20.4010 C   0  0  0  0  0  3  0  0  0  0  0  0
  -22.8180  -10.2410   20.2190 C   0  0  0  0  0  3  0  0  0  0  0  0
  -21.7530   -6.9520   21.4420 O   0  0  0  0  0  0  0  0  0  0  0  0
  -21.6840   -6.2250   22.6040 C   0  0  0  0  0  0  0  0  0  0  0  0
  -21.1990   -6.7860   23.8050 C   0  0  0  0  0  3  0  0  0  0  0  0
  -21.0790   -5.9850   24.9590 C   0  0  0  0  0  3  0  0  0  0  0  0
  -21.4330   -4.6230   24.9100 C   0  0  0  0  0  0  0  0  0  0  0  0
  -21.9090   -4.0610   23.7130 C   0  0  0  0  0  3  0  0  0  0  0  0
  -22.0320   -4.8600   22.5630 C   0  0  0  0  0  0  0  0  0  0  0  0
  -22.4710   -4.3080   21.4050 F   0  0  0  0  0  0  0  0  0  0  0  0
  -21.3110   -3.8500   26.0150 F   0  0  0  0  0  0  0  0  0  0  0  0
  -22.8200  -13.5910   21.1320 C   0  0  0  0  0  0  0  0  0  0  0  0
  -22.0990  -12.8860   21.9970 N   0  0  0  0  0  0  0  0  0  0  0  0
  -22.3760  -14.6190   20.6240 O   0  0  0  0  0  0  0  0  0  0  0  0
  -22.4710  -12.0560   22.4330 H   0  0  0  0  0  0  0  0  0  0  0  0
  -21.1600  -13.1790   22.2240 H   0  0  0  0  0  0  0  0  0  0  0  0
  -25.4230  -15.2770   20.2930 N   0  0  0  0  0  0  0  0  0  0  0  0
  -24.6520  -15.9240   20.4150 H   0  0  0  0  0  0  0  0  0  0  0  0
  -26.2470  -15.7200   19.9070 H   0  0  0  0  0  0  0  0  0  0  0  0
  -28.5370  -22.7930   20.5670 C   0  0  0  0  0  2  0  0  0  0  0  0
  -28.2690  -24.3940   19.8300 C   0  0  0  0  0  2  0  0  0  0  0  0
  -28.2210  -25.9450   20.3390 O   0  0  0  0  0  0  0  0  0  0  0  0
  -24.6040  -31.8470   23.1920 C   0  0  0  0  0  0  0  0  0  0  0  0
  -27.1890  -27.0000   20.2030 C   0  0  0  0  0  0  0  0  0  0  0  0
  -23.4180  -30.4380   21.5540 C   0  0  0  0  0  3  0  0  0  0  0  0
  -24.8750  -28.8400   20.1390 C   0  0  0  0  0  0  0  0  0  0  0  0
  -25.9790  -30.6670   21.4140 C   0  0  0  0  0  2  0  0  0  0  0  0
  -26.0550  -29.2600   20.7650 C   0  0  0  0  0  0  0  0  0  0  0  0
  -27.2030  -28.3580   20.7780 C   0  0  0  0  0  3  0  0  0  0  0  0
  -25.9840  -26.7220   19.5190 C   0  0  0  0  0  3  0  0  0  0  0  0
  -24.8630  -27.5900   19.4970 C   0  0  0  0  0  3  0  0  0  0  0  0
  -23.6500  -29.7500   20.1810 C   0  0  0  0  0  2  0  0  0  0  0  0
  -24.6880  -31.0110   22.1070 N   0  0  0  0  0  0  0  0  0  0  0  0
  -23.5130  -32.1370   23.7090 O   0  0  0  0  0  0  0  0  0  0  0  0
  -22.7280  -29.4430   22.5240 C   0  0  0  0  0  0  0  0  0  0  0  0
  -21.3960  -29.2820   22.4040 N   0  0  0  0  0  0  0  0  0  0  0  0
  -23.3950  -28.8190   23.3520 O   0  0  0  0  0  0  0  0  0  0  0  0
  -20.9120  -29.8390   21.7130 H   0  0  0  0  0  0  0  0  0  0  0  0
  -18.0070  -28.1070   22.9410 C   0  0  0  0  0  0  0  0  0  0  0  0
  -20.5720  -28.3480   23.1790 C   0  0  0  0  0  3  0  0  0  0  0  0
  -20.6550  -26.9190   22.5950 C   0  0  0  0  0  2  0  0  0  0  0  0
  -19.5380  -26.6120   21.5900 C   0  0  0  0  0  2  0  0  0  0  0  0
  -18.1660  -26.7620   22.2510 C   0  0  0  0  0  2  0  0  0  0  0  0
  -19.1370  -28.8580   23.3620 C   0  0  0  0  0  0  0  0  0  0  0  0
  -18.9330  -30.1150   23.9710 C   0  0  0  0  0  3  0  0  0  0  0  0
  -17.6340  -30.6230   24.1600 C   0  0  0  0  0  3  0  0  0  0  0  0
  -16.5190  -29.8680   23.7530 C   0  0  0  0  0  3  0  0  0  0  0  0
  -16.7080  -28.6110   23.1510 C   0  0  0  0  0  3  0  0  0  0  0  0
  -25.8740  -32.4930   23.8240 C   0  0  0  0  0  3  0  0  0  0  0  0
  -26.3750  -31.7390   25.1170 C   0  0  1  0  0  0  0  0  0  0  0  0
  -25.2690  -31.5130   26.1760 C   0  0  0  0  0  1  0  0  0  0  0  0
  -26.9650  -30.3560   24.7580 C   0  0  0  0  0  1  0  0  0  0  0  0
  -27.5180  -32.5420   25.7830 C   0  0  0  0  0  1  0  0  0  0  0  0
  -25.5560  -33.8960   24.1480 N   0  0  0  0  0  0  0  0  0  0  0  0
  -25.8910  -34.9510   23.3950 C   0  0  0  0  0  0  0  0  0  0  0  0
  -26.5640  -34.8490   22.3660 O   0  0  0  0  0  0  0  0  0  0  0  0
  -24.9550  -34.0490   24.9450 H   0  0  0  0  0  0  0  0  0  0  0  0
  -24.1700  -36.7550   23.0340 C   0  0  0  0  0  1  0  0  0  0  0  0
  -25.4040  -36.3430   23.8530 C   0  0  0  0  0  3  0  0  0  0  0  0
  -27.5310  -37.2260   24.7080 C   0  0  0  0  0  1  0  0  0  0  0  0
  -26.4410  -37.3940   23.7500 N   0  0  0  0  0  0  0  0  0  0  0  0
  -26.0350  -38.3150   23.8890 H   0  0  0  0  0  0  0  0  0  0  0  0
  1 45  1  0
  2  4  1  0
  3  2  1  0
  3  5  1  0
  4  1  1  0
  5 15  1  0
  5  4  1  0
  6  2  2  0
  7 15  1  0
  8 13  1  0
  9 10  1  0
  9  8  1  0
 11 10  1  0
 11 20  1  0
 11 12  1  0
 13  7  1  0
 13 12  1  0
 14  7  2  0
 15 16  1  0
 17 18  2  0
 18 37  1  0
 19 18  1  0
 19 22  1  0
 20 17  1  0
 20 21  1  0
 21 19  2  0
 22 23  1  0
 23 24  2  0
 25 28  1  0
 25 24  1  0
 26 25  2  0
 27 26  1  0
 27 22  2  0
 28 29  1  0
 29 30  1  0
 30 31  2  0
 32 31  1  0
 32 36  1  0
 33 32  2  0
 34 29  2  0
 34 33  1  0
 35 34  1  0
 37 38  1  0
 38 41  1  0
 38 40  1  0
 39 37  2  0
 42 43  1  0
 42 17  1  0
 44 42  1  0
 46 47  1  0
 46 45  1  0
 48 59  2  0
 49 47  1  0
 49 54  1  0
 50 58  1  0
 50 60  1  0
 51 57  1  0
 51 53  1  0
 52 58  1  0
 53 54  2  0
 53 52  1  0
 55 49  2  0
 56 55  1  0
 56 51  2  0
 57 50  1  0
 58 48  1  0
 60 62  2  0
 61 60  1  0
 63 61  1  0
 64 73  2  0
 64 69  1  0
 65 61  1  0
 65 69  1  0
 66 65  1  0
 67 68  1  0
 67 66  1  0
 68 64  1  0
 69 70  2  0
 70 71  1  0
 72 71  2  0
 73 72  1  0
 74 48  1  0
 74 79  1  0
 74 75  1  0
 75 78  1  1
 75 76  1  0
 77 75  1  0
 79 82  1  0
 80 84  1  0
 80 79  1  0
 81 80  2  0
 84 83  1  0
 86 84  1  0
 86 87  1  0
 86 85  1  0
M  ISO  4   7 100  15 100  46 101  47 101
M  END
>  <TORSDO>  (29) 
F 19

>  <SCORE>  (29) 
-15.599

>  <name>  (29) 
28

>  <ligand_id>  (29) 
28

>  <original_smiles>  (29) 
[H]c1c([H])c([H])c2c(c1[H])C([H])([H])C([H])([H])C([H])([H])C2([H])N([H])C(=O)C1([H])N(C(=O)C([H])(N([H])C(=O)C([H])(N([H])C([H])([H])[H])C([H])([H])[H])C(C([H])([H])[H])(C([H])([H])[H])C([H])([H])[H])C([H])([H])c2c([H])c(OC([H])([H])C([H])([H])C([H])([H])C3([H])C(=O)C([H])([H])C3([H])N([H])C(=O)N3C([H])([H])C([H])([H])C([H])([H])C([H])(n4nc(-c5c([H])c([H])c(Oc6c([H])c([H])c(F)c([H])c6F)c([H])c5[H])c(C(=O)N([H])[H])c4N([H])[H])C3([H])[H])c([H])c([H])c2C1([H])[H]

>  <smiles>  (29) 
[H]c1c([H])c([H])c2c(c1[H])C([H])([H])C([H])([H])C([H])([H])C2([H])N([H])C(=O)C1([H])N(C(=O)C([H])(N([H])C(=O)C([H])(N([H])C([H])([H])[H])C([H])([H])[H])C(C([H])([H])[H])(C([H])([H])[H])C([H])([H])[H])C([H])([H])c2c([H])c(OC([H])([H])C([H])([H])C([H])([H])C3([H])C(=O)C([H])([H])C3([H])N([H])C(=O)N3C([H])([H])C([H])([H])C([H])([H])C([H])(n4nc(-c5c([H])c([H])c(Oc6c([H])c([H])c(F)c([H])c6F)c([H])c5[H])c(C(=O)N([H])[H])c4N([H])[H])C3([H])[H])c([H])c([H])c2C1([H])[H]

$$$$
29:0:0
     RDKit          3D

 90 98  0  0  1  0  0  0  0  0999 V2000
  -27.0830  -22.9150   19.6420 C   0  0  0  0  0  3  0  0  0  0  0  0
  -29.2000  -22.0910   20.4180 C   0  0  0  0  0  3  0  0  0  0  0  0
  -28.3000  -23.2810   20.2490 C   0  0  0  0  0  0  0  0  0  0  0  0
  -26.7970  -21.5720   19.3040 C   0  0  0  0  0  0  0  0  0  0  0  0
  -28.8630  -20.6850   20.0310 C   0  0  0  0  0  0  0  0  0  0  0  0
  -27.6360  -20.5220   19.4920 N   0  0  0  0  0  0  0  0  0  0  0  0
  -25.5880  -21.0520   17.1400 C   0  0  0  0  0  1  0  0  0  0  0  0
  -25.4670  -21.2270   18.6580 C   0  0  0  0  0  2  0  0  0  0  0  0
  -28.4000  -24.8310   20.8680 C   0  0  0  0  0  2  0  0  0  0  0  0
  -28.3100  -26.2390   20.1790 O   0  0  0  0  0  0  0  0  0  0  0  0
  -24.6190  -31.9320   23.2560 C   0  0  0  0  0  0  0  0  0  0  0  0
  -27.2230  -27.1910   20.2640 C   0  0  0  0  0  0  0  0  0  0  0  0
  -23.4280  -30.5210   21.6230 C   0  0  0  0  0  3  0  0  0  0  0  0
  -24.8850  -28.9360   20.2170 C   0  0  0  0  0  0  0  0  0  0  0  0
  -25.9810  -30.7950   21.4570 C   0  0  0  0  0  2  0  0  0  0  0  0
  -26.0640  -29.3920   20.8220 C   0  0  0  0  0  0  0  0  0  0  0  0
  -27.2360  -28.5390   20.8200 C   0  0  0  0  0  3  0  0  0  0  0  0
  -26.0150  -26.8360   19.6300 C   0  0  0  0  0  3  0  0  0  0  0  0
  -24.8750  -27.6720   19.6060 C   0  0  0  0  0  3  0  0  0  0  0  0
  -23.6560  -29.8330   20.2500 C   0  0  0  0  0  2  0  0  0  0  0  0
  -24.6970  -31.1060   22.1660 N   0  0  0  0  0  0  0  0  0  0  0  0
  -23.5310  -32.2120   23.7810 O   0  0  0  0  0  0  0  0  0  0  0  0
  -22.7530  -29.5180   22.5910 C   0  0  0  0  0  0  0  0  0  0  0  0
  -21.4260  -29.3370   22.4620 N   0  0  0  0  0  0  0  0  0  0  0  0
  -23.4260  -28.9020   23.4200 O   0  0  0  0  0  0  0  0  0  0  0  0
  -20.9380  -29.8850   21.7680 H   0  0  0  0  0  0  0  0  0  0  0  0
  -18.0520  -28.1210   22.9740 C   0  0  0  0  0  0  0  0  0  0  0  0
  -20.6100  -28.3980   23.2370 C   0  0  0  0  0  3  0  0  0  0  0  0
  -20.7180  -26.9650   22.6660 C   0  0  0  0  0  2  0  0  0  0  0  0
  -19.6160  -26.6330   21.6550 C   0  0  0  0  0  2  0  0  0  0  0  0
  -18.2340  -26.7710   22.2990 C   0  0  0  0  0  2  0  0  0  0  0  0
  -19.1670  -28.8910   23.4000 C   0  0  0  0  0  0  0  0  0  0  0  0
  -18.9390  -30.1530   23.9920 C   0  0  0  0  0  3  0  0  0  0  0  0
  -17.6320  -30.6430   24.1620 C   0  0  0  0  0  3  0  0  0  0  0  0
  -16.5320  -29.8710   23.7510 C   0  0  0  0  0  3  0  0  0  0  0  0
  -16.7420  -28.6100   23.1630 C   0  0  0  0  0  3  0  0  0  0  0  0
  -25.8920  -32.5800   23.8820 C   0  0  0  0  0  3  0  0  0  0  0  0
  -26.3920  -31.8330   25.1790 C   0  0  1  0  0  0  0  0  0  0  0  0
  -25.2860  -31.6120   26.2380 C   0  0  0  0  0  1  0  0  0  0  0  0
  -26.9830  -30.4480   24.8250 C   0  0  0  0  0  1  0  0  0  0  0  0
  -27.5330  -32.6410   25.8410 C   0  0  0  0  0  1  0  0  0  0  0  0
  -25.5770  -33.9830   24.1900 N   0  0  0  0  0  0  0  0  0  0  0  0
  -25.9180  -35.0300   23.4250 C   0  0  0  0  0  0  0  0  0  0  0  0
  -26.5970  -34.9150   22.4010 O   0  0  0  0  0  0  0  0  0  0  0  0
  -24.9760  -34.1470   24.9840 H   0  0  0  0  0  0  0  0  0  0  0  0
  -24.2130  -36.8370   23.0230 C   0  0  0  0  0  1  0  0  0  0  0  0
  -25.4310  -36.4250   23.8660 C   0  0  0  0  0  3  0  0  0  0  0  0
  -27.5470  -37.3060   24.7490 C   0  0  0  0  0  1  0  0  0  0  0  0
  -26.4750  -37.4710   23.7720 N   0  0  0  0  0  0  0  0  0  0  0  0
  -26.0710  -38.3950   23.8960 H   0  0  0  0  0  0  0  0  0  0  0  0
  -29.7830  -19.2920   19.8570 C   0  0  0  0  0  2  0  0  0  0  0  0
  -29.7720  -17.8260   20.7310 C   0  0  0  0  0  2  0  0  0  0  0  0
  -30.5810  -15.1390   20.1340 C   0  0  0  0  0  0  0  0  0  0  0  0
  -30.4880  -12.7890   19.1380 C   0  0  0  0  0  2  0  0  0  0  0  0
  -29.5060  -12.7170   17.9460 C   0  0  0  0  0  2  0  0  0  0  0  0
  -28.0620  -12.4810   18.4320 C   0  0  0  0  0  2  0  0  0  0  0  0
  -27.6830  -13.3920   19.6280 C   0  0  0  0  0  3  0  0  0  0  0  0
  -28.7800  -13.4100   20.7110 C   0  0  0  0  0  2  0  0  0  0  0  0
  -30.0110  -13.8660   20.0520 N   0  0  0  0  0  0  0  0  0  0  0  0
  -31.7970  -15.2210   19.9250 O   0  0  0  0  0  0  0  0  0  0  0  0
  -29.7410  -16.2960   20.2350 N   0  0  0  0  0  0  0  0  0  0  0  0
  -28.7840  -15.9890   20.1600 H   0  0  0  0  0  0  0  0  0  0  0  0
  -25.3300  -13.9480   20.4620 C   0  0  0  0  0  0  0  0  0  0  0  0
  -24.2830  -13.1620   20.8570 C   0  0  0  0  0  0  0  0  0  0  0  0
  -24.7550  -11.8140   20.7920 C   0  0  0  0  0  0  0  0  0  0  0  0
  -26.3680  -13.0800   20.1730 N   0  0  0  0  0  0  0  0  0  0  0  0
  -26.0340  -11.7900   20.4400 N   0  0  0  0  0  0  0  0  0  0  0  0
  -24.0400  -10.5460   20.9870 C   0  0  0  0  0  0  0  0  0  0  0  0
  -24.4840   -9.5840   21.9220 C   0  0  0  0  0  3  0  0  0  0  0  0
  -23.7680   -8.3810   22.1050 C   0  0  0  0  0  3  0  0  0  0  0  0
  -22.5950   -8.1320   21.3540 C   0  0  0  0  0  0  0  0  0  0  0  0
  -22.1710   -9.0830   20.4080 C   0  0  0  0  0  3  0  0  0  0  0  0
  -22.8870  -10.2760   20.2230 C   0  0  0  0  0  3  0  0  0  0  0  0
  -21.8500   -6.9810   21.4460 O   0  0  0  0  0  0  0  0  0  0  0  0
  -21.7860   -6.2570   22.6090 C   0  0  0  0  0  0  0  0  0  0  0  0
  -21.2840   -6.8110   23.8060 C   0  0  0  0  0  3  0  0  0  0  0  0
  -21.1720   -6.0110   24.9620 C   0  0  0  0  0  3  0  0  0  0  0  0
  -21.5520   -4.6570   24.9190 C   0  0  0  0  0  0  0  0  0  0  0  0
  -22.0470   -4.1010   23.7260 C   0  0  0  0  0  3  0  0  0  0  0  0
  -22.1610   -4.8990   22.5740 C   0  0  0  0  0  0  0  0  0  0  0  0
  -22.6190   -4.3520   21.4220 F   0  0  0  0  0  0  0  0  0  0  0  0
  -21.4380   -3.8850   26.0250 F   0  0  0  0  0  0  0  0  0  0  0  0
  -22.8920  -13.6270   21.1750 C   0  0  0  0  0  0  0  0  0  0  0  0
  -22.1920  -12.9130   22.0490 N   0  0  0  0  0  0  0  0  0  0  0  0
  -22.4360  -14.6600   20.6860 O   0  0  0  0  0  0  0  0  0  0  0  0
  -22.5740  -12.0770   22.4650 H   0  0  0  0  0  0  0  0  0  0  0  0
  -21.2590  -13.2060   22.3040 H   0  0  0  0  0  0  0  0  0  0  0  0
  -25.4760  -15.3220   20.2950 N   0  0  0  0  0  0  0  0  0  0  0  0
  -24.6990  -15.9600   20.4350 H   0  0  0  0  0  0  0  0  0  0  0  0
  -26.2890  -15.7750   19.9010 H   0  0  0  0  0  0  0  0  0  0  0  0
  1  3  1  0
  3  2  2  0
  3  9  1  0
  4  6  1  0
  4  1  2  0
  5  2  1  0
  6  5  2  0
  7  8  1  0
  8  4  1  0
 10 12  1  0
 10  9  1  0
 11 22  2  0
 12 17  1  0
 13 21  1  0
 13 23  1  0
 14 20  1  0
 14 16  1  0
 15 21  1  0
 16 15  1  0
 17 16  2  0
 18 12  2  0
 19 18  1  0
 19 14  2  0
 20 13  1  0
 21 11  1  0
 23 25  2  0
 24 23  1  0
 26 24  1  0
 27 36  2  0
 27 32  1  0
 28 24  1  0
 28 32  1  0
 29 28  1  0
 30 31  1  0
 30 29  1  0
 31 27  1  0
 32 33  2  0
 33 34  1  0
 35 34  2  0
 36 35  1  0
 37 11  1  0
 37 42  1  0
 37 38  1  0
 38 41  1  1
 38 39  1  0
 40 38  1  0
 42 45  1  0
 43 47  1  0
 43 42  1  0
 44 43  2  0
 47 46  1  0
 49 47  1  0
 49 50  1  0
 49 48  1  0
 51  5  1  0
 51 52  1  0
 53 61  1  0
 54 59  1  0
 55 56  1  0
 55 54  1  0
 57 56  1  0
 57 66  1  0
 57 58  1  0
 59 53  1  0
 59 58  1  0
 60 53  2  0
 61 52  1  0
 62 61  1  0
 63 64  2  0
 64 83  1  0
 65 64  1  0
 65 68  1  0
 66 67  1  0
 66 63  1  0
 67 65  2  0
 68 69  1  0
 69 70  2  0
 71 74  1  0
 71 70  1  0
 72 71  2  0
 73 72  1  0
 73 68  2  0
 74 75  1  0
 75 76  1  0
 76 77  2  0
 78 77  1  0
 78 82  1  0
 79 78  2  0
 80 75  2  0
 80 79  1  0
 81 80  1  0
 83 84  1  0
 84 87  1  0
 84 86  1  0
 85 83  2  0
 88 89  1  0
 88 63  1  0
 90 88  1  0
M  ISO  4   9 101  10 101  53 100  61 100
M  END
>  <TORSDO>  (30) 
F 20

>  <SCORE>  (30) 
-14.208

>  <name>  (30) 
29

>  <ligand_id>  (30) 
29

>  <original_smiles>  (30) 
[H]c1c([H])c([H])c2c(c1[H])C([H])([H])C([H])([H])C([H])([H])C2([H])N([H])C(=O)C1([H])N(C(=O)C([H])(N([H])C(=O)C([H])(N([H])C([H])([H])[H])C([H])([H])[H])C(C([H])([H])[H])(C([H])([H])[H])C([H])([H])[H])C([H])([H])c2c([H])c(OC([H])([H])c3c([H])c(C([H])([H])C([H])([H])[H])nc(C([H])([H])C([H])([H])N([H])C(=O)N4C([H])([H])C([H])([H])C([H])([H])C([H])(n5nc(-c6c([H])c([H])c(Oc7c([H])c([H])c(F)c([H])c7F)c([H])c6[H])c(C(=O)N([H])[H])c5N([H])[H])C4([H])[H])c3[H])c([H])c([H])c2C1([H])[H]

>  <smiles>  (30) 
[H]c1c([H])c([H])c2c(c1[H])C([H])([H])C([H])([H])C([H])([H])C2([H])N([H])C(=O)C1([H])N(C(=O)C([H])(N([H])C(=O)C([H])(N([H])C([H])([H])[H])C([H])([H])[H])C(C([H])([H])[H])(C([H])([H])[H])C([H])([H])[H])C([H])([H])c2c([H])c(OC([H])([H])c3c([H])c(C([H])([H])C([H])([H])[H])nc(C([H])([H])C([H])([H])N([H])C(=O)N4C([H])([H])C([H])([H])C([H])([H])C([H])(n5nc(-c6c([H])c([H])c(Oc7c([H])c([H])c(F)c([H])c7F)c([H])c6[H])c(C(=O)N([H])[H])c5N([H])[H])C4([H])[H])c3[H])c([H])c([H])c2C1([H])[H]

$$$$
30:0:0
     RDKit          3D

 89 98  0  0  1  0  0  0  0  0999 V2000
  -27.6400  -20.9880   20.4990 C   0  0  0  0  0  2  0  0  0  0  0  0
  -29.0160  -20.4930   20.7300 C   0  0  0  0  0  3  0  0  0  0  0  0
  -28.6760  -22.0530   20.1380 C   0  0  0  0  0  3  0  0  0  0  0  0
  -29.5970  -16.3850   18.7730 C   0  0  0  0  0  3  0  0  0  0  0  0
  -29.2600  -17.5440   18.0600 C   0  0  0  0  0  3  0  0  0  0  0  0
  -29.7680  -17.7500   20.7600 C   0  0  0  0  0  3  0  0  0  0  0  0
  -29.9250  -16.4030   20.1390 C   0  0  0  0  0  0  0  0  0  0  0  0
  -29.3380  -19.0060   20.0640 C   0  0  0  0  0  0  0  0  0  0  0  0
  -29.1760  -18.8220   18.6540 C   0  0  0  0  0  0  0  0  0  0  0  0
  -28.9680  -19.9680   17.6720 C   0  0  0  0  0  1  0  0  0  0  0  0
  -30.6390  -15.0630   20.6590 C   0  0  0  0  0  0  0  0  0  0  0  0
  -30.5870  -12.6830   19.8080 C   0  0  0  0  0  2  0  0  0  0  0  0
  -29.7340  -12.5520   18.5250 C   0  0  0  0  0  2  0  0  0  0  0  0
  -28.2400  -12.3860   18.8660 C   0  0  0  0  0  2  0  0  0  0  0  0
  -27.7530  -13.3540   19.9760 C   0  0  0  0  0  3  0  0  0  0  0  0
  -28.7350  -13.4310   21.1580 C   0  0  0  0  0  2  0  0  0  0  0  0
  -30.0420  -13.8070   20.6140 N   0  0  0  0  0  0  0  0  0  0  0  0
  -31.8730  -15.0910   20.6500 O   0  0  0  0  0  0  0  0  0  0  0  0
  -25.3310  -13.9220   20.5800 C   0  0  0  0  0  0  0  0  0  0  0  0
  -24.2540  -13.1420   20.9000 C   0  0  0  0  0  0  0  0  0  0  0  0
  -24.7340  -11.7970   20.9250 C   0  0  0  0  0  0  0  0  0  0  0  0
  -26.3940  -13.0510   20.4130 N   0  0  0  0  0  0  0  0  0  0  0  0
  -26.0410  -11.7690   20.6950 N   0  0  0  0  0  0  0  0  0  0  0  0
  -24.0100  -10.5290   21.0940 C   0  0  0  0  0  0  0  0  0  0  0  0
  -24.3990   -9.5790   22.0640 C   0  0  0  0  0  3  0  0  0  0  0  0
  -23.6730   -8.3770   22.2200 C   0  0  0  0  0  3  0  0  0  0  0  0
  -22.5450   -8.1180   21.4050 C   0  0  0  0  0  0  0  0  0  0  0  0
  -22.1760   -9.0570   20.4270 C   0  0  0  0  0  3  0  0  0  0  0  0
  -22.9020  -10.2490   20.2680 C   0  0  0  0  0  3  0  0  0  0  0  0
  -21.7970   -6.9670   21.4690 O   0  0  0  0  0  0  0  0  0  0  0  0
  -21.6960   -6.2360   22.6250 C   0  0  0  0  0  0  0  0  0  0  0  0
  -21.2020   -6.7990   23.8230 C   0  0  0  0  0  3  0  0  0  0  0  0
  -21.0490   -5.9940   24.9690 C   0  0  0  0  0  3  0  0  0  0  0  0
  -21.3830   -4.6270   24.9200 C   0  0  0  0  0  0  0  0  0  0  0  0
  -21.8700   -4.0630   23.7270 C   0  0  0  0  0  3  0  0  0  0  0  0
  -22.0240   -4.8650   22.5830 C   0  0  0  0  0  0  0  0  0  0  0  0
  -22.4730   -4.3130   21.4310 F   0  0  0  0  0  0  0  0  0  0  0  0
  -21.2290   -3.8510   26.0180 F   0  0  0  0  0  0  0  0  0  0  0  0
  -22.8390  -13.6070   21.0730 C   0  0  0  0  0  0  0  0  0  0  0  0
  -22.0650  -12.9210   21.9060 N   0  0  0  0  0  0  0  0  0  0  0  0
  -22.4250  -14.6160   20.5040 O   0  0  0  0  0  0  0  0  0  0  0  0
  -22.4120  -12.1060   22.3900 H   0  0  0  0  0  0  0  0  0  0  0  0
  -21.1110  -13.2170   22.0630 H   0  0  0  0  0  0  0  0  0  0  0  0
  -25.4960  -15.2900   20.3880 N   0  0  0  0  0  0  0  0  0  0  0  0
  -24.7250  -15.9460   20.4480 H   0  0  0  0  0  0  0  0  0  0  0  0
  -26.3700  -15.7280   20.1220 H   0  0  0  0  0  0  0  0  0  0  0  0
  -27.9270  -23.5090   20.4710 C   0  0  0  0  0  2  0  0  0  0  0  0
  -28.6090  -25.0080   20.6850 C   0  0  0  0  0  2  0  0  0  0  0  0
  -28.3200  -26.4230   20.1350 O   0  0  0  0  0  0  0  0  0  0  0  0
  -24.5640  -31.9500   23.2490 C   0  0  0  0  0  0  0  0  0  0  0  0
  -27.1770  -27.2680   20.2610 C   0  0  0  0  0  0  0  0  0  0  0  0
  -23.3690  -30.5410   21.6120 C   0  0  0  0  0  3  0  0  0  0  0  0
  -24.8230  -28.9550   20.2140 C   0  0  0  0  0  0  0  0  0  0  0  0
  -25.9150  -30.8330   21.4380 C   0  0  0  0  0  2  0  0  0  0  0  0
  -25.9970  -29.4330   20.8110 C   0  0  0  0  0  0  0  0  0  0  0  0
  -27.1760  -28.6090   20.8080 C   0  0  0  0  0  3  0  0  0  0  0  0
  -25.9770  -26.8650   19.6450 C   0  0  0  0  0  3  0  0  0  0  0  0
  -24.8220  -27.6820   19.6190 C   0  0  0  0  0  3  0  0  0  0  0  0
  -23.5930  -29.8470   20.2410 C   0  0  0  0  0  2  0  0  0  0  0  0
  -24.6360  -31.1310   22.1560 N   0  0  0  0  0  0  0  0  0  0  0  0
  -23.4770  -32.2310   23.7770 O   0  0  0  0  0  0  0  0  0  0  0  0
  -22.6960  -29.5380   22.5820 C   0  0  0  0  0  0  0  0  0  0  0  0
  -21.3710  -29.3540   22.4480 N   0  0  0  0  0  0  0  0  0  0  0  0
  -23.3690  -28.9240   23.4130 O   0  0  0  0  0  0  0  0  0  0  0  0
  -20.8850  -29.9000   21.7500 H   0  0  0  0  0  0  0  0  0  0  0  0
  -18.0000  -28.1230   22.9300 C   0  0  0  0  0  0  0  0  0  0  0  0
  -20.5540  -28.4150   23.2190 C   0  0  0  0  0  3  0  0  0  0  0  0
  -20.6750  -26.9790   22.6590 C   0  0  0  0  0  2  0  0  0  0  0  0
  -19.5870  -26.6350   21.6370 C   0  0  0  0  0  2  0  0  0  0  0  0
  -18.1980  -26.7700   22.2670 C   0  0  0  0  0  2  0  0  0  0  0  0
  -19.1070  -28.9010   23.3620 C   0  0  0  0  0  0  0  0  0  0  0  0
  -18.8670  -30.1660   23.9440 C   0  0  0  0  0  3  0  0  0  0  0  0
  -17.5550  -30.6520   24.0950 C   0  0  0  0  0  3  0  0  0  0  0  0
  -16.4630  -29.8720   23.6780 C   0  0  0  0  0  3  0  0  0  0  0  0
  -16.6860  -28.6090   23.1010 C   0  0  0  0  0  3  0  0  0  0  0  0
  -25.8400  -32.5920   23.8750 C   0  0  0  0  0  3  0  0  0  0  0  0
  -26.3430  -31.8390   25.1680 C   0  0  1  0  0  0  0  0  0  0  0  0
  -25.2410  -31.6190   26.2310 C   0  0  0  0  0  1  0  0  0  0  0  0
  -26.9250  -30.4530   24.8030 C   0  0  0  0  0  1  0  0  0  0  0  0
  -27.4900  -32.6390   25.8280 C   0  0  0  0  0  1  0  0  0  0  0  0
  -25.5290  -33.9960   24.1900 N   0  0  0  0  0  0  0  0  0  0  0  0
  -25.8770  -35.0440   23.4300 C   0  0  0  0  0  0  0  0  0  0  0  0
  -26.5620  -34.9310   22.4110 O   0  0  0  0  0  0  0  0  0  0  0  0
  -24.9220  -34.1590   24.9790 H   0  0  0  0  0  0  0  0  0  0  0  0
  -24.1710  -36.8520   23.0330 C   0  0  0  0  0  1  0  0  0  0  0  0
  -25.3910  -36.4380   23.8730 C   0  0  0  0  0  3  0  0  0  0  0  0
  -27.5120  -37.3130   24.7500 C   0  0  0  0  0  1  0  0  0  0  0  0
  -26.4330  -37.4840   23.7790 N   0  0  0  0  0  0  0  0  0  0  0  0
  -26.0310  -38.4080   23.9120 H   0  0  0  0  0  0  0  0  0  0  0  0
  1  2  1  0
  2  8  1  0
  3 47  1  0
  3  1  1  0
  3  2  1  0
  4  7  1  0
  5  9  1  0
  5  4  2  0
  7 11  1  0
  7  6  2  0
  8  6  1  0
  9  8  2  0
 10  9  1  0
 12 17  1  0
 13 14  1  0
 13 12  1  0
 15 14  1  0
 15 22  1  0
 15 16  1  0
 17 11  1  0
 17 16  1  0
 18 11  2  0
 19 20  2  0
 20 21  1  0
 20 39  1  0
 21 24  1  0
 22 19  1  0
 22 23  1  0
 23 21  2  0
 24 25  1  0
 25 26  2  0
 27 30  1  0
 27 26  1  0
 28 27  2  0
 29 28  1  0
 29 24  2  0
 30 31  1  0
 31 32  1  0
 32 33  2  0
 34 33  1  0
 34 38  1  0
 35 34  2  0
 36 31  2  0
 36 35  1  0
 37 36  1  0
 39 40  1  0
 40 43  1  0
 40 42  1  0
 41 39  2  0
 44 45  1  0
 44 19  1  0
 46 44  1  0
 47 48  1  0
 49 51  1  0
 49 48  1  0
 50 61  2  0
 51 56  1  0
 52 60  1  0
 52 62  1  0
 53 59  1  0
 53 55  1  0
 54 60  1  0
 55 54  1  0
 56 55  2  0
 57 51  2  0
 58 57  1  0
 58 53  2  0
 59 52  1  0
 60 50  1  0
 62 64  2  0
 63 62  1  0
 65 63  1  0
 66 75  2  0
 66 71  1  0
 67 63  1  0
 67 71  1  0
 68 67  1  0
 69 70  1  0
 69 68  1  0
 70 66  1  0
 71 72  2  0
 72 73  1  0
 74 73  2  0
 75 74  1  0
 76 50  1  0
 76 81  1  0
 76 77  1  0
 77 80  1  1
 77 78  1  0
 79 77  1  0
 81 84  1  0
 82 86  1  0
 82 81  1  0
 83 82  2  0
 86 85  1  0
 88 86  1  0
 88 89  1  0
 88 87  1  0
M  ISO  4   7 100  11 100  48 101  49 101
M  END
>  <TORSDO>  (31) 
F 19

>  <SCORE>  (31) 
-13.633

>  <name>  (31) 
30

>  <ligand_id>  (31) 
30

>  <original_smiles>  (31) 
[H]c1c([H])c([H])c2c(c1[H])C([H])([H])C([H])([H])C([H])([H])C2([H])N([H])C(=O)C1([H])N(C(=O)C([H])(N([H])C(=O)C([H])(N([H])C([H])([H])[H])C([H])([H])[H])C(C([H])([H])[H])(C([H])([H])[H])C([H])([H])[H])C([H])([H])c2c([H])c(OC([H])([H])C([H])([H])C3([H])C([H])([H])C3([H])c3c([H])c(C(=O)N4C([H])([H])C([H])([H])C([H])([H])C([H])(n5nc(-c6c([H])c([H])c(Oc7c([H])c([H])c(F)c([H])c7F)c([H])c6[H])c(C(=O)N([H])[H])c5N([H])[H])C4([H])[H])c([H])c([H])c3C([H])([H])[H])c([H])c([H])c2C1([H])[H]

>  <smiles>  (31) 
[H]c1c([H])c([H])c2c(c1[H])C([H])([H])C([H])([H])C([H])([H])C2([H])N([H])C(=O)C1([H])N(C(=O)C([H])(N([H])C(=O)C([H])(N([H])C([H])([H])[H])C([H])([H])[H])C(C([H])([H])[H])(C([H])([H])[H])C([H])([H])[H])C([H])([H])c2c([H])c(OC([H])([H])C([H])([H])C3([H])C([H])([H])C3([H])c3c([H])c(C(=O)N4C([H])([H])C([H])([H])C([H])([H])C([H])(n5nc(-c6c([H])c([H])c(Oc7c([H])c([H])c(F)c([H])c7F)c([H])c6[H])c(C(=O)N([H])[H])c5N([H])[H])C4([H])[H])c([H])c([H])c3C([H])([H])[H])c([H])c([H])c2C1([H])[H]

$$$$
31:0:0
     RDKit          3D

 89 97  0  0  1  0  0  0  0  0999 V2000
  -29.1480  -20.5190   18.8530 C   0  0  0  0  0  3  0  0  0  0  0  0
  -29.3370  -18.9540   18.7370 C   0  0  0  0  0  2  0  0  0  0  0  0
  -29.2000  -19.7080   20.9280 C   0  0  0  0  0  2  0  0  0  0  0  0
  -29.8150  -18.3250   20.0990 C   0  0  0  0  0  3  0  0  0  0  0  0
  -28.9890  -21.0820   20.0890 N   0  0  0  0  0  0  0  0  0  0  0  0
  -29.1540  -21.2760   17.7390 N   0  0  0  0  0  0  0  0  0  0  0  0
  -29.0460  -22.2790   17.7690 H   0  0  0  0  0  0  0  0  0  0  0  0
  -29.2700  -20.8570   16.8250 H   0  0  0  0  0  0  0  0  0  0  0  0
  -30.3890  -15.3730   20.2330 C   0  0  0  0  0  0  0  0  0  0  0  0
  -30.3780  -12.9060   19.3860 C   0  0  0  0  0  2  0  0  0  0  0  0
  -29.4590  -12.6750   18.1600 C   0  0  0  0  0  2  0  0  0  0  0  0
  -28.0130  -12.3990   18.6060 C   0  0  0  0  0  2  0  0  0  0  0  0
  -27.5590  -13.3640   19.7310 C   0  0  0  0  0  3  0  0  0  0  0  0
  -28.6120  -13.5380   20.8460 C   0  0  0  0  0  2  0  0  0  0  0  0
  -29.8310  -14.0570   20.2020 N   0  0  0  0  0  0  0  0  0  0  0  0
  -31.6060  -15.3680   19.9950 O   0  0  0  0  0  0  0  0  0  0  0  0
  -29.6210  -16.6510   20.3270 N   0  0  0  0  0  0  0  0  0  0  0  0
  -28.6510  -16.4340   20.4980 H   0  0  0  0  0  0  0  0  0  0  0  0
  -25.1980  -13.9110   20.5130 C   0  0  0  0  0  0  0  0  0  0  0  0
  -24.1400  -13.1310   20.8860 C   0  0  0  0  0  0  0  0  0  0  0  0
  -24.6090  -11.7820   20.8430 C   0  0  0  0  0  0  0  0  0  0  0  0
  -26.2390  -13.0400   20.2520 N   0  0  0  0  0  0  0  0  0  0  0  0
  -25.8980  -11.7520   20.5210 N   0  0  0  0  0  0  0  0  0  0  0  0
  -23.8830  -10.5180   21.0310 C   0  0  0  0  0  0  0  0  0  0  0  0
  -24.3130   -9.5480   21.9640 C   0  0  0  0  0  3  0  0  0  0  0  0
  -23.5840   -8.3520   22.1420 C   0  0  0  0  0  3  0  0  0  0  0  0
  -22.4110   -8.1170   21.3860 C   0  0  0  0  0  0  0  0  0  0  0  0
  -22.0000   -9.0750   20.4430 C   0  0  0  0  0  3  0  0  0  0  0  0
  -22.7290  -10.2620   20.2640 C   0  0  0  0  0  3  0  0  0  0  0  0
  -21.6560   -6.9730   21.4730 O   0  0  0  0  0  0  0  0  0  0  0  0
  -21.5970   -6.2340   22.6270 C   0  0  0  0  0  0  0  0  0  0  0  0
  -21.1400   -6.7880   23.8430 C   0  0  0  0  0  3  0  0  0  0  0  0
  -21.0300   -5.9760   24.9890 C   0  0  0  0  0  3  0  0  0  0  0  0
  -21.3660   -4.6110   24.9200 C   0  0  0  0  0  0  0  0  0  0  0  0
  -21.8160   -4.0550   23.7080 C   0  0  0  0  0  3  0  0  0  0  0  0
  -21.9270   -4.8660   22.5650 C   0  0  0  0  0  0  0  0  0  0  0  0
  -22.3410   -4.3220   21.3940 F   0  0  0  0  0  0  0  0  0  0  0  0
  -21.2530   -3.8280   26.0180 F   0  0  0  0  0  0  0  0  0  0  0  0
  -22.7440  -13.6060   21.1630 C   0  0  0  0  0  0  0  0  0  0  0  0
  -22.0170  -12.9060   22.0260 N   0  0  0  0  0  0  0  0  0  0  0  0
  -22.3080  -14.6360   20.6500 O   0  0  0  0  0  0  0  0  0  0  0  0
  -22.3840  -12.0700   22.4580 H   0  0  0  0  0  0  0  0  0  0  0  0
  -21.0820  -13.2060   22.2550 H   0  0  0  0  0  0  0  0  0  0  0  0
  -25.3560  -15.2830   20.3390 N   0  0  0  0  0  0  0  0  0  0  0  0
  -24.5810  -15.9300   20.4440 H   0  0  0  0  0  0  0  0  0  0  0  0
  -26.1860  -15.7170   19.9580 H   0  0  0  0  0  0  0  0  0  0  0  0
  -28.9140  -22.7210   20.5610 C   0  0  0  0  0  3  0  0  0  0  0  0
  -28.0860  -24.2330   19.9640 C   0  0  0  0  0  3  0  0  0  0  0  0
  -28.2130  -25.8630   20.3030 O   0  0  0  0  0  0  0  0  0  0  0  0
  -24.6380  -31.8620   23.2260 C   0  0  0  0  0  0  0  0  0  0  0  0
  -27.1980  -26.9640   20.2160 C   0  0  0  0  0  0  0  0  0  0  0  0
  -23.4450  -30.4670   21.5860 C   0  0  0  0  0  3  0  0  0  0  0  0
  -24.8950  -28.8560   20.1640 C   0  0  0  0  0  0  0  0  0  0  0  0
  -26.0120  -30.6710   21.4430 C   0  0  0  0  0  2  0  0  0  0  0  0
  -26.0820  -29.2580   20.7910 C   0  0  0  0  0  0  0  0  0  0  0  0
  -27.2230  -28.3320   20.7950 C   0  0  0  0  0  3  0  0  0  0  0  0
  -25.9820  -26.7190   19.5400 C   0  0  0  0  0  3  0  0  0  0  0  0
  -24.8720  -27.6080   19.5200 C   0  0  0  0  0  3  0  0  0  0  0  0
  -23.6770  -29.7810   20.2100 C   0  0  0  0  0  2  0  0  0  0  0  0
  -24.7210  -31.0270   22.1390 N   0  0  0  0  0  0  0  0  0  0  0  0
  -23.5470  -32.1540   23.7430 O   0  0  0  0  0  0  0  0  0  0  0  0
  -22.7480  -29.4720   22.5520 C   0  0  0  0  0  0  0  0  0  0  0  0
  -21.4190  -29.3040   22.4220 N   0  0  0  0  0  0  0  0  0  0  0  0
  -23.4100  -28.8530   23.3880 O   0  0  0  0  0  0  0  0  0  0  0  0
  -20.9330  -29.8560   21.7280 H   0  0  0  0  0  0  0  0  0  0  0  0
  -18.0430  -28.0720   22.9080 C   0  0  0  0  0  0  0  0  0  0  0  0
  -20.5970  -28.3650   23.1940 C   0  0  0  0  0  3  0  0  0  0  0  0
  -20.7170  -26.9280   22.6320 C   0  0  0  0  0  2  0  0  0  0  0  0
  -19.6290  -26.5870   21.6100 C   0  0  0  0  0  2  0  0  0  0  0  0
  -18.2400  -26.7220   22.2390 C   0  0  0  0  0  2  0  0  0  0  0  0
  -19.1490  -28.8510   23.3420 C   0  0  0  0  0  0  0  0  0  0  0  0
  -18.9080  -30.1120   23.9280 C   0  0  0  0  0  3  0  0  0  0  0  0
  -17.5960  -30.5970   24.0840 C   0  0  0  0  0  3  0  0  0  0  0  0
  -16.5040  -29.8160   23.6650 C   0  0  0  0  0  3  0  0  0  0  0  0
  -16.7290  -28.5560   23.0830 C   0  0  0  0  0  3  0  0  0  0  0  0
  -25.9090  -32.5070   23.8590 C   0  0  0  0  0  3  0  0  0  0  0  0
  -25.5990  -33.9150   24.1700 N   0  0  0  0  0  0  0  0  0  0  0  0
  -25.9450  -34.9640   23.4110 C   0  0  0  0  0  0  0  0  0  0  0  0
  -26.6190  -34.8490   22.3840 O   0  0  0  0  0  0  0  0  0  0  0  0
  -25.0050  -34.0800   24.9690 H   0  0  0  0  0  0  0  0  0  0  0  0
  -24.2350  -36.7750   23.0410 C   0  0  0  0  0  1  0  0  0  0  0  0
  -25.4700  -36.3620   23.8590 C   0  0  0  0  0  3  0  0  0  0  0  0
  -27.6050  -37.2410   24.6940 C   0  0  0  0  0  1  0  0  0  0  0  0
  -26.5110  -37.4060   23.7410 N   0  0  0  0  0  0  0  0  0  0  0  0
  -26.1110  -38.3310   23.8710 H   0  0  0  0  0  0  0  0  0  0  0  0
  -26.3940  -31.7600   25.1640 C   0  0  1  0  0  0  0  0  0  0  0  0
  -25.2790  -31.5610   26.2180 C   0  0  0  0  0  1  0  0  0  0  0  0
  -26.9670  -30.3670   24.8220 C   0  0  0  0  0  1  0  0  0  0  0  0
  -27.5420  -32.5560   25.8280 C   0  0  0  0  0  1  0  0  0  0  0  0
  1  6  1  0
  1  5  1  0
  2  1  1  0
  2  4  1  0
  4 17  1  0
  4  3  1  0
  5 47  1  0
  5  3  1  0
  6  7  1  0
  8  6  1  0
  9 17  1  0
 10 15  1  0
 11 12  1  0
 11 10  1  0
 13 12  1  0
 13 22  1  0
 13 14  1  0
 15  9  1  0
 15 14  1  0
 16  9  2  0
 17 18  1  0
 19 20  2  0
 20 39  1  0
 21 20  1  0
 21 24  1  0
 22 19  1  0
 22 23  1  0
 23 21  2  0
 24 25  1  0
 25 26  2  0
 27 30  1  0
 27 26  1  0
 28 27  2  0
 29 28  1  0
 29 24  2  0
 30 31  1  0
 31 32  1  0
 32 33  2  0
 34 33  1  0
 34 38  1  0
 35 34  2  0
 36 31  2  0
 36 35  1  0
 37 36  1  0
 39 40  1  0
 40 43  1  0
 40 42  1  0
 41 39  2  0
 44 45  1  0
 44 19  1  0
 46 44  1  0
 48 49  1  0
 48 47  2  0
 50 61  2  0
 51 49  1  0
 51 56  1  0
 52 60  1  0
 52 62  1  0
 53 59  1  0
 53 55  1  0
 54 60  1  0
 55 56  2  0
 55 54  1  0
 57 51  2  0
 58 57  1  0
 58 53  2  0
 59 52  1  0
 60 50  1  0
 62 64  2  0
 63 62  1  0
 65 63  1  0
 66 75  2  0
 66 71  1  0
 67 63  1  0
 67 71  1  0
 68 67  1  0
 69 70  1  0
 69 68  1  0
 70 66  1  0
 71 72  2  0
 72 73  1  0
 74 73  2  0
 75 74  1  0
 76 50  1  0
 76 77  1  0
 76 86  1  0
 77 80  1  0
 78 82  1  0
 78 77  1  0
 79 78  2  0
 82 81  1  0
 84 82  1  0
 84 85  1  0
 84 83  1  0
 86 89  1  1
 86 87  1  0
 88 86  1  0
M  ISO  4   9 100  17 100  48 101  49 101
M  END
>  <TORSDO>  (32) 
F 18

>  <SCORE>  (32) 
-16.450

>  <name>  (32) 
31

>  <ligand_id>  (32) 
31

>  <original_smiles>  (32) 
[H]c1c([H])c([H])c2c(c1[H])C([H])([H])C([H])([H])C([H])([H])C2([H])N([H])C(=O)C1([H])N(C(=O)C([H])(N([H])C(=O)C([H])(N([H])C([H])([H])[H])C([H])([H])[H])C(C([H])([H])[H])(C([H])([H])[H])C([H])([H])[H])C([H])([H])c2c([H])c(OC([H])([H])C([H])([H])N3C(=[N+]([H])[H])C([H])([H])C([H])(N([H])C(=O)N4C([H])([H])C([H])([H])C([H])([H])C([H])(n5nc(-c6c([H])c([H])c(Oc7c([H])c([H])c(F)c([H])c7F)c([H])c6[H])c(C(=O)N([H])[H])c5N([H])[H])C4([H])[H])C3([H])[H])c([H])c([H])c2C1([H])[H]

>  <smiles>  (32) 
[H]c1c([H])c([H])c2c(c1[H])C([H])([H])C([H])([H])C([H])([H])C2([H])N([H])C(=O)C1([H])N(C(=O)C([H])(N([H])C(=O)C([H])(N([H])C([H])([H])[H])C([H])([H])[H])C(C([H])([H])[H])(C([H])([H])[H])C([H])([H])[H])C([H])([H])c2c([H])c(OC([H])([H])C([H])([H])N3C(=[N+]([H])[H])C([H])([H])C([H])(N([H])C(=O)N4C([H])([H])C([H])([H])C([H])([H])C([H])(n5nc(-c6c([H])c([H])c(Oc7c([H])c([H])c(F)c([H])c7F)c([H])c6[H])c(C(=O)N([H])[H])c5N([H])[H])C4([H])[H])C3([H])[H])c([H])c([H])c2C1([H])[H]

$$$$
32:0:0
     RDKit          3D

 88 96  0  0  1  0  0  0  0  0999 V2000
  -29.0930  -21.4840   20.9880 C   0  0  0  0  0  0  0  0  0  0  0  0
  -28.3580  -22.0350   18.8640 C   0  0  0  0  0  2  0  0  0  0  0  0
  -28.8280  -22.8710   20.1090 C   0  0  0  0  0  3  0  0  0  0  0  0
  -28.9360  -19.9770   20.2170 C   0  0  0  0  0  3  0  0  0  0  0  0
  -28.9030  -20.6040   18.8620 N   0  0  0  0  0  4  0  0  0  0  0  0
  -29.3970  -21.5810   22.1810 O   0  0  0  0  0  0  0  0  0  0  0  0
  -29.8490  -20.6470   18.5210 H   0  0  0  0  0  0  0  0  0  0  0  0
  -28.3770  -20.0330   18.2210 H   0  0  0  0  0  0  0  0  0  0  0  0
  -27.9740  -24.3860   20.5170 C   0  0  0  0  0  2  0  0  0  0  0  0
  -28.2220  -25.9880   20.3100 O   0  0  0  0  0  0  0  0  0  0  0  0
  -24.6180  -31.9120   23.2450 C   0  0  0  0  0  0  0  0  0  0  0  0
  -27.1870  -27.0480   20.2790 C   0  0  0  0  0  0  0  0  0  0  0  0
  -23.4260  -30.4990   21.6180 C   0  0  0  0  0  3  0  0  0  0  0  0
  -24.8770  -28.8900   20.2150 C   0  0  0  0  0  0  0  0  0  0  0  0
  -25.9890  -30.7270   21.4660 C   0  0  0  0  0  2  0  0  0  0  0  0
  -26.0630  -29.3150   20.8270 C   0  0  0  0  0  0  0  0  0  0  0  0
  -27.2170  -28.4160   20.8320 C   0  0  0  0  0  3  0  0  0  0  0  0
  -25.9710  -26.7630   19.6210 C   0  0  0  0  0  3  0  0  0  0  0  0
  -24.8530  -27.6320   19.5910 C   0  0  0  0  0  3  0  0  0  0  0  0
  -23.6550  -29.8040   20.2490 C   0  0  0  0  0  2  0  0  0  0  0  0
  -24.6980  -31.0730   22.1630 N   0  0  0  0  0  0  0  0  0  0  0  0
  -23.5290  -32.2040   23.7640 O   0  0  0  0  0  0  0  0  0  0  0  0
  -22.7360  -29.5080   22.5930 C   0  0  0  0  0  0  0  0  0  0  0  0
  -21.4070  -29.3370   22.4650 N   0  0  0  0  0  0  0  0  0  0  0  0
  -23.4030  -28.8940   23.4290 O   0  0  0  0  0  0  0  0  0  0  0  0
  -20.9220  -29.8830   21.7670 H   0  0  0  0  0  0  0  0  0  0  0  0
  -18.0280  -28.1230   22.9780 C   0  0  0  0  0  0  0  0  0  0  0  0
  -20.5860  -28.4050   23.2460 C   0  0  0  0  0  3  0  0  0  0  0  0
  -20.6960  -26.9670   22.6880 C   0  0  0  0  0  2  0  0  0  0  0  0
  -19.5970  -26.6260   21.6750 C   0  0  0  0  0  2  0  0  0  0  0  0
  -18.2130  -26.7680   22.3140 C   0  0  0  0  0  2  0  0  0  0  0  0
  -19.1410  -28.8980   23.4010 C   0  0  0  0  0  0  0  0  0  0  0  0
  -18.9110  -30.1620   23.9850 C   0  0  0  0  0  3  0  0  0  0  0  0
  -17.6020  -30.6540   24.1480 C   0  0  0  0  0  3  0  0  0  0  0  0
  -16.5030  -29.8780   23.7390 C   0  0  0  0  0  3  0  0  0  0  0  0
  -16.7170  -28.6140   23.1600 C   0  0  0  0  0  3  0  0  0  0  0  0
  -25.8890  -32.5620   23.8700 C   0  0  0  0  0  3  0  0  0  0  0  0
  -26.3930  -31.8110   25.1660 C   0  0  1  0  0  0  0  0  0  0  0  0
  -25.2890  -31.5920   26.2280 C   0  0  0  0  0  1  0  0  0  0  0  0
  -26.9810  -30.4280   24.8090 C   0  0  0  0  0  1  0  0  0  0  0  0
  -27.5370  -32.6170   25.8250 C   0  0  0  0  0  1  0  0  0  0  0  0
  -25.5710  -33.9640   24.1880 N   0  0  0  0  0  0  0  0  0  0  0  0
  -25.9030  -35.0170   23.4300 C   0  0  0  0  0  0  0  0  0  0  0  0
  -26.5760  -34.9100   22.4000 O   0  0  0  0  0  0  0  0  0  0  0  0
  -24.9740  -34.1200   24.9870 H   0  0  0  0  0  0  0  0  0  0  0  0
  -24.1810  -36.8170   23.0690 C   0  0  0  0  0  1  0  0  0  0  0  0
  -25.4190  -36.4090   23.8830 C   0  0  0  0  0  3  0  0  0  0  0  0
  -27.5500  -37.2990   24.7230 C   0  0  0  0  0  1  0  0  0  0  0  0
  -26.4540  -37.4610   23.7710 N   0  0  0  0  0  0  0  0  0  0  0  0
  -26.0480  -38.3820   23.9080 H   0  0  0  0  0  0  0  0  0  0  0  0
  -29.8840  -18.4720   20.4180 C   0  0  0  0  0  3  0  0  0  0  0  0
  -29.4660  -16.7420   20.3330 C   0  0  0  0  0  3  0  0  0  0  0  0
  -30.3720  -15.2620   20.2100 C   0  0  0  0  0  0  0  0  0  0  0  0
  -30.3640  -12.8350   19.3210 C   0  0  0  0  0  2  0  0  0  0  0  0
  -29.4100  -12.6910   18.1050 C   0  0  0  0  0  2  0  0  0  0  0  0
  -27.9640  -12.4270   18.5670 C   0  0  0  0  0  2  0  0  0  0  0  0
  -27.5470  -13.3640   19.7290 C   0  0  0  0  0  3  0  0  0  0  0  0
  -28.6200  -13.4550   20.8300 C   0  0  0  0  0  2  0  0  0  0  0  0
  -29.8570  -13.9420   20.2010 N   0  0  0  0  0  0  0  0  0  0  0  0
  -31.5800  -15.3110   19.9380 O   0  0  0  0  0  0  0  0  0  0  0  0
  -25.1940  -13.9100   20.5540 C   0  0  0  0  0  0  0  0  0  0  0  0
  -24.1420  -13.1260   20.9360 C   0  0  0  0  0  0  0  0  0  0  0  0
  -24.6080  -11.7770   20.8680 C   0  0  0  0  0  0  0  0  0  0  0  0
  -26.2290  -13.0400   20.2650 N   0  0  0  0  0  0  0  0  0  0  0  0
  -25.8910  -11.7500   20.5230 N   0  0  0  0  0  0  0  0  0  0  0  0
  -23.8860  -10.5100   21.0560 C   0  0  0  0  0  0  0  0  0  0  0  0
  -24.3340   -9.5310   21.9700 C   0  0  0  0  0  3  0  0  0  0  0  0
  -23.6110   -8.3320   22.1450 C   0  0  0  0  0  3  0  0  0  0  0  0
  -22.4250   -8.1040   21.4070 C   0  0  0  0  0  0  0  0  0  0  0  0
  -21.9960   -9.0710   20.4820 C   0  0  0  0  0  3  0  0  0  0  0  0
  -22.7200  -10.2610   20.3040 C   0  0  0  0  0  3  0  0  0  0  0  0
  -21.6720   -6.9570   21.4930 O   0  0  0  0  0  0  0  0  0  0  0  0
  -21.6320   -6.2060   22.6400 C   0  0  0  0  0  0  0  0  0  0  0  0
  -21.1980   -6.7460   23.8700 C   0  0  0  0  0  3  0  0  0  0  0  0
  -21.1070   -5.9210   25.0090 C   0  0  0  0  0  3  0  0  0  0  0  0
  -21.4390   -4.5560   24.9180 C   0  0  0  0  0  0  0  0  0  0  0  0
  -21.8670   -4.0150   23.6920 C   0  0  0  0  0  3  0  0  0  0  0  0
  -21.9590   -4.8380   22.5560 C   0  0  0  0  0  0  0  0  0  0  0  0
  -22.3510   -4.3060   21.3730 F   0  0  0  0  0  0  0  0  0  0  0  0
  -21.3450   -3.7610   26.0100 F   0  0  0  0  0  0  0  0  0  0  0  0
  -22.7510  -13.5970   21.2490 C   0  0  0  0  0  0  0  0  0  0  0  0
  -22.0420  -12.8840   22.1160 N   0  0  0  0  0  0  0  0  0  0  0  0
  -22.3020  -14.6320   20.7580 O   0  0  0  0  0  0  0  0  0  0  0  0
  -22.4200  -12.0460   22.5350 H   0  0  0  0  0  0  0  0  0  0  0  0
  -21.1110  -13.1810   22.3680 H   0  0  0  0  0  0  0  0  0  0  0  0
  -25.3520  -15.2850   20.4000 N   0  0  0  0  0  0  0  0  0  0  0  0
  -24.5890  -15.9360   20.5520 H   0  0  0  0  0  0  0  0  0  0  0  0
  -26.1950  -15.7320   20.0640 H   0  0  0  0  0  0  0  0  0  0  0  0
  1  6  2  0
  2  3  1  0
  3  9  1  0
  3  1  1  0
  4 51  1  0
  4  1  1  0
  5  2  1  0
  5  4  1  0
  7  5  1  0
  8  5  1  0
 10  9  1  0
 11 22  2  0
 12 10  1  0
 12 17  1  0
 13 21  1  0
 13 23  1  0
 14 20  1  0
 14 16  1  0
 15 21  1  0
 16 17  2  0
 16 15  1  0
 18 12  2  0
 19 18  1  0
 19 14  2  0
 20 13  1  0
 21 11  1  0
 23 25  2  0
 24 23  1  0
 26 24  1  0
 27 36  2  0
 27 32  1  0
 28 24  1  0
 28 32  1  0
 29 28  1  0
 30 31  1  0
 30 29  1  0
 31 27  1  0
 32 33  2  0
 33 34  1  0
 35 34  2  0
 36 35  1  0
 37 11  1  0
 37 42  1  0
 37 38  1  0
 38 41  1  1
 38 39  1  0
 40 38  1  0
 42 45  1  0
 43 47  1  0
 43 42  1  0
 44 43  2  0
 47 46  1  0
 49 47  1  0
 49 50  1  0
 49 48  1  0
 52 51  2  0
 53 52  1  0
 54 59  1  0
 55 56  1  0
 55 54  1  0
 57 56  1  0
 57 64  1  0
 57 58  1  0
 59 53  1  0
 59 58  1  0
 60 53  2  0
 61 62  2  0
 62 81  1  0
 63 62  1  0
 63 66  1  0
 64 65  1  0
 64 61  1  0
 65 63  2  0
 66 67  1  0
 67 68  2  0
 69 72  1  0
 69 68  1  0
 70 69  2  0
 71 70  1  0
 71 66  2  0
 72 73  1  0
 73 74  1  0
 74 75  2  0
 76 75  1  0
 76 80  1  0
 77 76  2  0
 78 73  2  0
 78 77  1  0
 79 78  1  0
 81 82  1  0
 82 85  1  0
 82 84  1  0
 83 81  2  0
 86 87  1  0
 86 61  1  0
 88 86  1  0
M  ISO  4   9 101  10 101  52 100  53 100
M  END
>  <TORSDO>  (33) 
F 19

>  <SCORE>  (33) 
-16.241

>  <name>  (33) 
32

>  <ligand_id>  (33) 
32

>  <original_smiles>  (33) 
[H]c1c([H])c([H])c2c(c1[H])C([H])([H])C([H])([H])C([H])([H])C2([H])N([H])C(=O)C1([H])N(C(=O)C([H])(N([H])C(=O)C([H])(N([H])C([H])([H])[H])C([H])([H])[H])C(C([H])([H])[H])(C([H])([H])[H])C([H])([H])[H])C([H])([H])c2c([H])c(OC([H])([H])C3([H])C(=O)C([H])(C([H])([H])C([H])([H])C(=O)N4C([H])([H])C([H])([H])C([H])([H])C([H])(n5nc(-c6c([H])c([H])c(Oc7c([H])c([H])c(F)c([H])c7F)c([H])c6[H])c(C(=O)N([H])[H])c5N([H])[H])C4([H])[H])[N+]([H])([H])C3([H])[H])c([H])c([H])c2C1([H])[H]

>  <smiles>  (33) 
[H]c1c([H])c([H])c2c(c1[H])C([H])([H])C([H])([H])C([H])([H])C2([H])N([H])C(=O)C1([H])N(C(=O)C([H])(N([H])C(=O)C([H])(N([H])C([H])([H])[H])C([H])([H])[H])C(C([H])([H])[H])(C([H])([H])[H])C([H])([H])[H])C([H])([H])c2c([H])c(OC([H])([H])C3([H])C(=O)C([H])(C([H])([H])C([H])([H])C(=O)N4C([H])([H])C([H])([H])C([H])([H])C([H])(n5nc(-c6c([H])c([H])c(Oc7c([H])c([H])c(F)c([H])c7F)c([H])c6[H])c(C(=O)N([H])[H])c5N([H])[H])C4([H])[H])[N+]([H])([H])C3([H])[H])c([H])c([H])c2C1([H])[H]

$$$$
33:0:0
     RDKit          3D

 92100  0  0  1  0  0  0  0  0999 V2000
  -29.1330  -22.8830   20.1230 C   0  0  0  0  0  2  0  0  0  0  0  0
  -27.5810  -21.5600   21.4330 C   0  0  0  0  0  2  0  0  0  0  0  0
  -28.6120  -21.3940   20.2990 C   0  0  0  0  0  3  0  0  0  0  0  0
  -27.9710  -23.8900   20.4840 C   0  0  0  0  0  3  0  0  0  0  0  0
  -27.3230  -23.0840   21.6570 C   0  0  0  0  0  3  0  0  0  0  0  0
  -25.8860  -23.3670   21.8740 N   0  0  0  0  0  4  0  0  0  0  0  0
  -25.3420  -23.1630   21.0530 H   0  0  0  0  0  0  0  0  0  0  0  0
  -25.7330  -24.3280   22.1260 H   0  0  0  0  0  0  0  0  0  0  0  0
  -25.5250  -22.8040   22.6280 H   0  0  0  0  0  0  0  0  0  0  0  0
  -29.6610  -20.2110   20.5030 C   0  0  0  0  0  0  0  0  0  0  0  0
  -30.8670  -20.4720   20.4870 O   0  0  0  0  0  0  0  0  0  0  0  0
  -29.2100  -18.7030   20.7190 C   0  0  0  0  0  3  0  0  0  0  0  0
  -30.2350  -17.5070   20.3760 C   0  0  0  0  0  3  0  0  0  0  0  0
  -29.9000  -16.0140   20.8720 C   0  0  0  0  0  2  0  0  0  0  0  0
  -30.6600  -14.7640   20.2360 C   0  0  0  0  0  0  0  0  0  0  0  0
  -30.4510  -12.5420   19.1010 C   0  0  0  0  0  2  0  0  0  0  0  0
  -29.4710  -12.6540   17.9100 C   0  0  0  0  0  2  0  0  0  0  0  0
  -28.0090  -12.4890   18.3670 C   0  0  0  0  0  2  0  0  0  0  0  0
  -27.6790  -13.3460   19.6180 C   0  0  0  0  0  3  0  0  0  0  0  0
  -28.7570  -13.1720   20.7110 C   0  0  0  0  0  2  0  0  0  0  0  0
  -30.0510  -13.5370   20.1190 N   0  0  0  0  0  0  0  0  0  0  0  0
  -31.7900  -14.9330   19.7680 O   0  0  0  0  0  0  0  0  0  0  0  0
  -25.2970  -13.9520   20.3640 C   0  0  0  0  0  0  0  0  0  0  0  0
  -24.2350  -13.1820   20.7550 C   0  0  0  0  0  0  0  0  0  0  0  0
  -24.6990  -11.8310   20.7290 C   0  0  0  0  0  0  0  0  0  0  0  0
  -26.3380  -13.0710   20.1230 N   0  0  0  0  0  0  0  0  0  0  0  0
  -25.9850  -11.7900   20.4040 N   0  0  0  0  0  0  0  0  0  0  0  0
  -23.9790  -10.5690   20.9420 C   0  0  0  0  0  0  0  0  0  0  0  0
  -24.4240   -9.6110   21.8790 C   0  0  0  0  0  3  0  0  0  0  0  0
  -23.7020   -8.4150   22.0790 C   0  0  0  0  0  3  0  0  0  0  0  0
  -22.5220   -8.1660   21.3390 C   0  0  0  0  0  0  0  0  0  0  0  0
  -22.0970   -9.1110   20.3880 C   0  0  0  0  0  3  0  0  0  0  0  0
  -22.8190  -10.2980   20.1860 C   0  0  0  0  0  3  0  0  0  0  0  0
  -21.7710   -7.0190   21.4470 O   0  0  0  0  0  0  0  0  0  0  0  0
  -21.7350   -6.2880   22.6070 C   0  0  0  0  0  0  0  0  0  0  0  0
  -21.3150   -6.8530   23.8310 C   0  0  0  0  0  3  0  0  0  0  0  0
  -21.2260   -6.0480   24.9840 C   0  0  0  0  0  3  0  0  0  0  0  0
  -21.5530   -4.6800   24.9150 C   0  0  0  0  0  0  0  0  0  0  0  0
  -21.9660   -4.1150   23.6960 C   0  0  0  0  0  3  0  0  0  0  0  0
  -22.0570   -4.9170   22.5460 C   0  0  0  0  0  0  0  0  0  0  0  0
  -22.4350   -4.3650   21.3680 F   0  0  0  0  0  0  0  0  0  0  0  0
  -21.4610   -3.9040   26.0200 F   0  0  0  0  0  0  0  0  0  0  0  0
  -22.8420  -13.6570   21.0450 C   0  0  0  0  0  0  0  0  0  0  0  0
  -22.1310  -12.9660   21.9290 N   0  0  0  0  0  0  0  0  0  0  0  0
  -22.3930  -14.6770   20.5230 O   0  0  0  0  0  0  0  0  0  0  0  0
  -22.5100  -12.1390   22.3660 H   0  0  0  0  0  0  0  0  0  0  0  0
  -21.1940  -13.2590   22.1630 H   0  0  0  0  0  0  0  0  0  0  0  0
  -25.4620  -15.3210   20.1690 N   0  0  0  0  0  0  0  0  0  0  0  0
  -24.7020  -15.9830   20.2760 H   0  0  0  0  0  0  0  0  0  0  0  0
  -26.3150  -15.7480   19.8320 H   0  0  0  0  0  0  0  0  0  0  0  0
  -28.3280  -25.4060   20.9020 C   0  0  0  0  0  2  0  0  0  0  0  0
  -28.2850  -26.5740   19.9980 O   0  0  0  0  0  0  0  0  0  0  0  0
  -24.5820  -31.9050   23.1690 C   0  0  0  0  0  0  0  0  0  0  0  0
  -27.1700  -27.4140   20.0390 C   0  0  0  0  0  0  0  0  0  0  0  0
  -23.3690  -30.5340   21.5130 C   0  0  0  0  0  3  0  0  0  0  0  0
  -24.8110  -29.0110   20.0490 C   0  0  0  0  0  0  0  0  0  0  0  0
  -25.9010  -30.8740   21.3000 C   0  0  0  0  0  2  0  0  0  0  0  0
  -25.9800  -29.5020   20.6460 C   0  0  0  0  0  0  0  0  0  0  0  0
  -27.1720  -28.7150   20.6310 C   0  0  0  0  0  3  0  0  0  0  0  0
  -25.9870  -26.9700   19.4210 C   0  0  0  0  0  3  0  0  0  0  0  0
  -24.8150  -27.7530   19.4240 C   0  0  0  0  0  3  0  0  0  0  0  0
  -23.5690  -29.8790   20.1200 C   0  0  0  0  0  2  0  0  0  0  0  0
  -24.6380  -31.1220   22.0530 N   0  0  0  0  0  0  0  0  0  0  0  0
  -23.5030  -32.1660   23.7200 O   0  0  0  0  0  0  0  0  0  0  0  0
  -22.7150  -29.5020   22.4610 C   0  0  0  0  0  0  0  0  0  0  0  0
  -21.3880  -29.3260   22.3480 N   0  0  0  0  0  0  0  0  0  0  0  0
  -23.4060  -28.8530   23.2550 O   0  0  0  0  0  0  0  0  0  0  0  0
  -20.8880  -29.8970   21.6800 H   0  0  0  0  0  0  0  0  0  0  0  0
  -18.0150  -28.1490   22.8840 C   0  0  0  0  0  0  0  0  0  0  0  0
  -20.5790  -28.3750   23.1070 C   0  0  0  0  0  3  0  0  0  0  0  0
  -20.6580  -26.9590   22.4870 C   0  0  0  0  0  2  0  0  0  0  0  0
  -19.5320  -26.6830   21.4850 C   0  0  0  0  0  2  0  0  0  0  0  0
  -18.1650  -26.8210   22.1620 C   0  0  0  0  0  2  0  0  0  0  0  0
  -19.1480  -28.8880   23.3130 C   0  0  0  0  0  0  0  0  0  0  0  0
  -18.9530  -30.1370   23.9400 C   0  0  0  0  0  3  0  0  0  0  0  0
  -17.6530  -30.6440   24.1460 C   0  0  0  0  0  3  0  0  0  0  0  0
  -16.5350  -29.8990   23.7340 C   0  0  0  0  0  3  0  0  0  0  0  0
  -16.7170  -28.6560   23.1060 C   0  0  0  0  0  3  0  0  0  0  0  0
  -25.8660  -32.5280   23.7980 C   0  0  0  0  0  3  0  0  0  0  0  0
  -25.5600  -33.9230   24.1470 N   0  0  0  0  0  0  0  0  0  0  0  0
  -25.8950  -34.9840   23.4020 C   0  0  0  0  0  0  0  0  0  0  0  0
  -26.5610  -34.8940   22.3690 O   0  0  0  0  0  0  0  0  0  0  0  0
  -24.9640  -34.0710   24.9500 H   0  0  0  0  0  0  0  0  0  0  0  0
  -24.1660  -36.7750   23.0820 C   0  0  0  0  0  1  0  0  0  0  0  0
  -25.4120  -36.3660   23.8810 C   0  0  0  0  0  3  0  0  0  0  0  0
  -27.5530  -37.2360   24.7070 C   0  0  0  0  0  1  0  0  0  0  0  0
  -26.4460  -37.4180   23.7750 N   0  0  0  0  0  0  0  0  0  0  0  0
  -26.0380  -38.3350   23.9430 H   0  0  0  0  0  0  0  0  0  0  0  0
  -26.3870  -31.7390   25.0610 C   0  0  1  0  0  0  0  0  0  0  0  0
  -25.2990  -31.4880   26.1300 C   0  0  0  0  0  1  0  0  0  0  0  0
  -26.9660  -30.3700   24.6400 C   0  0  0  0  0  1  0  0  0  0  0  0
  -27.5370  -32.5250   25.7330 C   0  0  0  0  0  1  0  0  0  0  0  0
  1  3  1  0
  1  4  1  0
  2  5  1  0
  3 10  1  0
  3  2  1  0
  4 51  1  0
  4  5  1  0
  5  6  1  0
  6  8  1  0
  6  9  1  0
  7  6  1  0
 10 12  1  0
 11 10  2  0
 13 12  2  0
 13 14  1  0
 15 14  1  0
 16 21  1  0
 17 18  1  0
 17 16  1  0
 19 18  1  0
 19 26  1  0
 19 20  1  0
 21 15  1  0
 21 20  1  0
 22 15  2  0
 23 24  2  0
 24 43  1  0
 25 24  1  0
 25 28  1  0
 26 23  1  0
 26 27  1  0
 27 25  2  0
 28 29  1  0
 29 30  2  0
 31 34  1  0
 31 30  1  0
 32 31  2  0
 33 32  1  0
 33 28  2  0
 34 35  1  0
 35 36  1  0
 36 37  2  0
 38 37  1  0
 38 42  1  0
 39 38  2  0
 40 35  2  0
 40 39  1  0
 41 40  1  0
 43 44  1  0
 44 47  1  0
 44 46  1  0
 45 43  2  0
 48 49  1  0
 48 23  1  0
 50 48  1  0
 52 54  1  0
 52 51  1  0
 53 64  2  0
 54 59  1  0
 55 63  1  0
 55 65  1  0
 56 62  1  0
 56 58  1  0
 57 63  1  0
 58 57  1  0
 59 58  2  0
 60 61  1  0
 60 54  2  0
 61 56  2  0
 62 55  1  0
 63 53  1  0
 65 67  2  0
 66 65  1  0
 68 66  1  0
 69 78  2  0
 69 74  1  0
 70 66  1  0
 70 74  1  0
 71 70  1  0
 72 73  1  0
 72 71  1  0
 73 69  1  0
 74 75  2  0
 75 76  1  0
 77 76  2  0
 78 77  1  0
 79 53  1  0
 79 80  1  0
 79 89  1  0
 80 83  1  0
 81 85  1  0
 81 80  1  0
 82 81  2  0
 85 84  1  0
 87 85  1  0
 87 88  1  0
 87 86  1  0
 89 92  1  1
 89 90  1  0
 91 89  1  0
M  ISO  4  14 100  15 100  51 101  52 101
M  END
>  <TORSDO>  (34) 
F 22

>  <SCORE>  (34) 
-13.133

>  <name>  (34) 
33

>  <ligand_id>  (34) 
33

>  <original_smiles>  (34) 
[H]c1c([H])c([H])c2c(c1[H])C([H])([H])C([H])([H])C([H])([H])C2([H])N([H])C(=O)C1([H])N(C(=O)C([H])(N([H])C(=O)C([H])(N([H])C([H])([H])[H])C([H])([H])[H])C(C([H])([H])[H])(C([H])([H])[H])C([H])([H])[H])C([H])([H])c2c([H])c(OC([H])([H])C3([H])C([H])([H])C([H])(C(=O)C([H])([H])C([H])([H])C([H])([H])C(=O)N4C([H])([H])C([H])([H])C([H])([H])C([H])(n5nc(-c6c([H])c([H])c(Oc7c([H])c([H])c(F)c([H])c7F)c([H])c6[H])c(C(=O)N([H])[H])c5N([H])[H])C4([H])[H])C([H])([H])C3([H])[N+]([H])([H])[H])c([H])c([H])c2C1([H])[H]

>  <smiles>  (34) 
[H]c1c([H])c([H])c2c(c1[H])C([H])([H])C([H])([H])C([H])([H])C2([H])N([H])C(=O)C1([H])N(C(=O)C([H])(N([H])C(=O)C([H])(N([H])C([H])([H])[H])C([H])([H])[H])C(C([H])([H])[H])(C([H])([H])[H])C([H])([H])[H])C([H])([H])c2c([H])c(OC([H])([H])C3([H])C([H])([H])C([H])(C(=O)C([H])([H])C([H])([H])C([H])([H])C(=O)N4C([H])([H])C([H])([H])C([H])([H])C([H])(n5nc(-c6c([H])c([H])c(Oc7c([H])c([H])c(F)c([H])c7F)c([H])c6[H])c(C(=O)N([H])[H])c5N([H])[H])C4([H])[H])C([H])([H])C3([H])[N+]([H])([H])[H])c([H])c([H])c2C1([H])[H]

$$$$
34:0:0
     RDKit          3D

 92101  0  0  1  0  0  0  0  0999 V2000
  -31.2030  -21.6280   19.4610 C   0  0  0  0  0  3  0  0  0  0  0  0
  -31.4810  -20.3730   20.0510 C   0  0  0  0  0  3  0  0  0  0  0  0
  -30.4500  -21.0980   22.1530 C   0  0  0  0  0  3  0  0  0  0  0  0
  -30.5570  -22.6050   20.2410 C   0  0  0  0  0  0  0  0  0  0  0  0
  -30.1860  -22.3460   21.5550 C   0  0  0  0  0  0  0  0  0  0  0  0
  -31.1140  -20.1020   21.3940 C   0  0  0  0  0  0  0  0  0  0  0  0
  -30.1840  -23.9780   19.8740 C   0  0  0  0  0  0  0  0  0  0  0  0
  -29.5150  -23.5430   22.1870 C   0  0  0  0  0  2  0  0  0  0  0  0
  -29.6040  -24.6760   21.1170 C   0  0  0  0  0  3  0  0  0  0  0  0
  -30.3140  -24.5150   18.7700 O   0  0  0  0  0  0  0  0  0  0  0  0
  -31.4900  -18.7710   22.0330 C   0  0  0  0  0  2  0  0  0  0  0  0
  -30.8950  -17.5280   21.3400 C   0  0  0  0  0  2  0  0  0  0  0  0
  -31.3050  -16.2220   22.0550 C   0  0  0  0  0  2  0  0  0  0  0  0
  -30.4380  -14.9930   21.7020 C   0  0  0  0  0  2  0  0  0  0  0  0
  -30.7110  -14.3030   20.3510 C   0  0  0  0  0  0  0  0  0  0  0  0
  -30.2570  -12.3660   18.8740 C   0  0  0  0  0  2  0  0  0  0  0  0
  -29.2280  -12.6570   17.7660 C   0  0  0  0  0  2  0  0  0  0  0  0
  -27.7900  -12.4840   18.2860 C   0  0  0  0  0  2  0  0  0  0  0  0
  -27.5490  -13.2430   19.6170 C   0  0  0  0  0  3  0  0  0  0  0  0
  -28.6540  -12.8820   20.6340 C   0  0  0  0  0  2  0  0  0  0  0  0
  -29.9550  -13.2220   20.0300 N   0  0  0  0  0  0  0  0  0  0  0  0
  -31.6520  -14.6890   19.6470 O   0  0  0  0  0  0  0  0  0  0  0  0
  -25.1740  -13.8560   20.4110 C   0  0  0  0  0  0  0  0  0  0  0  0
  -24.1180  -13.0830   20.8160 C   0  0  0  0  0  0  0  0  0  0  0  0
  -24.5770  -11.7310   20.7600 C   0  0  0  0  0  0  0  0  0  0  0  0
  -26.2120  -12.9750   20.1430 N   0  0  0  0  0  0  0  0  0  0  0  0
  -25.8540  -11.6920   20.4030 N   0  0  0  0  0  0  0  0  0  0  0  0
  -23.8600  -10.4680   20.9720 C   0  0  0  0  0  0  0  0  0  0  0  0
  -24.3200   -9.5060   21.8990 C   0  0  0  0  0  3  0  0  0  0  0  0
  -23.6060   -8.3060   22.0990 C   0  0  0  0  0  3  0  0  0  0  0  0
  -22.4170   -8.0590   21.3710 C   0  0  0  0  0  0  0  0  0  0  0  0
  -21.9760   -9.0090   20.4330 C   0  0  0  0  0  3  0  0  0  0  0  0
  -22.6920  -10.2010   20.2320 C   0  0  0  0  0  3  0  0  0  0  0  0
  -21.6710   -6.9100   21.4810 O   0  0  0  0  0  0  0  0  0  0  0  0
  -21.6440   -6.1760   22.6400 C   0  0  0  0  0  0  0  0  0  0  0  0
  -21.2340   -6.7410   23.8680 C   0  0  0  0  0  3  0  0  0  0  0  0
  -21.1540   -5.9360   25.0210 C   0  0  0  0  0  3  0  0  0  0  0  0
  -21.4740   -4.5670   24.9470 C   0  0  0  0  0  0  0  0  0  0  0  0
  -21.8740   -4.0010   23.7240 C   0  0  0  0  0  3  0  0  0  0  0  0
  -21.9560   -4.8040   22.5730 C   0  0  0  0  0  0  0  0  0  0  0  0
  -22.3240   -4.2510   21.3920 F   0  0  0  0  0  0  0  0  0  0  0  0
  -21.3880   -3.7900   26.0520 F   0  0  0  0  0  0  0  0  0  0  0  0
  -22.7320  -13.5570   21.1470 C   0  0  0  0  0  0  0  0  0  0  0  0
  -22.0400  -12.8550   22.0370 N   0  0  0  0  0  0  0  0  0  0  0  0
  -22.2740  -14.5860   20.6530 O   0  0  0  0  0  0  0  0  0  0  0  0
  -22.4260  -12.0220   22.4590 H   0  0  0  0  0  0  0  0  0  0  0  0
  -21.1120  -13.1530   22.3000 H   0  0  0  0  0  0  0  0  0  0  0  0
  -25.3320  -15.2270   20.2320 N   0  0  0  0  0  0  0  0  0  0  0  0
  -24.5740  -15.8860   20.3700 H   0  0  0  0  0  0  0  0  0  0  0  0
  -26.1800  -15.6650   19.8940 H   0  0  0  0  0  0  0  0  0  0  0  0
  -28.2600  -25.3940   20.8580 C   0  0  0  0  0  2  0  0  0  0  0  0
  -28.4230  -26.7020   20.2880 O   0  0  0  0  0  0  0  0  0  0  0  0
  -24.5890  -31.9110   23.2280 C   0  0  0  0  0  0  0  0  0  0  0  0
  -27.2600  -27.4390   20.2360 C   0  0  0  0  0  0  0  0  0  0  0  0
  -23.3940  -30.4810   21.5990 C   0  0  0  0  0  3  0  0  0  0  0  0
  -24.8610  -28.9300   20.2010 C   0  0  0  0  0  0  0  0  0  0  0  0
  -25.9170  -30.8500   21.4080 C   0  0  0  0  0  2  0  0  0  0  0  0
  -26.0130  -29.4700   20.7890 C   0  0  0  0  0  0  0  0  0  0  0  0
  -27.2170  -28.7330   20.8020 C   0  0  0  0  0  3  0  0  0  0  0  0
  -26.0950  -26.9130   19.6380 C   0  0  0  0  0  3  0  0  0  0  0  0
  -24.8950  -27.6500   19.6230 C   0  0  0  0  0  3  0  0  0  0  0  0
  -23.6120  -29.7830   20.2300 C   0  0  0  0  0  2  0  0  0  0  0  0
  -24.6510  -31.0970   22.1370 N   0  0  0  0  0  0  0  0  0  0  0  0
  -23.5050  -32.1860   23.7610 O   0  0  0  0  0  0  0  0  0  0  0  0
  -22.7400  -29.4730   22.5710 C   0  0  0  0  0  0  0  0  0  0  0  0
  -21.4160  -29.2880   22.4410 N   0  0  0  0  0  0  0  0  0  0  0  0
  -23.4210  -28.8600   23.3980 O   0  0  0  0  0  0  0  0  0  0  0  0
  -20.9290  -29.8340   21.7440 H   0  0  0  0  0  0  0  0  0  0  0  0
  -18.0410  -28.1030   22.9400 C   0  0  0  0  0  0  0  0  0  0  0  0
  -20.5970  -28.3610   23.2200 C   0  0  0  0  0  3  0  0  0  0  0  0
  -20.7010  -26.9230   22.6610 C   0  0  0  0  0  2  0  0  0  0  0  0
  -19.6040  -26.5900   21.6470 C   0  0  0  0  0  2  0  0  0  0  0  0
  -18.2190  -26.7440   22.2820 C   0  0  0  0  0  2  0  0  0  0  0  0
  -19.1580  -28.8680   23.3660 C   0  0  0  0  0  0  0  0  0  0  0  0
  -18.9400  -30.1400   23.9390 C   0  0  0  0  0  3  0  0  0  0  0  0
  -17.6360  -30.6460   24.0920 C   0  0  0  0  0  3  0  0  0  0  0  0
  -16.5320  -29.8780   23.6860 C   0  0  0  0  0  3  0  0  0  0  0  0
  -16.7350  -28.6080   23.1150 C   0  0  0  0  0  3  0  0  0  0  0  0
  -25.8720  -32.5520   23.8430 C   0  0  0  0  0  3  0  0  0  0  0  0
  -25.5590  -33.9490   24.1680 N   0  0  0  0  0  0  0  0  0  0  0  0
  -25.8870  -35.0000   23.4030 C   0  0  0  0  0  0  0  0  0  0  0  0
  -26.5590  -34.8960   22.3730 O   0  0  0  0  0  0  0  0  0  0  0  0
  -24.9630  -34.1050   24.9680 H   0  0  0  0  0  0  0  0  0  0  0  0
  -24.1500  -36.7780   23.0360 C   0  0  0  0  0  1  0  0  0  0  0  0
  -25.3900  -36.3870   23.8540 C   0  0  0  0  0  3  0  0  0  0  0  0
  -27.5180  -37.2830   24.6870 C   0  0  0  0  0  1  0  0  0  0  0  0
  -26.4160  -37.4450   23.7420 N   0  0  0  0  0  0  0  0  0  0  0  0
  -26.0040  -38.3620   23.8940 H   0  0  0  0  0  0  0  0  0  0  0  0
  -26.4000  -31.7870   25.1190 C   0  0  1  0  0  0  0  0  0  0  0  0
  -25.3120  -31.5440   26.1900 C   0  0  0  0  0  1  0  0  0  0  0  0
  -26.9900  -30.4120   24.7240 C   0  0  0  0  0  1  0  0  0  0  0  0
  -27.5450  -32.5920   25.7780 C   0  0  0  0  0  1  0  0  0  0  0  0
  1  2  2  0
  1  4  1  0
  2  6  1  0
  4  5  2  0
  5  3  1  0
  5  8  1  0
  6 11  1  0
  6  3  2  0
  7  4  1  0
  7  9  1  0
  9 51  1  0
  9  8  1  0
 10  7  2  0
 12 11  1  0
 12 13  1  0
 14 13  1  0
 15 14  1  0
 16 21  1  0
 17 18  1  0
 17 16  1  0
 19 18  1  0
 19 26  1  0
 19 20  1  0
 21 15  1  0
 21 20  1  0
 22 15  2  0
 23 24  2  0
 24 43  1  0
 25 24  1  0
 25 28  1  0
 26 27  1  0
 26 23  1  0
 27 25  2  0
 28 29  1  0
 29 30  2  0
 31 34  1  0
 31 30  1  0
 32 31  2  0
 33 32  1  0
 33 28  2  0
 34 35  1  0
 35 36  1  0
 36 37  2  0
 38 37  1  0
 38 42  1  0
 39 38  2  0
 40 35  2  0
 40 39  1  0
 41 40  1  0
 43 44  1  0
 44 47  1  0
 44 46  1  0
 45 43  2  0
 48 49  1  0
 48 23  1  0
 50 48  1  0
 52 51  1  0
 53 64  2  0
 54 52  1  0
 54 59  1  0
 55 63  1  0
 55 65  1  0
 56 62  1  0
 56 58  1  0
 57 63  1  0
 58 59  2  0
 58 57  1  0
 60 54  2  0
 61 60  1  0
 61 56  2  0
 62 55  1  0
 63 53  1  0
 65 67  2  0
 66 65  1  0
 68 66  1  0
 69 78  2  0
 69 74  1  0
 70 66  1  0
 70 74  1  0
 71 70  1  0
 72 73  1  0
 72 71  1  0
 73 69  1  0
 74 75  2  0
 75 76  1  0
 77 76  2  0
 78 77  1  0
 79 53  1  0
 79 80  1  0
 79 89  1  0
 80 83  1  0
 81 85  1  0
 81 80  1  0
 82 81  2  0
 85 84  1  0
 87 85  1  0
 87 88  1  0
 87 86  1  0
 89 92  1  1
 89 90  1  0
 91 89  1  0
M  ISO  4  14 100  15 100  51 101  52 101
M  END
>  <TORSDO>  (35) 
F 21

>  <SCORE>  (35) 
-13.226

>  <name>  (35) 
34

>  <ligand_id>  (35) 
34

>  <original_smiles>  (35) 
[H]c1c([H])c([H])c2c(c1[H])C([H])([H])C([H])([H])C([H])([H])C2([H])N([H])C(=O)C1([H])N(C(=O)C([H])(N([H])C(=O)C([H])(N([H])C([H])([H])[H])C([H])([H])[H])C(C([H])([H])[H])(C([H])([H])[H])C([H])([H])[H])C([H])([H])c2c([H])c(OC([H])([H])C3([H])C(=O)c4c([H])c([H])c(C([H])([H])C([H])([H])C([H])([H])C([H])([H])C(=O)N5C([H])([H])C([H])([H])C([H])([H])C([H])(n6nc(-c7c([H])c([H])c(Oc8c([H])c([H])c(F)c([H])c8F)c([H])c7[H])c(C(=O)N([H])[H])c6N([H])[H])C5([H])[H])c([H])c4C3([H])[H])c([H])c([H])c2C1([H])[H]

>  <smiles>  (35) 
[H]c1c([H])c([H])c2c(c1[H])C([H])([H])C([H])([H])C([H])([H])C2([H])N([H])C(=O)C1([H])N(C(=O)C([H])(N([H])C(=O)C([H])(N([H])C([H])([H])[H])C([H])([H])[H])C(C([H])([H])[H])(C([H])([H])[H])C([H])([H])[H])C([H])([H])c2c([H])c(OC([H])([H])C3([H])C(=O)c4c([H])c([H])c(C([H])([H])C([H])([H])C([H])([H])C([H])([H])C(=O)N5C([H])([H])C([H])([H])C([H])([H])C([H])(n6nc(-c7c([H])c([H])c(Oc8c([H])c([H])c(F)c([H])c8F)c([H])c7[H])c(C(=O)N([H])[H])c6N([H])[H])C5([H])[H])c([H])c4C3([H])[H])c([H])c([H])c2C1([H])[H]

$$$$
35:0:0
     RDKit          3D

 92100  0  0  1  0  0  0  0  0999 V2000
  -27.9370  -22.6820   21.2910 C   0  0  0  0  0  3  0  0  0  0  0  0
  -29.5490  -22.7290   19.5520 C   0  0  0  0  0  3  0  0  0  0  0  0
  -27.7030  -24.1050   21.1360 C   0  0  0  0  0  3  0  0  0  0  0  0
  -29.3120  -24.1480   19.3930 C   0  0  0  0  0  3  0  0  0  0  0  0
  -28.9010  -21.9290   20.5420 C   0  0  0  0  0  0  0  0  0  0  0  0
  -28.4140  -24.9210   20.1980 C   0  0  0  0  0  0  0  0  0  0  0  0
  -28.3960  -26.3670   20.1250 O   0  0  0  0  0  0  0  0  0  0  0  0
  -24.6670  -31.8550   23.1750 C   0  0  0  0  0  0  0  0  0  0  0  0
  -27.2670  -27.2210   20.1320 C   0  0  0  0  0  0  0  0  0  0  0  0
  -23.4600  -30.4410   21.5550 C   0  0  0  0  0  3  0  0  0  0  0  0
  -24.9120  -28.8780   20.1170 C   0  0  0  0  0  0  0  0  0  0  0  0
  -26.0040  -30.7470   21.3620 C   0  0  0  0  0  2  0  0  0  0  0  0
  -26.0820  -29.3590   20.7150 C   0  0  0  0  0  0  0  0  0  0  0  0
  -27.2640  -28.5450   20.7000 C   0  0  0  0  0  3  0  0  0  0  0  0
  -26.0800  -26.8150   19.4940 C   0  0  0  0  0  3  0  0  0  0  0  0
  -24.9180  -27.6210   19.4920 C   0  0  0  0  0  3  0  0  0  0  0  0
  -23.6720  -29.7570   20.1750 C   0  0  0  0  0  2  0  0  0  0  0  0
  -24.7300  -31.0360   22.0850 N   0  0  0  0  0  0  0  0  0  0  0  0
  -23.5830  -32.1280   23.7110 O   0  0  0  0  0  0  0  0  0  0  0  0
  -22.8110  -29.4250   22.5240 C   0  0  0  0  0  0  0  0  0  0  0  0
  -21.4870  -29.2160   22.3910 N   0  0  0  0  0  0  0  0  0  0  0  0
  -23.4960  -28.8240   23.3560 O   0  0  0  0  0  0  0  0  0  0  0  0
  -20.9940  -29.7580   21.6940 H   0  0  0  0  0  0  0  0  0  0  0  0
  -18.1370  -27.9290   22.8540 C   0  0  0  0  0  0  0  0  0  0  0  0
  -20.6830  -28.2700   23.1650 C   0  0  0  0  0  3  0  0  0  0  0  0
  -20.8370  -26.8310   22.6210 C   0  0  0  0  0  2  0  0  0  0  0  0
  -19.7630  -26.4570   21.5950 C   0  0  0  0  0  2  0  0  0  0  0  0
  -18.3670  -26.5730   22.2120 C   0  0  0  0  0  2  0  0  0  0  0  0
  -19.2250  -28.7320   23.2860 C   0  0  0  0  0  0  0  0  0  0  0  0
  -18.9600  -30.0040   23.8420 C   0  0  0  0  0  3  0  0  0  0  0  0
  -17.6390  -30.4680   23.9790 C   0  0  0  0  0  3  0  0  0  0  0  0
  -16.5660  -29.6610   23.5640 C   0  0  0  0  0  3  0  0  0  0  0  0
  -16.8130  -28.3960   23.0070 C   0  0  0  0  0  3  0  0  0  0  0  0
  -25.9480  -32.5000   23.7860 C   0  0  0  0  0  3  0  0  0  0  0  0
  -25.6230  -33.8900   24.1280 N   0  0  0  0  0  0  0  0  0  0  0  0
  -25.9670  -34.9570   23.3950 C   0  0  0  0  0  0  0  0  0  0  0  0
  -26.6560  -34.8710   22.3730 O   0  0  0  0  0  0  0  0  0  0  0  0
  -25.0190  -34.0340   24.9240 H   0  0  0  0  0  0  0  0  0  0  0  0
  -24.2500  -36.7580   23.0270 C   0  0  0  0  0  1  0  0  0  0  0  0
  -25.4640  -36.3340   23.8690 C   0  0  0  0  0  3  0  0  0  0  0  0
  -27.5670  -37.1980   24.7960 C   0  0  0  0  0  1  0  0  0  0  0  0
  -26.5010  -37.3920   23.8160 N   0  0  0  0  0  0  0  0  0  0  0  0
  -26.0890  -38.3070   23.9760 H   0  0  0  0  0  0  0  0  0  0  0  0
  -26.4810  -31.7320   25.0580 C   0  0  1  0  0  0  0  0  0  0  0  0
  -25.3980  -31.4770   26.1320 C   0  0  0  0  0  1  0  0  0  0  0  0
  -27.0860  -30.3680   24.6590 C   0  0  0  0  0  1  0  0  0  0  0  0
  -27.6240  -32.5460   25.7110 C   0  0  0  0  0  1  0  0  0  0  0  0
  -29.3600  -20.4250   20.9760 C   0  0  0  0  0  2  0  0  0  0  0  0
  -29.3840  -19.0600   20.0910 C   0  0  0  0  0  0  0  0  0  0  0  0
  -28.7340  -19.0610   19.0430 O   0  0  0  0  0  0  0  0  0  0  0  0
  -30.1960  -17.6800   20.5590 C   0  0  0  0  0  3  0  0  0  0  0  0
  -29.7660  -17.3800   21.9400 N   0  0  0  0  0  4  0  0  0  0  0  0
  -30.1360  -16.5000   22.2450 H   0  0  0  0  0  0  0  0  0  0  0  0
  -28.7630  -17.3490   22.0110 H   0  0  0  0  0  0  0  0  0  0  0  0
  -30.1090  -18.0690   22.5850 H   0  0  0  0  0  0  0  0  0  0  0  0
  -30.0620  -16.3200   19.6420 C   0  0  0  0  0  2  0  0  0  0  0  0
  -30.8730  -14.9150   19.8210 C   0  0  0  0  0  0  0  0  0  0  0  0
  -30.6380  -12.5880   18.9320 C   0  0  0  0  0  2  0  0  0  0  0  0
  -29.6180  -12.5860   17.7700 C   0  0  0  0  0  2  0  0  0  0  0  0
  -28.1840  -12.4120   18.2990 C   0  0  0  0  0  2  0  0  0  0  0  0
  -27.8740  -13.3540   19.4890 C   0  0  0  0  0  3  0  0  0  0  0  0
  -28.9980  -13.3380   20.5450 C   0  0  0  0  0  2  0  0  0  0  0  0
  -30.2560  -13.6770   19.8700 N   0  0  0  0  0  0  0  0  0  0  0  0
  -32.0790  -14.9450   19.5620 O   0  0  0  0  0  0  0  0  0  0  0  0
  -25.5740  -13.9710   20.4460 C   0  0  0  0  0  0  0  0  0  0  0  0
  -24.5150  -13.2090   20.8480 C   0  0  0  0  0  0  0  0  0  0  0  0
  -24.9360  -11.8480   20.7270 C   0  0  0  0  0  0  0  0  0  0  0  0
  -26.5680  -13.0800   20.0730 N   0  0  0  0  0  0  0  0  0  0  0  0
  -26.1990  -11.7960   20.3200 N   0  0  0  0  0  0  0  0  0  0  0  0
  -24.1880  -10.6010   20.9260 C   0  0  0  0  0  0  0  0  0  0  0  0
  -24.6030   -9.6300   21.8660 C   0  0  0  0  0  3  0  0  0  0  0  0
  -23.8670   -8.4360   22.0350 C   0  0  0  0  0  3  0  0  0  0  0  0
  -22.6950   -8.2120   21.2740 C   0  0  0  0  0  0  0  0  0  0  0  0
  -22.3020   -9.1700   20.3240 C   0  0  0  0  0  3  0  0  0  0  0  0
  -23.0350  -10.3560   20.1540 C   0  0  0  0  0  3  0  0  0  0  0  0
  -21.9220   -7.0770   21.3640 O   0  0  0  0  0  0  0  0  0  0  0  0
  -21.7720   -6.3990   22.5470 C   0  0  0  0  0  0  0  0  0  0  0  0
  -21.2300   -7.0160   23.6970 C   0  0  0  0  0  3  0  0  0  0  0  0
  -21.0400   -6.2680   24.8750 C   0  0  0  0  0  3  0  0  0  0  0  0
  -21.3620   -4.8980   24.9020 C   0  0  0  0  0  0  0  0  0  0  0  0
  -21.8870   -4.2760   23.7560 C   0  0  0  0  0  3  0  0  0  0  0  0
  -22.0900   -5.0230   22.5820 C   0  0  0  0  0  0  0  0  0  0  0  0
  -22.5800   -4.4160   21.4720 F   0  0  0  0  0  0  0  0  0  0  0  0
  -21.1700   -4.1760   26.0300 F   0  0  0  0  0  0  0  0  0  0  0  0
  -23.1530  -13.7050   21.2290 C   0  0  0  0  0  0  0  0  0  0  0  0
  -22.4840  -13.0010   22.1320 N   0  0  0  0  0  0  0  0  0  0  0  0
  -22.6950  -14.7510   20.7650 O   0  0  0  0  0  0  0  0  0  0  0  0
  -22.8800  -12.1560   22.5210 H   0  0  0  0  0  0  0  0  0  0  0  0
  -21.5660  -13.3060   22.4300 H   0  0  0  0  0  0  0  0  0  0  0  0
  -25.7620  -15.3460   20.3590 N   0  0  0  0  0  0  0  0  0  0  0  0
  -26.5520  -15.8130   19.9340 H   0  0  0  0  0  0  0  0  0  0  0  0
  -25.0990  -15.9770   20.8010 H   0  0  0  0  0  0  0  0  0  0  0  0
  2  5  1  0
  3  1  1  0
  4  2  2  0
  4  6  1  0
  5 48  1  0
  5  1  2  0
  6  3  2  0
  7  9  1  0
  7  6  1  0
  8 19  2  0
  9 14  1  0
 10 18  1  0
 10 20  1  0
 11 17  1  0
 11 13  1  0
 12 18  1  0
 13 12  1  0
 14 13  2  0
 15  9  2  0
 16 15  1  0
 16 11  2  0
 17 10  1  0
 18  8  1  0
 20 22  2  0
 21 20  1  0
 23 21  1  0
 24 33  2  0
 24 29  1  0
 25 21  1  0
 25 29  1  0
 26 25  1  0
 27 28  1  0
 27 26  1  0
 28 24  1  0
 29 30  2  0
 30 31  1  0
 32 31  2  0
 33 32  1  0
 34  8  1  0
 34 35  1  0
 34 44  1  0
 35 38  1  0
 36 40  1  0
 36 35  1  0
 37 36  2  0
 40 39  1  0
 42 40  1  0
 42 43  1  0
 42 41  1  0
 44 47  1  1
 44 45  1  0
 46 44  1  0
 49 51  1  0
 49 48  1  0
 50 49  2  0
 51 56  1  0
 51 52  1  0
 52 54  1  0
 52 53  1  0
 52 55  1  0
 56 57  1  0
 57 63  1  0
 58 63  1  0
 59 60  1  0
 59 58  1  0
 61 60  1  0
 61 68  1  0
 61 62  1  0
 63 62  1  0
 64 57  2  0
 65 66  2  0
 66 85  1  0
 67 66  1  0
 67 70  1  0
 68 69  1  0
 68 65  1  0
 69 67  2  0
 70 71  1  0
 71 72  2  0
 73 76  1  0
 73 72  1  0
 74 73  2  0
 75 74  1  0
 75 70  2  0
 76 77  1  0
 77 82  2  0
 77 78  1  0
 78 79  2  0
 79 80  1  0
 80 84  1  0
 81 80  2  0
 82 81  1  0
 83 82  1  0
 85 86  1  0
 86 89  1  0
 86 88  1  0
 87 85  2  0
 90 65  1  0
 90 92  1  0
 91 90  1  0
M  ISO  4   6 101   7 101  56 100  57 100
M  END
>  <TORSDO>  (36) 
F 21

>  <SCORE>  (36) 
-13.582

>  <name>  (36) 
35

>  <ligand_id>  (36) 
35

>  <original_smiles>  (36) 
[H]c1c([H])c([H])c2c(c1[H])C([H])([H])C([H])([H])C([H])([H])C2([H])N([H])C(=O)C1([H])N(C(=O)C([H])(N([H])C(=O)C([H])(N([H])C([H])([H])[H])C([H])([H])[H])C(C([H])([H])[H])(C([H])([H])[H])C([H])([H])[H])C([H])([H])c2c([H])c(Oc3c([H])c([H])c(C([H])([H])C(=O)C([H])(C([H])([H])C(=O)N4C([H])([H])C([H])([H])C([H])([H])C([H])(n5nc(-c6c([H])c([H])c(Oc7c([H])c([H])c(F)c([H])c7F)c([H])c6[H])c(C(=O)N([H])[H])c5N([H])[H])C4([H])[H])[N+]([H])([H])[H])c([H])c3[H])c([H])c([H])c2C1([H])[H]

>  <smiles>  (36) 
[H]c1c([H])c([H])c2c(c1[H])C([H])([H])C([H])([H])C([H])([H])C2([H])N([H])C(=O)C1([H])N(C(=O)C([H])(N([H])C(=O)C([H])(N([H])C([H])([H])[H])C([H])([H])[H])C(C([H])([H])[H])(C([H])([H])[H])C([H])([H])[H])C([H])([H])c2c([H])c(Oc3c([H])c([H])c(C([H])([H])C(=O)C([H])(C([H])([H])C(=O)N4C([H])([H])C([H])([H])C([H])([H])C([H])(n5nc(-c6c([H])c([H])c(Oc7c([H])c([H])c(F)c([H])c7F)c([H])c6[H])c(C(=O)N([H])[H])c5N([H])[H])C4([H])[H])[N+]([H])([H])[H])c([H])c3[H])c([H])c([H])c2C1([H])[H]

$$$$
36:0:0
     RDKit          3D

 87 95  0  0  1  0  0  0  0  0999 V2000
  -28.8140  -22.8170   20.3650 C   0  0  0  0  0  0  0  0  0  0  0  0
  -29.4920  -22.9360   21.3900 O   0  0  0  0  0  0  0  0  0  0  0  0
  -27.3830  -21.0270   19.0910 C   0  0  0  0  0  1  0  0  0  0  0  0
  -28.8050  -21.1990   19.6710 C   0  0  0  0  0  3  0  0  0  0  0  0
  -30.4900  -15.3560   19.7400 C   0  0  0  0  0  0  0  0  0  0  0  0
  -30.3890  -12.9170   18.8110 C   0  0  0  0  0  2  0  0  0  0  0  0
  -29.3790  -12.7270   17.6500 C   0  0  0  0  0  2  0  0  0  0  0  0
  -27.9750  -12.4400   18.2060 C   0  0  0  0  0  2  0  0  0  0  0  0
  -27.6240  -13.3940   19.3770 C   0  0  0  0  0  3  0  0  0  0  0  0
  -28.7500  -13.5140   20.4220 C   0  0  0  0  0  2  0  0  0  0  0  0
  -29.9150  -14.0470   19.7030 N   0  0  0  0  0  0  0  0  0  0  0  0
  -31.6610  -15.3360   19.3160 O   0  0  0  0  0  0  0  0  0  0  0  0
  -28.5040  -18.6420   21.1070 C   0  0  0  0  0  2  0  0  0  0  0  0
  -28.9820  -17.0990   21.1340 C   0  0  0  0  0  2  0  0  0  0  0  0
  -29.9410  -18.1670   19.3430 C   0  0  0  0  0  2  0  0  0  0  0  0
  -29.4050  -19.5610   20.2150 C   0  0  0  0  0  3  0  0  0  0  0  0
  -29.7810  -16.6700   19.9390 N   0  0  0  0  0  0  0  0  0  0  0  0
  -25.3450  -13.9730   20.3510 C   0  0  0  0  0  0  0  0  0  0  0  0
  -24.3050  -13.2060   20.7880 C   0  0  0  0  0  0  0  0  0  0  0  0
  -24.7360  -11.8480   20.6720 C   0  0  0  0  0  0  0  0  0  0  0  0
  -26.3400  -13.0870   19.9840 N   0  0  0  0  0  0  0  0  0  0  0  0
  -25.9950  -11.7980   20.2450 N   0  0  0  0  0  0  0  0  0  0  0  0
  -24.0020  -10.5950   20.8850 C   0  0  0  0  0  0  0  0  0  0  0  0
  -24.4600   -9.6120   21.7920 C   0  0  0  0  0  3  0  0  0  0  0  0
  -23.7210   -8.4270   21.9970 C   0  0  0  0  0  3  0  0  0  0  0  0
  -22.5120   -8.2140   21.2930 C   0  0  0  0  0  0  0  0  0  0  0  0
  -22.0730   -9.1850   20.3750 C   0  0  0  0  0  3  0  0  0  0  0  0
  -22.8110  -10.3610   20.1690 C   0  0  0  0  0  3  0  0  0  0  0  0
  -21.7430   -7.0810   21.4070 O   0  0  0  0  0  0  0  0  0  0  0  0
  -21.6890   -6.3610   22.5750 C   0  0  0  0  0  0  0  0  0  0  0  0
  -21.2760   -6.9470   23.7900 C   0  0  0  0  0  3  0  0  0  0  0  0
  -21.1650   -6.1580   24.9520 C   0  0  0  0  0  3  0  0  0  0  0  0
  -21.4600   -4.7820   24.9010 C   0  0  0  0  0  0  0  0  0  0  0  0
  -21.8640   -4.1940   23.6890 C   0  0  0  0  0  3  0  0  0  0  0  0
  -21.9750   -4.9810   22.5290 C   0  0  0  0  0  0  0  0  0  0  0  0
  -22.3460   -4.4060   21.3590 F   0  0  0  0  0  0  0  0  0  0  0  0
  -21.3470   -4.0210   26.0130 F   0  0  0  0  0  0  0  0  0  0  0  0
  -22.9490  -13.7010   21.1960 C   0  0  0  0  0  0  0  0  0  0  0  0
  -22.2940  -13.0050   22.1120 N   0  0  0  0  0  0  0  0  0  0  0  0
  -22.4860  -14.7440   20.7320 O   0  0  0  0  0  0  0  0  0  0  0  0
  -22.6870  -12.1620   22.5060 H   0  0  0  0  0  0  0  0  0  0  0  0
  -21.3850  -13.3170   22.4250 H   0  0  0  0  0  0  0  0  0  0  0  0
  -25.5200  -15.3470   20.2060 N   0  0  0  0  0  0  0  0  0  0  0  0
  -24.7750  -16.0030   20.4140 H   0  0  0  0  0  0  0  0  0  0  0  0
  -26.3460  -15.7920   19.8280 H   0  0  0  0  0  0  0  0  0  0  0  0
  -28.0180  -24.2840   19.8140 C   0  0  0  0  0  2  0  0  0  0  0  0
  -28.1920  -25.8480   20.3040 O   0  0  0  0  0  0  0  0  0  0  0  0
  -24.5550  -31.7910   23.1690 C   0  0  0  0  0  0  0  0  0  0  0  0
  -27.1960  -26.9490   20.1790 C   0  0  0  0  0  0  0  0  0  0  0  0
  -23.4040  -30.3900   21.5080 C   0  0  0  0  0  3  0  0  0  0  0  0
  -24.8900  -28.8150   20.0980 C   0  0  0  0  0  0  0  0  0  0  0  0
  -25.9680  -30.6260   21.4110 C   0  0  0  0  0  2  0  0  0  0  0  0
  -26.0620  -29.2230   20.7470 C   0  0  0  0  0  0  0  0  0  0  0  0
  -27.2110  -28.3080   20.7690 C   0  0  0  0  0  3  0  0  0  0  0  0
  -26.0010  -26.6980   19.4690 C   0  0  0  0  0  3  0  0  0  0  0  0
  -24.8880  -27.5750   19.4380 C   0  0  0  0  0  3  0  0  0  0  0  0
  -23.6630  -29.7230   20.1290 C   0  0  0  0  0  2  0  0  0  0  0  0
  -24.6620  -30.9620   22.0830 N   0  0  0  0  0  0  0  0  0  0  0  0
  -23.4540  -32.0720   23.6720 O   0  0  0  0  0  0  0  0  0  0  0  0
  -22.7000  -29.3840   22.4540 C   0  0  0  0  0  0  0  0  0  0  0  0
  -21.3700  -29.2130   22.3110 N   0  0  0  0  0  0  0  0  0  0  0  0
  -23.3570  -28.7560   23.2890 O   0  0  0  0  0  0  0  0  0  0  0  0
  -20.8920  -29.7690   21.6140 H   0  0  0  0  0  0  0  0  0  0  0  0
  -17.9910  -27.9760   22.7620 C   0  0  0  0  0  0  0  0  0  0  0  0
  -20.5450  -28.2640   23.0640 C   0  0  0  0  0  3  0  0  0  0  0  0
  -20.6700  -26.8350   22.4850 C   0  0  0  0  0  2  0  0  0  0  0  0
  -19.5880  -26.5090   21.4500 C   0  0  0  0  0  2  0  0  0  0  0  0
  -18.1930  -26.6340   22.0730 C   0  0  0  0  0  2  0  0  0  0  0  0
  -19.0970  -28.7470   23.2110 C   0  0  0  0  0  0  0  0  0  0  0  0
  -18.8600  -29.9980   23.8180 C   0  0  0  0  0  3  0  0  0  0  0  0
  -17.5490  -30.4880   23.9710 C   0  0  0  0  0  3  0  0  0  0  0  0
  -16.4550  -29.7150   23.5440 C   0  0  0  0  0  3  0  0  0  0  0  0
  -16.6770  -28.4590   22.9450 C   0  0  0  0  0  3  0  0  0  0  0  0
  -25.8110  -32.4460   23.8210 C   0  0  0  0  0  3  0  0  0  0  0  0
  -25.4840  -33.8500   24.1270 N   0  0  0  0  0  0  0  0  0  0  0  0
  -25.8240  -34.9030   23.3730 C   0  0  0  0  0  0  0  0  0  0  0  0
  -26.5130  -34.7960   22.3550 O   0  0  0  0  0  0  0  0  0  0  0  0
  -24.8680  -34.0070   24.9130 H   0  0  0  0  0  0  0  0  0  0  0  0
  -24.0900  -36.6910   22.9990 C   0  0  0  0  0  1  0  0  0  0  0  0
  -25.3280  -36.2950   23.8170 C   0  0  0  0  0  3  0  0  0  0  0  0
  -27.4600  -37.1860   24.6560 C   0  0  0  0  0  1  0  0  0  0  0  0
  -26.3540  -37.3570   23.7160 N   0  0  0  0  0  0  0  0  0  0  0  0
  -25.9400  -38.2670   23.8900 H   0  0  0  0  0  0  0  0  0  0  0  0
  -26.2850  -31.7050   25.1330 C   0  0  1  0  0  0  0  0  0  0  0  0
  -25.1530  -31.4800   26.1660 C   0  0  0  0  0  1  0  0  0  0  0  0
  -26.8860  -30.3220   24.7950 C   0  0  0  0  0  1  0  0  0  0  0  0
  -27.4100  -32.5170   25.8160 C   0  0  0  0  0  1  0  0  0  0  0  0
  1  2  2  0
  4  3  1  0
  4  1  1  0
  5 17  1  0
  6 11  1  0
  7  8  1  0
  7  6  1  0
  9  8  1  0
  9 21  1  0
  9 10  1  0
 11  5  1  0
 11 10  1  0
 12  5  2  0
 13 14  1  0
 15 17  1  0
 15 16  1  0
 16  4  1  0
 16 13  1  0
 17 14  1  0
 18 19  2  0
 19 38  1  0
 20 19  1  0
 20 23  1  0
 21 22  1  0
 21 18  1  0
 22 20  2  0
 23 24  1  0
 24 25  2  0
 26 29  1  0
 26 25  1  0
 27 26  2  0
 28 27  1  0
 28 23  2  0
 29 30  1  0
 30 31  1  0
 31 32  2  0
 33 32  1  0
 33 37  1  0
 34 33  2  0
 35 30  2  0
 35 34  1  0
 36 35  1  0
 38 39  1  0
 39 42  1  0
 39 41  1  0
 40 38  2  0
 43 18  1  0
 43 44  1  0
 45 43  1  0
 46 47  1  0
 46  1  1  0
 48 59  2  0
 49 47  1  0
 49 54  1  0
 50 58  1  0
 50 60  1  0
 51 57  1  0
 51 53  1  0
 52 58  1  0
 53 54  2  0
 53 52  1  0
 55 49  2  0
 56 55  1  0
 56 51  2  0
 57 50  1  0
 58 48  1  0
 60 62  2  0
 61 60  1  0
 63 61  1  0
 64 73  2  0
 64 69  1  0
 65 61  1  0
 65 69  1  0
 66 65  1  0
 67 68  1  0
 67 66  1  0
 68 64  1  0
 69 70  2  0
 70 71  1  0
 72 71  2  0
 73 72  1  0
 74 48  1  0
 74 75  1  0
 74 84  1  0
 75 78  1  0
 76 80  1  0
 76 75  1  0
 77 76  2  0
 80 79  1  0
 82 80  1  0
 82 83  1  0
 82 81  1  0
 84 87  1  1
 84 85  1  0
 86 84  1  0
M  ISO  4   5 100  17 100  46 101  47 101
M  END
>  <TORSDO>  (37) 
F 18

>  <SCORE>  (37) 
-15.004

>  <name>  (37) 
36

>  <ligand_id>  (37) 
36

>  <original_smiles>  (37) 
[H]c1c([H])c([H])c2c(c1[H])C([H])([H])C([H])([H])C([H])([H])C2([H])N([H])C(=O)C1([H])N(C(=O)C([H])(N([H])C(=O)C([H])(N([H])C([H])([H])[H])C([H])([H])[H])C(C([H])([H])[H])(C([H])([H])[H])C([H])([H])[H])C([H])([H])c2c([H])c(OC([H])([H])C(=O)C([H])(C([H])([H])[H])C3([H])C([H])([H])N(C(=O)N4C([H])([H])C([H])([H])C([H])([H])C([H])(n5nc(-c6c([H])c([H])c(Oc7c([H])c([H])c(F)c([H])c7F)c([H])c6[H])c(C(=O)N([H])[H])c5N([H])[H])C4([H])[H])C([H])([H])C3([H])[H])c([H])c([H])c2C1([H])[H]

>  <smiles>  (37) 
[H]c1c([H])c([H])c2c(c1[H])C([H])([H])C([H])([H])C([H])([H])C2([H])N([H])C(=O)C1([H])N(C(=O)C([H])(N([H])C(=O)C([H])(N([H])C([H])([H])[H])C([H])([H])[H])C(C([H])([H])[H])(C([H])([H])[H])C([H])([H])[H])C([H])([H])c2c([H])c(OC([H])([H])C(=O)C([H])(C([H])([H])[H])C3([H])C([H])([H])N(C(=O)N4C([H])([H])C([H])([H])C([H])([H])C([H])(n5nc(-c6c([H])c([H])c(Oc7c([H])c([H])c(F)c([H])c7F)c([H])c6[H])c(C(=O)N([H])[H])c5N([H])[H])C4([H])[H])C([H])([H])C3([H])[H])c([H])c([H])c2C1([H])[H]

$$$$
37:0:0
     RDKit          3D

 92100  0  0  1  0  0  0  0  0999 V2000
  -29.7330  -19.7720   20.0060 N   0  0  0  0  0  4  0  0  0  0  0  0
  -29.2250  -19.7200   19.1370 H   0  0  0  0  0  0  0  0  0  0  0  0
  -30.6940  -19.9290   19.7470 H   0  0  0  0  0  0  0  0  0  0  0  0
  -31.8140  -17.4020   20.7740 C   0  0  0  0  0  0  0  0  0  0  0  0
  -31.5770  -18.1050   22.1000 C   0  0  0  0  0  2  0  0  0  0  0  0
  -30.0670  -18.3630   22.1200 C   0  0  0  0  0  2  0  0  0  0  0  0
  -30.5050  -17.2050   19.9970 C   0  0  0  0  0  3  0  0  0  0  0  0
  -29.6040  -18.3740   20.6440 C   0  0  0  0  0  3  0  0  0  0  0  0
  -32.9390  -17.0580   20.4070 O   0  0  0  0  0  0  0  0  0  0  0  0
  -30.7470  -14.6360   19.8430 C   0  0  0  0  0  0  0  0  0  0  0  0
  -30.4420  -12.3590   18.8880 C   0  0  0  0  0  2  0  0  0  0  0  0
  -29.4240  -12.4270   17.7280 C   0  0  0  0  0  2  0  0  0  0  0  0
  -27.9900  -12.2630   18.2660 C   0  0  0  0  0  2  0  0  0  0  0  0
  -27.7040  -13.1790   19.4850 C   0  0  0  0  0  3  0  0  0  0  0  0
  -28.8360  -13.1090   20.5350 C   0  0  0  0  0  2  0  0  0  0  0  0
  -30.0970  -13.4270   19.8520 N   0  0  0  0  0  0  0  0  0  0  0  0
  -31.8670  -14.7340   19.3390 O   0  0  0  0  0  0  0  0  0  0  0  0
  -30.0580  -15.7670   20.2200 N   0  0  0  0  0  0  0  0  0  0  0  0
  -29.1450  -15.6240   20.6230 H   0  0  0  0  0  0  0  0  0  0  0  0
  -25.3920  -13.7840   20.4230 C   0  0  0  0  0  0  0  0  0  0  0  0
  -24.3470  -13.0150   20.8560 C   0  0  0  0  0  0  0  0  0  0  0  0
  -24.7820  -11.6580   20.7430 C   0  0  0  0  0  0  0  0  0  0  0  0
  -26.3970  -12.8970   20.0740 N   0  0  0  0  0  0  0  0  0  0  0  0
  -26.0420  -11.6120   20.3280 N   0  0  0  0  0  0  0  0  0  0  0  0
  -24.0530  -10.4010   20.9530 C   0  0  0  0  0  0  0  0  0  0  0  0
  -24.4860   -9.4420   21.8950 C   0  0  0  0  0  3  0  0  0  0  0  0
  -23.7560   -8.2490   22.0900 C   0  0  0  0  0  3  0  0  0  0  0  0
  -22.5790   -8.0070   21.3430 C   0  0  0  0  0  0  0  0  0  0  0  0
  -22.1660   -8.9540   20.3890 C   0  0  0  0  0  3  0  0  0  0  0  0
  -22.8960  -10.1380   20.1920 C   0  0  0  0  0  3  0  0  0  0  0  0
  -21.8210   -6.8660   21.4480 O   0  0  0  0  0  0  0  0  0  0  0  0
  -21.7110   -6.1810   22.6310 C   0  0  0  0  0  0  0  0  0  0  0  0
  -21.1980   -6.7870   23.7990 C   0  0  0  0  0  3  0  0  0  0  0  0
  -21.0380   -6.0260   24.9740 C   0  0  0  0  0  3  0  0  0  0  0  0
  -21.3800   -4.6610   24.9820 C   0  0  0  0  0  0  0  0  0  0  0  0
  -21.8860   -4.0550   23.8190 C   0  0  0  0  0  3  0  0  0  0  0  0
  -22.0480   -4.8130   22.6460 C   0  0  0  0  0  0  0  0  0  0  0  0
  -22.5160   -4.2190   21.5220 F   0  0  0  0  0  0  0  0  0  0  0  0
  -21.2200   -3.9280   26.1090 F   0  0  0  0  0  0  0  0  0  0  0  0
  -22.9850  -13.5020   21.2570 C   0  0  0  0  0  0  0  0  0  0  0  0
  -22.3180  -12.7870   22.1560 N   0  0  0  0  0  0  0  0  0  0  0  0
  -22.5270  -14.5530   20.8100 O   0  0  0  0  0  0  0  0  0  0  0  0
  -22.7040  -11.9370   22.5370 H   0  0  0  0  0  0  0  0  0  0  0  0
  -21.4080  -13.0960   22.4670 H   0  0  0  0  0  0  0  0  0  0  0  0
  -25.5650  -15.1560   20.2740 N   0  0  0  0  0  0  0  0  0  0  0  0
  -24.8110  -15.8140   20.4480 H   0  0  0  0  0  0  0  0  0  0  0  0
  -26.3740  -15.5880   19.8460 H   0  0  0  0  0  0  0  0  0  0  0  0
  -29.2650  -21.0410   20.7210 C   0  0  0  0  0  3  0  0  0  0  0  0
  -28.9870  -22.3530   19.8360 C   0  0  0  0  0  3  0  0  0  0  0  0
  -28.8790  -23.7920   20.5420 C   0  0  0  0  0  3  0  0  0  0  0  0
  -28.1440  -24.9770   19.7610 C   0  0  0  0  0  3  0  0  0  0  0  0
  -28.2470  -26.3930   20.2280 O   0  0  0  0  0  0  0  0  0  0  0  0
  -24.6540  -31.9050   23.2240 C   0  0  0  0  0  0  0  0  0  0  0  0
  -27.1470  -27.2720   20.1510 C   0  0  0  0  0  0  0  0  0  0  0  0
  -23.4130  -30.5290   21.5950 C   0  0  0  0  0  3  0  0  0  0  0  0
  -24.8220  -28.9550   20.1580 C   0  0  0  0  0  0  0  0  0  0  0  0
  -25.9590  -30.7870   21.4020 C   0  0  0  0  0  2  0  0  0  0  0  0
  -26.0030  -29.4070   20.7540 C   0  0  0  0  0  0  0  0  0  0  0  0
  -27.1650  -28.5740   20.7490 C   0  0  0  0  0  3  0  0  0  0  0  0
  -25.9460  -26.8970   19.5020 C   0  0  0  0  0  3  0  0  0  0  0  0
  -24.7960  -27.7050   19.5230 C   0  0  0  0  0  3  0  0  0  0  0  0
  -23.6040  -29.8540   20.2140 C   0  0  0  0  0  2  0  0  0  0  0  0
  -24.6950  -31.0920   22.1290 N   0  0  0  0  0  0  0  0  0  0  0  0
  -23.5810  -32.2070   23.7650 O   0  0  0  0  0  0  0  0  0  0  0  0
  -22.7370  -29.5240   22.5600 C   0  0  0  0  0  0  0  0  0  0  0  0
  -21.4160  -29.3340   22.4090 N   0  0  0  0  0  0  0  0  0  0  0  0
  -23.4030  -28.9200   23.4040 O   0  0  0  0  0  0  0  0  0  0  0  0
  -20.9390  -29.8740   21.7010 H   0  0  0  0  0  0  0  0  0  0  0  0
  -18.0450  -28.0920   22.8300 C   0  0  0  0  0  0  0  0  0  0  0  0
  -20.5860  -28.4090   23.1830 C   0  0  0  0  0  3  0  0  0  0  0  0
  -20.7350  -26.9600   22.6630 C   0  0  0  0  0  2  0  0  0  0  0  0
  -19.6770  -26.5830   21.6210 C   0  0  0  0  0  2  0  0  0  0  0  0
  -18.2700  -26.7240   22.2080 C   0  0  0  0  0  2  0  0  0  0  0  0
  -19.1330  -28.8900   23.2720 C   0  0  0  0  0  0  0  0  0  0  0  0
  -18.8690  -30.1680   23.8100 C   0  0  0  0  0  3  0  0  0  0  0  0
  -17.5510  -30.6500   23.9120 C   0  0  0  0  0  3  0  0  0  0  0  0
  -16.4770  -29.8490   23.4860 C   0  0  0  0  0  3  0  0  0  0  0  0
  -16.7240  -28.5730   22.9500 C   0  0  0  0  0  3  0  0  0  0  0  0
  -25.9540  -32.5140   23.8350 C   0  0  0  0  0  3  0  0  0  0  0  0
  -25.6580  -33.9050   24.2100 N   0  0  0  0  0  0  0  0  0  0  0  0
  -25.9680  -34.9760   23.4670 C   0  0  0  0  0  0  0  0  0  0  0  0
  -26.6030  -34.8970   22.4110 O   0  0  0  0  0  0  0  0  0  0  0  0
  -25.0920  -34.0390   25.0350 H   0  0  0  0  0  0  0  0  0  0  0  0
  -24.2290  -36.7780   23.2210 C   0  0  0  0  0  1  0  0  0  0  0  0
  -25.4990  -36.3530   23.9750 C   0  0  0  0  0  3  0  0  0  0  0  0
  -27.6630  -37.2200   24.7490 C   0  0  0  0  0  1  0  0  0  0  0  0
  -26.5280  -37.4090   23.8490 N   0  0  0  0  0  0  0  0  0  0  0  0
  -26.1290  -38.3240   24.0330 H   0  0  0  0  0  0  0  0  0  0  0  0
  -26.4930  -31.7050   25.0800 C   0  0  1  0  0  0  0  0  0  0  0  0
  -25.4170  -31.4220   26.1540 C   0  0  0  0  0  1  0  0  0  0  0  0
  -27.0810  -30.3460   24.6360 C   0  0  0  0  0  1  0  0  0  0  0  0
  -27.6470  -32.4880   25.7510 C   0  0  0  0  0  1  0  0  0  0  0  0
  1 48  1  0
  2  1  1  0
  3  1  1  0
  4  5  1  0
  5  6  1  0
  7 18  1  0
  7  8  1  0
  7  4  1  0
  8  1  1  0
  8  6  1  0
  9  4  2  0
 10 16  1  0
 10 18  1  0
 11 16  1  0
 12 13  1  0
 12 11  1  0
 14 13  1  0
 14 23  1  0
 14 15  1  0
 16 15  1  0
 17 10  2  0
 18 19  1  0
 20 21  2  0
 21 40  1  0
 22 21  1  0
 22 25  1  0
 23 24  1  0
 23 20  1  0
 24 22  2  0
 25 26  1  0
 26 27  2  0
 28 31  1  0
 28 27  1  0
 29 28  2  0
 30 29  1  0
 30 25  2  0
 31 32  1  0
 32 37  2  0
 32 33  1  0
 33 34  2  0
 34 35  1  0
 35 39  1  0
 36 35  2  0
 37 36  1  0
 38 37  1  0
 40 41  1  0
 41 44  1  0
 41 43  1  0
 42 40  2  0
 45 20  1  0
 45 46  1  0
 47 45  1  0
 49 50  1  0
 49 48  2  0
 51 52  1  0
 51 50  2  0
 53 64  2  0
 54 52  1  0
 54 59  1  0
 55 63  1  0
 55 65  1  0
 56 62  1  0
 56 58  1  0
 57 63  1  0
 58 57  1  0
 59 58  2  0
 60 61  1  0
 60 54  2  0
 61 56  2  0
 62 55  1  0
 63 53  1  0
 65 67  2  0
 66 65  1  0
 68 66  1  0
 69 78  2  0
 69 74  1  0
 70 66  1  0
 70 74  1  0
 71 70  1  0
 72 73  1  0
 72 71  1  0
 73 69  1  0
 74 75  2  0
 75 76  1  0
 77 76  2  0
 78 77  1  0
 79 53  1  0
 79 80  1  0
 79 89  1  0
 80 83  1  0
 81 85  1  0
 81 80  1  0
 82 81  2  0
 85 84  1  0
 87 85  1  0
 87 88  1  0
 87 86  1  0
 89 92  1  1
 89 90  1  0
 91 89  1  0
M  ISO  4  10 100  18 100  51 101  52 101
M  END
>  <TORSDO>  (38) 
F 21

>  <SCORE>  (38) 
-12.673

>  <name>  (38) 
37

>  <ligand_id>  (38) 
37

>  <original_smiles>  (38) 
[H]c1c([H])c([H])c2c(c1[H])C([H])([H])C([H])([H])C([H])([H])C2([H])N([H])C(=O)C1([H])N(C(=O)C([H])(N([H])C(=O)C([H])(N([H])C([H])([H])[H])C([H])([H])[H])C(C([H])([H])[H])(C([H])([H])[H])C([H])([H])[H])C([H])([H])c2c([H])c(OC([H])([H])C([H])([H])C([H])([H])C([H])([H])[N+]([H])([H])C3([H])C([H])(N([H])C(=O)N4C([H])([H])C([H])([H])C([H])([H])C([H])(n5nc(-c6c([H])c([H])c(Oc7c([H])c([H])c(F)c([H])c7F)c([H])c6[H])c(C(=O)N([H])[H])c5N([H])[H])C4([H])[H])C(=O)C([H])([H])C3([H])[H])c([H])c([H])c2C1([H])[H]

>  <smiles>  (38) 
[H]c1c([H])c([H])c2c(c1[H])C([H])([H])C([H])([H])C([H])([H])C2([H])N([H])C(=O)C1([H])N(C(=O)C([H])(N([H])C(=O)C([H])(N([H])C([H])([H])[H])C([H])([H])[H])C(C([H])([H])[H])(C([H])([H])[H])C([H])([H])[H])C([H])([H])c2c([H])c(OC([H])([H])C([H])([H])C([H])([H])C([H])([H])[N+]([H])([H])C3([H])C([H])(N([H])C(=O)N4C([H])([H])C([H])([H])C([H])([H])C([H])(n5nc(-c6c([H])c([H])c(Oc7c([H])c([H])c(F)c([H])c7F)c([H])c6[H])c(C(=O)N([H])[H])c5N([H])[H])C4([H])[H])C(=O)C([H])([H])C3([H])[H])c([H])c([H])c2C1([H])[H]

$$$$
38:0:0
     RDKit          3D

 94102  0  0  1  0  0  0  0  0999 V2000
  -29.1550  -21.3610   18.9950 C   0  0  0  0  0  3  0  0  0  0  0  0
  -29.6890  -21.5360   21.3100 C   0  0  0  0  0  3  0  0  0  0  0  0
  -28.7020  -22.7200   18.9830 C   0  0  0  0  0  3  0  0  0  0  0  0
  -29.2090  -22.9020   21.3040 C   0  0  0  0  0  3  0  0  0  0  0  0
  -29.6550  -20.6950   20.1550 C   0  0  0  0  0  0  0  0  0  0  0  0
  -28.6840  -23.5510   20.1390 C   0  0  0  0  0  0  0  0  0  0  0  0
  -30.3360  -19.2420   19.9960 C   0  0  0  0  0  2  0  0  0  0  0  0
  -30.0290  -17.8000   20.7390 C   0  0  0  0  0  3  0  0  0  0  0  0
  -28.5720  -17.5920   20.8450 N   0  0  0  0  0  4  0  0  0  0  0  0
  -28.1570  -17.4230   19.9470 H   0  0  0  0  0  0  0  0  0  0  0  0
  -28.1470  -18.4220   21.2260 H   0  0  0  0  0  0  0  0  0  0  0  0
  -28.3480  -16.8330   21.4630 H   0  0  0  0  0  0  0  0  0  0  0  0
  -32.2700  -17.0140   19.9090 C   0  0  0  0  0  1  0  0  0  0  0  0
  -30.8100  -16.4630   20.1160 C   0  0  1  0  0  0  0  0  0  0  0  0
  -31.0240  -15.0160   20.9180 C   0  0  0  0  0  0  0  0  0  0  0  0
  -30.7960  -12.6520   20.1450 C   0  0  0  0  0  2  0  0  0  0  0  0
  -29.9760  -12.4450   18.8580 C   0  0  0  0  0  2  0  0  0  0  0  0
  -28.4750  -12.3280   19.1620 C   0  0  0  0  0  2  0  0  0  0  0  0
  -27.9660  -13.3690   20.1930 C   0  0  0  0  0  3  0  0  0  0  0  0
  -28.9340  -13.5580   21.3830 C   0  0  0  0  0  2  0  0  0  0  0  0
  -30.2660  -13.8550   20.8260 N   0  0  0  0  0  0  0  0  0  0  0  0
  -32.1850  -14.8310   21.2690 O   0  0  0  0  0  0  0  0  0  0  0  0
  -25.5370  -13.9990   20.6900 C   0  0  0  0  0  0  0  0  0  0  0  0
  -24.4330  -13.2480   20.9690 C   0  0  0  0  0  0  0  0  0  0  0  0
  -24.8820  -11.8920   21.0180 C   0  0  0  0  0  0  0  0  0  0  0  0
  -26.5900  -13.1050   20.5900 N   0  0  0  0  0  0  0  0  0  0  0  0
  -26.1980  -11.8350   20.8560 N   0  0  0  0  0  0  0  0  0  0  0  0
  -24.1250  -10.6430   21.1470 C   0  0  0  0  0  0  0  0  0  0  0  0
  -24.4770   -9.6640   22.1030 C   0  0  0  0  0  3  0  0  0  0  0  0
  -23.7190   -8.4800   22.2230 C   0  0  0  0  0  3  0  0  0  0  0  0
  -22.5970   -8.2670   21.3870 C   0  0  0  0  0  0  0  0  0  0  0  0
  -22.2680   -9.2340   20.4200 C   0  0  0  0  0  3  0  0  0  0  0  0
  -23.0260  -10.4100   20.2960 C   0  0  0  0  0  3  0  0  0  0  0  0
  -21.8180   -7.1360   21.4190 O   0  0  0  0  0  0  0  0  0  0  0  0
  -21.7060   -6.3730   22.5540 C   0  0  0  0  0  0  0  0  0  0  0  0
  -21.2580   -6.9180   23.7760 C   0  0  0  0  0  3  0  0  0  0  0  0
  -21.0850   -6.0830   24.8990 C   0  0  0  0  0  3  0  0  0  0  0  0
  -21.3590   -4.7060   24.8000 C   0  0  0  0  0  0  0  0  0  0  0  0
  -21.8070   -4.1610   23.5840 C   0  0  0  0  0  3  0  0  0  0  0  0
  -21.9760   -4.9930   22.4630 C   0  0  0  0  0  0  0  0  0  0  0  0
  -22.3840   -4.4590   21.2860 F   0  0  0  0  0  0  0  0  0  0  0  0
  -21.1880   -3.9020   25.8760 F   0  0  0  0  0  0  0  0  0  0  0  0
  -23.0190  -13.7450   21.0680 C   0  0  0  0  0  0  0  0  0  0  0  0
  -22.1900  -13.0910   21.8710 N   0  0  0  0  0  0  0  0  0  0  0  0
  -22.6600  -14.7540   20.4620 O   0  0  0  0  0  0  0  0  0  0  0  0
  -22.4920  -12.2840   22.3990 H   0  0  0  0  0  0  0  0  0  0  0  0
  -21.2350  -13.4080   21.9640 H   0  0  0  0  0  0  0  0  0  0  0  0
  -25.7330  -15.3590   20.4660 N   0  0  0  0  0  0  0  0  0  0  0  0
  -24.8780  -15.8820   20.3000 H   0  0  0  0  0  0  0  0  0  0  0  0
  -26.4310  -15.5820   19.7720 H   0  0  0  0  0  0  0  0  0  0  0  0
  -31.2740  -15.6880   17.6120 C   0  0  0  0  0  1  0  0  0  0  0  0
  -30.2710  -16.1970   18.6700 C   0  0  0  0  0  2  0  0  0  0  0  0
  -27.7920  -24.8890   20.1670 C   0  0  0  0  0  2  0  0  0  0  0  0
  -28.2220  -26.3350   19.9650 O   0  0  0  0  0  0  0  0  0  0  0  0
  -24.6400  -31.8830   23.1410 C   0  0  0  0  0  0  0  0  0  0  0  0
  -27.1660  -27.2990   19.9540 C   0  0  0  0  0  0  0  0  0  0  0  0
  -23.4030  -30.5040   21.5190 C   0  0  0  0  0  3  0  0  0  0  0  0
  -24.8210  -28.9850   20.0310 C   0  0  0  0  0  0  0  0  0  0  0  0
  -25.9480  -30.8040   21.2910 C   0  0  0  0  0  2  0  0  0  0  0  0
  -26.0120  -29.4310   20.6190 C   0  0  0  0  0  0  0  0  0  0  0  0
  -27.1860  -28.6000   20.5780 C   0  0  0  0  0  3  0  0  0  0  0  0
  -25.9530  -26.9630   19.3040 C   0  0  0  0  0  3  0  0  0  0  0  0
  -24.7980  -27.7580   19.3640 C   0  0  0  0  0  3  0  0  0  0  0  0
  -23.5880  -29.8620   20.1240 C   0  0  0  0  0  2  0  0  0  0  0  0
  -24.6840  -31.0820   22.0380 N   0  0  0  0  0  0  0  0  0  0  0  0
  -23.5670  -32.1540   23.7020 O   0  0  0  0  0  0  0  0  0  0  0  0
  -22.7640  -29.4690   22.4770 C   0  0  0  0  0  0  0  0  0  0  0  0
  -21.4340  -29.2890   22.3840 N   0  0  0  0  0  0  0  0  0  0  0  0
  -23.4640  -28.8320   23.2690 O   0  0  0  0  0  0  0  0  0  0  0  0
  -20.9270  -29.8590   21.7230 H   0  0  0  0  0  0  0  0  0  0  0  0
  -18.0770  -28.0610   22.9420 C   0  0  0  0  0  0  0  0  0  0  0  0
  -20.6380  -28.3410   23.1650 C   0  0  0  0  0  3  0  0  0  0  0  0
  -20.7410  -26.9120   22.5800 C   0  0  0  0  0  2  0  0  0  0  0  0
  -19.6240  -26.5850   21.5850 C   0  0  0  0  0  2  0  0  0  0  0  0
  -18.2520  -26.7160   22.2540 C   0  0  0  0  0  2  0  0  0  0  0  0
  -19.1970  -28.8300   23.3540 C   0  0  0  0  0  0  0  0  0  0  0  0
  -18.9790  -30.0890   23.9560 C   0  0  0  0  0  3  0  0  0  0  0  0
  -17.6740  -30.5760   24.1530 C   0  0  0  0  0  3  0  0  0  0  0  0
  -16.5680  -29.8030   23.7560 C   0  0  0  0  0  3  0  0  0  0  0  0
  -16.7700  -28.5470   23.1560 C   0  0  0  0  0  3  0  0  0  0  0  0
  -25.9330  -32.5170   23.7380 C   0  0  0  0  0  3  0  0  0  0  0  0
  -25.6200  -33.9060   24.1070 N   0  0  0  0  0  0  0  0  0  0  0  0
  -25.9360  -34.9800   23.3700 C   0  0  0  0  0  0  0  0  0  0  0  0
  -26.5910  -34.9050   22.3270 O   0  0  0  0  0  0  0  0  0  0  0  0
  -25.0420  -34.0390   24.9230 H   0  0  0  0  0  0  0  0  0  0  0  0
  -24.1930  -36.7720   23.0870 C   0  0  0  0  0  1  0  0  0  0  0  0
  -25.4470  -36.3530   23.8710 C   0  0  0  0  0  3  0  0  0  0  0  0
  -27.5900  -37.2260   24.6920 C   0  0  0  0  0  1  0  0  0  0  0  0
  -26.4720  -37.4150   23.7720 N   0  0  0  0  0  0  0  0  0  0  0  0
  -26.0630  -38.3280   23.9550 H   0  0  0  0  0  0  0  0  0  0  0  0
  -26.4920  -31.7270   24.9850 C   0  0  1  0  0  0  0  0  0  0  0  0
  -25.4330  -31.4690   26.0830 C   0  0  0  0  0  1  0  0  0  0  0  0
  -27.0670  -30.3570   24.5570 C   0  0  0  0  0  1  0  0  0  0  0  0
  -27.6610  -32.5150   25.6220 C   0  0  0  0  0  1  0  0  0  0  0  0
  1  5  1  0
  3  1  2  0
  3  6  1  0
  4  2  1  0
  5  2  2  0
  6 53  1  0
  6  4  2  0
  7  5  1  0
  8  7  1  0
  8  9  1  0
  9 11  1  0
  9 12  1  0
 10  9  1  0
 14 13  1  6
 14  8  1  0
 14 15  1  0
 15 22  2  0
 16 21  1  0
 17 18  1  0
 17 16  1  0
 19 18  1  0
 19 26  1  0
 19 20  1  0
 21 15  1  0
 21 20  1  0
 23 24  2  0
 24 25  1  0
 24 43  1  0
 25 28  1  0
 26 23  1  0
 26 27  1  0
 27 25  2  0
 28 29  1  0
 29 30  2  0
 31 34  1  0
 31 30  1  0
 32 31  2  0
 33 32  1  0
 33 28  2  0
 34 35  1  0
 35 36  1  0
 36 37  2  0
 38 37  1  0
 38 42  1  0
 39 38  2  0
 40 35  2  0
 40 39  1  0
 41 40  1  0
 43 44  1  0
 44 47  1  0
 44 46  1  0
 45 43  2  0
 48 23  1  0
 49 48  1  0
 50 48  1  0
 51 52  1  0
 52 14  1  0
 54 53  1  0
 55 66  2  0
 56 54  1  0
 56 61  1  0
 57 65  1  0
 57 67  1  0
 58 64  1  0
 58 60  1  0
 59 65  1  0
 60 59  1  0
 61 60  2  0
 62 63  1  0
 62 56  2  0
 63 58  2  0
 64 57  1  0
 65 55  1  0
 67 69  2  0
 68 67  1  0
 70 68  1  0
 71 80  2  0
 71 76  1  0
 72 68  1  0
 72 76  1  0
 73 72  1  0
 74 75  1  0
 74 73  1  0
 75 71  1  0
 76 77  2  0
 77 78  1  0
 79 78  2  0
 80 79  1  0
 81 55  1  0
 81 82  1  0
 81 91  1  0
 82 85  1  0
 83 87  1  0
 83 82  1  0
 84 83  2  0
 87 86  1  0
 89 87  1  0
 89 90  1  0
 89 88  1  0
 91 94  1  1
 91 92  1  0
 93 91  1  0
M  ISO  4  14 100  15 100  53 101  54 101
M  END
>  <TORSDO>  (39) 
F 22

>  <SCORE>  (39) 
-12.597

>  <name>  (39) 
38

>  <ligand_id>  (39) 
38

>  <original_smiles>  (39) 
[H]c1c([H])c([H])c2c(c1[H])C([H])([H])C([H])([H])C([H])([H])C2([H])N([H])C(=O)C1([H])N(C(=O)C([H])(N([H])C(=O)C([H])(N([H])C([H])([H])[H])C([H])([H])[H])C(C([H])([H])[H])(C([H])([H])[H])C([H])([H])[H])C([H])([H])c2c([H])c(OC([H])([H])c3c([H])c([H])c(C([H])([H])C([H])(C(C(=O)N4C([H])([H])C([H])([H])C([H])([H])C([H])(n5nc(-c6c([H])c([H])c(Oc7c([H])c([H])c(F)c([H])c7F)c([H])c6[H])c(C(=O)N([H])[H])c5N([H])[H])C4([H])[H])(C([H])([H])[H])C([H])([H])C([H])([H])[H])[N+]([H])([H])[H])c([H])c3[H])c([H])c([H])c2C1([H])[H]

>  <smiles>  (39) 
[H]c1c([H])c([H])c2c(c1[H])C([H])([H])C([H])([H])C([H])([H])C2([H])N([H])C(=O)C1([H])N(C(=O)C([H])(N([H])C(=O)C([H])(N([H])C([H])([H])[H])C([H])([H])[H])C(C([H])([H])[H])(C([H])([H])[H])C([H])([H])[H])C([H])([H])c2c([H])c(OC([H])([H])c3c([H])c([H])c(C([H])([H])C([H])(C(C(=O)N4C([H])([H])C([H])([H])C([H])([H])C([H])(n5nc(-c6c([H])c([H])c(Oc7c([H])c([H])c(F)c([H])c7F)c([H])c6[H])c(C(=O)N([H])[H])c5N([H])[H])C4([H])[H])(C([H])([H])[H])C([H])([H])C([H])([H])[H])[N+]([H])([H])[H])c([H])c3[H])c([H])c([H])c2C1([H])[H]

$$$$
39:0:0
     RDKit          3D

 91101  0  0  1  0  0  0  0  0999 V2000
  -27.3350  -18.2980   20.7530 C   0  0  0  0  0  2  0  0  0  0  0  0
  -26.6600  -19.3440   19.8720 C   0  0  0  0  0  2  0  0  0  0  0  0
  -30.3600  -19.1280   20.4610 C   0  0  0  0  0  2  0  0  0  0  0  0
  -29.3500  -20.2580   18.1250 C   0  0  0  0  0  2  0  0  0  0  0  0
  -29.0140  -18.7520   18.7050 C   0  0  0  0  0  3  0  0  0  0  0  0
  -30.2200  -17.9090   19.3880 C   0  0  0  0  0  3  0  0  0  0  0  0
  -29.1320  -20.2340   20.3730 C   0  0  0  0  0  3  0  0  0  0  0  0
  -28.1600  -19.2000   19.8750 C   0  0  2  0  0  0  0  0  0  0  0  0
  -28.9990  -21.2630   19.2180 N   0  0  1  0  0  4  0  0  0  0  0  0
  -27.9920  -21.3110   19.1530 H   0  0  0  0  0  0  0  0  0  0  0  0
  -30.8410  -15.0760   19.6530 C   0  0  0  0  0  0  0  0  0  0  0  0
  -30.7280  -12.6100   18.9260 C   0  0  0  0  0  2  0  0  0  0  0  0
  -29.7300  -12.3990   17.7600 C   0  0  0  0  0  2  0  0  0  0  0  0
  -28.3040  -12.1860   18.3000 C   0  0  0  0  0  2  0  0  0  0  0  0
  -27.9410  -13.2060   19.4080 C   0  0  0  0  0  3  0  0  0  0  0  0
  -29.0580  -13.3680   20.4620 C   0  0  0  0  0  2  0  0  0  0  0  0
  -30.2680  -13.7870   19.7400 N   0  0  0  0  0  0  0  0  0  0  0  0
  -32.0230  -15.0870   19.2850 O   0  0  0  0  0  0  0  0  0  0  0  0
  -30.0730  -16.3140   19.7780 N   0  0  0  0  0  0  0  0  0  0  0  0
  -29.1430  -16.1010   20.1040 H   0  0  0  0  0  0  0  0  0  0  0  0
  -25.6620  -13.8380   20.3690 C   0  0  0  0  0  0  0  0  0  0  0  0
  -24.6030  -13.0930   20.8050 C   0  0  0  0  0  0  0  0  0  0  0  0
  -25.0060  -11.7280   20.6890 C   0  0  0  0  0  0  0  0  0  0  0  0
  -26.6430  -12.9310   20.0110 N   0  0  0  0  0  0  0  0  0  0  0  0
  -26.2640  -11.6520   20.2690 N   0  0  0  0  0  0  0  0  0  0  0  0
  -24.2410  -10.4900   20.8940 C   0  0  0  0  0  0  0  0  0  0  0  0
  -24.6650   -9.5020   21.8090 C   0  0  0  0  0  3  0  0  0  0  0  0
  -23.9000   -8.3320   22.0050 C   0  0  0  0  0  3  0  0  0  0  0  0
  -22.6960   -8.1420   21.2850 C   0  0  0  0  0  0  0  0  0  0  0  0
  -22.2900   -9.1180   20.3590 C   0  0  0  0  0  3  0  0  0  0  0  0
  -23.0560  -10.2800   20.1610 C   0  0  0  0  0  3  0  0  0  0  0  0
  -21.9020   -7.0250   21.3910 O   0  0  0  0  0  0  0  0  0  0  0  0
  -21.8010   -6.3230   22.5660 C   0  0  0  0  0  0  0  0  0  0  0  0
  -21.3190   -6.9210   23.7510 C   0  0  0  0  0  3  0  0  0  0  0  0
  -21.1660   -6.1450   24.9180 C   0  0  0  0  0  3  0  0  0  0  0  0
  -21.4830   -4.7730   24.8990 C   0  0  0  0  0  0  0  0  0  0  0  0
  -21.9570   -4.1760   23.7180 C   0  0  0  0  0  3  0  0  0  0  0  0
  -22.1130   -4.9490   22.5540 C   0  0  0  0  0  0  0  0  0  0  0  0
  -22.5500   -4.3640   21.4130 F   0  0  0  0  0  0  0  0  0  0  0  0
  -21.3290   -4.0270   26.0180 F   0  0  0  0  0  0  0  0  0  0  0  0
  -23.2550  -13.6180   21.2050 C   0  0  0  0  0  0  0  0  0  0  0  0
  -22.5750  -12.9290   22.1150 N   0  0  0  0  0  0  0  0  0  0  0  0
  -22.8190  -14.6740   20.7470 O   0  0  0  0  0  0  0  0  0  0  0  0
  -22.9430  -12.0750   22.5050 H   0  0  0  0  0  0  0  0  0  0  0  0
  -21.6730  -13.2620   22.4260 H   0  0  0  0  0  0  0  0  0  0  0  0
  -25.8630  -15.2050   20.2140 N   0  0  0  0  0  0  0  0  0  0  0  0
  -25.1210  -15.8740   20.3920 H   0  0  0  0  0  0  0  0  0  0  0  0
  -26.6600  -15.6120   19.7460 H   0  0  0  0  0  0  0  0  0  0  0  0
  -29.3440  -22.8720   19.2390 C   0  0  0  0  0  3  0  0  0  0  0  0
  -28.2590  -24.2480   19.0460 C   0  0  0  0  0  3  0  0  0  0  0  0
  -28.4530  -25.8420   19.2740 O   0  0  0  0  0  0  0  0  0  0  0  0
  -24.7040  -31.2390   22.8560 C   0  0  0  0  0  0  0  0  0  0  0  0
  -27.3830  -26.8530   19.3250 C   0  0  0  0  0  0  0  0  0  0  0  0
  -23.5270  -29.9700   21.1040 C   0  0  0  0  0  3  0  0  0  0  0  0
  -25.0050  -28.5840   19.5030 C   0  0  0  0  0  0  0  0  0  0  0  0
  -26.0750  -30.3160   20.9320 C   0  0  0  0  0  2  0  0  0  0  0  0
  -26.1850  -28.9900   20.1390 C   0  0  0  0  0  0  0  0  0  0  0  0
  -27.3700  -28.1450   20.0290 C   0  0  0  0  0  3  0  0  0  0  0  0
  -26.1670  -26.5830   18.6590 C   0  0  0  0  0  3  0  0  0  0  0  0
  -25.0150  -27.4030   18.7470 C   0  0  0  0  0  3  0  0  0  0  0  0
  -23.7510  -29.4380   19.6620 C   0  0  0  0  0  2  0  0  0  0  0  0
  -24.7900  -30.5280   21.6870 N   0  0  0  0  0  0  0  0  0  0  0  0
  -23.6170  -31.4300   23.4230 O   0  0  0  0  0  0  0  0  0  0  0  0
  -22.8950  -28.8530   21.9740 C   0  0  0  0  0  0  0  0  0  0  0  0
  -21.5700  -28.6480   21.8540 N   0  0  0  0  0  0  0  0  0  0  0  0
  -23.6010  -28.1730   22.7230 O   0  0  0  0  0  0  0  0  0  0  0  0
  -21.0520  -29.2510   21.2300 H   0  0  0  0  0  0  0  0  0  0  0  0
  -18.2460  -27.2700   22.2910 C   0  0  0  0  0  0  0  0  0  0  0  0
  -20.7980  -27.6080   22.5390 C   0  0  0  0  0  3  0  0  0  0  0  0
  -20.9410  -26.2450   21.8220 C   0  0  0  0  0  2  0  0  0  0  0  0
  -19.8320  -25.9840   20.7970 C   0  0  0  0  0  2  0  0  0  0  0  0
  -18.4590  -26.0060   21.4750 C   0  0  0  0  0  2  0  0  0  0  0  0
  -19.3420  -28.0310   22.7760 C   0  0  0  0  0  0  0  0  0  0  0  0
  -19.0860  -29.2140   23.5020 C   0  0  0  0  0  3  0  0  0  0  0  0
  -17.7660  -29.6390   23.7440 C   0  0  0  0  0  3  0  0  0  0  0  0
  -16.6840  -28.8760   23.2710 C   0  0  0  0  0  3  0  0  0  0  0  0
  -16.9250  -27.6920   22.5510 C   0  0  0  0  0  3  0  0  0  0  0  0
  -25.9660  -31.8610   23.5280 C   0  0  0  0  0  3  0  0  0  0  0  0
  -25.6130  -33.2170   23.9830 N   0  0  0  0  0  0  0  0  0  0  0  0
  -25.8990  -34.3460   23.3220 C   0  0  0  0  0  0  0  0  0  0  0  0
  -26.5520  -34.3580   22.2740 O   0  0  0  0  0  0  0  0  0  0  0  0
  -25.0290  -33.2780   24.8040 H   0  0  0  0  0  0  0  0  0  0  0  0
  -24.1040  -36.1060   23.1790 C   0  0  0  0  0  1  0  0  0  0  0  0
  -25.3820  -35.6730   23.9140 C   0  0  0  0  0  3  0  0  0  0  0  0
  -27.5060  -36.5640   24.7680 C   0  0  0  0  0  1  0  0  0  0  0  0
  -26.3760  -36.7670   23.8660 N   0  0  0  0  0  0  0  0  0  0  0  0
  -25.9440  -37.6590   24.0950 H   0  0  0  0  0  0  0  0  0  0  0  0
  -26.5080  -31.0040   24.7380 C   0  0  1  0  0  0  0  0  0  0  0  0
  -25.4290  -30.6580   25.7900 C   0  0  0  0  0  1  0  0  0  0  0  0
  -27.1220  -29.6740   24.2420 C   0  0  0  0  0  1  0  0  0  0  0  0
  -27.6450  -31.7710   25.4550 C   0  0  0  0  0  1  0  0  0  0  0  0
  8  2  1  6
  2  1  1  0
  4  9  1  0
  5  4  1  0
  5  6  1  0
  5  8  1  0
  6 19  1  0
  6  3  1  0
  7  3  1  0
  8  7  1  0
  8  1  1  0
  9 49  1  0
  9  7  1  0
  9 10  1  6
 11 17  1  0
 11 19  1  0
 12 17  1  0
 13 14  1  0
 13 12  1  0
 15 14  1  0
 15 24  1  0
 15 16  1  0
 17 16  1  0
 18 11  2  0
 19 20  1  0
 21 22  2  0
 22 41  1  0
 23 22  1  0
 23 26  1  0
 24 25  1  0
 24 21  1  0
 25 23  2  0
 26 27  1  0
 27 28  2  0
 29 32  1  0
 29 28  1  0
 30 29  2  0
 31 30  1  0
 31 26  2  0
 32 33  1  0
 33 34  1  0
 34 35  2  0
 36 35  1  0
 36 40  1  0
 37 36  2  0
 38 33  2  0
 38 37  1  0
 39 38  1  0
 41 42  1  0
 42 45  1  0
 42 44  1  0
 43 41  2  0
 46 21  1  0
 46 47  1  0
 48 46  1  0
 50 49  2  0
 50 51  1  0
 51 53  1  0
 52 63  2  0
 53 58  1  0
 54 62  1  0
 54 64  1  0
 55 61  1  0
 55 57  1  0
 56 62  1  0
 57 56  1  0
 58 57  2  0
 59 60  1  0
 59 53  2  0
 60 55  2  0
 61 54  1  0
 62 52  1  0
 64 66  2  0
 65 64  1  0
 67 65  1  0
 68 77  2  0
 68 73  1  0
 69 65  1  0
 69 73  1  0
 70 69  1  0
 71 72  1  0
 71 70  1  0
 72 68  1  0
 73 74  2  0
 74 75  1  0
 76 75  2  0
 77 76  1  0
 78 52  1  0
 78 79  1  0
 78 88  1  0
 79 82  1  0
 80 84  1  0
 80 79  1  0
 81 80  2  0
 84 83  1  0
 86 84  1  0
 86 87  1  0
 86 85  1  0
 88 91  1  1
 88 89  1  0
 90 88  1  0
M  ISO  4  11 100  19 100  50 101  51 101
M  END
>  <TORSDO>  (40) 
F 18

>  <SCORE>  (40) 
-12.468

>  <name>  (40) 
39

>  <ligand_id>  (40) 
39

>  <original_smiles>  (40) 
[H]c1c([H])c([H])c2c(c1[H])C([H])([H])C([H])([H])C([H])([H])C2([H])N([H])C(=O)C1([H])N(C(=O)C([H])(N([H])C(=O)C([H])(N([H])C([H])([H])[H])C([H])([H])[H])C(C([H])([H])[H])(C([H])([H])[H])C([H])([H])[H])C([H])([H])c2c([H])c(OC([H])([H])C([H])([H])[N+]3([H])C([H])([H])C4([H])C([H])(N([H])C(=O)N5C([H])([H])C([H])([H])C([H])([H])C([H])(n6nc(-c7c([H])c([H])c(Oc8c([H])c([H])c(F)c([H])c8F)c([H])c7[H])c(C(=O)N([H])[H])c6N([H])[H])C5([H])[H])C([H])([H])C3([H])C43C([H])([H])C3([H])[H])c([H])c([H])c2C1([H])[H]

>  <smiles>  (40) 
[H]c1c([H])c([H])c2c(c1[H])C([H])([H])C([H])([H])C([H])([H])C2([H])N([H])C(=O)C1([H])N(C(=O)C([H])(N([H])C(=O)C([H])(N([H])C([H])([H])[H])C([H])([H])[H])C(C([H])([H])[H])(C([H])([H])[H])C([H])([H])[H])C([H])([H])c2c([H])c(OC([H])([H])C([H])([H])[N+]3([H])C([H])([H])C4([H])C([H])(N([H])C(=O)N5C([H])([H])C([H])([H])C([H])([H])C([H])(n6nc(-c7c([H])c([H])c(Oc8c([H])c([H])c(F)c([H])c8F)c([H])c7[H])c(C(=O)N([H])[H])c6N([H])[H])C5([H])[H])C([H])([H])C3([H])C43C([H])([H])C3([H])[H])c([H])c([H])c2C1([H])[H]

$$$$
40:0:0
     RDKit          3D

 91 99  0  0  1  0  0  0  0  0999 V2000
  -29.7110  -21.4970   20.2870 C   0  0  0  0  0  2  0  0  0  0  0  0
  -27.4080  -21.5360   20.2320 C   0  0  0  0  0  2  0  0  0  0  0  0
  -28.5160  -22.6580   19.9500 C   0  0  0  0  0  3  0  0  0  0  0  0
  -29.3020  -19.8740   19.9450 C   0  0  0  0  0  3  0  0  0  0  0  0
  -27.8810  -20.0680   20.3300 N   0  0  0  0  0  4  0  0  0  0  0  0
  -27.2950  -19.4720   19.7670 H   0  0  0  0  0  0  0  0  0  0  0  0
  -27.7650  -19.7740   21.2860 H   0  0  0  0  0  0  0  0  0  0  0  0
  -28.0680  -24.3270   20.5390 C   0  0  0  0  0  2  0  0  0  0  0  0
  -28.2680  -25.9410   20.2220 O   0  0  0  0  0  0  0  0  0  0  0  0
  -24.6420  -31.9210   23.1840 C   0  0  0  0  0  0  0  0  0  0  0  0
  -27.2360  -27.0200   20.2290 C   0  0  0  0  0  0  0  0  0  0  0  0
  -23.4590  -30.4890   21.5700 C   0  0  0  0  0  3  0  0  0  0  0  0
  -24.9200  -28.8830   20.1660 C   0  0  0  0  0  0  0  0  0  0  0  0
  -26.0240  -30.7200   21.4210 C   0  0  0  0  0  2  0  0  0  0  0  0
  -26.1060  -29.3050   20.7840 C   0  0  0  0  0  0  0  0  0  0  0  0
  -27.2590  -28.3930   20.7860 C   0  0  0  0  0  3  0  0  0  0  0  0
  -26.0150  -26.7550   19.5670 C   0  0  0  0  0  3  0  0  0  0  0  0
  -24.9000  -27.6290   19.5360 C   0  0  0  0  0  3  0  0  0  0  0  0
  -23.6940  -29.7920   20.2020 C   0  0  0  0  0  2  0  0  0  0  0  0
  -24.7280  -31.0730   22.1110 N   0  0  0  0  0  0  0  0  0  0  0  0
  -23.5500  -32.2080   23.7040 O   0  0  0  0  0  0  0  0  0  0  0  0
  -22.7800  -29.4990   22.5510 C   0  0  0  0  0  0  0  0  0  0  0  0
  -21.4530  -29.3110   22.4240 N   0  0  0  0  0  0  0  0  0  0  0  0
  -23.4520  -28.9010   23.3910 O   0  0  0  0  0  0  0  0  0  0  0  0
  -20.9610  -29.8440   21.7220 H   0  0  0  0  0  0  0  0  0  0  0  0
  -18.0920  -28.0540   22.9490 C   0  0  0  0  0  0  0  0  0  0  0  0
  -20.6450  -28.3750   23.2130 C   0  0  0  0  0  3  0  0  0  0  0  0
  -20.7750  -26.9350   22.6650 C   0  0  0  0  0  2  0  0  0  0  0  0
  -19.6830  -26.5710   21.6540 C   0  0  0  0  0  2  0  0  0  0  0  0
  -18.2980  -26.6990   22.2940 C   0  0  0  0  0  2  0  0  0  0  0  0
  -19.1930  -28.8490   23.3660 C   0  0  0  0  0  0  0  0  0  0  0  0
  -18.9470  -30.1130   23.9430 C   0  0  0  0  0  3  0  0  0  0  0  0
  -17.6290  -30.5840   24.1080 C   0  0  0  0  0  3  0  0  0  0  0  0
  -16.5430  -29.7890   23.7030 C   0  0  0  0  0  3  0  0  0  0  0  0
  -16.7760  -28.5270   23.1300 C   0  0  0  0  0  3  0  0  0  0  0  0
  -25.9050  -32.5870   23.8080 C   0  0  0  0  0  3  0  0  0  0  0  0
  -26.4250  -31.8440   25.1010 C   0  0  1  0  0  0  0  0  0  0  0  0
  -25.3270  -31.5990   26.1630 C   0  0  0  0  0  1  0  0  0  0  0  0
  -27.0400  -30.4720   24.7410 C   0  0  0  0  0  1  0  0  0  0  0  0
  -27.5530  -32.6680   25.7610 C   0  0  0  0  0  1  0  0  0  0  0  0
  -25.5700  -33.9840   24.1310 N   0  0  0  0  0  0  0  0  0  0  0  0
  -25.9030  -35.0470   23.3890 C   0  0  0  0  0  0  0  0  0  0  0  0
  -26.5840  -34.9560   22.3640 O   0  0  0  0  0  0  0  0  0  0  0  0
  -24.9570  -34.1250   24.9210 H   0  0  0  0  0  0  0  0  0  0  0  0
  -24.1770  -36.8480   23.0220 C   0  0  0  0  0  1  0  0  0  0  0  0
  -25.4010  -36.4300   23.8540 C   0  0  0  0  0  3  0  0  0  0  0  0
  -27.5080  -37.3230   24.7480 C   0  0  0  0  0  1  0  0  0  0  0  0
  -26.4320  -37.4890   23.7750 N   0  0  0  0  0  0  0  0  0  0  0  0
  -26.0180  -38.4070   23.9130 H   0  0  0  0  0  0  0  0  0  0  0  0
  -30.1950  -18.3130   20.2450 C   0  0  0  0  0  0  0  0  0  0  0  0
  -30.5820  -15.3980   20.1660 C   0  0  0  0  0  0  0  0  0  0  0  0
  -30.5630  -12.9240   19.3550 C   0  0  0  0  0  2  0  0  0  0  0  0
  -29.6560  -12.7200   18.1170 C   0  0  0  0  0  2  0  0  0  0  0  0
  -28.2030  -12.4580   18.5580 C   0  0  0  0  0  2  0  0  0  0  0  0
  -27.7460  -13.4200   19.6910 C   0  0  0  0  0  3  0  0  0  0  0  0
  -28.8000  -13.5900   20.8040 C   0  0  0  0  0  2  0  0  0  0  0  0
  -30.0200  -14.0870   20.1520 N   0  0  0  0  0  0  0  0  0  0  0  0
  -31.7970  -15.3910   19.9200 O   0  0  0  0  0  0  0  0  0  0  0  0
  -29.8290  -16.6770   20.2610 N   0  0  0  0  0  4  0  0  0  0  0  0
  -28.8440  -16.5110   20.4080 H   0  0  0  0  0  0  0  0  0  0  0  0
  -25.3910  -13.9460   20.5190 C   0  0  0  0  0  0  0  0  0  0  0  0
  -24.3440  -13.1580   20.8980 C   0  0  0  0  0  0  0  0  0  0  0  0
  -24.8170  -11.8100   20.8220 C   0  0  0  0  0  0  0  0  0  0  0  0
  -26.4320  -13.0830   20.2260 N   0  0  0  0  0  0  0  0  0  0  0  0
  -26.1010  -11.7900   20.4750 N   0  0  0  0  0  0  0  0  0  0  0  0
  -24.0950  -10.5420   21.0040 C   0  0  0  0  0  0  0  0  0  0  0  0
  -24.5100   -9.5760   21.9460 C   0  0  0  0  0  3  0  0  0  0  0  0
  -23.7850   -8.3760   22.1130 C   0  0  0  0  0  3  0  0  0  0  0  0
  -22.6240   -8.1380   21.3400 C   0  0  0  0  0  0  0  0  0  0  0  0
  -22.2260   -9.0920   20.3850 C   0  0  0  0  0  3  0  0  0  0  0  0
  -22.9540  -10.2820   20.2170 C   0  0  0  0  0  3  0  0  0  0  0  0
  -21.8720   -6.9900   21.4170 O   0  0  0  0  0  0  0  0  0  0  0  0
  -21.7630   -6.2770   22.5840 C   0  0  0  0  0  0  0  0  0  0  0  0
  -21.2320   -6.8460   23.7610 C   0  0  0  0  0  3  0  0  0  0  0  0
  -21.0750   -6.0540   24.9160 C   0  0  0  0  0  3  0  0  0  0  0  0
  -21.4410   -4.6960   24.8940 C   0  0  0  0  0  0  0  0  0  0  0  0
  -21.9690   -4.1270   23.7210 C   0  0  0  0  0  3  0  0  0  0  0  0
  -22.1270   -4.9150   22.5690 C   0  0  0  0  0  0  0  0  0  0  0  0
  -22.6160   -4.3560   21.4360 F   0  0  0  0  0  0  0  0  0  0  0  0
  -21.2840   -3.9330   26.0010 F   0  0  0  0  0  0  0  0  0  0  0  0
  -22.9510  -13.6290   21.2040 C   0  0  0  0  0  0  0  0  0  0  0  0
  -22.2300  -12.9160   22.0630 N   0  0  0  0  0  0  0  0  0  0  0  0
  -22.5090  -14.6730   20.7210 O   0  0  0  0  0  0  0  0  0  0  0  0
  -22.5920  -12.0750   22.4860 H   0  0  0  0  0  0  0  0  0  0  0  0
  -21.2970  -13.2160   22.2990 H   0  0  0  0  0  0  0  0  0  0  0  0
  -25.5290  -15.3210   20.3650 N   0  0  0  0  0  0  0  0  0  0  0  0
  -24.7290  -15.9340   20.4780 H   0  0  0  0  0  0  0  0  0  0  0  0
  -26.3320  -15.7860   19.9660 H   0  0  0  0  0  0  0  0  0  0  0  0
  -31.1930  -18.5770   21.3980 C   0  0  0  0  0  2  0  0  0  0  0  0
  -33.5520  -18.7400   20.4020 C   0  0  0  0  0  1  0  0  0  0  0  0
  -32.3650  -19.5060   21.0050 C   0  0  0  0  0  2  0  0  0  0  0  0
  2  5  1  0
  3  2  1  0
  3  1  1  0
  3  8  1  0
  4 50  1  0
  4  1  1  0
  4  5  1  0
  5  7  1  0
  6  5  1  0
  9 11  1  0
  9  8  1  0
 10 21  2  0
 11 16  1  0
 12 20  1  0
 12 22  1  0
 13 19  1  0
 13 15  1  0
 14 20  1  0
 15 16  2  0
 15 14  1  0
 17 11  2  0
 18 17  1  0
 18 13  2  0
 19 12  1  0
 20 10  1  0
 22 24  2  0
 23 22  1  0
 25 23  1  0
 26 35  2  0
 26 31  1  0
 27 23  1  0
 27 31  1  0
 28 27  1  0
 29 30  1  0
 29 28  1  0
 30 26  1  0
 31 32  2  0
 32 33  1  0
 34 33  2  0
 35 34  1  0
 36 10  1  0
 36 41  1  0
 36 37  1  0
 37 40  1  1
 37 38  1  0
 39 37  1  0
 41 44  1  0
 42 46  1  0
 42 41  1  0
 43 42  2  0
 46 45  1  0
 48 46  1  0
 48 49  1  0
 48 47  1  0
 50 59  2  0
 50 89  1  0
 51 59  1  0
 52 57  1  0
 53 54  1  0
 53 52  1  0
 55 54  1  0
 55 64  1  0
 55 56  1  0
 57 51  1  0
 57 56  1  0
 58 51  2  0
 59 60  1  0
 61 62  2  0
 62 81  1  0
 63 62  1  0
 63 66  1  0
 64 65  1  0
 64 61  1  0
 65 63  2  0
 66 67  1  0
 67 68  2  0
 69 72  1  0
 69 68  1  0
 70 69  2  0
 71 70  1  0
 71 66  2  0
 72 73  1  0
 73 74  1  0
 74 75  2  0
 76 75  1  0
 76 80  1  0
 77 76  2  0
 78 73  2  0
 78 77  1  0
 79 78  1  0
 81 82  1  0
 82 85  1  0
 82 84  1  0
 83 81  2  0
 86 87  1  0
 86 61  1  0
 88 86  1  0
 90 91  1  0
 91 89  1  0
M  ISO  4   8 101   9 101  51 100  59 100
M  END
>  <TORSDO>  (41) 
F 20

>  <SCORE>  (41) 
-16.032

>  <name>  (41) 
40

>  <ligand_id>  (41) 
40

>  <original_smiles>  (41) 
[H]c1c([H])c([H])c2c(c1[H])C([H])([H])C([H])([H])C([H])([H])C2([H])N([H])C(=O)C1([H])N(C(=O)C([H])(N([H])C(=O)C([H])(N([H])C([H])([H])[H])C([H])([H])[H])C(C([H])([H])[H])(C([H])([H])[H])C([H])([H])[H])C([H])([H])c2c([H])c(OC([H])([H])C3([H])C([H])([H])C([H])(C([H])(N([H])C(=O)N4C([H])([H])C([H])([H])C([H])([H])C([H])(n5nc(-c6c([H])c([H])c(Oc7c([H])c([H])c(F)c([H])c7F)c([H])c6[H])c(C(=O)N([H])[H])c5N([H])[H])C4([H])[H])C([H])([H])C([H])([H])C([H])([H])[H])[N+]([H])([H])C3([H])[H])c([H])c([H])c2C1([H])[H]

>  <smiles>  (41) 
[H]c1c([H])c([H])c2c(c1[H])C([H])([H])C([H])([H])C([H])([H])C2([H])N([H])C(=O)C1([H])N(C(=O)C([H])(N([H])C(=O)C([H])(N([H])C([H])([H])[H])C([H])([H])[H])C(C([H])([H])[H])(C([H])([H])[H])C([H])([H])[H])C([H])([H])c2c([H])c(OC([H])([H])C3([H])C([H])([H])C([H])(C([H])(N([H])C(=O)N4C([H])([H])C([H])([H])C([H])([H])C([H])(n5nc(-c6c([H])c([H])c(Oc7c([H])c([H])c(F)c([H])c7F)c([H])c6[H])c(C(=O)N([H])[H])c5N([H])[H])C4([H])[H])C([H])([H])C([H])([H])C([H])([H])[H])[N+]([H])([H])C3([H])[H])c([H])c([H])c2C1([H])[H]

$$$$
41:0:0
     RDKit          3D

 97106  0  0  1  0  0  0  0  0999 V2000
  -29.4200  -20.8120   20.7250 C   0  0  0  0  0  0  0  0  0  0  0  0
  -28.6320  -20.5500   21.7800 C   0  0  0  0  0  2  0  0  0  0  0  0
  -29.0460  -21.9490   19.7500 C   0  0  0  0  0  2  0  0  0  0  0  0
  -31.7430  -21.2710   19.9840 C   0  0  0  0  0  2  0  0  0  0  0  0
  -31.3170  -22.7270   20.3740 C   0  0  0  0  0  2  0  0  0  0  0  0
  -30.8180  -20.1650   20.5650 C   0  0  0  0  0  3  0  0  0  0  0  0
  -29.9760  -23.1220   19.8300 N   0  0  2  0  0  4  0  0  0  0  0  0
  -30.1660  -23.3540   18.8650 H   0  0  0  0  0  0  0  0  0  0  0  0
  -30.8750  -18.7840   19.7650 C   0  0  0  0  0  2  0  0  0  0  0  0
  -31.2620  -17.4220   20.5210 C   0  0  0  0  0  2  0  0  0  0  0  0
  -31.1240  -14.8850   20.1070 C   0  0  0  0  0  0  0  0  0  0  0  0
  -30.8740  -12.5320   19.2950 C   0  0  0  0  0  2  0  0  0  0  0  0
  -29.9270  -12.4150   18.0820 C   0  0  0  0  0  2  0  0  0  0  0  0
  -28.4680  -12.2190   18.5440 C   0  0  0  0  0  2  0  0  0  0  0  0
  -28.0740  -13.2390   19.6270 C   0  0  0  0  0  3  0  0  0  0  0  0
  -29.1470  -13.3230   20.7530 C   0  0  0  0  0  2  0  0  0  0  0  0
  -30.4240  -13.6870   20.1080 N   0  0  0  0  0  0  0  0  0  0  0  0
  -32.3340  -14.8480   19.8710 O   0  0  0  0  0  0  0  0  0  0  0  0
  -30.5050  -16.1390   20.2010 N   0  0  0  0  0  0  0  0  0  0  0  0
  -28.3670  -17.5790   20.4980 C   0  0  0  0  0  0  0  0  0  0  0  0
  -28.7350  -16.4340   18.3760 C   0  0  0  0  0  3  0  0  0  0  0  0
  -27.7190  -17.5810   18.2450 C   0  0  0  0  0  3  0  0  0  0  0  0
  -29.0770  -16.3840   19.8890 C   0  0  0  0  0  3  0  0  0  0  0  0
  -27.6120  -18.1610   19.5760 N   0  0  0  0  0  0  0  0  0  0  0  0
  -28.4370  -17.9040   21.6830 O   0  0  0  0  0  0  0  0  0  0  0  0
  -27.0290  -18.9610   19.7790 H   0  0  0  0  0  0  0  0  0  0  0  0
  -25.7270  -14.0060   20.3540 C   0  0  0  0  0  0  0  0  0  0  0  0
  -24.6270  -13.2940   20.7450 C   0  0  0  0  0  0  0  0  0  0  0  0
  -25.0260  -11.9250   20.7350 C   0  0  0  0  0  0  0  0  0  0  0  0
  -26.7240  -13.0600   20.1340 N   0  0  0  0  0  0  0  0  0  0  0  0
  -26.3080  -11.8100   20.4210 N   0  0  0  0  0  0  0  0  0  0  0  0
  -24.2480  -10.7030   20.9340 C   0  0  0  0  0  0  0  0  0  0  0  0
  -24.6440   -9.7310   21.8760 C   0  0  0  0  0  3  0  0  0  0  0  0
  -23.8720   -8.5640   22.0580 C   0  0  0  0  0  3  0  0  0  0  0  0
  -22.6940   -8.3720   21.2990 C   0  0  0  0  0  0  0  0  0  0  0  0
  -22.3230   -9.3330   20.3410 C   0  0  0  0  0  3  0  0  0  0  0  0
  -23.0940  -10.4910   20.1570 C   0  0  0  0  0  3  0  0  0  0  0  0
  -21.8910   -7.2620   21.3970 O   0  0  0  0  0  0  0  0  0  0  0  0
  -21.7920   -6.5530   22.5680 C   0  0  0  0  0  0  0  0  0  0  0  0
  -21.3600   -7.1540   23.7690 C   0  0  0  0  0  3  0  0  0  0  0  0
  -21.2030   -6.3740   24.9320 C   0  0  0  0  0  3  0  0  0  0  0  0
  -21.4660   -4.9920   24.8920 C   0  0  0  0  0  0  0  0  0  0  0  0
  -21.8890   -4.3890   23.6930 C   0  0  0  0  0  3  0  0  0  0  0  0
  -22.0520   -5.1670   22.5340 C   0  0  0  0  0  0  0  0  0  0  0  0
  -22.4400   -4.5800   21.3780 F   0  0  0  0  0  0  0  0  0  0  0  0
  -21.3070   -4.2390   26.0040 F   0  0  0  0  0  0  0  0  0  0  0  0
  -23.2580  -13.8520   21.0050 C   0  0  0  0  0  0  0  0  0  0  0  0
  -22.5070  -13.2220   21.8990 N   0  0  0  0  0  0  0  0  0  0  0  0
  -22.8640  -14.8740   20.4460 O   0  0  0  0  0  0  0  0  0  0  0  0
  -22.8430  -12.3900   22.3600 H   0  0  0  0  0  0  0  0  0  0  0  0
  -21.5970  -13.5800   22.1410 H   0  0  0  0  0  0  0  0  0  0  0  0
  -25.9230  -15.3600   20.1300 N   0  0  0  0  0  0  0  0  0  0  0  0
  -26.7520  -15.7630   19.7200 H   0  0  0  0  0  0  0  0  0  0  0  0
  -25.1400  -16.0040   20.1440 H   0  0  0  0  0  0  0  0  0  0  0  0
  -29.4190  -24.3950   20.4510 C   0  0  0  0  0  2  0  0  0  0  0  0
  -28.5000  -25.3190   19.5610 C   0  0  0  0  0  2  0  0  0  0  0  0
  -28.3960  -26.7010   20.0500 O   0  0  0  0  0  0  0  0  0  0  0  0
  -24.6170  -31.9020   23.2290 C   0  0  0  0  0  0  0  0  0  0  0  0
  -27.2080  -27.4400   20.0360 C   0  0  0  0  0  0  0  0  0  0  0  0
  -23.3820  -30.5270   21.5880 C   0  0  0  0  0  3  0  0  0  0  0  0
  -24.8080  -29.0000   20.1150 C   0  0  0  0  0  0  0  0  0  0  0  0
  -25.9110  -30.8640   21.3580 C   0  0  0  0  0  2  0  0  0  0  0  0
  -25.9810  -29.4960   20.6980 C   0  0  0  0  0  0  0  0  0  0  0  0
  -27.1720  -28.7220   20.6590 C   0  0  0  0  0  3  0  0  0  0  0  0
  -26.0090  -26.9870   19.4360 C   0  0  0  0  0  3  0  0  0  0  0  0
  -24.8200  -27.7460   19.4860 C   0  0  0  0  0  3  0  0  0  0  0  0
  -23.5700  -29.8700   20.1940 C   0  0  0  0  0  2  0  0  0  0  0  0
  -24.6560  -31.1150   22.1150 N   0  0  0  0  0  0  0  0  0  0  0  0
  -23.5450  -32.1670   23.7930 O   0  0  0  0  0  0  0  0  0  0  0  0
  -22.7440  -29.4940   22.5460 C   0  0  0  0  0  0  0  0  0  0  0  0
  -21.4220  -29.2870   22.4160 N   0  0  0  0  0  0  0  0  0  0  0  0
  -23.4350  -28.8800   23.3630 O   0  0  0  0  0  0  0  0  0  0  0  0
  -20.9220  -29.8260   21.7230 H   0  0  0  0  0  0  0  0  0  0  0  0
  -18.0800  -28.0010   22.8930 C   0  0  0  0  0  0  0  0  0  0  0  0
  -20.6250  -28.3360   23.1880 C   0  0  0  0  0  3  0  0  0  0  0  0
  -20.7750  -26.9030   22.6240 C   0  0  0  0  0  2  0  0  0  0  0  0
  -19.6950  -26.5460   21.5990 C   0  0  0  0  0  2  0  0  0  0  0  0
  -18.3030  -26.6520   22.2320 C   0  0  0  0  0  2  0  0  0  0  0  0
  -19.1710  -28.7990   23.3260 C   0  0  0  0  0  0  0  0  0  0  0  0
  -18.9100  -30.0620   23.9020 C   0  0  0  0  0  3  0  0  0  0  0  0
  -17.5890  -30.5250   24.0540 C   0  0  0  0  0  3  0  0  0  0  0  0
  -16.5110  -29.7230   23.6400 C   0  0  0  0  0  3  0  0  0  0  0  0
  -16.7590  -28.4650   23.0630 C   0  0  0  0  0  3  0  0  0  0  0  0
  -25.9110  -32.5280   23.8360 C   0  0  0  0  0  3  0  0  0  0  0  0
  -25.6160  -33.9320   24.1580 N   0  0  0  0  0  0  0  0  0  0  0  0
  -25.9550  -34.9750   23.3890 C   0  0  0  0  0  0  0  0  0  0  0  0
  -26.6150  -34.8570   22.3550 O   0  0  0  0  0  0  0  0  0  0  0  0
  -25.0230  -34.0970   24.9580 H   0  0  0  0  0  0  0  0  0  0  0  0
  -24.2390  -36.7830   23.0380 C   0  0  0  0  0  1  0  0  0  0  0  0
  -25.4850  -36.3710   23.8400 C   0  0  0  0  0  3  0  0  0  0  0  0
  -27.6320  -37.2480   24.6450 C   0  0  0  0  0  1  0  0  0  0  0  0
  -26.5250  -37.4140   23.7070 N   0  0  0  0  0  0  0  0  0  0  0  0
  -26.1270  -38.3380   23.8480 H   0  0  0  0  0  0  0  0  0  0  0  0
  -26.4300  -31.7610   25.1140 C   0  0  1  0  0  0  0  0  0  0  0  0
  -25.3450  -31.5420   26.1920 C   0  0  0  0  0  1  0  0  0  0  0  0
  -26.9990  -30.3760   24.7290 C   0  0  0  0  0  1  0  0  0  0  0  0
  -27.5910  -32.5510   25.7630 C   0  0  0  0  0  1  0  0  0  0  0  0
  1  2  2  0
  3  7  1  0
  3  1  1  0
  4  5  1  0
  4  6  1  0
  6  9  1  0
  6  1  1  0
  7  5  1  0
  7 55  1  0
  7  8  1  6
  9 10  1  0
 11 17  1  0
 11 19  1  0
 12 17  1  0
 13 14  1  0
 13 12  1  0
 15 14  1  0
 15 30  1  0
 15 16  1  0
 17 16  1  0
 18 11  2  0
 19 10  1  0
 20 25  2  0
 21 23  1  0
 22 21  2  0
 22 24  1  0
 23 19  1  0
 23 20  1  0
 24 26  1  0
 24 20  1  0
 27 28  2  0
 28 47  1  0
 29 28  1  0
 29 32  1  0
 30 27  1  0
 30 31  1  0
 31 29  2  0
 32 33  1  0
 33 34  2  0
 35 38  1  0
 35 34  1  0
 36 35  2  0
 37 36  1  0
 37 32  2  0
 38 39  1  0
 39 40  1  0
 40 41  2  0
 42 41  1  0
 42 46  1  0
 43 42  2  0
 44 39  2  0
 44 43  1  0
 45 44  1  0
 47 48  1  0
 48 51  1  0
 48 50  1  0
 49 47  2  0
 52 54  1  0
 52 27  1  0
 53 52  1  0
 56 57  1  0
 56 55  1  0
 58 69  2  0
 59 57  1  0
 59 64  1  0
 60 68  1  0
 60 70  1  0
 61 67  1  0
 61 63  1  0
 62 68  1  0
 63 62  1  0
 64 63  2  0
 65 66  1  0
 65 59  2  0
 66 61  2  0
 67 60  1  0
 68 58  1  0
 70 72  2  0
 71 70  1  0
 73 71  1  0
 74 83  2  0
 74 79  1  0
 75 71  1  0
 75 79  1  0
 76 75  1  0
 77 78  1  0
 77 76  1  0
 78 74  1  0
 79 80  2  0
 80 81  1  0
 82 81  2  0
 83 82  1  0
 84 58  1  0
 84 85  1  0
 84 94  1  0
 85 88  1  0
 86 90  1  0
 86 85  1  0
 87 86  2  0
 90 89  1  0
 92 90  1  0
 92 93  1  0
 92 91  1  0
 94 97  1  1
 94 95  1  0
 96 94  1  0
M  ISO  4  11 100  19 100  56 101  57 101
M  END
>  <TORSDO>  (42) 
F 21

>  <SCORE>  (42) 
-11.536

>  <name>  (42) 
41

>  <ligand_id>  (42) 
41

>  <original_smiles>  (42) 
[H]C([H])=C1C([H])(C([H])([H])C([H])([H])N(C(=O)N2C([H])([H])C([H])([H])C([H])([H])C([H])(n3nc(-c4c([H])c([H])c(Oc5c([H])c([H])c(F)c([H])c5F)c([H])c4[H])c(C(=O)N([H])[H])c3N([H])[H])C2([H])[H])C2([H])C(=O)N([H])C([H])([H])C2([H])[H])C([H])([H])C([H])([H])[N+]([H])(C([H])([H])C([H])([H])Oc2c([H])c([H])c3c(c2[H])C([H])([H])N(C(=O)C([H])(N([H])C(=O)C([H])(N([H])C([H])([H])[H])C([H])([H])[H])C(C([H])([H])[H])(C([H])([H])[H])C([H])([H])[H])C([H])(C(=O)N([H])C2([H])c4c([H])c([H])c([H])c([H])c4C([H])([H])C([H])([H])C2([H])[H])C3([H])[H])C1([H])[H]

>  <smiles>  (42) 
[H]C([H])=C1C([H])(C([H])([H])C([H])([H])N(C(=O)N2C([H])([H])C([H])([H])C([H])([H])C([H])(n3nc(-c4c([H])c([H])c(Oc5c([H])c([H])c(F)c([H])c5F)c([H])c4[H])c(C(=O)N([H])[H])c3N([H])[H])C2([H])[H])C2([H])C(=O)N([H])C([H])([H])C2([H])[H])C([H])([H])C([H])([H])[N+]([H])(C([H])([H])C([H])([H])Oc2c([H])c([H])c3c(c2[H])C([H])([H])N(C(=O)C([H])(N([H])C(=O)C([H])(N([H])C([H])([H])[H])C([H])([H])[H])C(C([H])([H])[H])(C([H])([H])[H])C([H])([H])[H])C([H])(C(=O)N([H])C2([H])c4c([H])c([H])c([H])c([H])c4C([H])([H])C([H])([H])C2([H])[H])C3([H])[H])C1([H])[H]

$$$$
42:0:0
     RDKit          3D

 91 99  0  0  1  0  0  0  0  0999 V2000
  -28.6370  -24.0270   22.5230 C   0  0  0  0  0  0  0  0  0  0  0  0
  -28.6800  -22.5300   22.2650 C   0  0  0  0  0  2  0  0  0  0  0  0
  -29.4760  -23.6880   20.3010 C   0  0  0  0  0  2  0  0  0  0  0  0
  -29.4250  -24.7480   21.4410 C   0  0  0  0  0  3  0  0  0  0  0  0
  -29.6180  -22.3230   21.0600 C   0  0  0  0  0  3  0  0  0  0  0  0
  -28.0550  -24.5620   23.5110 N   0  0  0  0  0  0  0  0  0  0  0  0
  -27.6100  -23.8710   24.1070 H   0  0  0  0  0  0  0  0  0  0  0  0
  -29.0930  -26.2840   21.2000 C   0  0  0  0  0  2  0  0  0  0  0  0
  -28.4100  -26.6680   19.9970 O   0  0  0  0  0  0  0  0  0  0  0  0
  -24.6520  -31.9240   23.2230 C   0  0  0  0  0  0  0  0  0  0  0  0
  -27.2990  -27.4900   20.0920 C   0  0  0  0  0  0  0  0  0  0  0  0
  -23.4470  -30.5300   21.5750 C   0  0  0  0  0  3  0  0  0  0  0  0
  -24.9040  -29.0130   20.1270 C   0  0  0  0  0  0  0  0  0  0  0  0
  -25.9740  -30.8940   21.3720 C   0  0  0  0  0  2  0  0  0  0  0  0
  -26.0660  -29.5240   20.7260 C   0  0  0  0  0  0  0  0  0  0  0  0
  -27.2680  -28.7670   20.7170 C   0  0  0  0  0  3  0  0  0  0  0  0
  -26.1270  -27.0150   19.4750 C   0  0  0  0  0  3  0  0  0  0  0  0
  -24.9310  -27.7560   19.5010 C   0  0  0  0  0  3  0  0  0  0  0  0
  -23.6560  -29.8670   20.1890 C   0  0  0  0  0  2  0  0  0  0  0  0
  -24.7100  -31.1320   22.1140 N   0  0  0  0  0  0  0  0  0  0  0  0
  -23.5730  -32.1840   23.7720 O   0  0  0  0  0  0  0  0  0  0  0  0
  -22.8070  -29.4950   22.5310 C   0  0  0  0  0  0  0  0  0  0  0  0
  -21.4840  -29.3000   22.4060 N   0  0  0  0  0  0  0  0  0  0  0  0
  -23.4990  -28.8710   23.3390 O   0  0  0  0  0  0  0  0  0  0  0  0
  -20.9850  -29.8550   21.7250 H   0  0  0  0  0  0  0  0  0  0  0  0
  -18.1280  -28.0480   22.8950 C   0  0  0  0  0  0  0  0  0  0  0  0
  -20.6810  -28.3470   23.1730 C   0  0  0  0  0  3  0  0  0  0  0  0
  -20.8080  -26.9190   22.5940 C   0  0  0  0  0  2  0  0  0  0  0  0
  -19.7140  -26.5810   21.5760 C   0  0  0  0  0  2  0  0  0  0  0  0
  -18.3280  -26.7030   22.2160 C   0  0  0  0  0  2  0  0  0  0  0  0
  -19.2330  -28.8270   23.3310 C   0  0  0  0  0  0  0  0  0  0  0  0
  -18.9930  -30.0840   23.9240 C   0  0  0  0  0  3  0  0  0  0  0  0
  -17.6800  -30.5650   24.0870 C   0  0  0  0  0  3  0  0  0  0  0  0
  -16.5890  -29.7830   23.6690 C   0  0  0  0  0  3  0  0  0  0  0  0
  -16.8140  -28.5270   23.0780 C   0  0  0  0  0  3  0  0  0  0  0  0
  -25.9380  -32.5590   23.8390 C   0  0  0  0  0  3  0  0  0  0  0  0
  -25.6220  -33.9520   24.1840 N   0  0  0  0  0  0  0  0  0  0  0  0
  -25.9360  -35.0130   23.4270 C   0  0  0  0  0  0  0  0  0  0  0  0
  -26.5940  -34.9230   22.3880 O   0  0  0  0  0  0  0  0  0  0  0  0
  -25.0360  -34.0960   24.9930 H   0  0  0  0  0  0  0  0  0  0  0  0
  -24.1850  -36.7900   23.1110 C   0  0  0  0  0  1  0  0  0  0  0  0
  -25.4420  -36.3940   23.9010 C   0  0  0  0  0  3  0  0  0  0  0  0
  -27.5810  -37.2920   24.7030 C   0  0  0  0  0  1  0  0  0  0  0  0
  -26.4630  -37.4570   23.7790 N   0  0  0  0  0  0  0  0  0  0  0  0
  -26.0510  -38.3720   23.9390 H   0  0  0  0  0  0  0  0  0  0  0  0
  -26.4720  -31.7800   25.1030 C   0  0  1  0  0  0  0  0  0  0  0  0
  -25.3920  -31.5230   26.1780 C   0  0  0  0  0  1  0  0  0  0  0  0
  -27.0620  -30.4100   24.6910 C   0  0  0  0  0  1  0  0  0  0  0  0
  -27.6240  -32.5760   25.7610 C   0  0  0  0  0  1  0  0  0  0  0  0
  -29.3970  -20.9630   20.2960 C   0  0  0  0  0  3  0  0  0  0  0  0
  -30.0090  -19.6940   20.9980 C   0  0  0  0  0  3  0  0  0  0  0  0
  -29.6450  -18.2750   20.4240 C   0  0  0  0  0  2  0  0  0  0  0  0
  -30.4600  -17.0840   21.0520 C   0  0  0  0  0  2  0  0  0  0  0  0
  -30.6780  -14.6540   20.2720 C   0  0  0  0  0  0  0  0  0  0  0  0
  -30.3750  -12.4700   19.1420 C   0  0  0  0  0  2  0  0  0  0  0  0
  -29.4080  -12.6390   17.9490 C   0  0  0  0  0  2  0  0  0  0  0  0
  -27.9430  -12.5000   18.4080 C   0  0  0  0  0  2  0  0  0  0  0  0
  -27.6240  -13.3550   19.6640 C   0  0  0  0  0  3  0  0  0  0  0  0
  -28.6990  -13.1590   20.7550 C   0  0  0  0  0  2  0  0  0  0  0  0
  -30.0050  -13.4730   20.1550 N   0  0  0  0  0  0  0  0  0  0  0  0
  -31.8210  -14.8030   19.8330 O   0  0  0  0  0  0  0  0  0  0  0  0
  -29.9710  -15.7070   20.7600 N   0  0  0  0  0  0  0  0  0  0  0  0
  -29.0220  -15.5000   21.0350 H   0  0  0  0  0  0  0  0  0  0  0  0
  -25.2440  -13.9760   20.4140 C   0  0  0  0  0  0  0  0  0  0  0  0
  -24.1790  -13.2110   20.8060 C   0  0  0  0  0  0  0  0  0  0  0  0
  -24.6330  -11.8570   20.7780 C   0  0  0  0  0  0  0  0  0  0  0  0
  -26.2800  -13.0890   20.1710 N   0  0  0  0  0  0  0  0  0  0  0  0
  -25.9190  -11.8090   20.4490 N   0  0  0  0  0  0  0  0  0  0  0  0
  -23.9040  -10.5990   20.9860 C   0  0  0  0  0  0  0  0  0  0  0  0
  -24.3540   -9.6300   21.9100 C   0  0  0  0  0  3  0  0  0  0  0  0
  -23.6240   -8.4380   22.1070 C   0  0  0  0  0  3  0  0  0  0  0  0
  -22.4320   -8.2050   21.3810 C   0  0  0  0  0  0  0  0  0  0  0  0
  -22.0030   -9.1640   20.4460 C   0  0  0  0  0  3  0  0  0  0  0  0
  -22.7320  -10.3470   20.2480 C   0  0  0  0  0  3  0  0  0  0  0  0
  -21.6730   -7.0650   21.4870 O   0  0  0  0  0  0  0  0  0  0  0  0
  -21.6550   -6.3180   22.6380 C   0  0  0  0  0  0  0  0  0  0  0  0
  -21.2780   -6.8720   23.8800 C   0  0  0  0  0  3  0  0  0  0  0  0
  -21.2050   -6.0520   25.0240 C   0  0  0  0  0  3  0  0  0  0  0  0
  -21.5000   -4.6790   24.9260 C   0  0  0  0  0  0  0  0  0  0  0  0
  -21.8720   -4.1250   23.6890 C   0  0  0  0  0  3  0  0  0  0  0  0
  -21.9460   -4.9420   22.5470 C   0  0  0  0  0  0  0  0  0  0  0  0
  -22.2830   -4.3980   21.3530 F   0  0  0  0  0  0  0  0  0  0  0  0
  -21.4230   -3.8890   26.0230 F   0  0  0  0  0  0  0  0  0  0  0  0
  -22.7880  -13.6970   21.0960 C   0  0  0  0  0  0  0  0  0  0  0  0
  -22.0710  -13.0130   21.9790 N   0  0  0  0  0  0  0  0  0  0  0  0
  -22.3460  -14.7200   20.5740 O   0  0  0  0  0  0  0  0  0  0  0  0
  -22.4400  -12.1860   22.4260 H   0  0  0  0  0  0  0  0  0  0  0  0
  -21.1370  -13.3210   22.2150 H   0  0  0  0  0  0  0  0  0  0  0  0
  -25.4130  -15.3440   20.2250 N   0  0  0  0  0  0  0  0  0  0  0  0
  -24.6520  -16.0040   20.3430 H   0  0  0  0  0  0  0  0  0  0  0  0
  -26.2570  -15.7740   19.8680 H   0  0  0  0  0  0  0  0  0  0  0  0
  1  6  2  0
  2  1  1  0
  3  5  1  0
  3  4  1  0
  4  8  1  0
  4  1  1  0
  5 50  1  0
  5  2  1  0
  6  7  1  0
  9 11  1  0
  9  8  1  0
 10 21  2  0
 11 16  1  0
 12 20  1  0
 12 22  1  0
 13 19  1  0
 13 15  1  0
 14 20  1  0
 15 14  1  0
 16 15  2  0
 17 18  1  0
 17 11  2  0
 18 13  2  0
 19 12  1  0
 20 10  1  0
 22 24  2  0
 23 22  1  0
 25 23  1  0
 26 35  2  0
 26 31  1  0
 27 23  1  0
 27 31  1  0
 28 27  1  0
 29 30  1  0
 29 28  1  0
 30 26  1  0
 31 32  2  0
 32 33  1  0
 34 33  2  0
 35 34  1  0
 36 10  1  0
 36 37  1  0
 36 46  1  0
 37 40  1  0
 38 42  1  0
 38 37  1  0
 39 38  2  0
 42 41  1  0
 44 42  1  0
 44 45  1  0
 44 43  1  0
 46 49  1  1
 46 47  1  0
 48 46  1  0
 50 51  2  0
 52 51  1  0
 52 53  1  0
 54 62  1  0
 55 60  1  0
 56 57  1  0
 56 55  1  0
 58 57  1  0
 58 67  1  0
 58 59  1  0
 60 54  1  0
 60 59  1  0
 61 54  2  0
 62 63  1  0
 62 53  1  0
 64 65  2  0
 65 84  1  0
 66 65  1  0
 66 69  1  0
 67 64  1  0
 67 68  1  0
 68 66  2  0
 69 70  1  0
 70 71  2  0
 72 75  1  0
 72 71  1  0
 73 72  2  0
 74 73  1  0
 74 69  2  0
 75 76  1  0
 76 77  1  0
 77 78  2  0
 79 78  1  0
 79 83  1  0
 80 79  2  0
 81 76  2  0
 81 80  1  0
 82 81  1  0
 84 85  1  0
 85 88  1  0
 85 87  1  0
 86 84  2  0
 89 90  1  0
 89 64  1  0
 91 89  1  0
M  ISO  4   8 101   9 101  54 100  62 100
M  END
>  <TORSDO>  (43) 
F 21

>  <SCORE>  (43) 
-12.932

>  <name>  (43) 
42

>  <ligand_id>  (43) 
42

>  <original_smiles>  (43) 
[H]N=C1C([H])([H])C([H])(C([H])([H])C([H])([H])C([H])([H])C([H])([H])N([H])C(=O)N2C([H])([H])C([H])([H])C([H])([H])C([H])(n3nc(-c4c([H])c([H])c(Oc5c([H])c([H])c(F)c([H])c5F)c([H])c4[H])c(C(=O)N([H])[H])c3N([H])[H])C2([H])[H])C([H])([H])C1([H])C([H])([H])Oc1c([H])c([H])c2c(c1[H])C([H])([H])N(C(=O)C([H])(N([H])C(=O)C([H])(N([H])C([H])([H])[H])C([H])([H])[H])C(C([H])([H])[H])(C([H])([H])[H])C([H])([H])[H])C([H])(C(=O)N([H])C1([H])c3c([H])c([H])c([H])c([H])c3C([H])([H])C([H])([H])C1([H])[H])C2([H])[H]

>  <smiles>  (43) 
[H]N=C1C([H])([H])C([H])(C([H])([H])C([H])([H])C([H])([H])C([H])([H])N([H])C(=O)N2C([H])([H])C([H])([H])C([H])([H])C([H])(n3nc(-c4c([H])c([H])c(Oc5c([H])c([H])c(F)c([H])c5F)c([H])c4[H])c(C(=O)N([H])[H])c3N([H])[H])C2([H])[H])C([H])([H])C1([H])C([H])([H])Oc1c([H])c([H])c2c(c1[H])C([H])([H])N(C(=O)C([H])(N([H])C(=O)C([H])(N([H])C([H])([H])[H])C([H])([H])[H])C(C([H])([H])[H])(C([H])([H])[H])C([H])([H])[H])C([H])(C(=O)N([H])C1([H])c3c([H])c([H])c([H])c([H])c3C([H])([H])C([H])([H])C1([H])[H])C2([H])[H]

$$$$
43:0:0
     RDKit          3D

 88 96  0  0  1  0  0  0  0  0999 V2000
  -30.6000  -20.6770   19.2180 C   0  0  0  0  0  0  0  0  0  0  0  0
  -29.8890  -19.9790   20.4350 C   0  0  0  0  0  3  0  0  0  0  0  0
  -28.8480  -21.3350   20.0940 C   0  0  0  0  0  3  0  0  0  0  0  0
  -29.4640  -21.3080   18.7800 N   0  0  0  0  0  0  0  0  0  0  0  0
  -31.7020  -20.6720   18.7100 O   0  0  0  0  0  0  0  0  0  0  0  0
  -29.2980  -21.8510   17.9430 H   0  0  0  0  0  0  0  0  0  0  0  0
  -31.7810  -18.1270   20.5130 C   0  0  0  0  0  1  0  0  0  0  0  0
  -30.2880  -18.2580   20.0970 C   0  0  0  0  0  3  0  0  0  0  0  0
  -29.7240  -16.6690   20.5830 C   0  0  0  0  0  2  0  0  0  0  0  0
  -30.4670  -15.1330   20.2960 C   0  0  0  0  0  0  0  0  0  0  0  0
  -30.3610  -12.7330   19.3810 C   0  0  0  0  0  2  0  0  0  0  0  0
  -29.4360  -12.6490   18.1420 C   0  0  0  0  0  2  0  0  0  0  0  0
  -27.9750  -12.4200   18.5730 C   0  0  0  0  0  2  0  0  0  0  0  0
  -27.5590  -13.3520   19.7400 C   0  0  0  0  0  3  0  0  0  0  0  0
  -28.6130  -13.4140   20.8650 C   0  0  0  0  0  2  0  0  0  0  0  0
  -29.8790  -13.8510   20.2610 N   0  0  0  0  0  0  0  0  0  0  0  0
  -31.6650  -15.1120   19.9880 O   0  0  0  0  0  0  0  0  0  0  0  0
  -25.1840  -13.9230   20.4840 C   0  0  0  0  0  0  0  0  0  0  0  0
  -24.1200  -13.1500   20.8550 C   0  0  0  0  0  0  0  0  0  0  0  0
  -24.5850  -11.7980   20.8310 C   0  0  0  0  0  0  0  0  0  0  0  0
  -26.2270  -13.0450   20.2450 N   0  0  0  0  0  0  0  0  0  0  0  0
  -25.8770  -11.7610   20.5210 N   0  0  0  0  0  0  0  0  0  0  0  0
  -23.8560  -10.5370   21.0250 C   0  0  0  0  0  0  0  0  0  0  0  0
  -24.2860   -9.5690   21.9600 C   0  0  0  0  0  3  0  0  0  0  0  0
  -23.5540   -8.3760   22.1420 C   0  0  0  0  0  3  0  0  0  0  0  0
  -22.3780   -8.1410   21.3900 C   0  0  0  0  0  0  0  0  0  0  0  0
  -21.9670   -9.0980   20.4460 C   0  0  0  0  0  3  0  0  0  0  0  0
  -22.7000  -10.2830   20.2610 C   0  0  0  0  0  3  0  0  0  0  0  0
  -21.6180   -6.9990   21.4820 O   0  0  0  0  0  0  0  0  0  0  0  0
  -21.5740   -6.2550   22.6340 C   0  0  0  0  0  0  0  0  0  0  0  0
  -21.1640   -6.8110   23.8650 C   0  0  0  0  0  3  0  0  0  0  0  0
  -21.0650   -5.9930   25.0090 C   0  0  0  0  0  3  0  0  0  0  0  0
  -21.3670   -4.6220   24.9220 C   0  0  0  0  0  0  0  0  0  0  0  0
  -21.7710   -4.0650   23.6960 C   0  0  0  0  0  3  0  0  0  0  0  0
  -21.8710   -4.8800   22.5540 C   0  0  0  0  0  0  0  0  0  0  0  0
  -22.2390   -4.3340   21.3700 F   0  0  0  0  0  0  0  0  0  0  0  0
  -21.2670   -3.8340   26.0180 F   0  0  0  0  0  0  0  0  0  0  0  0
  -22.7230  -13.6290   21.1190 C   0  0  0  0  0  0  0  0  0  0  0  0
  -21.9900  -12.9370   21.9830 N   0  0  0  0  0  0  0  0  0  0  0  0
  -22.2900  -14.6540   20.5950 O   0  0  0  0  0  0  0  0  0  0  0  0
  -22.3540  -12.1070   22.4290 H   0  0  0  0  0  0  0  0  0  0  0  0
  -21.0520  -13.2390   22.2030 H   0  0  0  0  0  0  0  0  0  0  0  0
  -25.3510  -15.2930   20.3040 N   0  0  0  0  0  0  0  0  0  0  0  0
  -24.5880  -15.9520   20.4180 H   0  0  0  0  0  0  0  0  0  0  0  0
  -26.2070  -15.7300   19.9860 H   0  0  0  0  0  0  0  0  0  0  0  0
  -28.9220  -23.0280   20.5800 C   0  0  0  0  0  3  0  0  0  0  0  0
  -28.0320  -24.4310   20.0300 C   0  0  0  0  0  3  0  0  0  0  0  0
  -28.2250  -26.0020   20.3180 O   0  0  0  0  0  0  0  0  0  0  0  0
  -24.6300  -31.8600   23.2100 C   0  0  0  0  0  0  0  0  0  0  0  0
  -27.1930  -27.0410   20.2210 C   0  0  0  0  0  0  0  0  0  0  0  0
  -23.4320  -30.4540   21.5810 C   0  0  0  0  0  3  0  0  0  0  0  0
  -24.8800  -28.8520   20.1670 C   0  0  0  0  0  0  0  0  0  0  0  0
  -25.9930  -30.6890   21.4240 C   0  0  0  0  0  2  0  0  0  0  0  0
  -26.0620  -29.2830   20.7800 C   0  0  0  0  0  0  0  0  0  0  0  0
  -27.2150  -28.3940   20.7870 C   0  0  0  0  0  3  0  0  0  0  0  0
  -25.9840  -26.7390   19.5560 C   0  0  0  0  0  3  0  0  0  0  0  0
  -24.8600  -27.5980   19.5360 C   0  0  0  0  0  3  0  0  0  0  0  0
  -23.6570  -29.7620   20.2080 C   0  0  0  0  0  2  0  0  0  0  0  0
  -24.7050  -31.0260   22.1260 N   0  0  0  0  0  0  0  0  0  0  0  0
  -23.5430  -32.1530   23.7330 O   0  0  0  0  0  0  0  0  0  0  0  0
  -22.7440  -29.4610   22.5530 C   0  0  0  0  0  0  0  0  0  0  0  0
  -21.4140  -29.2980   22.4330 N   0  0  0  0  0  0  0  0  0  0  0  0
  -23.4120  -28.8370   23.3820 O   0  0  0  0  0  0  0  0  0  0  0  0
  -20.9290  -29.8530   21.7400 H   0  0  0  0  0  0  0  0  0  0  0  0
  -18.0300  -28.1070   22.9520 C   0  0  0  0  0  0  0  0  0  0  0  0
  -20.5890  -28.3690   23.2120 C   0  0  0  0  0  3  0  0  0  0  0  0
  -20.6870  -26.9320   22.6480 C   0  0  0  0  0  2  0  0  0  0  0  0
  -19.5830  -26.6040   21.6370 C   0  0  0  0  0  2  0  0  0  0  0  0
  -18.2030  -26.7550   22.2840 C   0  0  0  0  0  2  0  0  0  0  0  0
  -19.1490  -28.8720   23.3740 C   0  0  0  0  0  0  0  0  0  0  0  0
  -18.9320  -30.1360   23.9620 C   0  0  0  0  0  3  0  0  0  0  0  0
  -17.6270  -30.6370   24.1320 C   0  0  0  0  0  3  0  0  0  0  0  0
  -16.5210  -29.8710   23.7240 C   0  0  0  0  0  3  0  0  0  0  0  0
  -16.7240  -28.6080   23.1400 C   0  0  0  0  0  3  0  0  0  0  0  0
  -25.9050  -32.5030   23.8350 C   0  0  0  0  0  3  0  0  0  0  0  0
  -26.4170  -31.7410   25.1200 C   0  0  1  0  0  0  0  0  0  0  0  0
  -25.3200  -31.5130   26.1870 C   0  0  0  0  0  1  0  0  0  0  0  0
  -26.9990  -30.3580   24.7470 C   0  0  0  0  0  1  0  0  0  0  0  0
  -27.5670  -32.5380   25.7790 C   0  0  0  0  0  1  0  0  0  0  0  0
  -25.5890  -33.9030   24.1670 N   0  0  0  0  0  0  0  0  0  0  0  0
  -25.9140  -34.9620   23.4130 C   0  0  0  0  0  0  0  0  0  0  0  0
  -26.5750  -34.8630   22.3760 O   0  0  0  0  0  0  0  0  0  0  0  0
  -25.0000  -34.0520   24.9730 H   0  0  0  0  0  0  0  0  0  0  0  0
  -24.1770  -36.7560   23.0890 C   0  0  0  0  0  1  0  0  0  0  0  0
  -25.4300  -36.3490   23.8810 C   0  0  0  0  0  3  0  0  0  0  0  0
  -27.5730  -37.2400   24.6850 C   0  0  0  0  0  1  0  0  0  0  0  0
  -26.4590  -37.4060   23.7550 N   0  0  0  0  0  0  0  0  0  0  0  0
  -26.0530  -38.3250   23.9080 H   0  0  0  0  0  0  0  0  0  0  0  0
  1  2  1  0
  2  8  1  0
  3  2  1  0
  3 46  1  0
  4  1  1  0
  4  3  1  0
  5  1  2  0
  6  4  1  0
  8  7  1  0
  8  9  1  0
 10  9  1  0
 11 16  1  0
 12 13  1  0
 12 11  1  0
 14 13  1  0
 14 21  1  0
 14 15  1  0
 16 10  1  0
 16 15  1  0
 17 10  2  0
 18 19  2  0
 19 38  1  0
 20 19  1  0
 20 23  1  0
 21 18  1  0
 21 22  1  0
 22 20  2  0
 23 24  1  0
 24 25  2  0
 26 29  1  0
 26 25  1  0
 27 26  2  0
 28 27  1  0
 28 23  2  0
 29 30  1  0
 30 31  1  0
 31 32  2  0
 33 32  1  0
 33 37  1  0
 34 33  2  0
 35 30  2  0
 35 34  1  0
 36 35  1  0
 38 39  1  0
 39 42  1  0
 39 41  1  0
 40 38  2  0
 43 44  1  0
 43 18  1  0
 45 43  1  0
 47 48  1  0
 47 46  2  0
 49 60  2  0
 50 48  1  0
 50 55  1  0
 51 59  1  0
 51 61  1  0
 52 58  1  0
 52 54  1  0
 53 59  1  0
 54 55  2  0
 54 53  1  0
 56 50  2  0
 57 56  1  0
 57 52  2  0
 58 51  1  0
 59 49  1  0
 61 63  2  0
 62 61  1  0
 64 62  1  0
 65 74  2  0
 65 70  1  0
 66 62  1  0
 66 70  1  0
 67 66  1  0
 68 69  1  0
 68 67  1  0
 69 65  1  0
 70 71  2  0
 71 72  1  0
 73 72  2  0
 74 73  1  0
 75 49  1  0
 75 80  1  0
 75 76  1  0
 76 79  1  1
 76 77  1  0
 78 76  1  0
 80 83  1  0
 81 85  1  0
 81 80  1  0
 82 81  2  0
 85 84  1  0
 87 85  1  0
 87 88  1  0
 87 86  1  0
M  ISO  4   9 100  10 100  47 101  48 101
M  END
>  <TORSDO>  (44) 
F 20

>  <SCORE>  (44) 
-16.117

>  <name>  (44) 
43

>  <ligand_id>  (44) 
43

>  <original_smiles>  (44) 
[H]c1c([H])c([H])c2c(c1[H])C([H])([H])C([H])([H])C([H])([H])C2([H])N([H])C(=O)C1([H])N(C(=O)C([H])(N([H])C(=O)C([H])(N([H])C([H])([H])[H])C([H])([H])[H])C(C([H])([H])[H])(C([H])([H])[H])C([H])([H])[H])C([H])([H])c2c([H])c(OC([H])([H])C([H])([H])C3([H])N([H])C(=O)C3([H])C([H])(C([H])([H])[H])C([H])([H])C(=O)N3C([H])([H])C([H])([H])C([H])([H])C([H])(n4nc(-c5c([H])c([H])c(Oc6c([H])c([H])c(F)c([H])c6F)c([H])c5[H])c(C(=O)N([H])[H])c4N([H])[H])C3([H])[H])c([H])c([H])c2C1([H])[H]

>  <smiles>  (44) 
[H]c1c([H])c([H])c2c(c1[H])C([H])([H])C([H])([H])C([H])([H])C2([H])N([H])C(=O)C1([H])N(C(=O)C([H])(N([H])C(=O)C([H])(N([H])C([H])([H])[H])C([H])([H])[H])C(C([H])([H])[H])(C([H])([H])[H])C([H])([H])[H])C([H])([H])c2c([H])c(OC([H])([H])C([H])([H])C3([H])N([H])C(=O)C3([H])C([H])(C([H])([H])[H])C([H])([H])C(=O)N3C([H])([H])C([H])([H])C([H])([H])C([H])(n4nc(-c5c([H])c([H])c(Oc6c([H])c([H])c(F)c([H])c6F)c([H])c5[H])c(C(=O)N([H])[H])c4N([H])[H])C3([H])[H])c([H])c([H])c2C1([H])[H]

$$$$
44:0:0
     RDKit          3D

 90 98  0  0  1  0  0  0  0  0999 V2000
  -29.6550  -20.0900   19.5440 C   0  0  0  0  0  0  0  0  0  0  0  0
  -29.7980  -19.4090   21.7520 C   0  0  0  0  0  2  0  0  0  0  0  0
  -30.2080  -18.7560   20.3820 C   0  0  0  0  0  3  0  0  0  0  0  0
  -29.0790  -21.4280   20.3980 C   0  0  0  0  0  3  0  0  0  0  0  0
  -29.6760  -20.9350   21.6770 N   0  0  0  0  0  4  0  0  0  0  0  0
  -29.6900  -20.0890   18.3110 O   0  0  0  0  0  0  0  0  0  0  0  0
  -30.6080  -21.3090   21.7430 H   0  0  0  0  0  0  0  0  0  0  0  0
  -29.1560  -21.2800   22.4680 H   0  0  0  0  0  0  0  0  0  0  0  0
  -29.2280  -23.1660   20.0000 C   0  0  0  0  0  3  0  0  0  0  0  0
  -28.1750  -24.5810   20.2260 C   0  0  0  0  0  3  0  0  0  0  0  0
  -28.3840  -26.1960   20.1080 O   0  0  0  0  0  0  0  0  0  0  0  0
  -24.6690  -31.9480   23.2200 C   0  0  0  0  0  0  0  0  0  0  0  0
  -27.3230  -27.2290   20.1000 C   0  0  0  0  0  0  0  0  0  0  0  0
  -23.4930  -30.5490   21.5730 C   0  0  0  0  0  3  0  0  0  0  0  0
  -24.9660  -29.0130   20.1100 C   0  0  0  0  0  0  0  0  0  0  0  0
  -26.0480  -30.8440   21.3970 C   0  0  0  0  0  2  0  0  0  0  0  0
  -26.1490  -29.4510   20.7200 C   0  0  0  0  0  0  0  0  0  0  0  0
  -27.3230  -28.5810   20.6890 C   0  0  0  0  0  3  0  0  0  0  0  0
  -26.1050  -26.9300   19.4490 C   0  0  0  0  0  3  0  0  0  0  0  0
  -24.9660  -27.7720   19.4560 C   0  0  0  0  0  3  0  0  0  0  0  0
  -23.7220  -29.8950   20.1830 C   0  0  0  0  0  2  0  0  0  0  0  0
  -24.7570  -31.1390   22.1180 N   0  0  0  0  0  0  0  0  0  0  0  0
  -23.5800  -32.2000   23.7590 O   0  0  0  0  0  0  0  0  0  0  0  0
  -22.8380  -29.5170   22.5270 C   0  0  0  0  0  0  0  0  0  0  0  0
  -21.5160  -29.3010   22.3950 N   0  0  0  0  0  0  0  0  0  0  0  0
  -23.5250  -28.9130   23.3540 O   0  0  0  0  0  0  0  0  0  0  0  0
  -21.0140  -29.8410   21.7050 H   0  0  0  0  0  0  0  0  0  0  0  0
  -18.1830  -27.9500   22.8710 C   0  0  0  0  0  0  0  0  0  0  0  0
  -20.7270  -28.3260   23.1560 C   0  0  0  0  0  3  0  0  0  0  0  0
  -20.8960  -26.9020   22.5790 C   0  0  0  0  0  2  0  0  0  0  0  0
  -19.8170  -26.5350   21.5550 C   0  0  0  0  0  2  0  0  0  0  0  0
  -18.4250  -26.6140   22.1890 C   0  0  0  0  0  2  0  0  0  0  0  0
  -19.2640  -28.7610   23.3110 C   0  0  0  0  0  0  0  0  0  0  0  0
  -18.9830  -30.0070   23.9120 C   0  0  0  0  0  3  0  0  0  0  0  0
  -17.6550  -30.4450   24.0750 C   0  0  0  0  0  3  0  0  0  0  0  0
  -16.5900  -29.6330   23.6490 C   0  0  0  0  0  3  0  0  0  0  0  0
  -16.8550  -28.3870   23.0530 C   0  0  0  0  0  3  0  0  0  0  0  0
  -25.9320  -32.6120   23.8500 C   0  0  0  0  0  3  0  0  0  0  0  0
  -26.4420  -31.8660   25.1470 C   0  0  1  0  0  0  0  0  0  0  0  0
  -25.3380  -31.6300   26.2040 C   0  0  0  0  0  1  0  0  0  0  0  0
  -27.0490  -30.4910   24.7890 C   0  0  0  0  0  1  0  0  0  0  0  0
  -27.5720  -32.6860   25.8110 C   0  0  0  0  0  1  0  0  0  0  0  0
  -25.5960  -34.0110   24.1680 N   0  0  0  0  0  0  0  0  0  0  0  0
  -25.9350  -35.0700   23.4200 C   0  0  0  0  0  0  0  0  0  0  0  0
  -26.6270  -34.9710   22.4030 O   0  0  0  0  0  0  0  0  0  0  0  0
  -24.9850  -34.1590   24.9570 H   0  0  0  0  0  0  0  0  0  0  0  0
  -24.2210  -36.8690   23.0200 C   0  0  0  0  0  1  0  0  0  0  0  0
  -25.4320  -36.4560   23.8710 C   0  0  0  0  0  3  0  0  0  0  0  0
  -27.5260  -37.3460   24.7960 C   0  0  0  0  0  1  0  0  0  0  0  0
  -26.4670  -37.5110   23.8040 N   0  0  0  0  0  0  0  0  0  0  0  0
  -26.0530  -38.4310   23.9310 H   0  0  0  0  0  0  0  0  0  0  0  0
  -29.9480  -17.0010   20.1140 C   0  0  0  0  0  3  0  0  0  0  0  0
  -30.8230  -15.5400   20.5000 C   0  0  0  0  0  0  0  0  0  0  0  0
  -30.8910  -13.0460   19.8490 C   0  0  0  0  0  2  0  0  0  0  0  0
  -30.0630  -12.7860   18.5630 C   0  0  0  0  0  2  0  0  0  0  0  0
  -28.5800  -12.5450   18.9000 C   0  0  0  0  0  2  0  0  0  0  0  0
  -28.0420  -13.5710   19.9290 C   0  0  0  0  0  3  0  0  0  0  0  0
  -29.0040  -13.7850   21.1140 C   0  0  0  0  0  2  0  0  0  0  0  0
  -30.2970  -14.2240   20.5670 N   0  0  0  0  0  0  0  0  0  0  0  0
  -32.0620  -15.5590   20.4560 O   0  0  0  0  0  0  0  0  0  0  0  0
  -25.6430  -14.1830   20.5380 C   0  0  0  0  0  0  0  0  0  0  0  0
  -24.5440  -13.4270   20.8360 C   0  0  0  0  0  0  0  0  0  0  0  0
  -24.9850  -12.0680   20.8280 C   0  0  0  0  0  0  0  0  0  0  0  0
  -26.6800  -13.2860   20.3550 N   0  0  0  0  0  0  0  0  0  0  0  0
  -26.2920  -12.0070   20.5990 N   0  0  0  0  0  0  0  0  0  0  0  0
  -24.2240  -10.8200   20.9650 C   0  0  0  0  0  0  0  0  0  0  0  0
  -24.5660   -9.8470   21.9280 C   0  0  0  0  0  3  0  0  0  0  0  0
  -23.8060   -8.6650   22.0550 C   0  0  0  0  0  3  0  0  0  0  0  0
  -22.6860   -8.4480   21.2170 C   0  0  0  0  0  0  0  0  0  0  0  0
  -22.3620   -9.4090   20.2440 C   0  0  0  0  0  3  0  0  0  0  0  0
  -23.1240  -10.5830   20.1150 C   0  0  0  0  0  3  0  0  0  0  0  0
  -21.9040   -7.3200   21.2510 O   0  0  0  0  0  0  0  0  0  0  0  0
  -21.7370   -6.5930   22.4030 C   0  0  0  0  0  0  0  0  0  0  0  0
  -21.1600   -7.1570   23.5620 C   0  0  0  0  0  3  0  0  0  0  0  0
  -20.9450   -6.3560   24.7010 C   0  0  0  0  0  3  0  0  0  0  0  0
  -21.2960   -4.9930   24.6810 C   0  0  0  0  0  0  0  0  0  0  0  0
  -21.8660   -4.4290   23.5260 C   0  0  0  0  0  3  0  0  0  0  0  0
  -22.0830   -5.2270   22.3900 C   0  0  0  0  0  0  0  0  0  0  0  0
  -22.6120   -4.6740   21.2720 F   0  0  0  0  0  0  0  0  0  0  0  0
  -21.0820   -4.2220   25.7730 F   0  0  0  0  0  0  0  0  0  0  0  0
  -23.1420  -13.9310   21.0170 C   0  0  0  0  0  0  0  0  0  0  0  0
  -22.3540  -13.2640   21.8510 N   0  0  0  0  0  0  0  0  0  0  0  0
  -22.7540  -14.9540   20.4530 O   0  0  0  0  0  0  0  0  0  0  0  0
  -22.6800  -12.4380   22.3300 H   0  0  0  0  0  0  0  0  0  0  0  0
  -21.4100  -13.5840   22.0150 H   0  0  0  0  0  0  0  0  0  0  0  0
  -25.8420  -15.5520   20.3790 N   0  0  0  0  0  0  0  0  0  0  0  0
  -25.0800  -16.2170   20.4420 H   0  0  0  0  0  0  0  0  0  0  0  0
  -26.7140  -15.9740   20.0890 H   0  0  0  0  0  0  0  0  0  0  0  0
  -30.8410  -17.0030   17.6590 C   0  0  0  0  0  1  0  0  0  0  0  0
  -29.6300  -16.8570   18.6000 C   0  0  0  0  0  2  0  0  0  0  0  0
  1  3  1  0
  1  4  1  0
  3 52  1  0
  3  2  1  0
  4  9  1  0
  4  5  1  0
  5  7  1  0
  5  2  1  0
  5  8  1  0
  6  1  2  0
  9 10  2  0
 11 10  1  0
 12 23  2  0
 13 11  1  0
 13 18  1  0
 14 22  1  0
 14 24  1  0
 15 21  1  0
 15 17  1  0
 16 22  1  0
 17 16  1  0
 18 17  2  0
 19 20  1  0
 19 13  2  0
 20 15  2  0
 21 14  1  0
 22 12  1  0
 24 26  2  0
 25 24  1  0
 27 25  1  0
 28 37  2  0
 28 33  1  0
 29 25  1  0
 29 33  1  0
 30 29  1  0
 31 32  1  0
 31 30  1  0
 32 28  1  0
 33 34  2  0
 34 35  1  0
 36 35  2  0
 37 36  1  0
 38 12  1  0
 38 43  1  0
 38 39  1  0
 39 42  1  1
 39 40  1  0
 41 39  1  0
 43 46  1  0
 44 48  1  0
 44 43  1  0
 45 44  2  0
 48 47  1  0
 50 48  1  0
 50 51  1  0
 50 49  1  0
 52 90  1  0
 52 53  1  0
 53 59  1  0
 54 59  1  0
 55 56  1  0
 55 54  1  0
 57 56  1  0
 57 64  1  0
 57 58  1  0
 59 58  1  0
 60 53  2  0
 61 62  2  0
 62 81  1  0
 63 62  1  0
 63 66  1  0
 64 61  1  0
 64 65  1  0
 65 63  2  0
 66 67  1  0
 67 68  2  0
 69 72  1  0
 69 68  1  0
 70 69  2  0
 71 70  1  0
 71 66  2  0
 72 73  1  0
 73 74  1  0
 74 75  2  0
 76 75  1  0
 76 80  1  0
 77 76  2  0
 78 73  2  0
 78 77  1  0
 79 78  1  0
 81 82  1  0
 82 85  1  0
 82 84  1  0
 83 81  2  0
 86 87  1  0
 86 61  1  0
 88 86  1  0
 89 90  1  0
M  ISO  4  10 101  11 101  52 100  53 100
M  END
>  <TORSDO>  (45) 
F 20

>  <SCORE>  (45) 
-14.528

>  <name>  (45) 
44

>  <ligand_id>  (45) 
44

>  <original_smiles>  (45) 
[H]c1c([H])c([H])c2c(c1[H])C([H])([H])C([H])([H])C([H])([H])C2([H])N([H])C(=O)C1([H])N(C(=O)C([H])(N([H])C(=O)C([H])(N([H])C([H])([H])[H])C([H])([H])[H])C(C([H])([H])[H])(C([H])([H])[H])C([H])([H])[H])C([H])([H])c2c([H])c(OC([H])([H])C([H])([H])C3([H])C(=O)C([H])(C([H])(C(=O)N4C([H])([H])C([H])([H])C([H])([H])C([H])(n5nc(-c6c([H])c([H])c(Oc7c([H])c([H])c(F)c([H])c7F)c([H])c6[H])c(C(=O)N([H])[H])c5N([H])[H])C4([H])[H])C([H])([H])C([H])([H])[H])C([H])([H])[N+]3([H])[H])c([H])c([H])c2C1([H])[H]

>  <smiles>  (45) 
[H]c1c([H])c([H])c2c(c1[H])C([H])([H])C([H])([H])C([H])([H])C2([H])N([H])C(=O)C1([H])N(C(=O)C([H])(N([H])C(=O)C([H])(N([H])C([H])([H])[H])C([H])([H])[H])C(C([H])([H])[H])(C([H])([H])[H])C([H])([H])[H])C([H])([H])c2c([H])c(OC([H])([H])C([H])([H])C3([H])C(=O)C([H])(C([H])(C(=O)N4C([H])([H])C([H])([H])C([H])([H])C([H])(n5nc(-c6c([H])c([H])c(Oc7c([H])c([H])c(F)c([H])c7F)c([H])c6[H])c(C(=O)N([H])[H])c5N([H])[H])C4([H])[H])C([H])([H])C([H])([H])[H])C([H])([H])[N+]3([H])[H])c([H])c([H])c2C1([H])[H]

$$$$
45:0:0
     RDKit          3D

 87 95  0  0  1  0  0  0  0  0999 V2000
  -27.3090  -22.9470   20.2520 C   0  0  0  0  0  2  0  0  0  0  0  0
  -28.7040  -22.4590   19.9310 C   0  0  0  0  0  3  0  0  0  0  0  0
  -28.4430  -23.9300   20.4460 C   0  0  0  0  0  3  0  0  0  0  0  0
  -29.2870  -21.2480   20.7510 C   0  0  0  0  0  3  0  0  0  0  0  0
  -29.3490  -19.8160   20.0520 C   0  0  0  0  0  3  0  0  0  0  0  0
  -29.6690  -18.5390   20.9540 C   0  0  0  0  0  2  0  0  0  0  0  0
  -30.1480  -17.1760   20.2490 C   0  0  0  0  0  2  0  0  0  0  0  0
  -30.6130  -14.6330   20.3210 C   0  0  0  0  0  0  0  0  0  0  0  0
  -30.3480  -12.3980   19.2850 C   0  0  0  0  0  2  0  0  0  0  0  0
  -29.4050  -12.5480   18.0700 C   0  0  0  0  0  2  0  0  0  0  0  0
  -27.9370  -12.3910   18.5120 C   0  0  0  0  0  2  0  0  0  0  0  0
  -27.5900  -13.2650   19.7480 C   0  0  0  0  0  3  0  0  0  0  0  0
  -28.6550  -13.1220   20.8610 C   0  0  0  0  0  2  0  0  0  0  0  0
  -29.9640  -13.4290   20.2700 N   0  0  0  0  0  0  0  0  0  0  0  0
  -31.7700  -14.7590   19.9130 O   0  0  0  0  0  0  0  0  0  0  0  0
  -29.8590  -15.7390   20.6200 N   0  0  0  0  0  0  0  0  0  0  0  0
  -28.9250  -15.5400   20.9510 H   0  0  0  0  0  0  0  0  0  0  0  0
  -25.2070  -13.8780   20.4860 C   0  0  0  0  0  0  0  0  0  0  0  0
  -24.1400  -13.1120   20.8650 C   0  0  0  0  0  0  0  0  0  0  0  0
  -24.5960  -11.7580   20.8340 C   0  0  0  0  0  0  0  0  0  0  0  0
  -26.2450  -12.9920   20.2440 N   0  0  0  0  0  0  0  0  0  0  0  0
  -25.8830  -11.7130   20.5150 N   0  0  0  0  0  0  0  0  0  0  0  0
  -23.8650  -10.5000   21.0320 C   0  0  0  0  0  0  0  0  0  0  0  0
  -24.3110   -9.5250   21.9500 C   0  0  0  0  0  3  0  0  0  0  0  0
  -23.5810   -8.3310   22.1380 C   0  0  0  0  0  3  0  0  0  0  0  0
  -22.3890   -8.1060   21.4080 C   0  0  0  0  0  0  0  0  0  0  0  0
  -21.9620   -9.0710   20.4790 C   0  0  0  0  0  3  0  0  0  0  0  0
  -22.6920  -10.2560   20.2900 C   0  0  0  0  0  3  0  0  0  0  0  0
  -21.6290   -6.9660   21.5070 O   0  0  0  0  0  0  0  0  0  0  0  0
  -21.6140   -6.2060   22.6480 C   0  0  0  0  0  0  0  0  0  0  0  0
  -21.2510   -6.7500   23.9000 C   0  0  0  0  0  3  0  0  0  0  0  0
  -21.1810   -5.9180   25.0350 C   0  0  0  0  0  3  0  0  0  0  0  0
  -21.4650   -4.5440   24.9210 C   0  0  0  0  0  0  0  0  0  0  0  0
  -21.8190   -4.0000   23.6740 C   0  0  0  0  0  3  0  0  0  0  0  0
  -21.8910   -4.8290   22.5400 C   0  0  0  0  0  0  0  0  0  0  0  0
  -22.2140   -4.2960   21.3370 F   0  0  0  0  0  0  0  0  0  0  0  0
  -21.3900   -3.7420   26.0090 F   0  0  0  0  0  0  0  0  0  0  0  0
  -22.7470  -13.5950   21.1470 C   0  0  0  0  0  0  0  0  0  0  0  0
  -22.0260  -12.9050   22.0250 N   0  0  0  0  0  0  0  0  0  0  0  0
  -22.3100  -14.6220   20.6290 O   0  0  0  0  0  0  0  0  0  0  0  0
  -22.3960  -12.0730   22.4610 H   0  0  0  0  0  0  0  0  0  0  0  0
  -21.0940  -13.2100   22.2640 H   0  0  0  0  0  0  0  0  0  0  0  0
  -25.3740  -15.2480   20.3050 N   0  0  0  0  0  0  0  0  0  0  0  0
  -24.6050  -15.8990   20.4200 H   0  0  0  0  0  0  0  0  0  0  0  0
  -26.2110  -15.6900   19.9490 H   0  0  0  0  0  0  0  0  0  0  0  0
  -28.4920  -25.2270   19.5590 C   0  0  0  0  0  2  0  0  0  0  0  0
  -28.3740  -26.5580   20.1830 O   0  0  0  0  0  0  0  0  0  0  0  0
  -24.6120  -31.8740   23.2350 C   0  0  0  0  0  0  0  0  0  0  0  0
  -27.2110  -27.3360   20.1430 C   0  0  0  0  0  0  0  0  0  0  0  0
  -23.3940  -30.4740   21.6040 C   0  0  0  0  0  3  0  0  0  0  0  0
  -24.8300  -28.9210   20.1690 C   0  0  0  0  0  0  0  0  0  0  0  0
  -25.9280  -30.8000   21.3950 C   0  0  0  0  0  2  0  0  0  0  0  0
  -26.0010  -29.4210   20.7500 C   0  0  0  0  0  0  0  0  0  0  0  0
  -27.1890  -28.6380   20.7300 C   0  0  0  0  0  3  0  0  0  0  0  0
  -26.0110  -26.8730   19.5560 C   0  0  0  0  0  3  0  0  0  0  0  0
  -24.8360  -27.6520   19.5660 C   0  0  0  0  0  3  0  0  0  0  0  0
  -23.5930  -29.7920   20.2240 C   0  0  0  0  0  2  0  0  0  0  0  0
  -24.6640  -31.0680   22.1340 N   0  0  0  0  0  0  0  0  0  0  0  0
  -23.5330  -32.1520   23.7790 O   0  0  0  0  0  0  0  0  0  0  0  0
  -22.7400  -29.4610   22.5730 C   0  0  0  0  0  0  0  0  0  0  0  0
  -21.4140  -29.2810   22.4510 N   0  0  0  0  0  0  0  0  0  0  0  0
  -23.4240  -28.8390   23.3890 O   0  0  0  0  0  0  0  0  0  0  0  0
  -20.9230  -29.8340   21.7640 H   0  0  0  0  0  0  0  0  0  0  0  0
  -18.0460  -28.0670   22.9550 C   0  0  0  0  0  0  0  0  0  0  0  0
  -20.6010  -28.3420   23.2280 C   0  0  0  0  0  3  0  0  0  0  0  0
  -20.7140  -26.9080   22.6600 C   0  0  0  0  0  2  0  0  0  0  0  0
  -19.6150  -26.5690   21.6470 C   0  0  0  0  0  2  0  0  0  0  0  0
  -18.2320  -26.7130   22.2890 C   0  0  0  0  0  2  0  0  0  0  0  0
  -19.1590  -28.8380   23.3810 C   0  0  0  0  0  0  0  0  0  0  0  0
  -18.9320  -30.1030   23.9660 C   0  0  0  0  0  3  0  0  0  0  0  0
  -17.6250  -30.5960   24.1280 C   0  0  0  0  0  3  0  0  0  0  0  0
  -16.5260  -29.8240   23.7170 C   0  0  0  0  0  3  0  0  0  0  0  0
  -16.7370  -28.5590   23.1370 C   0  0  0  0  0  3  0  0  0  0  0  0
  -25.9010  -32.5050   23.8480 C   0  0  0  0  0  3  0  0  0  0  0  0
  -25.5930  -33.9010   24.1880 N   0  0  0  0  0  0  0  0  0  0  0  0
  -25.9170  -34.9590   23.4320 C   0  0  0  0  0  0  0  0  0  0  0  0
  -26.5780  -34.8610   22.3930 O   0  0  0  0  0  0  0  0  0  0  0  0
  -25.0010  -34.0510   24.9920 H   0  0  0  0  0  0  0  0  0  0  0  0
  -24.1800  -36.7500   23.1070 C   0  0  0  0  0  1  0  0  0  0  0  0
  -25.4340  -36.3450   23.9000 C   0  0  0  0  0  3  0  0  0  0  0  0
  -27.5780  -37.2300   24.7030 C   0  0  0  0  0  1  0  0  0  0  0  0
  -26.4630  -37.4010   23.7760 N   0  0  0  0  0  0  0  0  0  0  0  0
  -26.0570  -38.3190   23.9320 H   0  0  0  0  0  0  0  0  0  0  0  0
  -26.4310  -31.7290   25.1170 C   0  0  1  0  0  0  0  0  0  0  0  0
  -25.3490  -31.4890   26.1950 C   0  0  0  0  0  1  0  0  0  0  0  0
  -27.0080  -30.3520   24.7150 C   0  0  0  0  0  1  0  0  0  0  0  0
  -27.5890  -32.5210   25.7690 C   0  0  0  0  0  1  0  0  0  0  0  0
  1  3  1  0
  2  1  1  0
  2  3  1  0
  2  4  1  0
  3 46  1  0
  5  4  2  0
  5  6  1  0
  7 16  1  0
  7  6  1  0
  8 16  1  0
  9 14  1  0
 10 11  1  0
 10  9  1  0
 12 11  1  0
 12 21  1  0
 12 13  1  0
 14  8  1  0
 14 13  1  0
 15  8  2  0
 16 17  1  0
 18 19  2  0
 19 38  1  0
 20 19  1  0
 20 23  1  0
 21 18  1  0
 21 22  1  0
 22 20  2  0
 23 24  1  0
 24 25  2  0
 26 29  1  0
 26 25  1  0
 27 26  2  0
 28 27  1  0
 28 23  2  0
 29 30  1  0
 30 31  1  0
 31 32  2  0
 33 32  1  0
 33 37  1  0
 34 33  2  0
 35 30  2  0
 35 34  1  0
 36 35  1  0
 38 39  1  0
 39 42  1  0
 39 41  1  0
 40 38  2  0
 43 44  1  0
 43 18  1  0
 45 43  1  0
 46 47  1  0
 48 59  2  0
 49 47  1  0
 49 54  1  0
 50 58  1  0
 50 60  1  0
 51 57  1  0
 51 53  1  0
 52 58  1  0
 53 52  1  0
 54 53  2  0
 55 56  1  0
 55 49  2  0
 56 51  2  0
 57 50  1  0
 58 48  1  0
 60 62  2  0
 61 60  1  0
 63 61  1  0
 64 73  2  0
 64 69  1  0
 65 61  1  0
 65 69  1  0
 66 65  1  0
 67 68  1  0
 67 66  1  0
 68 64  1  0
 69 70  2  0
 70 71  1  0
 72 71  2  0
 73 72  1  0
 74 48  1  0
 74 75  1  0
 74 84  1  0
 75 78  1  0
 76 80  1  0
 76 75  1  0
 77 76  2  0
 80 79  1  0
 82 80  1  0
 82 83  1  0
 82 81  1  0
 84 87  1  1
 84 85  1  0
 86 84  1  0
M  ISO  4   8 100  16 100  46 101  47 101
M  END
>  <TORSDO>  (46) 
F 21

>  <SCORE>  (46) 
-13.174

>  <name>  (46) 
45

>  <ligand_id>  (46) 
45

>  <original_smiles>  (46) 
[H]c1c([H])c([H])c2c(c1[H])C([H])([H])C([H])([H])C([H])([H])C2([H])N([H])C(=O)C1([H])N(C(=O)C([H])(N([H])C(=O)C([H])(N([H])C([H])([H])[H])C([H])([H])[H])C(C([H])([H])[H])(C([H])([H])[H])C([H])([H])[H])C([H])([H])c2c([H])c(OC([H])([H])C3([H])C([H])([H])C3([H])C([H])([H])C([H])([H])C([H])([H])C([H])([H])N([H])C(=O)N3C([H])([H])C([H])([H])C([H])([H])C([H])(n4nc(-c5c([H])c([H])c(Oc6c([H])c([H])c(F)c([H])c6F)c([H])c5[H])c(C(=O)N([H])[H])c4N([H])[H])C3([H])[H])c([H])c([H])c2C1([H])[H]

>  <smiles>  (46) 
[H]c1c([H])c([H])c2c(c1[H])C([H])([H])C([H])([H])C([H])([H])C2([H])N([H])C(=O)C1([H])N(C(=O)C([H])(N([H])C(=O)C([H])(N([H])C([H])([H])[H])C([H])([H])[H])C(C([H])([H])[H])(C([H])([H])[H])C([H])([H])[H])C([H])([H])c2c([H])c(OC([H])([H])C3([H])C([H])([H])C3([H])C([H])([H])C([H])([H])C([H])([H])C([H])([H])N([H])C(=O)N3C([H])([H])C([H])([H])C([H])([H])C([H])(n4nc(-c5c([H])c([H])c(Oc6c([H])c([H])c(F)c([H])c6F)c([H])c5[H])c(C(=O)N([H])[H])c4N([H])[H])C3([H])[H])c([H])c([H])c2C1([H])[H]

$$$$
46:0:0
     RDKit          3D

 89 97  0  0  1  0  0  0  0  0999 V2000
  -27.9300  -20.9150   21.1750 C   0  0  0  0  0  2  0  0  0  0  0  0
  -27.8490  -19.6230   20.3360 C   0  0  0  0  0  2  0  0  0  0  0  0
  -29.1730  -21.4370   20.4380 C   0  0  0  0  0  3  0  0  0  0  0  0
  -29.2870  -19.7670   19.8290 C   0  0  0  0  0  3  0  0  0  0  0  0
  -29.0030  -23.0920   19.7900 C   0  0  0  0  0  2  0  0  0  0  0  0
  -28.2320  -24.5590   20.4440 C   0  0  0  0  0  2  0  0  0  0  0  0
  -28.3980  -26.1610   20.2020 O   0  0  0  0  0  0  0  0  0  0  0  0
  -24.6740  -31.9680   23.2330 C   0  0  0  0  0  0  0  0  0  0  0  0
  -27.3360  -27.1930   20.2070 C   0  0  0  0  0  0  0  0  0  0  0  0
  -23.5110  -30.5600   21.5790 C   0  0  0  0  0  3  0  0  0  0  0  0
  -24.9940  -28.9950   20.1610 C   0  0  0  0  0  0  0  0  0  0  0  0
  -26.0690  -30.8330   21.4410 C   0  0  0  0  0  2  0  0  0  0  0  0
  -26.1710  -29.4310   20.7820 C   0  0  0  0  0  0  0  0  0  0  0  0
  -27.3400  -28.5540   20.7760 C   0  0  0  0  0  3  0  0  0  0  0  0
  -26.1250  -26.8920   19.5450 C   0  0  0  0  0  3  0  0  0  0  0  0
  -24.9900  -27.7420   19.5260 C   0  0  0  0  0  3  0  0  0  0  0  0
  -23.7580  -29.8880   20.2020 C   0  0  0  0  0  2  0  0  0  0  0  0
  -24.7710  -31.1460   22.1400 N   0  0  0  0  0  0  0  0  0  0  0  0
  -23.5780  -32.2360   23.7540 O   0  0  0  0  0  0  0  0  0  0  0  0
  -22.8290  -29.5480   22.5350 C   0  0  0  0  0  0  0  0  0  0  0  0
  -21.5070  -29.3450   22.3890 N   0  0  0  0  0  0  0  0  0  0  0  0
  -23.4990  -28.9420   23.3750 O   0  0  0  0  0  0  0  0  0  0  0  0
  -21.0190  -29.8860   21.6880 H   0  0  0  0  0  0  0  0  0  0  0  0
  -18.1530  -28.0350   22.8220 C   0  0  0  0  0  0  0  0  0  0  0  0
  -20.6960  -28.3880   23.1490 C   0  0  0  0  0  3  0  0  0  0  0  0
  -20.8590  -26.9570   22.5860 C   0  0  0  0  0  2  0  0  0  0  0  0
  -19.7930  -26.5890   21.5480 C   0  0  0  0  0  2  0  0  0  0  0  0
  -18.3930  -26.6890   22.1580 C   0  0  0  0  0  2  0  0  0  0  0  0
  -19.2350  -28.8410   23.2720 C   0  0  0  0  0  0  0  0  0  0  0  0
  -18.9550  -30.0950   23.8530 C   0  0  0  0  0  3  0  0  0  0  0  0
  -17.6300  -30.5490   23.9890 C   0  0  0  0  0  3  0  0  0  0  0  0
  -16.5640  -29.7430   23.5540 C   0  0  0  0  0  3  0  0  0  0  0  0
  -16.8270  -28.4880   22.9770 C   0  0  0  0  0  3  0  0  0  0  0  0
  -25.9330  -32.6240   23.8760 C   0  0  0  0  0  3  0  0  0  0  0  0
  -25.6030  -34.0230   24.2000 N   0  0  0  0  0  0  0  0  0  0  0  0
  -25.9390  -35.0820   23.4530 C   0  0  0  0  0  0  0  0  0  0  0  0
  -26.6200  -34.9840   22.4280 O   0  0  0  0  0  0  0  0  0  0  0  0
  -24.9960  -34.1690   24.9940 H   0  0  0  0  0  0  0  0  0  0  0  0
  -24.2070  -36.8690   23.0790 C   0  0  0  0  0  1  0  0  0  0  0  0
  -25.4390  -36.4670   23.9060 C   0  0  0  0  0  3  0  0  0  0  0  0
  -27.5540  -37.3670   24.7740 C   0  0  0  0  0  1  0  0  0  0  0  0
  -26.4680  -37.5260   23.8110 N   0  0  0  0  0  0  0  0  0  0  0  0
  -26.0540  -38.4440   23.9480 H   0  0  0  0  0  0  0  0  0  0  0  0
  -26.4320  -31.8670   25.1700 C   0  0  1  0  0  0  0  0  0  0  0  0
  -25.3190  -31.6160   26.2160 C   0  0  0  0  0  1  0  0  0  0  0  0
  -27.0440  -30.4950   24.8060 C   0  0  0  0  0  1  0  0  0  0  0  0
  -27.5590  -32.6790   25.8500 C   0  0  0  0  0  1  0  0  0  0  0  0
  -30.3170  -18.3240   20.0450 C   0  0  0  0  0  0  0  0  0  0  0  0
  -30.7050  -15.4430   20.0480 C   0  0  0  0  0  0  0  0  0  0  0  0
  -30.6550  -12.9980   19.2200 C   0  0  0  0  0  2  0  0  0  0  0  0
  -29.7270  -12.8010   17.9980 C   0  0  0  0  0  2  0  0  0  0  0  0
  -28.2710  -12.5600   18.4440 C   0  0  0  0  0  2  0  0  0  0  0  0
  -27.8380  -13.5220   19.5840 C   0  0  0  0  0  3  0  0  0  0  0  0
  -28.9040  -13.6480   20.6930 C   0  0  0  0  0  2  0  0  0  0  0  0
  -30.1290  -14.1460   20.0440 N   0  0  0  0  0  0  0  0  0  0  0  0
  -31.9120  -15.4490   19.7710 O   0  0  0  0  0  0  0  0  0  0  0  0
  -29.9620  -16.7130   20.1640 N   0  0  0  0  0  4  0  0  0  0  0  0
  -28.9870  -16.5530   20.3760 H   0  0  0  0  0  0  0  0  0  0  0  0
  -25.4830  -14.0750   20.4020 C   0  0  0  0  0  0  0  0  0  0  0  0
  -24.4300  -13.2940   20.7890 C   0  0  0  0  0  0  0  0  0  0  0  0
  -24.8940  -11.9440   20.7270 C   0  0  0  0  0  0  0  0  0  0  0  0
  -26.5180  -13.2030   20.1170 N   0  0  0  0  0  0  0  0  0  0  0  0
  -26.1770  -11.9120   20.3790 N   0  0  0  0  0  0  0  0  0  0  0  0
  -24.1670  -10.6800   20.9100 C   0  0  0  0  0  0  0  0  0  0  0  0
  -24.5740   -9.7240   21.8660 C   0  0  0  0  0  3  0  0  0  0  0  0
  -23.8450   -8.5270   22.0430 C   0  0  0  0  0  3  0  0  0  0  0  0
  -22.6920   -8.2760   21.2600 C   0  0  0  0  0  0  0  0  0  0  0  0
  -22.3040   -9.2210   20.2930 C   0  0  0  0  0  3  0  0  0  0  0  0
  -23.0340  -10.4080   20.1170 C   0  0  0  0  0  3  0  0  0  0  0  0
  -21.9390   -7.1290   21.3470 O   0  0  0  0  0  0  0  0  0  0  0  0
  -21.8060   -6.4390   22.5260 C   0  0  0  0  0  0  0  0  0  0  0  0
  -21.2560   -7.0360   23.6820 C   0  0  0  0  0  3  0  0  0  0  0  0
  -21.0760   -6.2720   24.8530 C   0  0  0  0  0  3  0  0  0  0  0  0
  -21.4300   -4.9100   24.8640 C   0  0  0  0  0  0  0  0  0  0  0  0
  -21.9680   -4.3090   23.7130 C   0  0  0  0  0  3  0  0  0  0  0  0
  -22.1530   -5.0720   22.5460 C   0  0  0  0  0  0  0  0  0  0  0  0
  -22.6530   -4.4860   21.4330 F   0  0  0  0  0  0  0  0  0  0  0  0
  -21.2480   -4.1720   25.9840 F   0  0  0  0  0  0  0  0  0  0  0  0
  -23.0380  -13.7690   21.0940 C   0  0  0  0  0  0  0  0  0  0  0  0
  -22.3260  -13.0720   21.9750 N   0  0  0  0  0  0  0  0  0  0  0  0
  -22.5920  -14.7990   20.5910 O   0  0  0  0  0  0  0  0  0  0  0  0
  -22.6980  -12.2430   22.4100 H   0  0  0  0  0  0  0  0  0  0  0  0
  -21.3870  -13.3650   22.2020 H   0  0  0  0  0  0  0  0  0  0  0  0
  -25.6470  -15.4460   20.2380 N   0  0  0  0  0  0  0  0  0  0  0  0
  -24.8920  -16.1060   20.3980 H   0  0  0  0  0  0  0  0  0  0  0  0
  -26.4900  -15.8820   19.8850 H   0  0  0  0  0  0  0  0  0  0  0  0
  -31.5290  -18.6460   20.9530 C   0  0  0  0  0  2  0  0  0  0  0  0
  -33.9220  -19.6340   21.0410 C   0  0  0  0  0  1  0  0  0  0  0  0
  -32.7200  -19.2420   20.1690 C   0  0  0  0  0  2  0  0  0  0  0  0
  2  1  1  0
  3  5  1  0
  3  1  1  0
  4 48  1  0
  4  2  1  0
  4  3  1  0
  5  6  1  0
  7  9  1  0
  7  6  1  0
  8 19  2  0
  9 14  1  0
 10 18  1  0
 10 20  1  0
 11 17  1  0
 11 13  1  0
 12 18  1  0
 13 12  1  0
 14 13  2  0
 15  9  2  0
 16 15  1  0
 16 11  2  0
 17 10  1  0
 18  8  1  0
 20 22  2  0
 21 20  1  0
 23 21  1  0
 24 33  2  0
 24 29  1  0
 25 21  1  0
 25 29  1  0
 26 25  1  0
 27 28  1  0
 27 26  1  0
 28 24  1  0
 29 30  2  0
 30 31  1  0
 32 31  2  0
 33 32  1  0
 34  8  1  0
 34 35  1  0
 34 44  1  0
 35 38  1  0
 36 40  1  0
 36 35  1  0
 37 36  2  0
 40 39  1  0
 42 40  1  0
 42 43  1  0
 42 41  1  0
 44 47  1  1
 44 45  1  0
 46 44  1  0
 48 57  2  0
 48 87  1  0
 49 57  1  0
 50 55  1  0
 51 52  1  0
 51 50  1  0
 53 52  1  0
 53 62  1  0
 53 54  1  0
 55 49  1  0
 55 54  1  0
 56 49  2  0
 57 58  1  0
 59 60  2  0
 60 79  1  0
 61 60  1  0
 61 64  1  0
 62 63  1  0
 62 59  1  0
 63 61  2  0
 64 65  1  0
 65 66  2  0
 67 70  1  0
 67 66  1  0
 68 67  2  0
 69 68  1  0
 69 64  2  0
 70 71  1  0
 71 76  2  0
 71 72  1  0
 72 73  2  0
 73 74  1  0
 74 78  1  0
 75 74  2  0
 76 75  1  0
 77 76  1  0
 79 80  1  0
 80 83  1  0
 80 82  1  0
 81 79  2  0
 84 85  1  0
 84 59  1  0
 86 84  1  0
 89 87  1  0
 89 88  1  0
M  ISO  4   6 101   7 101  49 100  57 100
M  END
>  <TORSDO>  (47) 
F 21

>  <SCORE>  (47) 
-14.301

>  <name>  (47) 
46

>  <ligand_id>  (47) 
46

>  <original_smiles>  (47) 
[H]c1c([H])c([H])c2c(c1[H])C([H])([H])C([H])([H])C([H])([H])C2([H])N([H])C(=O)C1([H])N(C(=O)C([H])(N([H])C(=O)C([H])(N([H])C([H])([H])[H])C([H])([H])[H])C(C([H])([H])[H])(C([H])([H])[H])C([H])([H])[H])C([H])([H])c2c([H])c(OC([H])([H])C([H])([H])C3([H])C([H])([H])C([H])([H])C3([H])C([H])(N([H])C(=O)N3C([H])([H])C([H])([H])C([H])([H])C([H])(n4nc(-c5c([H])c([H])c(Oc6c([H])c([H])c(F)c([H])c6F)c([H])c5[H])c(C(=O)N([H])[H])c4N([H])[H])C3([H])[H])C([H])([H])C([H])([H])C([H])([H])[H])c([H])c([H])c2C1([H])[H]

>  <smiles>  (47) 
[H]c1c([H])c([H])c2c(c1[H])C([H])([H])C([H])([H])C([H])([H])C2([H])N([H])C(=O)C1([H])N(C(=O)C([H])(N([H])C(=O)C([H])(N([H])C([H])([H])[H])C([H])([H])[H])C(C([H])([H])[H])(C([H])([H])[H])C([H])([H])[H])C([H])([H])c2c([H])c(OC([H])([H])C([H])([H])C3([H])C([H])([H])C([H])([H])C3([H])C([H])(N([H])C(=O)N3C([H])([H])C([H])([H])C([H])([H])C([H])(n4nc(-c5c([H])c([H])c(Oc6c([H])c([H])c(F)c([H])c6F)c([H])c5[H])c(C(=O)N([H])[H])c4N([H])[H])C3([H])[H])C([H])([H])C([H])([H])C([H])([H])[H])c([H])c([H])c2C1([H])[H]

$$$$
47:0:0
     RDKit          3D

 91 99  0  0  1  0  0  0  0  0999 V2000
  -29.5080  -22.0130   19.3120 C   0  0  0  0  0  2  0  0  0  0  0  0
  -28.2910  -22.6420   20.0010 C   0  0  0  0  0  3  0  0  0  0  0  0
  -28.9600  -20.6490   19.7840 C   0  0  0  0  0  3  0  0  0  0  0  0
  -28.3180  -21.4360   20.8630 N   0  0  0  0  0  4  0  0  0  0  0  0
  -27.4060  -21.1020   21.1380 H   0  0  0  0  0  0  0  0  0  0  0  0
  -28.9200  -21.5520   21.6620 H   0  0  0  0  0  0  0  0  0  0  0  0
  -28.3180  -24.0250   20.7360 C   0  0  0  0  0  3  0  0  0  0  0  0
  -28.6310  -25.2620   19.8320 C   0  0  0  0  0  3  0  0  0  0  0  0
  -28.4600  -26.5640   20.4580 O   0  0  0  0  0  0  0  0  0  0  0  0
  -24.5310  -31.8430   23.2470 C   0  0  0  0  0  0  0  0  0  0  0  0
  -27.2720  -27.2810   20.3720 C   0  0  0  0  0  0  0  0  0  0  0  0
  -23.3780  -30.3920   21.6120 C   0  0  0  0  0  3  0  0  0  0  0  0
  -24.8750  -28.8150   20.2710 C   0  0  0  0  0  0  0  0  0  0  0  0
  -25.9140  -30.7370   21.4840 C   0  0  0  0  0  2  0  0  0  0  0  0
  -26.0190  -29.3490   20.8790 C   0  0  0  0  0  0  0  0  0  0  0  0
  -27.2150  -28.5890   20.9230 C   0  0  0  0  0  3  0  0  0  0  0  0
  -26.1010  -26.7690   19.7650 C   0  0  0  0  0  3  0  0  0  0  0  0
  -24.9150  -27.5280   19.7110 C   0  0  0  0  0  3  0  0  0  0  0  0
  -23.6280  -29.6700   20.2610 C   0  0  0  0  0  2  0  0  0  0  0  0
  -24.6250  -31.0080   22.1720 N   0  0  0  0  0  0  0  0  0  0  0  0
  -23.4340  -32.1290   23.7460 O   0  0  0  0  0  0  0  0  0  0  0  0
  -22.6990  -29.3970   22.5810 C   0  0  0  0  0  0  0  0  0  0  0  0
  -21.3760  -29.2250   22.4310 N   0  0  0  0  0  0  0  0  0  0  0  0
  -23.3620  -28.7800   23.4200 O   0  0  0  0  0  0  0  0  0  0  0  0
  -20.9030  -29.7710   21.7240 H   0  0  0  0  0  0  0  0  0  0  0  0
  -17.9770  -28.1000   22.9150 C   0  0  0  0  0  0  0  0  0  0  0  0
  -20.5370  -28.3070   23.2010 C   0  0  0  0  0  3  0  0  0  0  0  0
  -20.6150  -26.8710   22.6350 C   0  0  0  0  0  2  0  0  0  0  0  0
  -19.5150  -26.5630   21.6160 C   0  0  0  0  0  2  0  0  0  0  0  0
  -18.1320  -26.7420   22.2500 C   0  0  0  0  0  2  0  0  0  0  0  0
  -19.1080  -28.8420   23.3470 C   0  0  0  0  0  0  0  0  0  0  0  0
  -18.9120  -30.1160   23.9250 C   0  0  0  0  0  3  0  0  0  0  0  0
  -17.6160  -30.6450   24.0770 C   0  0  0  0  0  3  0  0  0  0  0  0
  -16.4990  -29.8970   23.6650 C   0  0  0  0  0  3  0  0  0  0  0  0
  -16.6800  -28.6270   23.0890 C   0  0  0  0  0  3  0  0  0  0  0  0
  -25.7950  -32.4950   23.8860 C   0  0  0  0  0  3  0  0  0  0  0  0
  -25.4770  -33.9040   24.1600 N   0  0  0  0  0  0  0  0  0  0  0  0
  -25.8230  -34.9280   23.3690 C   0  0  0  0  0  0  0  0  0  0  0  0
  -26.5090  -34.7880   22.3530 O   0  0  0  0  0  0  0  0  0  0  0  0
  -24.8620  -34.0850   24.9390 H   0  0  0  0  0  0  0  0  0  0  0  0
  -24.0840  -36.6930   22.9360 C   0  0  0  0  0  1  0  0  0  0  0  0
  -25.3250  -36.3310   23.7690 C   0  0  0  0  0  3  0  0  0  0  0  0
  -27.4450  -37.2670   24.5770 C   0  0  0  0  0  1  0  0  0  0  0  0
  -26.3520  -37.3850   23.6170 N   0  0  0  0  0  0  0  0  0  0  0  0
  -25.9380  -38.3070   23.7220 H   0  0  0  0  0  0  0  0  0  0  0  0
  -26.2720  -31.7680   25.2030 C   0  0  1  0  0  0  0  0  0  0  0  0
  -25.1420  -31.5530   26.2380 C   0  0  0  0  0  1  0  0  0  0  0  0
  -26.8750  -30.3850   24.8720 C   0  0  0  0  0  1  0  0  0  0  0  0
  -27.3930  -32.5910   25.8810 C   0  0  0  0  0  1  0  0  0  0  0  0
  -29.9270  -19.4900   20.2190 C   0  0  0  0  0  2  0  0  0  0  0  0
  -28.1550  -17.6980   20.7390 C   0  0  0  0  0  1  0  0  0  0  0  0
  -29.4480  -18.0090   19.9630 C   0  0  0  0  0  3  0  0  0  0  0  0
  -30.5580  -16.9400   20.2760 C   0  0  0  0  0  2  0  0  0  0  0  0
  -30.7870  -14.4390   19.9140 C   0  0  0  0  0  0  0  0  0  0  0  0
  -30.4240  -12.2050   18.9200 C   0  0  0  0  0  2  0  0  0  0  0  0
  -29.4070  -12.3360   17.7660 C   0  0  0  0  0  2  0  0  0  0  0  0
  -27.9650  -12.2190   18.2980 C   0  0  0  0  0  2  0  0  0  0  0  0
  -27.7060  -13.1320   19.5260 C   0  0  0  0  0  3  0  0  0  0  0  0
  -28.8300  -12.9870   20.5760 C   0  0  0  0  0  2  0  0  0  0  0  0
  -30.1100  -13.2550   19.9050 N   0  0  0  0  0  0  0  0  0  0  0  0
  -31.9020  -14.5610   19.4020 O   0  0  0  0  0  0  0  0  0  0  0  0
  -30.1000  -15.5250   20.3490 N   0  0  0  0  0  0  0  0  0  0  0  0
  -29.1860  -15.3560   20.7360 H   0  0  0  0  0  0  0  0  0  0  0  0
  -25.4050  -13.8080   20.4520 C   0  0  0  0  0  0  0  0  0  0  0  0
  -24.3370  -13.0680   20.8800 C   0  0  0  0  0  0  0  0  0  0  0  0
  -24.7340  -11.7010   20.7660 C   0  0  0  0  0  0  0  0  0  0  0  0
  -26.3870  -12.8930   20.1050 N   0  0  0  0  0  0  0  0  0  0  0  0
  -25.9930  -11.6180   20.3520 N   0  0  0  0  0  0  0  0  0  0  0  0
  -23.9690  -10.4620   20.9710 C   0  0  0  0  0  0  0  0  0  0  0  0
  -24.4130   -9.4580   21.8600 C   0  0  0  0  0  3  0  0  0  0  0  0
  -23.6510   -8.2850   22.0540 C   0  0  0  0  0  3  0  0  0  0  0  0
  -22.4310   -8.1080   21.3570 C   0  0  0  0  0  0  0  0  0  0  0  0
  -22.0050   -9.1000   20.4560 C   0  0  0  0  0  3  0  0  0  0  0  0
  -22.7680  -10.2640   20.2620 C   0  0  0  0  0  3  0  0  0  0  0  0
  -21.6370   -6.9900   21.4640 O   0  0  0  0  0  0  0  0  0  0  0  0
  -21.5970   -6.2420   22.6140 C   0  0  0  0  0  0  0  0  0  0  0  0
  -21.2020   -6.7970   23.8510 C   0  0  0  0  0  3  0  0  0  0  0  0
  -21.1090   -5.9760   24.9930 C   0  0  0  0  0  3  0  0  0  0  0  0
  -21.3990   -4.6020   24.8970 C   0  0  0  0  0  0  0  0  0  0  0  0
  -21.7860   -4.0470   23.6650 C   0  0  0  0  0  3  0  0  0  0  0  0
  -21.8820   -4.8660   22.5260 C   0  0  0  0  0  0  0  0  0  0  0  0
  -22.2350   -4.3210   21.3360 F   0  0  0  0  0  0  0  0  0  0  0  0
  -21.3020   -3.8120   25.9920 F   0  0  0  0  0  0  0  0  0  0  0  0
  -22.9870  -13.5930   21.2790 C   0  0  0  0  0  0  0  0  0  0  0  0
  -22.3000  -12.9030   22.1820 N   0  0  0  0  0  0  0  0  0  0  0  0
  -22.5530  -14.6500   20.8210 O   0  0  0  0  0  0  0  0  0  0  0  0
  -22.6610  -12.0480   22.5790 H   0  0  0  0  0  0  0  0  0  0  0  0
  -21.3980  -13.2400   22.4870 H   0  0  0  0  0  0  0  0  0  0  0  0
  -25.6180  -15.1760   20.3060 N   0  0  0  0  0  0  0  0  0  0  0  0
  -24.8910  -15.8570   20.4880 H   0  0  0  0  0  0  0  0  0  0  0  0
  -26.4520  -15.5860   19.9090 H   0  0  0  0  0  0  0  0  0  0  0  0
  1  3  1  0
  1  2  1  0
  2  7  1  0
  2  4  1  0
  3 50  1  0
  3  4  1  0
  4  5  1  0
  4  6  1  0
  8  9  1  0
  8  7  2  0
 10 21  2  0
 11  9  1  0
 11 16  1  0
 12 20  1  0
 12 22  1  0
 13 15  1  0
 14 20  1  0
 15 16  2  0
 15 14  1  0
 17 11  2  0
 18 17  1  0
 18 13  2  0
 19 13  1  0
 19 12  1  0
 20 10  1  0
 22 24  2  0
 23 22  1  0
 25 23  1  0
 26 35  2  0
 26 31  1  0
 27 23  1  0
 27 31  1  0
 28 27  1  0
 29 30  1  0
 29 28  1  0
 30 26  1  0
 31 32  2  0
 32 33  1  0
 34 33  2  0
 35 34  1  0
 36 10  1  0
 36 37  1  0
 36 46  1  0
 37 40  1  0
 38 42  1  0
 38 37  1  0
 39 38  2  0
 42 41  1  0
 44 45  1  0
 44 42  1  0
 44 43  1  0
 46 49  1  1
 46 47  1  0
 48 46  1  0
 52 50  1  0
 52 53  1  0
 52 51  1  0
 53 62  1  0
 54 62  1  0
 55 60  1  0
 56 57  1  0
 56 55  1  0
 58 57  1  0
 58 67  1  0
 58 59  1  0
 60 54  1  0
 60 59  1  0
 61 54  2  0
 62 63  1  0
 64 65  2  0
 65 84  1  0
 66 65  1  0
 66 69  1  0
 67 68  1  0
 67 64  1  0
 68 66  2  0
 69 70  1  0
 70 71  2  0
 72 75  1  0
 72 71  1  0
 73 72  2  0
 74 73  1  0
 74 69  2  0
 75 76  1  0
 76 77  1  0
 77 78  2  0
 79 78  1  0
 79 83  1  0
 80 79  2  0
 81 76  2  0
 81 80  1  0
 82 81  1  0
 84 85  1  0
 85 88  1  0
 85 87  1  0
 86 84  2  0
 89 64  1  0
 89 90  1  0
 91 89  1  0
M  ISO  4   8 101   9 101  54 100  62 100
M  END
>  <TORSDO>  (48) 
F 21

>  <SCORE>  (48) 
-12.965

>  <name>  (48) 
47

>  <ligand_id>  (48) 
47

>  <original_smiles>  (48) 
[H]c1c([H])c([H])c2c(c1[H])C([H])([H])C([H])([H])C([H])([H])C2([H])N([H])C(=O)C1([H])N(C(=O)C([H])(N([H])C(=O)C([H])(N([H])C([H])([H])[H])C([H])([H])[H])C(C([H])([H])[H])(C([H])([H])[H])C([H])([H])[H])C([H])([H])c2c([H])c(OC([H])([H])C([H])([H])C3([H])C([H])([H])C([H])(C([H])([H])C([H])(C([H])([H])[H])C([H])([H])N([H])C(=O)N4C([H])([H])C([H])([H])C([H])([H])C([H])(n5nc(-c6c([H])c([H])c(Oc7c([H])c([H])c(F)c([H])c7F)c([H])c6[H])c(C(=O)N([H])[H])c5N([H])[H])C4([H])[H])[N+]3([H])[H])c([H])c([H])c2C1([H])[H]

>  <smiles>  (48) 
[H]c1c([H])c([H])c2c(c1[H])C([H])([H])C([H])([H])C([H])([H])C2([H])N([H])C(=O)C1([H])N(C(=O)C([H])(N([H])C(=O)C([H])(N([H])C([H])([H])[H])C([H])([H])[H])C(C([H])([H])[H])(C([H])([H])[H])C([H])([H])[H])C([H])([H])c2c([H])c(OC([H])([H])C([H])([H])C3([H])C([H])([H])C([H])(C([H])([H])C([H])(C([H])([H])[H])C([H])([H])N([H])C(=O)N4C([H])([H])C([H])([H])C([H])([H])C([H])(n5nc(-c6c([H])c([H])c(Oc7c([H])c([H])c(F)c([H])c7F)c([H])c6[H])c(C(=O)N([H])[H])c5N([H])[H])C4([H])[H])[N+]3([H])[H])c([H])c([H])c2C1([H])[H]

$$$$
48:0:0
     RDKit          3D

 92100  0  0  1  0  0  0  0  0999 V2000
  -28.1880  -19.7620   20.7380 C   0  0  0  0  0  2  0  0  0  0  0  0
  -27.6540  -21.2450   20.5250 C   0  0  0  0  0  2  0  0  0  0  0  0
  -29.0850  -19.3370   19.5470 C   0  0  0  0  0  3  0  0  0  0  0  0
  -29.5620  -20.8880   19.2220 C   0  0  0  0  0  3  0  0  0  0  0  0
  -30.1600  -21.0040   17.8140 C   0  0  0  0  0  1  0  0  0  0  0  0
  -28.4350  -21.9370   19.4590 N   0  0  2  0  0  4  0  0  0  0  0  0
  -27.8560  -21.8610   18.6350 H   0  0  0  0  0  0  0  0  0  0  0  0
  -28.7150  -23.5120   19.6200 C   0  0  0  0  0  3  0  0  0  0  0  0
  -27.5750  -24.7560   19.4190 C   0  0  0  0  0  3  0  0  0  0  0  0
  -27.8070  -26.3100   19.4890 O   0  0  0  0  0  0  0  0  0  0  0  0
  -24.3720  -31.7830   23.0740 C   0  0  0  0  0  0  0  0  0  0  0  0
  -26.7300  -27.2760   19.5670 C   0  0  0  0  0  0  0  0  0  0  0  0
  -23.0450  -30.4480   21.4830 C   0  0  0  0  0  3  0  0  0  0  0  0
  -24.3780  -28.9780   19.8440 C   0  0  0  0  0  0  0  0  0  0  0  0
  -25.5670  -30.7750   21.0900 C   0  0  0  0  0  2  0  0  0  0  0  0
  -25.6030  -29.4180   20.3610 C   0  0  0  0  0  0  0  0  0  0  0  0
  -26.7760  -28.5840   20.2030 C   0  0  0  0  0  3  0  0  0  0  0  0
  -25.4690  -26.9430   19.0210 C   0  0  0  0  0  3  0  0  0  0  0  0
  -24.3230  -27.7560   19.1580 C   0  0  0  0  0  3  0  0  0  0  0  0
  -23.1450  -29.8470   20.0550 C   0  0  0  0  0  2  0  0  0  0  0  0
  -24.3530  -31.0200   21.9370 N   0  0  0  0  0  0  0  0  0  0  0  0
  -23.3370  -32.0160   23.7170 O   0  0  0  0  0  0  0  0  0  0  0  0
  -22.4770  -29.3780   22.4500 C   0  0  0  0  0  0  0  0  0  0  0  0
  -21.1690  -29.0840   22.3420 N   0  0  0  0  0  0  0  0  0  0  0  0
  -23.2150  -28.8130   23.2610 O   0  0  0  0  0  0  0  0  0  0  0  0
  -20.6230  -29.5980   21.6640 H   0  0  0  0  0  0  0  0  0  0  0  0
  -17.9670  -27.4400   22.7550 C   0  0  0  0  0  0  0  0  0  0  0  0
  -20.4500  -28.0710   23.1180 C   0  0  0  0  0  3  0  0  0  0  0  0
  -20.7750  -26.6440   22.6140 C   0  0  0  0  0  2  0  0  0  0  0  0
  -19.7790  -26.1310   21.5690 C   0  0  0  0  0  2  0  0  0  0  0  0
  -18.3610  -26.1040   22.1470 C   0  0  0  0  0  2  0  0  0  0  0  0
  -18.9470  -28.3700   23.1950 C   0  0  0  0  0  0  0  0  0  0  0  0
  -18.5270  -29.6100   23.7220 C   0  0  0  0  0  3  0  0  0  0  0  0
  -17.1580  -29.9270   23.8150 C   0  0  0  0  0  3  0  0  0  0  0  0
  -16.1920  -28.9980   23.3910 C   0  0  0  0  0  3  0  0  0  0  0  0
  -16.5970  -27.7570   22.8650 C   0  0  0  0  0  3  0  0  0  0  0  0
  -25.6920  -32.4130   23.6110 C   0  0  0  0  0  3  0  0  0  0  0  0
  -25.3940  -33.7920   24.0270 N   0  0  0  0  0  0  0  0  0  0  0  0
  -25.6860  -34.8870   23.3120 C   0  0  0  0  0  0  0  0  0  0  0  0
  -26.3020  -34.8420   22.2430 O   0  0  0  0  0  0  0  0  0  0  0  0
  -24.8410  -33.9020   24.8640 H   0  0  0  0  0  0  0  0  0  0  0  0
  -23.9420  -36.6970   23.1450 C   0  0  0  0  0  1  0  0  0  0  0  0
  -25.2230  -36.2490   23.8680 C   0  0  0  0  0  3  0  0  0  0  0  0
  -27.3960  -37.0960   24.6370 C   0  0  0  0  0  1  0  0  0  0  0  0
  -26.2480  -37.3090   23.7610 N   0  0  0  0  0  0  0  0  0  0  0  0
  -25.8490  -38.2180   23.9810 H   0  0  0  0  0  0  0  0  0  0  0  0
  -26.3230  -31.6030   24.8120 C   0  0  1  0  0  0  0  0  0  0  0  0
  -25.3200  -31.2970   25.9500 C   0  0  0  0  0  1  0  0  0  0  0  0
  -26.9040  -30.2560   24.3230 C   0  0  0  0  0  1  0  0  0  0  0  0
  -27.5040  -32.3980   25.4160 C   0  0  0  0  0  1  0  0  0  0  0  0
  -30.1490  -17.9980   19.7000 C   0  0  0  0  0  3  0  0  0  0  0  0
  -30.5260  -15.2400   19.7680 C   0  0  0  0  0  0  0  0  0  0  0  0
  -30.4590  -12.7770   19.1420 C   0  0  0  0  0  2  0  0  0  0  0  0
  -29.5120  -12.5220   17.9470 C   0  0  0  0  0  2  0  0  0  0  0  0
  -28.0700  -12.3060   18.4360 C   0  0  0  0  0  2  0  0  0  0  0  0
  -27.6400  -13.3640   19.4840 C   0  0  0  0  0  3  0  0  0  0  0  0
  -28.7110  -13.5890   20.5740 C   0  0  0  0  0  2  0  0  0  0  0  0
  -29.9520  -13.9690   19.8860 N   0  0  0  0  0  0  0  0  0  0  0  0
  -31.7150  -15.2690   19.4380 O   0  0  0  0  0  0  0  0  0  0  0  0
  -29.7620  -16.4500   19.8330 N   0  0  0  0  0  0  0  0  0  0  0  0
  -28.7890  -16.2910   20.0470 H   0  0  0  0  0  0  0  0  0  0  0  0
  -25.3130  -13.9620   20.3610 C   0  0  0  0  0  0  0  0  0  0  0  0
  -24.2550  -13.1970   20.7670 C   0  0  0  0  0  0  0  0  0  0  0  0
  -24.6920  -11.8380   20.6780 C   0  0  0  0  0  0  0  0  0  0  0  0
  -26.3260  -13.0720   20.0470 N   0  0  0  0  0  0  0  0  0  0  0  0
  -25.9660  -11.7880   20.3030 N   0  0  0  0  0  0  0  0  0  0  0  0
  -23.9510  -10.5850   20.8720 C   0  0  0  0  0  0  0  0  0  0  0  0
  -24.3770   -9.6100   21.8020 C   0  0  0  0  0  3  0  0  0  0  0  0
  -23.6350   -8.4230   21.9860 C   0  0  0  0  0  3  0  0  0  0  0  0
  -22.4530   -8.2020   21.2390 C   0  0  0  0  0  0  0  0  0  0  0  0
  -22.0460   -9.1650   20.2990 C   0  0  0  0  0  3  0  0  0  0  0  0
  -22.7890  -10.3420   20.1140 C   0  0  0  0  0  3  0  0  0  0  0  0
  -21.6820   -7.0680   21.3320 O   0  0  0  0  0  0  0  0  0  0  0  0
  -21.6030   -6.3460   22.4960 C   0  0  0  0  0  0  0  0  0  0  0  0
  -21.1410   -6.9210   23.6990 C   0  0  0  0  0  3  0  0  0  0  0  0
  -21.0070   -6.1260   24.8550 C   0  0  0  0  0  3  0  0  0  0  0  0
  -21.3280   -4.7560   24.8090 C   0  0  0  0  0  0  0  0  0  0  0  0
  -21.7820   -4.1800   23.6100 C   0  0  0  0  0  3  0  0  0  0  0  0
  -21.9170   -4.9730   22.4570 C   0  0  0  0  0  0  0  0  0  0  0  0
  -22.3360   -4.4080   21.2980 F   0  0  0  0  0  0  0  0  0  0  0  0
  -21.1940   -3.9900   25.9160 F   0  0  0  0  0  0  0  0  0  0  0  0
  -22.8830  -13.6910   21.1190 C   0  0  0  0  0  0  0  0  0  0  0  0
  -22.1920  -12.9930   22.0140 N   0  0  0  0  0  0  0  0  0  0  0  0
  -22.4350  -14.7300   20.6370 O   0  0  0  0  0  0  0  0  0  0  0  0
  -22.5700  -12.1520   22.4250 H   0  0  0  0  0  0  0  0  0  0  0  0
  -21.2720  -13.3050   22.2930 H   0  0  0  0  0  0  0  0  0  0  0  0
  -25.4920  -15.3340   20.2080 N   0  0  0  0  0  0  0  0  0  0  0  0
  -24.7390  -15.9950   20.3680 H   0  0  0  0  0  0  0  0  0  0  0  0
  -26.3190  -15.7650   19.8150 H   0  0  0  0  0  0  0  0  0  0  0  0
  -31.1840  -18.3500   20.8040 C   0  0  0  0  0  2  0  0  0  0  0  0
  -33.5720  -19.2100   21.1610 C   0  0  0  0  0  1  0  0  0  0  0  0
  -32.6650  -18.2370   20.3940 C   0  0  0  0  0  2  0  0  0  0  0  0
  2  1  1  0
  3 51  1  0
  3  1  1  0
  4  5  1  0
  4  6  1  0
  4  3  1  0
  6  8  1  0
  6  2  1  0
  6  7  1  6
  9 10  1  0
  9  8  2  0
 10 12  1  0
 11 22  2  0
 12 17  1  0
 13 21  1  0
 13 23  1  0
 14 20  1  0
 14 16  1  0
 15 21  1  0
 16 15  1  0
 17 16  2  0
 18 19  1  0
 18 12  2  0
 19 14  2  0
 20 13  1  0
 21 11  1  0
 23 25  2  0
 24 23  1  0
 26 24  1  0
 27 36  2  0
 27 32  1  0
 28 24  1  0
 28 32  1  0
 29 28  1  0
 30 31  1  0
 30 29  1  0
 31 27  1  0
 32 33  2  0
 33 34  1  0
 35 34  2  0
 36 35  1  0
 37 11  1  0
 37 38  1  0
 37 47  1  0
 38 41  1  0
 39 43  1  0
 39 38  1  0
 40 39  2  0
 43 42  1  0
 45 43  1  0
 45 46  1  0
 45 44  1  0
 47 50  1  1
 47 48  1  0
 49 47  1  0
 51 60  1  0
 51 90  1  0
 52 60  1  0
 52 58  1  0
 53 58  1  0
 54 55  1  0
 54 53  1  0
 56 55  1  0
 56 65  1  0
 56 57  1  0
 58 57  1  0
 59 52  2  0
 60 61  1  0
 62 63  2  0
 63 82  1  0
 64 63  1  0
 64 67  1  0
 65 66  1  0
 65 62  1  0
 66 64  2  0
 67 68  1  0
 68 69  2  0
 70 73  1  0
 70 69  1  0
 71 70  2  0
 72 71  1  0
 72 67  2  0
 73 74  1  0
 74 75  1  0
 75 76  2  0
 77 76  1  0
 77 81  1  0
 78 77  2  0
 79 74  2  0
 79 78  1  0
 80 79  1  0
 82 83  1  0
 83 86  1  0
 83 85  1  0
 84 82  2  0
 87 62  1  0
 87 88  1  0
 89 87  1  0
 92 90  1  0
 92 91  1  0
M  ISO  4   9 101  10 101  52 100  60 100
M  END
>  <TORSDO>  (49) 
F 21

>  <SCORE>  (49) 
-13.830

>  <name>  (49) 
48

>  <ligand_id>  (49) 
48

>  <original_smiles>  (49) 
[H]c1c([H])c([H])c2c(c1[H])C([H])([H])C([H])([H])C([H])([H])C2([H])N([H])C(=O)C1([H])N(C(=O)C([H])(N([H])C(=O)C([H])(N([H])C([H])([H])[H])C([H])([H])[H])C(C([H])([H])[H])(C([H])([H])[H])C([H])([H])[H])C([H])([H])c2c([H])c(OC([H])([H])C([H])([H])[N+]3([H])C([H])([H])C([H])([H])C([H])(C([H])(N([H])C(=O)N4C([H])([H])C([H])([H])C([H])([H])C([H])(n5nc(-c6c([H])c([H])c(Oc7c([H])c([H])c(F)c([H])c7F)c([H])c6[H])c(C(=O)N([H])[H])c5N([H])[H])C4([H])[H])C([H])([H])C([H])([H])C([H])([H])[H])C3([H])C([H])([H])[H])c([H])c([H])c2C1([H])[H]

>  <smiles>  (49) 
[H]c1c([H])c([H])c2c(c1[H])C([H])([H])C([H])([H])C([H])([H])C2([H])N([H])C(=O)C1([H])N(C(=O)C([H])(N([H])C(=O)C([H])(N([H])C([H])([H])[H])C([H])([H])[H])C(C([H])([H])[H])(C([H])([H])[H])C([H])([H])[H])C([H])([H])c2c([H])c(OC([H])([H])C([H])([H])[N+]3([H])C([H])([H])C([H])([H])C([H])(C([H])(N([H])C(=O)N4C([H])([H])C([H])([H])C([H])([H])C([H])(n5nc(-c6c([H])c([H])c(Oc7c([H])c([H])c(F)c([H])c7F)c([H])c6[H])c(C(=O)N([H])[H])c5N([H])[H])C4([H])[H])C([H])([H])C([H])([H])C([H])([H])[H])C3([H])C([H])([H])[H])c([H])c([H])c2C1([H])[H]

$$$$
49:0:0
     RDKit          3D

 90 99  0  0  1  0  0  0  0  0999 V2000
  -28.8940  -22.8460   21.9120 C   0  0  0  0  0  2  0  0  0  0  0  0
  -28.5360  -21.4960   20.3110 C   0  0  0  0  0  3  0  0  0  0  0  0
  -28.8660  -23.1760   20.4160 C   0  0  0  0  0  3  0  0  0  0  0  0
  -28.0900  -21.6350   21.6860 N   0  0  0  0  0  4  0  0  0  0  0  0
  -27.1020  -21.8190   21.7280 H   0  0  0  0  0  0  0  0  0  0  0  0
  -28.3490  -20.8610   22.2760 H   0  0  0  0  0  0  0  0  0  0  0  0
  -29.5950  -20.1770   20.2760 C   0  0  0  0  0  0  0  0  0  0  0  0
  -30.7970  -20.4310   20.1610 O   0  0  0  0  0  0  0  0  0  0  0  0
  -30.4660  -15.0710   20.2320 C   0  0  0  0  0  0  0  0  0  0  0  0
  -30.3470  -12.7030   19.2930 C   0  0  0  0  0  2  0  0  0  0  0  0
  -29.3990  -12.6180   18.0740 C   0  0  0  0  0  2  0  0  0  0  0  0
  -27.9430  -12.3990   18.5270 C   0  0  0  0  0  2  0  0  0  0  0  0
  -27.5430  -13.3280   19.7030 C   0  0  0  0  0  3  0  0  0  0  0  0
  -28.6150  -13.3690   20.8120 C   0  0  0  0  0  2  0  0  0  0  0  0
  -29.8630  -13.8060   20.1780 N   0  0  0  0  0  0  0  0  0  0  0  0
  -31.6700  -15.1050   19.9470 O   0  0  0  0  0  0  0  0  0  0  0  0
  -30.0660  -17.4950   21.2620 C   0  0  0  0  0  2  0  0  0  0  0  0
  -29.5590  -17.4170   19.3520 C   0  0  0  0  0  2  0  0  0  0  0  0
  -29.1810  -18.5400   20.4290 C   0  0  0  0  0  3  0  0  0  0  0  0
  -29.7140  -16.2960   20.3840 N   0  0  0  0  0  0  0  0  0  0  0  0
  -25.1770  -13.8910   20.4870 C   0  0  0  0  0  0  0  0  0  0  0  0
  -24.1200  -13.1090   20.8650 C   0  0  0  0  0  0  0  0  0  0  0  0
  -24.5880  -11.7610   20.8180 C   0  0  0  0  0  0  0  0  0  0  0  0
  -26.2180  -13.0180   20.2240 N   0  0  0  0  0  0  0  0  0  0  0  0
  -25.8750  -11.7310   20.4900 N   0  0  0  0  0  0  0  0  0  0  0  0
  -23.8650  -10.4950   21.0060 C   0  0  0  0  0  0  0  0  0  0  0  0
  -24.2940   -9.5310   21.9460 C   0  0  0  0  0  3  0  0  0  0  0  0
  -23.5700   -8.3330   22.1240 C   0  0  0  0  0  3  0  0  0  0  0  0
  -22.4030   -8.0880   21.3610 C   0  0  0  0  0  0  0  0  0  0  0  0
  -21.9940   -9.0400   20.4100 C   0  0  0  0  0  3  0  0  0  0  0  0
  -22.7180  -10.2300   20.2300 C   0  0  0  0  0  3  0  0  0  0  0  0
  -21.6510   -6.9420   21.4480 O   0  0  0  0  0  0  0  0  0  0  0  0
  -21.5750   -6.2170   22.6100 C   0  0  0  0  0  0  0  0  0  0  0  0
  -21.1030   -6.7860   23.8130 C   0  0  0  0  0  3  0  0  0  0  0  0
  -20.9760   -5.9860   24.9680 C   0  0  0  0  0  3  0  0  0  0  0  0
  -21.3110   -4.6190   24.9180 C   0  0  0  0  0  0  0  0  0  0  0  0
  -21.7760   -4.0520   23.7180 C   0  0  0  0  0  3  0  0  0  0  0  0
  -21.9040   -4.8480   22.5680 C   0  0  0  0  0  0  0  0  0  0  0  0
  -22.3330   -4.2900   21.4090 F   0  0  0  0  0  0  0  0  0  0  0  0
  -21.1810   -3.8480   26.0220 F   0  0  0  0  0  0  0  0  0  0  0  0
  -22.7270  -13.5830   21.1550 C   0  0  0  0  0  0  0  0  0  0  0  0
  -22.0070  -12.8820   22.0250 N   0  0  0  0  0  0  0  0  0  0  0  0
  -22.2830  -14.6110   20.6450 O   0  0  0  0  0  0  0  0  0  0  0  0
  -22.3760  -12.0510   22.4630 H   0  0  0  0  0  0  0  0  0  0  0  0
  -21.0710  -13.1830   22.2570 H   0  0  0  0  0  0  0  0  0  0  0  0
  -25.3370  -15.2640   20.3210 N   0  0  0  0  0  0  0  0  0  0  0  0
  -24.5730  -15.9160   20.4600 H   0  0  0  0  0  0  0  0  0  0  0  0
  -26.1890  -15.7070   20.0030 H   0  0  0  0  0  0  0  0  0  0  0  0
  -27.9530  -24.5730   20.0060 C   0  0  0  0  0  2  0  0  0  0  0  0
  -28.2150  -26.1130   20.2760 O   0  0  0  0  0  0  0  0  0  0  0  0
  -24.6390  -31.8850   23.2590 C   0  0  0  0  0  0  0  0  0  0  0  0
  -27.1800  -27.1340   20.2030 C   0  0  0  0  0  0  0  0  0  0  0  0
  -23.4290  -30.5020   21.6180 C   0  0  0  0  0  3  0  0  0  0  0  0
  -24.8670  -28.9230   20.1800 C   0  0  0  0  0  0  0  0  0  0  0  0
  -25.9870  -30.7460   21.4480 C   0  0  0  0  0  2  0  0  0  0  0  0
  -26.0520  -29.3510   20.7890 C   0  0  0  0  0  0  0  0  0  0  0  0
  -27.2070  -28.4740   20.7820 C   0  0  0  0  0  3  0  0  0  0  0  0
  -25.9690  -26.8230   19.5450 C   0  0  0  0  0  3  0  0  0  0  0  0
  -24.8410  -27.6740   19.5400 C   0  0  0  0  0  3  0  0  0  0  0  0
  -23.6420  -29.8270   20.2360 C   0  0  0  0  0  2  0  0  0  0  0  0
  -24.7050  -31.0670   22.1630 N   0  0  0  0  0  0  0  0  0  0  0  0
  -23.5550  -32.1730   23.7900 O   0  0  0  0  0  0  0  0  0  0  0  0
  -22.7470  -29.4950   22.5800 C   0  0  0  0  0  0  0  0  0  0  0  0
  -21.4190  -29.3250   22.4520 N   0  0  0  0  0  0  0  0  0  0  0  0
  -23.4180  -28.8690   23.4040 O   0  0  0  0  0  0  0  0  0  0  0  0
  -20.9330  -29.8820   21.7640 H   0  0  0  0  0  0  0  0  0  0  0  0
  -18.0370  -28.1170   22.9460 C   0  0  0  0  0  0  0  0  0  0  0  0
  -20.5970  -28.3880   23.2230 C   0  0  0  0  0  3  0  0  0  0  0  0
  -20.7020  -26.9540   22.6520 C   0  0  0  0  0  2  0  0  0  0  0  0
  -19.6060  -26.6260   21.6350 C   0  0  0  0  0  2  0  0  0  0  0  0
  -18.2210  -26.7680   22.2730 C   0  0  0  0  0  2  0  0  0  0  0  0
  -19.1520  -28.8840   23.3780 C   0  0  0  0  0  0  0  0  0  0  0  0
  -18.9260  -30.1460   23.9710 C   0  0  0  0  0  3  0  0  0  0  0  0
  -17.6190  -30.6400   24.1350 C   0  0  0  0  0  3  0  0  0  0  0  0
  -16.5190  -29.8710   23.7180 C   0  0  0  0  0  3  0  0  0  0  0  0
  -16.7290  -28.6110   23.1300 C   0  0  0  0  0  3  0  0  0  0  0  0
  -25.9200  -32.5170   23.8860 C   0  0  0  0  0  3  0  0  0  0  0  0
  -25.6130  -33.9170   24.2220 N   0  0  0  0  0  0  0  0  0  0  0  0
  -25.9240  -34.9730   23.4590 C   0  0  0  0  0  0  0  0  0  0  0  0
  -26.5660  -34.8710   22.4090 O   0  0  0  0  0  0  0  0  0  0  0  0
  -25.0360  -34.0680   25.0370 H   0  0  0  0  0  0  0  0  0  0  0  0
  -24.1740  -36.7610   23.1770 C   0  0  0  0  0  1  0  0  0  0  0  0
  -25.4510  -36.3620   23.9340 C   0  0  0  0  0  3  0  0  0  0  0  0
  -27.6140  -37.2650   24.6700 C   0  0  0  0  0  1  0  0  0  0  0  0
  -26.4720  -37.4200   23.7720 N   0  0  0  0  0  0  0  0  0  0  0  0
  -26.0680  -38.3390   23.9300 H   0  0  0  0  0  0  0  0  0  0  0  0
  -26.4270  -31.7440   25.1650 C   0  0  1  0  0  0  0  0  0  0  0  0
  -25.3300  -31.5150   26.2320 C   0  0  0  0  0  1  0  0  0  0  0  0
  -27.0020  -30.3610   24.7820 C   0  0  0  0  0  1  0  0  0  0  0  0
  -27.5810  -32.5330   25.8290 C   0  0  0  0  0  1  0  0  0  0  0  0
  2  7  1  0
  2  3  1  0
  2  4  1  0
  3 49  1  0
  3  1  1  0
  4  5  1  0
  4  1  1  0
  4  6  1  0
  8  7  2  0
  9 20  1  0
 10 15  1  0
 11 12  1  0
 11 10  1  0
 13 12  1  0
 13 24  1  0
 13 14  1  0
 15  9  1  0
 15 14  1  0
 16  9  2  0
 18 20  1  0
 18 19  1  0
 19  7  1  0
 19 17  1  0
 20 17  1  0
 21 22  2  0
 22 41  1  0
 23 22  1  0
 23 26  1  0
 24 21  1  0
 24 25  1  0
 25 23  2  0
 26 27  1  0
 27 28  2  0
 29 32  1  0
 29 28  1  0
 30 29  2  0
 31 30  1  0
 31 26  2  0
 32 33  1  0
 33 34  1  0
 34 35  2  0
 36 35  1  0
 36 40  1  0
 37 36  2  0
 38 33  2  0
 38 37  1  0
 39 38  1  0
 41 42  1  0
 42 45  1  0
 42 44  1  0
 43 41  2  0
 46 47  1  0
 46 21  1  0
 48 46  1  0
 49 50  1  0
 51 62  2  0
 52 50  1  0
 52 57  1  0
 53 61  1  0
 53 63  1  0
 54 60  1  0
 54 56  1  0
 55 61  1  0
 56 55  1  0
 57 56  2  0
 58 52  2  0
 59 58  1  0
 59 54  2  0
 60 53  1  0
 61 51  1  0
 63 65  2  0
 64 63  1  0
 66 64  1  0
 67 76  2  0
 67 72  1  0
 68 64  1  0
 68 72  1  0
 69 68  1  0
 70 71  1  0
 70 69  1  0
 71 67  1  0
 72 73  2  0
 73 74  1  0
 75 74  2  0
 76 75  1  0
 77 51  1  0
 77 78  1  0
 77 87  1  0
 78 81  1  0
 79 83  1  0
 79 78  1  0
 80 79  2  0
 83 82  1  0
 85 86  1  0
 85 83  1  0
 85 84  1  0
 87 90  1  1
 87 88  1  0
 89 87  1  0
M  ISO  4   9 100  20 100  49 101  50 101
M  END
>  <TORSDO>  (50) 
F 18

>  <SCORE>  (50) 
-15.914

>  <name>  (50) 
49

>  <ligand_id>  (50) 
49

>  <original_smiles>  (50) 
[H]c1c([H])c([H])c2c(c1[H])C([H])([H])C([H])([H])C([H])([H])C2([H])N([H])C(=O)C1([H])N(C(=O)C([H])(N([H])C(=O)C([H])(N([H])C([H])([H])[H])C([H])([H])[H])C(C([H])([H])[H])(C([H])([H])[H])C([H])([H])[H])C([H])([H])c2c([H])c(OC([H])([H])C3([H])C([H])([H])[N+]([H])([H])C3([H])C(=O)C3([H])C([H])([H])N(C(=O)N4C([H])([H])C([H])([H])C([H])([H])C([H])(n5nc(-c6c([H])c([H])c(Oc7c([H])c([H])c(F)c([H])c7F)c([H])c6[H])c(C(=O)N([H])[H])c5N([H])[H])C4([H])[H])C3([H])[H])c([H])c([H])c2C1([H])[H]

>  <smiles>  (50) 
[H]c1c([H])c([H])c2c(c1[H])C([H])([H])C([H])([H])C([H])([H])C2([H])N([H])C(=O)C1([H])N(C(=O)C([H])(N([H])C(=O)C([H])(N([H])C([H])([H])[H])C([H])([H])[H])C(C([H])([H])[H])(C([H])([H])[H])C([H])([H])[H])C([H])([H])c2c([H])c(OC([H])([H])C3([H])C([H])([H])[N+]([H])([H])C3([H])C(=O)C3([H])C([H])([H])N(C(=O)N4C([H])([H])C([H])([H])C([H])([H])C([H])(n5nc(-c6c([H])c([H])c(Oc7c([H])c([H])c(F)c([H])c7F)c([H])c6[H])c(C(=O)N([H])[H])c5N([H])[H])C4([H])[H])C3([H])[H])c([H])c([H])c2C1([H])[H]

$$$$
50:0:0
     RDKit          3D

 92101  0  0  1  0  0  0  0  0999 V2000
  -30.3440  -15.4280   19.7270 C   0  0  0  0  0  0  0  0  0  0  0  0
  -30.4560  -12.8810   19.5610 C   0  0  0  0  0  2  0  0  0  0  0  0
  -29.5960  -12.3410   18.3950 C   0  0  0  0  0  2  0  0  0  0  0  0
  -28.1500  -12.1080   18.8640 C   0  0  0  0  0  2  0  0  0  0  0  0
  -27.6030  -13.3060   19.6820 C   0  0  0  0  0  3  0  0  0  0  0  0
  -28.5970  -13.8040   20.7540 C   0  0  0  0  0  2  0  0  0  0  0  0
  -29.8390  -14.1570   20.0570 N   0  0  0  0  0  0  0  0  0  0  0  0
  -31.5200  -15.4320   19.3500 O   0  0  0  0  0  0  0  0  0  0  0  0
  -28.5070  -18.8330   20.2490 C   0  0  0  0  0  2  0  0  0  0  0  0
  -29.3750  -17.6830   18.4240 C   0  0  0  0  0  2  0  0  0  0  0  0
  -29.2670  -17.5420   20.7540 C   0  0  0  0  0  3  0  0  0  0  0  0
  -29.0290  -19.2650   18.8630 C   0  0  0  0  0  3  0  0  0  0  0  0
  -29.5500  -16.6440   19.6040 N   0  0  0  0  0  0  0  0  0  0  0  0
  -25.2930  -13.9380   20.5700 C   0  0  0  0  0  0  0  0  0  0  0  0
  -24.2140  -13.1890   20.9530 C   0  0  0  0  0  0  0  0  0  0  0  0
  -24.6180  -11.8240   20.8370 C   0  0  0  0  0  0  0  0  0  0  0  0
  -26.2820  -13.0320   20.2360 N   0  0  0  0  0  0  0  0  0  0  0  0
  -25.8900  -11.7500   20.4620 N   0  0  0  0  0  0  0  0  0  0  0  0
  -23.8460  -10.5860   21.0040 C   0  0  0  0  0  0  0  0  0  0  0  0
  -24.2900   -9.5420   21.8470 C   0  0  0  0  0  3  0  0  0  0  0  0
  -23.5180   -8.3720   22.0060 C   0  0  0  0  0  3  0  0  0  0  0  0
  -22.2860   -8.2350   21.3250 C   0  0  0  0  0  0  0  0  0  0  0  0
  -21.8590   -9.2650   20.4680 C   0  0  0  0  0  3  0  0  0  0  0  0
  -22.6310  -10.4280   20.3060 C   0  0  0  0  0  3  0  0  0  0  0  0
  -21.4800   -7.1240   21.3990 O   0  0  0  0  0  0  0  0  0  0  0  0
  -21.4840   -6.3060   22.5000 C   0  0  0  0  0  0  0  0  0  0  0  0
  -21.1630   -6.7880   23.7880 C   0  0  0  0  0  3  0  0  0  0  0  0
  -21.1110   -5.8980   24.8800 C   0  0  0  0  0  3  0  0  0  0  0  0
  -21.3710   -4.5290   24.6850 C   0  0  0  0  0  0  0  0  0  0  0  0
  -21.6860   -4.0460   23.4030 C   0  0  0  0  0  3  0  0  0  0  0  0
  -21.7390   -4.9330   22.3130 C   0  0  0  0  0  0  0  0  0  0  0  0
  -22.0220   -4.4590   21.0760 F   0  0  0  0  0  0  0  0  0  0  0  0
  -21.3140   -3.6720   25.7320 F   0  0  0  0  0  0  0  0  0  0  0  0
  -22.8550  -13.7120   21.3140 C   0  0  0  0  0  0  0  0  0  0  0  0
  -22.1510  -13.0220   22.2050 N   0  0  0  0  0  0  0  0  0  0  0  0
  -22.4310  -14.7660   20.8420 O   0  0  0  0  0  0  0  0  0  0  0  0
  -22.5100  -12.1700   22.6060 H   0  0  0  0  0  0  0  0  0  0  0  0
  -21.2400  -13.3530   22.4900 H   0  0  0  0  0  0  0  0  0  0  0  0
  -25.5110  -15.3070   20.4500 N   0  0  0  0  0  0  0  0  0  0  0  0
  -24.7850  -15.9910   20.6330 H   0  0  0  0  0  0  0  0  0  0  0  0
  -26.3730  -15.7230   20.1210 H   0  0  0  0  0  0  0  0  0  0  0  0
  -28.2860  -21.5200   16.8800 C   0  0  0  0  0  2  0  0  0  0  0  0
  -27.9000  -22.0580   18.7700 C   0  0  0  0  0  2  0  0  0  0  0  0
  -28.1040  -20.5640   18.1600 C   0  0  0  0  0  3  0  0  0  0  0  0
  -27.3600  -22.7510   17.4160 C   0  0  0  0  0  3  0  0  0  0  0  0
  -27.4070  -24.3700   16.7840 C   0  0  0  0  0  2  0  0  0  0  0  0
  -27.4510  -25.8630   17.3210 O   0  0  0  0  0  0  0  0  0  0  0  0
  -24.4200  -30.5890   22.1300 C   0  0  0  0  0  0  0  0  0  0  0  0
  -26.3910  -26.8210   17.6110 C   0  0  0  0  0  0  0  0  0  0  0  0
  -22.9400  -29.5840   20.4320 C   0  0  0  0  0  3  0  0  0  0  0  0
  -24.1000  -28.4560   18.4210 C   0  0  0  0  0  0  0  0  0  0  0  0
  -25.4240  -29.9720   19.8920 C   0  0  0  0  0  2  0  0  0  0  0  0
  -25.3710  -28.7800   18.9110 C   0  0  0  0  0  0  0  0  0  0  0  0
  -26.5060  -27.9780   18.4980 C   0  0  0  0  0  3  0  0  0  0  0  0
  -25.0900  -26.6190   17.1050 C   0  0  0  0  0  3  0  0  0  0  0  0
  -23.9730  -27.3970   17.5050 C   0  0  0  0  0  3  0  0  0  0  0  0
  -22.9060  -29.2650   18.9110 C   0  0  0  0  0  2  0  0  0  0  0  0
  -24.2910  -30.0610   20.8720 N   0  0  0  0  0  0  0  0  0  0  0  0
  -23.4480  -30.6920   22.8940 O   0  0  0  0  0  0  0  0  0  0  0  0
  -22.4420  -28.3500   21.2270 C   0  0  0  0  0  0  0  0  0  0  0  0
  -21.1120  -28.1520   21.2860 N   0  0  0  0  0  0  0  0  0  0  0  0
  -23.2480  -27.5830   21.7570 O   0  0  0  0  0  0  0  0  0  0  0  0
  -20.5120  -28.8290   20.8380 H   0  0  0  0  0  0  0  0  0  0  0  0
  -17.8830  -26.6510   21.9600 C   0  0  0  0  0  0  0  0  0  0  0  0
  -20.4430  -27.0190   21.9320 C   0  0  0  0  0  3  0  0  0  0  0  0
  -20.5090  -25.7550   21.0440 C   0  0  0  0  0  2  0  0  0  0  0  0
  -19.2830  -25.5870   20.1410 C   0  0  0  0  0  2  0  0  0  0  0  0
  -18.0060  -25.4980   20.9790 C   0  0  0  0  0  2  0  0  0  0  0  0
  -19.0250  -27.3760   22.3950 C   0  0  0  0  0  0  0  0  0  0  0  0
  -18.8500  -28.4600   23.2810 C   0  0  0  0  0  3  0  0  0  0  0  0
  -17.5660  -28.8210   23.7330 C   0  0  0  0  0  3  0  0  0  0  0  0
  -16.4410  -28.0930   23.3090 C   0  0  0  0  0  3  0  0  0  0  0  0
  -16.6020  -27.0090   22.4280 C   0  0  0  0  0  3  0  0  0  0  0  0
  -25.7910  -31.1070   22.6610 C   0  0  0  0  0  3  0  0  0  0  0  0
  -26.6180  -30.0020   23.4280 C   0  0  1  0  0  0  0  0  0  0  0  0
  -25.8220  -29.2880   24.5450 C   0  0  0  0  0  1  0  0  0  0  0  0
  -27.1270  -28.9180   22.4520 C   0  0  0  0  0  1  0  0  0  0  0  0
  -27.8740  -30.6410   24.0690 C   0  0  0  0  0  1  0  0  0  0  0  0
  -25.5260  -32.2520   23.5500 N   0  0  0  0  0  0  0  0  0  0  0  0
  -25.8130  -33.5290   23.2630 C   0  0  0  0  0  0  0  0  0  0  0  0
  -26.3960  -33.8640   22.2280 O   0  0  0  0  0  0  0  0  0  0  0  0
  -25.0040  -32.0570   24.3910 H   0  0  0  0  0  0  0  0  0  0  0  0
  -24.1360  -35.3340   23.7770 C   0  0  0  0  0  1  0  0  0  0  0  0
  -25.3900  -34.6040   24.2840 C   0  0  0  0  0  3  0  0  0  0  0  0
  -27.5760  -35.0280   25.3200 C   0  0  0  0  0  1  0  0  0  0  0  0
  -26.4520  -35.5910   24.5760 N   0  0  0  0  0  0  0  0  0  0  0  0
  -26.0800  -36.3730   25.1080 H   0  0  0  0  0  0  0  0  0  0  0  0
  -30.5260  -17.9100   21.5740 C   0  0  0  0  0  0  0  0  0  0  0  0
  -31.6700  -17.6260   21.2090 O   0  0  0  0  0  0  0  0  0  0  0  0
  -30.3000  -18.7150   22.8600 C   0  0  0  0  0  2  0  0  0  0  0  0
  -31.3190  -20.2460   24.6380 C   0  0  0  0  0  1  0  0  0  0  0  0
  -31.5960  -19.2510   23.5040 C   0  0  0  0  0  2  0  0  0  0  0  0
  1  7  1  0
  2  7  1  0
  3  4  1  0
  3  2  1  0
  5  4  1  0
  5 17  1  0
  5  6  1  0
  7  6  1  0
  8  1  2  0
  9 11  1  0
 10 13  1  0
 11 88  1  0
 12 10  1  0
 12  9  1  0
 13  1  1  0
 13 11  1  0
 14 15  2  0
 15 34  1  0
 16 15  1  0
 16 19  1  0
 17 18  1  0
 17 14  1  0
 18 16  2  0
 19 20  1  0
 20 21  2  0
 22 25  1  0
 22 21  1  0
 23 22  2  0
 24 23  1  0
 24 19  2  0
 25 26  1  0
 26 27  1  0
 27 28  2  0
 29 28  1  0
 29 33  1  0
 30 29  2  0
 31 26  2  0
 31 30  1  0
 32 31  1  0
 34 35  1  0
 35 38  1  0
 35 37  1  0
 36 34  2  0
 39 14  1  0
 39 40  1  0
 41 39  1  0
 42 45  1  0
 44 42  1  0
 44 43  1  0
 44 12  1  0
 45 46  1  0
 45 43  1  0
 46 47  1  0
 47 49  1  0
 48 59  2  0
 49 54  1  0
 50 58  1  0
 50 60  1  0
 51 53  1  0
 51 57  1  0
 52 58  1  0
 53 52  1  0
 54 53  2  0
 55 56  1  0
 55 49  2  0
 56 51  2  0
 57 50  1  0
 58 48  1  0
 60 61  1  0
 60 62  2  0
 63 61  1  0
 64 69  2  0
 64 73  1  0
 65 61  1  0
 65 69  1  0
 66 65  1  0
 67 68  1  0
 67 66  1  0
 68 64  1  0
 69 70  1  0
 70 71  2  0
 72 71  1  0
 73 72  2  0
 74 48  1  0
 74 75  1  0
 74 79  1  0
 75 78  1  1
 75 76  1  0
 77 75  1  0
 79 82  1  0
 80 79  1  0
 80 84  1  0
 81 80  2  0
 84 83  1  0
 84 86  1  0
 86 87  1  0
 86 85  1  0
 88 90  1  0
 89 88  2  0
 90 92  1  0
 92 91  1  0
M  ISO  4   1 100  13 100  46 101  47 101
M  END
>  <TORSDO>  (51) 
F 20

>  <SCORE>  (51) 
-8.732

>  <name>  (51) 
50

>  <ligand_id>  (51) 
50

>  <original_smiles>  (51) 
[H]c1c([H])c([H])c2c(c1[H])C([H])([H])C([H])([H])C([H])([H])C2([H])N([H])C(=O)C1([H])N(C(=O)C([H])(N([H])C(=O)C([H])(N([H])C([H])([H])[H])C([H])([H])[H])C(C([H])([H])[H])(C([H])([H])[H])C([H])([H])[H])C([H])([H])c2c([H])c(OC([H])([H])C3([H])C([H])([H])C([H])(C4([H])C([H])([H])N(C(=O)N5C([H])([H])C([H])([H])C([H])([H])C([H])(n6nc(-c7c([H])c([H])c(Oc8c([H])c([H])c(F)c([H])c8F)c([H])c7[H])c(C(=O)N([H])[H])c6N([H])[H])C5([H])[H])C([H])(C(=O)C([H])([H])C([H])([H])C([H])([H])[H])C4([H])[H])C3([H])[H])c([H])c([H])c2C1([H])[H]

>  <smiles>  (51) 
[H]c1c([H])c([H])c2c(c1[H])C([H])([H])C([H])([H])C([H])([H])C2([H])N([H])C(=O)C1([H])N(C(=O)C([H])(N([H])C(=O)C([H])(N([H])C([H])([H])[H])C([H])([H])[H])C(C([H])([H])[H])(C([H])([H])[H])C([H])([H])[H])C([H])([H])c2c([H])c(OC([H])([H])C3([H])C([H])([H])C([H])(C4([H])C([H])([H])N(C(=O)N5C([H])([H])C([H])([H])C([H])([H])C([H])(n6nc(-c7c([H])c([H])c(Oc8c([H])c([H])c(F)c([H])c8F)c([H])c7[H])c(C(=O)N([H])[H])c6N([H])[H])C5([H])[H])C([H])(C(=O)C([H])([H])C([H])([H])C([H])([H])[H])C4([H])[H])C3([H])[H])c([H])c([H])c2C1([H])[H]

$$$$
51:0:0
     RDKit          3D

 92 98  0  0  1  0  0  0  0  0999 V2000
  -30.1460  -16.0570   20.3040 C   0  0  0  0  0  0  0  0  0  0  0  0
  -30.3830  -13.4000   19.5530 C   0  0  0  0  0  2  0  0  0  0  0  0
  -29.5630  -12.7810   18.3700 C   0  0  0  0  0  2  0  0  0  0  0  0
  -28.1760  -12.3230   18.8330 C   0  0  0  0  0  2  0  0  0  0  0  0
  -27.5820  -13.3530   19.8140 C   0  0  0  0  0  3  0  0  0  0  0  0
  -28.5640  -13.8590   20.9110 C   0  0  0  0  0  2  0  0  0  0  0  0
  -29.6700  -14.6160   20.2380 N   0  0  0  0  0  0  0  0  0  0  0  0
  -31.3810  -15.9130   20.1050 O   0  0  0  0  0  0  0  0  0  0  0  0
  -27.2500  -18.9540   21.1240 C   0  0  0  0  0  2  0  0  0  0  0  0
  -28.2180  -17.6740   21.2420 C   0  0  0  0  0  2  0  0  0  0  0  0
  -29.5940  -19.3890   20.0450 C   0  0  0  0  0  1  0  0  0  0  0  0
  -27.6890  -20.4590   21.4750 C   0  0  0  0  0  3  0  0  0  0  0  0
  -28.5490  -21.1200   20.3490 C   0  0  0  0  0  1  0  0  0  0  0  0
  -29.4220  -17.5590   20.3700 N   0  0  0  0  0  0  0  0  0  0  0  0
  -25.2230  -13.8340   20.5830 C   0  0  0  0  0  0  0  0  0  0  0  0
  -24.1670  -13.0420   20.9280 C   0  0  0  0  0  0  0  0  0  0  0  0
  -24.6430  -11.6950   20.8720 C   0  0  0  0  0  0  0  0  0  0  0  0
  -26.2740  -12.9760   20.3290 N   0  0  0  0  0  0  0  0  0  0  0  0
  -25.9400  -11.6770   20.5650 N   0  0  0  0  0  0  0  0  0  0  0  0
  -23.9130  -10.4290   21.0360 C   0  0  0  0  0  0  0  0  0  0  0  0
  -24.3660   -9.4210   21.9160 C   0  0  0  0  0  3  0  0  0  0  0  0
  -23.6300   -8.2250   22.0750 C   0  0  0  0  0  3  0  0  0  0  0  0
  -22.4280   -8.0290   21.3540 C   0  0  0  0  0  0  0  0  0  0  0  0
  -21.9930   -9.0270   20.4640 C   0  0  0  0  0  3  0  0  0  0  0  0
  -22.7290  -10.2120   20.3030 C   0  0  0  0  0  3  0  0  0  0  0  0
  -21.6650   -6.8880   21.4240 O   0  0  0  0  0  0  0  0  0  0  0  0
  -21.6860   -6.0720   22.5260 C   0  0  0  0  0  0  0  0  0  0  0  0
  -21.4030   -6.5620   23.8190 C   0  0  0  0  0  3  0  0  0  0  0  0
  -21.3660   -5.6780   24.9160 C   0  0  0  0  0  3  0  0  0  0  0  0
  -21.6040   -4.3040   24.7220 C   0  0  0  0  0  0  0  0  0  0  0  0
  -21.8820   -3.8130   23.4340 C   0  0  0  0  0  3  0  0  0  0  0  0
  -21.9200   -4.6940   22.3400 C   0  0  0  0  0  0  0  0  0  0  0  0
  -22.1660   -4.2130   21.0970 F   0  0  0  0  0  0  0  0  0  0  0  0
  -21.5630   -3.4530   25.7730 F   0  0  0  0  0  0  0  0  0  0  0  0
  -22.7680  -13.5140   21.1910 C   0  0  0  0  0  0  0  0  0  0  0  0
  -22.0370  -12.8110   22.0460 N   0  0  0  0  0  0  0  0  0  0  0  0
  -22.3350  -14.5430   20.6740 O   0  0  0  0  0  0  0  0  0  0  0  0
  -22.4030  -11.9800   22.4860 H   0  0  0  0  0  0  0  0  0  0  0  0
  -21.0980  -13.1130   22.2680 H   0  0  0  0  0  0  0  0  0  0  0  0
  -25.3710  -15.2080   20.4250 N   0  0  0  0  0  0  0  0  0  0  0  0
  -24.5870  -15.8430   20.5310 H   0  0  0  0  0  0  0  0  0  0  0  0
  -26.2000  -15.6620   20.0700 H   0  0  0  0  0  0  0  0  0  0  0  0
  -28.3520  -20.5470   22.8700 C   0  0  0  0  0  2  0  0  0  0  0  0
  -28.3770  -21.9730   23.4760 C   0  0  0  0  0  2  0  0  0  0  0  0
  -28.5580  -21.2940   25.8630 C   0  0  0  0  0  1  0  0  0  0  0  0
  -29.1400  -22.0840   24.7520 N   0  0  2  0  0  4  0  0  0  0  0  0
  -30.0610  -21.7090   24.5810 H   0  0  0  0  0  0  0  0  0  0  0  0
  -30.5900  -23.7800   25.9190 C   0  0  0  0  0  2  0  0  0  0  0  0
  -30.4530  -24.2240   24.4800 C   0  0  0  0  0  2  0  0  0  0  0  0
  -29.3100  -23.5010   25.1590 C   0  0  0  0  0  3  0  0  0  0  0  0
  -28.1920  -23.1990   19.9880 C   0  0  0  0  0 15  0  0  0  0  0  0
  -28.1480  -25.0670   20.3750 O   0  0  0  0  0  1  0  0  0  0  0  0
  -24.7110  -31.7690   23.1280 C   0  0  0  0  0  0  0  0  0  0  0  0
  -27.2320  -26.4170   20.2420 C   0  0  0  0  0  0  0  0  0  0  0  0
  -23.5480  -30.3580   21.4880 C   0  0  0  0  0  3  0  0  0  0  0  0
  -25.0090  -28.6420   20.1180 C   0  0  0  0  0  0  0  0  0  0  0  0
  -26.1380  -30.4050   21.4380 C   0  0  0  0  0  2  0  0  0  0  0  0
  -26.1990  -28.9400   20.7910 C   0  0  0  0  0  0  0  0  0  0  0  0
  -27.2770  -27.8630   20.8160 C   0  0  0  0  0  3  0  0  0  0  0  0
  -26.0100  -26.4040   19.4990 C   0  0  0  0  0  3  0  0  0  0  0  0
  -24.9720  -27.4040   19.4470 C   0  0  0  0  0  3  0  0  0  0  0  0
  -23.8180  -29.6350   20.1330 C   0  0  0  0  0  2  0  0  0  0  0  0
  -24.8250  -30.8860   22.0690 N   0  0  0  0  0  0  0  0  0  0  0  0
  -23.6080  -32.0890   23.6080 O   0  0  0  0  0  0  0  0  0  0  0  0
  -22.7900  -29.4140   22.4630 C   0  0  0  0  0  0  0  0  0  0  0  0
  -21.4520  -29.2970   22.3370 N   0  0  0  0  0  0  0  0  0  0  0  0
  -23.4220  -28.7810   23.3110 O   0  0  0  0  0  0  0  0  0  0  0  0
  -20.9900  -29.8550   21.6330 H   0  0  0  0  0  0  0  0  0  0  0  0
  -18.0360  -28.1440   22.8430 C   0  0  0  0  0  0  0  0  0  0  0  0
  -20.6010  -28.3800   23.1080 C   0  0  0  0  0  3  0  0  0  0  0  0
  -20.6810  -26.9440   22.5400 C   0  0  0  0  0  2  0  0  0  0  0  0
  -19.5790  -26.6380   21.5210 C   0  0  0  0  0  2  0  0  0  0  0  0
  -18.1980  -26.7970   22.1620 C   0  0  0  0  0  2  0  0  0  0  0  0
  -19.1630  -28.8960   23.2730 C   0  0  0  0  0  0  0  0  0  0  0  0
  -18.9530  -30.1540   23.8780 C   0  0  0  0  0  3  0  0  0  0  0  0
  -17.6510  -30.6610   24.0550 C   0  0  0  0  0  3  0  0  0  0  0  0
  -16.5400  -29.9070   23.6370 C   0  0  0  0  0  3  0  0  0  0  0  0
  -16.7330  -28.6510   23.0360 C   0  0  0  0  0  3  0  0  0  0  0  0
  -25.9580  -32.4300   23.7920 C   0  0  0  0  0  3  0  0  0  0  0  0
  -26.4680  -31.6440   25.0640 C   0  0  1  0  0  0  0  0  0  0  0  0
  -25.3670  -31.3840   26.1200 C   0  0  0  0  0  1  0  0  0  0  0  0
  -27.0650  -30.2740   24.6750 C   0  0  0  0  0  1  0  0  0  0  0  0
  -27.6110  -32.4340   25.7460 C   0  0  0  0  0  1  0  0  0  0  0  0
  -25.6060  -33.8130   24.1800 N   0  0  0  0  0  0  0  0  0  0  0  0
  -25.9160  -34.9180   23.4880 C   0  0  0  0  0  0  0  0  0  0  0  0
  -26.5810  -34.8820   22.4500 O   0  0  0  0  0  0  0  0  0  0  0  0
  -25.0140  -33.9120   24.9910 H   0  0  0  0  0  0  0  0  0  0  0  0
  -24.1490  -36.7040   23.2660 C   0  0  0  0  0  1  0  0  0  0  0  0
  -25.4160  -36.2780   24.0260 C   0  0  0  0  0  3  0  0  0  0  0  0
  -27.5540  -37.1690   24.8490 C   0  0  0  0  0  1  0  0  0  0  0  0
  -26.4250  -37.3580   23.9400 N   0  0  0  0  0  0  0  0  0  0  0  0
  -26.0060  -38.2630   24.1380 H   0  0  0  0  0  0  0  0  0  0  0  0
  1 14  1  0
  2  7  1  0
  3  4  1  0
  3  2  1  0
  5  4  1  0
  5 18  1  0
  5  6  1  0
  7  1  1  0
  7  6  1  0
  8  1  2  0
  9 10  1  0
  9 12  1  0
 11 14  1  0
 12 13  1  0
 12 43  1  0
 14 10  1  0
 15 16  2  0
 16 35  1  0
 17 16  1  0
 17 20  1  0
 18 19  1  0
 18 15  1  0
 19 17  2  0
 20 21  1  0
 21 22  2  0
 23 26  1  0
 23 22  1  0
 24 23  2  0
 25 24  1  0
 25 20  2  0
 26 27  1  0
 27 28  1  0
 28 29  2  0
 30 29  1  0
 30 34  1  0
 31 30  2  0
 32 27  2  0
 32 31  1  0
 33 32  1  0
 35 36  1  0
 36 39  1  0
 36 38  1  0
 37 35  2  0
 40 41  1  0
 40 15  1  0
 42 40  1  0
 43 44  1  0
 44 46  1  0
 46 50  1  0
 46 45  1  0
 46 47  1  6
 49 50  1  0
 49 48  1  0
 50 48  1  0
 53 64  2  0
 54 52  1  0
 54 59  1  0
 55 63  1  0
 55 65  1  0
 56 62  1  0
 56 58  1  0
 57 63  1  0
 58 59  2  0
 58 57  1  0
 60 54  2  0
 61 60  1  0
 61 56  2  0
 62 55  1  0
 63 53  1  0
 65 67  2  0
 66 65  1  0
 68 66  1  0
 69 78  2  0
 69 74  1  0
 70 66  1  0
 70 74  1  0
 71 70  1  0
 72 73  1  0
 72 71  1  0
 73 69  1  0
 74 75  2  0
 75 76  1  0
 77 76  2  0
 78 77  1  0
 79 53  1  0
 79 84  1  0
 79 80  1  0
 80 83  1  1
 80 81  1  0
 82 80  1  0
 84 87  1  0
 85 89  1  0
 85 84  1  0
 86 85  2  0
 89 88  1  0
 91 89  1  0
 91 92  1  0
 91 90  1  0
M  ISO  4   1 100  14 100  51 101  52 101
M  END
>  <TORSDO>  (52) 
F 20

>  <SCORE>  (52) 
7.979

>  <name>  (52) 
51

>  <ligand_id>  (52) 
51

>  <original_smiles>  (52) 
[H]c1c([H])c([H])c2c(c1[H])C([H])([H])C([H])([H])C([H])([H])C2([H])N([H])C(=O)C1([H])N(C(=O)C([H])(N([H])C(=O)C([H])(N([H])C([H])([H])[H])C([H])([H])[H])C(C([H])([H])[H])(C([H])([H])[H])C([H])([H])[H])C([H])([H])c2c([H])c(OC([H])([H])C3([H])C([H])([H])N(C(=O)N4C([H])([H])C([H])([H])C([H])([H])C([H])(n5nc(-c6c([H])c([H])c(Oc7c([H])c([H])c(F)c([H])c7F)c([H])c6[H])c(C(=O)N([H])[H])c5N([H])[H])C4([H])[H])C([H])([H])C([H])([H])C3([H])C([H])([H])C([H])([H])[N+]([H])(C([H])([H])[H])C3([H])C([H])([H])C3([H])[H])c([H])c([H])c2C1([H])[H]

>  <smiles>  (52) 
[H]c1c([H])c([H])c2c(c1[H])C([H])([H])C([H])([H])C([H])([H])C2([H])N([H])C(=O)C1([H])N(C(=O)C([H])(N([H])C(=O)C([H])(N([H])C([H])([H])[H])C([H])([H])[H])C(C([H])([H])[H])(C([H])([H])[H])C([H])([H])[H])C([H])([H])c2c([H])c(OC([H])([H])C3([H])C([H])([H])N(C(=O)N4C([H])([H])C([H])([H])C([H])([H])C([H])(n5nc(-c6c([H])c([H])c(Oc7c([H])c([H])c(F)c([H])c7F)c([H])c6[H])c(C(=O)N([H])[H])c5N([H])[H])C4([H])[H])C([H])([H])C([H])([H])C3([H])C([H])([H])C([H])([H])[N+]([H])(C([H])([H])[H])C3([H])C([H])([H])C3([H])[H])c([H])c([H])c2C1([H])[H]

$$$$
52:0:0
     RDKit          3D

 92100  0  0  1  0  0  0  0  0999 V2000
  -29.9000  -21.2230   19.0130 C   0  0  0  0  0  3  0  0  0  0  0  0
  -30.6530  -21.2990   21.3200 C   0  0  0  0  0  3  0  0  0  0  0  0
  -29.7790  -22.6310   19.0010 C   0  0  0  0  0  3  0  0  0  0  0  0
  -30.5460  -22.7090   21.3030 C   0  0  0  0  0  3  0  0  0  0  0  0
  -30.3250  -20.5390   20.1770 C   0  0  0  0  0  0  0  0  0  0  0  0
  -30.0880  -23.3900   20.1520 C   0  0  0  0  0  0  0  0  0  0  0  0
  -31.0480  -25.5670   19.2770 C   0  0  0  0  0  1  0  0  0  0  0  0
  -29.9560  -24.9200   20.1510 C   0  0  0  0  0  3  0  0  0  0  0  0
  -28.5370  -25.4340   19.7830 C   0  0  0  0  0  2  0  0  0  0  0  0
  -28.4450  -26.8170   20.1420 O   0  0  0  0  0  0  0  0  0  0  0  0
  -24.5570  -31.8910   23.2250 C   0  0  0  0  0  0  0  0  0  0  0  0
  -27.2250  -27.4660   20.1390 C   0  0  0  0  0  0  0  0  0  0  0  0
  -23.3430  -30.4770   21.5930 C   0  0  0  0  0  3  0  0  0  0  0  0
  -24.7990  -28.9300   20.1740 C   0  0  0  0  0  0  0  0  0  0  0  0
  -25.8630  -30.8530   21.3710 C   0  0  0  0  0  2  0  0  0  0  0  0
  -25.9540  -29.4800   20.7380 C   0  0  0  0  0  0  0  0  0  0  0  0
  -27.1660  -28.7580   20.7100 C   0  0  0  0  0  3  0  0  0  0  0  0
  -26.0430  -26.9170   19.5870 C   0  0  0  0  0  3  0  0  0  0  0  0
  -24.8340  -27.6440   19.6040 C   0  0  0  0  0  3  0  0  0  0  0  0
  -23.5480  -29.7800   20.2190 C   0  0  0  0  0  2  0  0  0  0  0  0
  -24.6070  -31.0900   22.1210 N   0  0  0  0  0  0  0  0  0  0  0  0
  -23.4790  -32.1620   23.7700 O   0  0  0  0  0  0  0  0  0  0  0  0
  -22.6980  -29.4640   22.5640 C   0  0  0  0  0  0  0  0  0  0  0  0
  -21.3740  -29.2760   22.4370 N   0  0  0  0  0  0  0  0  0  0  0  0
  -23.3840  -28.8500   23.3840 O   0  0  0  0  0  0  0  0  0  0  0  0
  -20.8840  -29.8290   21.7500 H   0  0  0  0  0  0  0  0  0  0  0  0
  -18.0060  -28.0610   22.9230 C   0  0  0  0  0  0  0  0  0  0  0  0
  -20.5600  -28.3380   23.2110 C   0  0  0  0  0  3  0  0  0  0  0  0
  -20.6770  -26.9030   22.6480 C   0  0  0  0  0  2  0  0  0  0  0  0
  -19.5840  -26.5620   21.6300 C   0  0  0  0  0  2  0  0  0  0  0  0
  -18.1970  -26.7050   22.2620 C   0  0  0  0  0  2  0  0  0  0  0  0
  -19.1160  -28.8340   23.3530 C   0  0  0  0  0  0  0  0  0  0  0  0
  -18.8860  -30.1020   23.9300 C   0  0  0  0  0  3  0  0  0  0  0  0
  -17.5770  -30.5970   24.0800 C   0  0  0  0  0  3  0  0  0  0  0  0
  -16.4810  -29.8200   23.6680 C   0  0  0  0  0  3  0  0  0  0  0  0
  -16.6970  -28.5540   23.0950 C   0  0  0  0  0  3  0  0  0  0  0  0
  -25.8460  -32.5220   23.8360 C   0  0  0  0  0  3  0  0  0  0  0  0
  -25.5420  -33.9230   24.1550 N   0  0  0  0  0  0  0  0  0  0  0  0
  -25.8850  -34.9710   23.3920 C   0  0  0  0  0  0  0  0  0  0  0  0
  -26.5620  -34.8580   22.3680 O   0  0  0  0  0  0  0  0  0  0  0  0
  -24.9370  -34.0850   24.9480 H   0  0  0  0  0  0  0  0  0  0  0  0
  -24.1730  -36.7740   23.0100 C   0  0  0  0  0  1  0  0  0  0  0  0
  -25.3990  -36.3620   23.8390 C   0  0  0  0  0  3  0  0  0  0  0  0
  -27.5240  -37.2380   24.7020 C   0  0  0  0  0  1  0  0  0  0  0  0
  -26.4390  -37.4070   23.7390 N   0  0  0  0  0  0  0  0  0  0  0  0
  -26.0350  -38.3300   23.8760 H   0  0  0  0  0  0  0  0  0  0  0  0
  -26.3660  -31.7610   25.1180 C   0  0  1  0  0  0  0  0  0  0  0  0
  -25.2750  -31.5380   26.1890 C   0  0  0  0  0  1  0  0  0  0  0  0
  -26.9450  -30.3790   24.7330 C   0  0  0  0  0  1  0  0  0  0  0  0
  -27.5170  -32.5590   25.7740 C   0  0  0  0  0  1  0  0  0  0  0  0
  -30.4720  -19.0080   20.1890 C   0  0  0  0  0  2  0  0  0  0  0  0
  -27.9060  -18.8350   20.0040 C   0  0  0  0  0  1  0  0  0  0  0  0
  -29.1960  -18.1870   20.5620 C   0  0  0  0  0  3  0  0  0  0  0  0
  -29.4890  -16.4400   18.6920 C   0  0  0  0  0  1  0  0  0  0  0  0
  -29.2530  -16.6610   20.2000 C   0  0  0  0  0  3  0  0  0  0  0  0
  -30.1290  -15.7770   21.1620 C   0  0  0  0  0  2  0  0  0  0  0  0
  -30.7930  -14.5160   20.5450 C   0  0  0  0  0  0  0  0  0  0  0  0
  -30.4920  -12.3750   19.3480 C   0  0  0  0  0  2  0  0  0  0  0  0
  -29.5490  -12.5810   18.1400 C   0  0  0  0  0  2  0  0  0  0  0  0
  -28.0690  -12.4800   18.5590 C   0  0  0  0  0  2  0  0  0  0  0  0
  -27.7350  -13.2830   19.8430 C   0  0  0  0  0  3  0  0  0  0  0  0
  -28.7880  -13.0380   20.9460 C   0  0  0  0  0  2  0  0  0  0  0  0
  -30.1150  -13.3440   20.3920 N   0  0  0  0  0  0  0  0  0  0  0  0
  -31.9320  -14.6650   20.0960 O   0  0  0  0  0  0  0  0  0  0  0  0
  -25.3310  -13.8930   20.5310 C   0  0  0  0  0  0  0  0  0  0  0  0
  -24.2590  -13.1200   20.8870 C   0  0  0  0  0  0  0  0  0  0  0  0
  -24.7230  -11.7690   20.8670 C   0  0  0  0  0  0  0  0  0  0  0  0
  -26.3790  -13.0110   20.3120 N   0  0  0  0  0  0  0  0  0  0  0  0
  -26.0150  -11.7290   20.5720 N   0  0  0  0  0  0  0  0  0  0  0  0
  -23.9980  -10.5060   21.0500 C   0  0  0  0  0  0  0  0  0  0  0  0
  -24.4280   -9.5420   21.9870 C   0  0  0  0  0  3  0  0  0  0  0  0
  -23.7060   -8.3410   22.1600 C   0  0  0  0  0  3  0  0  0  0  0  0
  -22.5410   -8.0960   21.3940 C   0  0  0  0  0  0  0  0  0  0  0  0
  -22.1330   -9.0490   20.4450 C   0  0  0  0  0  3  0  0  0  0  0  0
  -22.8540  -10.2420   20.2710 C   0  0  0  0  0  3  0  0  0  0  0  0
  -21.7890   -6.9490   21.4750 O   0  0  0  0  0  0  0  0  0  0  0  0
  -21.7300   -6.2080   22.6290 C   0  0  0  0  0  0  0  0  0  0  0  0
  -21.2830   -6.7640   23.8470 C   0  0  0  0  0  3  0  0  0  0  0  0
  -21.1690   -5.9510   24.9920 C   0  0  0  0  0  3  0  0  0  0  0  0
  -21.4900   -4.5820   24.9190 C   0  0  0  0  0  0  0  0  0  0  0  0
  -21.9290   -4.0250   23.7060 C   0  0  0  0  0  3  0  0  0  0  0  0
  -22.0460   -4.8360   22.5630 C   0  0  0  0  0  0  0  0  0  0  0  0
  -22.4510   -4.2900   21.3910 F   0  0  0  0  0  0  0  0  0  0  0  0
  -21.3730   -3.7990   26.0170 F   0  0  0  0  0  0  0  0  0  0  0  0
  -22.8570  -13.5960   21.1410 C   0  0  0  0  0  0  0  0  0  0  0  0
  -22.1210  -12.8930   21.9960 N   0  0  0  0  0  0  0  0  0  0  0  0
  -22.4210  -14.6190   20.6200 O   0  0  0  0  0  0  0  0  0  0  0  0
  -22.4920  -12.0680   22.4420 H   0  0  0  0  0  0  0  0  0  0  0  0
  -21.1790  -13.1880   22.2070 H   0  0  0  0  0  0  0  0  0  0  0  0
  -25.4960  -15.2620   20.3530 N   0  0  0  0  0  0  0  0  0  0  0  0
  -24.7290  -15.9200   20.4170 H   0  0  0  0  0  0  0  0  0  0  0  0
  -26.3510  -15.6870   20.0230 H   0  0  0  0  0  0  0  0  0  0  0  0
  1  5  1  0
  3  1  2  0
  3  6  1  0
  4  2  1  0
  5 51  1  0
  5  2  2  0
  6  4  2  0
  8  7  1  0
  8  6  1  0
  9 10  1  0
  9  8  1  0
 11 22  2  0
 12 10  1  0
 12 17  1  0
 13 21  1  0
 13 23  1  0
 14 20  1  0
 14 16  1  0
 15 21  1  0
 16 15  1  0
 17 16  2  0
 18 19  1  0
 18 12  2  0
 19 14  2  0
 20 13  1  0
 21 11  1  0
 23 25  2  0
 24 23  1  0
 26 24  1  0
 27 36  2  0
 27 32  1  0
 28 24  1  0
 28 32  1  0
 29 28  1  0
 30 31  1  0
 30 29  1  0
 31 27  1  0
 32 33  2  0
 33 34  1  0
 35 34  2  0
 36 35  1  0
 37 11  1  0
 37 38  1  0
 37 47  1  0
 38 41  1  0
 39 43  1  0
 39 38  1  0
 40 39  2  0
 43 42  1  0
 45 43  1  0
 45 46  1  0
 45 44  1  0
 47 50  1  1
 47 48  1  0
 49 47  1  0
 51 53  1  0
 53 52  1  0
 55 54  1  0
 55 53  1  0
 55 56  1  0
 57 56  1  0
 58 63  1  0
 59 60  1  0
 59 58  1  0
 61 60  1  0
 61 68  1  0
 61 62  1  0
 63 57  1  0
 63 62  1  0
 64 57  2  0
 65 66  2  0
 66 85  1  0
 67 66  1  0
 67 70  1  0
 68 65  1  0
 68 69  1  0
 69 67  2  0
 70 71  1  0
 71 72  2  0
 73 76  1  0
 73 72  1  0
 74 73  2  0
 75 74  1  0
 75 70  2  0
 76 77  1  0
 77 78  1  0
 78 79  2  0
 80 79  1  0
 80 84  1  0
 81 80  2  0
 82 77  2  0
 82 81  1  0
 83 82  1  0
 85 86  1  0
 86 89  1  0
 86 88  1  0
 87 85  2  0
 90 91  1  0
 90 65  1  0
 92 90  1  0
M  ISO  4   9 101  10 101  56 100  57 100
M  END
>  <TORSDO>  (53) 
F 22

>  <SCORE>  (53) 
-13.186

>  <name>  (53) 
52

>  <ligand_id>  (53) 
52

>  <original_smiles>  (53) 
[H]c1c([H])c([H])c2c(c1[H])C([H])([H])C([H])([H])C([H])([H])C2([H])N([H])C(=O)C1([H])N(C(=O)C([H])(N([H])C(=O)C([H])(N([H])C([H])([H])[H])C([H])([H])[H])C(C([H])([H])[H])(C([H])([H])[H])C([H])([H])[H])C([H])([H])c2c([H])c(OC([H])([H])C([H])(c3c([H])c([H])c(C([H])([H])C([H])(C([H])([H])[H])C([H])(C([H])([H])[H])C([H])([H])C(=O)N4C([H])([H])C([H])([H])C([H])([H])C([H])(n5nc(-c6c([H])c([H])c(Oc7c([H])c([H])c(F)c([H])c7F)c([H])c6[H])c(C(=O)N([H])[H])c5N([H])[H])C4([H])[H])c([H])c3[H])C([H])([H])[H])c([H])c([H])c2C1([H])[H]

>  <smiles>  (53) 
[H]c1c([H])c([H])c2c(c1[H])C([H])([H])C([H])([H])C([H])([H])C2([H])N([H])C(=O)C1([H])N(C(=O)C([H])(N([H])C(=O)C([H])(N([H])C([H])([H])[H])C([H])([H])[H])C(C([H])([H])[H])(C([H])([H])[H])C([H])([H])[H])C([H])([H])c2c([H])c(OC([H])([H])C([H])(c3c([H])c([H])c(C([H])([H])C([H])(C([H])([H])[H])C([H])(C([H])([H])[H])C([H])([H])C(=O)N4C([H])([H])C([H])([H])C([H])([H])C([H])(n5nc(-c6c([H])c([H])c(Oc7c([H])c([H])c(F)c([H])c7F)c([H])c6[H])c(C(=O)N([H])[H])c5N([H])[H])C4([H])[H])c([H])c3[H])C([H])([H])[H])c([H])c([H])c2C1([H])[H]

$$$$
53:0:0
     RDKit          3D

 91 99  0  0  1  0  0  0  0  0999 V2000
  -28.9800  -20.0720   21.3100 C   0  0  0  0  0  2  0  0  0  0  0  0
  -28.2510  -21.4710   21.1610 C   0  0  0  0  0  2  0  0  0  0  0  0
  -29.3720  -21.0160   19.1590 C   0  0  0  0  0  2  0  0  0  0  0  0
  -29.2050  -19.5190   19.8770 C   0  0  0  0  0  3  0  0  0  0  0  0
  -28.9250  -22.2080   20.0610 N   0  0  1  0  0  4  0  0  0  0  0  0
  -29.8020  -22.5080   20.4580 H   0  0  0  0  0  0  0  0  0  0  0  0
  -28.2940  -23.5760   19.5200 C   0  0  0  0  0  2  0  0  0  0  0  0
  -28.2100  -25.0130   20.4110 C   0  0  0  0  0  2  0  0  0  0  0  0
  -28.2110  -26.5000   19.9340 O   0  0  0  0  0  0  0  0  0  0  0  0
  -24.6050  -32.0210   23.3140 C   0  0  0  0  0  0  0  0  0  0  0  0
  -27.1100  -27.4230   20.0470 C   0  0  0  0  0  0  0  0  0  0  0  0
  -23.3610  -30.6650   21.6710 C   0  0  0  0  0  3  0  0  0  0  0  0
  -24.7700  -29.1410   20.1510 C   0  0  0  0  0  0  0  0  0  0  0  0
  -25.9050  -30.9580   21.4310 C   0  0  0  0  0  2  0  0  0  0  0  0
  -25.9660  -29.5860   20.7340 C   0  0  0  0  0  0  0  0  0  0  0  0
  -27.1400  -28.7420   20.6560 C   0  0  0  0  0  3  0  0  0  0  0  0
  -25.8820  -27.0710   19.4490 C   0  0  0  0  0  3  0  0  0  0  0  0
  -24.7390  -27.9000   19.4940 C   0  0  0  0  0  3  0  0  0  0  0  0
  -23.5420  -30.0320   20.2650 C   0  0  0  0  0  2  0  0  0  0  0  0
  -24.6440  -31.2350   22.1930 N   0  0  0  0  0  0  0  0  0  0  0  0
  -23.5350  -32.2830   23.8880 O   0  0  0  0  0  0  0  0  0  0  0  0
  -22.7230  -29.6250   22.6240 C   0  0  0  0  0  0  0  0  0  0  0  0
  -21.4080  -29.3900   22.4800 N   0  0  0  0  0  0  0  0  0  0  0  0
  -23.4140  -29.0310   23.4550 O   0  0  0  0  0  0  0  0  0  0  0  0
  -20.9110  -29.9110   21.7720 H   0  0  0  0  0  0  0  0  0  0  0  0
  -18.0960  -27.9710   22.8790 C   0  0  0  0  0  0  0  0  0  0  0  0
  -20.6200  -28.4160   23.2400 C   0  0  0  0  0  3  0  0  0  0  0  0
  -20.8470  -26.9860   22.7010 C   0  0  0  0  0  2  0  0  0  0  0  0
  -19.8100  -26.5690   21.6530 C   0  0  0  0  0  2  0  0  0  0  0  0
  -18.3940  -26.6260   22.2360 C   0  0  0  0  0  2  0  0  0  0  0  0
  -19.1410  -28.8190   23.3340 C   0  0  0  0  0  0  0  0  0  0  0  0
  -18.8120  -30.0710   23.8970 C   0  0  0  0  0  3  0  0  0  0  0  0
  -17.4690  -30.4780   24.0110 C   0  0  0  0  0  3  0  0  0  0  0  0
  -16.4380  -29.6320   23.5690 C   0  0  0  0  0  3  0  0  0  0  0  0
  -16.7530  -28.3810   23.0070 C   0  0  0  0  0  3  0  0  0  0  0  0
  -25.9010  -32.6430   23.9190 C   0  0  0  0  0  3  0  0  0  0  0  0
  -25.6130  -34.0480   24.2460 N   0  0  0  0  0  0  0  0  0  0  0  0
  -25.9310  -35.0910   23.4680 C   0  0  0  0  0  0  0  0  0  0  0  0
  -26.5710  -34.9720   22.4190 O   0  0  0  0  0  0  0  0  0  0  0  0
  -25.0580  -34.2170   25.0710 H   0  0  0  0  0  0  0  0  0  0  0  0
  -24.2070  -36.8990   23.1600 C   0  0  0  0  0  1  0  0  0  0  0  0
  -25.4730  -36.4900   23.9310 C   0  0  0  0  0  3  0  0  0  0  0  0
  -27.6400  -37.3670   24.6900 C   0  0  0  0  0  1  0  0  0  0  0  0
  -26.5110  -37.5330   23.7760 N   0  0  0  0  0  0  0  0  0  0  0  0
  -26.1170  -38.4550   23.9400 H   0  0  0  0  0  0  0  0  0  0  0  0
  -26.4140  -31.8790   25.2010 C   0  0  1  0  0  0  0  0  0  0  0  0
  -25.3140  -31.6450   26.2630 C   0  0  0  0  0  1  0  0  0  0  0  0
  -26.9970  -30.4970   24.8240 C   0  0  0  0  0  1  0  0  0  0  0  0
  -27.5680  -32.6750   25.8590 C   0  0  0  0  0  1  0  0  0  0  0  0
  -30.1670  -18.1270   19.5950 C   0  0  0  0  0  0  0  0  0  0  0  0
  -30.5400  -15.3630   19.9560 C   0  0  0  0  0  0  0  0  0  0  0  0
  -30.4430  -12.9160   19.2550 C   0  0  0  0  0  2  0  0  0  0  0  0
  -29.4970  -12.6330   18.0650 C   0  0  0  0  0  2  0  0  0  0  0  0
  -28.0610  -12.3960   18.5630 C   0  0  0  0  0  2  0  0  0  0  0  0
  -27.6170  -13.4300   19.6250 C   0  0  0  0  0  3  0  0  0  0  0  0
  -28.6980  -13.6710   20.7070 C   0  0  0  0  0  2  0  0  0  0  0  0
  -29.9300  -14.0960   20.0170 N   0  0  0  0  0  0  0  0  0  0  0  0
  -31.7300  -15.3660   19.6380 O   0  0  0  0  0  0  0  0  0  0  0  0
  -29.8260  -16.6100   20.0260 N   0  0  0  0  0  4  0  0  0  0  0  0
  -28.8470  -16.4750   20.2360 H   0  0  0  0  0  0  0  0  0  0  0  0
  -25.2760  -13.9550   20.5150 C   0  0  0  0  0  0  0  0  0  0  0  0
  -24.2390  -13.1590   20.9060 C   0  0  0  0  0  0  0  0  0  0  0  0
  -24.7060  -11.8120   20.7930 C   0  0  0  0  0  0  0  0  0  0  0  0
  -26.3120  -13.0960   20.1870 N   0  0  0  0  0  0  0  0  0  0  0  0
  -25.9820  -11.7970   20.4180 N   0  0  0  0  0  0  0  0  0  0  0  0
  -23.9920  -10.5400   20.9650 C   0  0  0  0  0  0  0  0  0  0  0  0
  -24.4230   -9.5700   21.8970 C   0  0  0  0  0  3  0  0  0  0  0  0
  -23.7060   -8.3630   22.0600 C   0  0  0  0  0  3  0  0  0  0  0  0
  -22.5450   -8.1190   21.2920 C   0  0  0  0  0  0  0  0  0  0  0  0
  -22.1300   -9.0790   20.3480 C   0  0  0  0  0  3  0  0  0  0  0  0
  -22.8470  -10.2760   20.1840 C   0  0  0  0  0  3  0  0  0  0  0  0
  -21.7990   -6.9690   21.3640 O   0  0  0  0  0  0  0  0  0  0  0  0
  -21.6750   -6.2620   22.5340 C   0  0  0  0  0  0  0  0  0  0  0  0
  -21.1230   -6.8410   23.6990 C   0  0  0  0  0  3  0  0  0  0  0  0
  -20.9540   -6.0630   24.8610 C   0  0  0  0  0  3  0  0  0  0  0  0
  -21.3240   -4.7040   24.8590 C   0  0  0  0  0  0  0  0  0  0  0  0
  -21.8650   -4.1230   23.6970 C   0  0  0  0  0  3  0  0  0  0  0  0
  -22.0380   -4.9010   22.5380 C   0  0  0  0  0  0  0  0  0  0  0  0
  -22.5440   -4.3300   21.4180 F   0  0  0  0  0  0  0  0  0  0  0  0
  -21.1520   -3.9540   25.9720 F   0  0  0  0  0  0  0  0  0  0  0  0
  -22.8530  -13.6130   21.2670 C   0  0  0  0  0  0  0  0  0  0  0  0
  -22.1730  -12.8850   22.1380 N   0  0  0  0  0  0  0  0  0  0  0  0
  -22.3840  -14.6540   20.8020 O   0  0  0  0  0  0  0  0  0  0  0  0
  -22.5620  -12.0430   22.5380 H   0  0  0  0  0  0  0  0  0  0  0  0
  -21.2430  -13.1630   22.4190 H   0  0  0  0  0  0  0  0  0  0  0  0
  -25.4350  -15.3330   20.3860 N   0  0  0  0  0  0  0  0  0  0  0  0
  -24.6950  -15.9920   20.6100 H   0  0  0  0  0  0  0  0  0  0  0  0
  -26.2680  -15.7770   20.0210 H   0  0  0  0  0  0  0  0  0  0  0  0
  -31.6860  -18.4890   19.6680 C   0  0  0  0  0  2  0  0  0  0  0  0
  -33.7980  -19.3180   20.8090 C   0  0  0  0  0  1  0  0  0  0  0  0
  -32.3410  -18.8610   21.0210 C   0  0  0  0  0  2  0  0  0  0  0  0
  2  1  1  0
  3  4  1  0
  3  5  1  0
  4 50  1  0
  4  1  1  0
  5  6  1  1
  5  2  1  0
  7  5  1  0
  7  8  1  0
  9 11  1  0
  9  8  1  0
 10 21  2  0
 11 16  1  0
 12 20  1  0
 12 22  1  0
 13 19  1  0
 13 15  1  0
 14 20  1  0
 15 14  1  0
 16 15  2  0
 17 18  1  0
 17 11  2  0
 18 13  2  0
 19 12  1  0
 20 10  1  0
 22 24  2  0
 23 22  1  0
 25 23  1  0
 26 35  2  0
 26 31  1  0
 27 23  1  0
 27 31  1  0
 28 27  1  0
 29 30  1  0
 29 28  1  0
 30 26  1  0
 31 32  2  0
 32 33  1  0
 34 33  2  0
 35 34  1  0
 36 10  1  0
 36 37  1  0
 36 46  1  0
 37 40  1  0
 38 42  1  0
 38 37  1  0
 39 38  2  0
 42 41  1  0
 44 42  1  0
 44 45  1  0
 44 43  1  0
 46 49  1  1
 46 47  1  0
 48 46  1  0
 50 89  1  0
 50 59  2  0
 51 57  1  0
 51 59  1  0
 52 57  1  0
 53 54  1  0
 53 52  1  0
 55 54  1  0
 55 64  1  0
 55 56  1  0
 57 56  1  0
 58 51  2  0
 59 60  1  0
 61 62  2  0
 62 81  1  0
 63 62  1  0
 63 66  1  0
 64 65  1  0
 64 61  1  0
 65 63  2  0
 66 67  1  0
 67 68  2  0
 69 72  1  0
 69 68  1  0
 70 69  2  0
 71 70  1  0
 71 66  2  0
 72 73  1  0
 73 78  2  0
 73 74  1  0
 74 75  2  0
 76 75  1  0
 76 80  1  0
 77 76  2  0
 78 77  1  0
 79 78  1  0
 81 82  1  0
 82 85  1  0
 82 84  1  0
 83 81  2  0
 86 61  1  0
 86 87  1  0
 88 86  1  0
 89 91  1  0
 90 91  1  0
M  ISO  4   8 101   9 101  51 100  59 100
M  END
>  <TORSDO>  (54) 
F 21

>  <SCORE>  (54) 
-13.557

>  <name>  (54) 
53

>  <ligand_id>  (54) 
53

>  <original_smiles>  (54) 
[H]c1c([H])c([H])c2c(c1[H])C([H])([H])C([H])([H])C([H])([H])C2([H])N([H])C(=O)C1([H])N(C(=O)C([H])(N([H])C(=O)C([H])(N([H])C([H])([H])[H])C([H])([H])[H])C(C([H])([H])[H])(C([H])([H])[H])C([H])([H])[H])C([H])([H])c2c([H])c(OC([H])([H])C([H])([H])[N+]3([H])C([H])([H])C([H])([H])C([H])(C([H])(N([H])C(=O)N4C([H])([H])C([H])([H])C([H])([H])C([H])(n5nc(-c6c([H])c([H])c(Oc7c([H])c([H])c(F)c([H])c7F)c([H])c6[H])c(C(=O)N([H])[H])c5N([H])[H])C4([H])[H])C([H])([H])C([H])([H])C([H])([H])[H])C3([H])[H])c([H])c([H])c2C1([H])[H]

>  <smiles>  (54) 
[H]c1c([H])c([H])c2c(c1[H])C([H])([H])C([H])([H])C([H])([H])C2([H])N([H])C(=O)C1([H])N(C(=O)C([H])(N([H])C(=O)C([H])(N([H])C([H])([H])[H])C([H])([H])[H])C(C([H])([H])[H])(C([H])([H])[H])C([H])([H])[H])C([H])([H])c2c([H])c(OC([H])([H])C([H])([H])[N+]3([H])C([H])([H])C([H])([H])C([H])(C([H])(N([H])C(=O)N4C([H])([H])C([H])([H])C([H])([H])C([H])(n5nc(-c6c([H])c([H])c(Oc7c([H])c([H])c(F)c([H])c7F)c([H])c6[H])c(C(=O)N([H])[H])c5N([H])[H])C4([H])[H])C([H])([H])C([H])([H])C([H])([H])[H])C3([H])[H])c([H])c([H])c2C1([H])[H]

$$$$
54:0:0
     RDKit          3D

 87 95  0  0  1  0  0  0  0  0999 V2000
  -29.3230  -21.1210   19.6740 C   0  0  0  0  0  0  0  0  0  0  0  0
  -29.9310  -21.3330   18.6220 O   0  0  0  0  0  0  0  0  0  0  0  0
  -30.4570  -15.2590   19.5460 C   0  0  0  0  0  0  0  0  0  0  0  0
  -30.2560  -12.8750   18.5080 C   0  0  0  0  0  2  0  0  0  0  0  0
  -29.1690  -12.7480   17.4090 C   0  0  0  0  0  2  0  0  0  0  0  0
  -27.7890  -12.4670   18.0290 C   0  0  0  0  0  2  0  0  0  0  0  0
  -27.5210  -13.3600   19.2650 C   0  0  0  0  0  3  0  0  0  0  0  0
  -28.7200  -13.3920   20.2350 C   0  0  0  0  0  2  0  0  0  0  0  0
  -29.8520  -13.9630   19.4810 N   0  0  0  0  0  0  0  0  0  0  0  0
  -31.6040  -15.2470   19.0720 O   0  0  0  0  0  0  0  0  0  0  0  0
  -29.8910  -18.7670   21.2800 C   0  0  0  0  0  2  0  0  0  0  0  0
  -29.7010  -18.0130   19.1520 C   0  0  0  0  0  2  0  0  0  0  0  0
  -29.2100  -19.4010   20.0510 C   0  0  0  0  0  3  0  0  0  0  0  0
  -29.7040  -17.1630   21.2490 C   0  0  0  0  0  3  0  0  0  0  0  0
  -28.3500  -16.8390   21.9080 C   0  0  0  0  0  1  0  0  0  0  0  0
  -29.7870  -16.5660   19.8670 N   0  0  0  0  0  0  0  0  0  0  0  0
  -25.2980  -13.9070   20.3820 C   0  0  0  0  0  0  0  0  0  0  0  0
  -24.2740  -13.1260   20.8380 C   0  0  0  0  0  0  0  0  0  0  0  0
  -24.6900  -11.7730   20.6410 C   0  0  0  0  0  0  0  0  0  0  0  0
  -26.2690  -13.0330   19.9310 N   0  0  0  0  0  0  0  0  0  0  0  0
  -25.9240  -11.7380   20.1500 N   0  0  0  0  0  0  0  0  0  0  0  0
  -23.9580  -10.5140   20.8380 C   0  0  0  0  0  0  0  0  0  0  0  0
  -24.4510   -9.4950   21.6830 C   0  0  0  0  0  3  0  0  0  0  0  0
  -23.7170   -8.3050   21.8720 C   0  0  0  0  0  3  0  0  0  0  0  0
  -22.4750   -8.1270   21.2160 C   0  0  0  0  0  0  0  0  0  0  0  0
  -22.0000   -9.1320   20.3570 C   0  0  0  0  0  3  0  0  0  0  0  0
  -22.7330  -10.3150   20.1670 C   0  0  0  0  0  3  0  0  0  0  0  0
  -21.7040   -6.9940   21.3200 O   0  0  0  0  0  0  0  0  0  0  0  0
  -21.6940   -6.2330   22.4610 C   0  0  0  0  0  0  0  0  0  0  0  0
  -21.3350   -6.7750   23.7150 C   0  0  0  0  0  3  0  0  0  0  0  0
  -21.2720   -5.9420   24.8490 C   0  0  0  0  0  3  0  0  0  0  0  0
  -21.5560   -4.5680   24.7310 C   0  0  0  0  0  0  0  0  0  0  0  0
  -21.9090   -4.0270   23.4840 C   0  0  0  0  0  3  0  0  0  0  0  0
  -21.9740   -4.8570   22.3500 C   0  0  0  0  0  0  0  0  0  0  0  0
  -22.2940   -4.3260   21.1460 F   0  0  0  0  0  0  0  0  0  0  0  0
  -21.4880   -3.7660   25.8190 F   0  0  0  0  0  0  0  0  0  0  0  0
  -22.9430  -13.6120   21.3320 C   0  0  0  0  0  0  0  0  0  0  0  0
  -22.3300  -12.8820   22.2570 N   0  0  0  0  0  0  0  0  0  0  0  0
  -22.4600  -14.6700   20.9300 O   0  0  0  0  0  0  0  0  0  0  0  0
  -22.7360  -12.0220   22.5950 H   0  0  0  0  0  0  0  0  0  0  0  0
  -21.4420  -13.1890   22.6320 H   0  0  0  0  0  0  0  0  0  0  0  0
  -25.4800  -15.2830   20.2830 N   0  0  0  0  0  0  0  0  0  0  0  0
  -24.7740  -15.9530   20.5680 H   0  0  0  0  0  0  0  0  0  0  0  0
  -26.3110  -15.7170   19.9030 H   0  0  0  0  0  0  0  0  0  0  0  0
  -28.7610  -22.6000   20.4350 C   0  0  0  0  0  2  0  0  0  0  0  0
  -28.1970  -24.2050   19.8070 C   0  0  0  0  0  2  0  0  0  0  0  0
  -28.2140  -25.7890   20.2980 O   0  0  0  0  0  0  0  0  0  0  0  0
  -24.5440  -31.7450   23.1170 C   0  0  0  0  0  0  0  0  0  0  0  0
  -27.1940  -26.8750   20.1630 C   0  0  0  0  0  0  0  0  0  0  0  0
  -23.3910  -30.3310   21.4650 C   0  0  0  0  0  3  0  0  0  0  0  0
  -24.8770  -28.7350   20.0670 C   0  0  0  0  0  0  0  0  0  0  0  0
  -25.9560  -30.5630   21.3620 C   0  0  0  0  0  2  0  0  0  0  0  0
  -26.0480  -29.1520   20.7110 C   0  0  0  0  0  0  0  0  0  0  0  0
  -27.1970  -28.2420   20.7390 C   0  0  0  0  0  3  0  0  0  0  0  0
  -25.9970  -26.6160   19.4570 C   0  0  0  0  0  3  0  0  0  0  0  0
  -24.8790  -27.4900   19.4190 C   0  0  0  0  0  3  0  0  0  0  0  0
  -23.6480  -29.6430   20.0950 C   0  0  0  0  0  2  0  0  0  0  0  0
  -24.6520  -30.9080   22.0350 N   0  0  0  0  0  0  0  0  0  0  0  0
  -23.4440  -32.0280   23.6180 O   0  0  0  0  0  0  0  0  0  0  0  0
  -22.6900  -29.3340   22.4250 C   0  0  0  0  0  0  0  0  0  0  0  0
  -21.3630  -29.1610   22.2820 N   0  0  0  0  0  0  0  0  0  0  0  0
  -23.3490  -28.7150   23.2650 O   0  0  0  0  0  0  0  0  0  0  0  0
  -20.8850  -29.7090   21.5800 H   0  0  0  0  0  0  0  0  0  0  0  0
  -17.9810  -27.9330   22.7500 C   0  0  0  0  0  0  0  0  0  0  0  0
  -20.5360  -28.2200   23.0450 C   0  0  0  0  0  3  0  0  0  0  0  0
  -20.6560  -26.7870   22.4760 C   0  0  0  0  0  2  0  0  0  0  0  0
  -19.5700  -26.4530   21.4480 C   0  0  0  0  0  2  0  0  0  0  0  0
  -18.1790  -26.5860   22.0750 C   0  0  0  0  0  2  0  0  0  0  0  0
  -19.0880  -28.7070   23.1910 C   0  0  0  0  0  0  0  0  0  0  0  0
  -18.8480  -29.9650   23.7850 C   0  0  0  0  0  3  0  0  0  0  0  0
  -17.5370  -30.4510   23.9400 C   0  0  0  0  0  3  0  0  0  0  0  0
  -16.4450  -29.6750   23.5130 C   0  0  0  0  0  3  0  0  0  0  0  0
  -16.6680  -28.4180   22.9260 C   0  0  0  0  0  3  0  0  0  0  0  0
  -25.8000  -32.4030   23.7670 C   0  0  0  0  0  3  0  0  0  0  0  0
  -25.4560  -33.7950   24.1110 N   0  0  0  0  0  0  0  0  0  0  0  0
  -25.7700  -34.8670   23.3730 C   0  0  0  0  0  0  0  0  0  0  0  0
  -26.4400  -34.7930   22.3400 O   0  0  0  0  0  0  0  0  0  0  0  0
  -24.8570  -33.9250   24.9130 H   0  0  0  0  0  0  0  0  0  0  0  0
  -24.0070  -36.6410   23.0570 C   0  0  0  0  0  1  0  0  0  0  0  0
  -25.2610  -36.2430   23.8540 C   0  0  0  0  0  3  0  0  0  0  0  0
  -27.3810  -37.1600   24.6900 C   0  0  0  0  0  1  0  0  0  0  0  0
  -26.2730  -37.3170   23.7520 N   0  0  0  0  0  0  0  0  0  0  0  0
  -25.8500  -38.2270   23.9100 H   0  0  0  0  0  0  0  0  0  0  0  0
  -26.3050  -31.6360   25.0520 C   0  0  1  0  0  0  0  0  0  0  0  0
  -25.1950  -31.3780   26.0980 C   0  0  0  0  0  1  0  0  0  0  0  0
  -26.9190  -30.2680   24.6770 C   0  0  0  0  0  1  0  0  0  0  0  0
  -27.4280  -32.4480   25.7390 C   0  0  0  0  0  1  0  0  0  0  0  0
  1 45  1  0
  2  1  2  0
  3 16  1  0
  4  9  1  0
  5  6  1  0
  5  4  1  0
  7  6  1  0
  7 20  1  0
  7  8  1  0
  9  3  1  0
  9  8  1  0
 10  3  2  0
 12 16  1  0
 12 13  1  0
 13  1  1  0
 13 11  1  0
 14 11  1  0
 14 15  1  0
 16 14  1  0
 17 18  2  0
 18 37  1  0
 19 22  1  0
 19 18  1  0
 20 21  1  0
 20 17  1  0
 21 19  2  0
 22 23  1  0
 23 24  2  0
 25 28  1  0
 25 24  1  0
 26 25  2  0
 27 26  1  0
 27 22  2  0
 28 29  1  0
 29 30  1  0
 30 31  2  0
 32 31  1  0
 32 36  1  0
 33 32  2  0
 34 29  2  0
 34 33  1  0
 35 34  1  0
 37 38  1  0
 38 40  1  0
 38 41  1  0
 39 37  2  0
 42 17  1  0
 42 43  1  0
 44 42  1  0
 46 47  1  0
 46 45  1  0
 48 59  2  0
 49 47  1  0
 49 54  1  0
 50 58  1  0
 50 60  1  0
 51 57  1  0
 51 53  1  0
 52 58  1  0
 53 54  2  0
 53 52  1  0
 55 49  2  0
 56 55  1  0
 56 51  2  0
 57 50  1  0
 58 48  1  0
 60 62  2  0
 61 60  1  0
 63 61  1  0
 64 73  2  0
 64 69  1  0
 65 61  1  0
 65 69  1  0
 66 65  1  0
 67 68  1  0
 67 66  1  0
 68 64  1  0
 69 70  2  0
 70 71  1  0
 72 71  2  0
 73 72  1  0
 74 48  1  0
 74 75  1  0
 74 84  1  0
 75 78  1  0
 76 80  1  0
 76 75  1  0
 77 76  2  0
 80 79  1  0
 82 80  1  0
 82 83  1  0
 82 81  1  0
 84 87  1  1
 84 85  1  0
 86 84  1  0
M  ISO  4   3 100  16 100  46 101  47 101
M  END
>  <TORSDO>  (55) 
F 18

>  <SCORE>  (55) 
-12.737

>  <name>  (55) 
54

>  <ligand_id>  (55) 
54

>  <original_smiles>  (55) 
[H]c1c([H])c([H])c2c(c1[H])C([H])([H])C([H])([H])C([H])([H])C2([H])N([H])C(=O)C1([H])N(C(=O)C([H])(N([H])C(=O)C([H])(N([H])C([H])([H])[H])C([H])([H])[H])C(C([H])([H])[H])(C([H])([H])[H])C([H])([H])[H])C([H])([H])c2c([H])c(OC([H])([H])C([H])([H])C(=O)C3([H])C([H])([H])N(C(=O)N4C([H])([H])C([H])([H])C([H])([H])C([H])(n5nc(-c6c([H])c([H])c(Oc7c([H])c([H])c(F)c([H])c7F)c([H])c6[H])c(C(=O)N([H])[H])c5N([H])[H])C4([H])[H])C([H])(C([H])([H])[H])C3([H])[H])c([H])c([H])c2C1([H])[H]

>  <smiles>  (55) 
[H]c1c([H])c([H])c2c(c1[H])C([H])([H])C([H])([H])C([H])([H])C2([H])N([H])C(=O)C1([H])N(C(=O)C([H])(N([H])C(=O)C([H])(N([H])C([H])([H])[H])C([H])([H])[H])C(C([H])([H])[H])(C([H])([H])[H])C([H])([H])[H])C([H])([H])c2c([H])c(OC([H])([H])C([H])([H])C(=O)C3([H])C([H])([H])N(C(=O)N4C([H])([H])C([H])([H])C([H])([H])C([H])(n5nc(-c6c([H])c([H])c(Oc7c([H])c([H])c(F)c([H])c7F)c([H])c6[H])c(C(=O)N([H])[H])c5N([H])[H])C4([H])[H])C([H])(C([H])([H])[H])C3([H])[H])c([H])c([H])c2C1([H])[H]

$$$$
55:0:0
     RDKit          3D

 90 98  0  0  1  0  0  0  0  0999 V2000
  -28.3170  -19.7390   19.4230 C   0  0  0  0  0  2  0  0  0  0  0  0
  -28.0600  -21.0710   19.3780 C   0  0  0  0  0  2  0  0  0  0  0  0
  -29.1510  -19.3060   20.6230 C   0  0  0  0  0  3  0  0  0  0  0  0
  -28.6420  -21.8450   20.5520 C   0  0  0  0  0  3  0  0  0  0  0  0
  -29.6640  -20.7390   20.9410 N   0  0  0  0  0  4  0  0  0  0  0  0
  -30.4890  -20.8910   20.3840 H   0  0  0  0  0  0  0  0  0  0  0  0
  -29.9240  -20.8190   21.9100 H   0  0  0  0  0  0  0  0  0  0  0  0
  -31.3950  -18.1800   21.3660 C   0  0  0  0  0  1  0  0  0  0  0  0
  -30.1660  -17.9640   20.4630 C   0  0  0  0  0  3  0  0  0  0  0  0
  -29.6500  -16.3730   20.6750 C   0  0  0  0  0  2  0  0  0  0  0  0
  -30.4920  -14.9820   20.3470 C   0  0  0  0  0  0  0  0  0  0  0  0
  -30.3600  -12.6630   19.3360 C   0  0  0  0  0  2  0  0  0  0  0  0
  -29.4050  -12.6940   18.1190 C   0  0  0  0  0  2  0  0  0  0  0  0
  -27.9430  -12.4850   18.5600 C   0  0  0  0  0  2  0  0  0  0  0  0
  -27.5650  -13.3670   19.7780 C   0  0  0  0  0  3  0  0  0  0  0  0
  -28.6360  -13.3130   20.8870 C   0  0  0  0  0  2  0  0  0  0  0  0
  -29.9170  -13.7150   20.2920 N   0  0  0  0  0  0  0  0  0  0  0  0
  -31.6730  -15.0680   20.0000 O   0  0  0  0  0  0  0  0  0  0  0  0
  -25.1910  -13.9360   20.5540 C   0  0  0  0  0  0  0  0  0  0  0  0
  -24.1310  -13.1550   20.9200 C   0  0  0  0  0  0  0  0  0  0  0  0
  -24.5940  -11.8050   20.8620 C   0  0  0  0  0  0  0  0  0  0  0  0
  -26.2320  -13.0620   20.2860 N   0  0  0  0  0  0  0  0  0  0  0  0
  -25.8820  -11.7740   20.5380 N   0  0  0  0  0  0  0  0  0  0  0  0
  -23.8690  -10.5390   21.0410 C   0  0  0  0  0  0  0  0  0  0  0  0
  -24.2980   -9.5660   21.9690 C   0  0  0  0  0  3  0  0  0  0  0  0
  -23.5740   -8.3670   22.1360 C   0  0  0  0  0  3  0  0  0  0  0  0
  -22.4050   -8.1320   21.3720 C   0  0  0  0  0  0  0  0  0  0  0  0
  -21.9950   -9.0950   20.4340 C   0  0  0  0  0  3  0  0  0  0  0  0
  -22.7200  -10.2860   20.2650 C   0  0  0  0  0  3  0  0  0  0  0  0
  -21.6510   -6.9850   21.4480 O   0  0  0  0  0  0  0  0  0  0  0  0
  -21.5760   -6.2490   22.6040 C   0  0  0  0  0  0  0  0  0  0  0  0
  -21.0840   -6.8000   23.8070 C   0  0  0  0  0  3  0  0  0  0  0  0
  -20.9570   -5.9890   24.9520 C   0  0  0  0  0  3  0  0  0  0  0  0
  -21.3120   -4.6280   24.8950 C   0  0  0  0  0  0  0  0  0  0  0  0
  -21.7950   -4.0760   23.6950 C   0  0  0  0  0  3  0  0  0  0  0  0
  -21.9230   -4.8850   22.5520 C   0  0  0  0  0  0  0  0  0  0  0  0
  -22.3690   -4.3420   21.3940 F   0  0  0  0  0  0  0  0  0  0  0  0
  -21.1820   -3.8470   25.9930 F   0  0  0  0  0  0  0  0  0  0  0  0
  -22.7360  -13.6280   21.2140 C   0  0  0  0  0  0  0  0  0  0  0  0
  -22.0160  -12.9170   22.0740 N   0  0  0  0  0  0  0  0  0  0  0  0
  -22.2950  -14.6640   20.7170 O   0  0  0  0  0  0  0  0  0  0  0  0
  -22.3860  -12.0780   22.4960 H   0  0  0  0  0  0  0  0  0  0  0  0
  -21.0810  -13.2140   22.3120 H   0  0  0  0  0  0  0  0  0  0  0  0
  -25.3540  -15.3100   20.3980 N   0  0  0  0  0  0  0  0  0  0  0  0
  -24.5900  -15.9620   20.5350 H   0  0  0  0  0  0  0  0  0  0  0  0
  -26.2030  -15.7560   20.0760 H   0  0  0  0  0  0  0  0  0  0  0  0
  -29.8830  -23.8670   21.6250 C   0  0  0  0  0  1  0  0  0  0  0  0
  -29.0570  -23.4760   20.3890 C   0  0  0  0  0  3  0  0  0  0  0  0
  -27.9560  -24.7220   20.1580 C   0  0  0  0  0  2  0  0  0  0  0  0
  -28.2310  -26.2490   20.2340 O   0  0  0  0  0  0  0  0  0  0  0  0
  -24.5990  -31.9030   23.2390 C   0  0  0  0  0  0  0  0  0  0  0  0
  -27.1640  -27.2140   20.1840 C   0  0  0  0  0  0  0  0  0  0  0  0
  -23.3900  -30.5100   21.6040 C   0  0  0  0  0  3  0  0  0  0  0  0
  -24.8300  -28.9420   20.1690 C   0  0  0  0  0  0  0  0  0  0  0  0
  -25.9410  -30.7840   21.4230 C   0  0  0  0  0  2  0  0  0  0  0  0
  -26.0130  -29.3950   20.7680 C   0  0  0  0  0  0  0  0  0  0  0  0
  -27.1820  -28.5470   20.7560 C   0  0  0  0  0  3  0  0  0  0  0  0
  -25.9530  -26.8580   19.5510 C   0  0  0  0  0  3  0  0  0  0  0  0
  -24.8120  -27.6870   19.5450 C   0  0  0  0  0  3  0  0  0  0  0  0
  -23.6010  -29.8360   20.2230 C   0  0  0  0  0  2  0  0  0  0  0  0
  -24.6640  -31.0860   22.1430 N   0  0  0  0  0  0  0  0  0  0  0  0
  -23.5160  -32.1870   23.7730 O   0  0  0  0  0  0  0  0  0  0  0  0
  -22.7190  -29.5000   22.5680 C   0  0  0  0  0  0  0  0  0  0  0  0
  -21.3920  -29.3230   22.4430 N   0  0  0  0  0  0  0  0  0  0  0  0
  -23.3960  -28.8770   23.3900 O   0  0  0  0  0  0  0  0  0  0  0  0
  -20.9030  -29.8770   21.7550 H   0  0  0  0  0  0  0  0  0  0  0  0
  -18.0160  -28.1160   22.9560 C   0  0  0  0  0  0  0  0  0  0  0  0
  -20.5750  -28.3840   23.2160 C   0  0  0  0  0  3  0  0  0  0  0  0
  -20.6780  -26.9510   22.6430 C   0  0  0  0  0  2  0  0  0  0  0  0
  -19.5750  -26.6250   21.6320 C   0  0  0  0  0  2  0  0  0  0  0  0
  -18.1940  -26.7660   22.2800 C   0  0  0  0  0  2  0  0  0  0  0  0
  -19.1340  -28.8820   23.3820 C   0  0  0  0  0  0  0  0  0  0  0  0
  -18.9130  -30.1420   23.9770 C   0  0  0  0  0  3  0  0  0  0  0  0
  -17.6070  -30.6380   24.1490 C   0  0  0  0  0  3  0  0  0  0  0  0
  -16.5040  -29.8690   23.7390 C   0  0  0  0  0  3  0  0  0  0  0  0
  -16.7100  -28.6110   23.1480 C   0  0  0  0  0  3  0  0  0  0  0  0
  -25.8810  -32.5370   23.8590 C   0  0  0  0  0  3  0  0  0  0  0  0
  -26.3990  -31.7670   25.1380 C   0  0  1  0  0  0  0  0  0  0  0  0
  -25.3040  -31.5290   26.2050 C   0  0  0  0  0  1  0  0  0  0  0  0
  -26.9840  -30.3890   24.7500 C   0  0  0  0  0  1  0  0  0  0  0  0
  -27.5490  -32.5630   25.7970 C   0  0  0  0  0  1  0  0  0  0  0  0
  -25.5710  -33.9360   24.1940 N   0  0  0  0  0  0  0  0  0  0  0  0
  -25.8900  -34.9920   23.4360 C   0  0  0  0  0  0  0  0  0  0  0  0
  -26.5420  -34.8930   22.3930 O   0  0  0  0  0  0  0  0  0  0  0  0
  -24.9890  -34.0890   25.0050 H   0  0  0  0  0  0  0  0  0  0  0  0
  -24.1540  -36.7880   23.1210 C   0  0  0  0  0  1  0  0  0  0  0  0
  -25.4110  -36.3800   23.9080 C   0  0  0  0  0  3  0  0  0  0  0  0
  -27.5550  -37.2710   24.7050 C   0  0  0  0  0  1  0  0  0  0  0  0
  -26.4390  -37.4340   23.7770 N   0  0  0  0  0  0  0  0  0  0  0  0
  -26.0350  -38.3540   23.9280 H   0  0  0  0  0  0  0  0  0  0  0  0
  1  3  1  0
  2  1  1  0
  2  4  1  0
  3  9  1  0
  3  5  1  0
  4 48  1  0
  4  5  1  0
  5  7  1  0
  6  5  1  0
  9 10  1  0
  9  8  1  0
 11 10  1  0
 12 17  1  0
 13 14  1  0
 13 12  1  0
 15 14  1  0
 15 22  1  0
 15 16  1  0
 17 11  1  0
 17 16  1  0
 18 11  2  0
 19 20  2  0
 20 39  1  0
 21 20  1  0
 21 24  1  0
 22 23  1  0
 22 19  1  0
 23 21  2  0
 24 25  1  0
 25 26  2  0
 27 30  1  0
 27 26  1  0
 28 27  2  0
 29 28  1  0
 29 24  2  0
 30 31  1  0
 31 32  1  0
 32 33  2  0
 34 33  1  0
 34 38  1  0
 35 34  2  0
 36 31  2  0
 36 35  1  0
 37 36  1  0
 39 40  1  0
 40 43  1  0
 40 42  1  0
 41 39  2  0
 44 45  1  0
 44 19  1  0
 46 44  1  0
 48 47  1  0
 49 50  1  0
 49 48  1  0
 51 62  2  0
 52 50  1  0
 52 57  1  0
 53 61  1  0
 53 63  1  0
 54 60  1  0
 54 56  1  0
 55 61  1  0
 56 55  1  0
 57 56  2  0
 58 52  2  0
 59 58  1  0
 59 54  2  0
 60 53  1  0
 61 51  1  0
 63 65  2  0
 64 63  1  0
 66 64  1  0
 67 76  2  0
 67 72  1  0
 68 64  1  0
 68 72  1  0
 69 68  1  0
 70 71  1  0
 70 69  1  0
 71 67  1  0
 72 73  2  0
 73 74  1  0
 75 74  2  0
 76 75  1  0
 77 51  1  0
 77 82  1  0
 77 78  1  0
 78 81  1  1
 78 79  1  0
 80 78  1  0
 82 85  1  0
 83 87  1  0
 83 82  1  0
 84 83  2  0
 87 86  1  0
 89 87  1  0
 89 90  1  0
 89 88  1  0
M  ISO  4  10 100  11 100  49 101  50 101
M  END
>  <TORSDO>  (56) 
F 20

>  <SCORE>  (56) 
-13.971

>  <name>  (56) 
55

>  <ligand_id>  (56) 
55

>  <original_smiles>  (56) 
[H]C1=C([H])C([H])(C([H])(C([H])([H])[H])C([H])([H])C(=O)N2C([H])([H])C([H])([H])C([H])([H])C([H])(n3nc(-c4c([H])c([H])c(Oc5c([H])c([H])c(F)c([H])c5F)c([H])c4[H])c(C(=O)N([H])[H])c3N([H])[H])C2([H])[H])[N+]([H])([H])C1([H])C([H])(C([H])([H])[H])C([H])([H])Oc1c([H])c([H])c2c(c1[H])C([H])([H])N(C(=O)C([H])(N([H])C(=O)C([H])(N([H])C([H])([H])[H])C([H])([H])[H])C(C([H])([H])[H])(C([H])([H])[H])C([H])([H])[H])C([H])(C(=O)N([H])C1([H])c3c([H])c([H])c([H])c([H])c3C([H])([H])C([H])([H])C1([H])[H])C2([H])[H]

>  <smiles>  (56) 
[H]C1=C([H])C([H])(C([H])(C([H])([H])[H])C([H])([H])C(=O)N2C([H])([H])C([H])([H])C([H])([H])C([H])(n3nc(-c4c([H])c([H])c(Oc5c([H])c([H])c(F)c([H])c5F)c([H])c4[H])c(C(=O)N([H])[H])c3N([H])[H])C2([H])[H])[N+]([H])([H])C1([H])C([H])(C([H])([H])[H])C([H])([H])Oc1c([H])c([H])c2c(c1[H])C([H])([H])N(C(=O)C([H])(N([H])C(=O)C([H])(N([H])C([H])([H])[H])C([H])([H])[H])C(C([H])([H])[H])(C([H])([H])[H])C([H])([H])[H])C([H])(C(=O)N([H])C1([H])c3c([H])c([H])c([H])c([H])c3C([H])([H])C([H])([H])C1([H])[H])C2([H])[H]

$$$$
56:0:0
     RDKit          3D

 88 96  0  0  1  0  0  0  0  0999 V2000
  -30.5580  -20.6760   20.1370 C   0  0  0  0  0  3  0  0  0  0  0  0
  -28.2760  -20.3300   20.3140 C   0  0  0  0  0  3  0  0  0  0  0  0
  -30.8100  -19.2220   20.1400 C   0  0  0  0  0  3  0  0  0  0  0  0
  -28.5280  -18.8710   20.3090 C   0  0  0  0  0  3  0  0  0  0  0  0
  -29.2810  -21.3690   20.2500 C   0  0  0  0  0  0  0  0  0  0  0  0
  -29.8120  -18.1790   20.2430 C   0  0  0  0  0  0  0  0  0  0  0  0
  -29.1740  -23.0700   20.4710 C   0  0  0  0  0  3  0  0  0  0  0  0
  -28.0700  -24.3630   20.0720 C   0  0  0  0  0  3  0  0  0  0  0  0
  -28.2600  -25.9530   20.2440 O   0  0  0  0  0  0  0  0  0  0  0  0
  -24.6490  -31.8410   23.0710 C   0  0  0  0  0  0  0  0  0  0  0  0
  -27.2110  -26.9770   20.1540 C   0  0  0  0  0  0  0  0  0  0  0  0
  -23.4410  -30.3930   21.4850 C   0  0  0  0  0  3  0  0  0  0  0  0
  -24.8820  -28.7710   20.0880 C   0  0  0  0  0  0  0  0  0  0  0  0
  -25.9970  -30.6410   21.2930 C   0  0  0  0  0  2  0  0  0  0  0  0
  -26.0700  -29.2230   20.6760 C   0  0  0  0  0  0  0  0  0  0  0  0
  -27.2310  -28.3450   20.6840 C   0  0  0  0  0  3  0  0  0  0  0  0
  -25.9930  -26.6470   19.5210 C   0  0  0  0  0  3  0  0  0  0  0  0
  -24.8630  -27.5000   19.4910 C   0  0  0  0  0  3  0  0  0  0  0  0
  -23.6540  -29.6750   20.1250 C   0  0  0  0  0  2  0  0  0  0  0  0
  -24.7170  -30.9850   22.0030 N   0  0  0  0  0  0  0  0  0  0  0  0
  -23.5660  -32.1360   23.6000 O   0  0  0  0  0  0  0  0  0  0  0  0
  -22.7710  -29.4170   22.4850 C   0  0  0  0  0  0  0  0  0  0  0  0
  -21.4410  -29.2400   22.3790 N   0  0  0  0  0  0  0  0  0  0  0  0
  -23.4510  -28.8200   23.3230 O   0  0  0  0  0  0  0  0  0  0  0  0
  -20.9470  -29.7730   21.6760 H   0  0  0  0  0  0  0  0  0  0  0  0
  -18.0720  -28.0290   22.9530 C   0  0  0  0  0  0  0  0  0  0  0  0
  -20.6310  -28.3190   23.1830 C   0  0  0  0  0  3  0  0  0  0  0  0
  -20.7380  -26.8720   22.6500 C   0  0  0  0  0  2  0  0  0  0  0  0
  -19.6280  -26.5110   21.6570 C   0  0  0  0  0  2  0  0  0  0  0  0
  -18.2520  -26.6640   22.3100 C   0  0  0  0  0  2  0  0  0  0  0  0
  -19.1880  -28.8130   23.3480 C   0  0  0  0  0  0  0  0  0  0  0  0
  -18.9640  -30.0870   23.9120 C   0  0  0  0  0  3  0  0  0  0  0  0
  -17.6570  -30.5790   24.0820 C   0  0  0  0  0  3  0  0  0  0  0  0
  -16.5540  -29.7940   23.7010 C   0  0  0  0  0  3  0  0  0  0  0  0
  -16.7630  -28.5210   23.1420 C   0  0  0  0  0  3  0  0  0  0  0  0
  -25.9270  -32.5030   23.6700 C   0  0  0  0  0  3  0  0  0  0  0  0
  -26.5040  -31.7220   24.9160 C   0  0  1  0  0  0  0  0  0  0  0  0
  -25.4490  -31.4290   26.0100 C   0  0  0  0  0  1  0  0  0  0  0  0
  -27.1190  -30.3710   24.4850 C   0  0  0  0  0  1  0  0  0  0  0  0
  -27.6480  -32.5400   25.5600 C   0  0  0  0  0  1  0  0  0  0  0  0
  -25.5840  -33.8840   24.0490 N   0  0  0  0  0  0  0  0  0  0  0  0
  -25.8750  -34.9740   23.3260 C   0  0  0  0  0  0  0  0  0  0  0  0
  -26.5250  -34.9220   22.2780 O   0  0  0  0  0  0  0  0  0  0  0  0
  -25.0000  -33.9930   24.8650 H   0  0  0  0  0  0  0  0  0  0  0  0
  -24.1090  -36.7490   23.0650 C   0  0  0  0  0  1  0  0  0  0  0  0
  -25.3670  -36.3350   23.8430 C   0  0  0  0  0  3  0  0  0  0  0  0
  -27.4940  -37.2310   24.6830 C   0  0  0  0  0  1  0  0  0  0  0  0
  -26.3790  -37.4120   23.7600 N   0  0  0  0  0  0  0  0  0  0  0  0
  -25.9570  -38.3170   23.9460 H   0  0  0  0  0  0  0  0  0  0  0  0
  -30.0260  -16.5240   20.6530 C   0  0  0  0  0  3  0  0  0  0  0  0
  -30.6820  -15.1290   19.8830 C   0  0  0  0  0  0  0  0  0  0  0  0
  -30.4890  -12.7880   18.8010 C   0  0  0  0  0  2  0  0  0  0  0  0
  -29.4400  -12.7640   17.6610 C   0  0  0  0  0  2  0  0  0  0  0  0
  -28.0250  -12.5190   18.2160 C   0  0  0  0  0  2  0  0  0  0  0  0
  -27.7360  -13.3930   19.4620 C   0  0  0  0  0  3  0  0  0  0  0  0
  -28.8900  -13.3560   20.4820 C   0  0  0  0  0  2  0  0  0  0  0  0
  -30.0980  -13.8430   19.7960 N   0  0  0  0  0  0  0  0  0  0  0  0
  -31.8080  -15.1960   19.3680 O   0  0  0  0  0  0  0  0  0  0  0  0
  -25.4570  -13.9660   20.4670 C   0  0  0  0  0  0  0  0  0  0  0  0
  -24.4160  -13.1910   20.8970 C   0  0  0  0  0  0  0  0  0  0  0  0
  -24.8440  -11.8350   20.7490 C   0  0  0  0  0  0  0  0  0  0  0  0
  -26.4490  -13.0840   20.0740 N   0  0  0  0  0  0  0  0  0  0  0  0
  -26.0970  -11.7930   20.3110 N   0  0  0  0  0  0  0  0  0  0  0  0
  -24.1080  -10.5790   20.9420 C   0  0  0  0  0  0  0  0  0  0  0  0
  -24.5700   -9.5800   21.8290 C   0  0  0  0  0  3  0  0  0  0  0  0
  -23.8330   -8.3900   22.0120 C   0  0  0  0  0  3  0  0  0  0  0  0
  -22.6220   -8.1890   21.3110 C   0  0  0  0  0  0  0  0  0  0  0  0
  -22.1770   -9.1760   20.4130 C   0  0  0  0  0  3  0  0  0  0  0  0
  -22.9140  -10.3580   20.2270 C   0  0  0  0  0  3  0  0  0  0  0  0
  -21.8540   -7.0530   21.4060 O   0  0  0  0  0  0  0  0  0  0  0  0
  -21.8090   -6.3090   22.5580 C   0  0  0  0  0  0  0  0  0  0  0  0
  -21.4100   -6.8690   23.7910 C   0  0  0  0  0  3  0  0  0  0  0  0
  -21.3100   -6.0530   24.9350 C   0  0  0  0  0  3  0  0  0  0  0  0
  -21.6000   -4.6780   24.8490 C   0  0  0  0  0  0  0  0  0  0  0  0
  -21.9920   -4.1170   23.6200 C   0  0  0  0  0  3  0  0  0  0  0  0
  -22.0930   -4.9310   22.4770 C   0  0  0  0  0  0  0  0  0  0  0  0
  -22.4510   -4.3810   21.2910 F   0  0  0  0  0  0  0  0  0  0  0  0
  -21.4960   -3.8920   25.9450 F   0  0  0  0  0  0  0  0  0  0  0  0
  -23.0630  -13.6790   21.3250 C   0  0  0  0  0  0  0  0  0  0  0  0
  -22.4210  -12.9730   22.2490 N   0  0  0  0  0  0  0  0  0  0  0  0
  -22.5890  -14.7210   20.8750 O   0  0  0  0  0  0  0  0  0  0  0  0
  -22.8200  -12.1290   22.6320 H   0  0  0  0  0  0  0  0  0  0  0  0
  -21.5180  -13.2820   22.5780 H   0  0  0  0  0  0  0  0  0  0  0  0
  -25.6360  -15.3410   20.3480 N   0  0  0  0  0  0  0  0  0  0  0  0
  -24.8970  -16.0010   20.5680 H   0  0  0  0  0  0  0  0  0  0  0  0
  -26.4510  -15.7810   19.9430 H   0  0  0  0  0  0  0  0  0  0  0  0
  -30.6150  -15.3720   22.9520 C   0  0  0  0  0  1  0  0  0  0  0  0
  -30.7280  -16.6030   22.0360 C   0  0  0  0  0  2  0  0  0  0  0  0
  1  3  2  0
  1  5  1  0
  3  6  1  0
  4  2  1  0
  5  2  2  0
  5  7  1  0
  6  4  2  0
  6 50  1  0
  8  9  1  0
  8  7  2  0
 10 21  2  0
 11  9  1  0
 11 16  1  0
 12 20  1  0
 12 22  1  0
 13 19  1  0
 13 15  1  0
 14 20  1  0
 15 16  2  0
 15 14  1  0
 17 11  2  0
 18 17  1  0
 18 13  2  0
 19 12  1  0
 20 10  1  0
 22 24  2  0
 23 22  1  0
 25 23  1  0
 26 35  2  0
 26 31  1  0
 27 23  1  0
 27 31  1  0
 28 27  1  0
 29 30  1  0
 29 28  1  0
 30 26  1  0
 31 32  2  0
 32 33  1  0
 34 33  2  0
 35 34  1  0
 36 10  1  0
 36 41  1  0
 36 37  1  0
 37 40  1  1
 37 38  1  0
 39 37  1  0
 41 44  1  0
 42 46  1  0
 42 41  1  0
 43 42  2  0
 46 45  1  0
 48 46  1  0
 48 49  1  0
 48 47  1  0
 50 88  1  0
 51 50  1  0
 52 57  1  0
 53 54  1  0
 53 52  1  0
 55 54  1  0
 55 62  1  0
 55 56  1  0
 57 51  1  0
 57 56  1  0
 58 51  2  0
 59 60  2  0
 60 79  1  0
 61 60  1  0
 61 64  1  0
 62 63  1  0
 62 59  1  0
 63 61  2  0
 64 65  1  0
 65 66  2  0
 67 70  1  0
 67 66  1  0
 68 67  2  0
 69 68  1  0
 69 64  2  0
 70 71  1  0
 71 72  1  0
 72 73  2  0
 74 73  1  0
 74 78  1  0
 75 74  2  0
 76 71  2  0
 76 75  1  0
 77 76  1  0
 79 80  1  0
 80 83  1  0
 80 82  1  0
 81 79  2  0
 84 59  1  0
 84 85  1  0
 86 84  1  0
 88 87  1  0
M  ISO  4   8 101   9 101  50 100  51 100
M  END
>  <TORSDO>  (57) 
F 20

>  <SCORE>  (57) 
-13.590

>  <name>  (57) 
56

>  <ligand_id>  (57) 
56

>  <original_smiles>  (57) 
[H]c1c([H])c([H])c2c(c1[H])C([H])([H])C([H])([H])C([H])([H])C2([H])N([H])C(=O)C1([H])N(C(=O)C([H])(N([H])C(=O)C([H])(N([H])C([H])([H])[H])C([H])([H])[H])C(C([H])([H])[H])(C([H])([H])[H])C([H])([H])[H])C([H])([H])c2c([H])c(OC([H])([H])C([H])([H])c3c([H])c([H])c(C([H])(C(=O)N4C([H])([H])C([H])([H])C([H])([H])C([H])(n5nc(-c6c([H])c([H])c(Oc7c([H])c([H])c(F)c([H])c7F)c([H])c6[H])c(C(=O)N([H])[H])c5N([H])[H])C4([H])[H])C([H])([H])C([H])([H])[H])c([H])c3[H])c([H])c([H])c2C1([H])[H]

>  <smiles>  (57) 
[H]c1c([H])c([H])c2c(c1[H])C([H])([H])C([H])([H])C([H])([H])C2([H])N([H])C(=O)C1([H])N(C(=O)C([H])(N([H])C(=O)C([H])(N([H])C([H])([H])[H])C([H])([H])[H])C(C([H])([H])[H])(C([H])([H])[H])C([H])([H])[H])C([H])([H])c2c([H])c(OC([H])([H])C([H])([H])c3c([H])c([H])c(C([H])(C(=O)N4C([H])([H])C([H])([H])C([H])([H])C([H])(n5nc(-c6c([H])c([H])c(Oc7c([H])c([H])c(F)c([H])c7F)c([H])c6[H])c(C(=O)N([H])[H])c5N([H])[H])C4([H])[H])C([H])([H])C([H])([H])[H])c([H])c3[H])c([H])c([H])c2C1([H])[H]

$$$$
57:0:0
     RDKit          3D

 87 95  0  0  1  0  0  0  0  0999 V2000
  -30.3870  -20.0590   20.0790 C   0  0  0  0  0  0  0  0  0  0  0  0
  -28.4580  -19.6500   19.7040 C   0  0  0  0  0  2  0  0  0  0  0  0
  -29.7470  -18.6370   19.4990 C   0  0  0  0  0  3  0  0  0  0  0  0
  -29.2640  -20.9730   19.9120 N   0  0  0  0  0  0  0  0  0  0  0  0
  -31.4840  -20.3270   20.5250 O   0  0  0  0  0  0  0  0  0  0  0  0
  -29.0690  -22.6040   20.3720 C   0  0  0  0  0  3  0  0  0  0  0  0
  -28.1350  -24.1010   19.8980 C   0  0  0  0  0  3  0  0  0  0  0  0
  -28.2490  -25.7260   20.2810 O   0  0  0  0  0  0  0  0  0  0  0  0
  -24.5870  -31.6950   23.1710 C   0  0  0  0  0  0  0  0  0  0  0  0
  -27.2370  -26.8310   20.1790 C   0  0  0  0  0  0  0  0  0  0  0  0
  -23.4430  -30.3160   21.4840 C   0  0  0  0  0  3  0  0  0  0  0  0
  -24.9360  -28.7240   20.0830 C   0  0  0  0  0  0  0  0  0  0  0  0
  -26.0130  -30.5260   21.4140 C   0  0  0  0  0  2  0  0  0  0  0  0
  -26.1050  -29.1210   20.7440 C   0  0  0  0  0  0  0  0  0  0  0  0
  -27.2470  -28.1960   20.7650 C   0  0  0  0  0  3  0  0  0  0  0  0
  -26.0400  -26.5940   19.4660 C   0  0  0  0  0  3  0  0  0  0  0  0
  -24.9310  -27.4830   19.4230 C   0  0  0  0  0  3  0  0  0  0  0  0
  -23.7140  -29.6460   20.1070 C   0  0  0  0  0  2  0  0  0  0  0  0
  -24.7010  -30.8730   22.0770 N   0  0  0  0  0  0  0  0  0  0  0  0
  -23.4820  -31.9780   23.6650 O   0  0  0  0  0  0  0  0  0  0  0  0
  -22.7210  -29.3110   22.4200 C   0  0  0  0  0  0  0  0  0  0  0  0
  -21.3960  -29.1450   22.2550 N   0  0  0  0  0  0  0  0  0  0  0  0
  -23.3640  -28.6780   23.2620 O   0  0  0  0  0  0  0  0  0  0  0  0
  -20.9300  -29.7060   21.5550 H   0  0  0  0  0  0  0  0  0  0  0  0
  -18.0010  -27.9270   22.6640 C   0  0  0  0  0  0  0  0  0  0  0  0
  -20.5540  -28.1970   22.9930 C   0  0  0  0  0  3  0  0  0  0  0  0
  -20.6730  -26.7720   22.4020 C   0  0  0  0  0  2  0  0  0  0  0  0
  -19.5970  -26.4600   21.3570 C   0  0  0  0  0  2  0  0  0  0  0  0
  -18.2000  -26.5900   21.9690 C   0  0  0  0  0  2  0  0  0  0  0  0
  -19.1070  -28.6890   23.1310 C   0  0  0  0  0  0  0  0  0  0  0  0
  -18.8660  -29.9370   23.7420 C   0  0  0  0  0  3  0  0  0  0  0  0
  -17.5540  -30.4260   23.8920 C   0  0  0  0  0  3  0  0  0  0  0  0
  -16.4640  -29.6640   23.4380 C   0  0  0  0  0  3  0  0  0  0  0  0
  -16.6890  -28.4150   22.8310 C   0  0  0  0  0  3  0  0  0  0  0  0
  -25.8370  -32.3340   23.8480 C   0  0  0  0  0  3  0  0  0  0  0  0
  -26.2890  -31.5730   25.1560 C   0  0  1  0  0  0  0  0  0  0  0  0
  -25.1490  -31.3510   26.1760 C   0  0  0  0  0  1  0  0  0  0  0  0
  -26.8840  -30.1890   24.8120 C   0  0  0  0  0  1  0  0  0  0  0  0
  -27.4120  -32.3690   25.8630 C   0  0  0  0  0  1  0  0  0  0  0  0
  -25.5140  -33.7370   24.1680 N   0  0  0  0  0  0  0  0  0  0  0  0
  -25.8620  -34.7960   23.4230 C   0  0  0  0  0  0  0  0  0  0  0  0
  -26.5500  -34.6930   22.4040 O   0  0  0  0  0  0  0  0  0  0  0  0
  -24.9040  -33.8890   24.9570 H   0  0  0  0  0  0  0  0  0  0  0  0
  -24.1350  -36.5940   23.0630 C   0  0  0  0  0  1  0  0  0  0  0  0
  -25.3740  -36.1860   23.8780 C   0  0  0  0  0  3  0  0  0  0  0  0
  -27.5010  -37.0810   24.7200 C   0  0  0  0  0  1  0  0  0  0  0  0
  -26.4060  -37.2400   23.7670 N   0  0  0  0  0  0  0  0  0  0  0  0
  -25.9990  -38.1610   23.9040 H   0  0  0  0  0  0  0  0  0  0  0  0
  -30.0950  -16.9320   20.0980 C   0  0  0  0  0  3  0  0  0  0  0  0
  -30.5370  -15.3220   19.4280 C   0  0  0  0  0  0  0  0  0  0  0  0
  -30.3450  -12.8870   18.4680 C   0  0  0  0  0  2  0  0  0  0  0  0
  -29.2730  -12.7420   17.3540 C   0  0  0  0  0  2  0  0  0  0  0  0
  -27.8860  -12.4720   17.9580 C   0  0  0  0  0  2  0  0  0  0  0  0
  -27.6080  -13.3850   19.1780 C   0  0  0  0  0  3  0  0  0  0  0  0
  -28.8000  -13.4470   20.1620 C   0  0  0  0  0  2  0  0  0  0  0  0
  -29.9510  -14.0050   19.4230 N   0  0  0  0  0  0  0  0  0  0  0  0
  -31.6470  -15.2670   18.8720 O   0  0  0  0  0  0  0  0  0  0  0  0
  -25.3500  -13.9390   20.2300 C   0  0  0  0  0  0  0  0  0  0  0  0
  -24.3360  -13.1660   20.7150 C   0  0  0  0  0  0  0  0  0  0  0  0
  -24.7660  -11.8120   20.5680 C   0  0  0  0  0  0  0  0  0  0  0  0
  -26.3450  -13.0640   19.8350 N   0  0  0  0  0  0  0  0  0  0  0  0
  -26.0090  -11.7720   20.0960 N   0  0  0  0  0  0  0  0  0  0  0  0
  -24.0360  -10.5570   20.7930 C   0  0  0  0  0  0  0  0  0  0  0  0
  -24.5150   -9.5690   21.6810 C   0  0  0  0  0  3  0  0  0  0  0  0
  -23.7810   -8.3840   21.8970 C   0  0  0  0  0  3  0  0  0  0  0  0
  -22.5520   -8.1770   21.2270 C   0  0  0  0  0  0  0  0  0  0  0  0
  -22.0890   -9.1530   20.3270 C   0  0  0  0  0  3  0  0  0  0  0  0
  -22.8250  -10.3310   20.1080 C   0  0  0  0  0  3  0  0  0  0  0  0
  -21.7830   -7.0450   21.3560 O   0  0  0  0  0  0  0  0  0  0  0  0
  -21.7410   -6.3340   22.5290 C   0  0  0  0  0  0  0  0  0  0  0  0
  -21.3400   -6.9270   23.7450 C   0  0  0  0  0  3  0  0  0  0  0  0
  -21.2440   -6.1430   24.9120 C   0  0  0  0  0  3  0  0  0  0  0  0
  -21.5400   -4.7670   24.8640 C   0  0  0  0  0  0  0  0  0  0  0  0
  -21.9350   -4.1750   23.6520 C   0  0  0  0  0  3  0  0  0  0  0  0
  -22.0320   -4.9550   22.4870 C   0  0  0  0  0  0  0  0  0  0  0  0
  -22.3930   -4.3750   21.3180 F   0  0  0  0  0  0  0  0  0  0  0  0
  -21.4410   -4.0130   25.9830 F   0  0  0  0  0  0  0  0  0  0  0  0
  -22.9980  -13.6580   21.1860 C   0  0  0  0  0  0  0  0  0  0  0  0
  -22.3810  -12.9520   22.1250 N   0  0  0  0  0  0  0  0  0  0  0  0
  -22.5170  -14.7070   20.7570 O   0  0  0  0  0  0  0  0  0  0  0  0
  -22.7870  -12.1040   22.4910 H   0  0  0  0  0  0  0  0  0  0  0  0
  -21.4900  -13.2640   22.4830 H   0  0  0  0  0  0  0  0  0  0  0  0
  -25.4850  -15.3110   20.0560 N   0  0  0  0  0  0  0  0  0  0  0  0
  -24.7350  -15.9550   20.2800 H   0  0  0  0  0  0  0  0  0  0  0  0
  -26.2750  -15.7600   19.6120 H   0  0  0  0  0  0  0  0  0  0  0  0
  -27.9910  -16.5760   21.5920 C   0  0  0  0  0  1  0  0  0  0  0  0
  -29.5100  -16.7430   21.5170 C   0  0  0  0  0  2  0  0  0  0  0  0
  1  5  2  0
  2  4  1  0
  3  2  1  0
  3  1  1  0
  3 49  1  0
  4  1  1  0
  4  6  1  0
  7  8  1  0
  7  6  2  0
  9 20  2  0
 10  8  1  0
 10 15  1  0
 11 19  1  0
 11 21  1  0
 12 18  1  0
 12 14  1  0
 13 19  1  0
 14 15  2  0
 14 13  1  0
 16 10  2  0
 17 16  1  0
 17 12  2  0
 18 11  1  0
 19  9  1  0
 21 23  2  0
 22 21  1  0
 24 22  1  0
 25 34  2  0
 25 30  1  0
 26 22  1  0
 26 30  1  0
 27 26  1  0
 28 29  1  0
 28 27  1  0
 29 25  1  0
 30 31  2  0
 31 32  1  0
 33 32  2  0
 34 33  1  0
 35  9  1  0
 35 40  1  0
 35 36  1  0
 36 39  1  1
 36 37  1  0
 38 36  1  0
 40 43  1  0
 41 45  1  0
 41 40  1  0
 42 41  2  0
 45 44  1  0
 47 45  1  0
 47 48  1  0
 47 46  1  0
 49 87  1  0
 50 49  1  0
 51 56  1  0
 52 53  1  0
 52 51  1  0
 54 53  1  0
 54 61  1  0
 54 55  1  0
 56 50  1  0
 56 55  1  0
 57 50  2  0
 58 59  2  0
 59 78  1  0
 60 59  1  0
 60 63  1  0
 61 62  1  0
 61 58  1  0
 62 60  2  0
 63 64  1  0
 64 65  2  0
 66 69  1  0
 66 65  1  0
 67 66  2  0
 68 67  1  0
 68 63  2  0
 69 70  1  0
 70 71  1  0
 71 72  2  0
 73 72  1  0
 73 77  1  0
 74 73  2  0
 75 70  2  0
 75 74  1  0
 76 75  1  0
 78 79  1  0
 79 82  1  0
 79 81  1  0
 80 78  2  0
 83 58  1  0
 83 84  1  0
 85 83  1  0
 87 86  1  0
M  ISO  4   7 101   8 101  49 100  50 100
M  END
>  <TORSDO>  (58) 
F 20

>  <SCORE>  (58) 
-13.097

>  <name>  (58) 
57

>  <ligand_id>  (58) 
57

>  <original_smiles>  (58) 
[H]c1c([H])c([H])c2c(c1[H])C([H])([H])C([H])([H])C([H])([H])C2([H])N([H])C(=O)C1([H])N(C(=O)C([H])(N([H])C(=O)C([H])(N([H])C([H])([H])[H])C([H])([H])[H])C(C([H])([H])[H])(C([H])([H])[H])C([H])([H])[H])C([H])([H])c2c([H])c(OC([H])([H])C([H])([H])N3C(=O)C([H])(C([H])(C(=O)N4C([H])([H])C([H])([H])C([H])([H])C([H])(n5nc(-c6c([H])c([H])c(Oc7c([H])c([H])c(F)c([H])c7F)c([H])c6[H])c(C(=O)N([H])[H])c5N([H])[H])C4([H])[H])C([H])([H])C([H])([H])[H])C3([H])[H])c([H])c([H])c2C1([H])[H]

>  <smiles>  (58) 
[H]c1c([H])c([H])c2c(c1[H])C([H])([H])C([H])([H])C([H])([H])C2([H])N([H])C(=O)C1([H])N(C(=O)C([H])(N([H])C(=O)C([H])(N([H])C([H])([H])[H])C([H])([H])[H])C(C([H])([H])[H])(C([H])([H])[H])C([H])([H])[H])C([H])([H])c2c([H])c(OC([H])([H])C([H])([H])N3C(=O)C([H])(C([H])(C(=O)N4C([H])([H])C([H])([H])C([H])([H])C([H])(n5nc(-c6c([H])c([H])c(Oc7c([H])c([H])c(F)c([H])c7F)c([H])c6[H])c(C(=O)N([H])[H])c5N([H])[H])C4([H])[H])C([H])([H])C([H])([H])[H])C3([H])[H])c([H])c([H])c2C1([H])[H]

$$$$
58:0:0
     RDKit          3D

 89 97  0  0  1  0  0  0  0  0999 V2000
  -27.6260  -20.8170   19.4310 C   0  0  0  0  0  2  0  0  0  0  0  0
  -27.4290  -22.3450   19.1460 C   0  0  0  0  0  2  0  0  0  0  0  0
  -29.4210  -22.0430   20.3820 C   0  0  0  0  0  2  0  0  0  0  0  0
  -29.1130  -20.5410   19.7470 C   0  0  0  0  0  3  0  0  0  0  0  0
  -28.2640  -23.2050   20.1310 C   0  0  0  0  0  3  0  0  0  0  0  0
  -29.3580  -19.0460   20.4520 C   0  0  0  0  0  0  0  0  0  0  0  0
  -28.8820  -18.9010   21.5800 O   0  0  0  0  0  0  0  0  0  0  0  0
  -31.6750  -18.0470   20.0420 C   0  0  0  0  0  1  0  0  0  0  0  0
  -30.1880  -17.7330   19.7800 C   0  0  0  0  0  3  0  0  0  0  0  0
  -30.6320  -14.9940   19.9050 C   0  0  0  0  0  0  0  0  0  0  0  0
  -30.4100  -12.6610   18.9440 C   0  0  0  0  0  2  0  0  0  0  0  0
  -29.4020  -12.6560   17.7720 C   0  0  0  0  0  2  0  0  0  0  0  0
  -27.9690  -12.4470   18.2970 C   0  0  0  0  0  2  0  0  0  0  0  0
  -27.6500  -13.3470   19.5200 C   0  0  0  0  0  3  0  0  0  0  0  0
  -28.7780  -13.3350   20.5740 C   0  0  0  0  0  2  0  0  0  0  0  0
  -30.0100  -13.7460   19.8910 N   0  0  0  0  0  0  0  0  0  0  0  0
  -31.7980  -15.0230   19.5020 O   0  0  0  0  0  0  0  0  0  0  0  0
  -29.9170  -16.2060   20.1600 N   0  0  0  0  0  0  0  0  0  0  0  0
  -28.9880  -16.0500   20.5210 H   0  0  0  0  0  0  0  0  0  0  0  0
  -25.3340  -13.9170   20.4420 C   0  0  0  0  0  0  0  0  0  0  0  0
  -24.2910  -13.1380   20.8610 C   0  0  0  0  0  0  0  0  0  0  0  0
  -24.7400  -11.7850   20.7550 C   0  0  0  0  0  0  0  0  0  0  0  0
  -26.3490  -13.0400   20.1010 N   0  0  0  0  0  0  0  0  0  0  0  0
  -26.0060  -11.7510   20.3550 N   0  0  0  0  0  0  0  0  0  0  0  0
  -24.0150  -10.5230   20.9550 C   0  0  0  0  0  0  0  0  0  0  0  0
  -24.4770   -9.5430   21.8600 C   0  0  0  0  0  3  0  0  0  0  0  0
  -23.7530   -8.3460   22.0500 C   0  0  0  0  0  3  0  0  0  0  0  0
  -22.5530   -8.1210   21.3350 C   0  0  0  0  0  0  0  0  0  0  0  0
  -22.1100   -9.0890   20.4160 C   0  0  0  0  0  3  0  0  0  0  0  0
  -22.8350  -10.2780   20.2250 C   0  0  0  0  0  3  0  0  0  0  0  0
  -21.7960   -6.9780   21.4370 O   0  0  0  0  0  0  0  0  0  0  0  0
  -21.7520   -6.2450   22.5950 C   0  0  0  0  0  0  0  0  0  0  0  0
  -21.3250   -6.8070   23.8170 C   0  0  0  0  0  3  0  0  0  0  0  0
  -21.2290   -5.9990   24.9690 C   0  0  0  0  0  3  0  0  0  0  0  0
  -21.5510   -4.6310   24.8980 C   0  0  0  0  0  0  0  0  0  0  0  0
  -21.9710   -4.0670   23.6800 C   0  0  0  0  0  3  0  0  0  0  0  0
  -22.0690   -4.8730   22.5310 C   0  0  0  0  0  0  0  0  0  0  0  0
  -22.4550   -4.3210   21.3550 F   0  0  0  0  0  0  0  0  0  0  0  0
  -21.4520   -3.8510   26.0000 F   0  0  0  0  0  0  0  0  0  0  0  0
  -22.9200  -13.6160   21.2410 C   0  0  0  0  0  0  0  0  0  0  0  0
  -22.2460  -12.8990   22.1330 N   0  0  0  0  0  0  0  0  0  0  0  0
  -22.4580  -14.6590   20.7820 O   0  0  0  0  0  0  0  0  0  0  0  0
  -22.6340  -12.0530   22.5260 H   0  0  0  0  0  0  0  0  0  0  0  0
  -21.3280  -13.1990   22.4290 H   0  0  0  0  0  0  0  0  0  0  0  0
  -25.4970  -15.2920   20.2930 N   0  0  0  0  0  0  0  0  0  0  0  0
  -24.7430  -15.9460   20.4750 H   0  0  0  0  0  0  0  0  0  0  0  0
  -26.3120  -15.7320   19.8880 H   0  0  0  0  0  0  0  0  0  0  0  0
  -28.4390  -24.8040   19.5680 C   0  0  0  0  0  2  0  0  0  0  0  0
  -28.2980  -26.2180   20.2080 O   0  0  0  0  0  0  0  0  0  0  0  0
  -24.6330  -31.8440   23.1650 C   0  0  0  0  0  0  0  0  0  0  0  0
  -27.2190  -27.1650   20.0860 C   0  0  0  0  0  0  0  0  0  0  0  0
  -23.4290  -30.4530   21.5230 C   0  0  0  0  0  3  0  0  0  0  0  0
  -24.8750  -28.8910   20.0730 C   0  0  0  0  0  0  0  0  0  0  0  0
  -25.9780  -30.7330   21.3420 C   0  0  0  0  0  2  0  0  0  0  0  0
  -26.0510  -29.3450   20.6800 C   0  0  0  0  0  0  0  0  0  0  0  0
  -27.2170  -28.4940   20.6750 C   0  0  0  0  0  3  0  0  0  0  0  0
  -26.0180  -26.8090   19.4360 C   0  0  0  0  0  3  0  0  0  0  0  0
  -24.8710  -27.6390   19.4350 C   0  0  0  0  0  3  0  0  0  0  0  0
  -23.6410  -29.7800   20.1370 C   0  0  0  0  0  2  0  0  0  0  0  0
  -24.7000  -31.0330   22.0640 N   0  0  0  0  0  0  0  0  0  0  0  0
  -23.5510  -32.1190   23.7040 O   0  0  0  0  0  0  0  0  0  0  0  0
  -22.7620  -29.4400   22.4850 C   0  0  0  0  0  0  0  0  0  0  0  0
  -21.4310  -29.2790   22.3790 N   0  0  0  0  0  0  0  0  0  0  0  0
  -23.4440  -28.8010   23.2900 O   0  0  0  0  0  0  0  0  0  0  0  0
  -20.9370  -29.8440   21.7030 H   0  0  0  0  0  0  0  0  0  0  0  0
  -18.0510  -28.0960   22.9240 C   0  0  0  0  0  0  0  0  0  0  0  0
  -20.6170  -28.3370   23.1520 C   0  0  0  0  0  3  0  0  0  0  0  0
  -20.6990  -26.9130   22.5580 C   0  0  0  0  0  2  0  0  0  0  0  0
  -19.5790  -26.6120   21.5570 C   0  0  0  0  0  2  0  0  0  0  0  0
  -18.2090  -26.7550   22.2250 C   0  0  0  0  0  2  0  0  0  0  0  0
  -19.1820  -28.8460   23.3450 C   0  0  0  0  0  0  0  0  0  0  0  0
  -18.9780  -30.0990   23.9610 C   0  0  0  0  0  3  0  0  0  0  0  0
  -17.6790  -30.6050   24.1560 C   0  0  0  0  0  3  0  0  0  0  0  0
  -16.5640  -29.8520   23.7490 C   0  0  0  0  0  3  0  0  0  0  0  0
  -16.7500  -28.5990   23.1400 C   0  0  0  0  0  3  0  0  0  0  0  0
  -25.9130  -32.4810   23.7890 C   0  0  0  0  0  3  0  0  0  0  0  0
  -26.4430  -31.6990   25.0540 C   0  0  1  0  0  0  0  0  0  0  0  0
  -25.3580  -31.4430   26.1270 C   0  0  0  0  0  1  0  0  0  0  0  0
  -27.0290  -30.3290   24.6450 C   0  0  0  0  0  1  0  0  0  0  0  0
  -27.5950  -32.4900   25.7180 C   0  0  0  0  0  1  0  0  0  0  0  0
  -25.5940  -33.8730   24.1470 N   0  0  0  0  0  0  0  0  0  0  0  0
  -25.9060  -34.9440   23.4080 C   0  0  0  0  0  0  0  0  0  0  0  0
  -26.5600  -34.8670   22.3650 O   0  0  0  0  0  0  0  0  0  0  0  0
  -25.0100  -34.0060   24.9610 H   0  0  0  0  0  0  0  0  0  0  0  0
  -24.1580  -36.7310   23.1210 C   0  0  0  0  0  1  0  0  0  0  0  0
  -25.4160  -36.3210   23.9020 C   0  0  0  0  0  3  0  0  0  0  0  0
  -27.5570  -37.2100   24.7120 C   0  0  0  0  0  1  0  0  0  0  0  0
  -26.4380  -37.3850   23.7900 N   0  0  0  0  0  0  0  0  0  0  0  0
  -26.0260  -38.2990   23.9600 H   0  0  0  0  0  0  0  0  0  0  0  0
  1  4  1  0
  2  1  1  0
  2  5  1  0
  4  3  1  0
  4  6  1  0
  5 48  1  0
  5  3  1  0
  6  7  2  0
  9  8  1  0
  9 18  1  0
  9  6  1  0
 10 18  1  0
 11 16  1  0
 12 13  1  0
 12 11  1  0
 14 13  1  0
 14 23  1  0
 14 15  1  0
 16 10  1  0
 16 15  1  0
 17 10  2  0
 18 19  1  0
 20 21  2  0
 21 40  1  0
 22 21  1  0
 22 25  1  0
 23 24  1  0
 23 20  1  0
 24 22  2  0
 25 26  1  0
 26 27  2  0
 28 31  1  0
 28 27  1  0
 29 28  2  0
 30 29  1  0
 30 25  2  0
 31 32  1  0
 32 33  1  0
 33 34  2  0
 35 34  1  0
 35 39  1  0
 36 35  2  0
 37 32  2  0
 37 36  1  0
 38 37  1  0
 40 41  1  0
 41 44  1  0
 41 43  1  0
 42 40  2  0
 45 20  1  0
 45 46  1  0
 47 45  1  0
 48 49  1  0
 50 61  2  0
 51 49  1  0
 51 56  1  0
 52 60  1  0
 52 62  1  0
 53 59  1  0
 53 55  1  0
 54 60  1  0
 55 54  1  0
 56 55  2  0
 57 51  2  0
 58 57  1  0
 58 53  2  0
 59 52  1  0
 60 50  1  0
 62 64  2  0
 63 62  1  0
 65 63  1  0
 66 75  2  0
 66 71  1  0
 67 63  1  0
 67 71  1  0
 68 67  1  0
 69 70  1  0
 69 68  1  0
 70 66  1  0
 71 72  2  0
 72 73  1  0
 74 73  2  0
 75 74  1  0
 76 50  1  0
 76 81  1  0
 76 77  1  0
 77 80  1  1
 77 78  1  0
 79 77  1  0
 81 84  1  0
 82 86  1  0
 82 81  1  0
 83 82  2  0
 86 85  1  0
 88 86  1  0
 88 89  1  0
 88 87  1  0
M  ISO  4  10 100  18 100  48 101  49 101
M  END
>  <TORSDO>  (59) 
F 19

>  <SCORE>  (59) 
-13.885

>  <name>  (59) 
58

>  <ligand_id>  (59) 
58

>  <original_smiles>  (59) 
[H]c1c([H])c([H])c2c(c1[H])C([H])([H])C([H])([H])C([H])([H])C2([H])N([H])C(=O)C1([H])N(C(=O)C([H])(N([H])C(=O)C([H])(N([H])C([H])([H])[H])C([H])([H])[H])C(C([H])([H])[H])(C([H])([H])[H])C([H])([H])[H])C([H])([H])c2c([H])c(OC([H])([H])C3([H])C([H])([H])C([H])([H])C([H])(C(=O)C([H])(N([H])C(=O)N4C([H])([H])C([H])([H])C([H])([H])C([H])(n5nc(-c6c([H])c([H])c(Oc7c([H])c([H])c(F)c([H])c7F)c([H])c6[H])c(C(=O)N([H])[H])c5N([H])[H])C4([H])[H])C([H])([H])[H])C3([H])[H])c([H])c([H])c2C1([H])[H]

>  <smiles>  (59) 
[H]c1c([H])c([H])c2c(c1[H])C([H])([H])C([H])([H])C([H])([H])C2([H])N([H])C(=O)C1([H])N(C(=O)C([H])(N([H])C(=O)C([H])(N([H])C([H])([H])[H])C([H])([H])[H])C(C([H])([H])[H])(C([H])([H])[H])C([H])([H])[H])C([H])([H])c2c([H])c(OC([H])([H])C3([H])C([H])([H])C([H])([H])C([H])(C(=O)C([H])(N([H])C(=O)N4C([H])([H])C([H])([H])C([H])([H])C([H])(n5nc(-c6c([H])c([H])c(Oc7c([H])c([H])c(F)c([H])c7F)c([H])c6[H])c(C(=O)N([H])[H])c5N([H])[H])C4([H])[H])C([H])([H])[H])C3([H])[H])c([H])c([H])c2C1([H])[H]

$$$$
59:0:0
     RDKit          3D

 93102  0  0  1  0  0  0  0  0999 V2000
  -26.7980  -23.1260   19.8240 C   0  0  0  0  0  2  0  0  0  0  0  0
  -27.1120  -21.6420   19.9890 C   0  0  0  0  0  2  0  0  0  0  0  0
  -28.2630  -23.5020   20.0760 C   0  0  0  0  0  3  0  0  0  0  0  0
  -28.6340  -21.8340   19.8230 C   0  0  2  0  0  0  0  0  0  0  0  0
  -29.9510  -22.5650   16.5510 C   0  0  0  0  0  2  0  0  0  0  0  0
  -30.4920  -22.1450   17.9170 C   0  0  0  0  0  2  0  0  0  0  0  0
  -28.5400  -22.5410   17.1390 C   0  0  0  0  0  2  0  0  0  0  0  0
  -29.0760  -21.7100   18.3360 C   0  0  0  0  0  3  0  0  0  0  0  0
  -28.4420  -24.7530   21.1320 C   0  0  0  0  0  2  0  0  0  0  0  0
  -28.4540  -26.2690   20.7920 O   0  0  0  0  0  0  0  0  0  0  0  0
  -24.6860  -32.0210   23.4400 C   0  0  0  0  0  0  0  0  0  0  0  0
  -27.3440  -27.1740   20.7440 C   0  0  0  0  0  0  0  0  0  0  0  0
  -23.5440  -30.5630   21.8100 C   0  0  0  0  0  3  0  0  0  0  0  0
  -25.0290  -28.9030   20.5330 C   0  0  0  0  0  0  0  0  0  0  0  0
  -26.0990  -30.8080   21.7370 C   0  0  0  0  0  2  0  0  0  0  0  0
  -26.1830  -29.3850   21.1610 C   0  0  0  0  0  0  0  0  0  0  0  0
  -27.3440  -28.5350   21.2420 C   0  0  0  0  0  3  0  0  0  0  0  0
  -26.1650  -26.7720   20.0860 C   0  0  0  0  0  3  0  0  0  0  0  0
  -25.0290  -27.6100   19.9830 C   0  0  0  0  0  3  0  0  0  0  0  0
  -23.8130  -29.8140   20.4770 C   0  0  0  0  0  2  0  0  0  0  0  0
  -24.7950  -31.1560   22.3850 N   0  0  0  0  0  0  0  0  0  0  0  0
  -23.5820  -32.3350   23.9090 O   0  0  0  0  0  0  0  0  0  0  0  0
  -22.8120  -29.6100   22.7880 C   0  0  0  0  0  0  0  0  0  0  0  0
  -21.4990  -29.4090   22.5780 N   0  0  0  0  0  0  0  0  0  0  0  0
  -23.4320  -29.0480   23.6950 O   0  0  0  0  0  0  0  0  0  0  0  0
  -21.0570  -29.9130   21.8210 H   0  0  0  0  0  0  0  0  0  0  0  0
  -18.0950  -28.2200   22.9430 C   0  0  0  0  0  0  0  0  0  0  0  0
  -20.6350  -28.5080   23.3450 C   0  0  0  0  0  3  0  0  0  0  0  0
  -20.7720  -27.0500   22.8490 C   0  0  0  0  0  2  0  0  0  0  0  0
  -19.7320  -26.6710   21.7890 C   0  0  0  0  0  2  0  0  0  0  0  0
  -18.3150  -26.8410   22.3450 C   0  0  0  0  0  2  0  0  0  0  0  0
  -19.1860  -29.0090   23.3980 C   0  0  0  0  0  0  0  0  0  0  0  0
  -18.9300  -30.2960   23.9170 C   0  0  0  0  0  3  0  0  0  0  0  0
  -17.6170  -30.7970   23.9870 C   0  0  0  0  0  3  0  0  0  0  0  0
  -16.5390  -30.0080   23.5490 C   0  0  0  0  0  3  0  0  0  0  0  0
  -16.7800  -28.7220   23.0320 C   0  0  0  0  0  3  0  0  0  0  0  0
  -25.9430  -32.6700   24.0990 C   0  0  0  0  0  3  0  0  0  0  0  0
  -25.6370  -34.0870   24.3510 N   0  0  0  0  0  0  0  0  0  0  0  0
  -26.0090  -35.1020   23.5620 C   0  0  0  0  0  0  0  0  0  0  0  0
  -26.7100  -34.9470   22.5590 O   0  0  0  0  0  0  0  0  0  0  0  0
  -25.0270  -34.2860   25.1310 H   0  0  0  0  0  0  0  0  0  0  0  0
  -24.2970  -36.8860   23.0930 C   0  0  0  0  0  1  0  0  0  0  0  0
  -25.5240  -36.5150   23.9420 C   0  0  0  0  0  3  0  0  0  0  0  0
  -27.6490  -37.4320   24.7610 C   0  0  0  0  0  1  0  0  0  0  0  0
  -26.5640  -37.5570   23.7910 N   0  0  0  0  0  0  0  0  0  0  0  0
  -26.1610  -38.4850   23.8820 H   0  0  0  0  0  0  0  0  0  0  0  0
  -26.3820  -31.9560   25.4370 C   0  0  1  0  0  0  0  0  0  0  0  0
  -25.2180  -31.7130   26.4250 C   0  0  0  0  0  1  0  0  0  0  0  0
  -27.0350  -30.5880   25.1380 C   0  0  0  0  0  1  0  0  0  0  0  0
  -27.4530  -32.8060   26.1600 C   0  0  0  0  0  1  0  0  0  0  0  0
  -29.4060  -20.5820   20.6950 C   0  0  0  0  0  2  0  0  0  0  0  0
  -30.5780  -19.0140   18.8800 C   0  0  0  0  0  1  0  0  0  0  0  0
  -29.6200  -18.9790   20.1030 C   0  0  0  0  0  3  0  0  0  0  0  0
  -29.9930  -16.2690   20.6140 C   0  0  0  0  0  2  0  0  0  0  0  0
  -30.2030  -17.6510   20.8910 C   0  0  0  0  0  3  0  0  0  0  0  0
  -30.7730  -14.9780   20.9950 C   0  0  0  0  0  0  0  0  0  0  0  0
  -30.7070  -12.6050   20.1320 C   0  0  0  0  0  2  0  0  0  0  0  0
  -29.9050  -12.5510   18.8130 C   0  0  0  0  0  2  0  0  0  0  0  0
  -28.3990  -12.3690   19.0930 C   0  0  0  0  0  2  0  0  0  0  0  0
  -27.8810  -13.3200   20.2040 C   0  0  0  0  0  3  0  0  0  0  0  0
  -28.8220  -13.3590   21.4220 C   0  0  0  0  0  2  0  0  0  0  0  0
  -30.1570  -13.7300   20.9370 N   0  0  0  0  0  0  0  0  0  0  0  0
  -32.0090  -14.9670   21.0030 O   0  0  0  0  0  0  0  0  0  0  0  0
  -25.4510  -13.9290   20.7160 C   0  0  0  0  0  0  0  0  0  0  0  0
  -24.3480  -13.1680   20.9900 C   0  0  0  0  0  0  0  0  0  0  0  0
  -24.8010  -11.8120   21.0220 C   0  0  0  0  0  0  0  0  0  0  0  0
  -26.5010  -13.0390   20.5830 N   0  0  0  0  0  0  0  0  0  0  0  0
  -26.1150  -11.7600   20.8370 N   0  0  0  0  0  0  0  0  0  0  0  0
  -24.0470  -10.5590   21.1550 C   0  0  0  0  0  0  0  0  0  0  0  0
  -24.3980   -9.5810   22.1100 C   0  0  0  0  0  3  0  0  0  0  0  0
  -23.6440   -8.3930   22.2300 C   0  0  0  0  0  3  0  0  0  0  0  0
  -22.5220   -8.1770   21.3960 C   0  0  0  0  0  0  0  0  0  0  0  0
  -22.1910   -9.1430   20.4310 C   0  0  0  0  0  3  0  0  0  0  0  0
  -22.9460  -10.3210   20.3080 C   0  0  0  0  0  3  0  0  0  0  0  0
  -21.7440   -7.0440   21.4270 O   0  0  0  0  0  0  0  0  0  0  0  0
  -21.6240   -6.2860   22.5640 C   0  0  0  0  0  0  0  0  0  0  0  0
  -21.0970   -6.8170   23.7620 C   0  0  0  0  0  3  0  0  0  0  0  0
  -20.9260   -5.9820   24.8860 C   0  0  0  0  0  3  0  0  0  0  0  0
  -21.2680   -4.6190   24.8100 C   0  0  0  0  0  0  0  0  0  0  0  0
  -21.7850   -4.0870   23.6160 C   0  0  0  0  0  3  0  0  0  0  0  0
  -21.9600   -4.9190   22.4960 C   0  0  0  0  0  0  0  0  0  0  0  0
  -22.4400   -4.3970   21.3410 F   0  0  0  0  0  0  0  0  0  0  0  0
  -21.0950   -3.8170   25.8860 F   0  0  0  0  0  0  0  0  0  0  0  0
  -22.9350  -13.6610   21.1150 C   0  0  0  0  0  0  0  0  0  0  0  0
  -22.1220  -12.9970   21.9280 N   0  0  0  0  0  0  0  0  0  0  0  0
  -22.5590  -14.6730   20.5240 O   0  0  0  0  0  0  0  0  0  0  0  0
  -22.4370  -12.1800   22.4320 H   0  0  0  0  0  0  0  0  0  0  0  0
  -21.1690  -13.3110   22.0510 H   0  0  0  0  0  0  0  0  0  0  0  0
  -25.6450  -15.2960   20.5410 N   0  0  0  0  0  0  0  0  0  0  0  0
  -24.8800  -15.9600   20.5770 H   0  0  0  0  0  0  0  0  0  0  0  0
  -26.5320  -15.7270   20.3120 H   0  0  0  0  0  0  0  0  0  0  0  0
  -31.0690  -18.0650   21.8230 O   0  0  0  0  0  0  0  0  0  0  0  0
  -31.1050  -19.0120   21.7730 H   0  0  0  0  0  0  0  0  0  0  0  0
  1  2  1  0
  1  3  1  0
  3  9  1  0
  4  2  1  0
  4  3  1  0
  4 51  1  1
  5  7  1  0
  5  6  1  0
  6  8  1  0
  7  8  1  0
  8  4  1  0
 10  9  1  0
 11 22  2  0
 12 10  1  0
 12 17  1  0
 13 21  1  0
 13 23  1  0
 14 16  1  0
 15 21  1  0
 16 17  2  0
 16 15  1  0
 18 12  2  0
 19 18  1  0
 19 14  2  0
 20 14  1  0
 20 13  1  0
 21 11  1  0
 23 25  2  0
 24 23  1  0
 26 24  1  0
 27 36  2  0
 27 32  1  0
 28 24  1  0
 28 32  1  0
 29 28  1  0
 30 31  1  0
 30 29  1  0
 31 27  1  0
 32 33  2  0
 33 34  1  0
 35 34  2  0
 36 35  1  0
 37 11  1  0
 37 38  1  0
 37 47  1  0
 38 41  1  0
 39 43  1  0
 39 38  1  0
 40 39  2  0
 43 42  1  0
 45 46  1  0
 45 43  1  0
 45 44  1  0
 47 50  1  1
 47 48  1  0
 49 47  1  0
 53 52  1  0
 53 51  1  0
 53 55  1  0
 54 56  1  0
 55 54  1  0
 55 92  1  0
 56 63  2  0
 57 62  1  0
 58 59  1  0
 58 57  1  0
 60 59  1  0
 60 67  1  0
 60 61  1  0
 62 56  1  0
 62 61  1  0
 64 65  2  0
 65 66  1  0
 65 84  1  0
 66 69  1  0
 67 64  1  0
 67 68  1  0
 68 66  2  0
 69 70  1  0
 70 71  2  0
 72 75  1  0
 72 71  1  0
 73 72  2  0
 74 73  1  0
 74 69  2  0
 75 76  1  0
 76 77  1  0
 77 78  2  0
 79 78  1  0
 79 83  1  0
 80 79  2  0
 81 76  2  0
 81 80  1  0
 82 81  1  0
 84 85  1  0
 85 88  1  0
 85 87  1  0
 86 84  2  0
 89 90  1  0
 89 64  1  0
 91 89  1  0
 93 92  1  0
M  ISO  4   9 101  10 101  54 100  56 100
M  END
>  <TORSDO>  (60) 
F 22

>  <SCORE>  (60) 
-13.347

>  <name>  (60) 
59

>  <ligand_id>  (60) 
59

>  <original_smiles>  (60) 
[H]OC(=C([H])C(=O)N1C([H])([H])C([H])([H])C([H])([H])C([H])(n2nc(-c3c([H])c([H])c(Oc4c([H])c([H])c(F)c([H])c4F)c([H])c3[H])c(C(=O)N([H])[H])c2N([H])[H])C1([H])[H])C([H])(C([H])([H])[H])C([H])([H])C1(C2([H])C([H])([H])C([H])([H])C2([H])[H])C([H])([H])C([H])([H])C1([H])C([H])([H])Oc1c([H])c([H])c2c(c1[H])C([H])([H])N(C(=O)C([H])(N([H])C(=O)C([H])(N([H])C([H])([H])[H])C([H])([H])[H])C(C([H])([H])[H])(C([H])([H])[H])C([H])([H])[H])C([H])(C(=O)N([H])C1([H])c3c([H])c([H])c([H])c([H])c3C([H])([H])C([H])([H])C1([H])[H])C2([H])[H]

>  <smiles>  (60) 
[H]OC(=C([H])C(=O)N1C([H])([H])C([H])([H])C([H])([H])C([H])(n2nc(-c3c([H])c([H])c(Oc4c([H])c([H])c(F)c([H])c4F)c([H])c3[H])c(C(=O)N([H])[H])c2N([H])[H])C1([H])[H])C([H])(C([H])([H])[H])C([H])([H])C1(C2([H])C([H])([H])C([H])([H])C2([H])[H])C([H])([H])C([H])([H])C1([H])C([H])([H])Oc1c([H])c([H])c2c(c1[H])C([H])([H])N(C(=O)C([H])(N([H])C(=O)C([H])(N([H])C([H])([H])[H])C([H])([H])[H])C(C([H])([H])[H])(C([H])([H])[H])C([H])([H])[H])C([H])(C(=O)N([H])C1([H])c3c([H])c([H])c([H])c([H])c3C([H])([H])C([H])([H])C1([H])[H])C2([H])[H]

$$$$
60:0:0
     RDKit          3D

 90 98  0  0  1  0  0  0  0  0999 V2000
  -26.6300  -22.2340   20.5830 C   0  0  0  0  0  3  0  0  0  0  0  0
  -27.0330  -23.5750   20.3650 C   0  0  0  0  0  3  0  0  0  0  0  0
  -27.5570  -21.1660   20.5580 C   0  0  0  0  0  3  0  0  0  0  0  0
  -29.3060  -22.7740   20.0870 C   0  0  0  0  0  3  0  0  0  0  0  0
  -28.3880  -23.8910   20.1080 C   0  0  0  0  0  0  0  0  0  0  0  0
  -28.9370  -21.3840   20.2990 C   0  0  0  0  0  0  0  0  0  0  0  0
  -30.9890  -20.3170   19.0960 C   0  0  0  0  0  1  0  0  0  0  0  0
  -29.9870  -20.1670   20.2700 C   0  0  0  0  0  3  0  0  0  0  0  0
  -29.4760  -18.6300   20.3340 C   0  0  0  0  0  3  0  0  0  0  0  0
  -30.5420  -17.4320   20.5450 C   0  0  0  0  0  3  0  0  0  0  0  0
  -30.8010  -14.8620   20.4360 C   0  0  0  0  0  0  0  0  0  0  0  0
  -30.5780  -12.6230   19.3960 C   0  0  0  0  0  2  0  0  0  0  0  0
  -29.6630  -12.7660   18.1580 C   0  0  0  0  0  2  0  0  0  0  0  0
  -28.1860  -12.5760   18.5550 C   0  0  0  0  0  2  0  0  0  0  0  0
  -27.7960  -13.4370   19.7820 C   0  0  0  0  0  3  0  0  0  0  0  0
  -28.8350  -13.3270   20.9240 C   0  0  0  0  0  2  0  0  0  0  0  0
  -30.1560  -13.6550   20.3680 N   0  0  0  0  0  0  0  0  0  0  0  0
  -31.9750  -14.9630   20.0730 O   0  0  0  0  0  0  0  0  0  0  0  0
  -30.0670  -15.9960   20.7030 N   0  0  0  0  0  0  0  0  0  0  0  0
  -29.1280  -15.8390   21.0390 H   0  0  0  0  0  0  0  0  0  0  0  0
  -25.4020  -14.0140   20.5180 C   0  0  0  0  0  0  0  0  0  0  0  0
  -24.3320  -13.2380   20.8690 C   0  0  0  0  0  0  0  0  0  0  0  0
  -24.8010  -11.8840   20.8280 C   0  0  0  0  0  0  0  0  0  0  0  0
  -26.4460  -13.1380   20.2590 N   0  0  0  0  0  0  0  0  0  0  0  0
  -26.0920  -11.8510   20.5170 N   0  0  0  0  0  0  0  0  0  0  0  0
  -24.0810  -10.6140   21.0080 C   0  0  0  0  0  0  0  0  0  0  0  0
  -24.4990   -9.6490   21.9530 C   0  0  0  0  0  3  0  0  0  0  0  0
  -23.7740   -8.4480   22.1220 C   0  0  0  0  0  3  0  0  0  0  0  0
  -22.6140   -8.2040   21.3470 C   0  0  0  0  0  0  0  0  0  0  0  0
  -22.2160   -9.1570   20.3910 C   0  0  0  0  0  3  0  0  0  0  0  0
  -22.9420  -10.3460   20.2190 C   0  0  0  0  0  3  0  0  0  0  0  0
  -21.8630   -7.0550   21.4220 O   0  0  0  0  0  0  0  0  0  0  0  0
  -21.7790   -6.3250   22.5810 C   0  0  0  0  0  0  0  0  0  0  0  0
  -21.2800   -6.8820   23.7790 C   0  0  0  0  0  3  0  0  0  0  0  0
  -21.1480   -6.0780   24.9310 C   0  0  0  0  0  3  0  0  0  0  0  0
  -21.4980   -4.7170   24.8840 C   0  0  0  0  0  0  0  0  0  0  0  0
  -21.9910   -4.1570   23.6900 C   0  0  0  0  0  3  0  0  0  0  0  0
  -22.1280   -4.9580   22.5450 C   0  0  0  0  0  0  0  0  0  0  0  0
  -22.5830   -4.4100   21.3930 F   0  0  0  0  0  0  0  0  0  0  0  0
  -21.3670   -3.9440   25.9870 F   0  0  0  0  0  0  0  0  0  0  0  0
  -22.9240  -13.7040   21.1310 C   0  0  0  0  0  0  0  0  0  0  0  0
  -22.1790  -13.0080   21.9830 N   0  0  0  0  0  0  0  0  0  0  0  0
  -22.4920  -14.7340   20.6120 O   0  0  0  0  0  0  0  0  0  0  0  0
  -22.5330  -12.1820   22.4420 H   0  0  0  0  0  0  0  0  0  0  0  0
  -21.2380  -13.3080   22.2010 H   0  0  0  0  0  0  0  0  0  0  0  0
  -25.5910  -15.3870   20.3760 N   0  0  0  0  0  0  0  0  0  0  0  0
  -24.8960  -16.0870   20.6120 H   0  0  0  0  0  0  0  0  0  0  0  0
  -26.4980  -15.7840   20.1750 H   0  0  0  0  0  0  0  0  0  0  0  0
  -28.8240  -25.3620   19.6660 C   0  0  0  0  0  2  0  0  0  0  0  0
  -28.4960  -26.6200   20.3980 O   0  0  0  0  0  0  0  0  0  0  0  0
  -24.6280  -31.9620   23.2720 C   0  0  0  0  0  0  0  0  0  0  0  0
  -27.3640  -27.4410   20.2300 C   0  0  0  0  0  0  0  0  0  0  0  0
  -23.4630  -30.5350   21.6210 C   0  0  0  0  0  3  0  0  0  0  0  0
  -24.9620  -29.0100   20.1800 C   0  0  0  0  0  0  0  0  0  0  0  0
  -25.9870  -30.9010   21.4480 C   0  0  0  0  0  2  0  0  0  0  0  0
  -26.1010  -29.5160   20.8150 C   0  0  0  0  0  0  0  0  0  0  0  0
  -27.3000  -28.7350   20.8440 C   0  0  0  0  0  3  0  0  0  0  0  0
  -26.2270  -27.0160   19.5190 C   0  0  0  0  0  3  0  0  0  0  0  0
  -25.0350  -27.7740   19.5040 C   0  0  0  0  0  3  0  0  0  0  0  0
  -23.6880  -29.8360   20.2450 C   0  0  0  0  0  2  0  0  0  0  0  0
  -24.7130  -31.1500   22.1740 N   0  0  0  0  0  0  0  0  0  0  0  0
  -23.5370  -32.2180   23.7990 O   0  0  0  0  0  0  0  0  0  0  0  0
  -22.8070  -29.5210   22.5880 C   0  0  0  0  0  0  0  0  0  0  0  0
  -21.4810  -29.3320   22.4560 N   0  0  0  0  0  0  0  0  0  0  0  0
  -23.4870  -28.9030   23.4090 O   0  0  0  0  0  0  0  0  0  0  0  0
  -20.9890  -29.8910   21.7730 H   0  0  0  0  0  0  0  0  0  0  0  0
  -18.1050  -28.1140   22.9340 C   0  0  0  0  0  0  0  0  0  0  0  0
  -20.6670  -28.3760   23.2110 C   0  0  0  0  0  3  0  0  0  0  0  0
  -20.7680  -26.9550   22.6110 C   0  0  0  0  0  2  0  0  0  0  0  0
  -19.6630  -26.6450   21.5940 C   0  0  0  0  0  2  0  0  0  0  0  0
  -18.2840  -26.7740   22.2430 C   0  0  0  0  0  2  0  0  0  0  0  0
  -19.2220  -28.8740   23.3720 C   0  0  0  0  0  0  0  0  0  0  0  0
  -18.9970  -30.1290   23.9750 C   0  0  0  0  0  3  0  0  0  0  0  0
  -17.6880  -30.6220   24.1470 C   0  0  0  0  0  3  0  0  0  0  0  0
  -16.5880  -29.8590   23.7240 C   0  0  0  0  0  3  0  0  0  0  0  0
  -16.7960  -28.6060   23.1220 C   0  0  0  0  0  3  0  0  0  0  0  0
  -25.8930  -32.6120   23.9150 C   0  0  0  0  0  3  0  0  0  0  0  0
  -26.3910  -31.8570   25.2080 C   0  0  1  0  0  0  0  0  0  0  0  0
  -25.2840  -31.6160   26.2570 C   0  0  0  0  0  1  0  0  0  0  0  0
  -26.9940  -30.4850   24.8340 C   0  0  0  0  0  1  0  0  0  0  0  0
  -27.5190  -32.6650   25.8890 C   0  0  0  0  0  1  0  0  0  0  0  0
  -25.5710  -34.0120   24.2320 N   0  0  0  0  0  0  0  0  0  0  0  0
  -25.9060  -35.0630   23.4730 C   0  0  0  0  0  0  0  0  0  0  0  0
  -26.5900  -34.9590   22.4510 O   0  0  0  0  0  0  0  0  0  0  0  0
  -24.9730  -34.1710   25.0300 H   0  0  0  0  0  0  0  0  0  0  0  0
  -24.1710  -36.8380   23.0720 C   0  0  0  0  0  1  0  0  0  0  0  0
  -25.3980  -36.4490   23.9140 C   0  0  0  0  0  3  0  0  0  0  0  0
  -27.5090  -37.3530   24.7830 C   0  0  0  0  0  1  0  0  0  0  0  0
  -26.4240  -37.5120   23.8160 N   0  0  0  0  0  0  0  0  0  0  0  0
  -26.0050  -38.4290   23.9550 H   0  0  0  0  0  0  0  0  0  0  0  0
  2  1  2  0
  3  1  1  0
  4  5  2  0
  4  6  1  0
  5  2  1  0
  6  3  2  0
  8  7  1  0
  8  6  1  0
  8  9  1  0
  9 10  2  0
 10 19  1  0
 11 19  1  0
 12 17  1  0
 13 14  1  0
 13 12  1  0
 15 14  1  0
 15 24  1  0
 15 16  1  0
 17 11  1  0
 17 16  1  0
 18 11  2  0
 19 20  1  0
 21 22  2  0
 22 41  1  0
 23 22  1  0
 23 26  1  0
 24 25  1  0
 24 21  1  0
 25 23  2  0
 26 27  1  0
 27 28  2  0
 29 32  1  0
 29 28  1  0
 30 29  2  0
 31 30  1  0
 31 26  2  0
 32 33  1  0
 33 34  1  0
 34 35  2  0
 36 35  1  0
 36 40  1  0
 37 36  2  0
 38 33  2  0
 38 37  1  0
 39 38  1  0
 41 42  1  0
 42 45  1  0
 42 44  1  0
 43 41  2  0
 46 21  1  0
 46 47  1  0
 48 46  1  0
 49  5  1  0
 49 50  1  0
 51 62  2  0
 52 50  1  0
 52 57  1  0
 53 61  1  0
 53 63  1  0
 54 60  1  0
 54 56  1  0
 55 61  1  0
 56 57  2  0
 56 55  1  0
 58 52  2  0
 59 58  1  0
 59 54  2  0
 60 53  1  0
 61 51  1  0
 63 65  2  0
 64 63  1  0
 66 64  1  0
 67 76  2  0
 67 72  1  0
 68 64  1  0
 68 72  1  0
 69 68  1  0
 70 71  1  0
 70 69  1  0
 71 67  1  0
 72 73  2  0
 73 74  1  0
 75 74  2  0
 76 75  1  0
 77 51  1  0
 77 82  1  0
 77 78  1  0
 78 81  1  1
 78 79  1  0
 80 78  1  0
 82 85  1  0
 83 87  1  0
 83 82  1  0
 84 83  2  0
 87 86  1  0
 89 87  1  0
 89 90  1  0
 89 88  1  0
M  ISO  4  11 100  19 100  49 101  50 101
M  END
>  <TORSDO>  (61) 
F 20

>  <SCORE>  (61) 
-13.261

>  <name>  (61) 
60

>  <ligand_id>  (61) 
60

>  <original_smiles>  (61) 
[H]c1c([H])c([H])c2c(c1[H])C([H])([H])C([H])([H])C([H])([H])C2([H])N([H])C(=O)C1([H])N(C(=O)C([H])(N([H])C(=O)C([H])(N([H])C([H])([H])[H])C([H])([H])[H])C(C([H])([H])[H])(C([H])([H])[H])C([H])([H])[H])C([H])([H])c2c([H])c(OC([H])([H])c3c([H])c([H])c([H])c(C([H])(C([H])([H])[H])C([H])([H])C([H])([H])N([H])C(=O)N4C([H])([H])C([H])([H])C([H])([H])C([H])(n5nc(-c6c([H])c([H])c(Oc7c([H])c([H])c(F)c([H])c7F)c([H])c6[H])c(C(=O)N([H])[H])c5N([H])[H])C4([H])[H])c3[H])c([H])c([H])c2C1([H])[H]

>  <smiles>  (61) 
[H]c1c([H])c([H])c2c(c1[H])C([H])([H])C([H])([H])C([H])([H])C2([H])N([H])C(=O)C1([H])N(C(=O)C([H])(N([H])C(=O)C([H])(N([H])C([H])([H])[H])C([H])([H])[H])C(C([H])([H])[H])(C([H])([H])[H])C([H])([H])[H])C([H])([H])c2c([H])c(OC([H])([H])c3c([H])c([H])c([H])c(C([H])(C([H])([H])[H])C([H])([H])C([H])([H])N([H])C(=O)N4C([H])([H])C([H])([H])C([H])([H])C([H])(n5nc(-c6c([H])c([H])c(Oc7c([H])c([H])c(F)c([H])c7F)c([H])c6[H])c(C(=O)N([H])[H])c5N([H])[H])C4([H])[H])c3[H])c([H])c([H])c2C1([H])[H]

$$$$
61:0:0
     RDKit          3D

 90 98  0  0  1  0  0  0  0  0999 V2000
  -31.1070  -21.7520   19.1700 C   0  0  0  0  0  3  0  0  0  0  0  0
  -30.2020  -22.7950   19.4410 C   0  0  0  0  0  3  0  0  0  0  0  0
  -30.7960  -20.4080   19.4690 C   0  0  0  0  0  3  0  0  0  0  0  0
  -28.6600  -21.1440   20.3490 C   0  0  0  0  0  3  0  0  0  0  0  0
  -28.9540  -22.5350   20.0380 C   0  0  0  0  0  0  0  0  0  0  0  0
  -29.5710  -20.0400   20.0750 C   0  0  0  0  0  0  0  0  0  0  0  0
  -27.9430  -23.7510   20.1620 C   0  0  0  0  0  2  0  0  0  0  0  0
  -28.3610  -25.1380   20.8740 C   0  0  0  0  0  2  0  0  0  0  0  0
  -28.4000  -26.4780   20.2170 O   0  0  0  0  0  0  0  0  0  0  0  0
  -24.6300  -31.8910   23.2480 C   0  0  0  0  0  0  0  0  0  0  0  0
  -27.2740  -27.3120   20.2420 C   0  0  0  0  0  0  0  0  0  0  0  0
  -23.4430  -30.4810   21.6030 C   0  0  0  0  0  3  0  0  0  0  0  0
  -24.9070  -28.9190   20.2040 C   0  0  0  0  0  0  0  0  0  0  0  0
  -25.9840  -30.8070   21.4350 C   0  0  0  0  0  2  0  0  0  0  0  0
  -26.0740  -29.4220   20.7950 C   0  0  0  0  0  0  0  0  0  0  0  0
  -27.2650  -28.6350   20.7910 C   0  0  0  0  0  3  0  0  0  0  0  0
  -26.0810  -26.8510   19.6510 C   0  0  0  0  0  3  0  0  0  0  0  0
  -24.9110  -27.6380   19.6260 C   0  0  0  0  0  3  0  0  0  0  0  0
  -23.6750  -29.8000   20.2280 C   0  0  0  0  0  2  0  0  0  0  0  0
  -24.7030  -31.0760   22.1510 N   0  0  0  0  0  0  0  0  0  0  0  0
  -23.5410  -32.1650   23.7720 O   0  0  0  0  0  0  0  0  0  0  0  0
  -22.7750  -29.4650   22.5610 C   0  0  0  0  0  0  0  0  0  0  0  0
  -21.4490  -29.2940   22.4310 N   0  0  0  0  0  0  0  0  0  0  0  0
  -23.4500  -28.8350   23.3780 O   0  0  0  0  0  0  0  0  0  0  0  0
  -20.9650  -29.8570   21.7460 H   0  0  0  0  0  0  0  0  0  0  0  0
  -18.0620  -28.1190   22.9350 C   0  0  0  0  0  0  0  0  0  0  0  0
  -20.6230  -28.3600   23.2000 C   0  0  0  0  0  3  0  0  0  0  0  0
  -20.7140  -26.9300   22.6200 C   0  0  0  0  0  2  0  0  0  0  0  0
  -19.6070  -26.6170   21.6080 C   0  0  0  0  0  2  0  0  0  0  0  0
  -18.2270  -26.7720   22.2540 C   0  0  0  0  0  2  0  0  0  0  0  0
  -19.1870  -28.8730   23.3650 C   0  0  0  0  0  0  0  0  0  0  0  0
  -18.9780  -30.1350   23.9610 C   0  0  0  0  0  3  0  0  0  0  0  0
  -17.6770  -30.6430   24.1330 C   0  0  0  0  0  3  0  0  0  0  0  0
  -16.5670  -29.8870   23.7180 C   0  0  0  0  0  3  0  0  0  0  0  0
  -16.7600  -28.6270   23.1250 C   0  0  0  0  0  3  0  0  0  0  0  0
  -25.9040  -32.5300   23.8780 C   0  0  0  0  0  3  0  0  0  0  0  0
  -26.4130  -31.7690   25.1650 C   0  0  1  0  0  0  0  0  0  0  0  0
  -25.3120  -31.5380   26.2270 C   0  0  0  0  0  1  0  0  0  0  0  0
  -27.0040  -30.3900   24.7870 C   0  0  0  0  0  1  0  0  0  0  0  0
  -27.5550  -32.5730   25.8320 C   0  0  0  0  0  1  0  0  0  0  0  0
  -25.5920  -33.9300   24.2010 N   0  0  0  0  0  0  0  0  0  0  0  0
  -25.9210  -34.9800   23.4350 C   0  0  0  0  0  0  0  0  0  0  0  0
  -26.5900  -34.8720   22.4050 O   0  0  0  0  0  0  0  0  0  0  0  0
  -25.0100  -34.0880   25.0100 H   0  0  0  0  0  0  0  0  0  0  0  0
  -24.1890  -36.7650   23.0640 C   0  0  0  0  0  1  0  0  0  0  0  0
  -25.4270  -36.3700   23.8850 C   0  0  0  0  0  3  0  0  0  0  0  0
  -27.5570  -37.2600   24.7190 C   0  0  0  0  0  1  0  0  0  0  0  0
  -26.4590  -37.4240   23.7700 N   0  0  0  0  0  0  0  0  0  0  0  0
  -26.0510  -38.3440   23.9160 H   0  0  0  0  0  0  0  0  0  0  0  0
  -29.2060  -18.4850   20.2150 C   0  0  0  0  0  2  0  0  0  0  0  0
  -31.6650  -17.6640   20.8650 C   0  0  0  0  0  1  0  0  0  0  0  0
  -30.1560  -17.3530   20.9080 C   0  0  0  0  0  0  0  0  0  0  0  0
  -30.5950  -14.7410   20.4020 C   0  0  0  0  0  0  0  0  0  0  0  0
  -30.3800  -12.4830   19.3600 C   0  0  0  0  0  2  0  0  0  0  0  0
  -29.4250  -12.5550   18.1490 C   0  0  0  0  0  2  0  0  0  0  0  0
  -27.9630  -12.3720   18.6000 C   0  0  0  0  0  2  0  0  0  0  0  0
  -27.5960  -13.2630   19.8180 C   0  0  0  0  0  3  0  0  0  0  0  0
  -28.6670  -13.1700   20.9270 C   0  0  0  0  0  2  0  0  0  0  0  0
  -29.9550  -13.5260   20.3180 N   0  0  0  0  0  0  0  0  0  0  0  0
  -31.7830  -14.8250   20.0770 O   0  0  0  0  0  0  0  0  0  0  0  0
  -29.8300  -15.8680   20.6640 N   0  0  0  0  0  4  0  0  0  0  0  0
  -28.8530  -15.6450   20.7900 H   0  0  0  0  0  0  0  0  0  0  0  0
  -25.2170  -13.8470   20.5790 C   0  0  0  0  0  0  0  0  0  0  0  0
  -24.1570  -13.0690   20.9570 C   0  0  0  0  0  0  0  0  0  0  0  0
  -24.6220  -11.7180   20.9150 C   0  0  0  0  0  0  0  0  0  0  0  0
  -26.2590  -12.9700   20.3240 N   0  0  0  0  0  0  0  0  0  0  0  0
  -25.9090  -11.6850   20.5920 N   0  0  0  0  0  0  0  0  0  0  0  0
  -23.9020  -10.4530   21.1050 C   0  0  0  0  0  0  0  0  0  0  0  0
  -24.3480   -9.4800   22.0270 C   0  0  0  0  0  3  0  0  0  0  0  0
  -23.6280   -8.2800   22.2060 C   0  0  0  0  0  3  0  0  0  0  0  0
  -22.4470   -8.0450   21.4640 C   0  0  0  0  0  0  0  0  0  0  0  0
  -22.0190   -9.0050   20.5310 C   0  0  0  0  0  3  0  0  0  0  0  0
  -22.7400  -10.1970   20.3500 C   0  0  0  0  0  3  0  0  0  0  0  0
  -21.6980   -6.8960   21.5530 O   0  0  0  0  0  0  0  0  0  0  0  0
  -21.6670   -6.1430   22.6980 C   0  0  0  0  0  0  0  0  0  0  0  0
  -21.2510   -6.6830   23.9360 C   0  0  0  0  0  3  0  0  0  0  0  0
  -21.1690   -5.8560   25.0730 C   0  0  0  0  0  3  0  0  0  0  0  0
  -21.4930   -4.4890   24.9750 C   0  0  0  0  0  0  0  0  0  0  0  0
  -21.9030   -3.9490   23.7430 C   0  0  0  0  0  3  0  0  0  0  0  0
  -21.9860   -4.7730   22.6070 C   0  0  0  0  0  0  0  0  0  0  0  0
  -22.3610   -4.2440   21.4180 F   0  0  0  0  0  0  0  0  0  0  0  0
  -21.4060   -3.6920   26.0650 F   0  0  0  0  0  0  0  0  0  0  0  0
  -22.7590  -13.5410   21.2400 C   0  0  0  0  0  0  0  0  0  0  0  0
  -22.0350  -12.8420   22.1060 N   0  0  0  0  0  0  0  0  0  0  0  0
  -22.3150  -14.5690   20.7280 O   0  0  0  0  0  0  0  0  0  0  0  0
  -22.4060  -12.0160   22.5510 H   0  0  0  0  0  0  0  0  0  0  0  0
  -21.0990  -13.1440   22.3350 H   0  0  0  0  0  0  0  0  0  0  0  0
  -25.3730  -15.2180   20.4010 N   0  0  0  0  0  0  0  0  0  0  0  0
  -24.5980  -15.8640   20.5160 H   0  0  0  0  0  0  0  0  0  0  0  0
  -26.1990  -15.6580   20.0150 H   0  0  0  0  0  0  0  0  0  0  0  0
  1  2  2  0
  1  3  1  0
  2  5  1  0
  3  6  2  0
  5  7  1  0
  5  4  2  0
  6 50  1  0
  6  4  1  0
  7  8  1  0
  9 11  1  0
  9  8  1  0
 10 21  2  0
 11 16  1  0
 12 20  1  0
 12 22  1  0
 13 19  1  0
 13 15  1  0
 14 20  1  0
 15 14  1  0
 16 15  2  0
 17 11  2  0
 18 17  1  0
 18 13  2  0
 19 12  1  0
 20 10  1  0
 22 24  2  0
 23 22  1  0
 25 23  1  0
 26 35  2  0
 26 31  1  0
 27 23  1  0
 27 31  1  0
 28 27  1  0
 29 30  1  0
 29 28  1  0
 30 26  1  0
 31 32  2  0
 32 33  1  0
 34 33  2  0
 35 34  1  0
 36 10  1  0
 36 41  1  0
 36 37  1  0
 37 40  1  1
 37 38  1  0
 39 37  1  0
 41 44  1  0
 42 46  1  0
 42 41  1  0
 43 42  2  0
 46 45  1  0
 48 46  1  0
 48 49  1  0
 48 47  1  0
 50 52  1  0
 51 52  1  0
 53 61  1  0
 54 59  1  0
 55 56  1  0
 55 54  1  0
 57 56  1  0
 57 66  1  0
 57 58  1  0
 59 53  1  0
 59 58  1  0
 60 53  2  0
 61 62  1  0
 61 52  2  0
 63 64  2  0
 64 83  1  0
 65 64  1  0
 65 68  1  0
 66 63  1  0
 66 67  1  0
 67 65  2  0
 68 69  1  0
 69 70  2  0
 71 74  1  0
 71 70  1  0
 72 71  2  0
 73 72  1  0
 73 68  2  0
 74 75  1  0
 75 76  1  0
 76 77  2  0
 78 77  1  0
 78 82  1  0
 79 78  2  0
 80 75  2  0
 80 79  1  0
 81 80  1  0
 83 84  1  0
 84 87  1  0
 84 86  1  0
 85 83  2  0
 88 89  1  0
 88 63  1  0
 90 88  1  0
M  ISO  4   8 101   9 101  53 100  61 100
M  END
>  <TORSDO>  (62) 
F 20

>  <SCORE>  (62) 
-13.940

>  <name>  (62) 
61

>  <ligand_id>  (62) 
61

>  <original_smiles>  (62) 
[H]c1c([H])c([H])c2c(c1[H])C([H])([H])C([H])([H])C([H])([H])C2([H])N([H])C(=O)C1([H])N(C(=O)C([H])(N([H])C(=O)C([H])(N([H])C([H])([H])[H])C([H])([H])[H])C(C([H])([H])[H])(C([H])([H])[H])C([H])([H])[H])C([H])([H])c2c([H])c(OC([H])([H])C([H])([H])c3c([H])c([H])c([H])c(C([H])([H])C([H])(N([H])C(=O)N4C([H])([H])C([H])([H])C([H])([H])C([H])(n5nc(-c6c([H])c([H])c(Oc7c([H])c([H])c(F)c([H])c7F)c([H])c6[H])c(C(=O)N([H])[H])c5N([H])[H])C4([H])[H])C([H])([H])[H])c3[H])c([H])c([H])c2C1([H])[H]

>  <smiles>  (62) 
[H]c1c([H])c([H])c2c(c1[H])C([H])([H])C([H])([H])C([H])([H])C2([H])N([H])C(=O)C1([H])N(C(=O)C([H])(N([H])C(=O)C([H])(N([H])C([H])([H])[H])C([H])([H])[H])C(C([H])([H])[H])(C([H])([H])[H])C([H])([H])[H])C([H])([H])c2c([H])c(OC([H])([H])C([H])([H])c3c([H])c([H])c([H])c(C([H])([H])C([H])(N([H])C(=O)N4C([H])([H])C([H])([H])C([H])([H])C([H])(n5nc(-c6c([H])c([H])c(Oc7c([H])c([H])c(F)c([H])c7F)c([H])c6[H])c(C(=O)N([H])[H])c5N([H])[H])C4([H])[H])C([H])([H])[H])c3[H])c([H])c([H])c2C1([H])[H]

$$$$
62:0:0
     RDKit          3D

 93102  0  0  1  0  0  0  0  0999 V2000
  -29.3970  -21.4870   20.2260 C   0  0  0  0  0  3  0  0  0  0  0  0
  -29.0760  -22.9570   19.3630 C   0  0  0  0  0  3  0  0  0  0  0  0
  -30.4720  -23.1630   19.9930 C   0  0  0  0  0  3  0  0  0  0  0  0
  -30.0160  -22.1540   21.0960 N   0  0  0  0  0  2  0  0  0  0  0  0
  -31.0960  -24.8080   21.9590 C   0  0  0  0  0  1  0  0  0  0  0  0
  -30.9020  -24.5910   20.4460 C   0  0  0  0  0  3  0  0  0  0  0  0
  -33.3790  -24.4770   19.6220 C   0  0  0  0  0  1  0  0  0  0  0  0
  -32.0370  -25.2160   19.6020 C   0  0  0  0  0  2  0  0  0  0  0  0
  -29.9940  -19.8870   19.8880 C   0  0  0  0  0  2  0  0  0  0  0  0
  -30.5310  -15.4110   20.6020 C   0  0  0  0  0  0  0  0  0  0  0  0
  -30.6140  -12.8660   20.0320 C   0  0  0  0  0  2  0  0  0  0  0  0
  -29.8080  -12.5070   18.7610 C   0  0  0  0  0  2  0  0  0  0  0  0
  -28.3510  -12.1760   19.1360 C   0  0  0  0  0  2  0  0  0  0  0  0
  -27.7540  -13.2450   20.0860 C   0  0  0  0  0  3  0  0  0  0  0  0
  -28.7100  -13.6270   21.2480 C   0  0  0  0  0  2  0  0  0  0  0  0
  -29.9780  -14.0880   20.6420 N   0  0  0  0  0  0  0  0  0  0  0  0
  -31.7670  -15.4210   20.6740 O   0  0  0  0  0  0  0  0  0  0  0  0
  -28.5170  -16.4610   19.4790 C   0  0  0  0  0  2  0  0  0  0  0  0
  -28.6880  -17.8510   18.9140 C   0  0  0  0  0  3  0  0  0  0  0  0
  -29.3220  -18.2830   20.2360 C   0  0  0  0  0  3  0  0  0  0  0  0
  -29.7350  -16.6370   20.2690 N   0  0  0  0  0  0  0  0  0  0  0  0
  -25.3360  -13.8450   20.6530 C   0  0  0  0  0  0  0  0  0  0  0  0
  -24.2480  -13.0910   20.9580 C   0  0  0  0  0  0  0  0  0  0  0  0
  -24.7080  -11.7430   21.0010 C   0  0  0  0  0  0  0  0  0  0  0  0
  -26.3910  -12.9580   20.5110 N   0  0  0  0  0  0  0  0  0  0  0  0
  -26.0210  -11.6850   20.7940 N   0  0  0  0  0  0  0  0  0  0  0  0
  -23.9560  -10.4960   21.1670 C   0  0  0  0  0  0  0  0  0  0  0  0
  -24.3420   -9.5320   22.1210 C   0  0  0  0  0  3  0  0  0  0  0  0
  -23.5940   -8.3490   22.2790 C   0  0  0  0  0  3  0  0  0  0  0  0
  -22.4490   -8.1170   21.4850 C   0  0  0  0  0  0  0  0  0  0  0  0
  -22.0830   -9.0690   20.5200 C   0  0  0  0  0  3  0  0  0  0  0  0
  -22.8270  -10.2490   20.3590 C   0  0  0  0  0  3  0  0  0  0  0  0
  -21.6800   -6.9820   21.5510 O   0  0  0  0  0  0  0  0  0  0  0  0
  -21.6320   -6.2090   22.6850 C   0  0  0  0  0  0  0  0  0  0  0  0
  -21.2040   -6.7340   23.9240 C   0  0  0  0  0  3  0  0  0  0  0  0
  -21.1020   -5.8900   25.0480 C   0  0  0  0  0  3  0  0  0  0  0  0
  -21.4170   -4.5230   24.9340 C   0  0  0  0  0  0  0  0  0  0  0  0
  -21.8330   -3.9970   23.6990 C   0  0  0  0  0  3  0  0  0  0  0  0
  -21.9400   -4.8380   22.5790 C   0  0  0  0  0  0  0  0  0  0  0  0
  -22.3220   -4.3230   21.3850 F   0  0  0  0  0  0  0  0  0  0  0  0
  -21.3160   -3.7110   26.0120 F   0  0  0  0  0  0  0  0  0  0  0  0
  -22.8370  -13.5930   21.0980 C   0  0  0  0  0  0  0  0  0  0  0  0
  -22.0330  -12.9410   21.9250 N   0  0  0  0  0  0  0  0  0  0  0  0
  -22.4530  -14.5990   20.4990 O   0  0  0  0  0  0  0  0  0  0  0  0
  -22.3480  -12.1180   22.4170 H   0  0  0  0  0  0  0  0  0  0  0  0
  -21.0870  -13.2670   22.0610 H   0  0  0  0  0  0  0  0  0  0  0  0
  -25.4990  -15.2130   20.4560 N   0  0  0  0  0  0  0  0  0  0  0  0
  -24.7250  -15.8670   20.4990 H   0  0  0  0  0  0  0  0  0  0  0  0
  -26.3670  -15.6390   20.1660 H   0  0  0  0  0  0  0  0  0  0  0  0
  -26.2570  -18.7610   19.1510 C   0  0  0  0  0  1  0  0  0  0  0  0
  -27.5080  -18.5900   18.2670 C   0  0  0  0  0  2  0  0  0  0  0  0
  -27.9160  -24.2710   19.6380 C   0  0  0  0  0  2  0  0  0  0  0  0
  -28.0410  -25.8970   19.6010 O   0  0  0  0  0  0  0  0  0  0  0  0
  -24.4240  -31.5710   23.0110 C   0  0  0  0  0  0  0  0  0  0  0  0
  -26.9610  -26.9040   19.6950 C   0  0  0  0  0  0  0  0  0  0  0  0
  -23.1930  -30.2160   21.3670 C   0  0  0  0  0  3  0  0  0  0  0  0
  -24.6120  -28.6930   19.8300 C   0  0  0  0  0  0  0  0  0  0  0  0
  -25.7480  -30.4730   21.1470 C   0  0  0  0  0  2  0  0  0  0  0  0
  -25.8100  -29.1010   20.4280 C   0  0  0  0  0  0  0  0  0  0  0  0
  -26.9770  -28.2240   20.3430 C   0  0  0  0  0  3  0  0  0  0  0  0
  -25.7170  -26.6180   19.0810 C   0  0  0  0  0  3  0  0  0  0  0  0
  -24.5870  -27.4730   19.1330 C   0  0  0  0  0  3  0  0  0  0  0  0
  -23.3900  -29.5960   19.9560 C   0  0  0  0  0  2  0  0  0  0  0  0
  -24.4770  -30.7800   21.8930 N   0  0  0  0  0  0  0  0  0  0  0  0
  -23.3490  -31.8220   23.5820 O   0  0  0  0  0  0  0  0  0  0  0  0
  -22.5530  -29.1720   22.3220 C   0  0  0  0  0  0  0  0  0  0  0  0
  -21.2250  -28.9640   22.2220 N   0  0  0  0  0  0  0  0  0  0  0  0
  -23.2530  -28.5540   23.1240 O   0  0  0  0  0  0  0  0  0  0  0  0
  -20.7130  -29.5070   21.5440 H   0  0  0  0  0  0  0  0  0  0  0  0
  -17.9120  -27.5640   22.6940 C   0  0  0  0  0  0  0  0  0  0  0  0
  -20.4480  -27.9790   22.9830 C   0  0  0  0  0  3  0  0  0  0  0  0
  -20.6450  -26.5580   22.4130 C   0  0  0  0  0  2  0  0  0  0  0  0
  -19.5730  -26.1690   21.3900 C   0  0  0  0  0  2  0  0  0  0  0  0
  -18.1760  -26.2320   22.0150 C   0  0  0  0  0  2  0  0  0  0  0  0
  -18.9780  -28.3950   23.1330 C   0  0  0  0  0  0  0  0  0  0  0  0
  -18.6760  -29.6370   23.7310 C   0  0  0  0  0  3  0  0  0  0  0  0
  -17.3410  -30.0600   23.8790 C   0  0  0  0  0  3  0  0  0  0  0  0
  -16.2880  -29.2290   23.4540 C   0  0  0  0  0  3  0  0  0  0  0  0
  -16.5760  -27.9800   22.8730 C   0  0  0  0  0  3  0  0  0  0  0  0
  -25.7120  -32.2140   23.6160 C   0  0  0  0  0  3  0  0  0  0  0  0
  -25.3910  -33.6020   23.9890 N   0  0  0  0  0  0  0  0  0  0  0  0
  -25.7760  -34.6890   23.3100 C   0  0  0  0  0  0  0  0  0  0  0  0
  -26.4960  -34.6190   22.3100 O   0  0  0  0  0  0  0  0  0  0  0  0
  -24.7740  -33.7230   24.7780 H   0  0  0  0  0  0  0  0  0  0  0  0
  -24.0970  -36.5290   22.9570 C   0  0  0  0  0  1  0  0  0  0  0  0
  -25.2880  -36.0660   23.8120 C   0  0  0  0  0  3  0  0  0  0  0  0
  -27.3900  -36.8770   24.7930 C   0  0  0  0  0  1  0  0  0  0  0  0
  -26.3400  -37.1070   23.8030 N   0  0  0  0  0  0  0  0  0  0  0  0
  -25.9460  -38.0290   23.9670 H   0  0  0  0  0  0  0  0  0  0  0  0
  -26.2570  -31.4310   24.8720 C   0  0  1  0  0  0  0  0  0  0  0  0
  -25.1880  -31.1890   25.9670 C   0  0  0  0  0  1  0  0  0  0  0  0
  -26.8350  -30.0570   24.4650 C   0  0  0  0  0  1  0  0  0  0  0  0
  -27.4260  -32.2160   25.5050 C   0  0  0  0  0  1  0  0  0  0  0  0
  1  9  1  0
  1  4  1  0
  2 52  1  0
  2  3  1  0
  2  1  1  0
  3  6  1  0
  3  4  1  0
  6  5  1  0
  8  7  1  0
  8  6  1  0
 10 16  1  0
 10 17  2  0
 11 16  1  0
 12 13  1  0
 12 11  1  0
 14 13  1  0
 14 25  1  0
 14 15  1  0
 16 15  1  0
 18 21  1  0
 19 51  1  0
 19 18  1  0
 19 20  1  0
 20  9  1  0
 20 21  1  0
 21 10  1  0
 22 23  2  0
 23 24  1  0
 23 42  1  0
 24 27  1  0
 25 22  1  0
 25 26  1  0
 26 24  2  0
 27 28  1  0
 28 29  2  0
 30 33  1  0
 30 29  1  0
 31 30  2  0
 32 31  1  0
 32 27  2  0
 33 34  1  0
 34 35  1  0
 35 36  2  0
 37 36  1  0
 37 41  1  0
 38 37  2  0
 39 34  2  0
 39 38  1  0
 40 39  1  0
 42 43  1  0
 43 46  1  0
 43 45  1  0
 44 42  2  0
 47 48  1  0
 47 22  1  0
 49 47  1  0
 51 50  1  0
 53 52  1  0
 53 55  1  0
 54 65  2  0
 55 60  1  0
 56 64  1  0
 56 66  1  0
 57 63  1  0
 57 59  1  0
 58 64  1  0
 59 58  1  0
 60 59  2  0
 61 62  1  0
 61 55  2  0
 62 57  2  0
 63 56  1  0
 64 54  1  0
 66 68  2  0
 67 66  1  0
 69 67  1  0
 70 79  2  0
 70 75  1  0
 71 67  1  0
 71 75  1  0
 72 71  1  0
 73 74  1  0
 73 72  1  0
 74 70  1  0
 75 76  2  0
 76 77  1  0
 78 77  2  0
 79 78  1  0
 80 54  1  0
 80 81  1  0
 80 90  1  0
 81 84  1  0
 82 86  1  0
 82 81  1  0
 83 82  2  0
 86 85  1  0
 88 86  1  0
 88 89  1  0
 88 87  1  0
 90 93  1  1
 90 91  1  0
 92 90  1  0
M  ISO  4  10 100  21 100  52 101  53 101
M  END
>  <TORSDO>  (63) 
F 21

>  <SCORE>  (63) 
-13.218

>  <name>  (63) 
62

>  <ligand_id>  (63) 
62

>  <original_smiles>  (63) 
[H]c1c([H])c([H])c2c(c1[H])C([H])([H])C([H])([H])C([H])([H])C2([H])N([H])C(=O)C1([H])N(C(=O)C([H])(N([H])C(=O)C([H])(N([H])C([H])([H])[H])C([H])([H])[H])C(C([H])([H])[H])(C([H])([H])[H])C([H])([H])[H])C([H])([H])c2c([H])c(OC([H])([H])C3([H])C(C([H])([H])C4([H])N(C(=O)N5C([H])([H])C([H])([H])C([H])([H])C([H])(n6nc(-c7c([H])c([H])c(Oc8c([H])c([H])c(F)c([H])c8F)c([H])c7[H])c(C(=O)N([H])[H])c6N([H])[H])C5([H])[H])C([H])([H])C4([H])C([H])([H])C([H])([H])[H])=NC3([H])C([H])(C([H])([H])[H])C([H])([H])C([H])([H])[H])c([H])c([H])c2C1([H])[H]

>  <smiles>  (63) 
[H]c1c([H])c([H])c2c(c1[H])C([H])([H])C([H])([H])C([H])([H])C2([H])N([H])C(=O)C1([H])N(C(=O)C([H])(N([H])C(=O)C([H])(N([H])C([H])([H])[H])C([H])([H])[H])C(C([H])([H])[H])(C([H])([H])[H])C([H])([H])[H])C([H])([H])c2c([H])c(OC([H])([H])C3([H])C(C([H])([H])C4([H])N(C(=O)N5C([H])([H])C([H])([H])C([H])([H])C([H])(n6nc(-c7c([H])c([H])c(Oc8c([H])c([H])c(F)c([H])c8F)c([H])c7[H])c(C(=O)N([H])[H])c6N([H])[H])C5([H])[H])C([H])([H])C4([H])C([H])([H])C([H])([H])[H])=NC3([H])C([H])(C([H])([H])[H])C([H])([H])C([H])([H])[H])c([H])c([H])c2C1([H])[H]

$$$$
63:0:0
     RDKit          3D

 88 96  0  0  1  0  0  0  0  0999 V2000
  -28.6430  -22.2910   20.2360 C   0  0  0  0  0  0  0  0  0  0  0  0
  -27.5020  -21.9260   19.9400 O   0  0  0  0  0  0  0  0  0  0  0  0
  -27.7410  -24.4480   21.3390 C   0  0  0  0  0  2  0  0  0  0  0  0
  -28.9030  -23.7970   20.6050 C   0  0  0  0  0  3  0  0  0  0  0  0
  -28.0820  -25.0000   19.9820 C   0  0  0  0  0  3  0  0  0  0  0  0
  -28.3080  -26.4620   20.1640 O   0  0  0  0  0  0  0  0  0  0  0  0
  -24.6060  -31.8750   23.2300 C   0  0  0  0  0  0  0  0  0  0  0  0
  -27.1860  -27.3130   20.1390 C   0  0  0  0  0  0  0  0  0  0  0  0
  -23.3860  -30.4780   21.6050 C   0  0  0  0  0  3  0  0  0  0  0  0
  -24.8200  -28.9320   20.1640 C   0  0  0  0  0  0  0  0  0  0  0  0
  -25.9250  -30.7950   21.3940 C   0  0  0  0  0  2  0  0  0  0  0  0
  -25.9990  -29.4180   20.7460 C   0  0  0  0  0  0  0  0  0  0  0  0
  -27.1840  -28.6210   20.7220 C   0  0  0  0  0  3  0  0  0  0  0  0
  -25.9750  -26.8860   19.5410 C   0  0  0  0  0  3  0  0  0  0  0  0
  -24.8110  -27.6720   19.5540 C   0  0  0  0  0  3  0  0  0  0  0  0
  -23.5840  -29.8060   20.2220 C   0  0  0  0  0  2  0  0  0  0  0  0
  -24.6590  -31.0660   22.1330 N   0  0  0  0  0  0  0  0  0  0  0  0
  -23.5280  -32.1530   23.7760 O   0  0  0  0  0  0  0  0  0  0  0  0
  -22.7330  -29.4590   22.5700 C   0  0  0  0  0  0  0  0  0  0  0  0
  -21.4060  -29.2780   22.4520 N   0  0  0  0  0  0  0  0  0  0  0  0
  -23.4180  -28.8350   23.3830 O   0  0  0  0  0  0  0  0  0  0  0  0
  -20.9120  -29.8330   21.7680 H   0  0  0  0  0  0  0  0  0  0  0  0
  -18.0350  -28.0710   22.9700 C   0  0  0  0  0  0  0  0  0  0  0  0
  -20.5940  -28.3410   23.2300 C   0  0  0  0  0  3  0  0  0  0  0  0
  -20.7000  -26.9080   22.6630 C   0  0  0  0  0  2  0  0  0  0  0  0
  -19.5950  -26.5750   21.6540 C   0  0  0  0  0  2  0  0  0  0  0  0
  -18.2150  -26.7180   22.3020 C   0  0  0  0  0  2  0  0  0  0  0  0
  -19.1520  -28.8400   23.3920 C   0  0  0  0  0  0  0  0  0  0  0  0
  -18.9300  -30.1050   23.9760 C   0  0  0  0  0  3  0  0  0  0  0  0
  -17.6240  -30.6030   24.1440 C   0  0  0  0  0  3  0  0  0  0  0  0
  -16.5210  -29.8310   23.7380 C   0  0  0  0  0  3  0  0  0  0  0  0
  -16.7270  -28.5670   23.1570 C   0  0  0  0  0  3  0  0  0  0  0  0
  -25.8950  -32.5080   23.8390 C   0  0  0  0  0  3  0  0  0  0  0  0
  -25.5870  -33.9050   24.1750 N   0  0  0  0  0  0  0  0  0  0  0  0
  -25.9070  -34.9590   23.4150 C   0  0  0  0  0  0  0  0  0  0  0  0
  -26.5640  -34.8590   22.3750 O   0  0  0  0  0  0  0  0  0  0  0  0
  -25.0010  -34.0570   24.9850 H   0  0  0  0  0  0  0  0  0  0  0  0
  -24.1700  -36.7490   23.0890 C   0  0  0  0  0  1  0  0  0  0  0  0
  -25.4240  -36.3470   23.8810 C   0  0  0  0  0  3  0  0  0  0  0  0
  -27.5710  -37.2330   24.6770 C   0  0  0  0  0  1  0  0  0  0  0  0
  -26.4520  -37.4020   23.7530 N   0  0  0  0  0  0  0  0  0  0  0  0
  -26.0470  -38.3220   23.9100 H   0  0  0  0  0  0  0  0  0  0  0  0
  -26.4230  -31.7350   25.1100 C   0  0  1  0  0  0  0  0  0  0  0  0
  -25.3420  -31.4970   26.1890 C   0  0  0  0  0  1  0  0  0  0  0  0
  -27.0010  -30.3570   24.7110 C   0  0  0  0  0  1  0  0  0  0  0  0
  -27.5820  -32.5270   25.7600 C   0  0  0  0  0  1  0  0  0  0  0  0
  -29.7750  -21.1920   20.1910 C   0  0  0  0  0  2  0  0  0  0  0  0
  -29.5780  -19.8040   20.9700 C   0  0  0  0  0  2  0  0  0  0  0  0
  -29.7150  -18.3920   20.2270 C   0  0  0  0  0  2  0  0  0  0  0  0
  -30.2340  -17.1530   21.0920 C   0  0  0  0  0  2  0  0  0  0  0  0
  -30.6020  -14.6590   20.3840 C   0  0  0  0  0  0  0  0  0  0  0  0
  -30.3570  -12.4320   19.2930 C   0  0  0  0  0  2  0  0  0  0  0  0
  -29.4070  -12.5600   18.0830 C   0  0  0  0  0  2  0  0  0  0  0  0
  -27.9360  -12.4070   18.5200 C   0  0  0  0  0  2  0  0  0  0  0  0
  -27.5870  -13.2730   19.7600 C   0  0  0  0  0  3  0  0  0  0  0  0
  -28.6500  -13.1210   20.8690 C   0  0  0  0  0  2  0  0  0  0  0  0
  -29.9530  -13.4560   20.2780 N   0  0  0  0  0  0  0  0  0  0  0  0
  -31.7780  -14.7870   20.0400 O   0  0  0  0  0  0  0  0  0  0  0  0
  -29.8360  -15.7460   20.7190 N   0  0  0  0  0  0  0  0  0  0  0  0
  -28.8650  -15.5210   20.8840 H   0  0  0  0  0  0  0  0  0  0  0  0
  -25.2000  -13.8870   20.4840 C   0  0  0  0  0  0  0  0  0  0  0  0
  -24.1290  -13.1200   20.8580 C   0  0  0  0  0  0  0  0  0  0  0  0
  -24.5840  -11.7670   20.8300 C   0  0  0  0  0  0  0  0  0  0  0  0
  -26.2390  -13.0000   20.2510 N   0  0  0  0  0  0  0  0  0  0  0  0
  -25.8740  -11.7200   20.5200 N   0  0  0  0  0  0  0  0  0  0  0  0
  -23.8520  -10.5080   21.0240 C   0  0  0  0  0  0  0  0  0  0  0  0
  -24.2920   -9.5310   21.9420 C   0  0  0  0  0  3  0  0  0  0  0  0
  -23.5600   -8.3380   22.1240 C   0  0  0  0  0  3  0  0  0  0  0  0
  -22.3730   -8.1150   21.3870 C   0  0  0  0  0  0  0  0  0  0  0  0
  -21.9500   -9.0810   20.4580 C   0  0  0  0  0  3  0  0  0  0  0  0
  -22.6840  -10.2650   20.2730 C   0  0  0  0  0  3  0  0  0  0  0  0
  -21.6100   -6.9750   21.4800 O   0  0  0  0  0  0  0  0  0  0  0  0
  -21.5890   -6.2140   22.6210 C   0  0  0  0  0  0  0  0  0  0  0  0
  -21.2180   -6.7550   23.8710 C   0  0  0  0  0  3  0  0  0  0  0  0
  -21.1430   -5.9220   25.0060 C   0  0  0  0  0  3  0  0  0  0  0  0
  -21.4270   -4.5470   24.8900 C   0  0  0  0  0  0  0  0  0  0  0  0
  -21.7910   -4.0060   23.6450 C   0  0  0  0  0  3  0  0  0  0  0  0
  -21.8680   -4.8360   22.5130 C   0  0  0  0  0  0  0  0  0  0  0  0
  -22.1980   -4.3050   21.3110 F   0  0  0  0  0  0  0  0  0  0  0  0
  -21.3480   -3.7450   25.9770 F   0  0  0  0  0  0  0  0  0  0  0  0
  -22.7340  -13.6050   21.1290 C   0  0  0  0  0  0  0  0  0  0  0  0
  -22.0050  -12.9180   22.0000 N   0  0  0  0  0  0  0  0  0  0  0  0
  -22.3010  -14.6300   20.6040 O   0  0  0  0  0  0  0  0  0  0  0  0
  -22.3670  -12.0890   22.4460 H   0  0  0  0  0  0  0  0  0  0  0  0
  -21.0680  -13.2250   22.2230 H   0  0  0  0  0  0  0  0  0  0  0  0
  -25.3690  -15.2560   20.3010 N   0  0  0  0  0  0  0  0  0  0  0  0
  -24.6010  -15.9110   20.4050 H   0  0  0  0  0  0  0  0  0  0  0  0
  -26.2110  -15.6910   19.9440 H   0  0  0  0  0  0  0  0  0  0  0  0
  2  1  2  0
  4  1  1  0
  4  3  1  0
  5  6  1  0
  5  4  1  0
  5  3  1  0
  7 18  2  0
  8  6  1  0
  8 13  1  0
  9 17  1  0
  9 19  1  0
 10 16  1  0
 10 12  1  0
 11 17  1  0
 12 11  1  0
 13 12  2  0
 14 15  1  0
 14  8  2  0
 15 10  2  0
 16  9  1  0
 17  7  1  0
 19 21  2  0
 20 19  1  0
 22 20  1  0
 23 32  2  0
 23 28  1  0
 24 20  1  0
 24 28  1  0
 25 24  1  0
 26 27  1  0
 26 25  1  0
 27 23  1  0
 28 29  2  0
 29 30  1  0
 31 30  2  0
 32 31  1  0
 33  7  1  0
 33 34  1  0
 33 43  1  0
 34 37  1  0
 35 39  1  0
 35 34  1  0
 36 35  2  0
 39 38  1  0
 41 39  1  0
 41 42  1  0
 41 40  1  0
 43 46  1  1
 43 44  1  0
 45 43  1  0
 47  1  1  0
 47 48  1  0
 49 48  1  0
 49 50  1  0
 51 59  1  0
 52 57  1  0
 53 54  1  0
 53 52  1  0
 55 54  1  0
 55 64  1  0
 55 56  1  0
 57 51  1  0
 57 56  1  0
 58 51  2  0
 59 60  1  0
 59 50  1  0
 61 62  2  0
 62 81  1  0
 63 62  1  0
 63 66  1  0
 64 61  1  0
 64 65  1  0
 65 63  2  0
 66 67  1  0
 67 68  2  0
 69 72  1  0
 69 68  1  0
 70 69  2  0
 71 70  1  0
 71 66  2  0
 72 73  1  0
 73 74  1  0
 74 75  2  0
 76 75  1  0
 76 80  1  0
 77 76  2  0
 78 73  2  0
 78 77  1  0
 79 78  1  0
 81 82  1  0
 82 85  1  0
 82 84  1  0
 83 81  2  0
 86 87  1  0
 86 61  1  0
 88 86  1  0
M  ISO  4   5 101   6 101  51 100  59 100
M  END
>  <TORSDO>  (64) 
F 21

>  <SCORE>  (64) 
-13.304

>  <name>  (64) 
63

>  <ligand_id>  (64) 
63

>  <original_smiles>  (64) 
[H]c1c([H])c([H])c2c(c1[H])C([H])([H])C([H])([H])C([H])([H])C2([H])N([H])C(=O)C1([H])N(C(=O)C([H])(N([H])C(=O)C([H])(N([H])C([H])([H])[H])C([H])([H])[H])C(C([H])([H])[H])(C([H])([H])[H])C([H])([H])[H])C([H])([H])c2c([H])c(OC3([H])C([H])([H])C3([H])C(=O)C([H])([H])C([H])([H])C([H])([H])C([H])([H])N([H])C(=O)N3C([H])([H])C([H])([H])C([H])([H])C([H])(n4nc(-c5c([H])c([H])c(Oc6c([H])c([H])c(F)c([H])c6F)c([H])c5[H])c(C(=O)N([H])[H])c4N([H])[H])C3([H])[H])c([H])c([H])c2C1([H])[H]

>  <smiles>  (64) 
[H]c1c([H])c([H])c2c(c1[H])C([H])([H])C([H])([H])C([H])([H])C2([H])N([H])C(=O)C1([H])N(C(=O)C([H])(N([H])C(=O)C([H])(N([H])C([H])([H])[H])C([H])([H])[H])C(C([H])([H])[H])(C([H])([H])[H])C([H])([H])[H])C([H])([H])c2c([H])c(OC3([H])C([H])([H])C3([H])C(=O)C([H])([H])C([H])([H])C([H])([H])C([H])([H])N([H])C(=O)N3C([H])([H])C([H])([H])C([H])([H])C([H])(n4nc(-c5c([H])c([H])c(Oc6c([H])c([H])c(F)c([H])c6F)c([H])c5[H])c(C(=O)N([H])[H])c4N([H])[H])C3([H])[H])c([H])c([H])c2C1([H])[H]

$$$$
64:0:0
     RDKit          3D

 88 97  0  0  1  0  0  0  0  0999 V2000
  -28.0060  -22.0480   19.5720 C   0  0  0  0  0  2  0  0  0  0  0  0
  -29.7260  -22.4940   20.5340 C   0  0  0  0  0  2  0  0  0  0  0  0
  -28.9340  -21.1140   20.4590 C   0  0  0  0  0  3  0  0  0  0  0  0
  -28.4350  -23.3950   20.3060 C   0  0  0  0  0  3  0  0  0  0  0  0
  -29.6350  -19.7570   19.8750 C   0  0  0  0  0  0  0  0  0  0  0  0
  -30.4710  -19.8790   18.9780 O   0  0  0  0  0  0  0  0  0  0  0  0
  -30.5620  -14.8880   20.3100 C   0  0  0  0  0  0  0  0  0  0  0  0
  -30.3850  -12.5610   19.3660 C   0  0  0  0  0  2  0  0  0  0  0  0
  -29.4500  -12.5560   18.1370 C   0  0  0  0  0  2  0  0  0  0  0  0
  -27.9870  -12.3670   18.5750 C   0  0  0  0  0  2  0  0  0  0  0  0
  -27.5940  -13.2880   19.7600 C   0  0  0  0  0  3  0  0  0  0  0  0
  -28.6540  -13.2830   20.8810 C   0  0  0  0  0  2  0  0  0  0  0  0
  -29.9330  -13.6520   20.2670 N   0  0  0  0  0  0  0  0  0  0  0  0
  -31.7620  -14.9370   20.0220 O   0  0  0  0  0  0  0  0  0  0  0  0
  -30.3720  -17.3550   21.1210 C   0  0  0  0  0  2  0  0  0  0  0  0
  -29.3500  -17.0150   19.4280 C   0  0  0  0  0  2  0  0  0  0  0  0
  -29.2890  -18.2510   20.4080 C   0  0  0  0  0  3  0  0  0  0  0  0
  -29.8270  -16.0820   20.5110 N   0  0  0  0  0  0  0  0  0  0  0  0
  -25.2150  -13.8680   20.5050 C   0  0  0  0  0  0  0  0  0  0  0  0
  -24.1500  -13.0940   20.8750 C   0  0  0  0  0  0  0  0  0  0  0  0
  -24.6170  -11.7430   20.8470 C   0  0  0  0  0  0  0  0  0  0  0  0
  -26.2570  -12.9910   20.2630 N   0  0  0  0  0  0  0  0  0  0  0  0
  -25.9070  -11.7080   20.5370 N   0  0  0  0  0  0  0  0  0  0  0  0
  -23.8920  -10.4800   21.0430 C   0  0  0  0  0  0  0  0  0  0  0  0
  -24.3320   -9.5080   21.9700 C   0  0  0  0  0  3  0  0  0  0  0  0
  -23.6060   -8.3120   22.1530 C   0  0  0  0  0  3  0  0  0  0  0  0
  -22.4260   -8.0770   21.4080 C   0  0  0  0  0  0  0  0  0  0  0  0
  -22.0050   -9.0360   20.4700 C   0  0  0  0  0  3  0  0  0  0  0  0
  -22.7310  -10.2250   20.2850 C   0  0  0  0  0  3  0  0  0  0  0  0
  -21.6700   -6.9330   21.5000 O   0  0  0  0  0  0  0  0  0  0  0  0
  -21.6400   -6.1810   22.6470 C   0  0  0  0  0  0  0  0  0  0  0  0
  -21.2480   -6.7310   23.8860 C   0  0  0  0  0  3  0  0  0  0  0  0
  -21.1630   -5.9060   25.0250 C   0  0  0  0  0  3  0  0  0  0  0  0
  -21.4620   -4.5340   24.9270 C   0  0  0  0  0  0  0  0  0  0  0  0
  -21.8480   -3.9850   23.6920 C   0  0  0  0  0  3  0  0  0  0  0  0
  -21.9340   -4.8060   22.5550 C   0  0  0  0  0  0  0  0  0  0  0  0
  -22.2870   -4.2680   21.3620 F   0  0  0  0  0  0  0  0  0  0  0  0
  -21.3730   -3.7390   26.0190 F   0  0  0  0  0  0  0  0  0  0  0  0
  -22.7550  -13.5700   21.1460 C   0  0  0  0  0  0  0  0  0  0  0  0
  -22.0310  -12.8730   22.0160 N   0  0  0  0  0  0  0  0  0  0  0  0
  -22.3140  -14.5930   20.6240 O   0  0  0  0  0  0  0  0  0  0  0  0
  -22.4030  -12.0420   22.4510 H   0  0  0  0  0  0  0  0  0  0  0  0
  -21.0940  -13.1720   22.2450 H   0  0  0  0  0  0  0  0  0  0  0  0
  -25.3860  -15.2380   20.3260 N   0  0  0  0  0  0  0  0  0  0  0  0
  -24.6340  -15.9060   20.4470 H   0  0  0  0  0  0  0  0  0  0  0  0
  -26.2560  -15.6640   20.0330 H   0  0  0  0  0  0  0  0  0  0  0  0
  -28.3740  -24.8920   19.5860 C   0  0  0  0  0  2  0  0  0  0  0  0
  -28.2960  -26.2860   20.2300 O   0  0  0  0  0  0  0  0  0  0  0  0
  -24.6240  -31.8740   23.2110 C   0  0  0  0  0  0  0  0  0  0  0  0
  -27.1970  -27.2030   20.1500 C   0  0  0  0  0  0  0  0  0  0  0  0
  -23.4110  -30.4740   21.5830 C   0  0  0  0  0  3  0  0  0  0  0  0
  -24.8500  -28.9050   20.1490 C   0  0  0  0  0  0  0  0  0  0  0  0
  -25.9600  -30.7570   21.3920 C   0  0  0  0  0  2  0  0  0  0  0  0
  -26.0310  -29.3680   20.7420 C   0  0  0  0  0  0  0  0  0  0  0  0
  -27.2010  -28.5300   20.7310 C   0  0  0  0  0  3  0  0  0  0  0  0
  -25.9840  -26.8210   19.5360 C   0  0  0  0  0  3  0  0  0  0  0  0
  -24.8370  -27.6430   19.5360 C   0  0  0  0  0  3  0  0  0  0  0  0
  -23.6180  -29.7940   20.2030 C   0  0  0  0  0  2  0  0  0  0  0  0
  -24.6850  -31.0570   22.1160 N   0  0  0  0  0  0  0  0  0  0  0  0
  -23.5420  -32.1570   23.7480 O   0  0  0  0  0  0  0  0  0  0  0  0
  -22.7460  -29.4670   22.5520 C   0  0  0  0  0  0  0  0  0  0  0  0
  -21.4170  -29.2960   22.4350 N   0  0  0  0  0  0  0  0  0  0  0  0
  -23.4240  -28.8430   23.3710 O   0  0  0  0  0  0  0  0  0  0  0  0
  -20.9290  -29.8500   21.7470 H   0  0  0  0  0  0  0  0  0  0  0  0
  -18.0390  -28.0970   22.9570 C   0  0  0  0  0  0  0  0  0  0  0  0
  -20.6010  -28.3610   23.2130 C   0  0  0  0  0  3  0  0  0  0  0  0
  -20.7020  -26.9280   22.6430 C   0  0  0  0  0  2  0  0  0  0  0  0
  -19.5960  -26.5970   21.6350 C   0  0  0  0  0  2  0  0  0  0  0  0
  -18.2160  -26.7460   22.2840 C   0  0  0  0  0  2  0  0  0  0  0  0
  -19.1600  -28.8620   23.3790 C   0  0  0  0  0  0  0  0  0  0  0  0
  -18.9420  -30.1250   23.9720 C   0  0  0  0  0  3  0  0  0  0  0  0
  -17.6360  -30.6250   24.1420 C   0  0  0  0  0  3  0  0  0  0  0  0
  -16.5310  -29.8560   23.7350 C   0  0  0  0  0  3  0  0  0  0  0  0
  -16.7330  -28.5940   23.1490 C   0  0  0  0  0  3  0  0  0  0  0  0
  -25.9080  -32.5080   23.8280 C   0  0  0  0  0  3  0  0  0  0  0  0
  -25.5950  -33.9060   24.1670 N   0  0  0  0  0  0  0  0  0  0  0  0
  -25.9170  -34.9650   23.4130 C   0  0  0  0  0  0  0  0  0  0  0  0
  -26.5770  -34.8700   22.3740 O   0  0  0  0  0  0  0  0  0  0  0  0
  -25.0050  -34.0520   24.9730 H   0  0  0  0  0  0  0  0  0  0  0  0
  -24.1790  -36.7580   23.0930 C   0  0  0  0  0  1  0  0  0  0  0  0
  -25.4320  -36.3500   23.8850 C   0  0  0  0  0  3  0  0  0  0  0  0
  -27.5760  -37.2370   24.6890 C   0  0  0  0  0  1  0  0  0  0  0  0
  -26.4600  -37.4070   23.7630 N   0  0  0  0  0  0  0  0  0  0  0  0
  -26.0520  -38.3260   23.9180 H   0  0  0  0  0  0  0  0  0  0  0  0
  -26.4320  -31.7380   25.1020 C   0  0  1  0  0  0  0  0  0  0  0  0
  -25.3450  -31.5010   26.1770 C   0  0  0  0  0  1  0  0  0  0  0  0
  -27.0110  -30.3600   24.7100 C   0  0  0  0  0  1  0  0  0  0  0  0
  -27.5880  -32.5300   25.7560 C   0  0  0  0  0  1  0  0  0  0  0  0
  1  4  1  0
  1  3  1  0
  3  5  1  0
  3  2  1  0
  4 47  1  0
  4  2  1  0
  6  5  2  0
  7 18  1  0
  8 13  1  0
  9 10  1  0
  9  8  1  0
 11 10  1  0
 11 22  1  0
 11 12  1  0
 13  7  1  0
 13 12  1  0
 14  7  2  0
 16 17  1  0
 16 18  1  0
 17  5  1  0
 17 15  1  0
 18 15  1  0
 19 20  2  0
 20 39  1  0
 21 20  1  0
 21 24  1  0
 22 19  1  0
 22 23  1  0
 23 21  2  0
 24 25  1  0
 25 26  2  0
 27 30  1  0
 27 26  1  0
 28 27  2  0
 29 28  1  0
 29 24  2  0
 30 31  1  0
 31 32  1  0
 32 33  2  0
 34 33  1  0
 34 38  1  0
 35 34  2  0
 36 31  2  0
 36 35  1  0
 37 36  1  0
 39 40  1  0
 40 43  1  0
 40 42  1  0
 41 39  2  0
 44 45  1  0
 44 19  1  0
 46 44  1  0
 47 48  1  0
 49 60  2  0
 50 48  1  0
 50 55  1  0
 51 59  1  0
 51 61  1  0
 52 58  1  0
 52 54  1  0
 53 59  1  0
 54 53  1  0
 55 54  2  0
 56 57  1  0
 56 50  2  0
 57 52  2  0
 58 51  1  0
 59 49  1  0
 61 63  2  0
 62 61  1  0
 64 62  1  0
 65 74  2  0
 65 70  1  0
 66 62  1  0
 66 70  1  0
 67 66  1  0
 68 69  1  0
 68 67  1  0
 69 65  1  0
 70 71  2  0
 71 72  1  0
 73 72  2  0
 74 73  1  0
 75 49  1  0
 75 76  1  0
 75 85  1  0
 76 79  1  0
 77 81  1  0
 77 76  1  0
 78 77  2  0
 81 80  1  0
 83 81  1  0
 83 84  1  0
 83 82  1  0
 85 88  1  1
 85 86  1  0
 87 85  1  0
M  ISO  4   7 100  18 100  47 101  48 101
M  END
>  <TORSDO>  (65) 
F 18

>  <SCORE>  (65) 
-14.649

>  <name>  (65) 
64

>  <ligand_id>  (65) 
64

>  <original_smiles>  (65) 
[H]c1c([H])c([H])c2c(c1[H])C([H])([H])C([H])([H])C([H])([H])C2([H])N([H])C(=O)C1([H])N(C(=O)C([H])(N([H])C(=O)C([H])(N([H])C([H])([H])[H])C([H])([H])[H])C(C([H])([H])[H])(C([H])([H])[H])C([H])([H])[H])C([H])([H])c2c([H])c(OC([H])([H])C3([H])C([H])([H])C([H])(C(=O)C4([H])C([H])([H])N(C(=O)N5C([H])([H])C([H])([H])C([H])([H])C([H])(n6nc(-c7c([H])c([H])c(Oc8c([H])c([H])c(F)c([H])c8F)c([H])c7[H])c(C(=O)N([H])[H])c6N([H])[H])C5([H])[H])C4([H])[H])C3([H])[H])c([H])c([H])c2C1([H])[H]

>  <smiles>  (65) 
[H]c1c([H])c([H])c2c(c1[H])C([H])([H])C([H])([H])C([H])([H])C2([H])N([H])C(=O)C1([H])N(C(=O)C([H])(N([H])C(=O)C([H])(N([H])C([H])([H])[H])C([H])([H])[H])C(C([H])([H])[H])(C([H])([H])[H])C([H])([H])[H])C([H])([H])c2c([H])c(OC([H])([H])C3([H])C([H])([H])C([H])(C(=O)C4([H])C([H])([H])N(C(=O)N5C([H])([H])C([H])([H])C([H])([H])C([H])(n6nc(-c7c([H])c([H])c(Oc8c([H])c([H])c(F)c([H])c8F)c([H])c7[H])c(C(=O)N([H])[H])c6N([H])[H])C5([H])[H])C4([H])[H])C3([H])[H])c([H])c([H])c2C1([H])[H]

$$$$
65:0:0
     RDKit          3D

 90 98  0  0  1  0  0  0  0  0999 V2000
  -28.2950  -21.4440   21.0200 C   0  0  0  0  0  3  0  0  0  0  0  0
  -30.2400  -22.3070   19.8950 C   0  0  0  0  0  3  0  0  0  0  0  0
  -27.8290  -22.7810   21.1850 C   0  0  0  0  0  3  0  0  0  0  0  0
  -29.7760  -23.6440   20.0610 C   0  0  0  0  0  3  0  0  0  0  0  0
  -29.5310  -21.1750   20.3850 C   0  0  0  0  0  0  0  0  0  0  0  0
  -28.5590  -23.9160   20.7270 C   0  0  0  0  0  0  0  0  0  0  0  0
  -30.1890  -19.7580   20.2580 C   0  0  0  0  0  2  0  0  0  0  0  0
  -29.4700  -18.3970   20.6530 C   0  0  0  0  0  2  0  0  0  0  0  0
  -31.2740  -17.3220   22.1420 C   0  0  0  0  0  1  0  0  0  0  0  0
  -30.4690  -17.1650   20.8350 C   0  0  0  0  0  3  0  0  0  0  0  0
  -30.6110  -14.6420   20.4340 C   0  0  0  0  0  0  0  0  0  0  0  0
  -30.3390  -12.4210   19.3680 C   0  0  0  0  0  2  0  0  0  0  0  0
  -29.4060  -12.5580   18.1480 C   0  0  0  0  0  2  0  0  0  0  0  0
  -27.9330  -12.4050   18.5750 C   0  0  0  0  0  2  0  0  0  0  0  0
  -27.5750  -13.2690   19.8160 C   0  0  0  0  0  3  0  0  0  0  0  0
  -28.6330  -13.1360   20.9330 C   0  0  0  0  0  2  0  0  0  0  0  0
  -29.9400  -13.4540   20.3450 N   0  0  0  0  0  0  0  0  0  0  0  0
  -31.7760  -14.7410   20.0430 O   0  0  0  0  0  0  0  0  0  0  0  0
  -29.9110  -15.7650   20.7940 N   0  0  0  0  0  0  0  0  0  0  0  0
  -28.9410  -15.6380   21.0450 H   0  0  0  0  0  0  0  0  0  0  0  0
  -25.1810  -13.8520   20.5390 C   0  0  0  0  0  0  0  0  0  0  0  0
  -24.1180  -13.0720   20.9060 C   0  0  0  0  0  0  0  0  0  0  0  0
  -24.5870  -11.7230   20.8740 C   0  0  0  0  0  0  0  0  0  0  0  0
  -26.2300  -12.9770   20.3030 N   0  0  0  0  0  0  0  0  0  0  0  0
  -25.8780  -11.6920   20.5660 N   0  0  0  0  0  0  0  0  0  0  0  0
  -23.8660  -10.4570   21.0610 C   0  0  0  0  0  0  0  0  0  0  0  0
  -24.2980   -9.4920   21.9970 C   0  0  0  0  0  3  0  0  0  0  0  0
  -23.5770   -8.2910   22.1730 C   0  0  0  0  0  3  0  0  0  0  0  0
  -22.4090   -8.0470   21.4120 C   0  0  0  0  0  0  0  0  0  0  0  0
  -21.9960   -9.0010   20.4640 C   0  0  0  0  0  3  0  0  0  0  0  0
  -22.7180  -10.1930   20.2870 C   0  0  0  0  0  3  0  0  0  0  0  0
  -21.6580   -6.8990   21.4960 O   0  0  0  0  0  0  0  0  0  0  0  0
  -21.6110   -6.1550   22.6480 C   0  0  0  0  0  0  0  0  0  0  0  0
  -21.1750   -6.7040   23.8730 C   0  0  0  0  0  3  0  0  0  0  0  0
  -21.0750   -5.8860   25.0150 C   0  0  0  0  0  3  0  0  0  0  0  0
  -21.3980   -4.5180   24.9340 C   0  0  0  0  0  0  0  0  0  0  0  0
  -21.8270   -3.9680   23.7120 C   0  0  0  0  0  3  0  0  0  0  0  0
  -21.9290   -4.7840   22.5720 C   0  0  0  0  0  0  0  0  0  0  0  0
  -22.3220   -4.2440   21.3930 F   0  0  0  0  0  0  0  0  0  0  0  0
  -21.2940   -3.7290   26.0280 F   0  0  0  0  0  0  0  0  0  0  0  0
  -22.7190  -13.5420   21.1790 C   0  0  0  0  0  0  0  0  0  0  0  0
  -21.9930  -12.8380   22.0400 N   0  0  0  0  0  0  0  0  0  0  0  0
  -22.2780  -14.5690   20.6640 O   0  0  0  0  0  0  0  0  0  0  0  0
  -22.3620  -12.0070   22.4770 H   0  0  0  0  0  0  0  0  0  0  0  0
  -21.0530  -13.1340   22.2650 H   0  0  0  0  0  0  0  0  0  0  0  0
  -25.3390  -15.2230   20.3660 N   0  0  0  0  0  0  0  0  0  0  0  0
  -24.5690  -15.8730   20.4780 H   0  0  0  0  0  0  0  0  0  0  0  0
  -26.1850  -15.6690   20.0340 H   0  0  0  0  0  0  0  0  0  0  0  0
  -28.0780  -25.3550   21.1190 C   0  0  0  0  0  2  0  0  0  0  0  0
  -28.3210  -26.5180   20.2530 O   0  0  0  0  0  0  0  0  0  0  0  0
  -24.6070  -31.9120   23.2360 C   0  0  0  0  0  0  0  0  0  0  0  0
  -27.2360  -27.3910   20.1940 C   0  0  0  0  0  0  0  0  0  0  0  0
  -23.4090  -30.5110   21.5920 C   0  0  0  0  0  3  0  0  0  0  0  0
  -24.8690  -28.9690   20.1690 C   0  0  0  0  0  0  0  0  0  0  0  0
  -25.9430  -30.8480   21.4100 C   0  0  0  0  0  2  0  0  0  0  0  0
  -26.0310  -29.4710   20.7670 C   0  0  0  0  0  0  0  0  0  0  0  0
  -27.2250  -28.6920   20.7730 C   0  0  0  0  0  3  0  0  0  0  0  0
  -26.0600  -26.9320   19.5680 C   0  0  0  0  0  3  0  0  0  0  0  0
  -24.8820  -27.7030   19.5590 C   0  0  0  0  0  3  0  0  0  0  0  0
  -23.6270  -29.8350   20.2130 C   0  0  0  0  0  2  0  0  0  0  0  0
  -24.6720  -31.1060   22.1370 N   0  0  0  0  0  0  0  0  0  0  0  0
  -23.5230  -32.1870   23.7710 O   0  0  0  0  0  0  0  0  0  0  0  0
  -22.7470  -29.4930   22.5510 C   0  0  0  0  0  0  0  0  0  0  0  0
  -21.4210  -29.3200   22.4270 N   0  0  0  0  0  0  0  0  0  0  0  0
  -23.4270  -28.8620   23.3650 O   0  0  0  0  0  0  0  0  0  0  0  0
  -20.9340  -29.8800   21.7410 H   0  0  0  0  0  0  0  0  0  0  0  0
  -18.0370  -28.1520   22.9410 C   0  0  0  0  0  0  0  0  0  0  0  0
  -20.5990  -28.3860   23.1980 C   0  0  0  0  0  3  0  0  0  0  0  0
  -20.6840  -26.9570   22.6130 C   0  0  0  0  0  2  0  0  0  0  0  0
  -19.5730  -26.6500   21.6040 C   0  0  0  0  0  2  0  0  0  0  0  0
  -18.1960  -26.8060   22.2560 C   0  0  0  0  0  2  0  0  0  0  0  0
  -19.1660  -28.9020   23.3690 C   0  0  0  0  0  0  0  0  0  0  0  0
  -18.9620  -30.1630   23.9700 C   0  0  0  0  0  3  0  0  0  0  0  0
  -17.6630  -30.6740   24.1480 C   0  0  0  0  0  3  0  0  0  0  0  0
  -16.5490  -29.9220   23.7370 C   0  0  0  0  0  3  0  0  0  0  0  0
  -16.7370  -28.6630   23.1400 C   0  0  0  0  0  3  0  0  0  0  0  0
  -25.8900  -32.5460   23.8610 C   0  0  0  0  0  3  0  0  0  0  0  0
  -26.4010  -31.7780   25.1410 C   0  0  1  0  0  0  0  0  0  0  0  0
  -25.3030  -31.5450   26.2060 C   0  0  0  0  0  1  0  0  0  0  0  0
  -26.9850  -30.4000   24.7550 C   0  0  0  0  0  1  0  0  0  0  0  0
  -27.5510  -32.5730   25.8040 C   0  0  0  0  0  1  0  0  0  0  0  0
  -25.5800  -33.9450   24.1860 N   0  0  0  0  0  0  0  0  0  0  0  0
  -25.9170  -34.9950   23.4240 C   0  0  0  0  0  0  0  0  0  0  0  0
  -26.5910  -34.8870   22.3960 O   0  0  0  0  0  0  0  0  0  0  0  0
  -24.9870  -34.1030   24.9870 H   0  0  0  0  0  0  0  0  0  0  0  0
  -24.1980  -36.7910   23.0490 C   0  0  0  0  0  1  0  0  0  0  0  0
  -25.4280  -36.3850   23.8750 C   0  0  0  0  0  3  0  0  0  0  0  0
  -27.5570  -37.2640   24.7270 C   0  0  0  0  0  1  0  0  0  0  0  0
  -26.4640  -37.4360   23.7710 N   0  0  0  0  0  0  0  0  0  0  0  0
  -26.0590  -38.3560   23.9160 H   0  0  0  0  0  0  0  0  0  0  0  0
  1  3  1  0
  2  4  2  0
  2  5  1  0
  4  6  1  0
  5  1  2  0
  6 49  1  0
  6  3  2  0
  7  5  1  0
  7  8  1  0
  8 10  1  0
 10  9  1  0
 11 19  1  0
 12 17  1  0
 13 14  1  0
 13 12  1  0
 15 14  1  0
 15 24  1  0
 15 16  1  0
 17 11  1  0
 17 16  1  0
 18 11  2  0
 19 10  1  0
 19 20  1  0
 21 22  2  0
 22 41  1  0
 23 22  1  0
 23 26  1  0
 24 21  1  0
 24 25  1  0
 25 23  2  0
 26 27  1  0
 27 28  2  0
 29 32  1  0
 29 28  1  0
 30 29  2  0
 31 30  1  0
 31 26  2  0
 32 33  1  0
 33 34  1  0
 34 35  2  0
 36 35  1  0
 36 40  1  0
 37 36  2  0
 38 33  2  0
 38 37  1  0
 39 38  1  0
 41 42  1  0
 42 45  1  0
 42 44  1  0
 43 41  2  0
 46 47  1  0
 46 21  1  0
 48 46  1  0
 50 49  1  0
 51 62  2  0
 52 50  1  0
 52 57  1  0
 53 61  1  0
 53 63  1  0
 54 60  1  0
 54 56  1  0
 55 61  1  0
 56 57  2  0
 56 55  1  0
 58 52  2  0
 59 58  1  0
 59 54  2  0
 60 53  1  0
 61 51  1  0
 63 65  2  0
 64 63  1  0
 66 64  1  0
 67 76  2  0
 67 72  1  0
 68 64  1  0
 68 72  1  0
 69 68  1  0
 70 71  1  0
 70 69  1  0
 71 67  1  0
 72 73  2  0
 73 74  1  0
 75 74  2  0
 76 75  1  0
 77 51  1  0
 77 82  1  0
 77 78  1  0
 78 81  1  1
 78 79  1  0
 80 78  1  0
 82 85  1  0
 83 87  1  0
 83 82  1  0
 84 83  2  0
 87 86  1  0
 89 87  1  0
 89 90  1  0
 89 88  1  0
M  ISO  4  11 100  19 100  49 101  50 101
M  END
>  <TORSDO>  (66) 
F 20

>  <SCORE>  (66) 
-13.787

>  <name>  (66) 
65

>  <ligand_id>  (66) 
65

>  <original_smiles>  (66) 
[H]c1c([H])c([H])c2c(c1[H])C([H])([H])C([H])([H])C([H])([H])C2([H])N([H])C(=O)C1([H])N(C(=O)C([H])(N([H])C(=O)C([H])(N([H])C([H])([H])[H])C([H])([H])[H])C(C([H])([H])[H])(C([H])([H])[H])C([H])([H])[H])C([H])([H])c2c([H])c(OC([H])([H])c3c([H])c([H])c(C([H])([H])C([H])([H])C([H])(N([H])C(=O)N4C([H])([H])C([H])([H])C([H])([H])C([H])(n5nc(-c6c([H])c([H])c(Oc7c([H])c([H])c(F)c([H])c7F)c([H])c6[H])c(C(=O)N([H])[H])c5N([H])[H])C4([H])[H])C([H])([H])[H])c([H])c3[H])c([H])c([H])c2C1([H])[H]

>  <smiles>  (66) 
[H]c1c([H])c([H])c2c(c1[H])C([H])([H])C([H])([H])C([H])([H])C2([H])N([H])C(=O)C1([H])N(C(=O)C([H])(N([H])C(=O)C([H])(N([H])C([H])([H])[H])C([H])([H])[H])C(C([H])([H])[H])(C([H])([H])[H])C([H])([H])[H])C([H])([H])c2c([H])c(OC([H])([H])c3c([H])c([H])c(C([H])([H])C([H])([H])C([H])(N([H])C(=O)N4C([H])([H])C([H])([H])C([H])([H])C([H])(n5nc(-c6c([H])c([H])c(Oc7c([H])c([H])c(F)c([H])c7F)c([H])c6[H])c(C(=O)N([H])[H])c5N([H])[H])C4([H])[H])C([H])([H])[H])c([H])c3[H])c([H])c([H])c2C1([H])[H]

$$$$
66:0:0
     RDKit          3D

 88 96  0  0  1  0  0  0  0  0999 V2000
  -28.5750  -21.7630   20.4580 C   0  0  0  0  0  2  0  0  0  0  0  0
  -29.5580  -19.7900   18.7790 C   0  0  0  0  0  2  0  0  0  0  0  0
  -30.0290  -18.2790   18.7840 C   0  0  0  0  0  2  0  0  0  0  0  0
  -29.2400  -18.9130   20.9340 C   0  0  0  0  0  2  0  0  0  0  0  0
  -29.5000  -20.3630   20.2190 C   0  0  0  0  0  3  0  0  0  0  0  0
  -30.0850  -17.7060   20.2270 C   0  0  0  0  0  3  0  0  0  0  0  0
  -30.5190  -14.9850   20.1690 C   0  0  0  0  0  0  0  0  0  0  0  0
  -30.3540  -12.6550   19.1930 C   0  0  0  0  0  2  0  0  0  0  0  0
  -29.3860  -12.6550   17.9870 C   0  0  0  0  0  2  0  0  0  0  0  0
  -27.9330  -12.4460   18.4540 C   0  0  0  0  0  2  0  0  0  0  0  0
  -27.5690  -13.3360   19.6710 C   0  0  0  0  0  3  0  0  0  0  0  0
  -28.6590  -13.3170   20.7640 C   0  0  0  0  0  2  0  0  0  0  0  0
  -29.9140  -13.7300   20.1250 N   0  0  0  0  0  0  0  0  0  0  0  0
  -31.7090  -15.0510   19.8460 O   0  0  0  0  0  0  0  0  0  0  0  0
  -29.7530  -16.1660   20.3640 N   0  0  0  0  0  0  0  0  0  0  0  0
  -28.7900  -15.9720   20.5970 H   0  0  0  0  0  0  0  0  0  0  0  0
  -25.2090  -13.8940   20.4900 C   0  0  0  0  0  0  0  0  0  0  0  0
  -24.1590  -13.1100   20.8770 C   0  0  0  0  0  0  0  0  0  0  0  0
  -24.6250  -11.7620   20.8090 C   0  0  0  0  0  0  0  0  0  0  0  0
  -26.2470  -13.0240   20.2040 N   0  0  0  0  0  0  0  0  0  0  0  0
  -25.9070  -11.7340   20.4620 N   0  0  0  0  0  0  0  0  0  0  0  0
  -23.9050  -10.4950   20.9970 C   0  0  0  0  0  0  0  0  0  0  0  0
  -24.3410   -9.5290   21.9320 C   0  0  0  0  0  3  0  0  0  0  0  0
  -23.6200   -8.3280   22.1090 C   0  0  0  0  0  3  0  0  0  0  0  0
  -22.4490   -8.0840   21.3520 C   0  0  0  0  0  0  0  0  0  0  0  0
  -22.0320   -9.0390   20.4070 C   0  0  0  0  0  3  0  0  0  0  0  0
  -22.7540  -10.2310   20.2280 C   0  0  0  0  0  3  0  0  0  0  0  0
  -21.6980   -6.9360   21.4390 O   0  0  0  0  0  0  0  0  0  0  0  0
  -21.6180   -6.2160   22.6040 C   0  0  0  0  0  0  0  0  0  0  0  0
  -21.1270   -6.7850   23.7990 C   0  0  0  0  0  3  0  0  0  0  0  0
  -20.9960   -5.9890   24.9550 C   0  0  0  0  0  3  0  0  0  0  0  0
  -21.3450   -4.6260   24.9160 C   0  0  0  0  0  0  0  0  0  0  0  0
  -21.8270   -4.0570   23.7240 C   0  0  0  0  0  3  0  0  0  0  0  0
  -21.9600   -4.8480   22.5710 C   0  0  0  0  0  0  0  0  0  0  0  0
  -22.4060   -4.2900   21.4200 F   0  0  0  0  0  0  0  0  0  0  0  0
  -21.2110   -3.8600   26.0230 F   0  0  0  0  0  0  0  0  0  0  0  0
  -22.7680  -13.5790   21.1950 C   0  0  0  0  0  0  0  0  0  0  0  0
  -22.0650  -12.8680   22.0670 N   0  0  0  0  0  0  0  0  0  0  0  0
  -22.3160  -14.6140   20.7040 O   0  0  0  0  0  0  0  0  0  0  0  0
  -22.4450  -12.0310   22.4850 H   0  0  0  0  0  0  0  0  0  0  0  0
  -21.1340  -13.1630   22.3220 H   0  0  0  0  0  0  0  0  0  0  0  0
  -25.3630  -15.2680   20.3290 N   0  0  0  0  0  0  0  0  0  0  0  0
  -24.5920  -15.9130   20.4670 H   0  0  0  0  0  0  0  0  0  0  0  0
  -26.1850  -15.7150   19.9430 H   0  0  0  0  0  0  0  0  0  0  0  0
  -29.5220  -23.4540   18.7110 C   0  0  0  0  0  1  0  0  0  0  0  0
  -28.9940  -23.3730   20.1480 C   0  0  0  0  0  3  0  0  0  0  0  0
  -27.9510  -24.6810   20.3680 C   0  0  0  0  0  2  0  0  0  0  0  0
  -28.2490  -26.2100   20.2370 O   0  0  0  0  0  0  0  0  0  0  0  0
  -24.6340  -31.9090   23.2360 C   0  0  0  0  0  0  0  0  0  0  0  0
  -27.1920  -27.1920   20.1990 C   0  0  0  0  0  0  0  0  0  0  0  0
  -23.4270  -30.5170   21.6000 C   0  0  0  0  0  3  0  0  0  0  0  0
  -24.8680  -28.9430   20.1720 C   0  0  0  0  0  0  0  0  0  0  0  0
  -25.9810  -30.7790   21.4280 C   0  0  0  0  0  2  0  0  0  0  0  0
  -26.0510  -29.3860   20.7780 C   0  0  0  0  0  0  0  0  0  0  0  0
  -27.2140  -28.5260   20.7740 C   0  0  0  0  0  3  0  0  0  0  0  0
  -25.9840  -26.8590   19.5440 C   0  0  0  0  0  3  0  0  0  0  0  0
  -24.8480  -27.6940   19.5380 C   0  0  0  0  0  3  0  0  0  0  0  0
  -23.6440  -29.8440   20.2210 C   0  0  0  0  0  2  0  0  0  0  0  0
  -24.7020  -31.0900   22.1430 N   0  0  0  0  0  0  0  0  0  0  0  0
  -23.5510  -32.1940   23.7680 O   0  0  0  0  0  0  0  0  0  0  0  0
  -22.7520  -29.5080   22.5630 C   0  0  0  0  0  0  0  0  0  0  0  0
  -21.4220  -29.3360   22.4380 N   0  0  0  0  0  0  0  0  0  0  0  0
  -23.4250  -28.8800   23.3860 O   0  0  0  0  0  0  0  0  0  0  0  0
  -20.9370  -29.8920   21.7500 H   0  0  0  0  0  0  0  0  0  0  0  0
  -18.0410  -28.1440   22.9550 C   0  0  0  0  0  0  0  0  0  0  0  0
  -20.6020  -28.4000   23.2130 C   0  0  0  0  0  3  0  0  0  0  0  0
  -20.6980  -26.9690   22.6380 C   0  0  0  0  0  2  0  0  0  0  0  0
  -19.5920  -26.6480   21.6280 C   0  0  0  0  0  2  0  0  0  0  0  0
  -18.2130  -26.7960   22.2770 C   0  0  0  0  0  2  0  0  0  0  0  0
  -19.1630  -28.9050   23.3800 C   0  0  0  0  0  0  0  0  0  0  0  0
  -18.9470  -30.1660   23.9770 C   0  0  0  0  0  3  0  0  0  0  0  0
  -17.6440  -30.6680   24.1510 C   0  0  0  0  0  3  0  0  0  0  0  0
  -16.5370  -29.9040   23.7400 C   0  0  0  0  0  3  0  0  0  0  0  0
  -16.7370  -28.6440   23.1490 C   0  0  0  0  0  3  0  0  0  0  0  0
  -25.9150  -32.5440   23.8580 C   0  0  0  0  0  3  0  0  0  0  0  0
  -26.4310  -31.7710   25.1340 C   0  0  1  0  0  0  0  0  0  0  0  0
  -25.3380  -31.5310   26.2030 C   0  0  0  0  0  1  0  0  0  0  0  0
  -27.0130  -30.3920   24.7450 C   0  0  0  0  0  1  0  0  0  0  0  0
  -27.5820  -32.5630   25.7970 C   0  0  0  0  0  1  0  0  0  0  0  0
  -25.6060  -33.9420   24.1960 N   0  0  0  0  0  0  0  0  0  0  0  0
  -25.9190  -35.0000   23.4360 C   0  0  0  0  0  0  0  0  0  0  0  0
  -26.5700  -34.9000   22.3920 O   0  0  0  0  0  0  0  0  0  0  0  0
  -25.0310  -34.0920   25.0130 H   0  0  0  0  0  0  0  0  0  0  0  0
  -24.1790  -36.7900   23.1230 C   0  0  0  0  0  1  0  0  0  0  0  0
  -25.4380  -36.3860   23.9060 C   0  0  0  0  0  3  0  0  0  0  0  0
  -27.5850  -37.2800   24.6970 C   0  0  0  0  0  1  0  0  0  0  0  0
  -26.4650  -37.4440   23.7730 N   0  0  0  0  0  0  0  0  0  0  0  0
  -26.0590  -38.3630   23.9260 H   0  0  0  0  0  0  0  0  0  0  0  0
  2  3  1  0
  2  5  1  0
  3  6  1  0
  5  1  1  0
  5  4  1  0
  6 15  1  0
  6  4  1  0
  7 15  1  0
  8 13  1  0
  9 10  1  0
  9  8  1  0
 11 10  1  0
 11 20  1  0
 11 12  1  0
 13  7  1  0
 13 12  1  0
 14  7  2  0
 15 16  1  0
 17 18  2  0
 18 37  1  0
 19 18  1  0
 19 22  1  0
 20 21  1  0
 20 17  1  0
 21 19  2  0
 22 23  1  0
 23 24  2  0
 25 28  1  0
 25 24  1  0
 26 25  2  0
 27 26  1  0
 27 22  2  0
 28 29  1  0
 29 30  1  0
 30 31  2  0
 32 31  1  0
 32 36  1  0
 33 32  2  0
 34 29  2  0
 34 33  1  0
 35 34  1  0
 37 38  1  0
 38 41  1  0
 38 40  1  0
 39 37  2  0
 42 43  1  0
 42 17  1  0
 44 42  1  0
 46 45  1  0
 46 47  1  0
 46  1  1  0
 48 47  1  0
 49 60  2  0
 50 48  1  0
 50 55  1  0
 51 59  1  0
 51 61  1  0
 52 58  1  0
 52 54  1  0
 53 59  1  0
 54 53  1  0
 55 54  2  0
 56 50  2  0
 57 56  1  0
 57 52  2  0
 58 51  1  0
 59 49  1  0
 61 63  2  0
 62 61  1  0
 64 62  1  0
 65 74  2  0
 65 70  1  0
 66 62  1  0
 66 70  1  0
 67 66  1  0
 68 69  1  0
 68 67  1  0
 69 65  1  0
 70 71  2  0
 71 72  1  0
 73 72  2  0
 74 73  1  0
 75 49  1  0
 75 80  1  0
 75 76  1  0
 76 79  1  1
 76 77  1  0
 78 76  1  0
 80 83  1  0
 81 85  1  0
 81 80  1  0
 82 81  2  0
 85 84  1  0
 87 85  1  0
 87 88  1  0
 87 86  1  0
M  ISO  4   7 100  15 100  47 101  48 101
M  END
>  <TORSDO>  (67) 
F 19

>  <SCORE>  (67) 
-14.580

>  <name>  (67) 
66

>  <ligand_id>  (67) 
66

>  <original_smiles>  (67) 
[H]c1c([H])c([H])c2c(c1[H])C([H])([H])C([H])([H])C([H])([H])C2([H])N([H])C(=O)C1([H])N(C(=O)C([H])(N([H])C(=O)C([H])(N([H])C([H])([H])[H])C([H])([H])[H])C(C([H])([H])[H])(C([H])([H])[H])C([H])([H])[H])C([H])([H])c2c([H])c(OC([H])([H])C([H])(C([H])([H])[H])C([H])([H])C3([H])C([H])([H])C([H])([H])C([H])(N([H])C(=O)N4C([H])([H])C([H])([H])C([H])([H])C([H])(n5nc(-c6c([H])c([H])c(Oc7c([H])c([H])c(F)c([H])c7F)c([H])c6[H])c(C(=O)N([H])[H])c5N([H])[H])C4([H])[H])C3([H])[H])c([H])c([H])c2C1([H])[H]

>  <smiles>  (67) 
[H]c1c([H])c([H])c2c(c1[H])C([H])([H])C([H])([H])C([H])([H])C2([H])N([H])C(=O)C1([H])N(C(=O)C([H])(N([H])C(=O)C([H])(N([H])C([H])([H])[H])C([H])([H])[H])C(C([H])([H])[H])(C([H])([H])[H])C([H])([H])[H])C([H])([H])c2c([H])c(OC([H])([H])C([H])(C([H])([H])[H])C([H])([H])C3([H])C([H])([H])C([H])([H])C([H])(N([H])C(=O)N4C([H])([H])C([H])([H])C([H])([H])C([H])(n5nc(-c6c([H])c([H])c(Oc7c([H])c([H])c(F)c([H])c7F)c([H])c6[H])c(C(=O)N([H])[H])c5N([H])[H])C4([H])[H])C3([H])[H])c([H])c([H])c2C1([H])[H]

$$$$
67:0:0
     RDKit          3D

 89 97  0  0  1  0  0  0  0  0999 V2000
  -29.8400  -22.4170   19.0060 C   0  0  0  0  0  2  0  0  0  0  0  0
  -29.4360  -23.9680   18.8370 C   0  0  0  0  0  2  0  0  0  0  0  0
  -28.2130  -22.9690   20.5580 C   0  0  0  0  0  2  0  0  0  0  0  0
  -28.7520  -21.5790   19.7420 C   0  0  0  0  0  3  0  0  0  0  0  0
  -28.2070  -24.4270   19.7000 C   0  0  0  0  0  3  0  0  0  0  0  0
  -28.2280  -25.9990   20.1360 O   0  0  0  0  0  0  0  0  0  0  0  0
  -24.6020  -31.8380   23.1290 C   0  0  0  0  0  0  0  0  0  0  0  0
  -27.1870  -27.0470   20.0510 C   0  0  0  0  0  0  0  0  0  0  0  0
  -23.4160  -30.4590   21.4680 C   0  0  0  0  0  3  0  0  0  0  0  0
  -24.8730  -28.8860   20.0250 C   0  0  0  0  0  0  0  0  0  0  0  0
  -25.9780  -30.6920   21.3310 C   0  0  0  0  0  2  0  0  0  0  0  0
  -26.0540  -29.2960   20.6560 C   0  0  0  0  0  0  0  0  0  0  0  0
  -27.2020  -28.3950   20.6490 C   0  0  0  0  0  3  0  0  0  0  0  0
  -25.9770  -26.7780   19.3720 C   0  0  0  0  0  3  0  0  0  0  0  0
  -24.8570  -27.6470   19.3650 C   0  0  0  0  0  3  0  0  0  0  0  0
  -23.6490  -29.7980   20.0820 C   0  0  0  0  0  2  0  0  0  0  0  0
  -24.6860  -31.0210   22.0310 N   0  0  0  0  0  0  0  0  0  0  0  0
  -23.5100  -32.1170   23.6510 O   0  0  0  0  0  0  0  0  0  0  0  0
  -22.7240  -29.4460   22.4180 C   0  0  0  0  0  0  0  0  0  0  0  0
  -21.3920  -29.2940   22.2970 N   0  0  0  0  0  0  0  0  0  0  0  0
  -23.3910  -28.8020   23.2300 O   0  0  0  0  0  0  0  0  0  0  0  0
  -20.9080  -29.8680   21.6200 H   0  0  0  0  0  0  0  0  0  0  0  0
  -18.0010  -28.1160   22.8160 C   0  0  0  0  0  0  0  0  0  0  0  0
  -20.5660  -28.3480   23.0540 C   0  0  0  0  0  3  0  0  0  0  0  0
  -20.6450  -26.9280   22.4450 C   0  0  0  0  0  2  0  0  0  0  0  0
  -19.5290  -26.6410   21.4380 C   0  0  0  0  0  2  0  0  0  0  0  0
  -18.1550  -26.7850   22.1010 C   0  0  0  0  0  2  0  0  0  0  0  0
  -19.1320  -28.8570   23.2480 C   0  0  0  0  0  0  0  0  0  0  0  0
  -18.9320  -30.1040   23.8800 C   0  0  0  0  0  3  0  0  0  0  0  0
  -17.6340  -30.6110   24.0780 C   0  0  0  0  0  3  0  0  0  0  0  0
  -16.5170  -29.8670   23.6580 C   0  0  0  0  0  3  0  0  0  0  0  0
  -16.7010  -28.6210   23.0340 C   0  0  0  0  0  3  0  0  0  0  0  0
  -25.8710  -32.4740   23.7730 C   0  0  0  0  0  3  0  0  0  0  0  0
  -26.3760  -31.6910   25.0480 C   0  0  1  0  0  0  0  0  0  0  0  0
  -25.2720  -31.4390   26.1030 C   0  0  0  0  0  1  0  0  0  0  0  0
  -26.9690  -30.3200   24.6550 C   0  0  0  0  0  1  0  0  0  0  0  0
  -27.5160  -32.4840   25.7300 C   0  0  0  0  0  1  0  0  0  0  0  0
  -25.5470  -33.8660   24.1290 N   0  0  0  0  0  0  0  0  0  0  0  0
  -25.8640  -34.9400   23.3920 C   0  0  0  0  0  0  0  0  0  0  0  0
  -26.5220  -34.8630   22.3520 O   0  0  0  0  0  0  0  0  0  0  0  0
  -24.9580  -33.9970   24.9370 H   0  0  0  0  0  0  0  0  0  0  0  0
  -24.1180  -36.7330   23.1070 C   0  0  0  0  0  1  0  0  0  0  0  0
  -25.3760  -36.3170   23.8870 C   0  0  0  0  0  3  0  0  0  0  0  0
  -27.5130  -37.2070   24.7070 C   0  0  0  0  0  1  0  0  0  0  0  0
  -26.3990  -37.3790   23.7780 N   0  0  0  0  0  0  0  0  0  0  0  0
  -25.9880  -38.2930   23.9450 H   0  0  0  0  0  0  0  0  0  0  0  0
  -29.1010  -19.9470   20.3830 C   0  0  0  0  0  3  0  0  0  0  0  0
  -27.8990  -19.5800   21.1460 N   0  0  0  0  0  4  0  0  0  0  0  0
  -27.1400  -19.3510   20.5280 H   0  0  0  0  0  0  0  0  0  0  0  0
  -27.6130  -20.3440   21.7310 H   0  0  0  0  0  0  0  0  0  0  0  0
  -28.0830  -18.7920   21.7390 H   0  0  0  0  0  0  0  0  0  0  0  0
  -29.6810  -18.4230   19.6680 C   0  0  0  0  0  3  0  0  0  0  0  0
  -29.6910  -16.7570   20.2990 C   0  0  0  0  0  3  0  0  0  0  0  0
  -30.4390  -15.2620   19.8230 C   0  0  0  0  0  0  0  0  0  0  0  0
  -30.3650  -12.8340   18.9300 C   0  0  0  0  0  2  0  0  0  0  0  0
  -29.3530  -12.6850   17.7650 C   0  0  0  0  0  2  0  0  0  0  0  0
  -27.9350  -12.4170   18.3020 C   0  0  0  0  0  2  0  0  0  0  0  0
  -27.5770  -13.3580   19.4790 C   0  0  0  0  0  3  0  0  0  0  0  0
  -28.7050  -13.4590   20.5280 C   0  0  0  0  0  2  0  0  0  0  0  0
  -29.9070  -13.9470   19.8340 N   0  0  0  0  0  0  0  0  0  0  0  0
  -31.6000  -15.3010   19.3920 O   0  0  0  0  0  0  0  0  0  0  0  0
  -25.2740  -13.9020   20.4380 C   0  0  0  0  0  0  0  0  0  0  0  0
  -24.2390  -13.1160   20.8630 C   0  0  0  0  0  0  0  0  0  0  0  0
  -24.6940  -11.7670   20.7460 C   0  0  0  0  0  0  0  0  0  0  0  0
  -26.2890  -13.0330   20.0790 N   0  0  0  0  0  0  0  0  0  0  0  0
  -25.9570  -11.7400   20.3310 N   0  0  0  0  0  0  0  0  0  0  0  0
  -23.9750  -10.5010   20.9470 C   0  0  0  0  0  0  0  0  0  0  0  0
  -24.4390   -9.5230   21.8550 C   0  0  0  0  0  3  0  0  0  0  0  0
  -23.7180   -8.3250   22.0470 C   0  0  0  0  0  3  0  0  0  0  0  0
  -22.5190   -8.0950   21.3310 C   0  0  0  0  0  0  0  0  0  0  0  0
  -22.0740   -9.0600   20.4110 C   0  0  0  0  0  3  0  0  0  0  0  0
  -22.7950  -10.2510   20.2180 C   0  0  0  0  0  3  0  0  0  0  0  0
  -21.7670   -6.9480   21.4340 O   0  0  0  0  0  0  0  0  0  0  0  0
  -21.7250   -6.2170   22.5930 C   0  0  0  0  0  0  0  0  0  0  0  0
  -21.2720   -6.7740   23.8100 C   0  0  0  0  0  3  0  0  0  0  0  0
  -21.1780   -5.9670   24.9620 C   0  0  0  0  0  3  0  0  0  0  0  0
  -21.5280   -4.6050   24.8980 C   0  0  0  0  0  0  0  0  0  0  0  0
  -21.9730   -4.0470   23.6870 C   0  0  0  0  0  3  0  0  0  0  0  0
  -22.0680   -4.8510   22.5380 C   0  0  0  0  0  0  0  0  0  0  0  0
  -22.4780   -4.3040   21.3680 F   0  0  0  0  0  0  0  0  0  0  0  0
  -21.4300   -3.8280   26.0020 F   0  0  0  0  0  0  0  0  0  0  0  0
  -22.8710  -13.5890   21.2570 C   0  0  0  0  0  0  0  0  0  0  0  0
  -22.2080  -12.8660   22.1530 N   0  0  0  0  0  0  0  0  0  0  0  0
  -22.4030  -14.6350   20.8090 O   0  0  0  0  0  0  0  0  0  0  0  0
  -22.6020  -12.0190   22.5360 H   0  0  0  0  0  0  0  0  0  0  0  0
  -21.2940  -13.1640   22.4600 H   0  0  0  0  0  0  0  0  0  0  0  0
  -25.4300  -15.2780   20.2970 N   0  0  0  0  0  0  0  0  0  0  0  0
  -24.6720  -15.9250   20.4850 H   0  0  0  0  0  0  0  0  0  0  0  0
  -26.2420  -15.7250   19.8930 H   0  0  0  0  0  0  0  0  0  0  0  0
  1  4  1  0
  2  1  1  0
  2  5  1  0
  4 47  1  0
  4  3  1  0
  5  6  1  0
  5  3  1  0
  7 18  2  0
  8  6  1  0
  8 13  1  0
  9 17  1  0
  9 19  1  0
 10 16  1  0
 10 12  1  0
 11 17  1  0
 12 11  1  0
 13 12  2  0
 14  8  2  0
 15 14  1  0
 15 10  2  0
 16  9  1  0
 17  7  1  0
 19 21  2  0
 20 19  1  0
 22 20  1  0
 23 32  2  0
 23 28  1  0
 24 20  1  0
 24 28  1  0
 25 24  1  0
 26 27  1  0
 26 25  1  0
 27 23  1  0
 28 29  2  0
 29 30  1  0
 31 30  2  0
 32 31  1  0
 33  7  1  0
 33 38  1  0
 33 34  1  0
 34 37  1  1
 34 35  1  0
 36 34  1  0
 38 41  1  0
 39 43  1  0
 39 38  1  0
 40 39  2  0
 43 42  1  0
 45 43  1  0
 45 46  1  0
 45 44  1  0
 47 52  1  0
 47 48  1  0
 48 50  1  0
 48 51  1  0
 49 48  1  0
 52 53  2  0
 54 60  1  0
 54 53  1  0
 55 60  1  0
 56 57  1  0
 56 55  1  0
 58 57  1  0
 58 65  1  0
 58 59  1  0
 60 59  1  0
 61 54  2  0
 62 63  2  0
 63 82  1  0
 64 63  1  0
 64 67  1  0
 65 66  1  0
 65 62  1  0
 66 64  2  0
 67 68  1  0
 68 69  2  0
 70 73  1  0
 70 69  1  0
 71 70  2  0
 72 71  1  0
 72 67  2  0
 73 74  1  0
 74 75  1  0
 75 76  2  0
 77 76  1  0
 77 81  1  0
 78 77  2  0
 79 74  2  0
 79 78  1  0
 80 79  1  0
 82 83  1  0
 83 86  1  0
 83 85  1  0
 84 82  2  0
 87 62  1  0
 87 88  1  0
 89 87  1  0
M  ISO  4   5 101   6 101  53 100  54 100
M  END
>  <TORSDO>  (68) 
F 20

>  <SCORE>  (68) 
-15.406

>  <name>  (68) 
67

>  <ligand_id>  (68) 
67

>  <original_smiles>  (68) 
[H]c1c([H])c([H])c2c(c1[H])C([H])([H])C([H])([H])C([H])([H])C2([H])N([H])C(=O)C1([H])N(C(=O)C([H])(N([H])C(=O)C([H])(N([H])C([H])([H])[H])C([H])([H])[H])C(C([H])([H])[H])(C([H])([H])[H])C([H])([H])[H])C([H])([H])c2c([H])c(OC3([H])C([H])([H])C([H])([H])C([H])(C([H])(C([H])([H])C([H])([H])C(=O)N4C([H])([H])C([H])([H])C([H])([H])C([H])(n5nc(-c6c([H])c([H])c(Oc7c([H])c([H])c(F)c([H])c7F)c([H])c6[H])c(C(=O)N([H])[H])c5N([H])[H])C4([H])[H])[N+]([H])([H])[H])C3([H])[H])c([H])c([H])c2C1([H])[H]

>  <smiles>  (68) 
[H]c1c([H])c([H])c2c(c1[H])C([H])([H])C([H])([H])C([H])([H])C2([H])N([H])C(=O)C1([H])N(C(=O)C([H])(N([H])C(=O)C([H])(N([H])C([H])([H])[H])C([H])([H])[H])C(C([H])([H])[H])(C([H])([H])[H])C([H])([H])[H])C([H])([H])c2c([H])c(OC3([H])C([H])([H])C([H])([H])C([H])(C([H])(C([H])([H])C([H])([H])C(=O)N4C([H])([H])C([H])([H])C([H])([H])C([H])(n5nc(-c6c([H])c([H])c(Oc7c([H])c([H])c(F)c([H])c7F)c([H])c6[H])c(C(=O)N([H])[H])c5N([H])[H])C4([H])[H])[N+]([H])([H])[H])C3([H])[H])c([H])c([H])c2C1([H])[H]

$$$$
68:0:0
     RDKit          3D

 89 98  0  0  1  0  0  0  0  0999 V2000
  -29.1130  -19.7240   20.7470 C   0  0  0  0  0  0  0  0  0  0  0  0
  -27.8470  -20.7300   18.8380 C   0  0  0  0  0  2  0  0  0  0  0  0
  -29.9270  -19.2910   18.3570 C   0  0  0  0  0  2  0  0  0  0  0  0
  -29.7560  -22.1670   18.7010 C   0  0  0  0  0  2  0  0  0  0  0  0
  -28.3100  -21.1390   20.2270 C   0  0  0  0  0  3  0  0  0  0  0  0
  -29.8700  -18.5320   19.7690 C   0  0  0  0  0  3  0  0  0  0  0  0
  -29.1970  -20.7480   18.1530 C   0  0  0  0  0  3  0  0  0  0  0  0
  -28.9140  -22.7360   19.9420 C   0  0  0  0  0  3  0  0  0  0  0  0
  -29.1340  -19.5500   21.9680 O   0  0  0  0  0  0  0  0  0  0  0  0
  -30.5400  -15.5720   19.7540 C   0  0  0  0  0  0  0  0  0  0  0  0
  -30.5360  -13.0920   18.9340 C   0  0  0  0  0  2  0  0  0  0  0  0
  -29.5430  -12.8090   17.7760 C   0  0  0  0  0  2  0  0  0  0  0  0
  -28.1370  -12.5050   18.3230 C   0  0  0  0  0  2  0  0  0  0  0  0
  -27.7330  -13.4860   19.4500 C   0  0  0  0  0  3  0  0  0  0  0  0
  -28.8490  -13.7040   20.4940 C   0  0  0  0  0  2  0  0  0  0  0  0
  -30.0090  -14.2430   19.7640 N   0  0  0  0  0  0  0  0  0  0  0  0
  -31.7450  -15.5840   19.4590 O   0  0  0  0  0  0  0  0  0  0  0  0
  -29.7450  -16.8370   19.8690 N   0  0  0  0  0  0  0  0  0  0  0  0
  -28.7910  -16.5910   20.0880 H   0  0  0  0  0  0  0  0  0  0  0  0
  -25.4380  -14.0120   20.4210 C   0  0  0  0  0  0  0  0  0  0  0  0
  -24.4070  -13.2220   20.8460 C   0  0  0  0  0  0  0  0  0  0  0  0
  -24.8650  -11.8730   20.7230 C   0  0  0  0  0  0  0  0  0  0  0  0
  -26.4520  -13.1470   20.0570 N   0  0  0  0  0  0  0  0  0  0  0  0
  -26.1270  -11.8510   20.3060 N   0  0  0  0  0  0  0  0  0  0  0  0
  -24.1490  -10.6060   20.9220 C   0  0  0  0  0  0  0  0  0  0  0  0
  -24.5920   -9.6450   21.8560 C   0  0  0  0  0  3  0  0  0  0  0  0
  -23.8730   -8.4430   22.0430 C   0  0  0  0  0  3  0  0  0  0  0  0
  -22.6960   -8.1960   21.2950 C   0  0  0  0  0  0  0  0  0  0  0  0
  -22.2740   -9.1470   20.3500 C   0  0  0  0  0  3  0  0  0  0  0  0
  -22.9930  -10.3380   20.1600 C   0  0  0  0  0  3  0  0  0  0  0  0
  -21.9490   -7.0470   21.3920 O   0  0  0  0  0  0  0  0  0  0  0  0
  -21.8270   -6.3660   22.5770 C   0  0  0  0  0  0  0  0  0  0  0  0
  -21.2460   -6.9560   23.7200 C   0  0  0  0  0  3  0  0  0  0  0  0
  -21.0760   -6.1960   24.8950 C   0  0  0  0  0  3  0  0  0  0  0  0
  -21.4770   -4.8480   24.9270 C   0  0  0  0  0  0  0  0  0  0  0  0
  -22.0520   -4.2570   23.7880 C   0  0  0  0  0  3  0  0  0  0  0  0
  -22.2230   -5.0130   22.6150 C   0  0  0  0  0  0  0  0  0  0  0  0
  -22.7570   -4.4330   21.5140 F   0  0  0  0  0  0  0  0  0  0  0  0
  -21.3090   -4.1160   26.0530 F   0  0  0  0  0  0  0  0  0  0  0  0
  -23.0370  -13.6900   21.2420 C   0  0  0  0  0  0  0  0  0  0  0  0
  -22.3790  -12.9670   22.1410 N   0  0  0  0  0  0  0  0  0  0  0  0
  -22.5640  -14.7320   20.7900 O   0  0  0  0  0  0  0  0  0  0  0  0
  -22.7780  -12.1250   22.5270 H   0  0  0  0  0  0  0  0  0  0  0  0
  -21.4630  -13.2630   22.4490 H   0  0  0  0  0  0  0  0  0  0  0  0
  -25.5870  -15.3890   20.2820 N   0  0  0  0  0  0  0  0  0  0  0  0
  -24.8230  -16.0300   20.4700 H   0  0  0  0  0  0  0  0  0  0  0  0
  -26.3820  -15.8380   19.8480 H   0  0  0  0  0  0  0  0  0  0  0  0
  -27.9920  -24.3270   19.7940 C   0  0  0  0  0  2  0  0  0  0  0  0
  -28.2300  -25.9720   19.9860 O   0  0  0  0  0  0  0  0  0  0  0  0
  -24.6620  -31.8830   23.1600 C   0  0  0  0  0  0  0  0  0  0  0  0
  -27.2150  -27.0830   19.9710 C   0  0  0  0  0  0  0  0  0  0  0  0
  -23.4580  -30.5240   21.4980 C   0  0  0  0  0  3  0  0  0  0  0  0
  -24.9010  -28.9680   20.0100 C   0  0  0  0  0  0  0  0  0  0  0  0
  -26.0230  -30.7520   21.3260 C   0  0  0  0  0  2  0  0  0  0  0  0
  -26.0960  -29.3590   20.6270 C   0  0  0  0  0  0  0  0  0  0  0  0
  -27.2450  -28.4400   20.5800 C   0  0  0  0  0  3  0  0  0  0  0  0
  -25.9860  -26.8550   19.3100 C   0  0  0  0  0  3  0  0  0  0  0  0
  -24.8730  -27.7390   19.3310 C   0  0  0  0  0  3  0  0  0  0  0  0
  -23.6760  -29.8810   20.1010 C   0  0  0  0  0  2  0  0  0  0  0  0
  -24.7380  -31.0800   22.0490 N   0  0  0  0  0  0  0  0  0  0  0  0
  -23.5760  -32.1480   23.7040 O   0  0  0  0  0  0  0  0  0  0  0  0
  -22.7830  -29.4970   22.4460 C   0  0  0  0  0  0  0  0  0  0  0  0
  -21.4570  -29.3020   22.3140 N   0  0  0  0  0  0  0  0  0  0  0  0
  -23.4600  -28.8750   23.2680 O   0  0  0  0  0  0  0  0  0  0  0  0
  -20.9620  -29.8560   21.6290 H   0  0  0  0  0  0  0  0  0  0  0  0
  -18.1050  -27.9990   22.7940 C   0  0  0  0  0  0  0  0  0  0  0  0
  -20.6560  -28.3300   23.0670 C   0  0  0  0  0  3  0  0  0  0  0  0
  -20.7960  -26.9120   22.4670 C   0  0  0  0  0  2  0  0  0  0  0  0
  -19.7050  -26.5770   21.4450 C   0  0  0  0  0  2  0  0  0  0  0  0
  -18.3200  -26.6700   22.0890 C   0  0  0  0  0  2  0  0  0  0  0  0
  -19.2010  -28.7860   23.2390 C   0  0  0  0  0  0  0  0  0  0  0  0
  -18.9430  -30.0250   23.8610 C   0  0  0  0  0  3  0  0  0  0  0  0
  -17.6230  -30.4820   24.0410 C   0  0  0  0  0  3  0  0  0  0  0  0
  -16.5420  -29.6930   23.6100 C   0  0  0  0  0  3  0  0  0  0  0  0
  -16.7840  -28.4540   22.9930 C   0  0  0  0  0  3  0  0  0  0  0  0
  -25.9340  -32.5200   23.7950 C   0  0  0  0  0  3  0  0  0  0  0  0
  -25.6290  -33.9280   24.1110 N   0  0  0  0  0  0  0  0  0  0  0  0
  -25.9290  -34.9740   23.3290 C   0  0  0  0  0  0  0  0  0  0  0  0
  -26.5540  -34.8550   22.2720 O   0  0  0  0  0  0  0  0  0  0  0  0
  -25.0660  -34.0930   24.9320 H   0  0  0  0  0  0  0  0  0  0  0  0
  -24.1690  -36.7560   23.0600 C   0  0  0  0  0  1  0  0  0  0  0  0
  -25.4680  -36.3720   23.7890 C   0  0  0  0  0  3  0  0  0  0  0  0
  -27.6390  -37.3030   24.4600 C   0  0  0  0  0  1  0  0  0  0  0  0
  -26.4820  -37.4280   23.5790 N   0  0  0  0  0  0  0  0  0  0  0  0
  -26.0760  -38.3500   23.7170 H   0  0  0  0  0  0  0  0  0  0  0  0
  -26.4170  -31.7690   25.0990 C   0  0  1  0  0  0  0  0  0  0  0  0
  -25.3030  -31.5610   26.1500 C   0  0  0  0  0  1  0  0  0  0  0  0
  -26.9960  -30.3780   24.7530 C   0  0  0  0  0  1  0  0  0  0  0  0
  -27.5630  -32.5650   25.7670 C   0  0  0  0  0  1  0  0  0  0  0  0
  1  9  2  0
  3  6  1  0
  4  8  1  0
  5  2  1  0
  5  1  1  0
  6 18  1  0
  6  1  1  0
  7  3  1  0
  7  4  1  0
  7  2  1  0
  8 48  1  0
  8  5  1  0
 10 16  1  0
 10 18  1  0
 11 16  1  0
 12 13  1  0
 12 11  1  0
 14 13  1  0
 14 23  1  0
 14 15  1  0
 16 15  1  0
 17 10  2  0
 18 19  1  0
 20 21  2  0
 21 40  1  0
 22 21  1  0
 22 25  1  0
 23 24  1  0
 23 20  1  0
 24 22  2  0
 25 26  1  0
 26 27  2  0
 28 31  1  0
 28 27  1  0
 29 28  2  0
 30 29  1  0
 30 25  2  0
 31 32  1  0
 32 37  2  0
 32 33  1  0
 33 34  2  0
 34 35  1  0
 35 39  1  0
 36 35  2  0
 37 36  1  0
 38 37  1  0
 40 41  1  0
 41 44  1  0
 41 43  1  0
 42 40  2  0
 45 20  1  0
 45 46  1  0
 47 45  1  0
 48 49  1  0
 50 61  2  0
 51 49  1  0
 51 56  1  0
 52 60  1  0
 52 62  1  0
 53 59  1  0
 53 55  1  0
 54 60  1  0
 55 54  1  0
 56 55  2  0
 57 58  1  0
 57 51  2  0
 58 53  2  0
 59 52  1  0
 60 50  1  0
 62 64  2  0
 63 62  1  0
 65 63  1  0
 66 75  2  0
 66 71  1  0
 67 63  1  0
 67 71  1  0
 68 67  1  0
 69 70  1  0
 69 68  1  0
 70 66  1  0
 71 72  2  0
 72 73  1  0
 74 73  2  0
 75 74  1  0
 76 50  1  0
 76 77  1  0
 76 86  1  0
 77 80  1  0
 78 82  1  0
 78 77  1  0
 79 78  2  0
 82 81  1  0
 84 85  1  0
 84 82  1  0
 84 83  1  0
 86 89  1  1
 86 87  1  0
 88 86  1  0
M  ISO  4  10 100  18 100  48 101  49 101
M  END
>  <TORSDO>  (69) 
F 17

>  <SCORE>  (69) 
-15.323

>  <name>  (69) 
68

>  <ligand_id>  (69) 
68

>  <original_smiles>  (69) 
[H]c1c([H])c([H])c2c(c1[H])C([H])([H])C([H])([H])C([H])([H])C2([H])N([H])C(=O)C1([H])N(C(=O)C([H])(N([H])C(=O)C([H])(N([H])C([H])([H])[H])C([H])([H])[H])C(C([H])([H])[H])(C([H])([H])[H])C([H])([H])[H])C([H])([H])c2c([H])c(OC([H])([H])C3([H])C([H])([H])C4([H])C([H])([H])C([H])(N([H])C(=O)N5C([H])([H])C([H])([H])C([H])([H])C([H])(n6nc(-c7c([H])c([H])c(Oc8c([H])c([H])c(F)c([H])c8F)c([H])c7[H])c(C(=O)N([H])[H])c6N([H])[H])C5([H])[H])C(=O)C3([H])C4([H])[H])c([H])c([H])c2C1([H])[H]

>  <smiles>  (69) 
[H]c1c([H])c([H])c2c(c1[H])C([H])([H])C([H])([H])C([H])([H])C2([H])N([H])C(=O)C1([H])N(C(=O)C([H])(N([H])C(=O)C([H])(N([H])C([H])([H])[H])C([H])([H])[H])C(C([H])([H])[H])(C([H])([H])[H])C([H])([H])[H])C([H])([H])c2c([H])c(OC([H])([H])C3([H])C([H])([H])C4([H])C([H])([H])C([H])(N([H])C(=O)N5C([H])([H])C([H])([H])C([H])([H])C([H])(n6nc(-c7c([H])c([H])c(Oc8c([H])c([H])c(F)c([H])c8F)c([H])c7[H])c(C(=O)N([H])[H])c6N([H])[H])C5([H])[H])C(=O)C3([H])C4([H])[H])c([H])c([H])c2C1([H])[H]

$$$$
69:0:0
     RDKit          3D

 90 98  0  0  1  0  0  0  0  0999 V2000
  -29.8920  -21.3740   22.1040 C   0  0  0  0  0  2  0  0  0  0  0  0
  -29.4820  -22.6370   22.2720 C   0  0  0  0  0  2  0  0  0  0  0  0
  -29.5120  -22.2690   19.9520 C   0  0  0  0  0  2  0  0  0  0  0  0
  -30.1470  -21.0270   20.6590 C   0  0  0  0  0  3  0  0  0  0  0  0
  -29.4410  -23.3530   20.9760 N   0  0  1  0  0  4  0  0  0  0  0  0
  -30.3080  -23.8670   20.9000 H   0  0  0  0  0  0  0  0  0  0  0  0
  -29.5790  -19.6490   20.1930 C   0  0  0  0  0  3  0  0  0  0  0  0
  -30.1750  -18.3650   20.8580 C   0  0  0  0  0  3  0  0  0  0  0  0
  -29.6530  -16.8160   18.8620 C   0  0  0  0  0  1  0  0  0  0  0  0
  -29.5590  -17.0020   20.3940 C   0  0  0  0  0  3  0  0  0  0  0  0
  -30.0610  -15.7660   21.2480 C   0  0  0  0  0  2  0  0  0  0  0  0
  -30.6830  -14.5330   20.5190 C   0  0  0  0  0  0  0  0  0  0  0  0
  -30.3910  -12.3770   19.3420 C   0  0  0  0  0  2  0  0  0  0  0  0
  -29.4790  -12.6260   18.1240 C   0  0  0  0  0  2  0  0  0  0  0  0
  -27.9990  -12.4790   18.5240 C   0  0  0  0  0  2  0  0  0  0  0  0
  -27.6460  -13.2850   19.8030 C   0  0  0  0  0  3  0  0  0  0  0  0
  -28.6830  -13.0300   20.9150 C   0  0  0  0  0  2  0  0  0  0  0  0
  -30.0100  -13.3540   20.3760 N   0  0  0  0  0  0  0  0  0  0  0  0
  -31.8020  -14.6890   20.0210 O   0  0  0  0  0  0  0  0  0  0  0  0
  -25.2410  -13.8960   20.4610 C   0  0  0  0  0  0  0  0  0  0  0  0
  -24.1660  -13.1300   20.8170 C   0  0  0  0  0  0  0  0  0  0  0  0
  -24.6240  -11.7760   20.8120 C   0  0  0  0  0  0  0  0  0  0  0  0
  -26.2860  -13.0100   20.2560 N   0  0  0  0  0  0  0  0  0  0  0  0
  -25.9190  -11.7310   20.5270 N   0  0  0  0  0  0  0  0  0  0  0  0
  -23.8930  -10.5180   21.0120 C   0  0  0  0  0  0  0  0  0  0  0  0
  -24.3230   -9.5590   21.9560 C   0  0  0  0  0  3  0  0  0  0  0  0
  -23.5970   -8.3640   22.1420 C   0  0  0  0  0  3  0  0  0  0  0  0
  -22.4290   -8.1190   21.3830 C   0  0  0  0  0  0  0  0  0  0  0  0
  -22.0140   -9.0670   20.4320 C   0  0  0  0  0  3  0  0  0  0  0  0
  -22.7410  -10.2550   20.2440 C   0  0  0  0  0  3  0  0  0  0  0  0
  -21.6740   -6.9750   21.4760 O   0  0  0  0  0  0  0  0  0  0  0  0
  -21.6280   -6.2320   22.6300 C   0  0  0  0  0  0  0  0  0  0  0  0
  -21.2250   -6.7950   23.8590 C   0  0  0  0  0  3  0  0  0  0  0  0
  -21.1260   -5.9810   25.0050 C   0  0  0  0  0  3  0  0  0  0  0  0
  -21.4200   -4.6070   24.9230 C   0  0  0  0  0  0  0  0  0  0  0  0
  -21.8150   -4.0440   23.6960 C   0  0  0  0  0  3  0  0  0  0  0  0
  -21.9170   -4.8550   22.5530 C   0  0  0  0  0  0  0  0  0  0  0  0
  -22.2780   -4.3030   21.3680 F   0  0  0  0  0  0  0  0  0  0  0  0
  -21.3160   -3.8230   26.0210 F   0  0  0  0  0  0  0  0  0  0  0  0
  -22.7660  -13.6140   21.0670 C   0  0  0  0  0  0  0  0  0  0  0  0
  -22.0260  -12.9280   21.9300 N   0  0  0  0  0  0  0  0  0  0  0  0
  -22.3370  -14.6350   20.5280 O   0  0  0  0  0  0  0  0  0  0  0  0
  -22.3830  -12.0970   22.3760 H   0  0  0  0  0  0  0  0  0  0  0  0
  -21.0870  -13.2330   22.1420 H   0  0  0  0  0  0  0  0  0  0  0  0
  -25.4190  -15.2660   20.2860 N   0  0  0  0  0  0  0  0  0  0  0  0
  -24.6830  -15.9360   20.4840 H   0  0  0  0  0  0  0  0  0  0  0  0
  -26.3190  -15.6980   20.1100 H   0  0  0  0  0  0  0  0  0  0  0  0
  -28.3570  -24.3790   20.8170 C   0  0  0  0  0  2  0  0  0  0  0  0
  -28.6520  -25.4460   19.7260 C   0  0  0  0  0  2  0  0  0  0  0  0
  -28.4680  -26.8000   20.1850 O   0  0  0  0  0  0  0  0  0  0  0  0
  -24.6000  -31.9070   23.2280 C   0  0  0  0  0  0  0  0  0  0  0  0
  -27.2480  -27.4490   20.1620 C   0  0  0  0  0  0  0  0  0  0  0  0
  -23.3800  -30.4910   21.6000 C   0  0  0  0  0  3  0  0  0  0  0  0
  -24.8300  -28.9380   20.1780 C   0  0  0  0  0  0  0  0  0  0  0  0
  -25.9000  -30.8550   21.3790 C   0  0  0  0  0  2  0  0  0  0  0  0
  -25.9850  -29.4740   20.7570 C   0  0  0  0  0  0  0  0  0  0  0  0
  -27.1900  -28.7360   20.7510 C   0  0  0  0  0  3  0  0  0  0  0  0
  -26.0700  -26.9210   19.5810 C   0  0  0  0  0  3  0  0  0  0  0  0
  -24.8670  -27.6600   19.5900 C   0  0  0  0  0  3  0  0  0  0  0  0
  -23.5810  -29.7910   20.2270 C   0  0  0  0  0  2  0  0  0  0  0  0
  -24.6440  -31.1010   22.1270 N   0  0  0  0  0  0  0  0  0  0  0  0
  -23.5230  -32.1810   23.7760 O   0  0  0  0  0  0  0  0  0  0  0  0
  -22.7350  -29.4800   22.5750 C   0  0  0  0  0  0  0  0  0  0  0  0
  -21.4110  -29.2900   22.4520 N   0  0  0  0  0  0  0  0  0  0  0  0
  -23.4250  -28.8660   23.3950 O   0  0  0  0  0  0  0  0  0  0  0  0
  -20.9200  -29.8220   21.7470 H   0  0  0  0  0  0  0  0  0  0  0  0
  -18.0450  -28.0780   22.9650 C   0  0  0  0  0  0  0  0  0  0  0  0
  -20.6010  -28.3550   23.2320 C   0  0  0  0  0  3  0  0  0  0  0  0
  -20.7140  -26.9200   22.6650 C   0  0  0  0  0  2  0  0  0  0  0  0
  -19.6110  -26.5830   21.6560 C   0  0  0  0  0  2  0  0  0  0  0  0
  -18.2300  -26.7230   22.3020 C   0  0  0  0  0  2  0  0  0  0  0  0
  -19.1590  -28.8510   23.3870 C   0  0  0  0  0  0  0  0  0  0  0  0
  -18.9360  -30.1170   23.9670 C   0  0  0  0  0  3  0  0  0  0  0  0
  -17.6280  -30.6120   24.1350 C   0  0  0  0  0  3  0  0  0  0  0  0
  -16.5280  -29.8380   23.7250 C   0  0  0  0  0  3  0  0  0  0  0  0
  -16.7370  -28.5740   23.1450 C   0  0  0  0  0  3  0  0  0  0  0  0
  -25.8910  -32.5390   23.8390 C   0  0  0  0  0  3  0  0  0  0  0  0
  -25.5830  -33.9370   24.1730 N   0  0  0  0  0  0  0  0  0  0  0  0
  -25.9120  -34.9900   23.4120 C   0  0  0  0  0  0  0  0  0  0  0  0
  -26.5780  -34.8890   22.3770 O   0  0  0  0  0  0  0  0  0  0  0  0
  -25.0000  -34.0910   24.9830 H   0  0  0  0  0  0  0  0  0  0  0  0
  -24.1790  -36.7790   23.0690 C   0  0  0  0  0  1  0  0  0  0  0  0
  -25.4270  -36.3760   23.8730 C   0  0  0  0  0  3  0  0  0  0  0  0
  -27.5660  -37.2600   24.6900 C   0  0  0  0  0  1  0  0  0  0  0  0
  -26.4580  -37.4300   23.7560 N   0  0  0  0  0  0  0  0  0  0  0  0
  -26.0520  -38.3500   23.9060 H   0  0  0  0  0  0  0  0  0  0  0  0
  -26.4270  -31.7650   25.1060 C   0  0  1  0  0  0  0  0  0  0  0  0
  -25.3480  -31.5260   26.1880 C   0  0  0  0  0  1  0  0  0  0  0  0
  -27.0060  -30.3880   24.7020 C   0  0  0  0  0  1  0  0  0  0  0  0
  -27.5850  -32.5610   25.7560 C   0  0  0  0  0  1  0  0  0  0  0  0
  1  2  1  0
  3  4  1  0
  3  5  1  0
  4  7  1  0
  4  1  1  0
  5  2  1  0
  5  6  1  1
  7  8  2  0
 10  9  1  0
 10  8  1  0
 10 11  1  0
 12 11  1  0
 13 18  1  0
 14 15  1  0
 14 13  1  0
 16 15  1  0
 16 23  1  0
 16 17  1  0
 18 12  1  0
 18 17  1  0
 19 12  2  0
 20 21  2  0
 21 40  1  0
 22 21  1  0
 22 25  1  0
 23 20  1  0
 23 24  1  0
 24 22  2  0
 25 26  1  0
 26 27  2  0
 28 31  1  0
 28 27  1  0
 29 28  2  0
 30 29  1  0
 30 25  2  0
 31 32  1  0
 32 33  1  0
 33 34  2  0
 35 34  1  0
 35 39  1  0
 36 35  2  0
 37 32  2  0
 37 36  1  0
 38 37  1  0
 40 41  1  0
 41 44  1  0
 41 43  1  0
 42 40  2  0
 45 20  1  0
 45 46  1  0
 47 45  1  0
 48  5  1  0
 49 50  1  0
 49 48  1  0
 51 62  2  0
 52 50  1  0
 52 57  1  0
 53 61  1  0
 53 63  1  0
 54 60  1  0
 54 56  1  0
 55 61  1  0
 56 55  1  0
 57 56  2  0
 58 59  1  0
 58 52  2  0
 59 54  2  0
 60 53  1  0
 61 51  1  0
 63 65  2  0
 64 63  1  0
 66 64  1  0
 67 76  2  0
 67 72  1  0
 68 64  1  0
 68 72  1  0
 69 68  1  0
 70 71  1  0
 70 69  1  0
 71 67  1  0
 72 73  2  0
 73 74  1  0
 75 74  2  0
 76 75  1  0
 77 51  1  0
 77 78  1  0
 77 87  1  0
 78 81  1  0
 79 83  1  0
 79 78  1  0
 80 79  2  0
 83 82  1  0
 85 83  1  0
 85 86  1  0
 85 84  1  0
 87 90  1  1
 87 88  1  0
 89 87  1  0
M  ISO  4  11 100  12 100  49 101  50 101
M  END
>  <TORSDO>  (70) 
F 22

>  <SCORE>  (70) 
-13.172

>  <name>  (70) 
69

>  <ligand_id>  (70) 
69

>  <original_smiles>  (70) 
[H]C1=C([H])[N+]([H])(C([H])([H])C([H])([H])Oc2c([H])c([H])c3c(c2[H])C([H])([H])N(C(=O)C([H])(N([H])C(=O)C([H])(N([H])C([H])([H])[H])C([H])([H])[H])C(C([H])([H])[H])(C([H])([H])[H])C([H])([H])[H])C([H])(C(=O)N([H])C2([H])c4c([H])c([H])c([H])c([H])c4C([H])([H])C([H])([H])C2([H])[H])C3([H])[H])C([H])([H])C1([H])C([H])([H])C([H])([H])C([H])(C([H])([H])[H])C([H])([H])C(=O)N1C([H])([H])C([H])([H])C([H])([H])C([H])(n2nc(-c3c([H])c([H])c(Oc4c([H])c([H])c(F)c([H])c4F)c([H])c3[H])c(C(=O)N([H])[H])c2N([H])[H])C1([H])[H]

>  <smiles>  (70) 
[H]C1=C([H])[N+]([H])(C([H])([H])C([H])([H])Oc2c([H])c([H])c3c(c2[H])C([H])([H])N(C(=O)C([H])(N([H])C(=O)C([H])(N([H])C([H])([H])[H])C([H])([H])[H])C(C([H])([H])[H])(C([H])([H])[H])C([H])([H])[H])C([H])(C(=O)N([H])C2([H])c4c([H])c([H])c([H])c([H])c4C([H])([H])C([H])([H])C2([H])[H])C3([H])[H])C([H])([H])C1([H])C([H])([H])C([H])([H])C([H])(C([H])([H])[H])C([H])([H])C(=O)N1C([H])([H])C([H])([H])C([H])([H])C([H])(n2nc(-c3c([H])c([H])c(Oc4c([H])c([H])c(F)c([H])c4F)c([H])c3[H])c(C(=O)N([H])[H])c2N([H])[H])C1([H])[H]

$$$$
70:0:0
     RDKit          3D

 90 98  0  0  1  0  0  0  0  0999 V2000
  -28.3010  -21.2320   20.0170 C   0  0  0  0  0  2  0  0  0  0  0  0
  -30.2090  -22.4160   20.4610 C   0  0  0  0  0  2  0  0  0  0  0  0
  -28.6870  -22.7970   20.5230 C   0  0  0  0  0  3  0  0  0  0  0  0
  -29.2980  -20.0180   20.6180 C   0  0  0  0  0  3  0  0  0  0  0  0
  -30.4710  -20.9330   20.7710 N   0  0  0  0  0  4  0  0  0  0  0  0
  -30.8420  -20.8290   21.7000 H   0  0  0  0  0  0  0  0  0  0  0  0
  -31.1560  -20.5400   20.1350 H   0  0  0  0  0  0  0  0  0  0  0  0
  -28.0580  -24.3630   19.9380 C   0  0  0  0  0  2  0  0  0  0  0  0
  -28.2030  -25.9380   20.3330 O   0  0  0  0  0  0  0  0  0  0  0  0
  -24.6300  -31.8680   23.2250 C   0  0  0  0  0  0  0  0  0  0  0  0
  -27.1830  -27.0100   20.2270 C   0  0  0  0  0  0  0  0  0  0  0  0
  -23.4300  -30.4620   21.5980 C   0  0  0  0  0  3  0  0  0  0  0  0
  -24.8750  -28.8570   20.1770 C   0  0  0  0  0  0  0  0  0  0  0  0
  -25.9920  -30.6840   21.4410 C   0  0  0  0  0  2  0  0  0  0  0  0
  -26.0620  -29.2750   20.7940 C   0  0  0  0  0  0  0  0  0  0  0  0
  -27.2080  -28.3690   20.8000 C   0  0  0  0  0  3  0  0  0  0  0  0
  -25.9720  -26.7390   19.5490 C   0  0  0  0  0  3  0  0  0  0  0  0
  -24.8540  -27.6100   19.5350 C   0  0  0  0  0  3  0  0  0  0  0  0
  -23.6530  -29.7720   20.2240 C   0  0  0  0  0  2  0  0  0  0  0  0
  -24.7060  -31.0320   22.1410 N   0  0  0  0  0  0  0  0  0  0  0  0
  -23.5430  -32.1610   23.7480 O   0  0  0  0  0  0  0  0  0  0  0  0
  -22.7410  -29.4710   22.5710 C   0  0  0  0  0  0  0  0  0  0  0  0
  -21.4100  -29.3070   22.4500 N   0  0  0  0  0  0  0  0  0  0  0  0
  -23.4080  -28.8500   23.4010 O   0  0  0  0  0  0  0  0  0  0  0  0
  -20.9250  -29.8590   21.7570 H   0  0  0  0  0  0  0  0  0  0  0  0
  -18.0270  -28.1040   22.9700 C   0  0  0  0  0  0  0  0  0  0  0  0
  -20.5870  -28.3760   23.2300 C   0  0  0  0  0  3  0  0  0  0  0  0
  -20.6890  -26.9390   22.6670 C   0  0  0  0  0  2  0  0  0  0  0  0
  -19.5870  -26.6060   21.6570 C   0  0  0  0  0  2  0  0  0  0  0  0
  -18.2060  -26.7520   22.3010 C   0  0  0  0  0  2  0  0  0  0  0  0
  -19.1450  -28.8740   23.3910 C   0  0  0  0  0  0  0  0  0  0  0  0
  -18.9210  -30.1370   23.9790 C   0  0  0  0  0  3  0  0  0  0  0  0
  -17.6140  -30.6340   24.1470 C   0  0  0  0  0  3  0  0  0  0  0  0
  -16.5120  -29.8620   23.7400 C   0  0  0  0  0  3  0  0  0  0  0  0
  -16.7190  -28.5990   23.1570 C   0  0  0  0  0  3  0  0  0  0  0  0
  -25.9040  -32.5130   23.8500 C   0  0  0  0  0  3  0  0  0  0  0  0
  -26.4110  -31.7550   25.1400 C   0  0  1  0  0  0  0  0  0  0  0  0
  -25.3110  -31.5360   26.2060 C   0  0  0  0  0  1  0  0  0  0  0  0
  -26.9900  -30.3700   24.7740 C   0  0  0  0  0  1  0  0  0  0  0  0
  -27.5620  -32.5530   25.7970 C   0  0  0  0  0  1  0  0  0  0  0  0
  -25.5900  -33.9150   24.1760 N   0  0  0  0  0  0  0  0  0  0  0  0
  -25.9170  -34.9710   23.4190 C   0  0  0  0  0  0  0  0  0  0  0  0
  -26.5800  -34.8670   22.3840 O   0  0  0  0  0  0  0  0  0  0  0  0
  -24.9970  -34.0690   24.9790 H   0  0  0  0  0  0  0  0  0  0  0  0
  -24.1870  -36.7700   23.0880 C   0  0  0  0  0  1  0  0  0  0  0  0
  -25.4380  -36.3620   23.8820 C   0  0  0  0  0  3  0  0  0  0  0  0
  -27.5820  -37.2500   24.6870 C   0  0  0  0  0  1  0  0  0  0  0  0
  -26.4700  -37.4150   23.7560 N   0  0  0  0  0  0  0  0  0  0  0  0
  -26.0660  -38.3350   23.9030 H   0  0  0  0  0  0  0  0  0  0  0  0
  -29.7520  -18.3990   20.0070 C   0  0  0  0  0  3  0  0  0  0  0  0
  -31.1170  -18.6250   19.5380 N   0  0  0  0  0  0  0  0  0  0  0  0
  -31.2320  -18.1510   18.6460 H   0  0  0  0  0  0  0  0  0  0  0  0
  -31.7600  -18.1220   20.1450 H   0  0  0  0  0  0  0  0  0  0  0  0
  -29.7180  -16.7550   20.7050 C   0  0  0  0  0  2  0  0  0  0  0  0
  -30.4410  -15.2230   20.2880 C   0  0  0  0  0  0  0  0  0  0  0  0
  -30.3850  -12.7940   19.3910 C   0  0  0  0  0  2  0  0  0  0  0  0
  -29.4650  -12.6700   18.1500 C   0  0  0  0  0  2  0  0  0  0  0  0
  -28.0070  -12.4240   18.5740 C   0  0  0  0  0  2  0  0  0  0  0  0
  -27.5750  -13.3600   19.7300 C   0  0  0  0  0  3  0  0  0  0  0  0
  -28.6230  -13.4490   20.8600 C   0  0  0  0  0  2  0  0  0  0  0  0
  -29.8790  -13.9190   20.2570 N   0  0  0  0  0  0  0  0  0  0  0  0
  -31.6310  -15.2250   19.9430 O   0  0  0  0  0  0  0  0  0  0  0  0
  -25.1970  -13.9260   20.4630 C   0  0  0  0  0  0  0  0  0  0  0  0
  -24.1330  -13.1510   20.8320 C   0  0  0  0  0  0  0  0  0  0  0  0
  -24.6000  -11.8010   20.8130 C   0  0  0  0  0  0  0  0  0  0  0  0
  -26.2410  -13.0500   20.2310 N   0  0  0  0  0  0  0  0  0  0  0  0
  -25.8940  -11.7650   20.5090 N   0  0  0  0  0  0  0  0  0  0  0  0
  -23.8720  -10.5400   21.0100 C   0  0  0  0  0  0  0  0  0  0  0  0
  -24.3010   -9.5740   21.9470 C   0  0  0  0  0  3  0  0  0  0  0  0
  -23.5700   -8.3800   22.1320 C   0  0  0  0  0  3  0  0  0  0  0  0
  -22.3940   -8.1440   21.3810 C   0  0  0  0  0  0  0  0  0  0  0  0
  -21.9830   -9.0980   20.4340 C   0  0  0  0  0  3  0  0  0  0  0  0
  -22.7150  -10.2830   20.2460 C   0  0  0  0  0  3  0  0  0  0  0  0
  -21.6350   -7.0020   21.4740 O   0  0  0  0  0  0  0  0  0  0  0  0
  -21.5890   -6.2600   22.6260 C   0  0  0  0  0  0  0  0  0  0  0  0
  -21.1740   -6.8190   23.8550 C   0  0  0  0  0  3  0  0  0  0  0  0
  -21.0740   -6.0040   25.0010 C   0  0  0  0  0  3  0  0  0  0  0  0
  -21.3800   -4.6320   24.9190 C   0  0  0  0  0  0  0  0  0  0  0  0
  -21.7890   -4.0740   23.6960 C   0  0  0  0  0  3  0  0  0  0  0  0
  -21.8900   -4.8850   22.5520 C   0  0  0  0  0  0  0  0  0  0  0  0
  -22.2640   -4.3370   21.3710 F   0  0  0  0  0  0  0  0  0  0  0  0
  -21.2790   -3.8480   26.0190 F   0  0  0  0  0  0  0  0  0  0  0  0
  -22.7350  -13.6300   21.0900 C   0  0  0  0  0  0  0  0  0  0  0  0
  -22.0010  -12.9420   21.9570 N   0  0  0  0  0  0  0  0  0  0  0  0
  -22.3020  -14.6520   20.5590 O   0  0  0  0  0  0  0  0  0  0  0  0
  -22.3660  -12.1160   22.4070 H   0  0  0  0  0  0  0  0  0  0  0  0
  -21.0620  -13.2470   22.1720 H   0  0  0  0  0  0  0  0  0  0  0  0
  -25.3630  -15.2960   20.2810 N   0  0  0  0  0  0  0  0  0  0  0  0
  -24.5990  -15.9550   20.3900 H   0  0  0  0  0  0  0  0  0  0  0  0
  -26.2150  -15.7300   19.9530 H   0  0  0  0  0  0  0  0  0  0  0  0
  1  3  1  0
  1  4  1  0
  2  3  1  0
  2  5  1  0
  3  8  1  0
  4 50  1  0
  4  5  1  0
  5  6  1  0
  7  5  1  0
  8  9  1  0
 10 21  2  0
 11  9  1  0
 11 16  1  0
 12 20  1  0
 12 22  1  0
 13 19  1  0
 13 15  1  0
 14 20  1  0
 15 16  2  0
 15 14  1  0
 17 11  2  0
 18 17  1  0
 18 13  2  0
 19 12  1  0
 20 10  1  0
 22 24  2  0
 23 22  1  0
 25 23  1  0
 26 35  2  0
 26 31  1  0
 27 23  1  0
 27 31  1  0
 28 27  1  0
 29 30  1  0
 29 28  1  0
 30 26  1  0
 31 32  2  0
 32 33  1  0
 34 33  2  0
 35 34  1  0
 36 10  1  0
 36 41  1  0
 36 37  1  0
 37 40  1  1
 37 38  1  0
 39 37  1  0
 41 44  1  0
 42 46  1  0
 42 41  1  0
 43 42  2  0
 46 45  1  0
 48 46  1  0
 48 49  1  0
 48 47  1  0
 50 54  1  0
 51 50  1  0
 51 53  1  0
 52 51  1  0
 55 54  1  0
 56 61  1  0
 57 58  1  0
 57 56  1  0
 59 58  1  0
 59 66  1  0
 59 60  1  0
 61 55  1  0
 61 60  1  0
 62 55  2  0
 63 64  2  0
 64 83  1  0
 65 64  1  0
 65 68  1  0
 66 63  1  0
 66 67  1  0
 67 65  2  0
 68 69  1  0
 69 70  2  0
 71 74  1  0
 71 70  1  0
 72 71  2  0
 73 72  1  0
 73 68  2  0
 74 75  1  0
 75 76  1  0
 76 77  2  0
 78 77  1  0
 78 82  1  0
 79 78  2  0
 80 75  2  0
 80 79  1  0
 81 80  1  0
 83 84  1  0
 84 87  1  0
 84 86  1  0
 85 83  2  0
 88 89  1  0
 88 63  1  0
 90 88  1  0
M  ISO  4   8 101   9 101  54 100  55 100
M  END
>  <TORSDO>  (71) 
F 20

>  <SCORE>  (71) 
-16.102

>  <name>  (71) 
70

>  <ligand_id>  (71) 
70

>  <original_smiles>  (71) 
[H]c1c([H])c([H])c2c(c1[H])C([H])([H])C([H])([H])C([H])([H])C2([H])N([H])C(=O)C1([H])N(C(=O)C([H])(N([H])C(=O)C([H])(N([H])C([H])([H])[H])C([H])([H])[H])C(C([H])([H])[H])(C([H])([H])[H])C([H])([H])[H])C([H])([H])c2c([H])c(OC([H])([H])C3([H])C([H])([H])C([H])(C([H])(N([H])[H])C([H])([H])C(=O)N4C([H])([H])C([H])([H])C([H])([H])C([H])(n5nc(-c6c([H])c([H])c(Oc7c([H])c([H])c(F)c([H])c7F)c([H])c6[H])c(C(=O)N([H])[H])c5N([H])[H])C4([H])[H])[N+]([H])([H])C3([H])[H])c([H])c([H])c2C1([H])[H]

>  <smiles>  (71) 
[H]c1c([H])c([H])c2c(c1[H])C([H])([H])C([H])([H])C([H])([H])C2([H])N([H])C(=O)C1([H])N(C(=O)C([H])(N([H])C(=O)C([H])(N([H])C([H])([H])[H])C([H])([H])[H])C(C([H])([H])[H])(C([H])([H])[H])C([H])([H])[H])C([H])([H])c2c([H])c(OC([H])([H])C3([H])C([H])([H])C([H])(C([H])(N([H])[H])C([H])([H])C(=O)N4C([H])([H])C([H])([H])C([H])([H])C([H])(n5nc(-c6c([H])c([H])c(Oc7c([H])c([H])c(F)c([H])c7F)c([H])c6[H])c(C(=O)N([H])[H])c5N([H])[H])C4([H])[H])[N+]([H])([H])C3([H])[H])c([H])c([H])c2C1([H])[H]

$$$$
71:0:0
     RDKit          3D

 89 97  0  0  1  0  0  0  0  0999 V2000
  -29.1320  -22.7050   20.2780 C   0  0  0  0  0  0  0  0  0  0  0  0
  -28.1030  -22.1480   19.8810 O   0  0  0  0  0  0  0  0  0  0  0  0
  -28.8010  -24.7590   18.7410 C   0  0  0  0  0  2  0  0  0  0  0  0
  -29.3690  -24.2030   20.0400 C   0  0  0  0  0  3  0  0  0  0  0  0
  -28.1800  -25.1760   20.0430 C   0  0  0  0  0  3  0  0  0  0  0  0
  -28.3670  -26.6050   20.2300 O   0  0  0  0  0  0  0  0  0  0  0  0
  -24.6090  -31.8820   23.2390 C   0  0  0  0  0  0  0  0  0  0  0  0
  -27.2200  -27.3900   20.1680 C   0  0  0  0  0  0  0  0  0  0  0  0
  -23.3940  -30.4800   21.6060 C   0  0  0  0  0  3  0  0  0  0  0  0
  -24.8380  -28.9390   20.1730 C   0  0  0  0  0  0  0  0  0  0  0  0
  -25.9240  -30.8230   21.4000 C   0  0  0  0  0  2  0  0  0  0  0  0
  -26.0040  -29.4480   20.7600 C   0  0  0  0  0  0  0  0  0  0  0  0
  -27.1970  -28.6810   20.7540 C   0  0  0  0  0  3  0  0  0  0  0  0
  -26.0360  -26.9210   19.5490 C   0  0  0  0  0  3  0  0  0  0  0  0
  -24.8520  -27.6770   19.5630 C   0  0  0  0  0  3  0  0  0  0  0  0
  -23.5960  -29.8000   20.2270 C   0  0  0  0  0  2  0  0  0  0  0  0
  -24.6620  -31.0770   22.1400 N   0  0  0  0  0  0  0  0  0  0  0  0
  -23.5300  -32.1590   23.7810 O   0  0  0  0  0  0  0  0  0  0  0  0
  -22.7430  -29.4610   22.5710 C   0  0  0  0  0  0  0  0  0  0  0  0
  -21.4170  -29.2850   22.4530 N   0  0  0  0  0  0  0  0  0  0  0  0
  -23.4290  -28.8320   23.3820 O   0  0  0  0  0  0  0  0  0  0  0  0
  -20.9250  -29.8450   21.7720 H   0  0  0  0  0  0  0  0  0  0  0  0
  -18.0380  -28.1100   22.9750 C   0  0  0  0  0  0  0  0  0  0  0  0
  -20.6000  -28.3510   23.2270 C   0  0  0  0  0  3  0  0  0  0  0  0
  -20.6890  -26.9200   22.6490 C   0  0  0  0  0  2  0  0  0  0  0  0
  -19.5780  -26.6060   21.6430 C   0  0  0  0  0  2  0  0  0  0  0  0
  -18.2010  -26.7590   22.2970 C   0  0  0  0  0  2  0  0  0  0  0  0
  -19.1650  -28.8640   23.3960 C   0  0  0  0  0  0  0  0  0  0  0  0
  -18.9590  -30.1290   23.9890 C   0  0  0  0  0  3  0  0  0  0  0  0
  -17.6600  -30.6390   24.1650 C   0  0  0  0  0  3  0  0  0  0  0  0
  -16.5470  -29.8820   23.7590 C   0  0  0  0  0  3  0  0  0  0  0  0
  -16.7370  -28.6190   23.1700 C   0  0  0  0  0  3  0  0  0  0  0  0
  -25.8980  -32.5120   23.8510 C   0  0  0  0  0  3  0  0  0  0  0  0
  -25.5930  -33.9110   24.1800 N   0  0  0  0  0  0  0  0  0  0  0  0
  -25.9260  -34.9620   23.4190 C   0  0  0  0  0  0  0  0  0  0  0  0
  -26.5940  -34.8550   22.3850 O   0  0  0  0  0  0  0  0  0  0  0  0
  -25.0000  -34.0700   24.9820 H   0  0  0  0  0  0  0  0  0  0  0  0
  -24.2030  -36.7580   23.0610 C   0  0  0  0  0  1  0  0  0  0  0  0
  -25.4420  -36.3520   23.8740 C   0  0  0  0  0  3  0  0  0  0  0  0
  -27.5780  -37.2310   24.7070 C   0  0  0  0  0  1  0  0  0  0  0  0
  -26.4780  -37.4020   23.7610 N   0  0  0  0  0  0  0  0  0  0  0  0
  -26.0750  -38.3240   23.9080 H   0  0  0  0  0  0  0  0  0  0  0  0
  -26.4220  -31.7420   25.1250 C   0  0  1  0  0  0  0  0  0  0  0  0
  -25.3350  -31.5060   26.1990 C   0  0  0  0  0  1  0  0  0  0  0  0
  -27.0010  -30.3630   24.7280 C   0  0  0  0  0  1  0  0  0  0  0  0
  -27.5760  -32.5360   25.7800 C   0  0  0  0  0  1  0  0  0  0  0  0
  -30.1940  -21.8840   21.0450 C   0  0  0  0  0  2  0  0  0  0  0  0
  -30.4270  -20.3850   20.6410 C   0  0  0  0  0  2  0  0  0  0  0  0
  -29.2900  -19.3730   20.9550 C   0  0  0  0  0  2  0  0  0  0  0  0
  -29.6870  -17.9140   21.3570 C   0  0  0  0  0  2  0  0  0  0  0  0
  -30.2650  -16.9720   20.2620 C   0  0  0  0  0  2  0  0  0  0  0  0
  -30.7850  -14.5020   20.0590 C   0  0  0  0  0  0  0  0  0  0  0  0
  -30.4310  -12.3460   18.9130 C   0  0  0  0  0  2  0  0  0  0  0  0
  -29.4210  -12.5700   17.7670 C   0  0  0  0  0  2  0  0  0  0  0  0
  -27.9730  -12.4280   18.2790 C   0  0  0  0  0  2  0  0  0  0  0  0
  -27.7140  -13.2450   19.5720 C   0  0  0  0  0  3  0  0  0  0  0  0
  -28.8310  -13.0030   20.6150 C   0  0  0  0  0  2  0  0  0  0  0  0
  -30.1210  -13.3150   19.9760 N   0  0  0  0  0  0  0  0  0  0  0  0
  -31.8850  -14.6880   19.5340 O   0  0  0  0  0  0  0  0  0  0  0  0
  -30.0690  -15.5330   20.5630 N   0  0  0  0  0  0  0  0  0  0  0  0
  -29.1870  -15.2780   20.9810 H   0  0  0  0  0  0  0  0  0  0  0  0
  -25.3660  -13.8560   20.4300 C   0  0  0  0  0  0  0  0  0  0  0  0
  -24.3150  -13.0840   20.8470 C   0  0  0  0  0  0  0  0  0  0  0  0
  -24.7640  -11.7300   20.7660 C   0  0  0  0  0  0  0  0  0  0  0  0
  -26.3890  -12.9710   20.1240 N   0  0  0  0  0  0  0  0  0  0  0  0
  -26.0340  -11.6880   20.3830 N   0  0  0  0  0  0  0  0  0  0  0  0
  -24.0390  -10.4700   20.9760 C   0  0  0  0  0  0  0  0  0  0  0  0
  -24.5040   -9.4950   21.8870 C   0  0  0  0  0  3  0  0  0  0  0  0
  -23.7810   -8.2990   22.0850 C   0  0  0  0  0  3  0  0  0  0  0  0
  -22.5800   -8.0700   21.3730 C   0  0  0  0  0  0  0  0  0  0  0  0
  -22.1350   -9.0330   20.4510 C   0  0  0  0  0  3  0  0  0  0  0  0
  -22.8580  -10.2200   20.2510 C   0  0  0  0  0  3  0  0  0  0  0  0
  -21.8260   -6.9260   21.4820 O   0  0  0  0  0  0  0  0  0  0  0  0
  -21.7970   -6.1910   22.6390 C   0  0  0  0  0  0  0  0  0  0  0  0
  -21.3920   -6.7520   23.8700 C   0  0  0  0  0  3  0  0  0  0  0  0
  -21.3110   -5.9430   25.0200 C   0  0  0  0  0  3  0  0  0  0  0  0
  -21.6240   -4.5730   24.9410 C   0  0  0  0  0  0  0  0  0  0  0  0
  -22.0210   -4.0100   23.7150 C   0  0  0  0  0  3  0  0  0  0  0  0
  -22.1040   -4.8160   22.5670 C   0  0  0  0  0  0  0  0  0  0  0  0
  -22.4680   -4.2660   21.3840 F   0  0  0  0  0  0  0  0  0  0  0  0
  -21.5380   -3.7930   26.0440 F   0  0  0  0  0  0  0  0  0  0  0  0
  -22.9400  -13.5650   21.2090 C   0  0  0  0  0  0  0  0  0  0  0  0
  -22.2580  -12.8580   22.1020 N   0  0  0  0  0  0  0  0  0  0  0  0
  -22.4810  -14.6040   20.7340 O   0  0  0  0  0  0  0  0  0  0  0  0
  -22.6440  -12.0190   22.5090 H   0  0  0  0  0  0  0  0  0  0  0  0
  -21.3360  -13.1610   22.3850 H   0  0  0  0  0  0  0  0  0  0  0  0
  -25.5300  -15.2280   20.2670 N   0  0  0  0  0  0  0  0  0  0  0  0
  -24.7730  -15.8830   20.4290 H   0  0  0  0  0  0  0  0  0  0  0  0
  -26.3620  -15.6700   19.8970 H   0  0  0  0  0  0  0  0  0  0  0  0
  1 47  1  0
  2  1  2  0
  3  4  1  0
  3  5  1  0
  4  5  1  0
  4  1  1  0
  5  6  1  0
  7 18  2  0
  8  6  1  0
  8 13  1  0
  9 17  1  0
  9 19  1  0
 10 16  1  0
 10 12  1  0
 11 17  1  0
 12 11  1  0
 13 12  2  0
 14 15  1  0
 14  8  2  0
 15 10  2  0
 16  9  1  0
 17  7  1  0
 19 21  2  0
 20 19  1  0
 22 20  1  0
 23 32  2  0
 23 28  1  0
 24 20  1  0
 24 28  1  0
 25 24  1  0
 26 27  1  0
 26 25  1  0
 27 23  1  0
 28 29  2  0
 29 30  1  0
 31 30  2  0
 32 31  1  0
 33  7  1  0
 33 34  1  0
 33 43  1  0
 34 37  1  0
 35 39  1  0
 35 34  1  0
 36 35  2  0
 39 38  1  0
 41 39  1  0
 41 42  1  0
 41 40  1  0
 43 46  1  1
 43 44  1  0
 45 43  1  0
 48 49  1  0
 48 47  1  0
 49 50  1  0
 51 60  1  0
 51 50  1  0
 52 60  1  0
 53 58  1  0
 54 55  1  0
 54 53  1  0
 56 55  1  0
 56 65  1  0
 56 57  1  0
 58 52  1  0
 58 57  1  0
 59 52  2  0
 60 61  1  0
 62 63  2  0
 63 82  1  0
 64 63  1  0
 64 67  1  0
 65 66  1  0
 65 62  1  0
 66 64  2  0
 67 68  1  0
 68 69  2  0
 70 73  1  0
 70 69  1  0
 71 70  2  0
 72 71  1  0
 72 67  2  0
 73 74  1  0
 74 75  1  0
 75 76  2  0
 77 76  1  0
 77 81  1  0
 78 77  2  0
 79 74  2  0
 79 78  1  0
 80 79  1  0
 82 83  1  0
 83 86  1  0
 83 85  1  0
 84 82  2  0
 87 88  1  0
 87 62  1  0
 89 87  1  0
M  ISO  4   5 101   6 101  52 100  60 100
M  END
>  <TORSDO>  (72) 
F 22

>  <SCORE>  (72) 
-12.545

>  <name>  (72) 
71

>  <ligand_id>  (72) 
71

>  <original_smiles>  (72) 
[H]c1c([H])c([H])c2c(c1[H])C([H])([H])C([H])([H])C([H])([H])C2([H])N([H])C(=O)C1([H])N(C(=O)C([H])(N([H])C(=O)C([H])(N([H])C([H])([H])[H])C([H])([H])[H])C(C([H])([H])[H])(C([H])([H])[H])C([H])([H])[H])C([H])([H])c2c([H])c(OC3([H])C([H])([H])C3([H])C(=O)C([H])([H])C([H])([H])C([H])([H])C([H])([H])C([H])([H])N([H])C(=O)N3C([H])([H])C([H])([H])C([H])([H])C([H])(n4nc(-c5c([H])c([H])c(Oc6c([H])c([H])c(F)c([H])c6F)c([H])c5[H])c(C(=O)N([H])[H])c4N([H])[H])C3([H])[H])c([H])c([H])c2C1([H])[H]

>  <smiles>  (72) 
[H]c1c([H])c([H])c2c(c1[H])C([H])([H])C([H])([H])C([H])([H])C2([H])N([H])C(=O)C1([H])N(C(=O)C([H])(N([H])C(=O)C([H])(N([H])C([H])([H])[H])C([H])([H])[H])C(C([H])([H])[H])(C([H])([H])[H])C([H])([H])[H])C([H])([H])c2c([H])c(OC3([H])C([H])([H])C3([H])C(=O)C([H])([H])C([H])([H])C([H])([H])C([H])([H])C([H])([H])N([H])C(=O)N3C([H])([H])C([H])([H])C([H])([H])C([H])(n4nc(-c5c([H])c([H])c(Oc6c([H])c([H])c(F)c([H])c6F)c([H])c5[H])c(C(=O)N([H])[H])c4N([H])[H])C3([H])[H])c([H])c([H])c2C1([H])[H]

$$$$
72:0:0
     RDKit          3D

 91 99  0  0  1  0  0  0  0  0999 V2000
  -28.7400  -21.8550   20.1530 C   0  0  0  0  0  2  0  0  0  0  0  0
  -31.9860  -19.5350   20.3320 C   0  0  0  0  0  3  0  0  0  0  0  0
  -31.1110  -20.6410   20.2360 C   0  0  0  0  0  3  0  0  0  0  0  0
  -31.5250  -18.2070   20.4430 C   0  0  0  0  0  3  0  0  0  0  0  0
  -29.2660  -19.1010   20.3800 C   0  0  0  0  0  3  0  0  0  0  0  0
  -29.7040  -20.5160   20.2880 C   0  0  0  0  0  0  0  0  0  0  0  0
  -30.1480  -17.9060   20.4440 C   0  0  0  0  0  0  0  0  0  0  0  0
  -29.6720  -16.3450   20.6090 C   0  0  1  0  0  0  0  0  0  0  0  0
  -29.3770  -16.2230   21.9050 F   0  0  0  0  0  0  0  0  0  0  0  0
  -28.5200  -16.3180   19.9430 F   0  0  0  0  0  0  0  0  0  0  0  0
  -30.5150  -14.9710   20.1810 C   0  0  0  0  0  0  0  0  0  0  0  0
  -30.3600  -12.6590   19.1410 C   0  0  0  0  0  2  0  0  0  0  0  0
  -29.3760  -12.7020   17.9450 C   0  0  0  0  0  2  0  0  0  0  0  0
  -27.9280  -12.4770   18.4220 C   0  0  0  0  0  2  0  0  0  0  0  0
  -27.5800  -13.3430   19.6580 C   0  0  0  0  0  3  0  0  0  0  0  0
  -28.6800  -13.2810   20.7410 C   0  0  0  0  0  2  0  0  0  0  0  0
  -29.9430  -13.7010   20.1210 N   0  0  0  0  0  0  0  0  0  0  0  0
  -31.6820  -15.0600   19.7760 O   0  0  0  0  0  0  0  0  0  0  0  0
  -25.2290  -13.9190   20.4960 C   0  0  0  0  0  0  0  0  0  0  0  0
  -24.1770  -13.1370   20.8880 C   0  0  0  0  0  0  0  0  0  0  0  0
  -24.6390  -11.7880   20.8110 C   0  0  0  0  0  0  0  0  0  0  0  0
  -26.2600  -13.0430   20.1990 N   0  0  0  0  0  0  0  0  0  0  0  0
  -25.9190  -11.7550   20.4570 N   0  0  0  0  0  0  0  0  0  0  0  0
  -23.9210  -10.5210   21.0000 C   0  0  0  0  0  0  0  0  0  0  0  0
  -24.3670   -9.5470   21.9210 C   0  0  0  0  0  3  0  0  0  0  0  0
  -23.6460   -8.3470   22.0970 C   0  0  0  0  0  3  0  0  0  0  0  0
  -22.4670   -8.1100   21.3500 C   0  0  0  0  0  0  0  0  0  0  0  0
  -22.0420   -9.0730   20.4170 C   0  0  0  0  0  3  0  0  0  0  0  0
  -22.7620  -10.2650   20.2390 C   0  0  0  0  0  3  0  0  0  0  0  0
  -21.7180   -6.9610   21.4350 O   0  0  0  0  0  0  0  0  0  0  0  0
  -21.6540   -6.2300   22.5940 C   0  0  0  0  0  0  0  0  0  0  0  0
  -21.1920   -6.7920   23.8030 C   0  0  0  0  0  3  0  0  0  0  0  0
  -21.0760   -5.9870   24.9550 C   0  0  0  0  0  3  0  0  0  0  0  0
  -21.4110   -4.6210   24.8960 C   0  0  0  0  0  0  0  0  0  0  0  0
  -21.8650   -4.0570   23.6900 C   0  0  0  0  0  3  0  0  0  0  0  0
  -21.9830   -4.8600   22.5410 C   0  0  0  0  0  0  0  0  0  0  0  0
  -22.4010   -4.3080   21.3760 F   0  0  0  0  0  0  0  0  0  0  0  0
  -21.2930   -3.8450   25.9990 F   0  0  0  0  0  0  0  0  0  0  0  0
  -22.7890  -13.6080   21.2160 C   0  0  0  0  0  0  0  0  0  0  0  0
  -22.0990  -12.8940   22.0990 N   0  0  0  0  0  0  0  0  0  0  0  0
  -22.3290  -14.6370   20.7270 O   0  0  0  0  0  0  0  0  0  0  0  0
  -22.4910  -12.0620   22.5120 H   0  0  0  0  0  0  0  0  0  0  0  0
  -21.1700  -13.1850   22.3670 H   0  0  0  0  0  0  0  0  0  0  0  0
  -25.3890  -15.2920   20.3460 N   0  0  0  0  0  0  0  0  0  0  0  0
  -24.6350  -15.9450   20.5280 H   0  0  0  0  0  0  0  0  0  0  0  0
  -26.2340  -15.7430   20.0170 H   0  0  0  0  0  0  0  0  0  0  0  0
  -30.4750  -23.9180   20.1230 C   0  0  0  0  0  1  0  0  0  0  0  0
  -29.0600  -23.4820   20.5200 C   0  0  2  0  0  0  0  0  0  0  0  0
  -29.0520  -23.5130   21.8540 F   0  0  0  0  0  0  0  0  0  0  0  0
  -28.0420  -24.7420   20.0790 C   0  0  0  0  0  2  0  0  0  0  0  0
  -28.2670  -26.2580   20.3270 O   0  0  0  0  0  0  0  0  0  0  0  0
  -24.6280  -31.9180   23.2600 C   0  0  0  0  0  0  0  0  0  0  0  0
  -27.2010  -27.2190   20.2380 C   0  0  0  0  0  0  0  0  0  0  0  0
  -23.4220  -30.5230   21.6230 C   0  0  0  0  0  3  0  0  0  0  0  0
  -24.8670  -28.9450   20.1980 C   0  0  0  0  0  0  0  0  0  0  0  0
  -25.9750  -30.7910   21.4530 C   0  0  0  0  0  2  0  0  0  0  0  0
  -26.0470  -29.4000   20.8020 C   0  0  0  0  0  0  0  0  0  0  0  0
  -27.2150  -28.5530   20.8050 C   0  0  0  0  0  3  0  0  0  0  0  0
  -25.9980  -26.8580   19.5910 C   0  0  0  0  0  3  0  0  0  0  0  0
  -24.8530  -27.6860   19.5780 C   0  0  0  0  0  3  0  0  0  0  0  0
  -23.6400  -29.8410   20.2450 C   0  0  0  0  0  2  0  0  0  0  0  0
  -24.6950  -31.0980   22.1670 N   0  0  0  0  0  0  0  0  0  0  0  0
  -23.5430  -32.2070   23.7870 O   0  0  0  0  0  0  0  0  0  0  0  0
  -22.7440  -29.5170   22.5870 C   0  0  0  0  0  0  0  0  0  0  0  0
  -21.4150  -29.3520   22.4590 N   0  0  0  0  0  0  0  0  0  0  0  0
  -23.4140  -28.8890   23.4100 O   0  0  0  0  0  0  0  0  0  0  0  0
  -20.9330  -29.9120   21.7710 H   0  0  0  0  0  0  0  0  0  0  0  0
  -18.0280  -28.1640   22.9570 C   0  0  0  0  0  0  0  0  0  0  0  0
  -20.5880  -28.4170   23.2290 C   0  0  0  0  0  3  0  0  0  0  0  0
  -20.6850  -26.9830   22.6570 C   0  0  0  0  0  2  0  0  0  0  0  0
  -19.5830  -26.6630   21.6420 C   0  0  0  0  0  2  0  0  0  0  0  0
  -18.2000  -26.8120   22.2840 C   0  0  0  0  0  2  0  0  0  0  0  0
  -19.1490  -28.9240   23.3860 C   0  0  0  0  0  0  0  0  0  0  0  0
  -18.9330  -30.1860   23.9800 C   0  0  0  0  0  3  0  0  0  0  0  0
  -17.6300  -30.6900   24.1480 C   0  0  0  0  0  3  0  0  0  0  0  0
  -16.5240  -29.9270   23.7340 C   0  0  0  0  0  3  0  0  0  0  0  0
  -16.7230  -28.6660   23.1450 C   0  0  0  0  0  3  0  0  0  0  0  0
  -25.9090  -32.5490   23.8850 C   0  0  0  0  0  3  0  0  0  0  0  0
  -26.4160  -31.7770   25.1660 C   0  0  1  0  0  0  0  0  0  0  0  0
  -25.3180  -31.5460   26.2320 C   0  0  0  0  0  1  0  0  0  0  0  0
  -26.9980  -30.3980   24.7830 C   0  0  0  0  0  1  0  0  0  0  0  0
  -27.5660  -32.5710   25.8310 C   0  0  0  0  0  1  0  0  0  0  0  0
  -25.5990  -33.9480   24.2200 N   0  0  0  0  0  0  0  0  0  0  0  0
  -25.9160  -35.0040   23.4600 C   0  0  0  0  0  0  0  0  0  0  0  0
  -26.5660  -34.9020   22.4160 O   0  0  0  0  0  0  0  0  0  0  0  0
  -25.0120  -34.0980   25.0280 H   0  0  0  0  0  0  0  0  0  0  0  0
  -24.1660  -36.7870   23.1670 C   0  0  0  0  0  1  0  0  0  0  0  0
  -25.4380  -36.3910   23.9310 C   0  0  0  0  0  3  0  0  0  0  0  0
  -27.5960  -37.2930   24.6810 C   0  0  0  0  0  1  0  0  0  0  0  0
  -26.4600  -37.4500   23.7760 N   0  0  0  0  0  0  0  0  0  0  0  0
  -26.0550  -38.3690   23.9350 H   0  0  0  0  0  0  0  0  0  0  0  0
  1  6  1  0
  1 48  1  0
  2  4  1  0
  3  6  1  0
  3  2  2  0
  4  7  2  0
  5  7  1  0
  6  5  2  0
  7  8  1  0
  8  9  1  1
 10  8  1  0
 11  8  1  0
 12 17  1  0
 13 14  1  0
 13 12  1  0
 15 14  1  0
 15 22  1  0
 15 16  1  0
 17 11  1  0
 17 16  1  0
 18 11  2  0
 19 20  2  0
 20 39  1  0
 21 20  1  0
 21 24  1  0
 22 23  1  0
 22 19  1  0
 23 21  2  0
 24 25  1  0
 25 26  2  0
 27 30  1  0
 27 26  1  0
 28 27  2  0
 29 28  1  0
 29 24  2  0
 30 31  1  0
 31 32  1  0
 32 33  2  0
 34 33  1  0
 34 38  1  0
 35 34  2  0
 36 31  2  0
 36 35  1  0
 37 36  1  0
 39 40  1  0
 40 43  1  0
 40 42  1  0
 41 39  2  0
 44 19  1  0
 44 45  1  0
 46 44  1  0
 48 47  1  6
 48 49  1  0
 50 51  1  0
 50 48  1  0
 52 63  2  0
 53 51  1  0
 53 58  1  0
 54 62  1  0
 54 64  1  0
 55 61  1  0
 55 57  1  0
 56 62  1  0
 57 58  2  0
 57 56  1  0
 59 53  2  0
 60 59  1  0
 60 55  2  0
 61 54  1  0
 62 52  1  0
 64 66  2  0
 65 64  1  0
 67 65  1  0
 68 77  2  0
 68 73  1  0
 69 65  1  0
 69 73  1  0
 70 69  1  0
 71 72  1  0
 71 70  1  0
 72 68  1  0
 73 74  2  0
 74 75  1  0
 76 75  2  0
 77 76  1  0
 78 52  1  0
 78 83  1  0
 78 79  1  0
 79 82  1  1
 79 80  1  0
 81 79  1  0
 83 86  1  0
 84 88  1  0
 84 83  1  0
 85 84  2  0
 88 87  1  0
 90 88  1  0
 90 91  1  0
 90 89  1  0
M  ISO  4   8 100  11 100  50 101  51 101
M  END
>  <TORSDO>  (73) 
F 20

>  <SCORE>  (73) 
-14.651

>  <name>  (73) 
72

>  <ligand_id>  (73) 
72

>  <original_smiles>  (73) 
[H]c1c([H])c([H])c2c(c1[H])C([H])([H])C([H])([H])C([H])([H])C2([H])N([H])C(=O)C1([H])N(C(=O)C([H])(N([H])C(=O)C([H])(N([H])C([H])([H])[H])C([H])([H])[H])C(C([H])([H])[H])(C([H])([H])[H])C([H])([H])[H])C([H])([H])c2c([H])c(OC([H])([H])C(F)(C([H])([H])[H])C([H])([H])c3c([H])c([H])c([H])c(C(F)(F)C(=O)N4C([H])([H])C([H])([H])C([H])([H])C([H])(n5nc(-c6c([H])c([H])c(Oc7c([H])c([H])c(F)c([H])c7F)c([H])c6[H])c(C(=O)N([H])[H])c5N([H])[H])C4([H])[H])c3[H])c([H])c([H])c2C1([H])[H]

>  <smiles>  (73) 
[H]c1c([H])c([H])c2c(c1[H])C([H])([H])C([H])([H])C([H])([H])C2([H])N([H])C(=O)C1([H])N(C(=O)C([H])(N([H])C(=O)C([H])(N([H])C([H])([H])[H])C([H])([H])[H])C(C([H])([H])[H])(C([H])([H])[H])C([H])([H])[H])C([H])([H])c2c([H])c(OC([H])([H])C(F)(C([H])([H])[H])C([H])([H])c3c([H])c([H])c([H])c(C(F)(F)C(=O)N4C([H])([H])C([H])([H])C([H])([H])C([H])(n5nc(-c6c([H])c([H])c(Oc7c([H])c([H])c(F)c([H])c7F)c([H])c6[H])c(C(=O)N([H])[H])c5N([H])[H])C4([H])[H])c3[H])c([H])c([H])c2C1([H])[H]

$$$$
73:0:0
     RDKit          3D

 90 98  0  0  1  0  0  0  0  0999 V2000
  -31.1840  -18.5780   20.1830 C   0  0  0  0  0  2  0  0  0  0  0  0
  -31.6800  -19.8640   19.6610 C   0  0  0  0  0  2  0  0  0  0  0  0
  -28.8820  -19.6610   20.0380 C   0  0  0  0  0  2  0  0  0  0  0  0
  -29.8940  -18.0910   20.2390 C   0  0  0  0  0  3  0  0  0  0  0  0
  -31.2950  -21.1360   19.9220 C   0  0  0  0  0  3  0  0  0  0  0  0
  -28.9630  -21.2840   20.2630 C   0  0  0  0  0  2  0  0  0  0  0  0
  -30.2690  -21.5080   20.9680 C   0  0  0  0  0  2  0  0  0  0  0  0
  -31.6290  -22.2630   18.9480 C   0  0  0  0  0  2  0  0  0  0  0  0
  -30.4220  -23.5840   16.9230 C   0  0  0  0  0  2  0  0  0  0  0  0
  -28.9960  -24.0220   17.3050 C   0  0  0  0  0  2  0  0  0  0  0  0
  -28.2510  -23.1550   19.8010 C   0  0  0  0  0  1  0  0  0  0  0  0
  -30.3700  -22.6210   18.1250 C   0  0  0  0  0  3  0  0  0  0  0  0
  -29.3240  -23.5860   18.7460 C   0  0  0  0  0  3  0  0  0  0  0  0
  -30.1960  -16.2180   20.2450 C   0  0  0  0  0  0  0  0  0  0  0  0
  -30.3030  -13.5470   19.4700 C   0  0  0  0  0  2  0  0  0  0  0  0
  -29.4840  -12.8570   18.3300 C   0  0  0  0  0  2  0  0  0  0  0  0
  -28.1310  -12.3780   18.8450 C   0  0  0  0  0  2  0  0  0  0  0  0
  -27.5230  -13.4490   19.7670 C   0  0  0  0  0  3  0  0  0  0  0  0
  -28.5040  -14.0350   20.8310 C   0  0  0  0  0  2  0  0  0  0  0  0
  -29.5970  -14.8070   20.1270 N   0  0  0  0  0  0  0  0  0  0  0  0
  -31.3920  -15.8140   20.2440 O   0  0  0  0  0  0  0  0  0  0  0  0
  -25.1510  -13.9250   20.4990 C   0  0  0  0  0  0  0  0  0  0  0  0
  -24.0960  -13.1350   20.8460 C   0  0  0  0  0  0  0  0  0  0  0  0
  -24.5850  -11.7900   20.8360 C   0  0  0  0  0  0  0  0  0  0  0  0
  -26.2150  -13.0740   20.2890 N   0  0  0  0  0  0  0  0  0  0  0  0
  -25.8880  -11.7770   20.5540 N   0  0  0  0  0  0  0  0  0  0  0  0
  -23.8630  -10.5200   21.0160 C   0  0  0  0  0  0  0  0  0  0  0  0
  -24.2790   -9.5590   21.9630 C   0  0  0  0  0  3  0  0  0  0  0  0
  -23.5450   -8.3650   22.1410 C   0  0  0  0  0  3  0  0  0  0  0  0
  -22.3820   -8.1230   21.3730 C   0  0  0  0  0  0  0  0  0  0  0  0
  -21.9850   -9.0740   20.4170 C   0  0  0  0  0  3  0  0  0  0  0  0
  -22.7200  -10.2580   20.2370 C   0  0  0  0  0  3  0  0  0  0  0  0
  -21.6240   -6.9790   21.4600 O   0  0  0  0  0  0  0  0  0  0  0  0
  -21.5650   -6.2390   22.6150 C   0  0  0  0  0  0  0  0  0  0  0  0
  -21.1210   -6.7990   23.8340 C   0  0  0  0  0  3  0  0  0  0  0  0
  -21.0050   -5.9880   24.9800 C   0  0  0  0  0  3  0  0  0  0  0  0
  -21.3250   -4.6180   24.9100 C   0  0  0  0  0  0  0  0  0  0  0  0
  -21.7610   -4.0580   23.6960 C   0  0  0  0  0  3  0  0  0  0  0  0
  -21.8780   -4.8660   22.5530 C   0  0  0  0  0  0  0  0  0  0  0  0
  -22.2790   -4.3170   21.3810 F   0  0  0  0  0  0  0  0  0  0  0  0
  -21.2080   -3.8370   26.0080 F   0  0  0  0  0  0  0  0  0  0  0  0
  -22.6880  -13.6020   21.0670 C   0  0  0  0  0  0  0  0  0  0  0  0
  -21.9410  -12.9200   21.9260 N   0  0  0  0  0  0  0  0  0  0  0  0
  -22.2600  -14.6150   20.5150 O   0  0  0  0  0  0  0  0  0  0  0  0
  -22.3000  -12.1060   22.3990 H   0  0  0  0  0  0  0  0  0  0  0  0
  -20.9970  -13.2280   22.1170 H   0  0  0  0  0  0  0  0  0  0  0  0
  -25.2880  -15.2970   20.3090 N   0  0  0  0  0  0  0  0  0  0  0  0
  -24.4980  -15.9260   20.4020 H   0  0  0  0  0  0  0  0  0  0  0  0
  -26.1280  -15.7650   19.9930 H   0  0  0  0  0  0  0  0  0  0  0  0
  -28.1290  -25.0280   20.3120 O   0  0  0  0  0  1  0  0  0  0  0  0
  -24.7200  -31.8050   23.1550 C   0  0  0  0  0  0  0  0  0  0  0  0
  -27.2280  -26.4160   20.1920 C   0  0  0  0  0  0  0  0  0  0  0  0
  -23.5420  -30.3860   21.5340 C   0  0  0  0  0  3  0  0  0  0  0  0
  -24.9890  -28.6650   20.1360 C   0  0  0  0  0  0  0  0  0  0  0  0
  -26.1340  -30.4240   21.4490 C   0  0  0  0  0  2  0  0  0  0  0  0
  -26.1900  -28.9540   20.7910 C   0  0  0  0  0  0  0  0  0  0  0  0
  -27.2690  -27.8650   20.7890 C   0  0  0  0  0  3  0  0  0  0  0  0
  -25.9930  -26.4340   19.4650 C   0  0  0  0  0  3  0  0  0  0  0  0
  -24.9520  -27.4360   19.4470 C   0  0  0  0  0  3  0  0  0  0  0  0
  -23.7940  -29.6540   20.1760 C   0  0  0  0  0  2  0  0  0  0  0  0
  -24.8270  -30.9140   22.0970 N   0  0  0  0  0  0  0  0  0  0  0  0
  -23.6210  -32.1240   23.6470 O   0  0  0  0  0  0  0  0  0  0  0  0
  -22.7970  -29.4460   22.5250 C   0  0  0  0  0  0  0  0  0  0  0  0
  -21.4600  -29.3090   22.4060 N   0  0  0  0  0  0  0  0  0  0  0  0
  -23.4400  -28.8330   23.3790 O   0  0  0  0  0  0  0  0  0  0  0  0
  -20.9850  -29.8520   21.6990 H   0  0  0  0  0  0  0  0  0  0  0  0
  -18.0680  -28.0940   22.9460 C   0  0  0  0  0  0  0  0  0  0  0  0
  -20.6310  -28.3800   23.1900 C   0  0  0  0  0  3  0  0  0  0  0  0
  -20.7330  -26.9420   22.6300 C   0  0  0  0  0  2  0  0  0  0  0  0
  -19.6290  -26.6080   21.6220 C   0  0  0  0  0  2  0  0  0  0  0  0
  -18.2490  -26.7450   22.2700 C   0  0  0  0  0  2  0  0  0  0  0  0
  -19.1840  -28.8690   23.3620 C   0  0  0  0  0  0  0  0  0  0  0  0
  -18.9570  -30.1270   23.9620 C   0  0  0  0  0  3  0  0  0  0  0  0
  -17.6490  -30.6120   24.1440 C   0  0  0  0  0  3  0  0  0  0  0  0
  -16.5470  -29.8370   23.7400 C   0  0  0  0  0  3  0  0  0  0  0  0
  -16.7600  -28.5800   23.1470 C   0  0  0  0  0  3  0  0  0  0  0  0
  -25.9690  -32.4800   23.8010 C   0  0  0  0  0  3  0  0  0  0  0  0
  -25.6270  -33.8790   24.1440 N   0  0  0  0  0  0  0  0  0  0  0  0
  -25.9410  -34.9610   23.4160 C   0  0  0  0  0  0  0  0  0  0  0  0
  -26.5950  -34.8870   22.3750 O   0  0  0  0  0  0  0  0  0  0  0  0
  -25.0350  -34.0080   24.9520 H   0  0  0  0  0  0  0  0  0  0  0  0
  -24.1870  -36.7570   23.1630 C   0  0  0  0  0  1  0  0  0  0  0  0
  -25.4600  -36.3420   23.9180 C   0  0  0  0  0  3  0  0  0  0  0  0
  -27.6070  -37.2550   24.6930 C   0  0  0  0  0  1  0  0  0  0  0  0
  -26.4800  -37.4070   23.7770 N   0  0  0  0  0  0  0  0  0  0  0  0
  -26.0690  -38.3240   23.9250 H   0  0  0  0  0  0  0  0  0  0  0  0
  -26.4700  -31.7320   25.1000 C   0  0  1  0  0  0  0  0  0  0  0  0
  -25.3650  -31.5100   26.1600 C   0  0  0  0  0  1  0  0  0  0  0  0
  -27.0630  -30.3490   24.7560 C   0  0  0  0  0  1  0  0  0  0  0  0
  -27.6120  -32.5390   25.7620 C   0  0  0  0  0  1  0  0  0  0  0  0
  1  4  1  0
  2  5  1  0
  2  1  1  0
  3  4  1  0
  3  6  1  0
  4 14  1  0
  5  8  1  0
  5  7  1  0
  6  7  1  0
  9 10  1  0
  9 12  1  0
 10 13  1  0
 12 13  1  0
 12  8  1  0
 13 11  1  0
 15 20  1  0
 16 17  1  0
 16 15  1  0
 18 17  1  0
 18 25  1  0
 18 19  1  0
 20 14  1  0
 20 19  1  0
 21 14  2  0
 22 23  2  0
 23 42  1  0
 24 23  1  0
 24 27  1  0
 25 22  1  0
 25 26  1  0
 26 24  2  0
 27 28  1  0
 28 29  2  0
 30 33  1  0
 30 29  1  0
 31 30  2  0
 32 31  1  0
 32 27  2  0
 33 34  1  0
 34 35  1  0
 35 36  2  0
 37 36  1  0
 37 41  1  0
 38 37  2  0
 39 34  2  0
 39 38  1  0
 40 39  1  0
 42 43  1  0
 43 46  1  0
 43 45  1  0
 44 42  2  0
 47 48  1  0
 47 22  1  0
 49 47  1  0
 51 62  2  0
 52 50  1  0
 52 57  1  0
 53 61  1  0
 53 63  1  0
 54 60  1  0
 54 56  1  0
 55 61  1  0
 56 55  1  0
 57 56  2  0
 58 52  2  0
 59 58  1  0
 59 54  2  0
 60 53  1  0
 61 51  1  0
 63 65  2  0
 64 63  1  0
 66 64  1  0
 67 76  2  0
 67 72  1  0
 68 64  1  0
 68 72  1  0
 69 68  1  0
 70 71  1  0
 70 69  1  0
 71 67  1  0
 72 73  2  0
 73 74  1  0
 75 74  2  0
 76 75  1  0
 77 51  1  0
 77 78  1  0
 77 87  1  0
 78 81  1  0
 79 83  1  0
 79 78  1  0
 80 79  2  0
 83 82  1  0
 85 83  1  0
 85 86  1  0
 85 84  1  0
 87 90  1  1
 87 88  1  0
 89 87  1  0
M  ISO  4   4 100  11 101  14 100  50 101
M  END
>  <TORSDO>  (74) 
F 16

>  <SCORE>  (74) 
-16.785

>  <name>  (74) 
73

>  <ligand_id>  (74) 
73

>  <original_smiles>  (74) 
[H]C1=C(C(=O)N2C([H])([H])C([H])([H])C([H])([H])C([H])(n3nc(-c4c([H])c([H])c(Oc5c([H])c([H])c(F)c([H])c5F)c([H])c4[H])c(C(=O)N([H])[H])c3N([H])[H])C2([H])[H])C([H])=C2C([H])([H])C(=C1[H])C([H])([H])C1([H])C([H])([H])C([H])([H])C1([H])C2([H])Oc1c([H])c([H])c2c(c1[H])C([H])([H])N(C(=O)C([H])(N([H])C(=O)C([H])(N([H])C([H])([H])[H])C([H])([H])[H])C(C([H])([H])[H])(C([H])([H])[H])C([H])([H])[H])C([H])(C(=O)N([H])C1([H])c3c([H])c([H])c([H])c([H])c3C([H])([H])C([H])([H])C1([H])[H])C2([H])[H]

>  <smiles>  (74) 
[H]C1=C(C(=O)N2C([H])([H])C([H])([H])C([H])([H])C([H])(n3nc(-c4c([H])c([H])c(Oc5c([H])c([H])c(F)c([H])c5F)c([H])c4[H])c(C(=O)N([H])[H])c3N([H])[H])C2([H])[H])C([H])=C2C([H])([H])C(=C1[H])C([H])([H])C1([H])C([H])([H])C([H])([H])C1([H])C2([H])Oc1c([H])c([H])c2c(c1[H])C([H])([H])N(C(=O)C([H])(N([H])C(=O)C([H])(N([H])C([H])([H])[H])C([H])([H])[H])C(C([H])([H])[H])(C([H])([H])[H])C([H])([H])[H])C([H])(C(=O)N([H])C1([H])c3c([H])c([H])c([H])c([H])c3C([H])([H])C([H])([H])C1([H])[H])C2([H])[H]

$$$$
74:0:0
     RDKit          3D

 91100  0  0  1  0  0  0  0  0999 V2000
  -31.3960  -20.1800   21.1010 C   0  0  0  0  0  2  0  0  0  0  0  0
  -31.6880  -20.7480   19.6700 C   0  0  0  0  0  2  0  0  0  0  0  0
  -29.9450  -19.1710   18.7120 C   0  0  0  0  0  2  0  0  0  0  0  0
  -30.0310  -19.4270   21.0760 C   0  0  0  0  0  3  0  0  0  0  0  0
  -30.3010  -18.2310   19.9850 C   0  0  0  0  0  3  0  0  0  0  0  0
  -30.3620  -20.7810   18.8600 C   0  0  0  0  0  3  0  0  0  0  0  0
  -28.9610  -20.6890   20.7810 C   0  0  0  0  0  3  0  0  0  0  0  0
  -28.5650  -21.4270   22.0730 C   0  0  0  0  0  1  0  0  0  0  0  0
  -29.4650  -21.6830   19.7160 N   0  0  2  0  0  4  0  0  0  0  0  0
  -30.2780  -21.8010   20.3030 H   0  0  0  0  0  0  0  0  0  0  0  0
  -30.7480  -15.3760   20.0900 C   0  0  0  0  0  0  0  0  0  0  0  0
  -30.6550  -12.9390   19.2720 C   0  0  0  0  0  2  0  0  0  0  0  0
  -29.7240  -12.7640   18.0480 C   0  0  0  0  0  2  0  0  0  0  0  0
  -28.2690  -12.5440   18.4990 C   0  0  0  0  0  2  0  0  0  0  0  0
  -27.8460  -13.5360   19.6120 C   0  0  0  0  0  3  0  0  0  0  0  0
  -28.9030  -13.6640   20.7310 C   0  0  0  0  0  2  0  0  0  0  0  0
  -30.1510  -14.0960   20.0860 N   0  0  0  0  0  0  0  0  0  0  0  0
  -31.9600  -15.3750   19.8410 O   0  0  0  0  0  0  0  0  0  0  0  0
  -29.9970  -16.6270   20.1650 N   0  0  0  0  0  0  0  0  0  0  0  0
  -29.0190  -16.4450   20.3380 H   0  0  0  0  0  0  0  0  0  0  0  0
  -25.4880  -14.1440   20.3760 C   0  0  0  0  0  0  0  0  0  0  0  0
  -24.4160  -13.3880   20.7570 C   0  0  0  0  0  0  0  0  0  0  0  0
  -24.8600  -12.0290   20.7300 C   0  0  0  0  0  0  0  0  0  0  0  0
  -26.5140  -13.2510   20.1310 N   0  0  0  0  0  0  0  0  0  0  0  0
  -26.1490  -11.9720   20.4130 N   0  0  0  0  0  0  0  0  0  0  0  0
  -24.1130  -10.7800   20.9300 C   0  0  0  0  0  0  0  0  0  0  0  0
  -24.5130   -9.8240   21.8900 C   0  0  0  0  0  3  0  0  0  0  0  0
  -23.7640   -8.6420   22.0790 C   0  0  0  0  0  3  0  0  0  0  0  0
  -22.6020   -8.4070   21.3060 C   0  0  0  0  0  0  0  0  0  0  0  0
  -22.2210   -9.3500   20.3360 C   0  0  0  0  0  3  0  0  0  0  0  0
  -22.9710  -10.5240   20.1450 C   0  0  0  0  0  3  0  0  0  0  0  0
  -21.8280   -7.2750   21.4020 O   0  0  0  0  0  0  0  0  0  0  0  0
  -21.7350   -6.5650   22.5720 C   0  0  0  0  0  0  0  0  0  0  0  0
  -21.2410   -7.1460   23.7590 C   0  0  0  0  0  3  0  0  0  0  0  0
  -21.0960   -6.3600   24.9200 C   0  0  0  0  0  3  0  0  0  0  0  0
  -21.4370   -4.9950   24.8940 C   0  0  0  0  0  0  0  0  0  0  0  0
  -21.9240   -4.4130   23.7100 C   0  0  0  0  0  3  0  0  0  0  0  0
  -22.0700   -5.1950   22.5520 C   0  0  0  0  0  0  0  0  0  0  0  0
  -22.5200   -4.6250   21.4090 F   0  0  0  0  0  0  0  0  0  0  0  0
  -21.2890   -4.2370   26.0070 F   0  0  0  0  0  0  0  0  0  0  0  0
  -23.0280  -13.8880   21.0290 C   0  0  0  0  0  0  0  0  0  0  0  0
  -22.2930  -13.2100   21.9020 N   0  0  0  0  0  0  0  0  0  0  0  0
  -22.6060  -14.9180   20.5030 O   0  0  0  0  0  0  0  0  0  0  0  0
  -22.6470  -12.3760   22.3460 H   0  0  0  0  0  0  0  0  0  0  0  0
  -21.3610  -13.5280   22.1300 H   0  0  0  0  0  0  0  0  0  0  0  0
  -25.6670  -15.5120   20.1890 N   0  0  0  0  0  0  0  0  0  0  0  0
  -24.9010  -16.1690   20.2960 H   0  0  0  0  0  0  0  0  0  0  0  0
  -26.5010  -15.9370   19.8080 H   0  0  0  0  0  0  0  0  0  0  0  0
  -29.4990  -23.3390   19.7560 C   0  0  0  0  0  3  0  0  0  0  0  0
  -28.3550  -24.6090   19.4160 C   0  0  0  0  0  3  0  0  0  0  0  0
  -28.4940  -26.1970   19.6740 O   0  0  0  0  0  0  0  0  0  0  0  0
  -24.6330  -31.6410   23.0400 C   0  0  0  0  0  0  0  0  0  0  0  0
  -27.4080  -27.1870   19.6820 C   0  0  0  0  0  0  0  0  0  0  0  0
  -23.5000  -30.3190   21.2990 C   0  0  0  0  0  3  0  0  0  0  0  0
  -25.0180  -28.9020   19.7660 C   0  0  0  0  0  0  0  0  0  0  0  0
  -26.0480  -30.6750   21.1740 C   0  0  0  0  0  2  0  0  0  0  0  0
  -26.1820  -29.3300   20.4160 C   0  0  0  0  0  0  0  0  0  0  0  0
  -27.3740  -28.4950   20.3500 C   0  0  0  0  0  3  0  0  0  0  0  0
  -26.2070  -26.8850   19.0010 C   0  0  0  0  0  3  0  0  0  0  0  0
  -25.0500  -27.7010   19.0390 C   0  0  0  0  0  3  0  0  0  0  0  0
  -23.7560  -29.7540   19.8760 C   0  0  0  0  0  2  0  0  0  0  0  0
  -24.7460  -30.9000   21.8940 N   0  0  0  0  0  0  0  0  0  0  0  0
  -23.5330  -31.8440   23.5800 O   0  0  0  0  0  0  0  0  0  0  0  0
  -22.8540  -29.2220   22.1830 C   0  0  0  0  0  0  0  0  0  0  0  0
  -21.5250  -29.0370   22.0680 N   0  0  0  0  0  0  0  0  0  0  0  0
  -23.5510  -28.5440   22.9410 O   0  0  0  0  0  0  0  0  0  0  0  0
  -21.0160  -29.6390   21.4340 H   0  0  0  0  0  0  0  0  0  0  0  0
  -18.1690  -27.7610   22.5780 C   0  0  0  0  0  0  0  0  0  0  0  0
  -20.7360  -28.0170   22.7670 C   0  0  0  0  0  3  0  0  0  0  0  0
  -20.8210  -26.6540   22.0400 C   0  0  0  0  0  2  0  0  0  0  0  0
  -19.6790  -26.4310   21.0430 C   0  0  0  0  0  2  0  0  0  0  0  0
  -18.3240  -26.4940   21.7530 C   0  0  0  0  0  2  0  0  0  0  0  0
  -19.3010  -28.4840   23.0400 C   0  0  0  0  0  0  0  0  0  0  0  0
  -19.0980  -29.6730   23.7750 C   0  0  0  0  0  3  0  0  0  0  0  0
  -17.7980  -30.1370   24.0490 C   0  0  0  0  0  3  0  0  0  0  0  0
  -16.6820  -29.4090   23.6010 C   0  0  0  0  0  3  0  0  0  0  0  0
  -16.8690  -28.2220   22.8710 C   0  0  0  0  0  3  0  0  0  0  0  0
  -25.8780  -32.2850   23.7230 C   0  0  0  0  0  3  0  0  0  0  0  0
  -25.5220  -33.6620   24.1030 N   0  0  0  0  0  0  0  0  0  0  0  0
  -25.8050  -34.7540   23.3800 C   0  0  0  0  0  0  0  0  0  0  0  0
  -26.4570  -34.7110   22.3340 O   0  0  0  0  0  0  0  0  0  0  0  0
  -24.9360  -33.7660   24.9180 H   0  0  0  0  0  0  0  0  0  0  0  0
  -23.9920  -36.4880   23.1610 C   0  0  0  0  0  1  0  0  0  0  0  0
  -25.2860  -36.1100   23.9000 C   0  0  0  0  0  3  0  0  0  0  0  0
  -27.4130  -37.0690   24.6660 C   0  0  0  0  0  1  0  0  0  0  0  0
  -26.2680  -37.2100   23.7700 N   0  0  0  0  0  0  0  0  0  0  0  0
  -25.8290  -38.1070   23.9580 H   0  0  0  0  0  0  0  0  0  0  0  0
  -26.3770  -31.4810   24.9870 C   0  0  1  0  0  0  0  0  0  0  0  0
  -25.2610  -31.1830   26.0150 C   0  0  0  0  0  1  0  0  0  0  0  0
  -27.0000  -30.1290   24.5720 C   0  0  0  0  0  1  0  0  0  0  0  0
  -27.4910  -32.2780   25.7080 C   0  0  0  0  0  1  0  0  0  0  0  0
  2  1  1  0
  3  5  1  0
  4  1  1  0
  5 19  1  0
  5  4  1  0
  6  3  1  0
  6  2  1  0
  6  9  1  0
  7  4  1  0
  7  8  1  0
  9 49  1  0
  9 10  1  1
  9  7  1  0
 11 19  1  0
 12 17  1  0
 13 14  1  0
 13 12  1  0
 15 14  1  0
 15 24  1  0
 15 16  1  0
 17 11  1  0
 17 16  1  0
 18 11  2  0
 19 20  1  0
 21 22  2  0
 22 41  1  0
 23 22  1  0
 23 26  1  0
 24 21  1  0
 24 25  1  0
 25 23  2  0
 26 27  1  0
 27 28  2  0
 29 32  1  0
 29 28  1  0
 30 29  2  0
 31 30  1  0
 31 26  2  0
 32 33  1  0
 33 34  1  0
 34 35  2  0
 36 35  1  0
 36 40  1  0
 37 36  2  0
 38 33  2  0
 38 37  1  0
 39 38  1  0
 41 42  1  0
 42 45  1  0
 42 44  1  0
 43 41  2  0
 46 47  1  0
 46 21  1  0
 48 46  1  0
 50 51  1  0
 50 49  2  0
 51 53  1  0
 52 63  2  0
 53 58  1  0
 54 62  1  0
 54 64  1  0
 55 61  1  0
 55 57  1  0
 56 62  1  0
 57 56  1  0
 58 57  2  0
 59 60  1  0
 59 53  2  0
 60 55  2  0
 61 54  1  0
 62 52  1  0
 64 66  2  0
 65 64  1  0
 67 65  1  0
 68 77  2  0
 68 73  1  0
 69 65  1  0
 69 73  1  0
 70 69  1  0
 71 72  1  0
 71 70  1  0
 72 68  1  0
 73 74  2  0
 74 75  1  0
 76 75  2  0
 77 76  1  0
 78 52  1  0
 78 79  1  0
 78 88  1  0
 79 82  1  0
 80 84  1  0
 80 79  1  0
 81 80  2  0
 84 83  1  0
 86 84  1  0
 86 87  1  0
 86 85  1  0
 88 91  1  1
 88 89  1  0
 90 88  1  0
M  ISO  4  11 100  19 100  50 101  51 101
M  END
>  <TORSDO>  (75) 
F 18

>  <SCORE>  (75) 
-14.566

>  <name>  (75) 
74

>  <ligand_id>  (75) 
74

>  <original_smiles>  (75) 
[H]c1c([H])c([H])c2c(c1[H])C([H])([H])C([H])([H])C([H])([H])C2([H])N([H])C(=O)C1([H])N(C(=O)C([H])(N([H])C(=O)C([H])(N([H])C([H])([H])[H])C([H])([H])[H])C(C([H])([H])[H])(C([H])([H])[H])C([H])([H])[H])C([H])([H])c2c([H])c(OC([H])([H])C([H])([H])[N+]3([H])C4([H])C([H])([H])C([H])([H])C([H])(C([H])(N([H])C(=O)N5C([H])([H])C([H])([H])C([H])([H])C([H])(n6nc(-c7c([H])c([H])c(Oc8c([H])c([H])c(F)c([H])c8F)c([H])c7[H])c(C(=O)N([H])[H])c6N([H])[H])C5([H])[H])C4([H])[H])C3([H])C([H])([H])[H])c([H])c([H])c2C1([H])[H]

>  <smiles>  (75) 
[H]c1c([H])c([H])c2c(c1[H])C([H])([H])C([H])([H])C([H])([H])C2([H])N([H])C(=O)C1([H])N(C(=O)C([H])(N([H])C(=O)C([H])(N([H])C([H])([H])[H])C([H])([H])[H])C(C([H])([H])[H])(C([H])([H])[H])C([H])([H])[H])C([H])([H])c2c([H])c(OC([H])([H])C([H])([H])[N+]3([H])C4([H])C([H])([H])C([H])([H])C([H])(C([H])(N([H])C(=O)N5C([H])([H])C([H])([H])C([H])([H])C([H])(n6nc(-c7c([H])c([H])c(Oc8c([H])c([H])c(F)c([H])c8F)c([H])c7[H])c(C(=O)N([H])[H])c6N([H])[H])C5([H])[H])C4([H])[H])C3([H])C([H])([H])[H])c([H])c([H])c2C1([H])[H]

$$$$
75:0:0
     RDKit          3D

 89 97  0  0  1  0  0  0  0  0999 V2000
  -27.7790  -22.8480   19.6910 C   0  0  0  0  0  2  0  0  0  0  0  0
  -29.7100  -23.1390   20.4180 C   0  0  0  0  0  2  0  0  0  0  0  0
  -28.7490  -21.9260   20.4800 C   0  0  0  0  0  3  0  0  0  0  0  0
  -28.4960  -24.0970   20.2650 C   0  0  0  0  0  3  0  0  0  0  0  0
  -29.2000  -20.6050   19.7760 C   0  0  0  0  0  0  0  0  0  0  0  0
  -29.3780  -19.4970   20.5360 N   0  0  0  0  0  0  0  0  0  0  0  0
  -29.3260  -20.5730   18.5510 O   0  0  0  0  0  0  0  0  0  0  0  0
  -29.2550  -19.6250   21.5340 H   0  0  0  0  0  0  0  0  0  0  0  0
  -29.5420  -18.0920   20.0750 C   0  0  0  0  0  2  0  0  0  0  0  0
  -30.3640  -17.1840   21.0560 C   0  0  0  0  0  2  0  0  0  0  0  0
  -29.8980  -15.6890   21.2440 C   0  0  0  0  0  2  0  0  0  0  0  0
  -30.6040  -14.5350   20.4610 C   0  0  0  0  0  0  0  0  0  0  0  0
  -30.3420  -12.3750   19.2600 C   0  0  0  0  0  2  0  0  0  0  0  0
  -29.3750  -12.5850   18.0740 C   0  0  0  0  0  2  0  0  0  0  0  0
  -27.9070  -12.4340   18.5190 C   0  0  0  0  0  2  0  0  0  0  0  0
  -27.5880  -13.2480   19.8000 C   0  0  0  0  0  3  0  0  0  0  0  0
  -28.6590  -13.0000   20.8870 C   0  0  0  0  0  2  0  0  0  0  0  0
  -29.9690  -13.3360   20.3120 N   0  0  0  0  0  0  0  0  0  0  0  0
  -31.7050  -14.7500   19.9430 O   0  0  0  0  0  0  0  0  0  0  0  0
  -25.1970  -13.8600   20.5280 C   0  0  0  0  0  0  0  0  0  0  0  0
  -24.1280  -13.0900   20.9040 C   0  0  0  0  0  0  0  0  0  0  0  0
  -24.5870  -11.7370   20.8670 C   0  0  0  0  0  0  0  0  0  0  0  0
  -26.2370  -12.9760   20.2900 N   0  0  0  0  0  0  0  0  0  0  0  0
  -25.8750  -11.6950   20.5490 N   0  0  0  0  0  0  0  0  0  0  0  0
  -23.8590  -10.4760   21.0630 C   0  0  0  0  0  0  0  0  0  0  0  0
  -24.3090   -9.4950   21.9740 C   0  0  0  0  0  3  0  0  0  0  0  0
  -23.5810   -8.2990   22.1560 C   0  0  0  0  0  3  0  0  0  0  0  0
  -22.3900   -8.0750   21.4250 C   0  0  0  0  0  0  0  0  0  0  0  0
  -21.9580   -9.0450   20.5020 C   0  0  0  0  0  3  0  0  0  0  0  0
  -22.6860  -10.2320   20.3190 C   0  0  0  0  0  3  0  0  0  0  0  0
  -21.6320   -6.9340   21.5170 O   0  0  0  0  0  0  0  0  0  0  0  0
  -21.6190   -6.1670   22.6530 C   0  0  0  0  0  0  0  0  0  0  0  0
  -21.2540   -6.7010   23.9080 C   0  0  0  0  0  3  0  0  0  0  0  0
  -21.1890   -5.8610   25.0380 C   0  0  0  0  0  3  0  0  0  0  0  0
  -21.4800   -4.4900   24.9150 C   0  0  0  0  0  0  0  0  0  0  0  0
  -21.8390   -3.9550   23.6650 C   0  0  0  0  0  3  0  0  0  0  0  0
  -21.9060   -4.7920   22.5370 C   0  0  0  0  0  0  0  0  0  0  0  0
  -22.2330   -4.2680   21.3310 F   0  0  0  0  0  0  0  0  0  0  0  0
  -21.4080   -3.6810   25.9970 F   0  0  0  0  0  0  0  0  0  0  0  0
  -22.7350  -13.5690   21.1900 C   0  0  0  0  0  0  0  0  0  0  0  0
  -22.0140  -12.8720   22.0610 N   0  0  0  0  0  0  0  0  0  0  0  0
  -22.2930  -14.5970   20.6770 O   0  0  0  0  0  0  0  0  0  0  0  0
  -22.3810  -12.0380   22.4920 H   0  0  0  0  0  0  0  0  0  0  0  0
  -21.0810  -13.1780   22.3020 H   0  0  0  0  0  0  0  0  0  0  0  0
  -25.3660  -15.2310   20.3480 N   0  0  0  0  0  0  0  0  0  0  0  0
  -24.6030  -15.8920   20.4460 H   0  0  0  0  0  0  0  0  0  0  0  0
  -26.2200  -15.6590   20.0150 H   0  0  0  0  0  0  0  0  0  0  0  0
  -28.6050  -25.4230   19.4470 C   0  0  0  0  0  2  0  0  0  0  0  0
  -28.4270  -26.6600   20.1880 O   0  0  0  0  0  0  0  0  0  0  0  0
  -24.6070  -31.8710   23.2410 C   0  0  0  0  0  0  0  0  0  0  0  0
  -27.2370  -27.3800   20.1610 C   0  0  0  0  0  0  0  0  0  0  0  0
  -23.3920  -30.4680   21.6060 C   0  0  0  0  0  3  0  0  0  0  0  0
  -24.8390  -28.9190   20.1790 C   0  0  0  0  0  0  0  0  0  0  0  0
  -25.9200  -30.8140   21.3950 C   0  0  0  0  0  2  0  0  0  0  0  0
  -26.0020  -29.4340   20.7630 C   0  0  0  0  0  0  0  0  0  0  0  0
  -27.1960  -28.6730   20.7510 C   0  0  0  0  0  3  0  0  0  0  0  0
  -26.0440  -26.8810   19.5860 C   0  0  0  0  0  3  0  0  0  0  0  0
  -24.8570  -27.6420   19.5900 C   0  0  0  0  0  3  0  0  0  0  0  0
  -23.5980  -29.7830   20.2270 C   0  0  0  0  0  2  0  0  0  0  0  0
  -24.6600  -31.0670   22.1400 N   0  0  0  0  0  0  0  0  0  0  0  0
  -23.5290  -32.1450   23.7860 O   0  0  0  0  0  0  0  0  0  0  0  0
  -22.7420  -29.4520   22.5740 C   0  0  0  0  0  0  0  0  0  0  0  0
  -21.4160  -29.2720   22.4560 N   0  0  0  0  0  0  0  0  0  0  0  0
  -23.4270  -28.8290   23.3880 O   0  0  0  0  0  0  0  0  0  0  0  0
  -20.9190  -29.8350   21.7810 H   0  0  0  0  0  0  0  0  0  0  0  0
  -18.0470  -28.0660   22.9580 C   0  0  0  0  0  0  0  0  0  0  0  0
  -20.6030  -28.3330   23.2310 C   0  0  0  0  0  3  0  0  0  0  0  0
  -20.7100  -26.8980   22.6650 C   0  0  0  0  0  2  0  0  0  0  0  0
  -19.6130  -26.5660   21.6500 C   0  0  0  0  0  2  0  0  0  0  0  0
  -18.2290  -26.7120   22.2910 C   0  0  0  0  0  2  0  0  0  0  0  0
  -19.1620  -28.8320   23.3850 C   0  0  0  0  0  0  0  0  0  0  0  0
  -18.9400  -30.0990   23.9680 C   0  0  0  0  0  3  0  0  0  0  0  0
  -17.6330  -30.5970   24.1310 C   0  0  0  0  0  3  0  0  0  0  0  0
  -16.5310  -29.8260   23.7220 C   0  0  0  0  0  3  0  0  0  0  0  0
  -16.7390  -28.5630   23.1390 C   0  0  0  0  0  3  0  0  0  0  0  0
  -25.8960  -32.5040   23.8560 C   0  0  0  0  0  3  0  0  0  0  0  0
  -25.5880  -33.9020   24.1850 N   0  0  0  0  0  0  0  0  0  0  0  0
  -25.9180  -34.9550   23.4230 C   0  0  0  0  0  0  0  0  0  0  0  0
  -26.5810  -34.8500   22.3880 O   0  0  0  0  0  0  0  0  0  0  0  0
  -25.0070  -34.0600   24.9930 H   0  0  0  0  0  0  0  0  0  0  0  0
  -24.1870  -36.7480   23.0790 C   0  0  0  0  0  1  0  0  0  0  0  0
  -25.4330  -36.3440   23.8830 C   0  0  0  0  0  3  0  0  0  0  0  0
  -27.5730  -37.2270   24.7000 C   0  0  0  0  0  1  0  0  0  0  0  0
  -26.4640  -37.3960   23.7650 N   0  0  0  0  0  0  0  0  0  0  0  0
  -26.0590  -38.3150   23.9180 H   0  0  0  0  0  0  0  0  0  0  0  0
  -26.4230  -31.7360   25.1300 C   0  0  1  0  0  0  0  0  0  0  0  0
  -25.3380  -31.5020   26.2070 C   0  0  0  0  0  1  0  0  0  0  0  0
  -27.0040  -30.3600   24.7300 C   0  0  0  0  0  1  0  0  0  0  0  0
  -27.5780  -32.5320   25.7830 C   0  0  0  0  0  1  0  0  0  0  0  0
  1  4  1  0
  1  3  1  0
  2  3  1  0
  3  5  1  0
  4 48  1  0
  4  2  1  0
  5  6  1  0
  6  8  1  0
  7  5  2  0
  9  6  1  0
  9 10  1  0
 10 11  1  0
 12 11  1  0
 13 18  1  0
 14 15  1  0
 14 13  1  0
 16 15  1  0
 16 23  1  0
 16 17  1  0
 18 12  1  0
 18 17  1  0
 19 12  2  0
 20 21  2  0
 21 40  1  0
 22 21  1  0
 22 25  1  0
 23 20  1  0
 23 24  1  0
 24 22  2  0
 25 26  1  0
 26 27  2  0
 28 31  1  0
 28 27  1  0
 29 28  2  0
 30 29  1  0
 30 25  2  0
 31 32  1  0
 32 33  1  0
 33 34  2  0
 35 34  1  0
 35 39  1  0
 36 35  2  0
 37 32  2  0
 37 36  1  0
 38 37  1  0
 40 41  1  0
 41 44  1  0
 41 43  1  0
 42 40  2  0
 45 46  1  0
 45 20  1  0
 47 45  1  0
 48 49  1  0
 50 61  2  0
 51 49  1  0
 51 56  1  0
 52 60  1  0
 52 62  1  0
 53 59  1  0
 53 55  1  0
 54 60  1  0
 55 54  1  0
 56 55  2  0
 57 58  1  0
 57 51  2  0
 58 53  2  0
 59 52  1  0
 60 50  1  0
 62 64  2  0
 63 62  1  0
 65 63  1  0
 66 75  2  0
 66 71  1  0
 67 63  1  0
 67 71  1  0
 68 67  1  0
 69 70  1  0
 69 68  1  0
 70 66  1  0
 71 72  2  0
 72 73  1  0
 74 73  2  0
 75 74  1  0
 76 50  1  0
 76 77  1  0
 76 86  1  0
 77 80  1  0
 78 82  1  0
 78 77  1  0
 79 78  2  0
 82 81  1  0
 84 82  1  0
 84 85  1  0
 84 83  1  0
 86 89  1  1
 86 87  1  0
 88 86  1  0
M  ISO  4  11 100  12 100  48 101  49 101
M  END
>  <TORSDO>  (76) 
F 21

>  <SCORE>  (76) 
-13.439

>  <name>  (76) 
75

>  <ligand_id>  (76) 
75

>  <original_smiles>  (76) 
[H]c1c([H])c([H])c2c(c1[H])C([H])([H])C([H])([H])C([H])([H])C2([H])N([H])C(=O)C1([H])N(C(=O)C([H])(N([H])C(=O)C([H])(N([H])C([H])([H])[H])C([H])([H])[H])C(C([H])([H])[H])(C([H])([H])[H])C([H])([H])[H])C([H])([H])c2c([H])c(OC([H])([H])C3([H])C([H])([H])C([H])(C(=O)N([H])C([H])([H])C([H])([H])C([H])([H])C(=O)N4C([H])([H])C([H])([H])C([H])([H])C([H])(n5nc(-c6c([H])c([H])c(Oc7c([H])c([H])c(F)c([H])c7F)c([H])c6[H])c(C(=O)N([H])[H])c5N([H])[H])C4([H])[H])C3([H])[H])c([H])c([H])c2C1([H])[H]

>  <smiles>  (76) 
[H]c1c([H])c([H])c2c(c1[H])C([H])([H])C([H])([H])C([H])([H])C2([H])N([H])C(=O)C1([H])N(C(=O)C([H])(N([H])C(=O)C([H])(N([H])C([H])([H])[H])C([H])([H])[H])C(C([H])([H])[H])(C([H])([H])[H])C([H])([H])[H])C([H])([H])c2c([H])c(OC([H])([H])C3([H])C([H])([H])C([H])(C(=O)N([H])C([H])([H])C([H])([H])C([H])([H])C(=O)N4C([H])([H])C([H])([H])C([H])([H])C([H])(n5nc(-c6c([H])c([H])c(Oc7c([H])c([H])c(F)c([H])c7F)c([H])c6[H])c(C(=O)N([H])[H])c5N([H])[H])C4([H])[H])C3([H])[H])c([H])c([H])c2C1([H])[H]

$$$$
76:0:0
     RDKit          3D

 91 99  0  0  1  0  0  0  0  0999 V2000
  -29.2600  -20.5120   20.2660 C   0  0  0  0  0  0  0  0  0  0  0  0
  -28.9690  -19.0180   20.8730 C   0  0  0  0  0  2  0  0  0  0  0  0
  -30.4310  -18.5550   19.0710 C   0  0  0  0  0  2  0  0  0  0  0  0
  -30.3120  -20.1480   19.2010 C   0  0  0  0  0  3  0  0  0  0  0  0
  -30.0350  -17.8450   20.4000 C   0  0  0  0  0  3  0  0  0  0  0  0
  -28.7300  -21.7400   20.5960 N   0  0  0  0  0  0  0  0  0  0  0  0
  -30.5120  -15.0640   20.2200 C   0  0  0  0  0  0  0  0  0  0  0  0
  -30.3930  -12.7050   19.2670 C   0  0  0  0  0  2  0  0  0  0  0  0
  -29.4400  -12.6350   18.0500 C   0  0  0  0  0  2  0  0  0  0  0  0
  -27.9850  -12.4160   18.5060 C   0  0  0  0  0  2  0  0  0  0  0  0
  -27.5890  -13.3360   19.6910 C   0  0  0  0  0  3  0  0  0  0  0  0
  -28.6650  -13.3650   20.7970 C   0  0  0  0  0  2  0  0  0  0  0  0
  -29.9160  -13.8000   20.1630 N   0  0  0  0  0  0  0  0  0  0  0  0
  -31.7160  -15.1190   19.9470 O   0  0  0  0  0  0  0  0  0  0  0  0
  -29.7350  -16.2630   20.3780 N   0  0  0  0  0  0  0  0  0  0  0  0
  -28.7620  -16.0460   20.5350 H   0  0  0  0  0  0  0  0  0  0  0  0
  -25.2190  -13.8920   20.4760 C   0  0  0  0  0  0  0  0  0  0  0  0
  -24.1650  -13.1090   20.8570 C   0  0  0  0  0  0  0  0  0  0  0  0
  -24.6380  -11.7610   20.8100 C   0  0  0  0  0  0  0  0  0  0  0  0
  -26.2640  -13.0230   20.2130 N   0  0  0  0  0  0  0  0  0  0  0  0
  -25.9240  -11.7350   20.4800 N   0  0  0  0  0  0  0  0  0  0  0  0
  -23.9190  -10.4940   21.0020 C   0  0  0  0  0  0  0  0  0  0  0  0
  -24.3520   -9.5320   21.9420 C   0  0  0  0  0  3  0  0  0  0  0  0
  -23.6300   -8.3310   22.1210 C   0  0  0  0  0  3  0  0  0  0  0  0
  -22.4640   -8.0830   21.3590 C   0  0  0  0  0  0  0  0  0  0  0  0
  -22.0510   -9.0330   20.4080 C   0  0  0  0  0  3  0  0  0  0  0  0
  -22.7730  -10.2250   20.2270 C   0  0  0  0  0  3  0  0  0  0  0  0
  -21.7160   -6.9340   21.4470 O   0  0  0  0  0  0  0  0  0  0  0  0
  -21.6420   -6.2100   22.6100 C   0  0  0  0  0  0  0  0  0  0  0  0
  -21.1530   -6.7740   23.8090 C   0  0  0  0  0  3  0  0  0  0  0  0
  -21.0290   -5.9760   24.9640 C   0  0  0  0  0  3  0  0  0  0  0  0
  -21.3830   -4.6150   24.9190 C   0  0  0  0  0  0  0  0  0  0  0  0
  -21.8650   -4.0490   23.7250 C   0  0  0  0  0  3  0  0  0  0  0  0
  -21.9910   -4.8450   22.5730 C   0  0  0  0  0  0  0  0  0  0  0  0
  -22.4350   -4.2910   21.4200 F   0  0  0  0  0  0  0  0  0  0  0  0
  -21.2570   -3.8440   26.0270 F   0  0  0  0  0  0  0  0  0  0  0  0
  -22.7700  -13.5770   21.1480 C   0  0  0  0  0  0  0  0  0  0  0  0
  -22.0530  -12.8700   22.0130 N   0  0  0  0  0  0  0  0  0  0  0  0
  -22.3250  -14.6090   20.6440 O   0  0  0  0  0  0  0  0  0  0  0  0
  -22.4260  -12.0360   22.4440 H   0  0  0  0  0  0  0  0  0  0  0  0
  -21.1170  -13.1680   22.2520 H   0  0  0  0  0  0  0  0  0  0  0  0
  -25.3690  -15.2650   20.3030 N   0  0  0  0  0  0  0  0  0  0  0  0
  -24.5900  -15.9040   20.4180 H   0  0  0  0  0  0  0  0  0  0  0  0
  -26.1900  -15.7120   19.9170 H   0  0  0  0  0  0  0  0  0  0  0  0
  -31.6000  -20.7730   19.5530 N   0  0  0  0  0  4  0  0  0  0  0  0
  -31.9240  -20.4540   20.4480 H   0  0  0  0  0  0  0  0  0  0  0  0
  -31.4930  -21.7690   19.6000 H   0  0  0  0  0  0  0  0  0  0  0  0
  -32.2980  -20.5680   18.8610 H   0  0  0  0  0  0  0  0  0  0  0  0
  -29.0020  -23.2290   20.0680 C   0  0  0  0  0  3  0  0  0  0  0  0
  -28.0300  -24.5880   20.4760 C   0  0  0  0  0  3  0  0  0  0  0  0
  -28.2700  -26.1390   20.2430 O   0  0  0  0  0  0  0  0  0  0  0  0
  -24.6130  -31.8850   23.2240 C   0  0  0  0  0  0  0  0  0  0  0  0
  -27.2090  -27.1340   20.2170 C   0  0  0  0  0  0  0  0  0  0  0  0
  -23.4240  -30.4790   21.5880 C   0  0  0  0  0  3  0  0  0  0  0  0
  -24.8790  -28.8980   20.1750 C   0  0  0  0  0  0  0  0  0  0  0  0
  -25.9790  -30.7420   21.4300 C   0  0  0  0  0  2  0  0  0  0  0  0
  -26.0600  -29.3450   20.7810 C   0  0  0  0  0  0  0  0  0  0  0  0
  -27.2260  -28.4820   20.7780 C   0  0  0  0  0  3  0  0  0  0  0  0
  -25.9990  -26.8010   19.5700 C   0  0  0  0  0  3  0  0  0  0  0  0
  -24.8640  -27.6420   19.5520 C   0  0  0  0  0  3  0  0  0  0  0  0
  -23.6510  -29.7970   20.2140 C   0  0  0  0  0  2  0  0  0  0  0  0
  -24.6920  -31.0590   22.1350 N   0  0  0  0  0  0  0  0  0  0  0  0
  -23.5250  -32.1680   23.7470 O   0  0  0  0  0  0  0  0  0  0  0  0
  -22.7440  -29.4740   22.5540 C   0  0  0  0  0  0  0  0  0  0  0  0
  -21.4160  -29.3010   22.4260 N   0  0  0  0  0  0  0  0  0  0  0  0
  -23.4150  -28.8530   23.3810 O   0  0  0  0  0  0  0  0  0  0  0  0
  -20.9300  -29.8540   21.7330 H   0  0  0  0  0  0  0  0  0  0  0  0
  -18.0340  -28.1040   22.9440 C   0  0  0  0  0  0  0  0  0  0  0  0
  -20.5950  -28.3650   23.1990 C   0  0  0  0  0  3  0  0  0  0  0  0
  -20.6910  -26.9330   22.6210 C   0  0  0  0  0  2  0  0  0  0  0  0
  -19.5840  -26.6140   21.6130 C   0  0  0  0  0  2  0  0  0  0  0  0
  -18.2050  -26.7580   22.2630 C   0  0  0  0  0  2  0  0  0  0  0  0
  -19.1550  -28.8670   23.3700 C   0  0  0  0  0  0  0  0  0  0  0  0
  -18.9370  -30.1260   23.9690 C   0  0  0  0  0  3  0  0  0  0  0  0
  -17.6340  -30.6250   24.1450 C   0  0  0  0  0  3  0  0  0  0  0  0
  -16.5270  -29.8600   23.7340 C   0  0  0  0  0  3  0  0  0  0  0  0
  -16.7280  -28.6020   23.1400 C   0  0  0  0  0  3  0  0  0  0  0  0
  -25.8870  -32.5290   23.8530 C   0  0  0  0  0  3  0  0  0  0  0  0
  -26.3900  -31.7730   25.1450 C   0  0  1  0  0  0  0  0  0  0  0  0
  -25.2860  -31.5470   26.2040 C   0  0  0  0  0  1  0  0  0  0  0  0
  -26.9800  -30.3920   24.7790 C   0  0  0  0  0  1  0  0  0  0  0  0
  -27.5330  -32.5760   25.8090 C   0  0  0  0  0  1  0  0  0  0  0  0
  -25.5700  -33.9290   24.1750 N   0  0  0  0  0  0  0  0  0  0  0  0
  -25.9040  -34.9840   23.4190 C   0  0  0  0  0  0  0  0  0  0  0  0
  -26.5780  -34.8780   22.3900 O   0  0  0  0  0  0  0  0  0  0  0  0
  -24.9710  -34.0840   24.9730 H   0  0  0  0  0  0  0  0  0  0  0  0
  -24.1820  -36.7810   23.0540 C   0  0  0  0  0  1  0  0  0  0  0  0
  -25.4160  -36.3740   23.8740 C   0  0  0  0  0  3  0  0  0  0  0  0
  -27.5420  -37.2570   24.7280 C   0  0  0  0  0  1  0  0  0  0  0  0
  -26.4520  -37.4250   23.7700 N   0  0  0  0  0  0  0  0  0  0  0  0
  -26.0460  -38.3460   23.9130 H   0  0  0  0  0  0  0  0  0  0  0  0
  1  6  2  0
  1  2  1  0
  3  4  1  0
  3  5  1  0
  4 45  1  0
  4  1  1  0
  5 15  1  0
  5  2  1  0
  7 15  1  0
  8 13  1  0
  9 10  1  0
  9  8  1  0
 11 10  1  0
 11 20  1  0
 11 12  1  0
 13  7  1  0
 13 12  1  0
 14  7  2  0
 15 16  1  0
 17 18  2  0
 18 37  1  0
 19 18  1  0
 19 22  1  0
 20 17  1  0
 20 21  1  0
 21 19  2  0
 22 23  1  0
 23 24  2  0
 25 28  1  0
 25 24  1  0
 26 25  2  0
 27 26  1  0
 27 22  2  0
 28 29  1  0
 29 30  1  0
 30 31  2  0
 32 31  1  0
 32 36  1  0
 33 32  2  0
 34 29  2  0
 34 33  1  0
 35 34  1  0
 37 38  1  0
 38 41  1  0
 38 40  1  0
 39 37  2  0
 42 43  1  0
 42 17  1  0
 44 42  1  0
 45 47  1  0
 45 46  1  0
 48 45  1  0
 49 50  2  0
 49  6  1  0
 51 50  1  0
 52 63  2  0
 53 51  1  0
 53 58  1  0
 54 62  1  0
 54 64  1  0
 55 61  1  0
 55 57  1  0
 56 62  1  0
 57 56  1  0
 58 57  2  0
 59 53  2  0
 60 59  1  0
 60 55  2  0
 61 54  1  0
 62 52  1  0
 64 66  2  0
 65 64  1  0
 67 65  1  0
 68 77  2  0
 68 73  1  0
 69 65  1  0
 69 73  1  0
 70 69  1  0
 71 72  1  0
 71 70  1  0
 72 68  1  0
 73 74  2  0
 74 75  1  0
 76 75  2  0
 77 76  1  0
 78 52  1  0
 78 83  1  0
 78 79  1  0
 79 82  1  1
 79 80  1  0
 81 79  1  0
 83 86  1  0
 84 88  1  0
 84 83  1  0
 85 84  2  0
 88 87  1  0
 90 88  1  0
 90 91  1  0
 90 89  1  0
M  ISO  4   7 100  15 100  50 101  51 101
M  END
>  <TORSDO>  (77) 
F 19

>  <SCORE>  (77) 
-15.022

>  <name>  (77) 
76

>  <ligand_id>  (77) 
76

>  <original_smiles>  (77) 
[H]c1c([H])c([H])c2c(c1[H])C([H])([H])C([H])([H])C([H])([H])C2([H])N([H])C(=O)C1([H])N(C(=O)C([H])(N([H])C(=O)C([H])(N([H])C([H])([H])[H])C([H])([H])[H])C(C([H])([H])[H])(C([H])([H])[H])C([H])([H])[H])C([H])([H])c2c([H])c(OC([H])([H])C([H])([H])N=C3C([H])([H])C([H])(N([H])C(=O)N4C([H])([H])C([H])([H])C([H])([H])C([H])(n5nc(-c6c([H])c([H])c(Oc7c([H])c([H])c(F)c([H])c7F)c([H])c6[H])c(C(=O)N([H])[H])c5N([H])[H])C4([H])[H])C([H])([H])C3([H])[N+]([H])([H])[H])c([H])c([H])c2C1([H])[H]

>  <smiles>  (77) 
[H]c1c([H])c([H])c2c(c1[H])C([H])([H])C([H])([H])C([H])([H])C2([H])N([H])C(=O)C1([H])N(C(=O)C([H])(N([H])C(=O)C([H])(N([H])C([H])([H])[H])C([H])([H])[H])C(C([H])([H])[H])(C([H])([H])[H])C([H])([H])[H])C([H])([H])c2c([H])c(OC([H])([H])C([H])([H])N=C3C([H])([H])C([H])(N([H])C(=O)N4C([H])([H])C([H])([H])C([H])([H])C([H])(n5nc(-c6c([H])c([H])c(Oc7c([H])c([H])c(F)c([H])c7F)c([H])c6[H])c(C(=O)N([H])[H])c5N([H])[H])C4([H])[H])C([H])([H])C3([H])[N+]([H])([H])[H])c([H])c([H])c2C1([H])[H]

$$$$
77:0:0
     RDKit          3D

 88 96  0  0  1  0  0  0  0  0999 V2000
  -30.7590  -22.0600   20.3260 C   0  0  0  0  0  1  0  0  0  0  0  0
  -29.2770  -21.8900   19.9540 C   0  0  0  0  0  3  0  0  0  0  0  0
  -27.5040  -20.0160   19.5610 C   0  0  0  0  0  1  0  0  0  0  0  0
  -28.8190  -20.2950   20.3020 C   0  0  0  0  0  3  0  0  0  0  0  0
  -30.6640  -14.9740   19.9910 C   0  0  0  0  0  0  0  0  0  0  0  0
  -30.4280  -12.6370   19.0410 C   0  0  0  0  0  2  0  0  0  0  0  0
  -29.4380  -12.6080   17.8550 C   0  0  0  0  0  2  0  0  0  0  0  0
  -28.0050  -12.3920   18.3700 C   0  0  0  0  0  2  0  0  0  0  0  0
  -27.6630  -13.3170   19.5670 C   0  0  0  0  0  3  0  0  0  0  0  0
  -28.7740  -13.3440   20.6380 C   0  0  0  0  0  2  0  0  0  0  0  0
  -30.0150  -13.7390   19.9630 N   0  0  0  0  0  0  0  0  0  0  0  0
  -31.8230  -14.9870   19.5580 O   0  0  0  0  0  0  0  0  0  0  0  0
  -30.3480  -18.4450   21.5750 C   0  0  0  0  0  2  0  0  0  0  0  0
  -30.8570  -16.9710   21.4590 C   0  0  0  0  0  2  0  0  0  0  0  0
  -29.3500  -17.3640   19.7540 C   0  0  0  0  0  2  0  0  0  0  0  0
  -29.7840  -18.8900   20.2210 C   0  0  0  0  0  3  0  0  0  0  0  0
  -30.0790  -16.1910   20.4690 N   0  0  0  0  0  0  0  0  0  0  0  0
  -25.3360  -13.8810   20.4640 C   0  0  0  0  0  0  0  0  0  0  0  0
  -24.2890  -13.1020   20.8710 C   0  0  0  0  0  0  0  0  0  0  0  0
  -24.7420  -11.7490   20.7740 C   0  0  0  0  0  0  0  0  0  0  0  0
  -26.3560  -13.0070   20.1370 N   0  0  0  0  0  0  0  0  0  0  0  0
  -26.0110  -11.7160   20.3880 N   0  0  0  0  0  0  0  0  0  0  0  0
  -24.0170  -10.4860   20.9690 C   0  0  0  0  0  0  0  0  0  0  0  0
  -24.4620   -9.5110   21.8900 C   0  0  0  0  0  3  0  0  0  0  0  0
  -23.7350   -8.3150   22.0740 C   0  0  0  0  0  3  0  0  0  0  0  0
  -22.5490   -8.0840   21.3370 C   0  0  0  0  0  0  0  0  0  0  0  0
  -22.1230   -9.0480   20.4050 C   0  0  0  0  0  3  0  0  0  0  0  0
  -22.8520  -10.2360   20.2190 C   0  0  0  0  0  3  0  0  0  0  0  0
  -21.7930   -6.9410   21.4310 O   0  0  0  0  0  0  0  0  0  0  0  0
  -21.7250   -6.2160   22.5930 C   0  0  0  0  0  0  0  0  0  0  0  0
  -21.2300   -6.7750   23.7930 C   0  0  0  0  0  3  0  0  0  0  0  0
  -21.1140   -5.9740   24.9460 C   0  0  0  0  0  3  0  0  0  0  0  0
  -21.4810   -4.6160   24.9010 C   0  0  0  0  0  0  0  0  0  0  0  0
  -21.9690   -4.0570   23.7080 C   0  0  0  0  0  3  0  0  0  0  0  0
  -22.0880   -4.8540   22.5560 C   0  0  0  0  0  0  0  0  0  0  0  0
  -22.5370   -4.3050   21.4010 F   0  0  0  0  0  0  0  0  0  0  0  0
  -21.3630   -3.8430   26.0070 F   0  0  0  0  0  0  0  0  0  0  0  0
  -22.9150  -13.5780   21.2390 C   0  0  0  0  0  0  0  0  0  0  0  0
  -22.2310  -12.8560   22.1190 N   0  0  0  0  0  0  0  0  0  0  0  0
  -22.4570  -14.6260   20.7820 O   0  0  0  0  0  0  0  0  0  0  0  0
  -22.6150  -12.0070   22.5080 H   0  0  0  0  0  0  0  0  0  0  0  0
  -21.3110  -13.1570   22.4100 H   0  0  0  0  0  0  0  0  0  0  0  0
  -25.4990  -15.2560   20.3190 N   0  0  0  0  0  0  0  0  0  0  0  0
  -24.7490  -15.9130   20.5000 H   0  0  0  0  0  0  0  0  0  0  0  0
  -26.3420  -15.7000   19.9770 H   0  0  0  0  0  0  0  0  0  0  0  0
  -28.4720  -23.2870   20.4860 C   0  0  0  0  0  2  0  0  0  0  0  0
  -28.4650  -24.8010   19.7290 C   0  0  0  0  0  2  0  0  0  0  0  0
  -28.3400  -26.2340   20.3300 O   0  0  0  0  0  0  0  0  0  0  0  0
  -24.6160  -31.8540   23.2170 C   0  0  0  0  0  0  0  0  0  0  0  0
  -27.2570  -27.1760   20.1960 C   0  0  0  0  0  0  0  0  0  0  0  0
  -23.4440  -30.4630   21.5510 C   0  0  0  0  0  3  0  0  0  0  0  0
  -24.9180  -28.9040   20.1310 C   0  0  0  0  0  0  0  0  0  0  0  0
  -25.9970  -30.7440   21.4220 C   0  0  0  0  0  2  0  0  0  0  0  0
  -26.0830  -29.3570   20.7620 C   0  0  0  0  0  0  0  0  0  0  0  0
  -27.2490  -28.5070   20.7790 C   0  0  0  0  0  3  0  0  0  0  0  0
  -26.0670  -26.8170   19.5290 C   0  0  0  0  0  3  0  0  0  0  0  0
  -24.9240  -27.6500   19.4980 C   0  0  0  0  0  3  0  0  0  0  0  0
  -23.6850  -29.7950   20.1700 C   0  0  0  0  0  2  0  0  0  0  0  0
  -24.7050  -31.0440   22.1180 N   0  0  0  0  0  0  0  0  0  0  0  0
  -23.5210  -32.1300   23.7320 O   0  0  0  0  0  0  0  0  0  0  0  0
  -22.7590  -29.4480   22.5000 C   0  0  0  0  0  0  0  0  0  0  0  0
  -21.4310  -29.2840   22.3660 N   0  0  0  0  0  0  0  0  0  0  0  0
  -23.4250  -28.8080   23.3190 O   0  0  0  0  0  0  0  0  0  0  0  0
  -20.9530  -29.8510   21.6790 H   0  0  0  0  0  0  0  0  0  0  0  0
  -18.0350  -28.1130   22.8530 C   0  0  0  0  0  0  0  0  0  0  0  0
  -20.5980  -28.3420   23.1200 C   0  0  0  0  0  3  0  0  0  0  0  0
  -20.6820  -26.9200   22.5200 C   0  0  0  0  0  2  0  0  0  0  0  0
  -19.5750  -26.6280   21.5030 C   0  0  0  0  0  2  0  0  0  0  0  0
  -18.1960  -26.7770   22.1490 C   0  0  0  0  0  2  0  0  0  0  0  0
  -19.1640  -28.8560   23.2940 C   0  0  0  0  0  0  0  0  0  0  0  0
  -18.9590  -30.1090   23.9110 C   0  0  0  0  0  3  0  0  0  0  0  0
  -17.6580  -30.6180   24.0930 C   0  0  0  0  0  3  0  0  0  0  0  0
  -16.5460  -29.8750   23.6660 C   0  0  0  0  0  3  0  0  0  0  0  0
  -16.7350  -28.6230   23.0520 C   0  0  0  0  0  3  0  0  0  0  0  0
  -25.8820  -32.4910   23.8690 C   0  0  0  0  0  3  0  0  0  0  0  0
  -26.3670  -31.7230   25.1600 C   0  0  1  0  0  0  0  0  0  0  0  0
  -25.2460  -31.4890   26.2020 C   0  0  0  0  0  1  0  0  0  0  0  0
  -26.9620  -30.3450   24.7920 C   0  0  0  0  0  1  0  0  0  0  0  0
  -27.5030  -32.5210   25.8430 C   0  0  0  0  0  1  0  0  0  0  0  0
  -25.5660  -33.8900   24.1920 N   0  0  0  0  0  0  0  0  0  0  0  0
  -25.9040  -34.9450   23.4380 C   0  0  0  0  0  0  0  0  0  0  0  0
  -26.5860  -34.8420   22.4150 O   0  0  0  0  0  0  0  0  0  0  0  0
  -24.9620  -34.0460   24.9860 H   0  0  0  0  0  0  0  0  0  0  0  0
  -24.1840  -36.7420   23.0660 C   0  0  0  0  0  1  0  0  0  0  0  0
  -25.4140  -36.3340   23.8920 C   0  0  0  0  0  3  0  0  0  0  0  0
  -27.5350  -37.2200   24.7560 C   0  0  0  0  0  1  0  0  0  0  0  0
  -26.4490  -37.3860   23.7940 N   0  0  0  0  0  0  0  0  0  0  0  0
  -26.0410  -38.3070   23.9300 H   0  0  0  0  0  0  0  0  0  0  0  0
  2  4  1  0
  2  1  1  0
  2 46  1  0
  4  3  1  0
  5 17  1  0
  6 11  1  0
  7  8  1  0
  7  6  1  0
  9  8  1  0
  9 21  1  0
  9 10  1  0
 11  5  1  0
 11 10  1  0
 12  5  2  0
 14 13  1  0
 15 16  1  0
 15 17  1  0
 16  4  1  0
 16 13  1  0
 17 14  1  0
 18 19  2  0
 19 38  1  0
 20 19  1  0
 20 23  1  0
 21 22  1  0
 21 18  1  0
 22 20  2  0
 23 24  1  0
 24 25  2  0
 26 29  1  0
 26 25  1  0
 27 26  2  0
 28 27  1  0
 28 23  2  0
 29 30  1  0
 30 31  1  0
 31 32  2  0
 33 32  1  0
 33 37  1  0
 34 33  2  0
 35 30  2  0
 35 34  1  0
 36 35  1  0
 38 39  1  0
 39 42  1  0
 39 41  1  0
 40 38  2  0
 43 18  1  0
 43 44  1  0
 45 43  1  0
 47 48  1  0
 47 46  1  0
 49 60  2  0
 50 48  1  0
 50 55  1  0
 51 59  1  0
 51 61  1  0
 52 58  1  0
 52 54  1  0
 53 59  1  0
 54 55  2  0
 54 53  1  0
 56 50  2  0
 57 56  1  0
 57 52  2  0
 58 51  1  0
 59 49  1  0
 61 63  2  0
 62 61  1  0
 64 62  1  0
 65 74  2  0
 65 70  1  0
 66 62  1  0
 66 70  1  0
 67 66  1  0
 68 69  1  0
 68 67  1  0
 69 65  1  0
 70 71  2  0
 71 72  1  0
 73 72  2  0
 74 73  1  0
 75 49  1  0
 75 80  1  0
 75 76  1  0
 76 79  1  1
 76 77  1  0
 78 76  1  0
 80 83  1  0
 81 85  1  0
 81 80  1  0
 82 81  2  0
 85 84  1  0
 87 85  1  0
 87 88  1  0
 87 86  1  0
M  ISO  4   5 100  17 100  47 101  48 101
M  END
>  <TORSDO>  (78) 
F 19

>  <SCORE>  (78) 
-15.571

>  <name>  (78) 
77

>  <ligand_id>  (78) 
77

>  <original_smiles>  (78) 
[H]c1c([H])c([H])c2c(c1[H])C([H])([H])C([H])([H])C([H])([H])C2([H])N([H])C(=O)C1([H])N(C(=O)C([H])(N([H])C(=O)C([H])(N([H])C([H])([H])[H])C([H])([H])[H])C(C([H])([H])[H])(C([H])([H])[H])C([H])([H])[H])C([H])([H])c2c([H])c(OC([H])([H])C([H])([H])C([H])(C([H])([H])[H])C([H])(C([H])([H])[H])C3([H])C([H])([H])N(C(=O)N4C([H])([H])C([H])([H])C([H])([H])C([H])(n5nc(-c6c([H])c([H])c(Oc7c([H])c([H])c(F)c([H])c7F)c([H])c6[H])c(C(=O)N([H])[H])c5N([H])[H])C4([H])[H])C([H])([H])C3([H])[H])c([H])c([H])c2C1([H])[H]

>  <smiles>  (78) 
[H]c1c([H])c([H])c2c(c1[H])C([H])([H])C([H])([H])C([H])([H])C2([H])N([H])C(=O)C1([H])N(C(=O)C([H])(N([H])C(=O)C([H])(N([H])C([H])([H])[H])C([H])([H])[H])C(C([H])([H])[H])(C([H])([H])[H])C([H])([H])[H])C([H])([H])c2c([H])c(OC([H])([H])C([H])([H])C([H])(C([H])([H])[H])C([H])(C([H])([H])[H])C3([H])C([H])([H])N(C(=O)N4C([H])([H])C([H])([H])C([H])([H])C([H])(n5nc(-c6c([H])c([H])c(Oc7c([H])c([H])c(F)c([H])c7F)c([H])c6[H])c(C(=O)N([H])[H])c5N([H])[H])C4([H])[H])C([H])([H])C3([H])[H])c([H])c([H])c2C1([H])[H]

$$$$
78:0:0
     RDKit          3D

 92100  0  0  1  0  0  0  0  0999 V2000
  -29.3390  -19.7770   18.5400 C   0  0  0  0  0  2  0  0  0  0  0  0
  -29.1550  -21.3240   18.6940 C   0  0  0  0  0  3  0  0  0  0  0  0
  -29.6400  -19.1520   19.9340 C   0  0  0  0  0  3  0  0  0  0  0  0
  -28.5470  -21.5560   20.0930 C   0  0  0  0  0  3  0  0  0  0  0  0
  -28.3240  -21.9300   17.5470 C   0  0  0  0  0  1  0  0  0  0  0  0
  -29.0590  -20.2820   20.8430 N   0  0  0  0  0  4  0  0  0  0  0  0
  -29.7930  -20.5420   21.4840 H   0  0  0  0  0  0  0  0  0  0  0  0
  -28.3090  -19.9050   21.3980 H   0  0  0  0  0  0  0  0  0  0  0  0
  -28.6820  -23.1310   20.7030 C   0  0  0  0  0  3  0  0  0  0  0  0
  -27.8940  -24.4980   20.1110 C   0  0  0  0  0  3  0  0  0  0  0  0
  -28.1260  -25.9960   20.4600 O   0  0  0  0  0  0  0  0  0  0  0  0
  -24.5660  -31.7950   23.2240 C   0  0  0  0  0  0  0  0  0  0  0  0
  -27.0980  -26.9950   20.3190 C   0  0  0  0  0  0  0  0  0  0  0  0
  -23.3620  -30.3920   21.5950 C   0  0  0  0  0  3  0  0  0  0  0  0
  -24.8010  -28.7700   20.2150 C   0  0  0  0  0  0  0  0  0  0  0  0
  -25.9190  -30.6170   21.4540 C   0  0  0  0  0  2  0  0  0  0  0  0
  -25.9780  -29.2110   20.8320 C   0  0  0  0  0  0  0  0  0  0  0  0
  -27.1270  -28.3380   20.8730 C   0  0  0  0  0  3  0  0  0  0  0  0
  -25.9060  -26.6630   19.6360 C   0  0  0  0  0  3  0  0  0  0  0  0
  -24.7770  -27.5080   19.6020 C   0  0  0  0  0  3  0  0  0  0  0  0
  -23.5880  -29.6860   20.2310 C   0  0  0  0  0  2  0  0  0  0  0  0
  -24.6360  -30.9550   22.1470 N   0  0  0  0  0  0  0  0  0  0  0  0
  -23.4780  -32.1090   23.7310 O   0  0  0  0  0  0  0  0  0  0  0  0
  -22.6520  -29.4130   22.5650 C   0  0  0  0  0  0  0  0  0  0  0  0
  -21.3190  -29.2790   22.4350 N   0  0  0  0  0  0  0  0  0  0  0  0
  -23.3030  -28.7780   23.3990 O   0  0  0  0  0  0  0  0  0  0  0  0
  -20.8510  -29.8470   21.7420 H   0  0  0  0  0  0  0  0  0  0  0  0
  -17.8990  -28.2030   22.9580 C   0  0  0  0  0  0  0  0  0  0  0  0
  -20.4670  -28.3750   23.2120 C   0  0  0  0  0  3  0  0  0  0  0  0
  -20.5140  -26.9370   22.6450 C   0  0  0  0  0  2  0  0  0  0  0  0
  -19.3970  -26.6480   21.6360 C   0  0  0  0  0  2  0  0  0  0  0  0
  -18.0240  -26.8460   22.2860 C   0  0  0  0  0  2  0  0  0  0  0  0
  -19.0460  -28.9270   23.3780 C   0  0  0  0  0  0  0  0  0  0  0  0
  -18.8750  -30.1970   23.9680 C   0  0  0  0  0  3  0  0  0  0  0  0
  -17.5880  -30.7450   24.1390 C   0  0  0  0  0  3  0  0  0  0  0  0
  -16.4550  -30.0180   23.7340 C   0  0  0  0  0  3  0  0  0  0  0  0
  -16.6130  -28.7490   23.1490 C   0  0  0  0  0  3  0  0  0  0  0  0
  -25.8470  -32.4170   23.8570 C   0  0  0  0  0  3  0  0  0  0  0  0
  -25.5460  -33.8200   24.1930 N   0  0  0  0  0  0  0  0  0  0  0  0
  -25.8800  -34.8720   23.4350 C   0  0  0  0  0  0  0  0  0  0  0  0
  -26.5390  -34.7650   22.3970 O   0  0  0  0  0  0  0  0  0  0  0  0
  -24.9570  -33.9780   24.9970 H   0  0  0  0  0  0  0  0  0  0  0  0
  -24.1480  -36.6690   23.1240 C   0  0  0  0  0  1  0  0  0  0  0  0
  -25.4090  -36.2640   23.9030 C   0  0  0  0  0  3  0  0  0  0  0  0
  -27.5670  -37.1400   24.6790 C   0  0  0  0  0  1  0  0  0  0  0  0
  -26.4410  -37.3150   23.7640 N   0  0  0  0  0  0  0  0  0  0  0  0
  -26.0420  -38.2350   23.9270 H   0  0  0  0  0  0  0  0  0  0  0  0
  -26.3440  -31.6410   25.1390 C   0  0  1  0  0  0  0  0  0  0  0  0
  -25.2400  -31.4110   26.1960 C   0  0  0  0  0  1  0  0  0  0  0  0
  -26.9190  -30.2580   24.7530 C   0  0  0  0  0  1  0  0  0  0  0  0
  -27.4980  -32.4240   25.8120 C   0  0  0  0  0  1  0  0  0  0  0  0
  -29.2350  -17.4970   20.0420 C   0  0  0  0  0  3  0  0  0  0  0  0
  -30.0000  -16.2720   20.9190 C   0  0  0  0  0  2  0  0  0  0  0  0
  -30.5980  -14.7920   20.4570 C   0  0  0  0  0  0  0  0  0  0  0  0
  -30.5170  -12.3550   19.7730 C   0  0  0  0  0  2  0  0  0  0  0  0
  -29.6460  -12.2060   18.5060 C   0  0  0  0  0  2  0  0  0  0  0  0
  -28.1710  -12.0080   18.8850 C   0  0  0  0  0  2  0  0  0  0  0  0
  -27.7030  -13.0150   19.9640 C   0  0  0  0  0  3  0  0  0  0  0  0
  -28.7120  -13.1730   21.1240 C   0  0  0  0  0  2  0  0  0  0  0  0
  -30.0120  -13.5290   20.5460 N   0  0  0  0  0  0  0  0  0  0  0  0
  -31.7550  -14.8090   20.0270 O   0  0  0  0  0  0  0  0  0  0  0  0
  -25.3110  -13.5870   20.6470 C   0  0  0  0  0  0  0  0  0  0  0  0
  -24.2380  -12.8310   21.0270 C   0  0  0  0  0  0  0  0  0  0  0  0
  -24.6950  -11.4810   21.0030 C   0  0  0  0  0  0  0  0  0  0  0  0
  -26.3570  -12.7130   20.4420 N   0  0  0  0  0  0  0  0  0  0  0  0
  -25.9920  -11.4320   20.7120 N   0  0  0  0  0  0  0  0  0  0  0  0
  -23.9460  -10.2300   21.1790 C   0  0  0  0  0  0  0  0  0  0  0  0
  -24.3750   -9.2340   22.0810 C   0  0  0  0  0  3  0  0  0  0  0  0
  -23.6260   -8.0490   22.2470 C   0  0  0  0  0  3  0  0  0  0  0  0
  -22.4330   -7.8550   21.5100 C   0  0  0  0  0  0  0  0  0  0  0  0
  -22.0240   -8.8400   20.5930 C   0  0  0  0  0  3  0  0  0  0  0  0
  -22.7750  -10.0150   20.4260 C   0  0  0  0  0  3  0  0  0  0  0  0
  -21.6560   -6.7250   21.5900 O   0  0  0  0  0  0  0  0  0  0  0  0
  -21.6470   -5.9350   22.7090 C   0  0  0  0  0  0  0  0  0  0  0  0
  -21.2680   -6.4430   23.9720 C   0  0  0  0  0  3  0  0  0  0  0  0
  -21.2040   -5.5820   25.0850 C   0  0  0  0  0  3  0  0  0  0  0  0
  -21.5070   -4.2150   24.9370 C   0  0  0  0  0  0  0  0  0  0  0  0
  -21.8830   -3.7080   23.6810 C   0  0  0  0  0  3  0  0  0  0  0  0
  -21.9490   -4.5660   22.5690 C   0  0  0  0  0  0  0  0  0  0  0  0
  -22.2880   -4.0660   21.3550 F   0  0  0  0  0  0  0  0  0  0  0  0
  -21.4360   -3.3880   26.0050 F   0  0  0  0  0  0  0  0  0  0  0  0
  -22.8460  -13.3330   21.2830 C   0  0  0  0  0  0  0  0  0  0  0  0
  -22.1020  -12.6470   22.1440 N   0  0  0  0  0  0  0  0  0  0  0  0
  -22.4270  -14.3650   20.7610 O   0  0  0  0  0  0  0  0  0  0  0  0
  -22.4540  -11.8110   22.5840 H   0  0  0  0  0  0  0  0  0  0  0  0
  -21.1670  -12.9600   22.3580 H   0  0  0  0  0  0  0  0  0  0  0  0
  -25.4630  -14.9390   20.4200 N   0  0  0  0  0  0  0  0  0  0  0  0
  -24.6660  -15.5620   20.4710 H   0  0  0  0  0  0  0  0  0  0  0  0
  -26.2950  -15.3840   20.0600 H   0  0  0  0  0  0  0  0  0  0  0  0
  -27.7290  -17.3640   20.3950 C   0  0  0  0  0  2  0  0  0  0  0  0
  -25.2610  -17.7520   19.8270 C   0  0  0  0  0  1  0  0  0  0  0  0
  -26.7170  -17.9010   19.3620 C   0  0  0  0  0  2  0  0  0  0  0  0
  1  2  1  0
  1  3  1  0
  2  5  1  0
  2  4  1  0
  3 52  1  0
  3  6  1  0
  4  9  1  0
  4  6  1  0
  6  8  1  0
  6  7  1  0
 10 11  1  0
 10  9  2  0
 12 23  2  0
 13 11  1  0
 13 18  1  0
 14 22  1  0
 14 24  1  0
 15 21  1  0
 15 17  1  0
 16 22  1  0
 17 18  2  0
 17 16  1  0
 19 13  2  0
 20 19  1  0
 20 15  2  0
 21 14  1  0
 22 12  1  0
 24 26  2  0
 25 24  1  0
 27 25  1  0
 28 37  2  0
 28 33  1  0
 29 25  1  0
 29 33  1  0
 30 29  1  0
 31 32  1  0
 31 30  1  0
 32 28  1  0
 33 34  2  0
 34 35  1  0
 36 35  2  0
 37 36  1  0
 38 12  1  0
 38 39  1  0
 38 48  1  0
 39 42  1  0
 40 44  1  0
 40 39  1  0
 41 40  2  0
 44 43  1  0
 46 44  1  0
 46 47  1  0
 46 45  1  0
 48 51  1  1
 48 49  1  0
 50 48  1  0
 52 90  1  0
 52 53  1  0
 54 60  1  0
 54 53  1  0
 55 60  1  0
 56 57  1  0
 56 55  1  0
 58 57  1  0
 58 65  1  0
 58 59  1  0
 60 59  1  0
 61 54  2  0
 62 63  2  0
 63 82  1  0
 64 63  1  0
 64 67  1  0
 65 62  1  0
 65 66  1  0
 66 64  2  0
 67 68  1  0
 68 69  2  0
 70 73  1  0
 70 69  1  0
 71 70  2  0
 72 71  1  0
 72 67  2  0
 73 74  1  0
 74 75  1  0
 75 76  2  0
 77 76  1  0
 77 81  1  0
 78 77  2  0
 79 74  2  0
 79 78  1  0
 80 79  1  0
 82 83  1  0
 83 86  1  0
 83 85  1  0
 84 82  2  0
 87 88  1  0
 87 62  1  0
 89 87  1  0
 92 91  1  0
 92 90  1  0
M  ISO  4  10 101  11 101  53 100  54 100
M  END
>  <TORSDO>  (79) 
F 22

>  <SCORE>  (79) 
-13.380

>  <name>  (79) 
78

>  <ligand_id>  (79) 
78

>  <original_smiles>  (79) 
[H]c1c([H])c([H])c2c(c1[H])C([H])([H])C([H])([H])C([H])([H])C2([H])N([H])C(=O)C1([H])N(C(=O)C([H])(N([H])C(=O)C([H])(N([H])C([H])([H])[H])C([H])([H])[H])C(C([H])([H])[H])(C([H])([H])[H])C([H])([H])[H])C([H])([H])c2c([H])c(OC([H])([H])C([H])([H])C3([H])C([H])(C([H])([H])[H])C([H])([H])C([H])(C([H])(C([H])([H])C(=O)N4C([H])([H])C([H])([H])C([H])([H])C([H])(n5nc(-c6c([H])c([H])c(Oc7c([H])c([H])c(F)c([H])c7F)c([H])c6[H])c(C(=O)N([H])[H])c5N([H])[H])C4([H])[H])C([H])([H])C([H])([H])C([H])([H])[H])[N+]3([H])[H])c([H])c([H])c2C1([H])[H]

>  <smiles>  (79) 
[H]c1c([H])c([H])c2c(c1[H])C([H])([H])C([H])([H])C([H])([H])C2([H])N([H])C(=O)C1([H])N(C(=O)C([H])(N([H])C(=O)C([H])(N([H])C([H])([H])[H])C([H])([H])[H])C(C([H])([H])[H])(C([H])([H])[H])C([H])([H])[H])C([H])([H])c2c([H])c(OC([H])([H])C([H])([H])C3([H])C([H])(C([H])([H])[H])C([H])([H])C([H])(C([H])(C([H])([H])C(=O)N4C([H])([H])C([H])([H])C([H])([H])C([H])(n5nc(-c6c([H])c([H])c(Oc7c([H])c([H])c(F)c([H])c7F)c([H])c6[H])c(C(=O)N([H])[H])c5N([H])[H])C4([H])[H])C([H])([H])C([H])([H])C([H])([H])[H])[N+]3([H])[H])c([H])c([H])c2C1([H])[H]

$$$$
79:0:0
     RDKit          3D

 90 98  0  0  1  0  0  0  0  0999 V2000
  -28.2870  -21.0690   19.7980 C   0  0  0  0  0  2  0  0  0  0  0  0
  -29.5710  -20.1720   19.7960 C   0  0  0  0  0  3  0  0  0  0  0  0
  -29.2170  -22.3190   19.7470 C   0  0  0  0  0  3  0  0  0  0  0  0
  -30.1550  -21.3770   20.4490 N   0  0  0  0  0  4  0  0  0  0  0  0
  -31.1300  -21.5010   20.2310 H   0  0  0  0  0  0  0  0  0  0  0  0
  -30.0010  -21.3250   21.4440 H   0  0  0  0  0  0  0  0  0  0  0  0
  -29.6680  -18.8560   20.6800 C   0  0  0  0  0  0  0  0  0  0  0  0
  -29.3550  -18.8470   21.8730 O   0  0  0  0  0  0  0  0  0  0  0  0
  -30.1850  -17.4740   20.0440 C   0  0  0  0  0  2  0  0  0  0  0  0
  -30.7290  -16.1390   22.2670 C   0  0  0  0  0  1  0  0  0  0  0  0
  -30.1420  -16.0450   20.8330 C   0  0  0  0  0  3  0  0  0  0  0  0
  -30.8060  -14.7660   20.1130 C   0  0  0  0  0  0  0  0  0  0  0  0
  -30.5390  -12.5600   18.9460 C   0  0  0  0  0  2  0  0  0  0  0  0
  -29.5430  -12.7190   17.7740 C   0  0  0  0  0  2  0  0  0  0  0  0
  -28.0860  -12.5680   18.2560 C   0  0  0  0  0  2  0  0  0  0  0  0
  -27.7940  -13.3810   19.5480 C   0  0  0  0  0  3  0  0  0  0  0  0
  -28.9000  -13.1630   20.6060 C   0  0  0  0  0  2  0  0  0  0  0  0
  -30.1740  -13.5470   19.9890 N   0  0  0  0  0  0  0  0  0  0  0  0
  -31.9200  -14.9150   19.5990 O   0  0  0  0  0  0  0  0  0  0  0  0
  -25.4360  -13.9840   20.3660 C   0  0  0  0  0  0  0  0  0  0  0  0
  -24.3780  -13.2150   20.7710 C   0  0  0  0  0  0  0  0  0  0  0  0
  -24.8270  -11.8600   20.7080 C   0  0  0  0  0  0  0  0  0  0  0  0
  -26.4630  -13.0990   20.0810 N   0  0  0  0  0  0  0  0  0  0  0  0
  -26.1050  -11.8150   20.3440 N   0  0  0  0  0  0  0  0  0  0  0  0
  -24.0950  -10.6020   20.9140 C   0  0  0  0  0  0  0  0  0  0  0  0
  -24.5350   -9.6370   21.8450 C   0  0  0  0  0  3  0  0  0  0  0  0
  -23.8050   -8.4440   22.0400 C   0  0  0  0  0  3  0  0  0  0  0  0
  -22.6220   -8.2080   21.3030 C   0  0  0  0  0  0  0  0  0  0  0  0
  -22.1980   -9.1640   20.3630 C   0  0  0  0  0  3  0  0  0  0  0  0
  -22.9280  -10.3470   20.1650 C   0  0  0  0  0  3  0  0  0  0  0  0
  -21.8640   -7.0650   21.4070 O   0  0  0  0  0  0  0  0  0  0  0  0
  -21.7920   -6.3510   22.5760 C   0  0  0  0  0  0  0  0  0  0  0  0
  -21.3620   -6.9410   23.7860 C   0  0  0  0  0  3  0  0  0  0  0  0
  -21.2400   -6.1560   24.9500 C   0  0  0  0  0  3  0  0  0  0  0  0
  -21.5340   -4.7800   24.9070 C   0  0  0  0  0  0  0  0  0  0  0  0
  -21.9570   -4.1890   23.7040 C   0  0  0  0  0  3  0  0  0  0  0  0
  -22.0840   -4.9710   22.5420 C   0  0  0  0  0  0  0  0  0  0  0  0
  -22.4720   -4.3920   21.3800 F   0  0  0  0  0  0  0  0  0  0  0  0
  -21.4110   -4.0240   26.0220 F   0  0  0  0  0  0  0  0  0  0  0  0
  -22.9970  -13.7030   21.1040 C   0  0  0  0  0  0  0  0  0  0  0  0
  -22.3000  -13.0130   22.0000 N   0  0  0  0  0  0  0  0  0  0  0  0
  -22.5450  -14.7310   20.6020 O   0  0  0  0  0  0  0  0  0  0  0  0
  -22.6800  -12.1840   22.4320 H   0  0  0  0  0  0  0  0  0  0  0  0
  -21.3720  -13.3190   22.2550 H   0  0  0  0  0  0  0  0  0  0  0  0
  -25.6000  -15.3550   20.1950 N   0  0  0  0  0  0  0  0  0  0  0  0
  -24.8300  -15.9970   20.3450 H   0  0  0  0  0  0  0  0  0  0  0  0
  -26.4250  -15.8000   19.8110 H   0  0  0  0  0  0  0  0  0  0  0  0
  -28.9770  -23.7700   20.4390 C   0  0  0  0  0  3  0  0  0  0  0  0
  -28.2550  -24.9720   19.6330 C   0  0  0  0  0  3  0  0  0  0  0  0
  -28.2980  -26.4010   20.1220 O   0  0  0  0  0  0  0  0  0  0  0  0
  -24.6680  -31.8730   23.2200 C   0  0  0  0  0  0  0  0  0  0  0  0
  -27.1870  -27.2830   20.0700 C   0  0  0  0  0  0  0  0  0  0  0  0
  -23.4280  -30.5010   21.5860 C   0  0  0  0  0  3  0  0  0  0  0  0
  -24.8430  -28.9570   20.1170 C   0  0  0  0  0  0  0  0  0  0  0  0
  -25.9760  -30.7850   21.3750 C   0  0  0  0  0  2  0  0  0  0  0  0
  -26.0280  -29.4120   20.7050 C   0  0  0  0  0  0  0  0  0  0  0  0
  -27.1990  -28.5870   20.6730 C   0  0  0  0  0  3  0  0  0  0  0  0
  -25.9760  -26.9040   19.4420 C   0  0  0  0  0  3  0  0  0  0  0  0
  -24.8220  -27.7100   19.4770 C   0  0  0  0  0  3  0  0  0  0  0  0
  -23.6140  -29.8440   20.1950 C   0  0  0  0  0  2  0  0  0  0  0  0
  -24.7100  -31.0710   22.1140 N   0  0  0  0  0  0  0  0  0  0  0  0
  -23.5950  -32.1540   23.7740 O   0  0  0  0  0  0  0  0  0  0  0  0
  -22.7760  -29.4760   22.5450 C   0  0  0  0  0  0  0  0  0  0  0  0
  -21.4490  -29.2960   22.4300 N   0  0  0  0  0  0  0  0  0  0  0  0
  -23.4640  -28.8470   23.3530 O   0  0  0  0  0  0  0  0  0  0  0  0
  -20.9530  -29.8530   21.7480 H   0  0  0  0  0  0  0  0  0  0  0  0
  -18.0850  -28.0700   22.9440 C   0  0  0  0  0  0  0  0  0  0  0  0
  -20.6400  -28.3550   23.2070 C   0  0  0  0  0  3  0  0  0  0  0  0
  -20.7570  -26.9220   22.6370 C   0  0  0  0  0  2  0  0  0  0  0  0
  -19.6540  -26.5840   21.6270 C   0  0  0  0  0  2  0  0  0  0  0  0
  -18.2720  -26.7200   22.2730 C   0  0  0  0  0  2  0  0  0  0  0  0
  -19.1970  -28.8440   23.3690 C   0  0  0  0  0  0  0  0  0  0  0  0
  -18.9660  -30.1060   23.9570 C   0  0  0  0  0  3  0  0  0  0  0  0
  -17.6560  -30.5950   24.1230 C   0  0  0  0  0  3  0  0  0  0  0  0
  -16.5600  -29.8180   23.7120 C   0  0  0  0  0  3  0  0  0  0  0  0
  -16.7740  -28.5570   23.1280 C   0  0  0  0  0  3  0  0  0  0  0  0
  -25.9650  -32.4940   23.8250 C   0  0  0  0  0  3  0  0  0  0  0  0
  -25.6640  -33.8870   24.1880 N   0  0  0  0  0  0  0  0  0  0  0  0
  -25.9790  -34.9530   23.4430 C   0  0  0  0  0  0  0  0  0  0  0  0
  -26.6230  -34.8680   22.3930 O   0  0  0  0  0  0  0  0  0  0  0  0
  -25.0960  -34.0260   25.0110 H   0  0  0  0  0  0  0  0  0  0  0  0
  -24.2430  -36.7510   23.1620 C   0  0  0  0  0  1  0  0  0  0  0  0
  -25.5040  -36.3330   23.9370 C   0  0  0  0  0  3  0  0  0  0  0  0
  -27.6580  -37.2000   24.7340 C   0  0  0  0  0  1  0  0  0  0  0  0
  -26.5340  -37.3880   23.8190 N   0  0  0  0  0  0  0  0  0  0  0  0
  -26.1340  -38.3060   23.9930 H   0  0  0  0  0  0  0  0  0  0  0  0
  -26.5050  -31.7010   25.0780 C   0  0  1  0  0  0  0  0  0  0  0  0
  -25.4310  -31.4500   26.1630 C   0  0  0  0  0  1  0  0  0  0  0  0
  -27.0780  -30.3270   24.6590 C   0  0  0  0  0  1  0  0  0  0  0  0
  -27.6730  -32.4830   25.7270 C   0  0  0  0  0  1  0  0  0  0  0  0
  2  1  1  0
  2  4  1  0
  2  7  1  0
  3  1  1  0
  3 48  1  0
  3  4  1  0
  4  6  1  0
  5  4  1  0
  7  8  2  0
  9  7  1  0
  9 11  1  0
 11 10  1  0
 12 11  1  0
 13 18  1  0
 14 15  1  0
 14 13  1  0
 16 15  1  0
 16 23  1  0
 16 17  1  0
 18 12  1  0
 18 17  1  0
 19 12  2  0
 20 21  2  0
 21 40  1  0
 22 21  1  0
 22 25  1  0
 23 24  1  0
 23 20  1  0
 24 22  2  0
 25 26  1  0
 26 27  2  0
 28 31  1  0
 28 27  1  0
 29 28  2  0
 30 29  1  0
 30 25  2  0
 31 32  1  0
 32 33  1  0
 33 34  2  0
 35 34  1  0
 35 39  1  0
 36 35  2  0
 37 32  2  0
 37 36  1  0
 38 37  1  0
 40 41  1  0
 41 44  1  0
 41 43  1  0
 42 40  2  0
 45 46  1  0
 45 20  1  0
 47 45  1  0
 49 50  1  0
 49 48  2  0
 51 62  2  0
 52 50  1  0
 52 57  1  0
 53 61  1  0
 53 63  1  0
 54 60  1  0
 54 56  1  0
 55 61  1  0
 56 55  1  0
 57 56  2  0
 58 59  1  0
 58 52  2  0
 59 54  2  0
 60 53  1  0
 61 51  1  0
 63 65  2  0
 64 63  1  0
 66 64  1  0
 67 76  2  0
 67 72  1  0
 68 64  1  0
 68 72  1  0
 69 68  1  0
 70 71  1  0
 70 69  1  0
 71 67  1  0
 72 73  2  0
 73 74  1  0
 75 74  2  0
 76 75  1  0
 77 51  1  0
 77 78  1  0
 77 87  1  0
 78 81  1  0
 79 83  1  0
 79 78  1  0
 80 79  2  0
 83 82  1  0
 85 83  1  0
 85 86  1  0
 85 84  1  0
 87 90  1  1
 87 88  1  0
 89 87  1  0
M  ISO  4  11 100  12 100  49 101  50 101
M  END
>  <TORSDO>  (80) 
F 21

>  <SCORE>  (80) 
-12.464

>  <name>  (80) 
79

>  <ligand_id>  (80) 
79

>  <original_smiles>  (80) 
[H]c1c([H])c([H])c2c(c1[H])C([H])([H])C([H])([H])C([H])([H])C2([H])N([H])C(=O)C1([H])N(C(=O)C([H])(N([H])C(=O)C([H])(N([H])C([H])([H])[H])C([H])([H])[H])C(C([H])([H])[H])(C([H])([H])[H])C([H])([H])[H])C([H])([H])c2c([H])c(OC([H])([H])C([H])([H])C3([H])C([H])([H])C([H])(C(=O)C([H])([H])C([H])(C(=O)N4C([H])([H])C([H])([H])C([H])([H])C([H])(n5nc(-c6c([H])c([H])c(Oc7c([H])c([H])c(F)c([H])c7F)c([H])c6[H])c(C(=O)N([H])[H])c5N([H])[H])C4([H])[H])C([H])([H])[H])[N+]3([H])[H])c([H])c([H])c2C1([H])[H]

>  <smiles>  (80) 
[H]c1c([H])c([H])c2c(c1[H])C([H])([H])C([H])([H])C([H])([H])C2([H])N([H])C(=O)C1([H])N(C(=O)C([H])(N([H])C(=O)C([H])(N([H])C([H])([H])[H])C([H])([H])[H])C(C([H])([H])[H])(C([H])([H])[H])C([H])([H])[H])C([H])([H])c2c([H])c(OC([H])([H])C([H])([H])C3([H])C([H])([H])C([H])(C(=O)C([H])([H])C([H])(C(=O)N4C([H])([H])C([H])([H])C([H])([H])C([H])(n5nc(-c6c([H])c([H])c(Oc7c([H])c([H])c(F)c([H])c7F)c([H])c6[H])c(C(=O)N([H])[H])c5N([H])[H])C4([H])[H])C([H])([H])[H])[N+]3([H])[H])c([H])c([H])c2C1([H])[H]

$$$$
80:0:0
     RDKit          3D

 90 98  0  0  1  0  0  0  0  0999 V2000
  -29.5970  -21.2860   21.3720 C   0  0  0  0  0  3  0  0  0  0  0  0
  -28.3000  -21.1780   19.3920 C   0  0  0  0  0  3  0  0  0  0  0  0
  -29.3290  -22.7100   21.4340 C   0  0  0  0  0  3  0  0  0  0  0  0
  -28.0400  -22.5940   19.4480 C   0  0  0  0  0  3  0  0  0  0  0  0
  -29.0590  -20.4330   20.3580 C   0  0  0  0  0  0  0  0  0  0  0  0
  -28.5140  -23.4330   20.4950 C   0  0  0  0  0  0  0  0  0  0  0  0
  -29.0700  -18.8390   20.2720 C   0  0  0  0  0  0  0  0  0  0  0  0
  -28.2090  -18.3330   19.5450 O   0  0  0  0  0  0  0  0  0  0  0  0
  -30.0320  -17.7290   20.9680 C   0  0  0  0  0  2  0  0  0  0  0  0
  -30.2680  -16.2980   20.1590 C   0  0  0  0  0  3  0  0  0  0  0  0
  -30.9350  -14.9180   20.7640 C   0  0  0  0  0  0  0  0  0  0  0  0
  -30.8180  -12.5170   20.0430 C   0  0  0  0  0  2  0  0  0  0  0  0
  -29.9840  -12.3600   18.7490 C   0  0  0  0  0  2  0  0  0  0  0  0
  -28.4840  -12.2440   19.0570 C   0  0  0  0  0  2  0  0  0  0  0  0
  -27.9960  -13.2800   20.1020 C   0  0  0  0  0  3  0  0  0  0  0  0
  -28.9530  -13.3890   21.3060 C   0  0  0  0  0  2  0  0  0  0  0  0
  -30.2950  -13.6870   20.7950 N   0  0  0  0  0  0  0  0  0  0  0  0
  -32.1670  -14.9090   20.8200 O   0  0  0  0  0  0  0  0  0  0  0  0
  -25.5760  -13.9260   20.6440 C   0  0  0  0  0  0  0  0  0  0  0  0
  -24.4690  -13.1760   20.9400 C   0  0  0  0  0  0  0  0  0  0  0  0
  -24.9100  -11.8190   20.9800 C   0  0  0  0  0  0  0  0  0  0  0  0
  -26.6190  -13.0240   20.5110 N   0  0  0  0  0  0  0  0  0  0  0  0
  -26.2220  -11.7550   20.7860 N   0  0  0  0  0  0  0  0  0  0  0  0
  -24.1480  -10.5720   21.1330 C   0  0  0  0  0  0  0  0  0  0  0  0
  -24.5110   -9.5970   22.0880 C   0  0  0  0  0  3  0  0  0  0  0  0
  -23.7510   -8.4150   22.2290 C   0  0  0  0  0  3  0  0  0  0  0  0
  -22.6140   -8.2020   21.4130 C   0  0  0  0  0  0  0  0  0  0  0  0
  -22.2720   -9.1640   20.4460 C   0  0  0  0  0  3  0  0  0  0  0  0
  -23.0320  -10.3370   20.3040 C   0  0  0  0  0  3  0  0  0  0  0  0
  -21.8310   -7.0730   21.4630 O   0  0  0  0  0  0  0  0  0  0  0  0
  -21.7290   -6.3170   22.6030 C   0  0  0  0  0  0  0  0  0  0  0  0
  -21.2900   -6.8710   23.8280 C   0  0  0  0  0  3  0  0  0  0  0  0
  -21.1340   -6.0430   24.9570 C   0  0  0  0  0  3  0  0  0  0  0  0
  -21.4050   -4.6640   24.8650 C   0  0  0  0  0  0  0  0  0  0  0  0
  -21.8340   -4.1110   23.6460 C   0  0  0  0  0  3  0  0  0  0  0  0
  -21.9930   -4.9360   22.5170 C   0  0  0  0  0  0  0  0  0  0  0  0
  -22.3870   -4.3940   21.3400 F   0  0  0  0  0  0  0  0  0  0  0  0
  -21.2480   -3.8670   25.9480 F   0  0  0  0  0  0  0  0  0  0  0  0
  -23.0620  -13.6810   21.0770 C   0  0  0  0  0  0  0  0  0  0  0  0
  -22.2530  -13.0260   21.9030 N   0  0  0  0  0  0  0  0  0  0  0  0
  -22.6850  -14.6900   20.4840 O   0  0  0  0  0  0  0  0  0  0  0  0
  -22.5680  -12.2090   22.4060 H   0  0  0  0  0  0  0  0  0  0  0  0
  -21.3050  -13.3470   22.0350 H   0  0  0  0  0  0  0  0  0  0  0  0
  -25.7790  -15.2880   20.4500 N   0  0  0  0  0  0  0  0  0  0  0  0
  -25.0180  -15.9580   20.4860 H   0  0  0  0  0  0  0  0  0  0  0  0
  -26.6620  -15.7090   20.1900 H   0  0  0  0  0  0  0  0  0  0  0  0
  -31.3840  -15.7480   17.8020 C   0  0  0  0  0  1  0  0  0  0  0  0
  -31.1310  -16.7500   18.9320 C   0  0  0  0  0  2  0  0  0  0  0  0
  -27.9170  -24.9120   20.7980 C   0  0  0  0  0  2  0  0  0  0  0  0
  -28.1610  -26.1980   20.0310 O   0  0  0  0  0  0  0  0  0  0  0  0
  -24.5760  -31.7880   23.1050 C   0  0  0  0  0  0  0  0  0  0  0  0
  -27.1070  -27.1520   20.0220 C   0  0  0  0  0  0  0  0  0  0  0  0
  -23.3470  -30.4060   21.4710 C   0  0  0  0  0  3  0  0  0  0  0  0
  -24.7710  -28.8400   20.0240 C   0  0  0  0  0  0  0  0  0  0  0  0
  -25.8920  -30.6860   21.2680 C   0  0  0  0  0  2  0  0  0  0  0  0
  -25.9570  -29.3020   20.6150 C   0  0  0  0  0  0  0  0  0  0  0  0
  -27.1300  -28.4730   20.5990 C   0  0  0  0  0  3  0  0  0  0  0  0
  -25.9030  -26.7690   19.3960 C   0  0  0  0  0  3  0  0  0  0  0  0
  -24.7520  -27.5820   19.4020 C   0  0  0  0  0  3  0  0  0  0  0  0
  -23.5440  -29.7310   20.0890 C   0  0  0  0  0  2  0  0  0  0  0  0
  -24.6240  -30.9790   22.0040 N   0  0  0  0  0  0  0  0  0  0  0  0
  -23.4990  -32.0730   23.6510 O   0  0  0  0  0  0  0  0  0  0  0  0
  -22.6790  -29.3950   22.4360 C   0  0  0  0  0  0  0  0  0  0  0  0
  -21.3460  -29.2460   22.3370 N   0  0  0  0  0  0  0  0  0  0  0  0
  -23.3610  -28.7480   23.2360 O   0  0  0  0  0  0  0  0  0  0  0  0
  -20.8540  -29.8180   21.6650 H   0  0  0  0  0  0  0  0  0  0  0  0
  -17.9560  -28.1120   22.9110 C   0  0  0  0  0  0  0  0  0  0  0  0
  -20.5260  -28.3140   23.1160 C   0  0  0  0  0  3  0  0  0  0  0  0
  -20.5820  -26.8890   22.5170 C   0  0  0  0  0  2  0  0  0  0  0  0
  -19.4480  -26.6050   21.5270 C   0  0  0  0  0  2  0  0  0  0  0  0
  -18.0870  -26.7690   22.2090 C   0  0  0  0  0  2  0  0  0  0  0  0
  -19.1020  -28.8430   23.3220 C   0  0  0  0  0  0  0  0  0  0  0  0
  -18.9250  -30.1010   23.9390 C   0  0  0  0  0  3  0  0  0  0  0  0
  -17.6360  -30.6260   24.1480 C   0  0  0  0  0  3  0  0  0  0  0  0
  -16.5050  -29.8900   23.7520 C   0  0  0  0  0  3  0  0  0  0  0  0
  -16.6660  -28.6350   23.1400 C   0  0  0  0  0  3  0  0  0  0  0  0
  -25.8670  -32.4110   23.7170 C   0  0  0  0  0  3  0  0  0  0  0  0
  -25.5600  -33.8000   24.0880 N   0  0  0  0  0  0  0  0  0  0  0  0
  -25.8920  -34.8750   23.3600 C   0  0  0  0  0  0  0  0  0  0  0  0
  -26.5570  -34.8000   22.3230 O   0  0  0  0  0  0  0  0  0  0  0  0
  -24.9680  -33.9310   24.8950 H   0  0  0  0  0  0  0  0  0  0  0  0
  -24.1630  -36.6820   23.0700 C   0  0  0  0  0  1  0  0  0  0  0  0
  -25.4100  -36.2510   23.8600 C   0  0  0  0  0  3  0  0  0  0  0  0
  -27.5540  -37.1060   24.6990 C   0  0  0  0  0  1  0  0  0  0  0  0
  -26.4430  -37.3070   23.7720 N   0  0  0  0  0  0  0  0  0  0  0  0
  -26.0400  -38.2210   23.9560 H   0  0  0  0  0  0  0  0  0  0  0  0
  -26.4080  -31.6120   24.9680 C   0  0  1  0  0  0  0  0  0  0  0  0
  -25.3360  -31.3560   26.0520 C   0  0  0  0  0  1  0  0  0  0  0  0
  -26.9780  -30.2420   24.5370 C   0  0  0  0  0  1  0  0  0  0  0  0
  -27.5750  -32.3900   25.6200 C   0  0  0  0  0  1  0  0  0  0  0  0
  1  3  1  0
  2  4  2  0
  2  5  1  0
  4  6  1  0
  5  1  2  0
  6 49  1  0
  6  3  2  0
  7  5  1  0
  7  9  1  0
  8  7  2  0
 10 48  1  0
 10 11  1  0
 10  9  1  0
 11 17  1  0
 11 18  2  0
 12 17  1  0
 13 14  1  0
 13 12  1  0
 15 14  1  0
 15 22  1  0
 15 16  1  0
 17 16  1  0
 19 20  2  0
 20 21  1  0
 20 39  1  0
 21 24  1  0
 22 19  1  0
 22 23  1  0
 23 21  2  0
 24 25  1  0
 25 26  2  0
 27 30  1  0
 27 26  1  0
 28 27  2  0
 29 28  1  0
 29 24  2  0
 30 31  1  0
 31 32  1  0
 32 33  2  0
 34 33  1  0
 34 38  1  0
 35 34  2  0
 36 31  2  0
 36 35  1  0
 37 36  1  0
 39 40  1  0
 40 43  1  0
 40 42  1  0
 41 39  2  0
 44 45  1  0
 44 19  1  0
 46 44  1  0
 47 48  1  0
 50 49  1  0
 51 62  2  0
 52 50  1  0
 52 57  1  0
 53 61  1  0
 53 63  1  0
 54 60  1  0
 54 56  1  0
 55 61  1  0
 56 55  1  0
 57 56  2  0
 58 59  1  0
 58 52  2  0
 59 54  2  0
 60 53  1  0
 61 51  1  0
 63 65  2  0
 64 63  1  0
 66 64  1  0
 67 76  2  0
 67 72  1  0
 68 64  1  0
 68 72  1  0
 69 68  1  0
 70 71  1  0
 70 69  1  0
 71 67  1  0
 72 73  2  0
 73 74  1  0
 75 74  2  0
 76 75  1  0
 77 51  1  0
 77 78  1  0
 77 87  1  0
 78 81  1  0
 79 83  1  0
 79 78  1  0
 80 79  2  0
 83 82  1  0
 85 83  1  0
 85 86  1  0
 85 84  1  0
 87 90  1  1
 87 88  1  0
 89 87  1  0
M  ISO  4  10 100  11 100  49 101  50 101
M  END
>  <TORSDO>  (81) 
F 21

>  <SCORE>  (81) 
-13.124

>  <name>  (81) 
80

>  <ligand_id>  (81) 
80

>  <original_smiles>  (81) 
[H]c1c([H])c([H])c2c(c1[H])C([H])([H])C([H])([H])C([H])([H])C2([H])N([H])C(=O)C1([H])N(C(=O)C([H])(N([H])C(=O)C([H])(N([H])C([H])([H])[H])C([H])([H])[H])C(C([H])([H])[H])(C([H])([H])[H])C([H])([H])[H])C([H])([H])c2c([H])c(OC([H])([H])c3c([H])c([H])c(C(=O)C([H])([H])C([H])(C(=O)N4C([H])([H])C([H])([H])C([H])([H])C([H])(n5nc(-c6c([H])c([H])c(Oc7c([H])c([H])c(F)c([H])c7F)c([H])c6[H])c(C(=O)N([H])[H])c5N([H])[H])C4([H])[H])C([H])([H])C([H])([H])[H])c([H])c3[H])c([H])c([H])c2C1([H])[H]

>  <smiles>  (81) 
[H]c1c([H])c([H])c2c(c1[H])C([H])([H])C([H])([H])C([H])([H])C2([H])N([H])C(=O)C1([H])N(C(=O)C([H])(N([H])C(=O)C([H])(N([H])C([H])([H])[H])C([H])([H])[H])C(C([H])([H])[H])(C([H])([H])[H])C([H])([H])[H])C([H])([H])c2c([H])c(OC([H])([H])c3c([H])c([H])c(C(=O)C([H])([H])C([H])(C(=O)N4C([H])([H])C([H])([H])C([H])([H])C([H])(n5nc(-c6c([H])c([H])c(Oc7c([H])c([H])c(F)c([H])c7F)c([H])c6[H])c(C(=O)N([H])[H])c5N([H])[H])C4([H])[H])C([H])([H])C([H])([H])[H])c([H])c3[H])c([H])c([H])c2C1([H])[H]

$$$$
81:0:0
     RDKit          3D

 89 97  0  0  1  0  0  0  0  0999 V2000
  -30.3740  -23.7420   20.7670 C   0  0  0  0  0  2  0  0  0  0  0  0
  -30.7750  -22.2380   20.7420 C   0  0  0  0  0  2  0  0  0  0  0  0
  -28.5780  -22.4090   19.9020 C   0  0  0  0  0  2  0  0  0  0  0  0
  -28.8630  -23.8440   20.4980 C   0  0  0  0  0  3  0  0  0  0  0  0
  -29.5090  -21.3500   20.6180 C   0  0  0  0  0  3  0  0  0  0  0  0
  -29.4200  -19.8600   18.4890 C   0  0  0  0  0  1  0  0  0  0  0  0
  -29.8240  -19.8940   19.9710 C   0  0  0  0  0  3  0  0  0  0  0  0
  -29.4290  -18.5020   20.6900 C   0  0  0  0  0  3  0  0  0  0  0  0
  -30.2600  -17.2000   20.2260 C   0  0  0  0  0  3  0  0  0  0  0  0
  -30.6040  -14.6640   20.3350 C   0  0  0  0  0  0  0  0  0  0  0  0
  -30.3320  -12.4290   19.2830 C   0  0  0  0  0  2  0  0  0  0  0  0
  -29.4020  -12.5810   18.0610 C   0  0  0  0  0  2  0  0  0  0  0  0
  -27.9320  -12.4260   18.4960 C   0  0  0  0  0  2  0  0  0  0  0  0
  -27.5840  -13.2800   19.7470 C   0  0  0  0  0  3  0  0  0  0  0  0
  -28.6450  -13.1410   20.8620 C   0  0  0  0  0  2  0  0  0  0  0  0
  -29.9480  -13.4610   20.2700 N   0  0  0  0  0  0  0  0  0  0  0  0
  -31.7600  -14.7670   19.9160 O   0  0  0  0  0  0  0  0  0  0  0  0
  -29.8790  -15.7920   20.6480 N   0  0  0  0  0  0  0  0  0  0  0  0
  -28.9340  -15.6400   20.9700 H   0  0  0  0  0  0  0  0  0  0  0  0
  -25.2040  -13.8830   20.4910 C   0  0  0  0  0  0  0  0  0  0  0  0
  -24.1390  -13.1140   20.8700 C   0  0  0  0  0  0  0  0  0  0  0  0
  -24.5970  -11.7590   20.8350 C   0  0  0  0  0  0  0  0  0  0  0  0
  -26.2420  -12.9970   20.2440 N   0  0  0  0  0  0  0  0  0  0  0  0
  -25.8840  -11.7170   20.5160 N   0  0  0  0  0  0  0  0  0  0  0  0
  -23.8680  -10.5020   21.0380 C   0  0  0  0  0  0  0  0  0  0  0  0
  -24.3190   -9.5320   21.9600 C   0  0  0  0  0  3  0  0  0  0  0  0
  -23.5920   -8.3360   22.1510 C   0  0  0  0  0  3  0  0  0  0  0  0
  -22.4030   -8.1050   21.4220 C   0  0  0  0  0  0  0  0  0  0  0  0
  -21.9690   -9.0650   20.4940 C   0  0  0  0  0  3  0  0  0  0  0  0
  -22.6950  -10.2510   20.3010 C   0  0  0  0  0  3  0  0  0  0  0  0
  -21.6470   -6.9610   21.5230 O   0  0  0  0  0  0  0  0  0  0  0  0
  -21.6370   -6.2020   22.6630 C   0  0  0  0  0  0  0  0  0  0  0  0
  -21.2690   -6.7430   23.9150 C   0  0  0  0  0  3  0  0  0  0  0  0
  -21.2030   -5.9120   25.0510 C   0  0  0  0  0  3  0  0  0  0  0  0
  -21.4930   -4.5380   24.9370 C   0  0  0  0  0  0  0  0  0  0  0  0
  -21.8520   -3.9960   23.6910 C   0  0  0  0  0  3  0  0  0  0  0  0
  -21.9200   -4.8240   22.5570 C   0  0  0  0  0  0  0  0  0  0  0  0
  -22.2450   -4.2920   21.3550 F   0  0  0  0  0  0  0  0  0  0  0  0
  -21.4230   -3.7390   26.0270 F   0  0  0  0  0  0  0  0  0  0  0  0
  -22.7470  -13.5980   21.1530 C   0  0  0  0  0  0  0  0  0  0  0  0
  -22.0280  -12.9050   22.0280 N   0  0  0  0  0  0  0  0  0  0  0  0
  -22.3080  -14.6230   20.6360 O   0  0  0  0  0  0  0  0  0  0  0  0
  -22.3970  -12.0750   22.4680 H   0  0  0  0  0  0  0  0  0  0  0  0
  -21.0950  -13.2120   22.2690 H   0  0  0  0  0  0  0  0  0  0  0  0
  -25.3750  -15.2540   20.3150 N   0  0  0  0  0  0  0  0  0  0  0  0
  -24.6220  -15.9140   20.4660 H   0  0  0  0  0  0  0  0  0  0  0  0
  -26.2360  -15.6960   20.0210 H   0  0  0  0  0  0  0  0  0  0  0  0
  -28.4040  -25.1110   19.6330 C   0  0  0  0  0  2  0  0  0  0  0  0
  -28.3550  -26.4830   20.2120 O   0  0  0  0  0  0  0  0  0  0  0  0
  -24.6100  -31.8700   23.2320 C   0  0  0  0  0  0  0  0  0  0  0  0
  -27.2140  -27.3110   20.1470 C   0  0  0  0  0  0  0  0  0  0  0  0
  -23.4010  -30.4790   21.5920 C   0  0  0  0  0  3  0  0  0  0  0  0
  -24.8460  -28.9360   20.1590 C   0  0  0  0  0  0  0  0  0  0  0  0
  -25.9420  -30.7920   21.4030 C   0  0  0  0  0  2  0  0  0  0  0  0
  -26.0170  -29.4160   20.7530 C   0  0  0  0  0  0  0  0  0  0  0  0
  -27.1990  -28.6150   20.7410 C   0  0  0  0  0  3  0  0  0  0  0  0
  -26.0100  -26.8940   19.5240 C   0  0  0  0  0  3  0  0  0  0  0  0
  -24.8460  -27.6800   19.5380 C   0  0  0  0  0  3  0  0  0  0  0  0
  -23.6080  -29.8080   20.2110 C   0  0  0  0  0  2  0  0  0  0  0  0
  -24.6710  -31.0650   22.1320 N   0  0  0  0  0  0  0  0  0  0  0  0
  -23.5290  -32.1470   23.7700 O   0  0  0  0  0  0  0  0  0  0  0  0
  -22.7370  -29.4620   22.5510 C   0  0  0  0  0  0  0  0  0  0  0  0
  -21.4110  -29.2830   22.4220 N   0  0  0  0  0  0  0  0  0  0  0  0
  -23.4140  -28.8350   23.3710 O   0  0  0  0  0  0  0  0  0  0  0  0
  -20.9250  -29.8320   21.7260 H   0  0  0  0  0  0  0  0  0  0  0  0
  -18.0390  -28.0800   22.9260 C   0  0  0  0  0  0  0  0  0  0  0  0
  -20.5950  -28.3490   23.1960 C   0  0  0  0  0  3  0  0  0  0  0  0
  -20.7050  -26.9150   22.6270 C   0  0  0  0  0  2  0  0  0  0  0  0
  -19.6050  -26.5860   21.6110 C   0  0  0  0  0  2  0  0  0  0  0  0
  -18.2220  -26.7310   22.2520 C   0  0  0  0  0  2  0  0  0  0  0  0
  -19.1540  -28.8460   23.3560 C   0  0  0  0  0  0  0  0  0  0  0  0
  -18.9290  -30.1070   23.9500 C   0  0  0  0  0  3  0  0  0  0  0  0
  -17.6210  -30.6040   24.1150 C   0  0  0  0  0  3  0  0  0  0  0  0
  -16.5210  -29.8360   23.6980 C   0  0  0  0  0  3  0  0  0  0  0  0
  -16.7300  -28.5750   23.1100 C   0  0  0  0  0  3  0  0  0  0  0  0
  -25.8960  -32.4990   23.8540 C   0  0  0  0  0  3  0  0  0  0  0  0
  -26.4130  -31.7260   25.1300 C   0  0  1  0  0  0  0  0  0  0  0  0
  -25.3200  -31.4900   26.1990 C   0  0  0  0  0  1  0  0  0  0  0  0
  -26.9920  -30.3470   24.7360 C   0  0  0  0  0  1  0  0  0  0  0  0
  -27.5690  -32.5150   25.7880 C   0  0  0  0  0  1  0  0  0  0  0  0
  -25.5860  -33.8970   24.1860 N   0  0  0  0  0  0  0  0  0  0  0  0
  -25.9150  -34.9520   23.4290 C   0  0  0  0  0  0  0  0  0  0  0  0
  -26.5790  -34.8490   22.3940 O   0  0  0  0  0  0  0  0  0  0  0  0
  -24.9990  -34.0530   24.9930 H   0  0  0  0  0  0  0  0  0  0  0  0
  -24.1840  -36.7450   23.0900 C   0  0  0  0  0  1  0  0  0  0  0  0
  -25.4300  -36.3400   23.8920 C   0  0  0  0  0  3  0  0  0  0  0  0
  -27.5730  -37.2230   24.7030 C   0  0  0  0  0  1  0  0  0  0  0  0
  -26.4620  -37.3930   23.7710 N   0  0  0  0  0  0  0  0  0  0  0  0
  -26.0580  -38.3140   23.9190 H   0  0  0  0  0  0  0  0  0  0  0  0
  2  1  1  0
  3  4  1  0
  3  5  1  0
  4 48  1  0
  4  1  1  0
  5  7  1  0
  5  2  1  0
  7  6  1  0
  7  8  1  0
  9 18  1  0
  9  8  2  0
 10 18  1  0
 11 16  1  0
 12 13  1  0
 12 11  1  0
 14 13  1  0
 14 23  1  0
 14 15  1  0
 16 10  1  0
 16 15  1  0
 17 10  2  0
 18 19  1  0
 20 21  2  0
 21 40  1  0
 22 21  1  0
 22 25  1  0
 23 20  1  0
 23 24  1  0
 24 22  2  0
 25 26  1  0
 26 27  2  0
 28 31  1  0
 28 27  1  0
 29 28  2  0
 30 29  1  0
 30 25  2  0
 31 32  1  0
 32 33  1  0
 33 34  2  0
 35 34  1  0
 35 39  1  0
 36 35  2  0
 37 32  2  0
 37 36  1  0
 38 37  1  0
 40 41  1  0
 41 44  1  0
 41 43  1  0
 42 40  2  0
 45 46  1  0
 45 20  1  0
 47 45  1  0
 48 49  1  0
 50 61  2  0
 51 49  1  0
 51 56  1  0
 52 60  1  0
 52 62  1  0
 53 59  1  0
 53 55  1  0
 54 60  1  0
 55 54  1  0
 56 55  2  0
 57 58  1  0
 57 51  2  0
 58 53  2  0
 59 52  1  0
 60 50  1  0
 62 64  2  0
 63 62  1  0
 65 63  1  0
 66 75  2  0
 66 71  1  0
 67 63  1  0
 67 71  1  0
 68 67  1  0
 69 70  1  0
 69 68  1  0
 70 66  1  0
 71 72  2  0
 72 73  1  0
 74 73  2  0
 75 74  1  0
 76 50  1  0
 76 81  1  0
 76 77  1  0
 77 80  1  1
 77 78  1  0
 79 77  1  0
 81 84  1  0
 82 86  1  0
 82 81  1  0
 83 82  2  0
 86 85  1  0
 88 86  1  0
 88 89  1  0
 88 87  1  0
M  ISO  4  10 100  18 100  48 101  49 101
M  END
>  <TORSDO>  (82) 
F 20

>  <SCORE>  (82) 
-13.736

>  <name>  (82) 
81

>  <ligand_id>  (82) 
81

>  <original_smiles>  (82) 
[H]c1c([H])c([H])c2c(c1[H])C([H])([H])C([H])([H])C([H])([H])C2([H])N([H])C(=O)C1([H])N(C(=O)C([H])(N([H])C(=O)C([H])(N([H])C([H])([H])[H])C([H])([H])[H])C(C([H])([H])[H])(C([H])([H])[H])C([H])([H])[H])C([H])([H])c2c([H])c(OC([H])([H])C3([H])C([H])([H])C([H])([H])C([H])(C([H])(C([H])([H])[H])C([H])([H])C([H])([H])N([H])C(=O)N4C([H])([H])C([H])([H])C([H])([H])C([H])(n5nc(-c6c([H])c([H])c(Oc7c([H])c([H])c(F)c([H])c7F)c([H])c6[H])c(C(=O)N([H])[H])c5N([H])[H])C4([H])[H])C3([H])[H])c([H])c([H])c2C1([H])[H]

>  <smiles>  (82) 
[H]c1c([H])c([H])c2c(c1[H])C([H])([H])C([H])([H])C([H])([H])C2([H])N([H])C(=O)C1([H])N(C(=O)C([H])(N([H])C(=O)C([H])(N([H])C([H])([H])[H])C([H])([H])[H])C(C([H])([H])[H])(C([H])([H])[H])C([H])([H])[H])C([H])([H])c2c([H])c(OC([H])([H])C3([H])C([H])([H])C([H])([H])C([H])(C([H])(C([H])([H])[H])C([H])([H])C([H])([H])N([H])C(=O)N4C([H])([H])C([H])([H])C([H])([H])C([H])(n5nc(-c6c([H])c([H])c(Oc7c([H])c([H])c(F)c([H])c7F)c([H])c6[H])c(C(=O)N([H])[H])c5N([H])[H])C4([H])[H])C3([H])[H])c([H])c([H])c2C1([H])[H]

$$$$
82:0:0
     RDKit          3D

 90 98  0  0  1  0  0  0  0  0999 V2000
  -28.6480  -19.5020   20.2200 C   0  0  0  0  0  2  0  0  0  0  0  0
  -30.9530  -19.0300   20.2750 C   0  0  0  0  0  2  0  0  0  0  0  0
  -29.1920  -21.0960   20.5660 C   0  0  0  0  0  3  0  0  0  0  0  0
  -29.6870  -18.2000   20.6270 C   0  0  0  0  0  3  0  0  0  0  0  0
  -30.6790  -20.6320   20.2550 C   0  0  0  0  0  3  0  0  0  0  0  0
  -30.3800  -15.2950   20.2740 C   0  0  0  0  0  0  0  0  0  0  0  0
  -30.3610  -12.8620   19.3610 C   0  0  0  0  0  2  0  0  0  0  0  0
  -29.4260  -12.6560   18.1430 C   0  0  0  0  0  2  0  0  0  0  0  0
  -27.9810  -12.3840   18.5980 C   0  0  0  0  0  2  0  0  0  0  0  0
  -27.5390  -13.3430   19.7310 C   0  0  0  0  0  3  0  0  0  0  0  0
  -28.5980  -13.4810   20.8430 C   0  0  0  0  0  2  0  0  0  0  0  0
  -29.8170  -13.9930   20.1950 N   0  0  0  0  0  0  0  0  0  0  0  0
  -31.6080  -15.3040   20.1050 O   0  0  0  0  0  0  0  0  0  0  0  0
  -29.5850  -16.5480   20.3410 N   0  0  0  0  0  0  0  0  0  0  0  0
  -28.6120  -16.2800   20.3150 H   0  0  0  0  0  0  0  0  0  0  0  0
  -25.1740  -13.8990   20.5060 C   0  0  0  0  0  0  0  0  0  0  0  0
  -24.1150  -13.1210   20.8800 C   0  0  0  0  0  0  0  0  0  0  0  0
  -24.5850  -11.7710   20.8420 C   0  0  0  0  0  0  0  0  0  0  0  0
  -26.2160  -13.0260   20.2520 N   0  0  0  0  0  0  0  0  0  0  0  0
  -25.8740  -11.7390   20.5230 N   0  0  0  0  0  0  0  0  0  0  0  0
  -23.8590  -10.5070   21.0300 C   0  0  0  0  0  0  0  0  0  0  0  0
  -24.2880   -9.5400   21.9660 C   0  0  0  0  0  3  0  0  0  0  0  0
  -23.5600   -8.3440   22.1440 C   0  0  0  0  0  3  0  0  0  0  0  0
  -22.3890   -8.1050   21.3850 C   0  0  0  0  0  0  0  0  0  0  0  0
  -21.9800   -9.0610   20.4380 C   0  0  0  0  0  3  0  0  0  0  0  0
  -22.7080  -10.2490   20.2590 C   0  0  0  0  0  3  0  0  0  0  0  0
  -21.6340   -6.9610   21.4710 O   0  0  0  0  0  0  0  0  0  0  0  0
  -21.5730   -6.2250   22.6270 C   0  0  0  0  0  0  0  0  0  0  0  0
  -21.1240   -6.7830   23.8440 C   0  0  0  0  0  3  0  0  0  0  0  0
  -21.0120   -5.9720   24.9920 C   0  0  0  0  0  3  0  0  0  0  0  0
  -21.3390   -4.6050   24.9230 C   0  0  0  0  0  0  0  0  0  0  0  0
  -21.7810   -4.0460   23.7100 C   0  0  0  0  0  3  0  0  0  0  0  0
  -21.8950   -4.8540   22.5660 C   0  0  0  0  0  0  0  0  0  0  0  0
  -22.3010   -4.3050   21.3950 F   0  0  0  0  0  0  0  0  0  0  0  0
  -21.2240   -3.8240   26.0230 F   0  0  0  0  0  0  0  0  0  0  0  0
  -22.7190  -13.5960   21.1540 C   0  0  0  0  0  0  0  0  0  0  0  0
  -21.9910  -12.8930   22.0140 N   0  0  0  0  0  0  0  0  0  0  0  0
  -22.2830  -14.6250   20.6410 O   0  0  0  0  0  0  0  0  0  0  0  0
  -22.3560  -12.0610   22.4510 H   0  0  0  0  0  0  0  0  0  0  0  0
  -21.0530  -13.1940   22.2400 H   0  0  0  0  0  0  0  0  0  0  0  0
  -25.3300  -15.2720   20.3310 N   0  0  0  0  0  0  0  0  0  0  0  0
  -24.5540  -15.9150   20.4420 H   0  0  0  0  0  0  0  0  0  0  0  0
  -26.1570  -15.7130   19.9530 H   0  0  0  0  0  0  0  0  0  0  0  0
  -31.6520  -21.3580   21.0920 N   0  0  0  0  0  4  0  0  0  0  0  0
  -31.5420  -21.1240   22.0620 H   0  0  0  0  0  0  0  0  0  0  0  0
  -31.5350  -22.3500   20.9910 H   0  0  0  0  0  0  0  0  0  0  0  0
  -32.5910  -21.1320   20.8160 H   0  0  0  0  0  0  0  0  0  0  0  0
  -28.7720  -22.7570   19.9560 C   0  0  0  0  0  2  0  0  0  0  0  0
  -28.1150  -24.3010   20.6190 C   0  0  0  0  0  2  0  0  0  0  0  0
  -28.2680  -25.9120   20.2950 O   0  0  0  0  0  0  0  0  0  0  0  0
  -24.6130  -31.8610   23.2300 C   0  0  0  0  0  0  0  0  0  0  0  0
  -27.2280  -26.9780   20.2910 C   0  0  0  0  0  0  0  0  0  0  0  0
  -23.4450  -30.4470   21.5880 C   0  0  0  0  0  3  0  0  0  0  0  0
  -24.9160  -28.8350   20.2020 C   0  0  0  0  0  0  0  0  0  0  0  0
  -26.0110  -30.6730   21.4670 C   0  0  0  0  0  2  0  0  0  0  0  0
  -26.0960  -29.2590   20.8270 C   0  0  0  0  0  0  0  0  0  0  0  0
  -27.2500  -28.3530   20.8390 C   0  0  0  0  0  3  0  0  0  0  0  0
  -26.0130  -26.6990   19.6260 C   0  0  0  0  0  3  0  0  0  0  0  0
  -24.8990  -27.5760   19.5820 C   0  0  0  0  0  3  0  0  0  0  0  0
  -23.6940  -29.7520   20.2220 C   0  0  0  0  0  2  0  0  0  0  0  0
  -24.7110  -31.0210   22.1500 N   0  0  0  0  0  0  0  0  0  0  0  0
  -23.5160  -32.1490   23.7370 O   0  0  0  0  0  0  0  0  0  0  0  0
  -22.7440  -29.4560   22.5540 C   0  0  0  0  0  0  0  0  0  0  0  0
  -21.4150  -29.2900   22.4190 N   0  0  0  0  0  0  0  0  0  0  0  0
  -23.4030  -28.8360   23.3920 O   0  0  0  0  0  0  0  0  0  0  0  0
  -20.9370  -29.8400   21.7190 H   0  0  0  0  0  0  0  0  0  0  0  0
  -18.0270  -28.0890   22.9140 C   0  0  0  0  0  0  0  0  0  0  0  0
  -20.5860  -28.3540   23.1870 C   0  0  0  0  0  3  0  0  0  0  0  0
  -20.6890  -26.9210   22.6140 C   0  0  0  0  0  2  0  0  0  0  0  0
  -19.5900  -26.5980   21.5960 C   0  0  0  0  0  2  0  0  0  0  0  0
  -18.2060  -26.7410   22.2360 C   0  0  0  0  0  2  0  0  0  0  0  0
  -19.1440  -28.8530   23.3460 C   0  0  0  0  0  0  0  0  0  0  0  0
  -18.9210  -30.1130   23.9430 C   0  0  0  0  0  3  0  0  0  0  0  0
  -17.6150  -30.6100   24.1100 C   0  0  0  0  0  3  0  0  0  0  0  0
  -16.5130  -29.8440   23.6920 C   0  0  0  0  0  3  0  0  0  0  0  0
  -16.7200  -28.5850   23.1000 C   0  0  0  0  0  3  0  0  0  0  0  0
  -25.8740  -32.5140   23.8740 C   0  0  0  0  0  3  0  0  0  0  0  0
  -26.3580  -31.7700   25.1800 C   0  0  1  0  0  0  0  0  0  0  0  0
  -25.2390  -31.5560   26.2280 C   0  0  0  0  0  1  0  0  0  0  0  0
  -26.9480  -30.3830   24.8400 C   0  0  0  0  0  1  0  0  0  0  0  0
  -27.4940  -32.5760   25.8520 C   0  0  0  0  0  1  0  0  0  0  0  0
  -25.5500  -33.9180   24.1830 N   0  0  0  0  0  0  0  0  0  0  0  0
  -25.8940  -34.9700   23.4280 C   0  0  0  0  0  0  0  0  0  0  0  0
  -26.5810  -34.8610   22.4090 O   0  0  0  0  0  0  0  0  0  0  0  0
  -24.9400  -34.0760   24.9720 H   0  0  0  0  0  0  0  0  0  0  0  0
  -24.1750  -36.7700   23.0410 C   0  0  0  0  0  1  0  0  0  0  0  0
  -25.4030  -36.3640   23.8720 C   0  0  0  0  0  3  0  0  0  0  0  0
  -27.5240  -37.2550   24.7340 C   0  0  0  0  0  1  0  0  0  0  0  0
  -26.4390  -37.4160   23.7690 N   0  0  0  0  0  0  0  0  0  0  0  0
  -26.0310  -38.3380   23.9000 H   0  0  0  0  0  0  0  0  0  0  0  0
  1  3  1  0
  1  4  1  0
  2  4  1  0
  3 48  1  0
  4 14  1  0
  5  2  1  0
  5  3  1  0
  5 44  1  0
  6 14  1  0
  7 12  1  0
  8  9  1  0
  8  7  1  0
 10  9  1  0
 10 19  1  0
 10 11  1  0
 12  6  1  0
 12 11  1  0
 13  6  2  0
 15 14  1  0
 16 17  2  0
 17 36  1  0
 18 17  1  0
 18 21  1  0
 19 16  1  0
 19 20  1  0
 20 18  2  0
 21 22  1  0
 22 23  2  0
 24 27  1  0
 24 23  1  0
 25 24  2  0
 26 25  1  0
 26 21  2  0
 27 28  1  0
 28 29  1  0
 29 30  2  0
 31 30  1  0
 31 35  1  0
 32 31  2  0
 33 28  2  0
 33 32  1  0
 34 33  1  0
 36 37  1  0
 37 40  1  0
 37 39  1  0
 38 36  2  0
 41 42  1  0
 41 16  1  0
 43 41  1  0
 44 45  1  0
 46 44  1  0
 47 44  1  0
 48 49  1  0
 50 49  1  0
 51 62  2  0
 52 50  1  0
 52 57  1  0
 53 61  1  0
 53 63  1  0
 54 60  1  0
 54 56  1  0
 55 61  1  0
 56 57  2  0
 56 55  1  0
 58 52  2  0
 59 58  1  0
 59 54  2  0
 60 53  1  0
 61 51  1  0
 63 65  2  0
 64 63  1  0
 66 64  1  0
 67 76  2  0
 67 72  1  0
 68 64  1  0
 68 72  1  0
 69 68  1  0
 70 71  1  0
 70 69  1  0
 71 67  1  0
 72 73  2  0
 73 74  1  0
 75 74  2  0
 76 75  1  0
 77 51  1  0
 77 82  1  0
 77 78  1  0
 78 81  1  1
 78 79  1  0
 80 78  1  0
 82 85  1  0
 83 87  1  0
 83 82  1  0
 84 83  2  0
 87 86  1  0
 89 87  1  0
 89 90  1  0
 89 88  1  0
M  ISO  4   6 100  14 100  49 101  50 101
M  END
>  <TORSDO>  (83) 
F 19

>  <SCORE>  (83) 
-16.454

>  <name>  (83) 
82

>  <ligand_id>  (83) 
82

>  <original_smiles>  (83) 
[H]c1c([H])c([H])c2c(c1[H])C([H])([H])C([H])([H])C([H])([H])C2([H])N([H])C(=O)C1([H])N(C(=O)C([H])(N([H])C(=O)C([H])(N([H])C([H])([H])[H])C([H])([H])[H])C(C([H])([H])[H])(C([H])([H])[H])C([H])([H])[H])C([H])([H])c2c([H])c(OC([H])([H])C([H])([H])C3([H])C([H])([H])C([H])(N([H])C(=O)N4C([H])([H])C([H])([H])C([H])([H])C([H])(n5nc(-c6c([H])c([H])c(Oc7c([H])c([H])c(F)c([H])c7F)c([H])c6[H])c(C(=O)N([H])[H])c5N([H])[H])C4([H])[H])C([H])([H])C3([H])[N+]([H])([H])[H])c([H])c([H])c2C1([H])[H]

>  <smiles>  (83) 
[H]c1c([H])c([H])c2c(c1[H])C([H])([H])C([H])([H])C([H])([H])C2([H])N([H])C(=O)C1([H])N(C(=O)C([H])(N([H])C(=O)C([H])(N([H])C([H])([H])[H])C([H])([H])[H])C(C([H])([H])[H])(C([H])([H])[H])C([H])([H])[H])C([H])([H])c2c([H])c(OC([H])([H])C([H])([H])C3([H])C([H])([H])C([H])(N([H])C(=O)N4C([H])([H])C([H])([H])C([H])([H])C([H])(n5nc(-c6c([H])c([H])c(Oc7c([H])c([H])c(F)c([H])c7F)c([H])c6[H])c(C(=O)N([H])[H])c5N([H])[H])C4([H])[H])C([H])([H])C3([H])[N+]([H])([H])[H])c([H])c([H])c2C1([H])[H]

$$$$
83:0:0
     RDKit          3D

 89 97  0  0  1  0  0  0  0  0999 V2000
  -29.8590  -20.8860   18.8930 C   0  0  0  0  0  3  0  0  0  0  0  0
  -29.4290  -20.6700   21.1600 C   0  0  0  0  0  3  0  0  0  0  0  0
  -29.4110  -22.2930   18.9410 C   0  0  0  0  0  3  0  0  0  0  0  0
  -28.9790  -22.0780   21.2050 C   0  0  0  0  0  3  0  0  0  0  0  0
  -29.8950  -19.9440   19.9950 C   0  0  0  0  0  0  0  0  0  0  0  0
  -28.9370  -23.0210   20.1020 C   0  0  0  0  0  0  0  0  0  0  0  0
  -30.6220  -18.3920   19.9590 C   0  0  0  0  0  2  0  0  0  0  0  0
  -29.1680  -16.8260   18.6180 C   0  0  0  0  0  1  0  0  0  0  0  0
  -29.9830  -16.7750   19.9300 C   0  0  1  0  0  0  0  0  0  0  0  0
  -30.8480  -15.2640   19.8430 C   0  0  0  0  0  0  0  0  0  0  0  0
  -30.8000  -12.8530   18.9440 C   0  0  0  0  0  2  0  0  0  0  0  0
  -29.7800  -12.7120   17.7840 C   0  0  0  0  0  2  0  0  0  0  0  0
  -28.3590  -12.4330   18.3130 C   0  0  0  0  0  2  0  0  0  0  0  0
  -27.9970  -13.3430   19.5140 C   0  0  0  0  0  3  0  0  0  0  0  0
  -29.1370  -13.4020   20.5500 C   0  0  0  0  0  2  0  0  0  0  0  0
  -30.3290  -13.9430   19.8650 N   0  0  0  0  0  0  0  0  0  0  0  0
  -32.0450  -15.3050   19.5310 O   0  0  0  0  0  0  0  0  0  0  0  0
  -25.6810  -13.8780   20.4540 C   0  0  0  0  0  0  0  0  0  0  0  0
  -24.6500  -13.0850   20.8710 C   0  0  0  0  0  0  0  0  0  0  0  0
  -25.1100  -11.7390   20.7400 C   0  0  0  0  0  0  0  0  0  0  0  0
  -26.7050  -13.0150   20.1010 N   0  0  0  0  0  0  0  0  0  0  0  0
  -26.3760  -11.7200   20.3330 N   0  0  0  0  0  0  0  0  0  0  0  0
  -24.3970  -10.4700   20.9200 C   0  0  0  0  0  0  0  0  0  0  0  0
  -24.7950   -9.5300   21.8950 C   0  0  0  0  0  3  0  0  0  0  0  0
  -24.0790   -8.3260   22.0630 C   0  0  0  0  0  3  0  0  0  0  0  0
  -22.9500   -8.0530   21.2550 C   0  0  0  0  0  0  0  0  0  0  0  0
  -22.5720   -8.9820   20.2690 C   0  0  0  0  0  3  0  0  0  0  0  0
  -23.2880  -10.1770   20.0990 C   0  0  0  0  0  3  0  0  0  0  0  0
  -22.2100   -6.8990   21.3300 O   0  0  0  0  0  0  0  0  0  0  0  0
  -21.9600   -6.2810   22.5290 C   0  0  0  0  0  0  0  0  0  0  0  0
  -21.2950   -6.9440   23.5840 C   0  0  0  0  0  3  0  0  0  0  0  0
  -20.9970   -6.2500   24.7740 C   0  0  0  0  0  3  0  0  0  0  0  0
  -21.3550   -4.8960   24.9090 C   0  0  0  0  0  0  0  0  0  0  0  0
  -22.0130   -4.2330   23.8580 C   0  0  0  0  0  3  0  0  0  0  0  0
  -22.3120   -4.9240   22.6700 C   0  0  0  0  0  0  0  0  0  0  0  0
  -22.9280   -4.2750   21.6520 F   0  0  0  0  0  0  0  0  0  0  0  0
  -21.0620   -4.2270   26.0480 F   0  0  0  0  0  0  0  0  0  0  0  0
  -23.2790  -13.5490   21.2680 C   0  0  0  0  0  0  0  0  0  0  0  0
  -22.6290  -12.8300   22.1760 N   0  0  0  0  0  0  0  0  0  0  0  0
  -22.7970  -14.5840   20.8110 O   0  0  0  0  0  0  0  0  0  0  0  0
  -23.0330  -11.9910   22.5670 H   0  0  0  0  0  0  0  0  0  0  0  0
  -21.7130  -13.1230   22.4860 H   0  0  0  0  0  0  0  0  0  0  0  0
  -25.8140  -15.2560   20.3180 N   0  0  0  0  0  0  0  0  0  0  0  0
  -25.0480  -15.8910   20.5140 H   0  0  0  0  0  0  0  0  0  0  0  0
  -26.6240  -15.7220   19.9310 H   0  0  0  0  0  0  0  0  0  0  0  0
  -29.6770  -16.6890   22.5190 C   0  0  0  0  0  1  0  0  0  0  0  0
  -29.0100  -16.7580   21.1330 C   0  0  0  0  0  2  0  0  0  0  0  0
  -28.1010  -24.5110   20.0710 C   0  0  0  0  0  2  0  0  0  0  0  0
  -28.4720  -26.0430   20.3490 O   0  0  0  0  0  0  0  0  0  0  0  0
  -24.8940  -31.8410   23.4250 C   0  0  0  0  0  0  0  0  0  0  0  0
  -27.4610  -27.1120   20.2920 C   0  0  0  0  0  0  0  0  0  0  0  0
  -23.7010  -30.4970   21.7410 C   0  0  0  0  0  3  0  0  0  0  0  0
  -25.1540  -28.9420   20.2850 C   0  0  0  0  0  0  0  0  0  0  0  0
  -26.2650  -30.7230   21.6130 C   0  0  0  0  0  2  0  0  0  0  0  0
  -26.3360  -29.3400   20.9210 C   0  0  0  0  0  0  0  0  0  0  0  0
  -27.4870  -28.4450   20.9050 C   0  0  0  0  0  3  0  0  0  0  0  0
  -26.2480  -26.8480   19.6110 C   0  0  0  0  0  3  0  0  0  0  0  0
  -25.1280  -27.7120   19.6130 C   0  0  0  0  0  3  0  0  0  0  0  0
  -23.9340  -29.8540   20.3480 C   0  0  0  0  0  2  0  0  0  0  0  0
  -24.9740  -31.0430   22.3140 N   0  0  0  0  0  0  0  0  0  0  0  0
  -23.8040  -32.1220   23.9480 O   0  0  0  0  0  0  0  0  0  0  0  0
  -23.0010  -29.4750   22.6730 C   0  0  0  0  0  0  0  0  0  0  0  0
  -21.6820  -29.2800   22.4990 N   0  0  0  0  0  0  0  0  0  0  0  0
  -23.6520  -28.8580   23.5210 O   0  0  0  0  0  0  0  0  0  0  0  0
  -21.2100  -29.8300   21.7930 H   0  0  0  0  0  0  0  0  0  0  0  0
  -18.3130  -27.9870   22.8610 C   0  0  0  0  0  0  0  0  0  0  0  0
  -20.8510  -28.3200   23.2350 C   0  0  0  0  0  3  0  0  0  0  0  0
  -21.0150  -26.8910   22.6650 C   0  0  0  0  0  2  0  0  0  0  0  0
  -19.9650  -26.5400   21.6060 C   0  0  0  0  0  2  0  0  0  0  0  0
  -18.5540  -26.6450   22.1910 C   0  0  0  0  0  2  0  0  0  0  0  0
  -19.3910  -28.7800   23.3370 C   0  0  0  0  0  0  0  0  0  0  0  0
  -19.1110  -30.0340   23.9240 C   0  0  0  0  0  3  0  0  0  0  0  0
  -17.7860  -30.4950   24.0400 C   0  0  0  0  0  3  0  0  0  0  0  0
  -16.7230  -29.7010   23.5790 C   0  0  0  0  0  3  0  0  0  0  0  0
  -16.9860  -28.4480   22.9960 C   0  0  0  0  0  3  0  0  0  0  0  0
  -26.1670  -32.4560   24.0800 C   0  0  0  0  0  3  0  0  0  0  0  0
  -26.6380  -31.6750   25.3690 C   0  0  1  0  0  0  0  0  0  0  0  0
  -25.5130  -31.4430   26.4050 C   0  0  0  0  0  1  0  0  0  0  0  0
  -27.2200  -30.2920   24.9940 C   0  0  0  0  0  1  0  0  0  0  0  0
  -27.7780  -32.4550   26.0660 C   0  0  0  0  0  1  0  0  0  0  0  0
  -25.8690  -33.8580   24.4170 N   0  0  0  0  0  0  0  0  0  0  0  0
  -26.2000  -34.9150   23.6620 C   0  0  0  0  0  0  0  0  0  0  0  0
  -26.8540  -34.8110   22.6210 O   0  0  0  0  0  0  0  0  0  0  0  0
  -25.2880  -34.0130   25.2270 H   0  0  0  0  0  0  0  0  0  0  0  0
  -24.4760  -36.7250   23.3600 C   0  0  0  0  0  1  0  0  0  0  0  0
  -25.7360  -36.3070   24.1360 C   0  0  0  0  0  3  0  0  0  0  0  0
  -27.8930  -37.1830   24.9190 C   0  0  0  0  0  1  0  0  0  0  0  0
  -26.7730  -37.3530   23.9970 N   0  0  0  0  0  0  0  0  0  0  0  0
  -26.3770  -38.2770   24.1470 H   0  0  0  0  0  0  0  0  0  0  0  0
  1  3  2  0
  1  5  1  0
  2  4  1  0
  3  6  1  0
  5  2  2  0
  6  4  2  0
  7  5  1  0
  9  8  1  6
  9  7  1  0
  9 47  1  0
 10 16  1  0
 10  9  1  0
 11 16  1  0
 12 13  1  0
 12 11  1  0
 14 13  1  0
 14 21  1  0
 14 15  1  0
 16 15  1  0
 17 10  2  0
 18 19  2  0
 19 38  1  0
 20 19  1  0
 20 23  1  0
 21 22  1  0
 21 18  1  0
 22 20  2  0
 23 24  1  0
 24 25  2  0
 26 29  1  0
 26 25  1  0
 27 26  2  0
 28 27  1  0
 28 23  2  0
 29 30  1  0
 30 35  2  0
 30 31  1  0
 31 32  2  0
 32 33  1  0
 33 37  1  0
 34 33  2  0
 35 34  1  0
 36 35  1  0
 38 39  1  0
 39 42  1  0
 39 41  1  0
 40 38  2  0
 43 18  1  0
 43 44  1  0
 45 43  1  0
 47 46  1  0
 48  6  1  0
 48 49  1  0
 50 61  2  0
 51 49  1  0
 51 56  1  0
 52 60  1  0
 52 62  1  0
 53 59  1  0
 53 55  1  0
 54 60  1  0
 55 54  1  0
 56 55  2  0
 57 58  1  0
 57 51  2  0
 58 53  2  0
 59 52  1  0
 60 50  1  0
 62 64  2  0
 63 62  1  0
 65 63  1  0
 66 75  2  0
 66 71  1  0
 67 63  1  0
 67 71  1  0
 68 67  1  0
 69 70  1  0
 69 68  1  0
 70 66  1  0
 71 72  2  0
 72 73  1  0
 74 73  2  0
 75 74  1  0
 76 50  1  0
 76 81  1  0
 76 77  1  0
 77 80  1  1
 77 78  1  0
 79 77  1  0
 81 84  1  0
 82 86  1  0
 82 81  1  0
 83 82  2  0
 86 85  1  0
 88 86  1  0
 88 89  1  0
 88 87  1  0
M  ISO  4   9 100  10 100  48 101  49 101
M  END
>  <TORSDO>  (84) 
F 20

>  <SCORE>  (84) 
-13.380

>  <name>  (84) 
83

>  <ligand_id>  (84) 
83

>  <original_smiles>  (84) 
[H]c1c([H])c([H])c2c(c1[H])C([H])([H])C([H])([H])C([H])([H])C2([H])N([H])C(=O)C1([H])N(C(=O)C([H])(N([H])C(=O)C([H])(N([H])C([H])([H])[H])C([H])([H])[H])C(C([H])([H])[H])(C([H])([H])[H])C([H])([H])[H])C([H])([H])c2c([H])c(OC([H])([H])c3c([H])c([H])c(C([H])([H])C(C(=O)N4C([H])([H])C([H])([H])C([H])([H])C([H])(n5nc(-c6c([H])c([H])c(Oc7c([H])c([H])c(F)c([H])c7F)c([H])c6[H])c(C(=O)N([H])[H])c5N([H])[H])C4([H])[H])(C([H])([H])[H])C([H])([H])C([H])([H])[H])c([H])c3[H])c([H])c([H])c2C1([H])[H]

>  <smiles>  (84) 
[H]c1c([H])c([H])c2c(c1[H])C([H])([H])C([H])([H])C([H])([H])C2([H])N([H])C(=O)C1([H])N(C(=O)C([H])(N([H])C(=O)C([H])(N([H])C([H])([H])[H])C([H])([H])[H])C(C([H])([H])[H])(C([H])([H])[H])C([H])([H])[H])C([H])([H])c2c([H])c(OC([H])([H])c3c([H])c([H])c(C([H])([H])C(C(=O)N4C([H])([H])C([H])([H])C([H])([H])C([H])(n5nc(-c6c([H])c([H])c(Oc7c([H])c([H])c(F)c([H])c7F)c([H])c6[H])c(C(=O)N([H])[H])c5N([H])[H])C4([H])[H])(C([H])([H])[H])C([H])([H])C([H])([H])[H])c([H])c3[H])c([H])c([H])c2C1([H])[H]

$$$$
84:0:0
     RDKit          3D

 88 97  0  0  1  0  0  0  0  0999 V2000
  -28.3520  -22.2340   19.0590 C   0  0  0  0  0  2  0  0  0  0  0  0
  -29.4980  -22.6360   20.6950 C   0  0  0  0  0  2  0  0  0  0  0  0
  -28.9810  -23.5950   19.5470 C   0  0  0  0  0  3  0  0  0  0  0  0
  -29.3620  -21.3030   19.8270 C   0  0  0  0  0  3  0  0  0  0  0  0
  -28.5630  -19.8370   21.8840 C   0  0  0  0  0  1  0  0  0  0  0  0
  -28.9020  -19.8240   20.3790 C   0  0  0  0  0  3  0  0  0  0  0  0
  -30.9880  -15.0900   19.9170 C   0  0  0  0  0  0  0  0  0  0  0  0
  -30.6770  -12.7580   18.9940 C   0  0  0  0  0  2  0  0  0  0  0  0
  -29.7030  -12.6420   17.7940 C   0  0  0  0  0  2  0  0  0  0  0  0
  -28.2540  -13.0560   18.1470 C   0  0  0  0  0  2  0  0  0  0  0  0
  -28.0180  -12.9830   19.6650 C   0  0  0  0  0  3  0  0  0  0  0  0
  -29.0560  -13.5800   20.6170 C   0  0  0  0  0  2  0  0  0  0  0  0
  -30.2690  -13.9050   19.8570 N   0  0  0  0  0  0  0  0  0  0  0  0
  -32.1740  -15.0560   19.5750 O   0  0  0  0  0  0  0  0  0  0  0  0
  -29.0740  -16.9710   20.4950 C   0  0  0  0  0  2  0  0  0  0  0  0
  -30.9780  -17.7600   20.1000 C   0  0  0  0  0  2  0  0  0  0  0  0
  -29.5390  -18.3720   19.8900 C   0  0  0  0  0  3  0  0  0  0  0  0
  -30.3850  -16.3650   20.0810 N   0  0  0  0  0  0  0  0  0  0  0  0
  -25.6720  -13.9380   20.4120 C   0  0  0  0  0  0  0  0  0  0  0  0
  -24.5780  -13.2200   20.8440 C   0  0  0  0  0  0  0  0  0  0  0  0
  -24.9620  -11.8470   20.7540 C   0  0  0  0  0  0  0  0  0  0  0  0
  -26.6460  -12.9830   20.1330 N   0  0  0  0  0  0  0  0  0  0  0  0
  -26.2020  -11.7420   20.3680 N   0  0  0  0  0  0  0  0  0  0  0  0
  -24.2390  -10.5970   20.9390 C   0  0  0  0  0  0  0  0  0  0  0  0
  -24.6670   -9.6420   21.8870 C   0  0  0  0  0  3  0  0  0  0  0  0
  -23.9590   -8.4350   22.0460 C   0  0  0  0  0  3  0  0  0  0  0  0
  -22.8100   -8.1860   21.2580 C   0  0  0  0  0  0  0  0  0  0  0  0
  -22.4140   -9.1300   20.2960 C   0  0  0  0  0  3  0  0  0  0  0  0
  -23.1220  -10.3280   20.1320 C   0  0  0  0  0  3  0  0  0  0  0  0
  -22.0620   -7.0410   21.3360 O   0  0  0  0  0  0  0  0  0  0  0  0
  -21.8700   -6.3950   22.5320 C   0  0  0  0  0  0  0  0  0  0  0  0
  -21.2800   -7.0330   23.6470 C   0  0  0  0  0  3  0  0  0  0  0  0
  -21.0510   -6.3030   24.8300 C   0  0  0  0  0  3  0  0  0  0  0  0
  -21.3960   -4.9400   24.8940 C   0  0  0  0  0  0  0  0  0  0  0  0
  -21.9860   -4.3050   23.7850 C   0  0  0  0  0  3  0  0  0  0  0  0
  -22.2180   -5.0340   22.6070 C   0  0  0  0  0  0  0  0  0  0  0  0
  -22.7670   -4.4160   21.5330 F   0  0  0  0  0  0  0  0  0  0  0  0
  -21.1650   -4.2350   26.0250 F   0  0  0  0  0  0  0  0  0  0  0  0
  -23.2230  -13.7290   21.2280 C   0  0  0  0  0  0  0  0  0  0  0  0
  -22.5300  -13.0140   22.1140 N   0  0  0  0  0  0  0  0  0  0  0  0
  -22.7780  -14.7840   20.7820 O   0  0  0  0  0  0  0  0  0  0  0  0
  -22.8990  -12.1570   22.4980 H   0  0  0  0  0  0  0  0  0  0  0  0
  -21.6260  -13.3350   22.4230 H   0  0  0  0  0  0  0  0  0  0  0  0
  -25.8990  -15.3000   20.2290 N   0  0  0  0  0  0  0  0  0  0  0  0
  -25.1770  -15.9990   20.3130 H   0  0  0  0  0  0  0  0  0  0  0  0
  -26.7130  -15.6240   19.7200 H   0  0  0  0  0  0  0  0  0  0  0  0
  -28.0070  -24.9000   19.6980 C   0  0  0  0  0  2  0  0  0  0  0  0
  -28.3350  -26.3850   19.8260 O   0  0  0  0  0  0  0  0  0  0  0  0
  -24.6310  -31.8140   23.0890 C   0  0  0  0  0  0  0  0  0  0  0  0
  -27.2480  -27.3160   19.8390 C   0  0  0  0  0  0  0  0  0  0  0  0
  -23.4280  -30.4540   21.4250 C   0  0  0  0  0  3  0  0  0  0  0  0
  -24.8810  -28.9730   19.9310 C   0  0  0  0  0  0  0  0  0  0  0  0
  -25.9720  -30.7890   21.2290 C   0  0  0  0  0  2  0  0  0  0  0  0
  -26.0600  -29.4290   20.5300 C   0  0  0  0  0  0  0  0  0  0  0  0
  -27.2510  -28.6170   20.4730 C   0  0  0  0  0  3  0  0  0  0  0  0
  -26.0280  -26.9530   19.2210 C   0  0  0  0  0  3  0  0  0  0  0  0
  -24.8690  -27.7450   19.2660 C   0  0  0  0  0  3  0  0  0  0  0  0
  -23.6360  -29.8330   20.0220 C   0  0  0  0  0  2  0  0  0  0  0  0
  -24.6970  -31.0370   21.9680 N   0  0  0  0  0  0  0  0  0  0  0  0
  -23.5500  -32.0460   23.6520 O   0  0  0  0  0  0  0  0  0  0  0  0
  -22.7970  -29.3920   22.3580 C   0  0  0  0  0  0  0  0  0  0  0  0
  -21.4750  -29.1830   22.2380 N   0  0  0  0  0  0  0  0  0  0  0  0
  -23.4970  -28.7580   23.1540 O   0  0  0  0  0  0  0  0  0  0  0  0
  -20.9670  -29.7510   21.5750 H   0  0  0  0  0  0  0  0  0  0  0  0
  -18.1290  -27.8940   22.7370 C   0  0  0  0  0  0  0  0  0  0  0  0
  -20.6840  -28.2050   22.9890 C   0  0  0  0  0  3  0  0  0  0  0  0
  -20.8130  -26.7940   22.3710 C   0  0  0  0  0  2  0  0  0  0  0  0
  -19.7090  -26.4730   21.3580 C   0  0  0  0  0  2  0  0  0  0  0  0
  -18.3330  -26.5690   22.0200 C   0  0  0  0  0  2  0  0  0  0  0  0
  -19.2350  -28.6690   23.1780 C   0  0  0  0  0  0  0  0  0  0  0  0
  -18.9910  -29.9100   23.8070 C   0  0  0  0  0  3  0  0  0  0  0  0
  -17.6750  -30.3730   24.0030 C   0  0  0  0  0  3  0  0  0  0  0  0
  -16.5850  -29.5930   23.5800 C   0  0  0  0  0  3  0  0  0  0  0  0
  -16.8140  -28.3570   22.9500 C   0  0  0  0  0  3  0  0  0  0  0  0
  -25.9080  -32.4510   23.7110 C   0  0  0  0  0  3  0  0  0  0  0  0
  -25.5710  -33.8280   24.0990 N   0  0  0  0  0  0  0  0  0  0  0  0
  -25.8470  -34.9170   23.3680 C   0  0  0  0  0  0  0  0  0  0  0  0
  -26.4800  -34.8690   22.3090 O   0  0  0  0  0  0  0  0  0  0  0  0
  -24.9990  -33.9320   24.9240 H   0  0  0  0  0  0  0  0  0  0  0  0
  -24.0530  -36.6730   23.1610 C   0  0  0  0  0  1  0  0  0  0  0  0
  -25.3420  -36.2750   23.8960 C   0  0  0  0  0  3  0  0  0  0  0  0
  -27.4820  -37.2100   24.6590 C   0  0  0  0  0  1  0  0  0  0  0  0
  -26.3330  -37.3640   23.7710 N   0  0  0  0  0  0  0  0  0  0  0  0
  -25.9070  -38.2700   23.9550 H   0  0  0  0  0  0  0  0  0  0  0  0
  -26.4600  -31.6510   24.9570 C   0  0  1  0  0  0  0  0  0  0  0  0
  -25.3940  -31.3500   26.0360 C   0  0  0  0  0  1  0  0  0  0  0  0
  -27.0710  -30.3000   24.5170 C   0  0  0  0  0  1  0  0  0  0  0  0
  -27.5980  -32.4510   25.6330 C   0  0  0  0  0  1  0  0  0  0  0  0
  1  3  1  0
  1  4  1  0
  3 47  1  0
  3  2  1  0
  4  6  1  0
  4  2  1  0
  6  5  1  0
  7 18  1  0
  8 13  1  0
  9 10  1  0
  9  8  1  0
 11 10  1  0
 11 22  1  0
 11 12  1  0
 13  7  1  0
 13 12  1  0
 14  7  2  0
 17 16  1  0
 17  6  1  0
 17 15  1  0
 18 16  1  0
 18 15  1  0
 19 20  2  0
 20 39  1  0
 21 20  1  0
 21 24  1  0
 22 23  1  0
 22 19  1  0
 23 21  2  0
 24 25  1  0
 25 26  2  0
 27 30  1  0
 27 26  1  0
 28 27  2  0
 29 28  1  0
 29 24  2  0
 30 31  1  0
 31 36  2  0
 31 32  1  0
 32 33  2  0
 33 34  1  0
 34 38  1  0
 35 34  2  0
 36 35  1  0
 37 36  1  0
 39 40  1  0
 40 43  1  0
 40 42  1  0
 41 39  2  0
 44 45  1  0
 44 19  1  0
 46 44  1  0
 47 48  1  0
 48 50  1  0
 49 60  2  0
 50 55  1  0
 51 59  1  0
 51 61  1  0
 52 58  1  0
 52 54  1  0
 53 59  1  0
 54 53  1  0
 55 54  2  0
 56 57  1  0
 56 50  2  0
 57 52  2  0
 58 51  1  0
 59 49  1  0
 61 63  2  0
 62 61  1  0
 64 62  1  0
 65 74  2  0
 65 70  1  0
 66 62  1  0
 66 70  1  0
 67 66  1  0
 68 69  1  0
 68 67  1  0
 69 65  1  0
 70 71  2  0
 71 72  1  0
 73 72  2  0
 74 73  1  0
 75 49  1  0
 75 76  1  0
 75 85  1  0
 76 79  1  0
 77 81  1  0
 77 76  1  0
 78 77  2  0
 81 80  1  0
 83 81  1  0
 83 84  1  0
 83 82  1  0
 85 88  1  1
 85 86  1  0
 87 85  1  0
M  ISO  4   7 100  18 100  47 101  48 101
M  END
>  <TORSDO>  (85) 
F 18

>  <SCORE>  (85) 
-12.306

>  <name>  (85) 
84

>  <ligand_id>  (85) 
84

>  <original_smiles>  (85) 
[H]c1c([H])c([H])c2c(c1[H])C([H])([H])C([H])([H])C([H])([H])C2([H])N([H])C(=O)C1([H])N(C(=O)C([H])(N([H])C(=O)C([H])(N([H])C([H])([H])[H])C([H])([H])[H])C(C([H])([H])[H])(C([H])([H])[H])C([H])([H])[H])C([H])([H])c2c([H])c(OC([H])([H])C3([H])C([H])([H])C([H])(C([H])(C([H])([H])[H])C4([H])C([H])([H])N(C(=O)N5C([H])([H])C([H])([H])C([H])([H])C([H])(n6nc(-c7c([H])c([H])c(Oc8c([H])c([H])c(F)c([H])c8F)c([H])c7[H])c(C(=O)N([H])[H])c6N([H])[H])C5([H])[H])C4([H])[H])C3([H])[H])c([H])c([H])c2C1([H])[H]

>  <smiles>  (85) 
[H]c1c([H])c([H])c2c(c1[H])C([H])([H])C([H])([H])C([H])([H])C2([H])N([H])C(=O)C1([H])N(C(=O)C([H])(N([H])C(=O)C([H])(N([H])C([H])([H])[H])C([H])([H])[H])C(C([H])([H])[H])(C([H])([H])[H])C([H])([H])[H])C([H])([H])c2c([H])c(OC([H])([H])C3([H])C([H])([H])C([H])(C([H])(C([H])([H])[H])C4([H])C([H])([H])N(C(=O)N5C([H])([H])C([H])([H])C([H])([H])C([H])(n6nc(-c7c([H])c([H])c(Oc8c([H])c([H])c(F)c([H])c8F)c([H])c7[H])c(C(=O)N([H])[H])c6N([H])[H])C5([H])[H])C4([H])[H])C3([H])[H])c([H])c([H])c2C1([H])[H]

$$$$
85:0:0
     RDKit          3D

 89 97  0  0  1  0  0  0  0  0999 V2000
  -30.2060  -22.5770   18.9870 C   0  0  0  0  0  3  0  0  0  0  0  0
  -29.4750  -21.8730   19.8510 C   0  0  0  0  0  0  0  0  0  0  0  0
  -30.2440  -24.0570   19.2960 C   0  0  0  0  0  2  0  0  0  0  0  0
  -28.8790  -22.7760   20.9100 C   0  0  0  0  0  2  0  0  0  0  0  0
  -29.3120  -24.2340   20.5230 C   0  0  0  0  0  3  0  0  0  0  0  0
  -29.1360  -20.3790   19.7490 C   0  0  0  0  0  2  0  0  0  0  0  0
  -29.9420  -19.4080   20.6540 C   0  0  0  0  0  2  0  0  0  0  0  0
  -29.5650  -17.9100   20.4320 C   0  0  0  0  0  2  0  0  0  0  0  0
  -30.4070  -16.8860   21.2440 C   0  0  0  0  0  2  0  0  0  0  0  0
  -30.6510  -14.4720   20.5130 C   0  0  0  0  0  0  0  0  0  0  0  0
  -30.3520  -12.3120   19.3550 C   0  0  0  0  0  2  0  0  0  0  0  0
  -29.4130  -12.5040   18.1460 C   0  0  0  0  0  2  0  0  0  0  0  0
  -27.9350  -12.3780   18.5690 C   0  0  0  0  0  2  0  0  0  0  0  0
  -27.5950  -13.2230   19.8270 C   0  0  0  0  0  3  0  0  0  0  0  0
  -28.6440  -12.9990   20.9390 C   0  0  0  0  0  2  0  0  0  0  0  0
  -29.9700  -13.3000   20.3760 N   0  0  0  0  0  0  0  0  0  0  0  0
  -31.7810  -14.6460   20.0490 O   0  0  0  0  0  0  0  0  0  0  0  0
  -29.9600  -15.4890   21.0680 N   0  0  0  0  0  0  0  0  0  0  0  0
  -29.0320  -15.2620   21.3930 H   0  0  0  0  0  0  0  0  0  0  0  0
  -25.1940  -13.8460   20.5110 C   0  0  0  0  0  0  0  0  0  0  0  0
  -24.1190  -13.0820   20.8780 C   0  0  0  0  0  0  0  0  0  0  0  0
  -24.5750  -11.7270   20.8640 C   0  0  0  0  0  0  0  0  0  0  0  0
  -26.2380  -12.9580   20.2990 N   0  0  0  0  0  0  0  0  0  0  0  0
  -25.8680  -11.6800   20.5670 N   0  0  0  0  0  0  0  0  0  0  0  0
  -23.8420  -10.4690   21.0580 C   0  0  0  0  0  0  0  0  0  0  0  0
  -24.2760   -9.4970   21.9850 C   0  0  0  0  0  3  0  0  0  0  0  0
  -23.5440   -8.3040   22.1680 C   0  0  0  0  0  3  0  0  0  0  0  0
  -22.3630   -8.0750   21.4240 C   0  0  0  0  0  0  0  0  0  0  0  0
  -21.9480   -9.0360   20.4840 C   0  0  0  0  0  3  0  0  0  0  0  0
  -22.6810  -10.2200   20.3000 C   0  0  0  0  0  3  0  0  0  0  0  0
  -21.6020   -6.9350   21.5160 O   0  0  0  0  0  0  0  0  0  0  0  0
  -21.5710   -6.1810   22.6620 C   0  0  0  0  0  0  0  0  0  0  0  0
  -21.1840   -6.7290   23.9040 C   0  0  0  0  0  3  0  0  0  0  0  0
  -21.0990   -5.9030   25.0420 C   0  0  0  0  0  3  0  0  0  0  0  0
  -21.3900   -4.5300   24.9400 C   0  0  0  0  0  0  0  0  0  0  0  0
  -21.7700   -3.9810   23.7020 C   0  0  0  0  0  3  0  0  0  0  0  0
  -21.8570   -4.8040   22.5670 C   0  0  0  0  0  0  0  0  0  0  0  0
  -22.2020   -4.2660   21.3720 F   0  0  0  0  0  0  0  0  0  0  0  0
  -21.3010   -3.7340   26.0310 F   0  0  0  0  0  0  0  0  0  0  0  0
  -22.7210  -13.5660   21.1350 C   0  0  0  0  0  0  0  0  0  0  0  0
  -21.9840  -12.8830   22.0030 N   0  0  0  0  0  0  0  0  0  0  0  0
  -22.2900  -14.5880   20.6010 O   0  0  0  0  0  0  0  0  0  0  0  0
  -22.3460  -12.0570   22.4570 H   0  0  0  0  0  0  0  0  0  0  0  0
  -21.0460  -13.1890   22.2200 H   0  0  0  0  0  0  0  0  0  0  0  0
  -25.3690  -15.2140   20.3210 N   0  0  0  0  0  0  0  0  0  0  0  0
  -24.6090  -15.8790   20.4170 H   0  0  0  0  0  0  0  0  0  0  0  0
  -26.2270  -15.6390   19.9930 H   0  0  0  0  0  0  0  0  0  0  0  0
  -28.0970  -25.1630   20.2360 C   0  0  0  0  0  2  0  0  0  0  0  0
  -28.3420  -26.5930   20.1970 O   0  0  0  0  0  0  0  0  0  0  0  0
  -24.6170  -31.8800   23.2610 C   0  0  0  0  0  0  0  0  0  0  0  0
  -27.2010  -27.3870   20.1650 C   0  0  0  0  0  0  0  0  0  0  0  0
  -23.3930  -30.4880   21.6290 C   0  0  0  0  0  3  0  0  0  0  0  0
  -24.8260  -28.9470   20.1920 C   0  0  0  0  0  0  0  0  0  0  0  0
  -25.9260  -30.8200   21.4180 C   0  0  0  0  0  2  0  0  0  0  0  0
  -25.9970  -29.4490   20.7700 C   0  0  0  0  0  0  0  0  0  0  0  0
  -27.1890  -28.6800   20.7500 C   0  0  0  0  0  3  0  0  0  0  0  0
  -26.0040  -26.9200   19.5690 C   0  0  0  0  0  3  0  0  0  0  0  0
  -24.8260  -27.6830   19.5880 C   0  0  0  0  0  3  0  0  0  0  0  0
  -23.5900  -29.8160   20.2460 C   0  0  0  0  0  2  0  0  0  0  0  0
  -24.6640  -31.0770   22.1600 N   0  0  0  0  0  0  0  0  0  0  0  0
  -23.5400  -32.1590   23.8060 O   0  0  0  0  0  0  0  0  0  0  0  0
  -22.7390  -29.4680   22.5910 C   0  0  0  0  0  0  0  0  0  0  0  0
  -21.4140  -29.2880   22.4650 N   0  0  0  0  0  0  0  0  0  0  0  0
  -23.4230  -28.8420   23.4050 O   0  0  0  0  0  0  0  0  0  0  0  0
  -20.9230  -29.8430   21.7790 H   0  0  0  0  0  0  0  0  0  0  0  0
  -18.0390  -28.0980   22.9710 C   0  0  0  0  0  0  0  0  0  0  0  0
  -20.5960  -28.3540   23.2410 C   0  0  0  0  0  3  0  0  0  0  0  0
  -20.6970  -26.9200   22.6710 C   0  0  0  0  0  2  0  0  0  0  0  0
  -19.5950  -26.5950   21.6580 C   0  0  0  0  0  2  0  0  0  0  0  0
  -18.2130  -26.7450   22.3030 C   0  0  0  0  0  2  0  0  0  0  0  0
  -19.1580  -28.8590   23.3990 C   0  0  0  0  0  0  0  0  0  0  0  0
  -18.9420  -30.1260   23.9830 C   0  0  0  0  0  3  0  0  0  0  0  0
  -17.6380  -30.6310   24.1470 C   0  0  0  0  0  3  0  0  0  0  0  0
  -16.5330  -29.8660   23.7370 C   0  0  0  0  0  3  0  0  0  0  0  0
  -16.7340  -28.6010   23.1550 C   0  0  0  0  0  3  0  0  0  0  0  0
  -25.9100  -32.5040   23.8710 C   0  0  0  0  0  3  0  0  0  0  0  0
  -25.6080  -33.9010   24.2110 N   0  0  0  0  0  0  0  0  0  0  0  0
  -25.9250  -34.9540   23.4460 C   0  0  0  0  0  0  0  0  0  0  0  0
  -26.5730  -34.8530   22.4010 O   0  0  0  0  0  0  0  0  0  0  0  0
  -25.0320  -34.0540   25.0260 H   0  0  0  0  0  0  0  0  0  0  0  0
  -24.1840  -36.7420   23.1370 C   0  0  0  0  0  1  0  0  0  0  0  0
  -25.4460  -36.3420   23.9170 C   0  0  0  0  0  3  0  0  0  0  0  0
  -27.6010  -37.2290   24.6900 C   0  0  0  0  0  1  0  0  0  0  0  0
  -26.4740  -37.3960   23.7770 N   0  0  0  0  0  0  0  0  0  0  0  0
  -26.0710  -38.3150   23.9370 H   0  0  0  0  0  0  0  0  0  0  0  0
  -26.4380  -31.7230   25.1360 C   0  0  1  0  0  0  0  0  0  0  0  0
  -25.3560  -31.4830   26.2160 C   0  0  0  0  0  1  0  0  0  0  0  0
  -27.0130  -30.3460   24.7290 C   0  0  0  0  0  1  0  0  0  0  0  0
  -27.5990  -32.5100   25.7890 C   0  0  0  0  0  1  0  0  0  0  0  0
  1  3  1  0
  1  2  2  0
  2  4  1  0
  3  5  1  0
  5 48  1  0
  5  4  1  0
  6  2  1  0
  6  7  1  0
  8  7  1  0
  8  9  1  0
 10 18  1  0
 11 16  1  0
 12 13  1  0
 12 11  1  0
 14 13  1  0
 14 23  1  0
 14 15  1  0
 16 10  1  0
 16 15  1  0
 17 10  2  0
 18  9  1  0
 18 19  1  0
 20 21  2  0
 21 40  1  0
 22 21  1  0
 22 25  1  0
 23 20  1  0
 23 24  1  0
 24 22  2  0
 25 26  1  0
 26 27  2  0
 28 31  1  0
 28 27  1  0
 29 28  2  0
 30 29  1  0
 30 25  2  0
 31 32  1  0
 32 33  1  0
 33 34  2  0
 35 34  1  0
 35 39  1  0
 36 35  2  0
 37 32  2  0
 37 36  1  0
 38 37  1  0
 40 41  1  0
 41 44  1  0
 41 43  1  0
 42 40  2  0
 45 46  1  0
 45 20  1  0
 47 45  1  0
 49 48  1  0
 50 61  2  0
 51 49  1  0
 51 56  1  0
 52 60  1  0
 52 62  1  0
 53 59  1  0
 53 55  1  0
 54 60  1  0
 55 54  1  0
 56 55  2  0
 57 58  1  0
 57 51  2  0
 58 53  2  0
 59 52  1  0
 60 50  1  0
 62 64  2  0
 63 62  1  0
 65 63  1  0
 66 75  2  0
 66 71  1  0
 67 63  1  0
 67 71  1  0
 68 67  1  0
 69 70  1  0
 69 68  1  0
 70 66  1  0
 71 72  2  0
 72 73  1  0
 74 73  2  0
 75 74  1  0
 76 50  1  0
 76 77  1  0
 76 86  1  0
 77 80  1  0
 78 82  1  0
 78 77  1  0
 79 78  2  0
 82 81  1  0
 84 82  1  0
 84 85  1  0
 84 83  1  0
 86 89  1  1
 86 87  1  0
 88 86  1  0
M  ISO  4  10 100  18 100  48 101  49 101
M  END
>  <TORSDO>  (86) 
F 21

>  <SCORE>  (86) 
-13.373

>  <name>  (86) 
85

>  <ligand_id>  (86) 
85

>  <original_smiles>  (86) 
[H]C1=C(C([H])([H])C([H])([H])C([H])([H])C([H])([H])N([H])C(=O)N2C([H])([H])C([H])([H])C([H])([H])C([H])(n3nc(-c4c([H])c([H])c(Oc5c([H])c([H])c(F)c([H])c5F)c([H])c4[H])c(C(=O)N([H])[H])c3N([H])[H])C2([H])[H])C([H])([H])C([H])(C([H])([H])Oc2c([H])c([H])c3c(c2[H])C([H])([H])N(C(=O)C([H])(N([H])C(=O)C([H])(N([H])C([H])([H])[H])C([H])([H])[H])C(C([H])([H])[H])(C([H])([H])[H])C([H])([H])[H])C([H])(C(=O)N([H])C2([H])c4c([H])c([H])c([H])c([H])c4C([H])([H])C([H])([H])C2([H])[H])C3([H])[H])C1([H])[H]

>  <smiles>  (86) 
[H]C1=C(C([H])([H])C([H])([H])C([H])([H])C([H])([H])N([H])C(=O)N2C([H])([H])C([H])([H])C([H])([H])C([H])(n3nc(-c4c([H])c([H])c(Oc5c([H])c([H])c(F)c([H])c5F)c([H])c4[H])c(C(=O)N([H])[H])c3N([H])[H])C2([H])[H])C([H])([H])C([H])(C([H])([H])Oc2c([H])c([H])c3c(c2[H])C([H])([H])N(C(=O)C([H])(N([H])C(=O)C([H])(N([H])C([H])([H])[H])C([H])([H])[H])C(C([H])([H])[H])(C([H])([H])[H])C([H])([H])[H])C([H])(C(=O)N([H])C2([H])c4c([H])c([H])c([H])c([H])c4C([H])([H])C([H])([H])C2([H])[H])C3([H])[H])C1([H])[H]

$$$$
86:0:0
     RDKit          3D

 87 95  0  0  1  0  0  0  0  0999 V2000
  -28.8630  -21.1270   20.5820 C   0  0  0  0  0  0  0  0  0  0  0  0
  -28.4410  -21.0580   21.7380 O   0  0  0  0  0  0  0  0  0  0  0  0
  -30.4690  -15.3590   20.1640 C   0  0  0  0  0  0  0  0  0  0  0  0
  -30.4000  -12.9220   19.2760 C   0  0  0  0  0  2  0  0  0  0  0  0
  -29.4690  -12.6970   18.0610 C   0  0  0  0  0  2  0  0  0  0  0  0
  -28.0270  -12.4180   18.5240 C   0  0  0  0  0  2  0  0  0  0  0  0
  -27.5810  -13.3820   19.6520 C   0  0  0  0  0  3  0  0  0  0  0  0
  -28.6480  -13.5650   20.7510 C   0  0  0  0  0  2  0  0  0  0  0  0
  -29.8590  -14.0730   20.0840 N   0  0  0  0  0  0  0  0  0  0  0  0
  -31.7020  -15.2880   20.0460 O   0  0  0  0  0  0  0  0  0  0  0  0
  -28.1350  -18.5940   19.5770 C   0  0  0  0  0  2  0  0  0  0  0  0
  -28.5520  -17.0470   19.4730 C   0  0  0  0  0  2  0  0  0  0  0  0
  -29.3170  -19.5540   19.9200 C   0  0  0  0  0  3  0  0  0  0  0  0
  -30.1560  -18.2160   20.6190 C   0  0  0  0  0  3  0  0  0  0  0  0
  -31.6750  -18.4440   20.5860 C   0  0  0  0  0  1  0  0  0  0  0  0
  -29.7830  -16.6920   20.2170 N   0  0  0  0  0  0  0  0  0  0  0  0
  -25.2180  -13.9210   20.4530 C   0  0  0  0  0  0  0  0  0  0  0  0
  -24.1690  -13.1360   20.8340 C   0  0  0  0  0  0  0  0  0  0  0  0
  -24.6480  -11.7910   20.7980 C   0  0  0  0  0  0  0  0  0  0  0  0
  -26.2670  -13.0570   20.1910 N   0  0  0  0  0  0  0  0  0  0  0  0
  -25.9360  -11.7680   20.4700 N   0  0  0  0  0  0  0  0  0  0  0  0
  -23.9340  -10.5240   20.9970 C   0  0  0  0  0  0  0  0  0  0  0  0
  -24.3770   -9.5630   21.9300 C   0  0  0  0  0  3  0  0  0  0  0  0
  -23.6590   -8.3630   22.1180 C   0  0  0  0  0  3  0  0  0  0  0  0
  -22.4840   -8.1150   21.3680 C   0  0  0  0  0  0  0  0  0  0  0  0
  -22.0600   -9.0640   20.4220 C   0  0  0  0  0  3  0  0  0  0  0  0
  -22.7800  -10.2560   20.2330 C   0  0  0  0  0  3  0  0  0  0  0  0
  -21.7370   -6.9660   21.4640 O   0  0  0  0  0  0  0  0  0  0  0  0
  -21.6950   -6.2300   22.6200 C   0  0  0  0  0  0  0  0  0  0  0  0
  -21.2600   -6.7860   23.8430 C   0  0  0  0  0  3  0  0  0  0  0  0
  -21.1640   -5.9740   24.9900 C   0  0  0  0  0  3  0  0  0  0  0  0
  -21.4950   -4.6080   24.9180 C   0  0  0  0  0  0  0  0  0  0  0  0
  -21.9270   -4.0510   23.7010 C   0  0  0  0  0  3  0  0  0  0  0  0
  -22.0230   -4.8590   22.5550 C   0  0  0  0  0  0  0  0  0  0  0  0
  -22.4170   -4.3120   21.3800 F   0  0  0  0  0  0  0  0  0  0  0  0
  -21.3980   -3.8280   26.0200 F   0  0  0  0  0  0  0  0  0  0  0  0
  -22.7700  -13.6030   21.1110 C   0  0  0  0  0  0  0  0  0  0  0  0
  -22.0500  -12.9050   21.9820 N   0  0  0  0  0  0  0  0  0  0  0  0
  -22.3240  -14.6260   20.5910 O   0  0  0  0  0  0  0  0  0  0  0  0
  -22.4230  -12.0840   22.4330 H   0  0  0  0  0  0  0  0  0  0  0  0
  -21.1120  -13.2040   22.2090 H   0  0  0  0  0  0  0  0  0  0  0  0
  -25.3560  -15.2940   20.2760 N   0  0  0  0  0  0  0  0  0  0  0  0
  -24.5790  -15.9320   20.4070 H   0  0  0  0  0  0  0  0  0  0  0  0
  -26.1910  -15.7520   19.9390 H   0  0  0  0  0  0  0  0  0  0  0  0
  -28.8750  -22.7660   19.9530 C   0  0  0  0  0  2  0  0  0  0  0  0
  -28.0360  -24.2950   20.4480 C   0  0  0  0  0  2  0  0  0  0  0  0
  -28.2400  -25.9270   20.2310 O   0  0  0  0  0  0  0  0  0  0  0  0
  -24.6280  -31.8950   23.2070 C   0  0  0  0  0  0  0  0  0  0  0  0
  -27.2070  -27.0070   20.2240 C   0  0  0  0  0  0  0  0  0  0  0  0
  -23.4420  -30.4870   21.5750 C   0  0  0  0  0  3  0  0  0  0  0  0
  -24.8980  -28.8770   20.1690 C   0  0  0  0  0  0  0  0  0  0  0  0
  -26.0090  -30.7060   21.4290 C   0  0  0  0  0  2  0  0  0  0  0  0
  -26.0860  -29.2910   20.7850 C   0  0  0  0  0  0  0  0  0  0  0  0
  -27.2370  -28.3810   20.7820 C   0  0  0  0  0  3  0  0  0  0  0  0
  -25.9870  -26.7430   19.5640 C   0  0  0  0  0  3  0  0  0  0  0  0
  -24.8740  -27.6220   19.5380 C   0  0  0  0  0  3  0  0  0  0  0  0
  -23.6780  -29.7960   20.2050 C   0  0  0  0  0  2  0  0  0  0  0  0
  -24.7150  -31.0590   22.1230 N   0  0  0  0  0  0  0  0  0  0  0  0
  -23.5380  -32.1840   23.7250 O   0  0  0  0  0  0  0  0  0  0  0  0
  -22.7490  -29.4940   22.5450 C   0  0  0  0  0  0  0  0  0  0  0  0
  -21.4180  -29.3330   22.4250 N   0  0  0  0  0  0  0  0  0  0  0  0
  -23.4150  -28.8710   23.3740 O   0  0  0  0  0  0  0  0  0  0  0  0
  -20.9340  -29.8860   21.7320 H   0  0  0  0  0  0  0  0  0  0  0  0
  -18.0350  -28.1290   22.9470 C   0  0  0  0  0  0  0  0  0  0  0  0
  -20.5950  -28.3970   23.2000 C   0  0  0  0  0  3  0  0  0  0  0  0
  -20.6950  -26.9640   22.6270 C   0  0  0  0  0  2  0  0  0  0  0  0
  -19.5900  -26.6390   21.6170 C   0  0  0  0  0  2  0  0  0  0  0  0
  -18.2090  -26.7810   22.2680 C   0  0  0  0  0  2  0  0  0  0  0  0
  -19.1540  -28.8940   23.3700 C   0  0  0  0  0  0  0  0  0  0  0  0
  -18.9340  -30.1530   23.9700 C   0  0  0  0  0  3  0  0  0  0  0  0
  -17.6280  -30.6480   24.1480 C   0  0  0  0  0  3  0  0  0  0  0  0
  -16.5230  -29.8820   23.7380 C   0  0  0  0  0  3  0  0  0  0  0  0
  -16.7280  -28.6240   23.1440 C   0  0  0  0  0  3  0  0  0  0  0  0
  -25.8950  -32.5470   23.8410 C   0  0  0  0  0  3  0  0  0  0  0  0
  -25.5710  -33.9480   24.1640 N   0  0  0  0  0  0  0  0  0  0  0  0
  -25.9070  -35.0070   23.4130 C   0  0  0  0  0  0  0  0  0  0  0  0
  -26.5850  -34.9050   22.3880 O   0  0  0  0  0  0  0  0  0  0  0  0
  -24.9690  -34.0980   24.9590 H   0  0  0  0  0  0  0  0  0  0  0  0
  -24.1820  -36.8090   23.0540 C   0  0  0  0  0  1  0  0  0  0  0  0
  -25.4180  -36.3970   23.8710 C   0  0  0  0  0  3  0  0  0  0  0  0
  -27.5490  -37.2830   24.7180 C   0  0  0  0  0  1  0  0  0  0  0  0
  -26.4530  -37.4510   23.7660 N   0  0  0  0  0  0  0  0  0  0  0  0
  -26.0470  -38.3710   23.9060 H   0  0  0  0  0  0  0  0  0  0  0  0
  -26.3950  -31.7940   25.1380 C   0  0  1  0  0  0  0  0  0  0  0  0
  -25.2900  -31.5730   26.1970 C   0  0  0  0  0  1  0  0  0  0  0  0
  -26.9810  -30.4090   24.7790 C   0  0  0  0  0  1  0  0  0  0  0  0
  -27.5390  -32.5970   25.8010 C   0  0  0  0  0  1  0  0  0  0  0  0
  1  2  2  0
  3 16  1  0
  4  9  1  0
  5  6  1  0
  5  4  1  0
  7  6  1  0
  7 20  1  0
  7  8  1  0
  9  3  1  0
  9  8  1  0
 10  3  2  0
 11 13  1  0
 12 11  1  0
 12 16  1  0
 13  1  1  0
 13 14  1  0
 14 15  1  0
 16 14  1  0
 17 18  2  0
 18 37  1  0
 19 18  1  0
 19 22  1  0
 20 17  1  0
 20 21  1  0
 21 19  2  0
 22 23  1  0
 23 24  2  0
 25 28  1  0
 25 24  1  0
 26 25  2  0
 27 26  1  0
 27 22  2  0
 28 29  1  0
 29 30  1  0
 30 31  2  0
 32 31  1  0
 32 36  1  0
 33 32  2  0
 34 29  2  0
 34 33  1  0
 35 34  1  0
 37 38  1  0
 38 41  1  0
 38 40  1  0
 39 37  2  0
 42 43  1  0
 42 17  1  0
 44 42  1  0
 45 46  1  0
 45  1  1  0
 47 46  1  0
 48 59  2  0
 49 47  1  0
 49 54  1  0
 50 58  1  0
 50 60  1  0
 51 57  1  0
 51 53  1  0
 52 58  1  0
 53 52  1  0
 54 53  2  0
 55 49  2  0
 56 55  1  0
 56 51  2  0
 57 50  1  0
 58 48  1  0
 60 62  2  0
 61 60  1  0
 63 61  1  0
 64 73  2  0
 64 69  1  0
 65 61  1  0
 65 69  1  0
 66 65  1  0
 67 68  1  0
 67 66  1  0
 68 64  1  0
 69 70  2  0
 70 71  1  0
 72 71  2  0
 73 72  1  0
 74 48  1  0
 74 75  1  0
 74 84  1  0
 75 78  1  0
 76 80  1  0
 76 75  1  0
 77 76  2  0
 80 79  1  0
 82 80  1  0
 82 83  1  0
 82 81  1  0
 84 87  1  1
 84 85  1  0
 86 84  1  0
M  ISO  4   3 100  16 100  46 101  47 101
M  END
>  <TORSDO>  (87) 
F 18

>  <SCORE>  (87) 
-16.806

>  <name>  (87) 
86

>  <ligand_id>  (87) 
86

>  <original_smiles>  (87) 
[H]c1c([H])c([H])c2c(c1[H])C([H])([H])C([H])([H])C([H])([H])C2([H])N([H])C(=O)C1([H])N(C(=O)C([H])(N([H])C(=O)C([H])(N([H])C([H])([H])[H])C([H])([H])[H])C(C([H])([H])[H])(C([H])([H])[H])C([H])([H])[H])C([H])([H])c2c([H])c(OC([H])([H])C([H])([H])C(=O)C3([H])C([H])([H])C([H])([H])N(C(=O)N4C([H])([H])C([H])([H])C([H])([H])C([H])(n5nc(-c6c([H])c([H])c(Oc7c([H])c([H])c(F)c([H])c7F)c([H])c6[H])c(C(=O)N([H])[H])c5N([H])[H])C4([H])[H])C3([H])C([H])([H])[H])c([H])c([H])c2C1([H])[H]

>  <smiles>  (87) 
[H]c1c([H])c([H])c2c(c1[H])C([H])([H])C([H])([H])C([H])([H])C2([H])N([H])C(=O)C1([H])N(C(=O)C([H])(N([H])C(=O)C([H])(N([H])C([H])([H])[H])C([H])([H])[H])C(C([H])([H])[H])(C([H])([H])[H])C([H])([H])[H])C([H])([H])c2c([H])c(OC([H])([H])C([H])([H])C(=O)C3([H])C([H])([H])C([H])([H])N(C(=O)N4C([H])([H])C([H])([H])C([H])([H])C([H])(n5nc(-c6c([H])c([H])c(Oc7c([H])c([H])c(F)c([H])c7F)c([H])c6[H])c(C(=O)N([H])[H])c5N([H])[H])C4([H])[H])C3([H])C([H])([H])[H])c([H])c([H])c2C1([H])[H]

$$$$
87:0:0
     RDKit          3D

 91 99  0  0  1  0  0  0  0  0999 V2000
  -30.8570  -16.0060   20.3500 C   0  0  0  0  0  0  0  0  0  0  0  0
  -30.8700  -13.5250   19.4030 C   0  0  0  0  0  2  0  0  0  0  0  0
  -29.9760  -13.2330   18.1670 C   0  0  0  0  0  2  0  0  0  0  0  0
  -28.5310  -12.9210   18.5910 C   0  0  0  0  0  2  0  0  0  0  0  0
  -28.0450  -13.8750   19.7070 C   0  0  0  0  0  3  0  0  0  0  0  0
  -29.0780  -14.0840   20.8370 C   0  0  0  0  0  2  0  0  0  0  0  0
  -30.2760  -14.6800   20.2070 N   0  0  0  0  0  0  0  0  0  0  0  0
  -32.0960  -15.8950   20.3050 O   0  0  0  0  0  0  0  0  0  0  0  0
  -31.1360  -18.2960   18.1980 C   0  0  0  0  0  2  0  0  0  0  0  0
  -31.2200  -19.5080   19.0960 C   0  0  0  0  0  2  0  0  0  0  0  0
  -29.9800  -17.4600   18.7600 C   0  0  0  0  0  3  0  0  0  0  0  0
  -30.4820  -19.1470   20.3970 C   0  0  0  0  0  3  0  0  0  0  0  0
  -30.1550  -17.4000   20.2440 N   0  0  0  0  0  0  0  0  0  0  0  0
  -25.6790  -14.4180   20.4610 C   0  0  0  0  0  0  0  0  0  0  0  0
  -24.6050  -13.6420   20.7880 C   0  0  0  0  0  0  0  0  0  0  0  0
  -25.0580  -12.2890   20.7220 C   0  0  0  0  0  0  0  0  0  0  0  0
  -26.7170  -13.5430   20.2040 N   0  0  0  0  0  0  0  0  0  0  0  0
  -26.3560  -12.2500   20.4300 N   0  0  0  0  0  0  0  0  0  0  0  0
  -24.3110  -11.0320   20.8620 C   0  0  0  0  0  0  0  0  0  0  0  0
  -24.6720  -10.0580   21.8190 C   0  0  0  0  0  3  0  0  0  0  0  0
  -23.9190   -8.8710   21.9520 C   0  0  0  0  0  3  0  0  0  0  0  0
  -22.7930   -8.6470   21.1240 C   0  0  0  0  0  0  0  0  0  0  0  0
  -22.4520   -9.6090   20.1550 C   0  0  0  0  0  3  0  0  0  0  0  0
  -23.2050  -10.7870   20.0220 C   0  0  0  0  0  3  0  0  0  0  0  0
  -22.0200   -7.5110   21.1620 O   0  0  0  0  0  0  0  0  0  0  0  0
  -21.8180   -6.8160   22.3290 C   0  0  0  0  0  0  0  0  0  0  0  0
  -21.2600   -7.4290   23.4720 C   0  0  0  0  0  3  0  0  0  0  0  0
  -21.0030   -6.6620   24.6270 C   0  0  0  0  0  3  0  0  0  0  0  0
  -21.2940   -5.2850   24.6380 C   0  0  0  0  0  0  0  0  0  0  0  0
  -21.8440   -4.6730   23.4980 C   0  0  0  0  0  3  0  0  0  0  0  0
  -22.1010   -5.4360   22.3470 C   0  0  0  0  0  0  0  0  0  0  0  0
  -22.6110   -4.8360   21.2430 F   0  0  0  0  0  0  0  0  0  0  0  0
  -21.0400   -4.5460   25.7440 F   0  0  0  0  0  0  0  0  0  0  0  0
  -23.2090  -14.1310   21.0370 C   0  0  0  0  0  0  0  0  0  0  0  0
  -22.4620  -13.4510   21.9000 N   0  0  0  0  0  0  0  0  0  0  0  0
  -22.7880  -15.1580   20.5040 O   0  0  0  0  0  0  0  0  0  0  0  0
  -22.8130  -12.6260   22.3610 H   0  0  0  0  0  0  0  0  0  0  0  0
  -21.5270  -13.7680   22.1080 H   0  0  0  0  0  0  0  0  0  0  0  0
  -25.8430  -15.7920   20.3300 N   0  0  0  0  0  0  0  0  0  0  0  0
  -25.0500  -16.4170   20.4160 H   0  0  0  0  0  0  0  0  0  0  0  0
  -26.6620  -16.2710   19.9580 H   0  0  0  0  0  0  0  0  0  0  0  0
  -28.5520  -17.9450   18.3990 C   0  0  0  0  0  0  0  0  0  0  0  0
  -27.5610  -17.2370   18.5880 O   0  0  0  0  0  0  0  0  0  0  0  0
  -28.3960  -19.3450   17.7830 C   0  0  0  0  0  2  0  0  0  0  0  0
  -25.9170  -19.9500   17.3110 C   0  0  0  0  0  1  0  0  0  0  0  0
  -27.1440  -20.1420   18.2130 C   0  0  0  0  0  2  0  0  0  0  0  0
  -29.2610  -20.7870   22.2180 C   0  0  0  0  0  1  0  0  0  0  0  0
  -29.4580  -20.7410   20.7000 C   0  0  0  0  0  3  0  0  0  0  0  0
  -29.5080  -22.5910   20.1660 C   0  0  0  0  0  3  0  0  0  0  0  0
  -28.4010  -24.1620   20.0660 C   0  0  0  0  0  3  0  0  0  0  0  0
  -28.4860  -25.8900   19.8370 O   0  0  0  0  0  0  0  0  0  0  0  0
  -24.6500  -31.7920   23.0550 C   0  0  0  0  0  0  0  0  0  0  0  0
  -27.4340  -27.0210   19.8480 C   0  0  0  0  0  0  0  0  0  0  0  0
  -23.5270  -30.4010   21.3660 C   0  0  0  0  0  3  0  0  0  0  0  0
  -25.0510  -28.8980   19.8820 C   0  0  0  0  0  0  0  0  0  0  0  0
  -26.0910  -30.7000   21.2360 C   0  0  0  0  0  2  0  0  0  0  0  0
  -26.2280  -29.3040   20.5220 C   0  0  0  0  0  0  0  0  0  0  0  0
  -27.4040  -28.3940   20.4730 C   0  0  0  0  0  3  0  0  0  0  0  0
  -26.2100  -26.8120   19.1660 C   0  0  0  0  0  3  0  0  0  0  0  0
  -25.0770  -27.6790   19.1820 C   0  0  0  0  0  3  0  0  0  0  0  0
  -23.7920  -29.7740   19.9670 C   0  0  0  0  0  2  0  0  0  0  0  0
  -24.7780  -30.9950   21.9400 N   0  0  0  0  0  0  0  0  0  0  0  0
  -23.5470  -32.0090   23.5850 O   0  0  0  0  0  0  0  0  0  0  0  0
  -22.8740  -29.3460   22.3000 C   0  0  0  0  0  0  0  0  0  0  0  0
  -21.5600  -29.0930   22.1440 N   0  0  0  0  0  0  0  0  0  0  0  0
  -23.5610  -28.7540   23.1350 O   0  0  0  0  0  0  0  0  0  0  0  0
  -21.0510  -29.6250   21.4520 H   0  0  0  0  0  0  0  0  0  0  0  0
  -18.2450  -27.6920   22.6460 C   0  0  0  0  0  0  0  0  0  0  0  0
  -20.7950  -28.0770   22.8760 C   0  0  0  0  0  3  0  0  0  0  0  0
  -20.9540  -26.6830   22.2240 C   0  0  0  0  0  2  0  0  0  0  0  0
  -19.8500  -26.3600   21.2120 C   0  0  0  0  0  2  0  0  0  0  0  0
  -18.4760  -26.3960   21.8860 C   0  0  0  0  0  2  0  0  0  0  0  0
  -19.3320  -28.4880   23.0960 C   0  0  0  0  0  0  0  0  0  0  0  0
  -19.0590  -29.6970   23.7720 C   0  0  0  0  0  3  0  0  0  0  0  0
  -17.7340  -30.1130   23.9960 C   0  0  0  0  0  3  0  0  0  0  0  0
  -16.6610  -29.3160   23.5580 C   0  0  0  0  0  3  0  0  0  0  0  0
  -16.9190  -28.1060   22.8890 C   0  0  0  0  0  3  0  0  0  0  0  0
  -25.8830  -32.4800   23.7170 C   0  0  0  0  0  3  0  0  0  0  0  0
  -25.5000  -33.8590   24.0770 N   0  0  0  0  0  0  0  0  0  0  0  0
  -25.7740  -34.9510   23.3510 C   0  0  0  0  0  0  0  0  0  0  0  0
  -26.4330  -34.9060   22.3080 O   0  0  0  0  0  0  0  0  0  0  0  0
  -24.9060  -33.9630   24.8870 H   0  0  0  0  0  0  0  0  0  0  0  0
  -23.9760  -36.6920   23.0630 C   0  0  0  0  0  1  0  0  0  0  0  0
  -25.2350  -36.3070   23.8540 C   0  0  0  0  0  3  0  0  0  0  0  0
  -27.3370  -37.2550   24.7030 C   0  0  0  0  0  1  0  0  0  0  0  0
  -26.2250  -37.4040   23.7680 N   0  0  0  0  0  0  0  0  0  0  0  0
  -25.7840  -38.3030   23.9400 H   0  0  0  0  0  0  0  0  0  0  0  0
  -26.4010  -31.7160   25.0000 C   0  0  1  0  0  0  0  0  0  0  0  0
  -25.2850  -31.3660   26.0120 C   0  0  0  0  0  1  0  0  0  0  0  0
  -27.1080  -30.3970   24.6140 C   0  0  0  0  0  1  0  0  0  0  0  0
  -27.4570  -32.5780   25.7310 C   0  0  0  0  0  1  0  0  0  0  0  0
  2  7  1  0
  3  4  1  0
  3  2  1  0
  5  4  1  0
  5 17  1  0
  5  6  1  0
  7  1  1  0
  7  6  1  0
  8  1  2  0
  9 11  1  0
  9 10  1  0
 10 12  1  0
 11 42  1  0
 11 13  1  0
 12 48  1  0
 13  1  1  0
 13 12  1  0
 14 15  2  0
 15 34  1  0
 16 15  1  0
 16 19  1  0
 17 18  1  0
 17 14  1  0
 18 16  2  0
 19 20  1  0
 20 21  2  0
 22 25  1  0
 22 21  1  0
 23 22  2  0
 24 23  1  0
 24 19  2  0
 25 26  1  0
 26 31  2  0
 26 27  1  0
 27 28  2  0
 28 29  1  0
 29 33  1  0
 30 29  2  0
 31 30  1  0
 32 31  1  0
 34 35  1  0
 35 38  1  0
 35 37  1  0
 36 34  2  0
 39 40  1  0
 39 14  1  0
 41 39  1  0
 42 43  2  0
 44 46  1  0
 44 42  1  0
 45 46  1  0
 48 47  1  0
 49 48  1  0
 50 49  2  0
 51 53  1  0
 51 50  1  0
 52 63  2  0
 53 58  1  0
 54 62  1  0
 54 64  1  0
 55 61  1  0
 55 57  1  0
 56 62  1  0
 57 56  1  0
 58 57  2  0
 59 60  1  0
 59 53  2  0
 60 55  2  0
 61 54  1  0
 62 52  1  0
 64 66  2  0
 65 64  1  0
 67 65  1  0
 68 77  2  0
 68 73  1  0
 69 65  1  0
 69 73  1  0
 70 69  1  0
 71 72  1  0
 71 70  1  0
 72 68  1  0
 73 74  2  0
 74 75  1  0
 76 75  2  0
 77 76  1  0
 78 52  1  0
 78 79  1  0
 78 88  1  0
 79 82  1  0
 80 84  1  0
 80 79  1  0
 81 80  2  0
 84 83  1  0
 86 84  1  0
 86 87  1  0
 86 85  1  0
 88 91  1  1
 88 89  1  0
 90 88  1  0
M  ISO  4   1 100  13 100  50 101  51 101
M  END
>  <TORSDO>  (88) 
F 21

>  <SCORE>  (88) 
-13.912

>  <name>  (88) 
87

>  <ligand_id>  (88) 
87

>  <original_smiles>  (88) 
[H]c1c([H])c([H])c2c(c1[H])C([H])([H])C([H])([H])C([H])([H])C2([H])N([H])C(=O)C1([H])N(C(=O)C([H])(N([H])C(=O)C([H])(N([H])C([H])([H])[H])C([H])([H])[H])C(C([H])([H])[H])(C([H])([H])[H])C([H])([H])[H])C([H])([H])c2c([H])c(OC([H])([H])C([H])([H])C([H])(C([H])([H])[H])C3([H])N(C(=O)N4C([H])([H])C([H])([H])C([H])([H])C([H])(n5nc(-c6c([H])c([H])c(Oc7c([H])c([H])c(F)c([H])c7F)c([H])c6[H])c(C(=O)N([H])[H])c5N([H])[H])C4([H])[H])C([H])(C(=O)C([H])([H])C([H])([H])C([H])([H])[H])C([H])([H])C3([H])[H])c([H])c([H])c2C1([H])[H]

>  <smiles>  (88) 
[H]c1c([H])c([H])c2c(c1[H])C([H])([H])C([H])([H])C([H])([H])C2([H])N([H])C(=O)C1([H])N(C(=O)C([H])(N([H])C(=O)C([H])(N([H])C([H])([H])[H])C([H])([H])[H])C(C([H])([H])[H])(C([H])([H])[H])C([H])([H])[H])C([H])([H])c2c([H])c(OC([H])([H])C([H])([H])C([H])(C([H])([H])[H])C3([H])N(C(=O)N4C([H])([H])C([H])([H])C([H])([H])C([H])(n5nc(-c6c([H])c([H])c(Oc7c([H])c([H])c(F)c([H])c7F)c([H])c6[H])c(C(=O)N([H])[H])c5N([H])[H])C4([H])[H])C([H])(C(=O)C([H])([H])C([H])([H])C([H])([H])[H])C([H])([H])C3([H])[H])c([H])c([H])c2C1([H])[H]

$$$$
88:0:0
     RDKit          3D

 89 97  0  0  1  0  0  0  0  0999 V2000
  -28.1320  -22.2690   19.3610 C   0  0  0  0  0  3  0  0  0  0  0  0
  -29.4440  -22.4870   21.2520 C   0  0  0  0  0  3  0  0  0  0  0  0
  -27.9100  -23.7230   19.3090 C   0  0  0  0  0  3  0  0  0  0  0  0
  -29.2210  -23.9520   21.1990 C   0  0  0  0  0  3  0  0  0  0  0  0
  -28.9150  -21.5090   20.3230 C   0  0  0  0  0  0  0  0  0  0  0  0
  -28.4210  -24.7060   20.2380 C   0  0  0  0  0  0  0  0  0  0  0  0
  -28.3740  -26.2140   20.1340 O   0  0  0  0  0  0  0  0  0  0  0  0
  -24.6570  -31.9060   23.2330 C   0  0  0  0  0  0  0  0  0  0  0  0
  -27.2810  -27.1920   20.1260 C   0  0  0  0  0  0  0  0  0  0  0  0
  -23.4740  -30.5260   21.5680 C   0  0  0  0  0  3  0  0  0  0  0  0
  -24.9400  -28.9710   20.1200 C   0  0  0  0  0  0  0  0  0  0  0  0
  -26.0310  -30.7950   21.4180 C   0  0  0  0  0  2  0  0  0  0  0  0
  -26.1170  -29.4050   20.7420 C   0  0  0  0  0  0  0  0  0  0  0  0
  -27.2810  -28.5330   20.7240 C   0  0  0  0  0  3  0  0  0  0  0  0
  -26.0760  -26.8830   19.4600 C   0  0  0  0  0  3  0  0  0  0  0  0
  -24.9370  -27.7290   19.4620 C   0  0  0  0  0  3  0  0  0  0  0  0
  -23.7070  -29.8670   20.1810 C   0  0  0  0  0  2  0  0  0  0  0  0
  -24.7410  -31.1010   22.1280 N   0  0  0  0  0  0  0  0  0  0  0  0
  -23.5670  -32.1740   23.7630 O   0  0  0  0  0  0  0  0  0  0  0  0
  -22.7970  -29.5040   22.5160 C   0  0  0  0  0  0  0  0  0  0  0  0
  -21.4680  -29.3360   22.3960 N   0  0  0  0  0  0  0  0  0  0  0  0
  -23.4750  -28.8630   23.3240 O   0  0  0  0  0  0  0  0  0  0  0  0
  -20.9760  -29.9060   21.7210 H   0  0  0  0  0  0  0  0  0  0  0  0
  -18.0920  -28.1130   22.9050 C   0  0  0  0  0  0  0  0  0  0  0  0
  -20.6550  -28.3770   23.1510 C   0  0  0  0  0  3  0  0  0  0  0  0
  -20.7520  -26.9600   22.5370 C   0  0  0  0  0  2  0  0  0  0  0  0
  -19.6400  -26.6610   21.5270 C   0  0  0  0  0  2  0  0  0  0  0  0
  -18.2660  -26.7840   22.1890 C   0  0  0  0  0  2  0  0  0  0  0  0
  -19.2140  -28.8670   23.3430 C   0  0  0  0  0  0  0  0  0  0  0  0
  -18.9960  -30.1110   23.9750 C   0  0  0  0  0  3  0  0  0  0  0  0
  -17.6900  -30.6000   24.1730 C   0  0  0  0  0  3  0  0  0  0  0  0
  -16.5850  -29.8420   23.7510 C   0  0  0  0  0  3  0  0  0  0  0  0
  -16.7860  -28.6000   23.1230 C   0  0  0  0  0  3  0  0  0  0  0  0
  -25.9250  -32.5480   23.8770 C   0  0  0  0  0  3  0  0  0  0  0  0
  -26.4440  -31.7570   25.1410 C   0  0  1  0  0  0  0  0  0  0  0  0
  -25.3520  -31.4840   26.2020 C   0  0  0  0  0  1  0  0  0  0  0  0
  -27.0450  -30.3940   24.7280 C   0  0  0  0  0  1  0  0  0  0  0  0
  -27.5870  -32.5480   25.8200 C   0  0  0  0  0  1  0  0  0  0  0  0
  -25.5920  -33.9350   24.2470 N   0  0  0  0  0  0  0  0  0  0  0  0
  -25.9380  -35.0200   23.5410 C   0  0  0  0  0  0  0  0  0  0  0  0
  -26.6300  -34.9580   22.5210 O   0  0  0  0  0  0  0  0  0  0  0  0
  -24.9780  -34.0550   25.0390 H   0  0  0  0  0  0  0  0  0  0  0  0
  -24.2220  -36.8330   23.2070 C   0  0  0  0  0  1  0  0  0  0  0  0
  -25.4350  -36.3900   24.0400 C   0  0  0  0  0  3  0  0  0  0  0  0
  -27.5400  -37.2400   24.9820 C   0  0  0  0  0  1  0  0  0  0  0  0
  -26.4720  -37.4460   24.0070 N   0  0  0  0  0  0  0  0  0  0  0  0
  -26.0600  -38.3600   24.1760 H   0  0  0  0  0  0  0  0  0  0  0  0
  -28.9590  -19.7930   20.2920 C   0  0  0  0  0  2  0  0  0  0  0  0
  -30.5780  -18.6600   22.1140 C   0  0  0  0  0  1  0  0  0  0  0  0
  -30.0480  -18.4760   20.6870 C   0  0  0  0  0  3  0  0  0  0  0  0
  -29.7040  -16.7650   20.4760 C   0  0  0  0  0  3  0  0  0  0  0  0
  -30.6160  -15.3390   20.8190 C   0  0  0  0  0  0  0  0  0  0  0  0
  -30.7240  -12.9030   20.0450 C   0  0  0  0  0  2  0  0  0  0  0  0
  -29.9130  -12.7390   18.7340 C   0  0  0  0  0  2  0  0  0  0  0  0
  -28.4230  -12.4820   19.0290 C   0  0  0  0  0  2  0  0  0  0  0  0
  -27.8740  -13.4220   20.1330 C   0  0  0  0  0  3  0  0  0  0  0  0
  -28.8200  -13.5550   21.3400 C   0  0  0  0  0  2  0  0  0  0  0  0
  -30.1170  -14.0210   20.8340 N   0  0  0  0  0  0  0  0  0  0  0  0
  -31.8510  -15.4070   20.7680 O   0  0  0  0  0  0  0  0  0  0  0  0
  -25.4360  -13.9350   20.6930 C   0  0  0  0  0  0  0  0  0  0  0  0
  -24.3650  -13.1340   20.9810 C   0  0  0  0  0  0  0  0  0  0  0  0
  -24.8650  -11.7950   20.9960 C   0  0  0  0  0  0  0  0  0  0  0  0
  -26.5140  -13.0810   20.5360 N   0  0  0  0  0  0  0  0  0  0  0  0
  -26.1760  -11.7900   20.7900 N   0  0  0  0  0  0  0  0  0  0  0  0
  -24.1560  -10.5170   21.1380 C   0  0  0  0  0  0  0  0  0  0  0  0
  -24.5170   -9.5780   22.1300 C   0  0  0  0  0  3  0  0  0  0  0  0
  -23.8070   -8.3640   22.2600 C   0  0  0  0  0  3  0  0  0  0  0  0
  -22.7240   -8.0820   21.3940 C   0  0  0  0  0  0  0  0  0  0  0  0
  -22.3820   -9.0100   20.3950 C   0  0  0  0  0  3  0  0  0  0  0  0
  -23.0920  -10.2140   20.2660 C   0  0  0  0  0  3  0  0  0  0  0  0
  -21.9930   -6.9180   21.4270 O   0  0  0  0  0  0  0  0  0  0  0  0
  -21.8140   -6.2120   22.5890 C   0  0  0  0  0  0  0  0  0  0  0  0
  -21.1870   -6.7810   23.7190 C   0  0  0  0  0  3  0  0  0  0  0  0
  -20.9640   -5.9980   24.8690 C   0  0  0  0  0  3  0  0  0  0  0  0
  -21.3570   -4.6480   24.8900 C   0  0  0  0  0  0  0  0  0  0  0  0
  -21.9760   -4.0770   23.7650 C   0  0  0  0  0  3  0  0  0  0  0  0
  -22.2020   -4.8580   22.6170 C   0  0  0  0  0  0  0  0  0  0  0  0
  -22.7820   -4.2970   21.5280 F   0  0  0  0  0  0  0  0  0  0  0  0
  -21.1360   -3.8930   25.9930 F   0  0  0  0  0  0  0  0  0  0  0  0
  -22.9390  -13.5780   21.1320 C   0  0  0  0  0  0  0  0  0  0  0  0
  -22.1620  -12.8720   21.9480 N   0  0  0  0  0  0  0  0  0  0  0  0
  -22.5180  -14.5840   20.5630 O   0  0  0  0  0  0  0  0  0  0  0  0
  -22.5130  -12.0570   22.4280 H   0  0  0  0  0  0  0  0  0  0  0  0
  -21.2030  -13.1490   22.0910 H   0  0  0  0  0  0  0  0  0  0  0  0
  -25.5830  -15.3080   20.5270 N   0  0  0  0  0  0  0  0  0  0  0  0
  -24.8010  -15.9520   20.5900 H   0  0  0  0  0  0  0  0  0  0  0  0
  -26.4550  -15.7690   20.3000 H   0  0  0  0  0  0  0  0  0  0  0  0
  -27.9020  -17.0100   18.5860 C   0  0  0  0  0  1  0  0  0  0  0  0
  -29.3470  -16.6380   18.9640 C   0  0  0  0  0  2  0  0  0  0  0  0
  1  5  1  0
  3  1  2  0
  3  6  1  0
  4  2  1  0
  5  2  2  0
  6  4  2  0
  7  6  1  0
  8 19  2  0
  9  7  1  0
  9 14  1  0
 10 18  1  0
 10 20  1  0
 11 17  1  0
 11 13  1  0
 12 18  1  0
 13 12  1  0
 14 13  2  0
 15 16  1  0
 15  9  2  0
 16 11  2  0
 17 10  1  0
 18  8  1  0
 20 22  2  0
 21 20  1  0
 23 21  1  0
 24 33  2  0
 24 29  1  0
 25 21  1  0
 25 29  1  0
 26 25  1  0
 27 28  1  0
 27 26  1  0
 28 24  1  0
 29 30  2  0
 30 31  1  0
 32 31  2  0
 33 32  1  0
 34  8  1  0
 34 39  1  0
 34 35  1  0
 35 38  1  1
 35 36  1  0
 37 35  1  0
 39 42  1  0
 40 44  1  0
 40 39  1  0
 41 40  2  0
 44 43  1  0
 46 44  1  0
 46 47  1  0
 46 45  1  0
 48  5  1  0
 48 50  1  0
 50 49  1  0
 51 89  1  0
 51 50  1  0
 51 52  1  0
 52 58  1  0
 53 58  1  0
 54 55  1  0
 54 53  1  0
 56 55  1  0
 56 63  1  0
 56 57  1  0
 58 57  1  0
 59 52  2  0
 60 61  2  0
 61 62  1  0
 61 80  1  0
 62 65  1  0
 63 60  1  0
 63 64  1  0
 64 62  2  0
 65 66  1  0
 66 67  2  0
 68 71  1  0
 68 67  1  0
 69 68  2  0
 70 69  1  0
 70 65  2  0
 71 72  1  0
 72 77  2  0
 72 73  1  0
 73 74  2  0
 74 75  1  0
 75 79  1  0
 76 75  2  0
 77 76  1  0
 78 77  1  0
 80 81  1  0
 81 84  1  0
 81 83  1  0
 82 80  2  0
 85 86  1  0
 85 60  1  0
 87 85  1  0
 88 89  1  0
M  ISO  4   6 101   7 101  51 100  52 100
M  END
>  <TORSDO>  (89) 
F 20

>  <SCORE>  (89) 
-15.177

>  <name>  (89) 
88

>  <ligand_id>  (89) 
88

>  <original_smiles>  (89) 
[H]c1c([H])c([H])c2c(c1[H])C([H])([H])C([H])([H])C([H])([H])C2([H])N([H])C(=O)C1([H])N(C(=O)C([H])(N([H])C(=O)C([H])(N([H])C([H])([H])[H])C([H])([H])[H])C(C([H])([H])[H])(C([H])([H])[H])C([H])([H])[H])C([H])([H])c2c([H])c(Oc3c([H])c([H])c(C([H])([H])C([H])(C([H])([H])[H])C([H])(C(=O)N4C([H])([H])C([H])([H])C([H])([H])C([H])(n5nc(-c6c([H])c([H])c(Oc7c([H])c([H])c(F)c([H])c7F)c([H])c6[H])c(C(=O)N([H])[H])c5N([H])[H])C4([H])[H])C([H])([H])C([H])([H])[H])c([H])c3[H])c([H])c([H])c2C1([H])[H]

>  <smiles>  (89) 
[H]c1c([H])c([H])c2c(c1[H])C([H])([H])C([H])([H])C([H])([H])C2([H])N([H])C(=O)C1([H])N(C(=O)C([H])(N([H])C(=O)C([H])(N([H])C([H])([H])[H])C([H])([H])[H])C(C([H])([H])[H])(C([H])([H])[H])C([H])([H])[H])C([H])([H])c2c([H])c(Oc3c([H])c([H])c(C([H])([H])C([H])(C([H])([H])[H])C([H])(C(=O)N4C([H])([H])C([H])([H])C([H])([H])C([H])(n5nc(-c6c([H])c([H])c(Oc7c([H])c([H])c(F)c([H])c7F)c([H])c6[H])c(C(=O)N([H])[H])c5N([H])[H])C4([H])[H])C([H])([H])C([H])([H])[H])c([H])c3[H])c([H])c([H])c2C1([H])[H]

$$$$
89:0:0
     RDKit          3D

 92100  0  0  1  0  0  0  0  0999 V2000
  -30.3240  -22.6130   20.1680 C   0  0  0  0  0  2  0  0  0  0  0  0
  -28.8230  -22.3130   22.0550 C   0  0  0  0  0  2  0  0  0  0  0  0
  -31.0780  -22.8480   21.4880 C   0  0  0  0  0  3  0  0  0  0  0  0
  -30.2600  -22.0580   22.5150 C   0  0  0  0  0  3  0  0  0  0  0  0
  -28.8430  -22.3210   20.5070 C   0  0  2  0  0  0  0  0  0  0  0  0
  -32.5600  -22.4460   21.4170 C   0  0  0  0  0  1  0  0  0  0  0  0
  -30.5010  -22.4710   23.9080 N   0  0  0  0  0  4  0  0  0  0  0  0
  -30.3250  -23.4500   24.0390 H   0  0  0  0  0  0  0  0  0  0  0  0
  -31.4510  -22.2780   24.1700 H   0  0  0  0  0  0  0  0  0  0  0  0
  -29.9030  -21.9550   24.5300 H   0  0  0  0  0  0  0  0  0  0  0  0
  -28.2750  -20.4530   18.6160 C   0  0  0  0  0  1  0  0  0  0  0  0
  -28.6330  -20.4830   20.1050 C   0  0  0  0  0  3  0  0  0  0  0  0
  -29.5960  -18.8820   20.3620 C   0  0  0  0  0  3  0  0  0  0  0  0
  -29.2970  -17.0240   20.2630 C   0  0  0  0  0  3  0  0  0  0  0  0
  -30.2050  -15.4430   20.1720 C   0  0  0  0  0  0  0  0  0  0  0  0
  -30.3040  -12.9300   19.3500 C   0  0  0  0  0  2  0  0  0  0  0  0
  -29.3830  -12.6360   18.1300 C   0  0  0  0  0  2  0  0  0  0  0  0
  -27.9470  -12.3200   18.5810 C   0  0  0  0  0  2  0  0  0  0  0  0
  -27.4740  -13.2980   19.6800 C   0  0  0  0  0  3  0  0  0  0  0  0
  -28.5200  -13.5120   20.7950 C   0  0  0  0  0  2  0  0  0  0  0  0
  -29.7260  -14.0790   20.1630 N   0  0  0  0  0  0  0  0  0  0  0  0
  -31.4280  -15.4450   19.9380 O   0  0  0  0  0  0  0  0  0  0  0  0
  -25.1190  -13.8350   20.4810 C   0  0  0  0  0  0  0  0  0  0  0  0
  -24.0670  -13.0530   20.8610 C   0  0  0  0  0  0  0  0  0  0  0  0
  -24.5370  -11.7040   20.8170 C   0  0  0  0  0  0  0  0  0  0  0  0
  -26.1600  -12.9640   20.2110 N   0  0  0  0  0  0  0  0  0  0  0  0
  -25.8240  -11.6750   20.4840 N   0  0  0  0  0  0  0  0  0  0  0  0
  -23.8160  -10.4390   21.0120 C   0  0  0  0  0  0  0  0  0  0  0  0
  -24.2490   -9.4750   21.9490 C   0  0  0  0  0  3  0  0  0  0  0  0
  -23.5240   -8.2780   22.1330 C   0  0  0  0  0  3  0  0  0  0  0  0
  -22.3500   -8.0350   21.3800 C   0  0  0  0  0  0  0  0  0  0  0  0
  -21.9350   -8.9890   20.4330 C   0  0  0  0  0  3  0  0  0  0  0  0
  -22.6610  -10.1770   20.2480 C   0  0  0  0  0  3  0  0  0  0  0  0
  -21.5980   -6.8910   21.4740 O   0  0  0  0  0  0  0  0  0  0  0  0
  -21.5460   -6.1550   22.6300 C   0  0  0  0  0  0  0  0  0  0  0  0
  -21.1020   -6.7130   23.8490 C   0  0  0  0  0  3  0  0  0  0  0  0
  -20.9980   -5.9030   24.9970 C   0  0  0  0  0  3  0  0  0  0  0  0
  -21.3280   -4.5350   24.9290 C   0  0  0  0  0  0  0  0  0  0  0  0
  -21.7640   -3.9770   23.7130 C   0  0  0  0  0  3  0  0  0  0  0  0
  -21.8690   -4.7830   22.5670 C   0  0  0  0  0  0  0  0  0  0  0  0
  -22.2700   -4.2360   21.3950 F   0  0  0  0  0  0  0  0  0  0  0  0
  -21.2200   -3.7560   26.0290 F   0  0  0  0  0  0  0  0  0  0  0  0
  -22.6710  -13.5250   21.1480 C   0  0  0  0  0  0  0  0  0  0  0  0
  -21.9550  -12.8270   22.0210 N   0  0  0  0  0  0  0  0  0  0  0  0
  -22.2270  -14.5510   20.6340 O   0  0  0  0  0  0  0  0  0  0  0  0
  -22.3260  -11.9980   22.4590 H   0  0  0  0  0  0  0  0  0  0  0  0
  -21.0190  -13.1280   22.2540 H   0  0  0  0  0  0  0  0  0  0  0  0
  -25.2780  -15.2080   20.3130 N   0  0  0  0  0  0  0  0  0  0  0  0
  -24.5150  -15.8620   20.4530 H   0  0  0  0  0  0  0  0  0  0  0  0
  -26.1290  -15.6530   19.9940 H   0  0  0  0  0  0  0  0  0  0  0  0
  -27.9420  -23.9330   20.0880 C   0  0  0  0  0  2  0  0  0  0  0  0
  -28.1230  -25.6230   20.3220 O   0  0  0  0  0  0  0  0  0  0  0  0
  -24.6520  -31.8070   23.2150 C   0  0  0  0  0  0  0  0  0  0  0  0
  -27.1470  -26.7940   20.2290 C   0  0  0  0  0  0  0  0  0  0  0  0
  -23.4480  -30.4170   21.5810 C   0  0  0  0  0  3  0  0  0  0  0  0
  -24.8820  -28.7770   20.1610 C   0  0  0  0  0  0  0  0  0  0  0  0
  -26.0220  -30.5730   21.4460 C   0  0  0  0  0  2  0  0  0  0  0  0
  -26.0760  -29.1480   20.7910 C   0  0  0  0  0  0  0  0  0  0  0  0
  -27.1970  -28.1810   20.7930 C   0  0  0  0  0  3  0  0  0  0  0  0
  -25.9240  -26.6080   19.5390 C   0  0  0  0  0  3  0  0  0  0  0  0
  -24.8400  -27.5320   19.5100 C   0  0  0  0  0  3  0  0  0  0  0  0
  -23.6760  -29.7240   20.2070 C   0  0  0  0  0  2  0  0  0  0  0  0
  -24.7310  -30.9640   22.1330 N   0  0  0  0  0  0  0  0  0  0  0  0
  -23.5650  -32.1110   23.7330 O   0  0  0  0  0  0  0  0  0  0  0  0
  -22.7380  -29.4370   22.5520 C   0  0  0  0  0  0  0  0  0  0  0  0
  -21.4040  -29.2900   22.4300 N   0  0  0  0  0  0  0  0  0  0  0  0
  -23.3950  -28.8110   23.3870 O   0  0  0  0  0  0  0  0  0  0  0  0
  -20.9260  -29.8480   21.7380 H   0  0  0  0  0  0  0  0  0  0  0  0
  -18.0130  -28.0950   22.9420 C   0  0  0  0  0  0  0  0  0  0  0  0
  -20.5740  -28.3580   23.2030 C   0  0  0  0  0  3  0  0  0  0  0  0
  -20.6710  -26.9220   22.6360 C   0  0  0  0  0  2  0  0  0  0  0  0
  -19.5690  -26.5990   21.6200 C   0  0  0  0  0  2  0  0  0  0  0  0
  -18.1870  -26.7460   22.2640 C   0  0  0  0  0  2  0  0  0  0  0  0
  -19.1320  -28.8590   23.3680 C   0  0  0  0  0  0  0  0  0  0  0  0
  -18.9130  -30.1190   23.9650 C   0  0  0  0  0  3  0  0  0  0  0  0
  -17.6070  -30.6160   24.1380 C   0  0  0  0  0  3  0  0  0  0  0  0
  -16.5030  -29.8500   23.7260 C   0  0  0  0  0  3  0  0  0  0  0  0
  -16.7060  -28.5920   23.1330 C   0  0  0  0  0  3  0  0  0  0  0  0
  -25.9250  -32.4450   23.8510 C   0  0  0  0  0  3  0  0  0  0  0  0
  -25.6140  -33.8470   24.1890 N   0  0  0  0  0  0  0  0  0  0  0  0
  -25.9280  -34.9100   23.4350 C   0  0  0  0  0  0  0  0  0  0  0  0
  -26.5690  -34.8140   22.3860 O   0  0  0  0  0  0  0  0  0  0  0  0
  -25.0380  -33.9930   25.0050 H   0  0  0  0  0  0  0  0  0  0  0  0
  -24.1770  -36.7030   23.1790 C   0  0  0  0  0  1  0  0  0  0  0  0
  -25.4620  -36.2990   23.9210 C   0  0  0  0  0  3  0  0  0  0  0  0
  -27.6320  -37.2010   24.6410 C   0  0  0  0  0  1  0  0  0  0  0  0
  -26.4830  -37.3570   23.7530 N   0  0  0  0  0  0  0  0  0  0  0  0
  -26.0790  -38.2760   23.9130 H   0  0  0  0  0  0  0  0  0  0  0  0
  -26.4240  -31.6790   25.1390 C   0  0  1  0  0  0  0  0  0  0  0  0
  -25.3190  -31.4590   26.2000 C   0  0  0  0  0  1  0  0  0  0  0  0
  -26.9960  -30.2910   24.7730 C   0  0  0  0  0  1  0  0  0  0  0  0
  -27.5780  -32.4680   25.8010 C   0  0  0  0  0  1  0  0  0  0  0  0
  1  5  1  0
  1  3  1  0
  2  4  1  0
  3  6  1  0
  3  4  1  0
  4  7  1  0
  5 51  1  6
  5  2  1  0
  7  8  1  0
  7  9  1  0
  7 10  1  0
 12 11  1  0
 12 13  1  0
 12  5  1  0
 14 13  2  0
 15 14  1  0
 16 21  1  0
 17 18  1  0
 17 16  1  0
 19 18  1  0
 19 26  1  0
 19 20  1  0
 21 15  1  0
 21 20  1  0
 22 15  2  0
 23 24  2  0
 24 43  1  0
 25 24  1  0
 25 28  1  0
 26 23  1  0
 26 27  1  0
 27 25  2  0
 28 29  1  0
 29 30  2  0
 31 34  1  0
 31 30  1  0
 32 31  2  0
 33 32  1  0
 33 28  2  0
 34 35  1  0
 35 36  1  0
 36 37  2  0
 38 37  1  0
 38 42  1  0
 39 38  2  0
 40 35  2  0
 40 39  1  0
 41 40  1  0
 43 44  1  0
 44 47  1  0
 44 46  1  0
 45 43  2  0
 48 49  1  0
 48 23  1  0
 50 48  1  0
 51 52  1  0
 53 64  2  0
 54 52  1  0
 54 59  1  0
 55 63  1  0
 55 65  1  0
 56 62  1  0
 56 58  1  0
 57 63  1  0
 58 59  2  0
 58 57  1  0
 60 54  2  0
 61 60  1  0
 61 56  2  0
 62 55  1  0
 63 53  1  0
 65 67  2  0
 66 65  1  0
 68 66  1  0
 69 78  2  0
 69 74  1  0
 70 66  1  0
 70 74  1  0
 71 70  1  0
 72 73  1  0
 72 71  1  0
 73 69  1  0
 74 75  2  0
 75 76  1  0
 77 76  2  0
 78 77  1  0
 79 53  1  0
 79 80  1  0
 79 89  1  0
 80 83  1  0
 81 85  1  0
 81 80  1  0
 82 81  2  0
 85 84  1  0
 87 88  1  0
 87 85  1  0
 87 86  1  0
 89 92  1  1
 89 90  1  0
 91 89  1  0
M  ISO  4  14 100  15 100  51 101  52 101
M  END
>  <TORSDO>  (90) 
F 21

>  <SCORE>  (90) 
-16.000

>  <name>  (90) 
89

>  <ligand_id>  (90) 
89

>  <original_smiles>  (90) 
[H]c1c([H])c([H])c2c(c1[H])C([H])([H])C([H])([H])C([H])([H])C2([H])N([H])C(=O)C1([H])N(C(=O)C([H])(N([H])C(=O)C([H])(N([H])C([H])([H])[H])C([H])([H])[H])C(C([H])([H])[H])(C([H])([H])[H])C([H])([H])[H])C([H])([H])c2c([H])c(OC([H])([H])C3(C([H])(C([H])([H])[H])C([H])([H])C([H])([H])C(=O)N4C([H])([H])C([H])([H])C([H])([H])C([H])(n5nc(-c6c([H])c([H])c(Oc7c([H])c([H])c(F)c([H])c7F)c([H])c6[H])c(C(=O)N([H])[H])c5N([H])[H])C4([H])[H])C([H])([H])C([H])(C([H])([H])[H])C([H])([N+]([H])([H])[H])C3([H])[H])c([H])c([H])c2C1([H])[H]

>  <smiles>  (90) 
[H]c1c([H])c([H])c2c(c1[H])C([H])([H])C([H])([H])C([H])([H])C2([H])N([H])C(=O)C1([H])N(C(=O)C([H])(N([H])C(=O)C([H])(N([H])C([H])([H])[H])C([H])([H])[H])C(C([H])([H])[H])(C([H])([H])[H])C([H])([H])[H])C([H])([H])c2c([H])c(OC([H])([H])C3(C([H])(C([H])([H])[H])C([H])([H])C([H])([H])C(=O)N4C([H])([H])C([H])([H])C([H])([H])C([H])(n5nc(-c6c([H])c([H])c(Oc7c([H])c([H])c(F)c([H])c7F)c([H])c6[H])c(C(=O)N([H])[H])c5N([H])[H])C4([H])[H])C([H])([H])C([H])(C([H])([H])[H])C([H])([N+]([H])([H])[H])C3([H])[H])c([H])c([H])c2C1([H])[H]

$$$$
90:0:0
     RDKit          3D

 87 95  0  0  1  0  0  0  0  0999 V2000
  -29.3420  -21.6150   22.0630 C   0  0  0  0  0  1  0  0  0  0  0  0
  -28.6780  -21.5450   20.6820 C   0  0  0  0  0  3  0  0  0  0  0  0
  -30.5760  -15.2070   19.9280 C   0  0  0  0  0  0  0  0  0  0  0  0
  -30.3750  -12.8430   18.9600 C   0  0  0  0  0  2  0  0  0  0  0  0
  -29.3830  -12.7580   17.7810 C   0  0  0  0  0  2  0  0  0  0  0  0
  -27.9590  -12.4960   18.3010 C   0  0  0  0  0  2  0  0  0  0  0  0
  -27.6020  -13.4090   19.5040 C   0  0  0  0  0  3  0  0  0  0  0  0
  -28.7240  -13.4840   20.5660 C   0  0  0  0  0  2  0  0  0  0  0  0
  -29.9250  -13.9580   19.8630 N   0  0  0  0  0  0  0  0  0  0  0  0
  -31.7630  -15.1570   19.5720 O   0  0  0  0  0  0  0  0  0  0  0  0
  -28.3170  -18.6440   20.7960 C   0  0  0  0  0  2  0  0  0  0  0  0
  -30.3750  -19.2760   19.7670 C   0  0  0  0  0  2  0  0  0  0  0  0
  -29.0880  -17.1940   21.0460 C   0  0  0  0  0  2  0  0  0  0  0  0
  -30.4560  -17.7350   19.1950 C   0  0  0  0  0  2  0  0  0  0  0  0
  -28.9620  -19.9370   20.0540 C   0  0  0  0  0  3  0  0  0  0  0  0
  -29.9280  -16.5220   19.9690 N   0  0  0  0  0  0  0  0  0  0  0  0
  -25.2900  -13.9380   20.4420 C   0  0  0  0  0  0  0  0  0  0  0  0
  -24.2560  -13.1440   20.8510 C   0  0  0  0  0  0  0  0  0  0  0  0
  -24.7200  -11.7970   20.7350 C   0  0  0  0  0  0  0  0  0  0  0  0
  -26.3110  -13.0770   20.0890 N   0  0  0  0  0  0  0  0  0  0  0  0
  -25.9860  -11.7790   20.3330 N   0  0  0  0  0  0  0  0  0  0  0  0
  -24.0090  -10.5250   20.9280 C   0  0  0  0  0  0  0  0  0  0  0  0
  -24.4570   -9.5600   21.8560 C   0  0  0  0  0  3  0  0  0  0  0  0
  -23.7410   -8.3560   22.0350 C   0  0  0  0  0  3  0  0  0  0  0  0
  -22.5650   -8.1060   21.2860 C   0  0  0  0  0  0  0  0  0  0  0  0
  -22.1370   -9.0610   20.3470 C   0  0  0  0  0  3  0  0  0  0  0  0
  -22.8530  -10.2560   20.1670 C   0  0  0  0  0  3  0  0  0  0  0  0
  -21.8230   -6.9540   21.3760 O   0  0  0  0  0  0  0  0  0  0  0  0
  -21.7170   -6.2560   22.5530 C   0  0  0  0  0  0  0  0  0  0  0  0
  -21.2050   -6.8500   23.7280 C   0  0  0  0  0  3  0  0  0  0  0  0
  -21.0480   -6.0770   24.8940 C   0  0  0  0  0  3  0  0  0  0  0  0
  -21.3920   -4.7110   24.8880 C   0  0  0  0  0  0  0  0  0  0  0  0
  -21.8980   -4.1170   23.7180 C   0  0  0  0  0  3  0  0  0  0  0  0
  -22.0570   -4.8870   22.5530 C   0  0  0  0  0  0  0  0  0  0  0  0
  -22.5250   -4.3050   21.4220 F   0  0  0  0  0  0  0  0  0  0  0  0
  -21.2320   -3.9690   26.0080 F   0  0  0  0  0  0  0  0  0  0  0  0
  -22.8820  -13.6040   21.2340 C   0  0  0  0  0  0  0  0  0  0  0  0
  -22.2120  -12.8740   22.1170 N   0  0  0  0  0  0  0  0  0  0  0  0
  -22.4140  -14.6480   20.7820 O   0  0  0  0  0  0  0  0  0  0  0  0
  -22.6070  -12.0350   22.5160 H   0  0  0  0  0  0  0  0  0  0  0  0
  -21.2880  -13.1630   22.4080 H   0  0  0  0  0  0  0  0  0  0  0  0
  -25.4400  -15.3170   20.3130 N   0  0  0  0  0  0  0  0  0  0  0  0
  -24.6910  -15.9650   20.5280 H   0  0  0  0  0  0  0  0  0  0  0  0
  -26.2670  -15.7800   19.9620 H   0  0  0  0  0  0  0  0  0  0  0  0
  -28.8500  -23.1370   20.0140 C   0  0  0  0  0  3  0  0  0  0  0  0
  -28.0030  -24.5840   20.4610 C   0  0  0  0  0  3  0  0  0  0  0  0
  -28.2810  -26.1350   20.1990 O   0  0  0  0  0  0  0  0  0  0  0  0
  -24.6670  -31.9220   23.2060 C   0  0  0  0  0  0  0  0  0  0  0  0
  -27.2430  -27.1610   20.1810 C   0  0  0  0  0  0  0  0  0  0  0  0
  -23.4680  -30.5170   21.5760 C   0  0  0  0  0  3  0  0  0  0  0  0
  -24.9190  -28.9420   20.1450 C   0  0  0  0  0  0  0  0  0  0  0  0
  -26.0220  -30.7820   21.4000 C   0  0  0  0  0  2  0  0  0  0  0  0
  -26.1020  -29.3820   20.7540 C   0  0  0  0  0  0  0  0  0  0  0  0
  -27.2640  -28.5080   20.7520 C   0  0  0  0  0  3  0  0  0  0  0  0
  -26.0370  -26.8480   19.5180 C   0  0  0  0  0  3  0  0  0  0  0  0
  -24.9070  -27.6940   19.5080 C   0  0  0  0  0  3  0  0  0  0  0  0
  -23.6880  -29.8370   20.1980 C   0  0  0  0  0  2  0  0  0  0  0  0
  -24.7400  -31.0980   22.1150 N   0  0  0  0  0  0  0  0  0  0  0  0
  -23.5820  -32.1990   23.7380 O   0  0  0  0  0  0  0  0  0  0  0  0
  -22.8020  -29.5110   22.5460 C   0  0  0  0  0  0  0  0  0  0  0  0
  -21.4760  -29.3200   22.4230 N   0  0  0  0  0  0  0  0  0  0  0  0
  -23.4830  -28.9010   23.3740 O   0  0  0  0  0  0  0  0  0  0  0  0
  -20.9830  -29.8680   21.7330 H   0  0  0  0  0  0  0  0  0  0  0  0
  -18.1130  -28.0690   22.9390 C   0  0  0  0  0  0  0  0  0  0  0  0
  -20.6680  -28.3740   23.1980 C   0  0  0  0  0  3  0  0  0  0  0  0
  -20.7880  -26.9410   22.6310 C   0  0  0  0  0  2  0  0  0  0  0  0
  -19.6890  -26.5960   21.6200 C   0  0  0  0  0  2  0  0  0  0  0  0
  -18.3070  -26.7210   22.2660 C   0  0  0  0  0  2  0  0  0  0  0  0
  -19.2200  -28.8520   23.3610 C   0  0  0  0  0  0  0  0  0  0  0  0
  -18.9800  -30.1090   23.9540 C   0  0  0  0  0  3  0  0  0  0  0  0
  -17.6680  -30.5880   24.1240 C   0  0  0  0  0  3  0  0  0  0  0  0
  -16.5760  -29.8040   23.7140 C   0  0  0  0  0  3  0  0  0  0  0  0
  -16.7980  -28.5460   23.1290 C   0  0  0  0  0  3  0  0  0  0  0  0
  -25.9430  -32.5710   23.8260 C   0  0  0  0  0  3  0  0  0  0  0  0
  -25.6160  -33.9680   24.1600 N   0  0  0  0  0  0  0  0  0  0  0  0
  -25.9340  -35.0310   23.4090 C   0  0  0  0  0  0  0  0  0  0  0  0
  -26.5950  -34.9390   22.3710 O   0  0  0  0  0  0  0  0  0  0  0  0
  -25.0320  -34.1140   24.9700 H   0  0  0  0  0  0  0  0  0  0  0  0
  -24.1920  -36.8190   23.0790 C   0  0  0  0  0  1  0  0  0  0  0  0
  -25.4410  -36.4130   23.8790 C   0  0  0  0  0  3  0  0  0  0  0  0
  -27.5720  -37.3160   24.7040 C   0  0  0  0  0  1  0  0  0  0  0  0
  -26.4650  -37.4750   23.7650 N   0  0  0  0  0  0  0  0  0  0  0  0
  -26.0520  -38.3920   23.9130 H   0  0  0  0  0  0  0  0  0  0  0  0
  -26.4670  -31.8100   25.1070 C   0  0  1  0  0  0  0  0  0  0  0  0
  -25.3770  -31.5630   26.1750 C   0  0  0  0  0  1  0  0  0  0  0  0
  -27.0660  -30.4360   24.7250 C   0  0  0  0  0  1  0  0  0  0  0  0
  -27.6070  -32.6200   25.7680 C   0  0  0  0  0  1  0  0  0  0  0  0
  2  1  1  0
  3 16  1  0
  4  9  1  0
  5  6  1  0
  5  4  1  0
  7  6  1  0
  7 20  1  0
  7  8  1  0
  9  3  1  0
  9  8  1  0
 10  3  2  0
 11 13  1  0
 12 15  1  0
 14 12  1  0
 14 16  1  0
 15  2  1  0
 15 11  1  0
 16 13  1  0
 17 18  2  0
 18 37  1  0
 19 18  1  0
 19 22  1  0
 20 21  1  0
 20 17  1  0
 21 19  2  0
 22 23  1  0
 23 24  2  0
 25 28  1  0
 25 24  1  0
 26 25  2  0
 27 26  1  0
 27 22  2  0
 28 29  1  0
 29 34  2  0
 29 30  1  0
 30 31  2  0
 32 31  1  0
 32 36  1  0
 33 32  2  0
 34 33  1  0
 35 34  1  0
 37 38  1  0
 38 41  1  0
 38 40  1  0
 39 37  2  0
 42 17  1  0
 42 43  1  0
 44 42  1  0
 45 46  2  0
 45  2  1  0
 47 46  1  0
 48 59  2  0
 49 47  1  0
 49 54  1  0
 50 58  1  0
 50 60  1  0
 51 57  1  0
 51 53  1  0
 52 58  1  0
 53 52  1  0
 54 53  2  0
 55 49  2  0
 56 55  1  0
 56 51  2  0
 57 50  1  0
 58 48  1  0
 60 62  2  0
 61 60  1  0
 63 61  1  0
 64 73  2  0
 64 69  1  0
 65 61  1  0
 65 69  1  0
 66 65  1  0
 67 68  1  0
 67 66  1  0
 68 64  1  0
 69 70  2  0
 70 71  1  0
 72 71  2  0
 73 72  1  0
 74 48  1  0
 74 75  1  0
 74 84  1  0
 75 78  1  0
 76 80  1  0
 76 75  1  0
 77 76  2  0
 80 79  1  0
 82 80  1  0
 82 83  1  0
 82 81  1  0
 84 87  1  1
 84 85  1  0
 86 84  1  0
M  ISO  4   3 100  16 100  46 101  47 101
M  END
>  <TORSDO>  (91) 
F 18

>  <SCORE>  (91) 
-15.876

>  <name>  (91) 
90

>  <ligand_id>  (91) 
90

>  <original_smiles>  (91) 
[H]c1c([H])c([H])c2c(c1[H])C([H])([H])C([H])([H])C([H])([H])C2([H])N([H])C(=O)C1([H])N(C(=O)C([H])(N([H])C(=O)C([H])(N([H])C([H])([H])[H])C([H])([H])[H])C(C([H])([H])[H])(C([H])([H])[H])C([H])([H])[H])C([H])([H])c2c([H])c(OC([H])([H])C([H])([H])C([H])(C([H])([H])[H])C3([H])C([H])([H])C([H])([H])N(C(=O)N4C([H])([H])C([H])([H])C([H])([H])C([H])(n5nc(-c6c([H])c([H])c(Oc7c([H])c([H])c(F)c([H])c7F)c([H])c6[H])c(C(=O)N([H])[H])c5N([H])[H])C4([H])[H])C([H])([H])C3([H])[H])c([H])c([H])c2C1([H])[H]

>  <smiles>  (91) 
[H]c1c([H])c([H])c2c(c1[H])C([H])([H])C([H])([H])C([H])([H])C2([H])N([H])C(=O)C1([H])N(C(=O)C([H])(N([H])C(=O)C([H])(N([H])C([H])([H])[H])C([H])([H])[H])C(C([H])([H])[H])(C([H])([H])[H])C([H])([H])[H])C([H])([H])c2c([H])c(OC([H])([H])C([H])([H])C([H])(C([H])([H])[H])C3([H])C([H])([H])C([H])([H])N(C(=O)N4C([H])([H])C([H])([H])C([H])([H])C([H])(n5nc(-c6c([H])c([H])c(Oc7c([H])c([H])c(F)c([H])c7F)c([H])c6[H])c(C(=O)N([H])[H])c5N([H])[H])C4([H])[H])C([H])([H])C3([H])[H])c([H])c([H])c2C1([H])[H]

$$$$
91:0:0
     RDKit          3D

 90 98  0  0  1  0  0  0  0  0999 V2000
  -30.3570  -21.6320   19.9370 C   0  0  0  0  0  3  0  0  0  0  0  0
  -28.2770  -20.9460   20.8540 C   0  0  0  0  0  3  0  0  0  0  0  0
  -29.8780  -22.9960   19.8290 C   0  0  0  0  0  3  0  0  0  0  0  0
  -27.8060  -22.3030   20.7540 C   0  0  0  0  0  3  0  0  0  0  0  0
  -29.5760  -20.5370   20.4410 C   0  0  0  0  0  0  0  0  0  0  0  0
  -28.5700  -23.4000   20.2380 C   0  0  0  0  0  0  0  0  0  0  0  0
  -30.1920  -19.0780   20.7790 C   0  0  0  0  0  2  0  0  0  0  0  0
  -30.0960  -17.6750   18.5930 C   0  0  0  0  0  1  0  0  0  0  0  0
  -29.8460  -17.6140   20.1060 C   0  0  0  0  0  3  0  0  0  0  0  0
  -30.5270  -16.2490   20.7690 C   0  0  0  0  0  3  0  0  0  0  0  0
  -30.8460  -14.8380   19.9960 C   0  0  0  0  0  0  0  0  0  0  0  0
  -30.4230  -12.5730   18.9700 C   0  0  0  0  0  2  0  0  0  0  0  0
  -29.4550  -12.6810   17.7710 C   0  0  0  0  0  2  0  0  0  0  0  0
  -28.0020  -12.5440   18.2520 C   0  0  0  0  0  2  0  0  0  0  0  0
  -27.7040  -13.4470   19.4780 C   0  0  0  0  0  3  0  0  0  0  0  0
  -28.8030  -13.3580   20.5600 C   0  0  0  0  0  2  0  0  0  0  0  0
  -30.1010  -13.6630   19.9370 N   0  0  0  0  0  0  0  0  0  0  0  0
  -31.9290  -14.8260   19.4050 O   0  0  0  0  0  0  0  0  0  0  0  0
  -25.3790  -14.1020   20.3390 C   0  0  0  0  0  0  0  0  0  0  0  0
  -24.3080  -13.3600   20.7520 C   0  0  0  0  0  0  0  0  0  0  0  0
  -24.7210  -11.9930   20.6810 C   0  0  0  0  0  0  0  0  0  0  0  0
  -26.3780  -13.1920   20.0340 N   0  0  0  0  0  0  0  0  0  0  0  0
  -25.9930  -11.9180   20.3050 N   0  0  0  0  0  0  0  0  0  0  0  0
  -23.9590  -10.7540   20.8910 C   0  0  0  0  0  0  0  0  0  0  0  0
  -24.3810   -9.7710   21.8150 C   0  0  0  0  0  3  0  0  0  0  0  0
  -23.6180   -8.6000   22.0160 C   0  0  0  0  0  3  0  0  0  0  0  0
  -22.4170   -8.4040   21.2920 C   0  0  0  0  0  0  0  0  0  0  0  0
  -22.0120   -9.3750   20.3590 C   0  0  0  0  0  3  0  0  0  0  0  0
  -22.7740  -10.5370   20.1570 C   0  0  0  0  0  3  0  0  0  0  0  0
  -21.6250   -7.2860   21.4020 O   0  0  0  0  0  0  0  0  0  0  0  0
  -21.5600   -6.5630   22.5650 C   0  0  0  0  0  0  0  0  0  0  0  0
  -21.1760   -7.1530   23.7900 C   0  0  0  0  0  3  0  0  0  0  0  0
  -21.0520   -6.3570   24.9470 C   0  0  0  0  0  3  0  0  0  0  0  0
  -21.3030   -4.9730   24.8810 C   0  0  0  0  0  0  0  0  0  0  0  0
  -21.6790   -4.3840   23.6620 C   0  0  0  0  0  3  0  0  0  0  0  0
  -21.8040   -5.1760   22.5060 C   0  0  0  0  0  0  0  0  0  0  0  0
  -22.1460   -4.5970   21.3300 F   0  0  0  0  0  0  0  0  0  0  0  0
  -21.1780   -4.2080   25.9900 F   0  0  0  0  0  0  0  0  0  0  0  0
  -22.9410  -13.8810   21.0960 C   0  0  0  0  0  0  0  0  0  0  0  0
  -22.2370  -13.2090   21.9990 N   0  0  0  0  0  0  0  0  0  0  0  0
  -22.5100  -14.9210   20.5990 O   0  0  0  0  0  0  0  0  0  0  0  0
  -22.5980  -12.3650   22.4220 H   0  0  0  0  0  0  0  0  0  0  0  0
  -21.3240  -13.5420   22.2730 H   0  0  0  0  0  0  0  0  0  0  0  0
  -25.5850  -15.4700   20.1730 N   0  0  0  0  0  0  0  0  0  0  0  0
  -24.8580  -16.1540   20.3550 H   0  0  0  0  0  0  0  0  0  0  0  0
  -26.4360  -15.8840   19.8160 H   0  0  0  0  0  0  0  0  0  0  0  0
  -31.1200  -16.7880   23.2520 C   0  0  0  0  0  1  0  0  0  0  0  0
  -30.1860  -16.0510   22.2730 C   0  0  0  0  0  2  0  0  0  0  0  0
  -27.8250  -24.7970   19.8930 C   0  0  0  0  0  2  0  0  0  0  0  0
  -28.1910  -26.2400   20.2340 O   0  0  0  0  0  0  0  0  0  0  0  0
  -24.5440  -31.8550   23.1760 C   0  0  0  0  0  0  0  0  0  0  0  0
  -27.1400  -27.2100   20.1290 C   0  0  0  0  0  0  0  0  0  0  0  0
  -23.3420  -30.4490   21.5460 C   0  0  0  0  0  3  0  0  0  0  0  0
  -24.7930  -28.9030   20.1100 C   0  0  0  0  0  0  0  0  0  0  0  0
  -25.8910  -30.7460   21.3660 C   0  0  0  0  0  2  0  0  0  0  0  0
  -25.9690  -29.3630   20.7150 C   0  0  0  0  0  0  0  0  0  0  0  0
  -27.1440  -28.5300   20.7160 C   0  0  0  0  0  3  0  0  0  0  0  0
  -25.9420  -26.8610   19.4560 C   0  0  0  0  0  3  0  0  0  0  0  0
  -24.7880  -27.6620   19.4660 C   0  0  0  0  0  3  0  0  0  0  0  0
  -23.5580  -29.7800   20.1640 C   0  0  0  0  0  2  0  0  0  0  0  0
  -24.6120  -31.0380   22.0820 N   0  0  0  0  0  0  0  0  0  0  0  0
  -23.4600  -32.1300   23.7110 O   0  0  0  0  0  0  0  0  0  0  0  0
  -22.6830  -29.4320   22.5090 C   0  0  0  0  0  0  0  0  0  0  0  0
  -21.3560  -29.2470   22.3890 N   0  0  0  0  0  0  0  0  0  0  0  0
  -23.3670  -28.8140   23.3290 O   0  0  0  0  0  0  0  0  0  0  0  0
  -20.8620  -29.8010   21.7040 H   0  0  0  0  0  0  0  0  0  0  0  0
  -17.9890  -28.0190   22.9060 C   0  0  0  0  0  0  0  0  0  0  0  0
  -20.5450  -28.3070   23.1670 C   0  0  0  0  0  3  0  0  0  0  0  0
  -20.6590  -26.8710   22.6040 C   0  0  0  0  0  2  0  0  0  0  0  0
  -19.5590  -26.5300   21.5940 C   0  0  0  0  0  2  0  0  0  0  0  0
  -18.1760  -26.6670   22.2380 C   0  0  0  0  0  2  0  0  0  0  0  0
  -19.1010  -28.7960   23.3270 C   0  0  0  0  0  0  0  0  0  0  0  0
  -18.8700  -30.0600   23.9110 C   0  0  0  0  0  3  0  0  0  0  0  0
  -17.5610  -30.5490   24.0750 C   0  0  0  0  0  3  0  0  0  0  0  0
  -16.4630  -29.7710   23.6690 C   0  0  0  0  0  3  0  0  0  0  0  0
  -16.6770  -28.5070   23.0900 C   0  0  0  0  0  3  0  0  0  0  0  0
  -25.8250  -32.4990   23.7900 C   0  0  0  0  0  3  0  0  0  0  0  0
  -25.5010  -33.8900   24.1350 N   0  0  0  0  0  0  0  0  0  0  0  0
  -25.8180  -34.9560   23.3880 C   0  0  0  0  0  0  0  0  0  0  0  0
  -26.4830  -34.8720   22.3520 O   0  0  0  0  0  0  0  0  0  0  0  0
  -24.9120  -34.0290   24.9430 H   0  0  0  0  0  0  0  0  0  0  0  0
  -24.0760  -36.7430   23.0620 C   0  0  0  0  0  1  0  0  0  0  0  0
  -25.3210  -36.3340   23.8670 C   0  0  0  0  0  3  0  0  0  0  0  0
  -27.4500  -37.2230   24.7090 C   0  0  0  0  0  1  0  0  0  0  0  0
  -26.3450  -37.3970   23.7690 N   0  0  0  0  0  0  0  0  0  0  0  0
  -25.9330  -38.3120   23.9300 H   0  0  0  0  0  0  0  0  0  0  0  0
  -26.3590  -31.7250   25.0580 C   0  0  1  0  0  0  0  0  0  0  0  0
  -25.2790  -31.4690   26.1340 C   0  0  0  0  0  1  0  0  0  0  0  0
  -26.9540  -30.3560   24.6540 C   0  0  0  0  0  1  0  0  0  0  0  0
  -27.5060  -32.5290   25.7130 C   0  0  0  0  0  1  0  0  0  0  0  0
  1  5  1  0
  3  1  2  0
  3  6  1  0
  4  2  1  0
  5  7  1  0
  5  2  2  0
  6  4  2  0
  9  8  1  0
  9 10  1  0
  9  7  1  0
 10 48  1  0
 11 10  1  0
 12 17  1  0
 13 14  1  0
 13 12  1  0
 15 14  1  0
 15 22  1  0
 15 16  1  0
 17 11  1  0
 17 16  1  0
 18 11  2  0
 19 20  2  0
 20 39  1  0
 21 20  1  0
 21 24  1  0
 22 23  1  0
 22 19  1  0
 23 21  2  0
 24 25  1  0
 25 26  2  0
 27 30  1  0
 27 26  1  0
 28 27  2  0
 29 28  1  0
 29 24  2  0
 30 31  1  0
 31 32  1  0
 32 33  2  0
 34 33  1  0
 34 38  1  0
 35 34  2  0
 36 31  2  0
 36 35  1  0
 37 36  1  0
 39 40  1  0
 40 43  1  0
 40 42  1  0
 41 39  2  0
 44 19  1  0
 44 45  1  0
 46 44  1  0
 48 47  1  0
 49 50  1  0
 49  6  1  0
 51 62  2  0
 52 50  1  0
 52 57  1  0
 53 61  1  0
 53 63  1  0
 54 60  1  0
 54 56  1  0
 55 61  1  0
 56 57  2  0
 56 55  1  0
 58 59  1  0
 58 52  2  0
 59 54  2  0
 60 53  1  0
 61 51  1  0
 63 65  2  0
 64 63  1  0
 66 64  1  0
 67 76  2  0
 67 72  1  0
 68 64  1  0
 68 72  1  0
 69 68  1  0
 70 71  1  0
 70 69  1  0
 71 67  1  0
 72 73  2  0
 73 74  1  0
 75 74  2  0
 76 75  1  0
 77 51  1  0
 77 78  1  0
 77 87  1  0
 78 81  1  0
 79 83  1  0
 79 78  1  0
 80 79  2  0
 83 82  1  0
 85 83  1  0
 85 86  1  0
 85 84  1  0
 87 90  1  1
 87 88  1  0
 89 87  1  0
M  ISO  4  10 100  11 100  49 101  50 101
M  END
>  <TORSDO>  (92) 
F 21

>  <SCORE>  (92) 
-12.218

>  <name>  (92) 
91

>  <ligand_id>  (92) 
91

>  <original_smiles>  (92) 
[H]c1c([H])c([H])c2c(c1[H])C([H])([H])C([H])([H])C([H])([H])C2([H])N([H])C(=O)C1([H])N(C(=O)C([H])(N([H])C(=O)C([H])(N([H])C([H])([H])[H])C([H])([H])[H])C(C([H])([H])[H])(C([H])([H])[H])C([H])([H])[H])C([H])([H])c2c([H])c(OC([H])([H])c3c([H])c([H])c(C([H])([H])C([H])(C([H])([H])[H])C([H])(C(=O)N4C([H])([H])C([H])([H])C([H])([H])C([H])(n5nc(-c6c([H])c([H])c(Oc7c([H])c([H])c(F)c([H])c7F)c([H])c6[H])c(C(=O)N([H])[H])c5N([H])[H])C4([H])[H])C([H])([H])C([H])([H])[H])c([H])c3[H])c([H])c([H])c2C1([H])[H]

>  <smiles>  (92) 
[H]c1c([H])c([H])c2c(c1[H])C([H])([H])C([H])([H])C([H])([H])C2([H])N([H])C(=O)C1([H])N(C(=O)C([H])(N([H])C(=O)C([H])(N([H])C([H])([H])[H])C([H])([H])[H])C(C([H])([H])[H])(C([H])([H])[H])C([H])([H])[H])C([H])([H])c2c([H])c(OC([H])([H])c3c([H])c([H])c(C([H])([H])C([H])(C([H])([H])[H])C([H])(C(=O)N4C([H])([H])C([H])([H])C([H])([H])C([H])(n5nc(-c6c([H])c([H])c(Oc7c([H])c([H])c(F)c([H])c7F)c([H])c6[H])c(C(=O)N([H])[H])c5N([H])[H])C4([H])[H])C([H])([H])C([H])([H])[H])c([H])c3[H])c([H])c([H])c2C1([H])[H]

$$$$
92:0:0
     RDKit          3D

 85 93  0  0  1  0  0  0  0  0999 V2000
  -28.8740  -22.1500   20.4190 C   0  0  0  0  0  0  0  0  0  0  0  0
  -29.7360  -22.3670   21.2770 O   0  0  0  0  0  0  0  0  0  0  0  0
  -30.2920  -15.7910   20.1180 C   0  0  0  0  0  0  0  0  0  0  0  0
  -30.3970  -13.2310   19.2990 C   0  0  0  0  0  2  0  0  0  0  0  0
  -29.5160  -12.8120   18.0870 C   0  0  0  0  0  2  0  0  0  0  0  0
  -28.0960  -12.4410   18.5460 C   0  0  0  0  0  2  0  0  0  0  0  0
  -27.5810  -13.4300   19.6210 C   0  0  0  0  0  3  0  0  0  0  0  0
  -28.6170  -13.7620   20.7220 C   0  0  0  0  0  2  0  0  0  0  0  0
  -29.7580  -14.4200   20.0400 N   0  0  0  0  0  0  0  0  0  0  0  0
  -31.5270  -15.6790   19.9570 O   0  0  0  0  0  0  0  0  0  0  0  0
  -27.8110  -19.2490   20.4570 C   0  0  0  0  0  2  0  0  0  0  0  0
  -28.1540  -17.6350   20.2460 C   0  0  0  0  0  2  0  0  0  0  0  0
  -30.0140  -18.8760   20.1650 C   0  0  0  0  0  2  0  0  0  0  0  0
  -28.8860  -20.3040   19.9500 C   0  0  0  0  0  3  0  0  0  0  0  0
  -29.6070  -17.2240   20.1750 N   0  0  0  0  0  0  0  0  0  0  0  0
  -25.2330  -13.9230   20.4330 C   0  0  0  0  0  0  0  0  0  0  0  0
  -24.1900  -13.1310   20.8120 C   0  0  0  0  0  0  0  0  0  0  0  0
  -24.6750  -11.7860   20.7660 C   0  0  0  0  0  0  0  0  0  0  0  0
  -26.2820  -13.0670   20.1630 N   0  0  0  0  0  0  0  0  0  0  0  0
  -25.9660  -11.7740   20.4360 N   0  0  0  0  0  0  0  0  0  0  0  0
  -23.9650  -10.5150   20.9570 C   0  0  0  0  0  0  0  0  0  0  0  0
  -24.3920   -9.5610   21.9050 C   0  0  0  0  0  3  0  0  0  0  0  0
  -23.6720   -8.3610   22.0900 C   0  0  0  0  0  3  0  0  0  0  0  0
  -22.5110   -8.1030   21.3260 C   0  0  0  0  0  0  0  0  0  0  0  0
  -22.0980   -9.0500   20.3710 C   0  0  0  0  0  3  0  0  0  0  0  0
  -22.8180  -10.2410   20.1840 C   0  0  0  0  0  3  0  0  0  0  0  0
  -21.7630   -6.9530   21.4180 O   0  0  0  0  0  0  0  0  0  0  0  0
  -21.6840   -6.2380   22.5860 C   0  0  0  0  0  0  0  0  0  0  0  0
  -21.1700   -6.8050   23.7740 C   0  0  0  0  0  3  0  0  0  0  0  0
  -21.0450   -6.0130   24.9330 C   0  0  0  0  0  3  0  0  0  0  0  0
  -21.4220   -4.6560   24.9050 C   0  0  0  0  0  0  0  0  0  0  0  0
  -21.9250   -4.0890   23.7210 C   0  0  0  0  0  3  0  0  0  0  0  0
  -22.0540   -4.8790   22.5650 C   0  0  0  0  0  0  0  0  0  0  0  0
  -22.5240   -4.3230   21.4210 F   0  0  0  0  0  0  0  0  0  0  0  0
  -21.2890   -3.8920   26.0140 F   0  0  0  0  0  0  0  0  0  0  0  0
  -22.7900  -13.5920   21.0890 C   0  0  0  0  0  0  0  0  0  0  0  0
  -22.0810  -12.9050   21.9760 N   0  0  0  0  0  0  0  0  0  0  0  0
  -22.3360  -14.6050   20.5540 O   0  0  0  0  0  0  0  0  0  0  0  0
  -22.4640  -12.0900   22.4340 H   0  0  0  0  0  0  0  0  0  0  0  0
  -21.1420  -13.2000   22.2000 H   0  0  0  0  0  0  0  0  0  0  0  0
  -25.3680  -15.2970   20.2600 N   0  0  0  0  0  0  0  0  0  0  0  0
  -24.5810  -15.9250   20.3840 H   0  0  0  0  0  0  0  0  0  0  0  0
  -26.1920  -15.7620   19.9020 H   0  0  0  0  0  0  0  0  0  0  0  0
  -27.9580  -23.7510   19.9870 C   0  0  0  0  0  2  0  0  0  0  0  0
  -28.1390  -25.4960   20.3280 O   0  0  0  0  0  0  0  0  0  0  0  0
  -24.6780  -31.8520   23.2530 C   0  0  0  0  0  0  0  0  0  0  0  0
  -27.1920  -26.7440   20.2480 C   0  0  0  0  0  0  0  0  0  0  0  0
  -23.4900  -30.4630   21.6110 C   0  0  0  0  0  3  0  0  0  0  0  0
  -24.9360  -28.8120   20.1910 C   0  0  0  0  0  0  0  0  0  0  0  0
  -26.0720  -30.5840   21.4990 C   0  0  0  0  0  2  0  0  0  0  0  0
  -26.1300  -29.1520   20.8340 C   0  0  0  0  0  0  0  0  0  0  0  0
  -27.2410  -28.1460   20.8330 C   0  0  0  0  0  3  0  0  0  0  0  0
  -25.9670  -26.6290   19.5390 C   0  0  0  0  0  3  0  0  0  0  0  0
  -24.8950  -27.5770   19.5200 C   0  0  0  0  0  3  0  0  0  0  0  0
  -23.7330  -29.7710   20.2370 C   0  0  0  0  0  2  0  0  0  0  0  0
  -24.7720  -31.0000   22.1730 N   0  0  0  0  0  0  0  0  0  0  0  0
  -23.5840  -32.1530   23.7620 O   0  0  0  0  0  0  0  0  0  0  0  0
  -22.7700  -29.4850   22.5770 C   0  0  0  0  0  0  0  0  0  0  0  0
  -21.4390  -29.3240   22.4430 N   0  0  0  0  0  0  0  0  0  0  0  0
  -23.4230  -28.8630   23.4170 O   0  0  0  0  0  0  0  0  0  0  0  0
  -20.9600  -29.8720   21.7430 H   0  0  0  0  0  0  0  0  0  0  0  0
  -18.0570  -28.0930   22.9420 C   0  0  0  0  0  0  0  0  0  0  0  0
  -20.6120  -28.3860   23.2160 C   0  0  0  0  0  3  0  0  0  0  0  0
  -20.7290  -26.9510   22.6520 C   0  0  0  0  0  2  0  0  0  0  0  0
  -19.6400  -26.6140   21.6300 C   0  0  0  0  0  2  0  0  0  0  0  0
  -18.2510  -26.7450   22.2640 C   0  0  0  0  0  2  0  0  0  0  0  0
  -19.1640  -28.8690   23.3740 C   0  0  0  0  0  0  0  0  0  0  0  0
  -18.9260  -30.1240   23.9740 C   0  0  0  0  0  3  0  0  0  0  0  0
  -17.6160  -30.6060   24.1430 C   0  0  0  0  0  3  0  0  0  0  0  0
  -16.5210  -29.8290   23.7230 C   0  0  0  0  0  3  0  0  0  0  0  0
  -16.7420  -28.5740   23.1280 C   0  0  0  0  0  3  0  0  0  0  0  0
  -25.9380  -32.5040   23.8970 C   0  0  0  0  0  3  0  0  0  0  0  0
  -25.6230  -33.9130   24.2090 N   0  0  0  0  0  0  0  0  0  0  0  0
  -25.9550  -34.9660   23.4500 C   0  0  0  0  0  0  0  0  0  0  0  0
  -26.6130  -34.8560   22.4140 O   0  0  0  0  0  0  0  0  0  0  0  0
  -25.0310  -34.0720   25.0110 H   0  0  0  0  0  0  0  0  0  0  0  0
  -24.2270  -36.7760   23.1290 C   0  0  0  0  0  1  0  0  0  0  0  0
  -25.4870  -36.3660   23.9100 C   0  0  0  0  0  3  0  0  0  0  0  0
  -27.6390  -37.2620   24.6830 C   0  0  0  0  0  1  0  0  0  0  0  0
  -26.5190  -37.4150   23.7580 N   0  0  0  0  0  0  0  0  0  0  0  0
  -26.1200  -38.3390   23.8990 H   0  0  0  0  0  0  0  0  0  0  0  0
  -26.4130  -31.7630   25.2090 C   0  0  1  0  0  0  0  0  0  0  0  0
  -25.2900  -31.5670   26.2550 C   0  0  0  0  0  1  0  0  0  0  0  0
  -26.9900  -30.3680   24.8840 C   0  0  0  0  0  1  0  0  0  0  0  0
  -27.5560  -32.5620   25.8790 C   0  0  0  0  0  1  0  0  0  0  0  0
  1  2  2  0
  3 15  1  0
  4  9  1  0
  5  6  1  0
  5  4  1  0
  7  6  1  0
  7 19  1  0
  7  8  1  0
  9  3  1  0
  9  8  1  0
 10  3  2  0
 12 11  1  0
 13 15  1  0
 14 13  1  0
 14  1  1  0
 14 11  1  0
 15 12  1  0
 16 17  2  0
 17 36  1  0
 18 17  1  0
 18 21  1  0
 19 16  1  0
 19 20  1  0
 20 18  2  0
 21 22  1  0
 22 23  2  0
 24 27  1  0
 24 23  1  0
 25 24  2  0
 26 25  1  0
 26 21  2  0
 27 28  1  0
 28 29  1  0
 29 30  2  0
 31 30  1  0
 31 35  1  0
 32 31  2  0
 33 28  2  0
 33 32  1  0
 34 33  1  0
 36 37  1  0
 37 40  1  0
 37 39  1  0
 38 36  2  0
 41 42  1  0
 41 16  1  0
 43 41  1  0
 44 45  1  0
 44  1  1  0
 46 57  2  0
 47 45  1  0
 47 52  1  0
 48 56  1  0
 48 58  1  0
 49 55  1  0
 49 51  1  0
 50 56  1  0
 51 50  1  0
 52 51  2  0
 53 47  2  0
 54 53  1  0
 54 49  2  0
 55 48  1  0
 56 46  1  0
 58 60  2  0
 59 58  1  0
 61 59  1  0
 62 71  2  0
 62 67  1  0
 63 59  1  0
 63 67  1  0
 64 63  1  0
 65 66  1  0
 65 64  1  0
 66 62  1  0
 67 68  2  0
 68 69  1  0
 70 69  2  0
 71 70  1  0
 72 46  1  0
 72 73  1  0
 72 82  1  0
 73 76  1  0
 74 78  1  0
 74 73  1  0
 75 74  2  0
 78 77  1  0
 80 81  1  0
 80 78  1  0
 80 79  1  0
 82 85  1  1
 82 83  1  0
 84 82  1  0
M  ISO  4   3 100  15 100  44 101  45 101
M  END
>  <TORSDO>  (93) 
F 17

>  <SCORE>  (93) 
-16.382

>  <name>  (93) 
92

>  <ligand_id>  (93) 
92

>  <original_smiles>  (93) 
[H]c1c([H])c([H])c2c(c1[H])C([H])([H])C([H])([H])C([H])([H])C2([H])N([H])C(=O)C1([H])N(C(=O)C([H])(N([H])C(=O)C([H])(N([H])C([H])([H])[H])C([H])([H])[H])C(C([H])([H])[H])(C([H])([H])[H])C([H])([H])[H])C([H])([H])c2c([H])c(OC([H])([H])C(=O)C3([H])C([H])([H])N(C(=O)N4C([H])([H])C([H])([H])C([H])([H])C([H])(n5nc(-c6c([H])c([H])c(Oc7c([H])c([H])c(F)c([H])c7F)c([H])c6[H])c(C(=O)N([H])[H])c5N([H])[H])C4([H])[H])C([H])([H])C3([H])[H])c([H])c([H])c2C1([H])[H]

>  <smiles>  (93) 
[H]c1c([H])c([H])c2c(c1[H])C([H])([H])C([H])([H])C([H])([H])C2([H])N([H])C(=O)C1([H])N(C(=O)C([H])(N([H])C(=O)C([H])(N([H])C([H])([H])[H])C([H])([H])[H])C(C([H])([H])[H])(C([H])([H])[H])C([H])([H])[H])C([H])([H])c2c([H])c(OC([H])([H])C(=O)C3([H])C([H])([H])N(C(=O)N4C([H])([H])C([H])([H])C([H])([H])C([H])(n5nc(-c6c([H])c([H])c(Oc7c([H])c([H])c(F)c([H])c7F)c([H])c6[H])c(C(=O)N([H])[H])c5N([H])[H])C4([H])[H])C([H])([H])C3([H])[H])c([H])c([H])c2C1([H])[H]

$$$$
93:0:0
     RDKit          3D

 87 95  0  0  1  0  0  0  0  0999 V2000
  -27.6840  -22.5720   21.4450 C   0  0  0  0  0  2  0  0  0  0  0  0
  -27.5850  -24.1320   21.5760 C   0  0  0  0  0  2  0  0  0  0  0  0
  -29.1420  -23.6090   19.8550 C   0  0  0  0  0  2  0  0  0  0  0  0
  -28.9920  -22.2160   20.6960 C   0  0  0  0  0  3  0  0  0  0  0  0
  -28.0440  -24.7450   20.2390 C   0  0  0  0  0  3  0  0  0  0  0  0
  -27.8770  -20.4510   19.1490 C   0  0  0  0  0  1  0  0  0  0  0  0
  -29.1240  -20.6900   20.0110 C   0  0  0  0  0  3  0  0  0  0  0  0
  -29.4640  -19.2670   20.8280 C   0  0  0  0  0  2  0  0  0  0  0  0
  -29.7940  -17.7960   20.0940 C   0  0  0  0  0  3  0  0  0  0  0  0
  -29.7910  -16.2960   20.8390 C   0  0  0  0  0  3  0  0  0  0  0  0
  -30.5220  -14.9240   20.2840 C   0  0  0  0  0  0  0  0  0  0  0  0
  -30.3740  -12.6130   19.2520 C   0  0  0  0  0  2  0  0  0  0  0  0
  -29.4200  -12.6370   18.0350 C   0  0  0  0  0  2  0  0  0  0  0  0
  -27.9580  -12.4480   18.4840 C   0  0  0  0  0  2  0  0  0  0  0  0
  -27.5870  -13.3480   19.6930 C   0  0  0  0  0  3  0  0  0  0  0  0
  -28.6540  -13.2620   20.8040 C   0  0  0  0  0  2  0  0  0  0  0  0
  -29.9350  -13.6650   20.2120 N   0  0  0  0  0  0  0  0  0  0  0  0
  -31.6800  -15.0230   19.8610 O   0  0  0  0  0  0  0  0  0  0  0  0
  -25.2090  -13.9460   20.4410 C   0  0  0  0  0  0  0  0  0  0  0  0
  -24.1420  -13.1790   20.8210 C   0  0  0  0  0  0  0  0  0  0  0  0
  -24.6000  -11.8250   20.7940 C   0  0  0  0  0  0  0  0  0  0  0  0
  -26.2460  -13.0620   20.1960 N   0  0  0  0  0  0  0  0  0  0  0  0
  -25.8870  -11.7810   20.4710 N   0  0  0  0  0  0  0  0  0  0  0  0
  -23.8680  -10.5680   20.9970 C   0  0  0  0  0  0  0  0  0  0  0  0
  -24.3110   -9.5980   21.9250 C   0  0  0  0  0  3  0  0  0  0  0  0
  -23.5830   -8.4050   22.1160 C   0  0  0  0  0  3  0  0  0  0  0  0
  -22.3960   -8.1720   21.3800 C   0  0  0  0  0  0  0  0  0  0  0  0
  -21.9720   -9.1290   20.4420 C   0  0  0  0  0  3  0  0  0  0  0  0
  -22.7010  -10.3150   20.2490 C   0  0  0  0  0  3  0  0  0  0  0  0
  -21.6360   -7.0320   21.4840 O   0  0  0  0  0  0  0  0  0  0  0  0
  -21.6110   -6.2870   22.6350 C   0  0  0  0  0  0  0  0  0  0  0  0
  -21.2240   -6.8390   23.8750 C   0  0  0  0  0  3  0  0  0  0  0  0
  -21.1430   -6.0200   25.0190 C   0  0  0  0  0  3  0  0  0  0  0  0
  -21.4390   -4.6470   24.9250 C   0  0  0  0  0  0  0  0  0  0  0  0
  -21.8170   -4.0930   23.6890 C   0  0  0  0  0  3  0  0  0  0  0  0
  -21.9010   -4.9080   22.5480 C   0  0  0  0  0  0  0  0  0  0  0  0
  -22.2460   -4.3650   21.3580 F   0  0  0  0  0  0  0  0  0  0  0  0
  -21.3540   -3.8580   26.0200 F   0  0  0  0  0  0  0  0  0  0  0  0
  -22.7480  -13.6610   21.1030 C   0  0  0  0  0  0  0  0  0  0  0  0
  -22.0200  -12.9790   21.9790 N   0  0  0  0  0  0  0  0  0  0  0  0
  -22.3130  -14.6870   20.5790 O   0  0  0  0  0  0  0  0  0  0  0  0
  -22.3810  -12.1510   22.4310 H   0  0  0  0  0  0  0  0  0  0  0  0
  -21.0840  -13.2880   22.2030 H   0  0  0  0  0  0  0  0  0  0  0  0
  -25.3780  -15.3150   20.2550 N   0  0  0  0  0  0  0  0  0  0  0  0
  -24.6230  -15.9790   20.3800 H   0  0  0  0  0  0  0  0  0  0  0  0
  -26.2310  -15.7450   19.9210 H   0  0  0  0  0  0  0  0  0  0  0  0
  -28.2680  -26.2780   20.2460 O   0  0  0  0  0  0  0  0  0  0  0  0
  -24.6050  -31.8970   23.2340 C   0  0  0  0  0  0  0  0  0  0  0  0
  -27.1880  -27.2220   20.1940 C   0  0  0  0  0  0  0  0  0  0  0  0
  -23.4020  -30.4980   21.5960 C   0  0  0  0  0  3  0  0  0  0  0  0
  -24.8510  -28.9370   20.1670 C   0  0  0  0  0  0  0  0  0  0  0  0
  -25.9530  -30.7820   21.4240 C   0  0  0  0  0  2  0  0  0  0  0  0
  -26.0300  -29.3970   20.7680 C   0  0  0  0  0  0  0  0  0  0  0  0
  -27.2000  -28.5540   20.7620 C   0  0  0  0  0  3  0  0  0  0  0  0
  -25.9810  -26.8610   19.5520 C   0  0  0  0  0  3  0  0  0  0  0  0
  -24.8370  -27.6830   19.5460 C   0  0  0  0  0  3  0  0  0  0  0  0
  -23.6160  -29.8200   20.2190 C   0  0  0  0  0  2  0  0  0  0  0  0
  -24.6730  -31.0800   22.1390 N   0  0  0  0  0  0  0  0  0  0  0  0
  -23.5200  -32.1790   23.7650 O   0  0  0  0  0  0  0  0  0  0  0  0
  -22.7310  -29.4880   22.5600 C   0  0  0  0  0  0  0  0  0  0  0  0
  -21.4030  -29.3120   22.4320 N   0  0  0  0  0  0  0  0  0  0  0  0
  -23.4050  -28.8660   23.3840 O   0  0  0  0  0  0  0  0  0  0  0  0
  -20.9170  -29.8580   21.7340 H   0  0  0  0  0  0  0  0  0  0  0  0
  -18.0260  -28.1070   22.9320 C   0  0  0  0  0  0  0  0  0  0  0  0
  -20.5830  -28.3750   23.2030 C   0  0  0  0  0  3  0  0  0  0  0  0
  -20.6900  -26.9430   22.6310 C   0  0  0  0  0  2  0  0  0  0  0  0
  -19.5910  -26.6150   21.6160 C   0  0  0  0  0  2  0  0  0  0  0  0
  -18.2070  -26.7570   22.2560 C   0  0  0  0  0  2  0  0  0  0  0  0
  -19.1420  -28.8730   23.3610 C   0  0  0  0  0  0  0  0  0  0  0  0
  -18.9180  -30.1350   23.9530 C   0  0  0  0  0  3  0  0  0  0  0  0
  -17.6120  -30.6320   24.1180 C   0  0  0  0  0  3  0  0  0  0  0  0
  -16.5100  -29.8620   23.7070 C   0  0  0  0  0  3  0  0  0  0  0  0
  -16.7180  -28.6010   23.1210 C   0  0  0  0  0  3  0  0  0  0  0  0
  -25.8850  -32.5330   23.8560 C   0  0  0  0  0  3  0  0  0  0  0  0
  -26.3960  -31.7670   25.1390 C   0  0  1  0  0  0  0  0  0  0  0  0
  -25.2980  -31.5420   26.2040 C   0  0  0  0  0  1  0  0  0  0  0  0
  -26.9760  -30.3830   24.7660 C   0  0  0  0  0  1  0  0  0  0  0  0
  -27.5470  -32.5620   25.8000 C   0  0  0  0  0  1  0  0  0  0  0  0
  -25.5740  -33.9330   24.1840 N   0  0  0  0  0  0  0  0  0  0  0  0
  -25.9090  -34.9880   23.4280 C   0  0  0  0  0  0  0  0  0  0  0  0
  -26.5790  -34.8820   22.3970 O   0  0  0  0  0  0  0  0  0  0  0  0
  -24.9830  -34.0880   24.9870 H   0  0  0  0  0  0  0  0  0  0  0  0
  -24.1830  -36.7830   23.0750 C   0  0  0  0  0  1  0  0  0  0  0  0
  -25.4250  -36.3770   23.8860 C   0  0  0  0  0  3  0  0  0  0  0  0
  -27.5620  -37.2560   24.7160 C   0  0  0  0  0  1  0  0  0  0  0  0
  -26.4600  -37.4270   23.7730 N   0  0  0  0  0  0  0  0  0  0  0  0
  -26.0560  -38.3480   23.9200 H   0  0  0  0  0  0  0  0  0  0  0  0
  1  2  1  0
  3  5  1  0
  3  4  1  0
  4  7  1  0
  4  1  1  0
  5 47  1  0
  5  2  1  0
  7  6  1  0
  7  8  1  0
  9  8  1  0
  9 10  2  0
 11 10  1  0
 12 17  1  0
 13 14  1  0
 13 12  1  0
 15 14  1  0
 15 22  1  0
 15 16  1  0
 17 11  1  0
 17 16  1  0
 18 11  2  0
 19 20  2  0
 20 39  1  0
 21 20  1  0
 21 24  1  0
 22 19  1  0
 22 23  1  0
 23 21  2  0
 24 25  1  0
 25 26  2  0
 27 30  1  0
 27 26  1  0
 28 27  2  0
 29 28  1  0
 29 24  2  0
 30 31  1  0
 31 32  1  0
 32 33  2  0
 34 33  1  0
 34 38  1  0
 35 34  2  0
 36 31  2  0
 36 35  1  0
 37 36  1  0
 39 40  1  0
 40 43  1  0
 40 42  1  0
 41 39  2  0
 44 45  1  0
 44 19  1  0
 46 44  1  0
 48 59  2  0
 49 47  1  0
 49 54  1  0
 50 58  1  0
 50 60  1  0
 51 57  1  0
 51 53  1  0
 52 58  1  0
 53 52  1  0
 54 53  2  0
 55 49  2  0
 56 55  1  0
 56 51  2  0
 57 50  1  0
 58 48  1  0
 60 62  2  0
 61 60  1  0
 63 61  1  0
 64 73  2  0
 64 69  1  0
 65 61  1  0
 65 69  1  0
 66 65  1  0
 67 68  1  0
 67 66  1  0
 68 64  1  0
 69 70  2  0
 70 71  1  0
 72 71  2  0
 73 72  1  0
 74 48  1  0
 74 79  1  0
 74 75  1  0
 75 78  1  1
 75 76  1  0
 77 75  1  0
 79 82  1  0
 80 84  1  0
 80 79  1  0
 81 80  2  0
 84 83  1  0
 86 84  1  0
 86 87  1  0
 86 85  1  0
M  ISO  4   5 101  10 100  11 100  47 101
M  END
>  <TORSDO>  (94) 
F 20

>  <SCORE>  (94) 
-13.800

>  <name>  (94) 
93

>  <ligand_id>  (94) 
93

>  <original_smiles>  (94) 
[H]c1c([H])c([H])c2c(c1[H])C([H])([H])C([H])([H])C([H])([H])C2([H])N([H])C(=O)C1([H])N(C(=O)C([H])(N([H])C(=O)C([H])(N([H])C([H])([H])[H])C([H])([H])[H])C(C([H])([H])[H])(C([H])([H])[H])C([H])([H])[H])C([H])([H])c2c([H])c(OC3([H])C([H])([H])C([H])([H])C([H])(C([H])(C([H])([H])[H])C([H])([H])C([H])([H])C([H])([H])C(=O)N4C([H])([H])C([H])([H])C([H])([H])C([H])(n5nc(-c6c([H])c([H])c(Oc7c([H])c([H])c(F)c([H])c7F)c([H])c6[H])c(C(=O)N([H])[H])c5N([H])[H])C4([H])[H])C3([H])[H])c([H])c([H])c2C1([H])[H]

>  <smiles>  (94) 
[H]c1c([H])c([H])c2c(c1[H])C([H])([H])C([H])([H])C([H])([H])C2([H])N([H])C(=O)C1([H])N(C(=O)C([H])(N([H])C(=O)C([H])(N([H])C([H])([H])[H])C([H])([H])[H])C(C([H])([H])[H])(C([H])([H])[H])C([H])([H])[H])C([H])([H])c2c([H])c(OC3([H])C([H])([H])C([H])([H])C([H])(C([H])(C([H])([H])[H])C([H])([H])C([H])([H])C([H])([H])C(=O)N4C([H])([H])C([H])([H])C([H])([H])C([H])(n5nc(-c6c([H])c([H])c(Oc7c([H])c([H])c(F)c([H])c7F)c([H])c6[H])c(C(=O)N([H])[H])c5N([H])[H])C4([H])[H])C3([H])[H])c([H])c([H])c2C1([H])[H]

$$$$
94:0:0
     RDKit          3D

 91 99  0  0  1  0  0  0  0  0999 V2000
  -28.9320  -22.1900   19.1560 C   0  0  0  0  0  3  0  0  0  0  0  0
  -28.6230  -22.2280   21.4470 C   0  0  0  0  0  3  0  0  0  0  0  0
  -28.7010  -23.6540   19.1200 C   0  0  0  0  0  3  0  0  0  0  0  0
  -28.3830  -23.6830   21.4090 C   0  0  0  0  0  3  0  0  0  0  0  0
  -28.9230  -21.3420   20.3340 C   0  0  0  0  0  0  0  0  0  0  0  0
  -28.3850  -24.5330   20.2380 C   0  0  0  0  0  0  0  0  0  0  0  0
  -28.3540  -26.0440   20.2210 O   0  0  0  0  0  0  0  0  0  0  0  0
  -24.6310  -31.8210   23.1610 C   0  0  0  0  0  0  0  0  0  0  0  0
  -27.2610  -27.0210   20.2020 C   0  0  0  0  0  0  0  0  0  0  0  0
  -23.4570  -30.4010   21.5230 C   0  0  0  0  0  3  0  0  0  0  0  0
  -24.9270  -28.8040   20.1270 C   0  0  0  0  0  0  0  0  0  0  0  0
  -26.0140  -30.6590   21.3840 C   0  0  0  0  0  2  0  0  0  0  0  0
  -26.1000  -29.2500   20.7490 C   0  0  0  0  0  0  0  0  0  0  0  0
  -27.2620  -28.3750   20.7650 C   0  0  0  0  0  3  0  0  0  0  0  0
  -26.0600  -26.6940   19.5380 C   0  0  0  0  0  3  0  0  0  0  0  0
  -24.9240  -27.5430   19.5060 C   0  0  0  0  0  3  0  0  0  0  0  0
  -23.6970  -29.7070   20.1540 C   0  0  0  0  0  2  0  0  0  0  0  0
  -24.7210  -30.9870   22.0760 N   0  0  0  0  0  0  0  0  0  0  0  0
  -23.5380  -32.1040   23.6750 O   0  0  0  0  0  0  0  0  0  0  0  0
  -22.7710  -29.4040   22.4920 C   0  0  0  0  0  0  0  0  0  0  0  0
  -21.4450  -29.2230   22.3560 N   0  0  0  0  0  0  0  0  0  0  0  0
  -23.4380  -28.7950   23.3320 O   0  0  0  0  0  0  0  0  0  0  0  0
  -20.9620  -29.7650   21.6540 H   0  0  0  0  0  0  0  0  0  0  0  0
  -18.0760  -27.9670   22.8190 C   0  0  0  0  0  0  0  0  0  0  0  0
  -20.6250  -28.2850   23.1280 C   0  0  0  0  0  3  0  0  0  0  0  0
  -20.7650  -26.8440   22.5820 C   0  0  0  0  0  2  0  0  0  0  0  0
  -19.6880  -26.4830   21.5530 C   0  0  0  0  0  2  0  0  0  0  0  0
  -18.2920  -26.6120   22.1680 C   0  0  0  0  0  2  0  0  0  0  0  0
  -19.1720  -28.7590   23.2560 C   0  0  0  0  0  0  0  0  0  0  0  0
  -18.9160  -30.0260   23.8260 C   0  0  0  0  0  3  0  0  0  0  0  0
  -17.5970  -30.5000   23.9630 C   0  0  0  0  0  3  0  0  0  0  0  0
  -16.5170  -29.7060   23.5420 C   0  0  0  0  0  3  0  0  0  0  0  0
  -16.7570  -28.4430   22.9750 C   0  0  0  0  0  3  0  0  0  0  0  0
  -25.8960  -32.4750   23.7950 C   0  0  0  0  0  3  0  0  0  0  0  0
  -26.4150  -31.7080   25.0740 C   0  0  1  0  0  0  0  0  0  0  0  0
  -25.3190  -31.4560   26.1370 C   0  0  0  0  0  1  0  0  0  0  0  0
  -27.0170  -30.3380   24.6890 C   0  0  0  0  0  1  0  0  0  0  0  0
  -27.5520  -32.5150   25.7430 C   0  0  0  0  0  1  0  0  0  0  0  0
  -25.5610  -33.8670   24.1400 N   0  0  0  0  0  0  0  0  0  0  0  0
  -25.8800  -34.9380   23.4010 C   0  0  0  0  0  0  0  0  0  0  0  0
  -26.5520  -34.8580   22.3680 O   0  0  0  0  0  0  0  0  0  0  0  0
  -24.9670  -34.0020   24.9440 H   0  0  0  0  0  0  0  0  0  0  0  0
  -24.1280  -36.7160   23.0780 C   0  0  0  0  0  1  0  0  0  0  0  0
  -25.3760  -36.3140   23.8800 C   0  0  0  0  0  3  0  0  0  0  0  0
  -27.4990  -37.2200   24.7190 C   0  0  0  0  0  1  0  0  0  0  0  0
  -26.3940  -37.3840   23.7780 N   0  0  0  0  0  0  0  0  0  0  0  0
  -25.9750  -38.2960   23.9370 H   0  0  0  0  0  0  0  0  0  0  0  0
  -28.9390  -19.6280   20.4710 C   0  0  0  0  0  2  0  0  0  0  0  0
  -29.9600  -18.2890   19.9800 C   0  0  0  0  0  3  0  0  0  0  0  0
  -30.1070  -18.3490   18.5160 N   0  0  0  0  0  4  0  0  0  0  0  0
  -29.2510  -18.1010   18.0520 H   0  0  0  0  0  0  0  0  0  0  0  0
  -30.8360  -17.7310   18.2060 H   0  0  0  0  0  0  0  0  0  0  0  0
  -30.3570  -19.2790   18.2340 H   0  0  0  0  0  0  0  0  0  0  0  0
  -29.8410  -16.6420   22.0170 C   0  0  0  0  0  1  0  0  0  0  0  0
  -29.7720  -16.6050   20.4790 C   0  0  0  0  0  3  0  0  0  0  0  0
  -30.5570  -15.1460   19.9930 C   0  0  0  0  0  0  0  0  0  0  0  0
  -30.4220  -12.7920   18.9480 C   0  0  0  0  0  2  0  0  0  0  0  0
  -29.4110  -12.7560   17.7730 C   0  0  0  0  0  2  0  0  0  0  0  0
  -27.9770  -12.5150   18.2830 C   0  0  0  0  0  2  0  0  0  0  0  0
  -27.6440  -13.3920   19.5140 C   0  0  0  0  0  3  0  0  0  0  0  0
  -28.7650  -13.3660   20.5690 C   0  0  0  0  0  2  0  0  0  0  0  0
  -29.9910  -13.8520   19.9190 N   0  0  0  0  0  0  0  0  0  0  0  0
  -31.7240  -15.2000   19.5840 O   0  0  0  0  0  0  0  0  0  0  0  0
  -25.3200  -13.9580   20.4120 C   0  0  0  0  0  0  0  0  0  0  0  0
  -24.2750  -13.1800   20.8270 C   0  0  0  0  0  0  0  0  0  0  0  0
  -24.7300  -11.8290   20.7420 C   0  0  0  0  0  0  0  0  0  0  0  0
  -26.3410  -13.0820   20.0880 N   0  0  0  0  0  0  0  0  0  0  0  0
  -26.0010  -11.7930   20.3530 N   0  0  0  0  0  0  0  0  0  0  0  0
  -24.0070  -10.5660   20.9460 C   0  0  0  0  0  0  0  0  0  0  0  0
  -24.4540   -9.6000   21.8740 C   0  0  0  0  0  3  0  0  0  0  0  0
  -23.7290   -8.4040   22.0680 C   0  0  0  0  0  3  0  0  0  0  0  0
  -22.5420   -8.1670   21.3340 C   0  0  0  0  0  0  0  0  0  0  0  0
  -22.1140   -9.1210   20.3960 C   0  0  0  0  0  3  0  0  0  0  0  0
  -22.8400  -10.3090   20.2000 C   0  0  0  0  0  3  0  0  0  0  0  0
  -21.7860   -7.0230   21.4380 O   0  0  0  0  0  0  0  0  0  0  0  0
  -21.7150   -6.3120   22.6090 C   0  0  0  0  0  0  0  0  0  0  0  0
  -21.2640   -6.9000   23.8120 C   0  0  0  0  0  3  0  0  0  0  0  0
  -21.1400   -6.1150   24.9750 C   0  0  0  0  0  3  0  0  0  0  0  0
  -21.4560   -4.7430   24.9370 C   0  0  0  0  0  0  0  0  0  0  0  0
  -21.8990   -4.1550   23.7390 C   0  0  0  0  0  3  0  0  0  0  0  0
  -22.0250   -4.9380   22.5780 C   0  0  0  0  0  0  0  0  0  0  0  0
  -22.4330   -4.3610   21.4220 F   0  0  0  0  0  0  0  0  0  0  0  0
  -21.3290   -3.9870   26.0530 F   0  0  0  0  0  0  0  0  0  0  0  0
  -22.8990  -13.6600   21.1870 C   0  0  0  0  0  0  0  0  0  0  0  0
  -22.2220  -12.9580   22.0890 N   0  0  0  0  0  0  0  0  0  0  0  0
  -22.4370  -14.6920   20.7040 O   0  0  0  0  0  0  0  0  0  0  0  0
  -22.6100  -12.1210   22.4990 H   0  0  0  0  0  0  0  0  0  0  0  0
  -21.3030  -13.2630   22.3730 H   0  0  0  0  0  0  0  0  0  0  0  0
  -25.4800  -15.3310   20.2550 N   0  0  0  0  0  0  0  0  0  0  0  0
  -24.7190  -15.9830   20.4140 H   0  0  0  0  0  0  0  0  0  0  0  0
  -26.3090  -15.7760   19.8840 H   0  0  0  0  0  0  0  0  0  0  0  0
  1  5  1  0
  3  1  2  0
  3  6  1  0
  4  2  1  0
  5 48  1  0
  5  2  2  0
  6  4  2  0
  7  6  1  0
  8 19  2  0
  9  7  1  0
  9 14  1  0
 10 18  1  0
 10 20  1  0
 11 17  1  0
 11 13  1  0
 12 18  1  0
 13 14  2  0
 13 12  1  0
 15  9  2  0
 16 15  1  0
 16 11  2  0
 17 10  1  0
 18  8  1  0
 20 22  2  0
 21 20  1  0
 23 21  1  0
 24 33  2  0
 24 29  1  0
 25 21  1  0
 25 29  1  0
 26 25  1  0
 27 28  1  0
 27 26  1  0
 28 24  1  0
 29 30  2  0
 30 31  1  0
 32 31  2  0
 33 32  1  0
 34  8  1  0
 34 39  1  0
 34 35  1  0
 35 38  1  1
 35 36  1  0
 37 35  1  0
 39 42  1  0
 40 44  1  0
 40 39  1  0
 41 40  2  0
 44 43  1  0
 46 44  1  0
 46 47  1  0
 46 45  1  0
 49 48  1  0
 49 55  1  0
 50 49  1  0
 51 50  1  0
 52 50  1  0
 53 50  1  0
 55 54  1  0
 56 55  1  0
 57 62  1  0
 58 59  1  0
 58 57  1  0
 60 59  1  0
 60 67  1  0
 60 61  1  0
 62 56  1  0
 62 61  1  0
 63 56  2  0
 64 65  2  0
 65 84  1  0
 66 65  1  0
 66 69  1  0
 67 68  1  0
 67 64  1  0
 68 66  2  0
 69 70  1  0
 70 71  2  0
 72 75  1  0
 72 71  1  0
 73 72  2  0
 74 73  1  0
 74 69  2  0
 75 76  1  0
 76 77  1  0
 77 78  2  0
 79 78  1  0
 79 83  1  0
 80 79  2  0
 81 76  2  0
 81 80  1  0
 82 81  1  0
 84 85  1  0
 85 88  1  0
 85 87  1  0
 86 84  2  0
 89 64  1  0
 89 90  1  0
 91 89  1  0
M  ISO  4   6 101   7 101  55 100  56 100
M  END
>  <TORSDO>  (95) 
F 20

>  <SCORE>  (95) 
-15.705

>  <name>  (95) 
94

>  <ligand_id>  (95) 
94

>  <original_smiles>  (95) 
[H]c1c([H])c([H])c2c(c1[H])C([H])([H])C([H])([H])C([H])([H])C2([H])N([H])C(=O)C1([H])N(C(=O)C([H])(N([H])C(=O)C([H])(N([H])C([H])([H])[H])C([H])([H])[H])C(C([H])([H])[H])(C([H])([H])[H])C([H])([H])[H])C([H])([H])c2c([H])c(Oc3c([H])c([H])c(C([H])([H])C([H])(C([H])(C(=O)N4C([H])([H])C([H])([H])C([H])([H])C([H])(n5nc(-c6c([H])c([H])c(Oc7c([H])c([H])c(F)c([H])c7F)c([H])c6[H])c(C(=O)N([H])[H])c5N([H])[H])C4([H])[H])C([H])([H])[H])[N+]([H])([H])[H])c([H])c3[H])c([H])c([H])c2C1([H])[H]

>  <smiles>  (95) 
[H]c1c([H])c([H])c2c(c1[H])C([H])([H])C([H])([H])C([H])([H])C2([H])N([H])C(=O)C1([H])N(C(=O)C([H])(N([H])C(=O)C([H])(N([H])C([H])([H])[H])C([H])([H])[H])C(C([H])([H])[H])(C([H])([H])[H])C([H])([H])[H])C([H])([H])c2c([H])c(Oc3c([H])c([H])c(C([H])([H])C([H])(C([H])(C(=O)N4C([H])([H])C([H])([H])C([H])([H])C([H])(n5nc(-c6c([H])c([H])c(Oc7c([H])c([H])c(F)c([H])c7F)c([H])c6[H])c(C(=O)N([H])[H])c5N([H])[H])C4([H])[H])C([H])([H])[H])[N+]([H])([H])[H])c([H])c3[H])c([H])c([H])c2C1([H])[H]

$$$$
95:0:0
     RDKit          3D

 87 95  0  0  1  0  0  0  0  0999 V2000
  -28.6840  -20.4880   18.9990 C   0  0  0  0  0  0  0  0  0  0  0  0
  -28.9130  -18.9090   18.8840 C   0  0  0  0  0  2  0  0  0  0  0  0
  -29.4070  -19.7330   20.9780 C   0  0  0  0  0  2  0  0  0  0  0  0
  -29.7740  -18.3210   20.0610 C   0  0  0  0  0  3  0  0  0  0  0  0
  -28.9240  -21.0660   20.2030 N   0  0  0  0  0  0  0  0  0  0  0  0
  -28.2990  -21.1340   18.0220 O   0  0  0  0  0  0  0  0  0  0  0  0
  -30.4290  -15.3880   20.2180 C   0  0  0  0  0  0  0  0  0  0  0  0
  -30.4270  -12.9260   19.3670 C   0  0  0  0  0  2  0  0  0  0  0  0
  -29.5010  -12.6970   18.1430 C   0  0  0  0  0  2  0  0  0  0  0  0
  -28.0570  -12.4140   18.5940 C   0  0  0  0  0  2  0  0  0  0  0  0
  -27.6080  -13.3730   19.7240 C   0  0  0  0  0  3  0  0  0  0  0  0
  -28.6620  -13.5480   20.8380 C   0  0  0  0  0  2  0  0  0  0  0  0
  -29.8810  -14.0680   20.1970 N   0  0  0  0  0  0  0  0  0  0  0  0
  -31.6330  -15.3960   19.9260 O   0  0  0  0  0  0  0  0  0  0  0  0
  -29.6540  -16.6570   20.3710 N   0  0  0  0  0  0  0  0  0  0  0  0
  -28.7130  -16.4230   20.6540 H   0  0  0  0  0  0  0  0  0  0  0  0
  -25.2480  -13.9110   20.5180 C   0  0  0  0  0  0  0  0  0  0  0  0
  -24.1930  -13.1260   20.8940 C   0  0  0  0  0  0  0  0  0  0  0  0
  -24.6650  -11.7780   20.8430 C   0  0  0  0  0  0  0  0  0  0  0  0
  -26.2890  -13.0430   20.2470 N   0  0  0  0  0  0  0  0  0  0  0  0
  -25.9520  -11.7520   20.5100 N   0  0  0  0  0  0  0  0  0  0  0  0
  -23.9430  -10.5120   21.0290 C   0  0  0  0  0  0  0  0  0  0  0  0
  -24.3750   -9.5430   21.9610 C   0  0  0  0  0  3  0  0  0  0  0  0
  -23.6500   -8.3430   22.1360 C   0  0  0  0  0  3  0  0  0  0  0  0
  -22.4780   -8.1060   21.3820 C   0  0  0  0  0  0  0  0  0  0  0  0
  -22.0640   -9.0630   20.4390 C   0  0  0  0  0  3  0  0  0  0  0  0
  -22.7900  -10.2540   20.2610 C   0  0  0  0  0  3  0  0  0  0  0  0
  -21.7240   -6.9600   21.4690 O   0  0  0  0  0  0  0  0  0  0  0  0
  -21.6600   -6.2260   22.6260 C   0  0  0  0  0  0  0  0  0  0  0  0
  -21.1730   -6.7770   23.8330 C   0  0  0  0  0  3  0  0  0  0  0  0
  -21.0560   -5.9660   24.9800 C   0  0  0  0  0  3  0  0  0  0  0  0
  -21.4180   -4.6070   24.9220 C   0  0  0  0  0  0  0  0  0  0  0  0
  -21.9000   -4.0560   23.7210 C   0  0  0  0  0  3  0  0  0  0  0  0
  -22.0170   -4.8630   22.5760 C   0  0  0  0  0  0  0  0  0  0  0  0
  -22.4590   -4.3210   21.4160 F   0  0  0  0  0  0  0  0  0  0  0  0
  -21.3010   -3.8270   26.0210 F   0  0  0  0  0  0  0  0  0  0  0  0
  -22.7990  -13.5970   21.1830 C   0  0  0  0  0  0  0  0  0  0  0  0
  -22.0780  -12.8920   22.0460 N   0  0  0  0  0  0  0  0  0  0  0  0
  -22.3550  -14.6270   20.6760 O   0  0  0  0  0  0  0  0  0  0  0  0
  -22.4490  -12.0570   22.4770 H   0  0  0  0  0  0  0  0  0  0  0  0
  -21.1410  -13.1900   22.2790 H   0  0  0  0  0  0  0  0  0  0  0  0
  -25.4020  -15.2830   20.3520 N   0  0  0  0  0  0  0  0  0  0  0  0
  -24.6290  -15.9290   20.4800 H   0  0  0  0  0  0  0  0  0  0  0  0
  -26.2300  -15.7260   19.9740 H   0  0  0  0  0  0  0  0  0  0  0  0
  -28.8950  -22.7120   20.6080 C   0  0  0  0  0  3  0  0  0  0  0  0
  -28.0690  -24.2220   20.0120 C   0  0  0  0  0  3  0  0  0  0  0  0
  -28.2050  -25.8550   20.3340 O   0  0  0  0  0  0  0  0  0  0  0  0
  -24.6440  -31.8660   23.2490 C   0  0  0  0  0  0  0  0  0  0  0  0
  -27.1970  -26.9630   20.2380 C   0  0  0  0  0  0  0  0  0  0  0  0
  -23.4510  -30.4690   21.6090 C   0  0  0  0  0  3  0  0  0  0  0  0
  -24.8980  -28.8600   20.1820 C   0  0  0  0  0  0  0  0  0  0  0  0
  -26.0160  -30.6730   21.4660 C   0  0  0  0  0  2  0  0  0  0  0  0
  -26.0850  -29.2610   20.8090 C   0  0  0  0  0  0  0  0  0  0  0  0
  -27.2250  -28.3320   20.8120 C   0  0  0  0  0  3  0  0  0  0  0  0
  -25.9820  -26.7210   19.5590 C   0  0  0  0  0  3  0  0  0  0  0  0
  -24.8730  -27.6100   19.5370 C   0  0  0  0  0  3  0  0  0  0  0  0
  -23.6810  -29.7850   20.2320 C   0  0  0  0  0  2  0  0  0  0  0  0
  -24.7250  -31.0310   22.1610 N   0  0  0  0  0  0  0  0  0  0  0  0
  -23.5540  -32.1570   23.7690 O   0  0  0  0  0  0  0  0  0  0  0  0
  -22.7550  -29.4760   22.5760 C   0  0  0  0  0  0  0  0  0  0  0  0
  -21.4260  -29.3060   22.4450 N   0  0  0  0  0  0  0  0  0  0  0  0
  -23.4180  -28.8580   23.4120 O   0  0  0  0  0  0  0  0  0  0  0  0
  -20.9450  -29.8550   21.7480 H   0  0  0  0  0  0  0  0  0  0  0  0
  -18.0470  -28.0770   22.9390 C   0  0  0  0  0  0  0  0  0  0  0  0
  -20.6030  -28.3650   23.2140 C   0  0  0  0  0  3  0  0  0  0  0  0
  -20.7210  -26.9320   22.6450 C   0  0  0  0  0  2  0  0  0  0  0  0
  -19.6250  -26.5930   21.6280 C   0  0  0  0  0  2  0  0  0  0  0  0
  -18.2400  -26.7280   22.2650 C   0  0  0  0  0  2  0  0  0  0  0  0
  -19.1560  -28.8520   23.3710 C   0  0  0  0  0  0  0  0  0  0  0  0
  -18.9210  -30.1110   23.9650 C   0  0  0  0  0  3  0  0  0  0  0  0
  -17.6110  -30.5950   24.1320 C   0  0  0  0  0  3  0  0  0  0  0  0
  -16.5160  -29.8190   23.7140 C   0  0  0  0  0  3  0  0  0  0  0  0
  -16.7350  -28.5620   23.1240 C   0  0  0  0  0  3  0  0  0  0  0  0
  -25.9130  -32.5100   23.8830 C   0  0  0  0  0  3  0  0  0  0  0  0
  -25.6000  -33.9170   24.1980 N   0  0  0  0  0  0  0  0  0  0  0  0
  -25.9350  -34.9690   23.4390 C   0  0  0  0  0  0  0  0  0  0  0  0
  -26.6010  -34.8570   22.4060 O   0  0  0  0  0  0  0  0  0  0  0  0
  -25.0080  -34.0760   24.9990 H   0  0  0  0  0  0  0  0  0  0  0  0
  -24.2140  -36.7750   23.0900 C   0  0  0  0  0  1  0  0  0  0  0  0
  -25.4590  -36.3640   23.8930 C   0  0  0  0  0  3  0  0  0  0  0  0
  -27.5980  -37.2500   24.7130 C   0  0  0  0  0  1  0  0  0  0  0  0
  -26.4970  -37.4110   23.7680 N   0  0  0  0  0  0  0  0  0  0  0  0
  -26.0960  -38.3360   23.9040 H   0  0  0  0  0  0  0  0  0  0  0  0
  -26.4010  -31.7620   25.1850 C   0  0  1  0  0  0  0  0  0  0  0  0
  -25.2890  -31.5510   26.2390 C   0  0  0  0  0  1  0  0  0  0  0  0
  -26.9830  -30.3740   24.8360 C   0  0  0  0  0  1  0  0  0  0  0  0
  -27.5470  -32.5610   25.8500 C   0  0  0  0  0  1  0  0  0  0  0  0
  1  5  1  0
  2  1  1  0
  2  4  1  0
  4 15  1  0
  4  3  1  0
  5 45  1  0
  5  3  1  0
  6  1  2  0
  7 15  1  0
  8 13  1  0
  9 10  1  0
  9  8  1  0
 11 10  1  0
 11 20  1  0
 11 12  1  0
 13  7  1  0
 13 12  1  0
 14  7  2  0
 15 16  1  0
 17 18  2  0
 18 37  1  0
 19 18  1  0
 19 22  1  0
 20 21  1  0
 20 17  1  0
 21 19  2  0
 22 23  1  0
 23 24  2  0
 25 28  1  0
 25 24  1  0
 26 25  2  0
 27 26  1  0
 27 22  2  0
 28 29  1  0
 29 30  1  0
 30 31  2  0
 32 31  1  0
 32 36  1  0
 33 32  2  0
 34 29  2  0
 34 33  1  0
 35 34  1  0
 37 38  1  0
 38 41  1  0
 38 40  1  0
 39 37  2  0
 42 43  1  0
 42 17  1  0
 44 42  1  0
 46 47  1  0
 46 45  2  0
 48 59  2  0
 49 47  1  0
 49 54  1  0
 50 58  1  0
 50 60  1  0
 51 57  1  0
 51 53  1  0
 52 58  1  0
 53 54  2  0
 53 52  1  0
 55 49  2  0
 56 55  1  0
 56 51  2  0
 57 50  1  0
 58 48  1  0
 60 62  2  0
 61 60  1  0
 63 61  1  0
 64 73  2  0
 64 69  1  0
 65 61  1  0
 65 69  1  0
 66 65  1  0
 67 68  1  0
 67 66  1  0
 68 64  1  0
 69 70  2  0
 70 71  1  0
 72 71  2  0
 73 72  1  0
 74 48  1  0
 74 75  1  0
 74 84  1  0
 75 78  1  0
 76 80  1  0
 76 75  1  0
 77 76  2  0
 80 79  1  0
 82 80  1  0
 82 83  1  0
 82 81  1  0
 84 87  1  1
 84 85  1  0
 86 84  1  0
M  ISO  4   7 100  15 100  46 101  47 101
M  END
>  <TORSDO>  (96) 
F 18

>  <SCORE>  (96) 
-16.557

>  <name>  (96) 
95

>  <ligand_id>  (96) 
95

>  <original_smiles>  (96) 
[H]c1c([H])c([H])c2c(c1[H])C([H])([H])C([H])([H])C([H])([H])C2([H])N([H])C(=O)C1([H])N(C(=O)C([H])(N([H])C(=O)C([H])(N([H])C([H])([H])[H])C([H])([H])[H])C(C([H])([H])[H])(C([H])([H])[H])C([H])([H])[H])C([H])([H])c2c([H])c(OC([H])([H])C([H])([H])N3C(=O)C([H])([H])C([H])(N([H])C(=O)N4C([H])([H])C([H])([H])C([H])([H])C([H])(n5nc(-c6c([H])c([H])c(Oc7c([H])c([H])c(F)c([H])c7F)c([H])c6[H])c(C(=O)N([H])[H])c5N([H])[H])C4([H])[H])C3([H])[H])c([H])c([H])c2C1([H])[H]

>  <smiles>  (96) 
[H]c1c([H])c([H])c2c(c1[H])C([H])([H])C([H])([H])C([H])([H])C2([H])N([H])C(=O)C1([H])N(C(=O)C([H])(N([H])C(=O)C([H])(N([H])C([H])([H])[H])C([H])([H])[H])C(C([H])([H])[H])(C([H])([H])[H])C([H])([H])[H])C([H])([H])c2c([H])c(OC([H])([H])C([H])([H])N3C(=O)C([H])([H])C([H])(N([H])C(=O)N4C([H])([H])C([H])([H])C([H])([H])C([H])(n5nc(-c6c([H])c([H])c(Oc7c([H])c([H])c(F)c([H])c7F)c([H])c6[H])c(C(=O)N([H])[H])c5N([H])[H])C4([H])[H])C3([H])[H])c([H])c([H])c2C1([H])[H]

$$$$
96:0:0
     RDKit          3D

 88 97  0  0  1  0  0  0  0  0999 V2000
  -28.3820  -21.7380   20.6750 C   0  0  0  0  0  2  0  0  0  0  0  0
  -29.6130  -22.3140   19.1920 C   0  0  0  0  0  2  0  0  0  0  0  0
  -29.5740  -20.9080   19.9920 C   0  0  0  0  0  3  0  0  0  0  0  0
  -28.9300  -23.2120   20.3350 C   0  0  0  0  0  3  0  0  0  0  0  0
  -29.5440  -19.3040   19.3580 C   0  0  0  0  0  2  0  0  0  0  0  0
  -30.8290  -15.1840   19.5270 C   0  0  0  0  0  0  0  0  0  0  0  0
  -30.5650  -12.8580   18.4260 C   0  0  0  0  0  2  0  0  0  0  0  0
  -29.4980  -12.8320   17.3000 C   0  0  0  0  0  2  0  0  0  0  0  0
  -28.0670  -12.6800   17.8650 C   0  0  0  0  0  2  0  0  0  0  0  0
  -27.8470  -13.5110   19.1540 C   0  0  0  0  0  3  0  0  0  0  0  0
  -29.0190  -13.4250   20.1290 C   0  0  0  0  0  2  0  0  0  0  0  0
  -30.2050  -13.9250   19.4220 N   0  0  0  0  0  0  0  0  0  0  0  0
  -31.9620  -15.2430   19.0280 O   0  0  0  0  0  0  0  0  0  0  0  0
  -29.9640  -17.9050   21.4990 C   0  0  0  0  0  2  0  0  0  0  0  0
  -29.5670  -16.4380   21.3730 C   0  0  0  0  0  3  0  0  0  0  0  0
  -30.3750  -17.9930   20.0540 C   0  0  0  0  0  3  0  0  0  0  0  0
  -30.2570  -15.5850   22.4470 C   0  0  0  0  0  1  0  0  0  0  0  0
  -30.1330  -16.3850   19.9900 N   0  0  0  0  0  0  0  0  0  0  0  0
  -25.6220  -14.1360   20.2460 C   0  0  0  0  0  0  0  0  0  0  0  0
  -24.5970  -13.3850   20.7500 C   0  0  0  0  0  0  0  0  0  0  0  0
  -25.0130  -12.0210   20.6290 C   0  0  0  0  0  0  0  0  0  0  0  0
  -26.5830  -13.2320   19.8260 N   0  0  0  0  0  0  0  0  0  0  0  0
  -26.2420  -11.9560   20.1290 N   0  0  0  0  0  0  0  0  0  0  0  0
  -24.2760  -10.7790   20.8930 C   0  0  0  0  0  0  0  0  0  0  0  0
  -24.7120   -9.8610   21.8760 C   0  0  0  0  0  3  0  0  0  0  0  0
  -23.9770   -8.6810   22.1280 C   0  0  0  0  0  3  0  0  0  0  0  0
  -22.7990   -8.4080   21.3960 C   0  0  0  0  0  0  0  0  0  0  0  0
  -22.3790   -9.3160   20.4070 C   0  0  0  0  0  3  0  0  0  0  0  0
  -23.1120  -10.4870   20.1540 C   0  0  0  0  0  3  0  0  0  0  0  0
  -22.0330   -7.2770   21.5540 O   0  0  0  0  0  0  0  0  0  0  0  0
  -21.8860   -6.6700   22.7750 C   0  0  0  0  0  0  0  0  0  0  0  0
  -21.3590   -7.3580   23.8920 C   0  0  0  0  0  3  0  0  0  0  0  0
  -21.1640   -6.6740   25.1090 C   0  0  0  0  0  3  0  0  0  0  0  0
  -21.4810   -5.3060   25.2080 C   0  0  0  0  0  0  0  0  0  0  0  0
  -22.0000   -4.6200   24.0950 C   0  0  0  0  0  3  0  0  0  0  0  0
  -22.1990   -5.3010   22.8830 C   0  0  0  0  0  0  0  0  0  0  0  0
  -22.6790   -4.6300   21.8060 F   0  0  0  0  0  0  0  0  0  0  0  0
  -21.2890   -4.6460   26.3740 F   0  0  0  0  0  0  0  0  0  0  0  0
  -23.2690  -13.8950   21.2150 C   0  0  0  0  0  0  0  0  0  0  0  0
  -22.6750  -13.2420   22.2070 N   0  0  0  0  0  0  0  0  0  0  0  0
  -22.7700  -14.9090   20.7290 O   0  0  0  0  0  0  0  0  0  0  0  0
  -23.1010  -12.4250   22.6160 H   0  0  0  0  0  0  0  0  0  0  0  0
  -21.7850  -13.5700   22.5590 H   0  0  0  0  0  0  0  0  0  0  0  0
  -25.8050  -15.5060   20.0810 N   0  0  0  0  0  0  0  0  0  0  0  0
  -25.0920  -16.1790   20.3460 H   0  0  0  0  0  0  0  0  0  0  0  0
  -26.5960  -15.9290   19.6080 H   0  0  0  0  0  0  0  0  0  0  0  0
  -27.9430  -24.5970   20.1840 C   0  0  0  0  0  2  0  0  0  0  0  0
  -28.2380  -26.1400   20.2900 O   0  0  0  0  0  0  0  0  0  0  0  0
  -24.4950  -31.8280   23.1810 C   0  0  0  0  0  0  0  0  0  0  0  0
  -27.1710  -27.1200   20.2100 C   0  0  0  0  0  0  0  0  0  0  0  0
  -23.3170  -30.3460   21.6040 C   0  0  0  0  0  3  0  0  0  0  0  0
  -24.7920  -28.7970   20.1790 C   0  0  0  0  0  0  0  0  0  0  0  0
  -25.8550  -30.7020   21.3720 C   0  0  0  0  0  2  0  0  0  0  0  0
  -25.9690  -29.2940   20.7510 C   0  0  0  0  0  0  0  0  0  0  0  0
  -27.1640  -28.4740   20.7460 C   0  0  0  0  0  3  0  0  0  0  0  0
  -25.9660  -26.7390   19.5770 C   0  0  0  0  0  3  0  0  0  0  0  0
  -24.8050  -27.5370   19.5690 C   0  0  0  0  0  3  0  0  0  0  0  0
  -23.5320  -29.6480   20.2350 C   0  0  0  0  0  2  0  0  0  0  0  0
  -24.5780  -30.9820   22.1050 N   0  0  0  0  0  0  0  0  0  0  0  0
  -23.4120  -32.0850   23.7210 O   0  0  0  0  0  0  0  0  0  0  0  0
  -22.6960  -29.3390   22.6040 C   0  0  0  0  0  0  0  0  0  0  0  0
  -21.3800  -29.0860   22.4920 N   0  0  0  0  0  0  0  0  0  0  0  0
  -23.4010  -28.7830   23.4490 O   0  0  0  0  0  0  0  0  0  0  0  0
  -20.8620  -29.5890   21.7860 H   0  0  0  0  0  0  0  0  0  0  0  0
  -18.0710  -27.7110   23.0430 C   0  0  0  0  0  0  0  0  0  0  0  0
  -20.6100  -28.1360   23.3010 C   0  0  0  0  0  3  0  0  0  0  0  0
  -20.7950  -26.6880   22.7880 C   0  0  0  0  0  2  0  0  0  0  0  0
  -19.7170  -26.2600   21.7870 C   0  0  0  0  0  2  0  0  0  0  0  0
  -18.3280  -26.3490   22.4240 C   0  0  0  0  0  2  0  0  0  0  0  0
  -19.1400  -28.5580   23.4390 C   0  0  0  0  0  0  0  0  0  0  0  0
  -18.8410  -29.8280   23.9800 C   0  0  0  0  0  3  0  0  0  0  0  0
  -17.5060  -30.2550   24.1220 C   0  0  0  0  0  3  0  0  0  0  0  0
  -16.4530  -29.4070   23.7400 C   0  0  0  0  0  3  0  0  0  0  0  0
  -16.7360  -28.1360   23.2090 C   0  0  0  0  0  3  0  0  0  0  0  0
  -25.7620  -32.5270   23.7600 C   0  0  0  0  0  3  0  0  0  0  0  0
  -25.3920  -33.9080   24.1080 N   0  0  0  0  0  0  0  0  0  0  0  0
  -25.6510  -34.9830   23.3530 C   0  0  0  0  0  0  0  0  0  0  0  0
  -26.2920  -34.9210   22.2990 O   0  0  0  0  0  0  0  0  0  0  0  0
  -24.8140  -34.0260   24.9280 H   0  0  0  0  0  0  0  0  0  0  0  0
  -23.8490  -36.7140   23.0490 C   0  0  0  0  0  1  0  0  0  0  0  0
  -25.1150  -36.3450   23.8390 C   0  0  0  0  0  3  0  0  0  0  0  0
  -27.2230  -37.3050   24.6580 C   0  0  0  0  0  1  0  0  0  0  0  0
  -26.1030  -37.4420   23.7310 N   0  0  0  0  0  0  0  0  0  0  0  0
  -25.6630  -38.3430   23.8940 H   0  0  0  0  0  0  0  0  0  0  0  0
  -26.3610  -31.7800   25.0150 C   0  0  1  0  0  0  0  0  0  0  0  0
  -25.3110  -31.4320   26.0970 C   0  0  0  0  0  1  0  0  0  0  0  0
  -27.0440  -30.4600   24.5920 C   0  0  0  0  0  1  0  0  0  0  0  0
  -27.4590  -32.6520   25.6680 C   0  0  0  0  0  1  0  0  0  0  0  0
  2  3  1  0
  2  4  1  0
  3  5  1  0
  3  1  1  0
  4 47  1  0
  4  1  1  0
  6 18  1  0
  7 12  1  0
  8  9  1  0
  8  7  1  0
 10  9  1  0
 10 22  1  0
 10 11  1  0
 12  6  1  0
 12 11  1  0
 13  6  2  0
 15 14  1  0
 15 17  1  0
 16  5  1  0
 16 14  1  0
 18 16  1  0
 18 15  1  0
 19 20  2  0
 20 39  1  0
 21 20  1  0
 21 24  1  0
 22 23  1  0
 22 19  1  0
 23 21  2  0
 24 25  1  0
 25 26  2  0
 27 30  1  0
 27 26  1  0
 28 27  2  0
 29 28  1  0
 29 24  2  0
 30 31  1  0
 31 36  2  0
 31 32  1  0
 32 33  2  0
 33 34  1  0
 34 38  1  0
 35 34  2  0
 36 35  1  0
 37 36  1  0
 39 40  1  0
 40 43  1  0
 40 42  1  0
 41 39  2  0
 44 19  1  0
 44 45  1  0
 46 44  1  0
 47 48  1  0
 49 60  2  0
 50 48  1  0
 50 55  1  0
 51 59  1  0
 51 61  1  0
 52 58  1  0
 52 54  1  0
 53 59  1  0
 54 53  1  0
 55 54  2  0
 56 50  2  0
 57 56  1  0
 57 52  2  0
 58 51  1  0
 59 49  1  0
 61 63  2  0
 62 61  1  0
 64 62  1  0
 65 74  2  0
 65 70  1  0
 66 62  1  0
 66 70  1  0
 67 66  1  0
 68 69  1  0
 68 67  1  0
 69 65  1  0
 70 71  2  0
 71 72  1  0
 73 72  2  0
 74 73  1  0
 75 49  1  0
 75 76  1  0
 75 85  1  0
 76 79  1  0
 77 81  1  0
 77 76  1  0
 78 77  2  0
 81 80  1  0
 83 81  1  0
 83 84  1  0
 83 82  1  0
 85 88  1  1
 85 86  1  0
 87 85  1  0
M  ISO  4   6 100  18 100  47 101  48 101
M  END
>  <TORSDO>  (97) 
F 18

>  <SCORE>  (97) 
-12.625

>  <name>  (97) 
96

>  <ligand_id>  (97) 
96

>  <original_smiles>  (97) 
[H]c1c([H])c([H])c2c(c1[H])C([H])([H])C([H])([H])C([H])([H])C2([H])N([H])C(=O)C1([H])N(C(=O)C([H])(N([H])C(=O)C([H])(N([H])C([H])([H])[H])C([H])([H])[H])C(C([H])([H])[H])(C([H])([H])[H])C([H])([H])[H])C([H])([H])c2c([H])c(OC([H])([H])C3([H])C([H])([H])C([H])(C([H])([H])C4([H])N(C(=O)N5C([H])([H])C([H])([H])C([H])([H])C([H])(n6nc(-c7c([H])c([H])c(Oc8c([H])c([H])c(F)c([H])c8F)c([H])c7[H])c(C(=O)N([H])[H])c6N([H])[H])C5([H])[H])C([H])(C([H])([H])[H])C4([H])[H])C3([H])[H])c([H])c([H])c2C1([H])[H]

>  <smiles>  (97) 
[H]c1c([H])c([H])c2c(c1[H])C([H])([H])C([H])([H])C([H])([H])C2([H])N([H])C(=O)C1([H])N(C(=O)C([H])(N([H])C(=O)C([H])(N([H])C([H])([H])[H])C([H])([H])[H])C(C([H])([H])[H])(C([H])([H])[H])C([H])([H])[H])C([H])([H])c2c([H])c(OC([H])([H])C3([H])C([H])([H])C([H])(C([H])([H])C4([H])N(C(=O)N5C([H])([H])C([H])([H])C([H])([H])C([H])(n6nc(-c7c([H])c([H])c(Oc8c([H])c([H])c(F)c([H])c8F)c([H])c7[H])c(C(=O)N([H])[H])c6N([H])[H])C5([H])[H])C([H])(C([H])([H])[H])C4([H])[H])C3([H])[H])c([H])c([H])c2C1([H])[H]

$$$$
