0:0:0
     RDKit          3D

 87 95  0  0  1  0  0  0  0  0999 V2000
  -29.1160  -20.4600   19.3180 C   0  0  0  0  0  2  0  0  0  0  0  0
  -29.4490  -20.5190   21.2930 C   0  0  0  0  0  2  0  0  0  0  0  0
  -29.0820  -19.2510   20.3810 C   0  0  0  0  0  3  0  0  0  0  0  0
  -28.7090  -21.6210   20.3670 C   0  0  0  0  0  3  0  0  0  0  0  0
  -29.6750  -16.4500   20.4330 C   0  0  0  0  0  3  0  0  0  0  0  0
  -29.9880  -17.8430   20.2620 C   0  0  0  0  0  0  0  0  0  0  0  0
  -30.5350  -15.1420   20.2530 C   0  0  0  0  0  0  0  0  0  0  0  0
  -30.4430  -12.7630   19.3430 C   0  0  0  0  0  2  0  0  0  0  0  0
  -29.4980  -12.6960   18.1190 C   0  0  0  0  0  2  0  0  0  0  0  0
  -28.0420  -12.4660   18.5640 C   0  0  0  0  0  2  0  0  0  0  0  0
  -27.6370  -13.3870   19.7430 C   0  0  0  0  0  3  0  0  0  0  0  0
  -28.7040  -13.4240   20.8560 C   0  0  0  0  0  2  0  0  0  0  0  0
  -29.9640  -13.8600   20.2400 N   0  0  0  0  0  0  0  0  0  0  0  0
  -31.7350  -15.1820   19.9560 O   0  0  0  0  0  0  0  0  0  0  0  0
  -25.2710  -13.9430   20.5380 C   0  0  0  0  0  0  0  0  0  0  0  0
  -24.2170  -13.1580   20.9160 C   0  0  0  0  0  0  0  0  0  0  0  0
  -24.6850  -11.8100   20.8570 C   0  0  0  0  0  0  0  0  0  0  0  0
  -26.3110  -13.0720   20.2630 N   0  0  0  0  0  0  0  0  0  0  0  0
  -25.9710  -11.7830   20.5220 N   0  0  0  0  0  0  0  0  0  0  0  0
  -23.9650  -10.5430   21.0410 C   0  0  0  0  0  0  0  0  0  0  0  0
  -24.4040   -9.5690   21.9640 C   0  0  0  0  0  3  0  0  0  0  0  0
  -23.6810   -8.3690   22.1360 C   0  0  0  0  0  3  0  0  0  0  0  0
  -22.5060   -8.1320   21.3850 C   0  0  0  0  0  0  0  0  0  0  0  0
  -22.0860   -9.0950   20.4490 C   0  0  0  0  0  3  0  0  0  0  0  0
  -22.8090  -10.2860   20.2750 C   0  0  0  0  0  3  0  0  0  0  0  0
  -21.7540   -6.9850   21.4670 O   0  0  0  0  0  0  0  0  0  0  0  0
  -21.6930   -6.2470   22.6220 C   0  0  0  0  0  0  0  0  0  0  0  0
  -21.2050   -6.7920   23.8300 C   0  0  0  0  0  3  0  0  0  0  0  0
  -21.0930   -5.9780   24.9750 C   0  0  0  0  0  3  0  0  0  0  0  0
  -21.4580   -4.6200   24.9130 C   0  0  0  0  0  0  0  0  0  0  0  0
  -21.9390   -4.0740   23.7090 C   0  0  0  0  0  3  0  0  0  0  0  0
  -22.0520   -4.8850   22.5660 C   0  0  0  0  0  0  0  0  0  0  0  0
  -22.4960   -4.3480   21.4040 F   0  0  0  0  0  0  0  0  0  0  0  0
  -21.3440   -3.8360   26.0100 F   0  0  0  0  0  0  0  0  0  0  0  0
  -22.8230  -13.6280   21.2150 C   0  0  0  0  0  0  0  0  0  0  0  0
  -22.1140  -12.9240   22.0910 N   0  0  0  0  0  0  0  0  0  0  0  0
  -22.3720  -14.6530   20.7060 O   0  0  0  0  0  0  0  0  0  0  0  0
  -22.4920  -12.0950   22.5230 H   0  0  0  0  0  0  0  0  0  0  0  0
  -21.1800  -13.2210   22.3340 H   0  0  0  0  0  0  0  0  0  0  0  0
  -25.4270  -15.3170   20.3790 N   0  0  0  0  0  0  0  0  0  0  0  0
  -24.6580  -15.9640   20.5140 H   0  0  0  0  0  0  0  0  0  0  0  0
  -26.2630  -15.7640   20.0270 H   0  0  0  0  0  0  0  0  0  0  0  0
  -31.2290  -18.2100   19.9110 O   0  0  0  0  0  0  0  0  0  0  0  0
  -31.7500  -17.4190   19.8260 H   0  0  0  0  0  0  0  0  0  0  0  0
  -29.0600  -23.3070   20.3120 C   0  0  0  0  0  3  0  0  0  0  0  0
  -27.9830  -24.6290   20.1160 C   0  0  0  0  0  3  0  0  0  0  0  0
  -28.2510  -26.1850   20.2460 O   0  0  0  0  0  0  0  0  0  0  0  0
  -24.6390  -31.9060   23.2890 C   0  0  0  0  0  0  0  0  0  0  0  0
  -27.2020  -27.1920   20.1970 C   0  0  0  0  0  0  0  0  0  0  0  0
  -23.4350  -30.5290   21.6380 C   0  0  0  0  0  3  0  0  0  0  0  0
  -24.8780  -28.9670   20.1880 C   0  0  0  0  0  0  0  0  0  0  0  0
  -25.9920  -30.7870   21.4700 C   0  0  0  0  0  2  0  0  0  0  0  0
  -26.0630  -29.3990   20.7990 C   0  0  0  0  0  0  0  0  0  0  0  0
  -27.2250  -28.5300   20.7820 C   0  0  0  0  0  3  0  0  0  0  0  0
  -25.9890  -26.8730   19.5490 C   0  0  0  0  0  3  0  0  0  0  0  0
  -24.8580  -27.7200   19.5460 C   0  0  0  0  0  3  0  0  0  0  0  0
  -23.6530  -29.8670   20.2510 C   0  0  0  0  0  2  0  0  0  0  0  0
  -24.7090  -31.0970   22.1870 N   0  0  0  0  0  0  0  0  0  0  0  0
  -23.5540  -32.1840   23.8230 O   0  0  0  0  0  0  0  0  0  0  0  0
  -22.7570  -29.5120   22.5910 C   0  0  0  0  0  0  0  0  0  0  0  0
  -21.4310  -29.3330   22.4580 N   0  0  0  0  0  0  0  0  0  0  0  0
  -23.4290  -28.8870   23.4150 O   0  0  0  0  0  0  0  0  0  0  0  0
  -20.9440  -29.8900   21.7690 H   0  0  0  0  0  0  0  0  0  0  0  0
  -18.0570  -28.0990   22.9390 C   0  0  0  0  0  0  0  0  0  0  0  0
  -20.6130  -28.3850   23.2200 C   0  0  0  0  0  3  0  0  0  0  0  0
  -20.7300  -26.9570   22.6380 C   0  0  0  0  0  2  0  0  0  0  0  0
  -19.6360  -26.6290   21.6170 C   0  0  0  0  0  2  0  0  0  0  0  0
  -18.2500  -26.7570   22.2540 C   0  0  0  0  0  2  0  0  0  0  0  0
  -19.1670  -28.8700   23.3780 C   0  0  0  0  0  0  0  0  0  0  0  0
  -18.9300  -30.1260   23.9800 C   0  0  0  0  0  3  0  0  0  0  0  0
  -17.6200  -30.6100   24.1460 C   0  0  0  0  0  3  0  0  0  0  0  0
  -16.5250  -29.8370   23.7220 C   0  0  0  0  0  3  0  0  0  0  0  0
  -16.7450  -28.5840   23.1240 C   0  0  0  0  0  3  0  0  0  0  0  0
  -25.9170  -32.5360   23.9210 C   0  0  0  0  0  3  0  0  0  0  0  0
  -26.4140  -31.7720   25.2100 C   0  0  1  0  0  0  0  0  0  0  0  0
  -25.3070  -31.5520   26.2690 C   0  0  0  0  0  1  0  0  0  0  0  0
  -26.9900  -30.3850   24.8420 C   0  0  0  0  0  1  0  0  0  0  0  0
  -27.5630  -32.5630   25.8780 C   0  0  0  0  0  1  0  0  0  0  0  0
  -25.6130  -33.9390   24.2450 N   0  0  0  0  0  0  0  0  0  0  0  0
  -25.9260  -34.9880   23.4730 C   0  0  0  0  0  0  0  0  0  0  0  0
  -26.5660  -34.8770   22.4240 O   0  0  0  0  0  0  0  0  0  0  0  0
  -25.0400  -34.0990   25.0600 H   0  0  0  0  0  0  0  0  0  0  0  0
  -24.1810  -36.7780   23.1720 C   0  0  0  0  0  1  0  0  0  0  0  0
  -25.4560  -36.3820   23.9350 C   0  0  0  0  0  3  0  0  0  0  0  0
  -27.6150  -37.2890   24.6730 C   0  0  0  0  0  1  0  0  0  0  0  0
  -26.4800  -37.4360   23.7670 N   0  0  0  0  0  0  0  0  0  0  0  0
  -26.0770  -38.3580   23.9120 H   0  0  0  0  0  0  0  0  0  0  0  0
  1  4  1  0
  1  3  1  0
  3  6  1  0
  3  2  1  0
  4 45  1  0
  4  2  1  0
  6  5  2  0
  7  5  1  0
  8 13  1  0
  9 10  1  0
  9  8  1  0
 11 10  1  0
 11 18  1  0
 11 12  1  0
 13  7  1  0
 13 12  1  0
 14  7  2  0
 15 16  2  0
 16 35  1  0
 17 16  1  0
 17 20  1  0
 18 19  1  0
 18 15  1  0
 19 17  2  0
 20 21  1  0
 21 22  2  0
 23 26  1  0
 23 22  1  0
 24 23  2  0
 25 24  1  0
 25 20  2  0
 26 27  1  0
 27 28  1  0
 28 29  2  0
 30 29  1  0
 30 34  1  0
 31 30  2  0
 32 27  2  0
 32 31  1  0
 33 32  1  0
 35 36  1  0
 36 39  1  0
 36 38  1  0
 37 35  2  0
 40 41  1  0
 40 15  1  0
 42 40  1  0
 43  6  1  0
 44 43  1  0
 46 47  1  0
 46 45  2  0
 48 59  2  0
 49 47  1  0
 49 54  1  0
 50 58  1  0
 50 60  1  0
 51 57  1  0
 51 53  1  0
 52 58  1  0
 53 52  1  0
 54 53  2  0
 55 49  2  0
 56 55  1  0
 56 51  2  0
 57 50  1  0
 58 48  1  0
 60 62  2  0
 61 60  1  0
 63 61  1  0
 64 73  2  0
 64 69  1  0
 65 61  1  0
 65 69  1  0
 66 65  1  0
 67 68  1  0
 67 66  1  0
 68 64  1  0
 69 70  2  0
 70 71  1  0
 72 71  2  0
 73 72  1  0
 74 48  1  0
 74 79  1  0
 74 75  1  0
 75 78  1  1
 75 76  1  0
 77 75  1  0
 79 82  1  0
 80 84  1  0
 80 79  1  0
 81 80  2  0
 84 83  1  0
 86 87  1  0
 86 84  1  0
 86 85  1  0
M  ISO  4   5 100   7 100  46 101  47 101
M  END
>  <TORSDO>  (1) 
F 20

>  <SCORE>  (1) 
-14.903

>  <name>  (1) 
0

>  <ligand_id>  (1) 
0

>  <original_smiles>  (1) 
[H]OC(=C([H])C(=O)N1C([H])([H])C([H])([H])C([H])([H])C([H])(n2nc(-c3c([H])c([H])c(Oc4c([H])c([H])c(F)c([H])c4F)c([H])c3[H])c(C(=O)N([H])[H])c2N([H])[H])C1([H])[H])C1([H])C([H])([H])C([H])(C([H])([H])C([H])([H])Oc2c([H])c([H])c3c(c2[H])C([H])([H])N(C(=O)C([H])(N([H])C(=O)C([H])(N([H])C([H])([H])[H])C([H])([H])[H])C(C([H])([H])[H])(C([H])([H])[H])C([H])([H])[H])C([H])(C(=O)N([H])C2([H])c4c([H])c([H])c([H])c([H])c4C([H])([H])C([H])([H])C2([H])[H])C3([H])[H])C1([H])[H]

>  <smiles>  (1) 
[H]OC(=C([H])C(=O)N1C([H])([H])C([H])([H])C([H])([H])C([H])(n2nc(-c3c([H])c([H])c(Oc4c([H])c([H])c(F)c([H])c4F)c([H])c3[H])c(C(=O)N([H])[H])c2N([H])[H])C1([H])[H])C1([H])C([H])([H])C([H])(C([H])([H])C([H])([H])Oc2c([H])c([H])c3c(c2[H])C([H])([H])N(C(=O)C([H])(N([H])C(=O)C([H])(N([H])C([H])([H])[H])C([H])([H])[H])C(C([H])([H])[H])(C([H])([H])[H])C([H])([H])[H])C([H])(C(=O)N([H])C2([H])c4c([H])c([H])c([H])c([H])c4C([H])([H])C([H])([H])C2([H])[H])C3([H])[H])C1([H])[H]

$$$$
1:0:0
     RDKit          3D

 91 99  0  0  1  0  0  0  0  0999 V2000
  -28.9480  -21.3950   20.6220 C   0  0  0  0  0  0  0  0  0  0  0  0
  -29.1750  -22.7500   20.7430 N   0  0  0  0  0  0  0  0  0  0  0  0
  -27.9300  -21.0130   20.0450 O   0  0  0  0  0  0  0  0  0  0  0  0
  -30.0490  -23.0040   21.1860 H   0  0  0  0  0  0  0  0  0  0  0  0
  -29.9100  -20.2940   21.2830 C   0  0  0  0  0  2  0  0  0  0  0  0
  -30.8650  -14.9590   20.9670 C   0  0  0  0  0  0  0  0  0  0  0  0
  -30.7270  -12.5760   20.1760 C   0  0  0  0  0  2  0  0  0  0  0  0
  -29.9720  -12.4510   18.8370 C   0  0  0  0  0  2  0  0  0  0  0  0
  -28.4660  -12.2500   19.0930 C   0  0  0  0  0  2  0  0  0  0  0  0
  -27.9050  -13.2600   20.1270 C   0  0  0  0  0  3  0  0  0  0  0  0
  -28.8200  -13.4490   21.3610 C   0  0  0  0  0  2  0  0  0  0  0  0
  -30.1760  -13.7570   20.8850 N   0  0  0  0  0  0  0  0  0  0  0  0
  -32.0960  -14.9240   20.9330 O   0  0  0  0  0  0  0  0  0  0  0  0
  -28.8090  -18.0970   20.1960 C   0  0  0  0  0  2  0  0  0  0  0  0
  -30.7670  -17.5560   21.4140 C   0  0  0  0  0  2  0  0  0  0  0  0
  -30.0700  -18.7940   20.6650 C   0  0  0  0  0  3  0  0  0  0  0  0
  -29.2150  -16.6290   19.9240 C   0  0  0  0  0  3  0  0  0  0  0  0
  -30.2180  -16.2150   20.9320 N   0  0  0  0  0  0  0  0  0  0  0  0
  -25.4610  -13.8480   20.6200 C   0  0  0  0  0  0  0  0  0  0  0  0
  -24.3730  -13.0750   20.9100 C   0  0  0  0  0  0  0  0  0  0  0  0
  -24.8540  -11.7300   20.9860 C   0  0  0  0  0  0  0  0  0  0  0  0
  -26.5300  -12.9730   20.5120 N   0  0  0  0  0  0  0  0  0  0  0  0
  -26.1690  -11.7000   20.8100 N   0  0  0  0  0  0  0  0  0  0  0  0
  -24.1290  -10.4640   21.1430 C   0  0  0  0  0  0  0  0  0  0  0  0
  -24.4860   -9.5270   22.1390 C   0  0  0  0  0  3  0  0  0  0  0  0
  -23.7630   -8.3230   22.2790 C   0  0  0  0  0  3  0  0  0  0  0  0
  -22.6680   -8.0500   21.4240 C   0  0  0  0  0  0  0  0  0  0  0  0
  -22.3310   -8.9750   20.4200 C   0  0  0  0  0  3  0  0  0  0  0  0
  -23.0570  -10.1690   20.2770 C   0  0  0  0  0  3  0  0  0  0  0  0
  -21.9210   -6.8980   21.4720 O   0  0  0  0  0  0  0  0  0  0  0  0
  -21.7860   -6.1770   22.6330 C   0  0  0  0  0  0  0  0  0  0  0  0
  -21.2650   -6.7520   23.8120 C   0  0  0  0  0  3  0  0  0  0  0  0
  -21.0870   -5.9570   24.9630 C   0  0  0  0  0  3  0  0  0  0  0  0
  -21.4140   -4.5880   24.9290 C   0  0  0  0  0  0  0  0  0  0  0  0
  -21.9250   -4.0120   23.7530 C   0  0  0  0  0  3  0  0  0  0  0  0
  -22.1100   -4.8050   22.6070 C   0  0  0  0  0  0  0  0  0  0  0  0
  -22.5870   -4.2430   21.4690 F   0  0  0  0  0  0  0  0  0  0  0  0
  -21.2320   -3.8210   26.0300 F   0  0  0  0  0  0  0  0  0  0  0  0
  -22.9490  -13.5360   21.0050 C   0  0  0  0  0  0  0  0  0  0  0  0
  -22.1390  -12.8670   21.8170 N   0  0  0  0  0  0  0  0  0  0  0  0
  -22.5580  -14.5280   20.3900 O   0  0  0  0  0  0  0  0  0  0  0  0
  -22.4630  -12.0680   22.3420 H   0  0  0  0  0  0  0  0  0  0  0  0
  -21.1800  -13.1630   21.9170 H   0  0  0  0  0  0  0  0  0  0  0  0
  -25.6250  -15.2140   20.4110 N   0  0  0  0  0  0  0  0  0  0  0  0
  -24.8480  -15.8630   20.4350 H   0  0  0  0  0  0  0  0  0  0  0  0
  -26.4990  -15.6560   20.1640 H   0  0  0  0  0  0  0  0  0  0  0  0
  -31.0730  -16.9170   18.0380 C   0  0  0  0  0  1  0  0  0  0  0  0
  -29.6680  -16.4270   18.4480 C   0  0  0  0  0  2  0  0  0  0  0  0
  -28.1920  -23.9080   20.5960 C   0  0  0  0  0  2  0  0  0  0  0  0
  -28.5540  -25.1610   19.6660 C   0  0  0  0  0  2  0  0  0  0  0  0
  -28.3930  -26.5640   20.1360 O   0  0  0  0  0  0  0  0  0  0  0  0
  -24.6180  -31.8770   23.1470 C   0  0  0  0  0  0  0  0  0  0  0  0
  -27.2230  -27.3390   20.0620 C   0  0  0  0  0  0  0  0  0  0  0  0
  -23.3900  -30.4810   21.5130 C   0  0  0  0  0  3  0  0  0  0  0  0
  -24.8290  -28.9250   20.0650 C   0  0  0  0  0  0  0  0  0  0  0  0
  -25.9210  -30.8080   21.2910 C   0  0  0  0  0  2  0  0  0  0  0  0
  -25.9960  -29.4280   20.6500 C   0  0  0  0  0  0  0  0  0  0  0  0
  -27.1850  -28.6450   20.6410 C   0  0  0  0  0  3  0  0  0  0  0  0
  -26.0300  -26.8730   19.4610 C   0  0  0  0  0  3  0  0  0  0  0  0
  -24.8500  -27.6520   19.4600 C   0  0  0  0  0  3  0  0  0  0  0  0
  -23.5870  -29.7950   20.1290 C   0  0  0  0  0  2  0  0  0  0  0  0
  -24.6620  -31.0740   22.0420 N   0  0  0  0  0  0  0  0  0  0  0  0
  -23.5430  -32.1500   23.7020 O   0  0  0  0  0  0  0  0  0  0  0  0
  -22.7460  -29.4660   22.4860 C   0  0  0  0  0  0  0  0  0  0  0  0
  -21.4170  -29.2950   22.3870 N   0  0  0  0  0  0  0  0  0  0  0  0
  -23.4400  -28.8340   23.2860 O   0  0  0  0  0  0  0  0  0  0  0  0
  -20.9130  -29.8580   21.7160 H   0  0  0  0  0  0  0  0  0  0  0  0
  -18.0520  -28.1010   22.9430 C   0  0  0  0  0  0  0  0  0  0  0  0
  -20.6150  -28.3530   23.1680 C   0  0  0  0  0  3  0  0  0  0  0  0
  -20.7040  -26.9240   22.5820 C   0  0  0  0  0  2  0  0  0  0  0  0
  -19.5820  -26.6100   21.5880 C   0  0  0  0  0  2  0  0  0  0  0  0
  -18.2130  -26.7560   22.2580 C   0  0  0  0  0  2  0  0  0  0  0  0
  -19.1800  -28.8570   23.3590 C   0  0  0  0  0  0  0  0  0  0  0  0
  -18.9750  -30.1190   23.9580 C   0  0  0  0  0  3  0  0  0  0  0  0
  -17.6750  -30.6220   24.1490 C   0  0  0  0  0  3  0  0  0  0  0  0
  -16.5610  -29.8630   23.7470 C   0  0  0  0  0  3  0  0  0  0  0  0
  -16.7510  -28.6060   23.1480 C   0  0  0  0  0  3  0  0  0  0  0  0
  -25.9110  -32.5110   23.7520 C   0  0  0  0  0  3  0  0  0  0  0  0
  -26.4610  -31.7210   25.0040 C   0  0  1  0  0  0  0  0  0  0  0  0
  -25.3950  -31.4660   26.0940 C   0  0  0  0  0  1  0  0  0  0  0  0
  -27.0410  -30.3520   24.5770 C   0  0  0  0  0  1  0  0  0  0  0  0
  -27.6210  -32.5100   25.6560 C   0  0  0  0  0  1  0  0  0  0  0  0
  -25.5970  -33.9020   24.1180 N   0  0  0  0  0  0  0  0  0  0  0  0
  -25.9200  -34.9760   23.3840 C   0  0  0  0  0  0  0  0  0  0  0  0
  -26.5830  -34.9020   22.3460 O   0  0  0  0  0  0  0  0  0  0  0  0
  -25.0110  -34.0350   24.9300 H   0  0  0  0  0  0  0  0  0  0  0  0
  -24.1810  -36.7670   23.0820 C   0  0  0  0  0  1  0  0  0  0  0  0
  -25.4280  -36.3510   23.8790 C   0  0  0  0  0  3  0  0  0  0  0  0
  -27.5640  -37.2150   24.7250 C   0  0  0  0  0  1  0  0  0  0  0  0
  -26.4570  -37.4100   23.7910 N   0  0  0  0  0  0  0  0  0  0  0  0
  -26.0500  -38.3250   23.9670 H   0  0  0  0  0  0  0  0  0  0  0  0
  1  2  1  0
  1  5  1  0
  2  4  1  0
  3  1  2  0
  7 12  1  0
  8  9  1  0
  8  7  1  0
 10  9  1  0
 10 22  1  0
 10 11  1  0
 12  6  1  0
 12 11  1  0
 13  6  2  0
 14 16  1  0
 16  5  1  0
 16 15  1  0
 17 48  1  0
 17 14  1  0
 17 18  1  0
 18  6  1  0
 18 15  1  0
 19 20  2  0
 20 21  1  0
 20 39  1  0
 21 24  1  0
 22 19  1  0
 22 23  1  0
 23 21  2  0
 24 25  1  0
 25 26  2  0
 27 30  1  0
 27 26  1  0
 28 27  2  0
 29 28  1  0
 29 24  2  0
 30 31  1  0
 31 32  1  0
 32 33  2  0
 34 33  1  0
 34 38  1  0
 35 34  2  0
 36 31  2  0
 36 35  1  0
 37 36  1  0
 39 40  1  0
 40 43  1  0
 40 42  1  0
 41 39  2  0
 44 45  1  0
 44 19  1  0
 46 44  1  0
 47 48  1  0
 49  2  1  0
 50 51  1  0
 50 49  1  0
 52 63  2  0
 53 51  1  0
 53 58  1  0
 54 62  1  0
 54 64  1  0
 55 61  1  0
 55 57  1  0
 56 62  1  0
 57 56  1  0
 58 57  2  0
 59 53  2  0
 60 59  1  0
 60 55  2  0
 61 54  1  0
 62 52  1  0
 64 66  2  0
 65 64  1  0
 67 65  1  0
 68 77  2  0
 68 73  1  0
 69 65  1  0
 69 73  1  0
 70 69  1  0
 71 72  1  0
 71 70  1  0
 72 68  1  0
 73 74  2  0
 74 75  1  0
 76 75  2  0
 77 76  1  0
 78 52  1  0
 78 83  1  0
 78 79  1  0
 79 82  1  1
 79 80  1  0
 81 79  1  0
 83 86  1  0
 84 88  1  0
 84 83  1  0
 85 84  2  0
 88 87  1  0
 90 88  1  0
 90 91  1  0
 90 89  1  0
M  ISO  4   6 100  18 100  50 101  51 101
M  END
>  <TORSDO>  (2) 
F 20

>  <SCORE>  (2) 
-13.182

>  <name>  (2) 
1

>  <ligand_id>  (2) 
1

>  <original_smiles>  (2) 
[H]c1c([H])c([H])c2c(c1[H])C([H])([H])C([H])([H])C([H])([H])C2([H])N([H])C(=O)C1([H])N(C(=O)C([H])(N([H])C(=O)C([H])(N([H])C([H])([H])[H])C([H])([H])[H])C(C([H])([H])[H])(C([H])([H])[H])C([H])([H])[H])C([H])([H])c2c([H])c(OC([H])([H])C([H])([H])N([H])C(=O)C([H])([H])C3([H])C([H])([H])N(C(=O)N4C([H])([H])C([H])([H])C([H])([H])C([H])(n5nc(-c6c([H])c([H])c(Oc7c([H])c([H])c(F)c([H])c7F)c([H])c6[H])c(C(=O)N([H])[H])c5N([H])[H])C4([H])[H])C([H])(C([H])([H])C([H])([H])[H])C3([H])[H])c([H])c([H])c2C1([H])[H]

>  <smiles>  (2) 
[H]c1c([H])c([H])c2c(c1[H])C([H])([H])C([H])([H])C([H])([H])C2([H])N([H])C(=O)C1([H])N(C(=O)C([H])(N([H])C(=O)C([H])(N([H])C([H])([H])[H])C([H])([H])[H])C(C([H])([H])[H])(C([H])([H])[H])C([H])([H])[H])C([H])([H])c2c([H])c(OC([H])([H])C([H])([H])N([H])C(=O)C([H])([H])C3([H])C([H])([H])N(C(=O)N4C([H])([H])C([H])([H])C([H])([H])C([H])(n5nc(-c6c([H])c([H])c(Oc7c([H])c([H])c(F)c([H])c7F)c([H])c6[H])c(C(=O)N([H])[H])c5N([H])[H])C4([H])[H])C([H])(C([H])([H])C([H])([H])[H])C3([H])[H])c([H])c([H])c2C1([H])[H]

$$$$
2:0:0
     RDKit          3D

 92100  0  0  1  0  0  0  0  0999 V2000
  -29.3390  -22.2000   19.9760 C   0  0  0  0  0  2  0  0  0  0  0  0
  -27.6340  -22.2530   21.6420 C   0  0  0  0  0  2  0  0  0  0  0  0
  -28.8320  -20.7480   20.2170 C   0  0  0  0  0  3  0  0  0  0  0  0
  -28.1520  -23.0650   20.4360 C   0  0  0  0  0  3  0  0  0  0  0  0
  -28.0300  -20.8330   21.4520 N   0  0  0  0  0  4  0  0  0  0  0  0
  -27.2290  -20.2250   21.4000 H   0  0  0  0  0  0  0  0  0  0  0  0
  -28.6030  -20.5440   22.2300 H   0  0  0  0  0  0  0  0  0  0  0  0
  -29.9440  -19.6680   20.4130 C   0  0  0  0  0  0  0  0  0  0  0  0
  -31.1390  -19.9580   20.5200 O   0  0  0  0  0  0  0  0  0  0  0  0
  -29.5090  -18.1770   20.5140 C   0  0  0  0  0  2  0  0  0  0  0  0
  -30.6760  -17.1400   20.5010 C   0  0  0  0  0  2  0  0  0  0  0  0
  -30.9590  -14.6660   20.1870 C   0  0  0  0  0  0  0  0  0  0  0  0
  -30.6360  -12.4640   19.1290 C   0  0  0  0  0  2  0  0  0  0  0  0
  -29.6680  -12.6330   17.9390 C   0  0  0  0  0  2  0  0  0  0  0  0
  -28.2060  -12.5080   18.4110 C   0  0  0  0  0  2  0  0  0  0  0  0
  -27.8980  -13.3840   19.6550 C   0  0  0  0  0  3  0  0  0  0  0  0
  -28.9820  -13.2020   20.7440 C   0  0  0  0  0  2  0  0  0  0  0  0
  -30.2880  -13.4850   20.1290 N   0  0  0  0  0  0  0  0  0  0  0  0
  -32.0920  -14.8200   19.7240 O   0  0  0  0  0  0  0  0  0  0  0  0
  -30.2400  -15.7280   20.6030 N   0  0  0  0  0  0  0  0  0  0  0  0
  -29.3080  -15.5340   20.9400 H   0  0  0  0  0  0  0  0  0  0  0  0
  -25.5320  -14.0150   20.4470 C   0  0  0  0  0  0  0  0  0  0  0  0
  -24.4650  -13.2530   20.8390 C   0  0  0  0  0  0  0  0  0  0  0  0
  -24.9040  -11.8950   20.7720 C   0  0  0  0  0  0  0  0  0  0  0  0
  -26.5580  -13.1230   20.1730 N   0  0  0  0  0  0  0  0  0  0  0  0
  -26.1840  -11.8410   20.4240 N   0  0  0  0  0  0  0  0  0  0  0  0
  -24.1650  -10.6410   20.9640 C   0  0  0  0  0  0  0  0  0  0  0  0
  -24.5740   -9.6800   21.9150 C   0  0  0  0  0  3  0  0  0  0  0  0
  -23.8360   -8.4910   22.0960 C   0  0  0  0  0  3  0  0  0  0  0  0
  -22.6750   -8.2530   21.3240 C   0  0  0  0  0  0  0  0  0  0  0  0
  -22.2830   -9.2010   20.3630 C   0  0  0  0  0  3  0  0  0  0  0  0
  -23.0210  -10.3830   20.1810 C   0  0  0  0  0  3  0  0  0  0  0  0
  -21.9120   -7.1140   21.4100 O   0  0  0  0  0  0  0  0  0  0  0  0
  -21.8010   -6.4090   22.5830 C   0  0  0  0  0  0  0  0  0  0  0  0
  -21.2750   -6.9930   23.7560 C   0  0  0  0  0  3  0  0  0  0  0  0
  -21.1160   -6.2130   24.9190 C   0  0  0  0  0  3  0  0  0  0  0  0
  -21.4730   -4.8510   24.9090 C   0  0  0  0  0  0  0  0  0  0  0  0
  -21.9930   -4.2680   23.7410 C   0  0  0  0  0  3  0  0  0  0  0  0
  -22.1540   -5.0450   22.5800 C   0  0  0  0  0  0  0  0  0  0  0  0
  -22.6360   -4.4730   21.4500 F   0  0  0  0  0  0  0  0  0  0  0  0
  -21.3150   -4.1010   26.0230 F   0  0  0  0  0  0  0  0  0  0  0  0
  -23.0840  -13.7460   21.1620 C   0  0  0  0  0  0  0  0  0  0  0  0
  -22.3730  -13.0430   22.0390 N   0  0  0  0  0  0  0  0  0  0  0  0
  -22.6450  -14.7850   20.6750 O   0  0  0  0  0  0  0  0  0  0  0  0
  -22.7450  -12.2020   22.4530 H   0  0  0  0  0  0  0  0  0  0  0  0
  -21.4480  -13.3530   22.3010 H   0  0  0  0  0  0  0  0  0  0  0  0
  -25.7100  -15.3860   20.2850 N   0  0  0  0  0  0  0  0  0  0  0  0
  -24.9480  -16.0410   20.4140 H   0  0  0  0  0  0  0  0  0  0  0  0
  -26.5450  -15.8130   19.9070 H   0  0  0  0  0  0  0  0  0  0  0  0
  -28.4020  -24.5690   20.7740 C   0  0  0  0  0  2  0  0  0  0  0  0
  -28.7190  -25.5160   19.5850 C   0  0  0  0  0  2  0  0  0  0  0  0
  -28.6370  -26.9130   19.9480 O   0  0  0  0  0  0  0  0  0  0  0  0
  -24.6370  -31.8700   23.1630 C   0  0  0  0  0  0  0  0  0  0  0  0
  -27.4210  -27.5830   19.9560 C   0  0  0  0  0  0  0  0  0  0  0  0
  -23.4790  -30.4930   21.4670 C   0  0  0  0  0  3  0  0  0  0  0  0
  -24.9820  -29.0400   20.0060 C   0  0  0  0  0  0  0  0  0  0  0  0
  -25.9990  -30.9180   21.3030 C   0  0  0  0  0  2  0  0  0  0  0  0
  -26.1250  -29.5710   20.6160 C   0  0  0  0  0  0  0  0  0  0  0  0
  -27.3440  -28.8510   20.5860 C   0  0  0  0  0  3  0  0  0  0  0  0
  -26.2490  -27.0650   19.3550 C   0  0  0  0  0  3  0  0  0  0  0  0
  -25.0410  -27.7860   19.3760 C   0  0  0  0  0  3  0  0  0  0  0  0
  -23.7160  -29.8640   20.0690 C   0  0  0  0  0  2  0  0  0  0  0  0
  -24.7230  -31.1060   22.0360 N   0  0  0  0  0  0  0  0  0  0  0  0
  -23.5440  -32.0950   23.7020 O   0  0  0  0  0  0  0  0  0  0  0  0
  -22.8480  -29.4220   22.3880 C   0  0  0  0  0  0  0  0  0  0  0  0
  -21.5270  -29.2190   22.2510 N   0  0  0  0  0  0  0  0  0  0  0  0
  -23.5450  -28.7790   23.1770 O   0  0  0  0  0  0  0  0  0  0  0  0
  -21.0260  -29.7920   21.5870 H   0  0  0  0  0  0  0  0  0  0  0  0
  -18.1760  -27.9590   22.7200 C   0  0  0  0  0  0  0  0  0  0  0  0
  -20.7320  -28.2330   22.9830 C   0  0  0  0  0  3  0  0  0  0  0  0
  -20.8470  -26.8320   22.3370 C   0  0  0  0  0  2  0  0  0  0  0  0
  -19.7400  -26.5460   21.3200 C   0  0  0  0  0  2  0  0  0  0  0  0
  -18.3630  -26.6460   21.9790 C   0  0  0  0  0  2  0  0  0  0  0  0
  -19.2890  -28.7120   23.1760 C   0  0  0  0  0  0  0  0  0  0  0  0
  -19.0630  -29.9440   23.8250 C   0  0  0  0  0  3  0  0  0  0  0  0
  -17.7550  -30.4230   24.0270 C   0  0  0  0  0  3  0  0  0  0  0  0
  -16.6550  -29.6660   23.5880 C   0  0  0  0  0  3  0  0  0  0  0  0
  -16.8670  -28.4350   22.9410 C   0  0  0  0  0  3  0  0  0  0  0  0
  -25.8990  -32.5140   23.8150 C   0  0  0  0  0  3  0  0  0  0  0  0
  -25.5640  -33.9030   24.1480 N   0  0  0  0  0  0  0  0  0  0  0  0
  -25.8990  -34.9660   23.4040 C   0  0  0  0  0  0  0  0  0  0  0  0
  -26.5920  -34.8800   22.3870 O   0  0  0  0  0  0  0  0  0  0  0  0
  -24.9500  -34.0440   24.9370 H   0  0  0  0  0  0  0  0  0  0  0  0
  -24.1590  -36.7390   23.0200 C   0  0  0  0  0  1  0  0  0  0  0  0
  -25.3830  -36.3430   23.8620 C   0  0  0  0  0  3  0  0  0  0  0  0
  -27.4760  -37.2520   24.7670 C   0  0  0  0  0  1  0  0  0  0  0  0
  -26.4040  -37.4100   23.7870 N   0  0  0  0  0  0  0  0  0  0  0  0
  -25.9810  -38.3230   23.9250 H   0  0  0  0  0  0  0  0  0  0  0  0
  -26.4040  -31.7390   25.0930 C   0  0  1  0  0  0  0  0  0  0  0  0
  -25.2910  -31.4690   26.1350 C   0  0  0  0  0  1  0  0  0  0  0  0
  -27.0200  -30.3770   24.6990 C   0  0  0  0  0  1  0  0  0  0  0  0
  -27.5260  -32.5460   25.7880 C   0  0  0  0  0  1  0  0  0  0  0  0
  1  3  1  0
  1  4  1  0
  3  8  1  0
  3  5  1  0
  4 50  1  0
  4  2  1  0
  5  2  1  0
  5  7  1  0
  6  5  1  0
  8 10  1  0
  8  9  2  0
 11 10  1  0
 11 20  1  0
 12 20  1  0
 13 18  1  0
 14 15  1  0
 14 13  1  0
 16 15  1  0
 16 25  1  0
 16 17  1  0
 18 12  1  0
 18 17  1  0
 19 12  2  0
 20 21  1  0
 22 23  2  0
 23 42  1  0
 24 23  1  0
 24 27  1  0
 25 26  1  0
 25 22  1  0
 26 24  2  0
 27 28  1  0
 28 29  2  0
 30 33  1  0
 30 29  1  0
 31 30  2  0
 32 31  1  0
 32 27  2  0
 33 34  1  0
 34 35  1  0
 35 36  2  0
 37 36  1  0
 37 41  1  0
 38 37  2  0
 39 34  2  0
 39 38  1  0
 40 39  1  0
 42 43  1  0
 43 46  1  0
 43 45  1  0
 44 42  2  0
 47 48  1  0
 47 22  1  0
 49 47  1  0
 51 52  1  0
 51 50  1  0
 52 54  1  0
 53 64  2  0
 54 59  1  0
 55 63  1  0
 55 65  1  0
 56 62  1  0
 56 58  1  0
 57 63  1  0
 58 57  1  0
 59 58  2  0
 60 61  1  0
 60 54  2  0
 61 56  2  0
 62 55  1  0
 63 53  1  0
 65 67  2  0
 66 65  1  0
 68 66  1  0
 69 78  2  0
 69 74  1  0
 70 66  1  0
 70 74  1  0
 71 70  1  0
 72 73  1  0
 72 71  1  0
 73 69  1  0
 74 75  2  0
 75 76  1  0
 77 76  2  0
 78 77  1  0
 79 53  1  0
 79 80  1  0
 79 89  1  0
 80 83  1  0
 81 85  1  0
 81 80  1  0
 82 81  2  0
 85 84  1  0
 87 85  1  0
 87 88  1  0
 87 86  1  0
 89 92  1  1
 89 90  1  0
 91 89  1  0
M  ISO  4  12 100  20 100  51 101  52 101
M  END
>  <TORSDO>  (3) 
F 21

>  <SCORE>  (3) 
-13.187

>  <name>  (3) 
2

>  <ligand_id>  (3) 
2

>  <original_smiles>  (3) 
[H]c1c([H])c([H])c2c(c1[H])C([H])([H])C([H])([H])C([H])([H])C2([H])N([H])C(=O)C1([H])N(C(=O)C([H])(N([H])C(=O)C([H])(N([H])C([H])([H])[H])C([H])([H])[H])C(C([H])([H])[H])(C([H])([H])[H])C([H])([H])[H])C([H])([H])c2c([H])c(OC([H])([H])C([H])([H])C3([H])C([H])([H])C([H])(C(=O)C([H])([H])C([H])([H])N([H])C(=O)N4C([H])([H])C([H])([H])C([H])([H])C([H])(n5nc(-c6c([H])c([H])c(Oc7c([H])c([H])c(F)c([H])c7F)c([H])c6[H])c(C(=O)N([H])[H])c5N([H])[H])C4([H])[H])[N+]([H])([H])C3([H])[H])c([H])c([H])c2C1([H])[H]

>  <smiles>  (3) 
[H]c1c([H])c([H])c2c(c1[H])C([H])([H])C([H])([H])C([H])([H])C2([H])N([H])C(=O)C1([H])N(C(=O)C([H])(N([H])C(=O)C([H])(N([H])C([H])([H])[H])C([H])([H])[H])C(C([H])([H])[H])(C([H])([H])[H])C([H])([H])[H])C([H])([H])c2c([H])c(OC([H])([H])C([H])([H])C3([H])C([H])([H])C([H])(C(=O)C([H])([H])C([H])([H])N([H])C(=O)N4C([H])([H])C([H])([H])C([H])([H])C([H])(n5nc(-c6c([H])c([H])c(Oc7c([H])c([H])c(F)c([H])c7F)c([H])c6[H])c(C(=O)N([H])[H])c5N([H])[H])C4([H])[H])[N+]([H])([H])C3([H])[H])c([H])c([H])c2C1([H])[H]

$$$$
3:0:0
     RDKit          3D

 92101  0  0  1  0  0  0  0  0999 V2000
  -29.0220  -22.9570   21.6170 C   0  0  0  0  0  2  0  0  0  0  0  0
  -28.7820  -23.1930   19.5610 C   0  0  0  0  0  2  0  0  0  0  0  0
  -29.3180  -22.0180   20.4260 C   0  0  0  0  0  3  0  0  0  0  0  0
  -29.0760  -24.1990   20.6940 C   0  0  0  0  0  3  0  0  0  0  0  0
  -28.6590  -20.6020   20.3720 C   0  0  0  0  0  2  0  0  0  0  0  0
  -30.8760  -18.3440   18.1140 C   0  0  0  0  0  3  0  0  0  0  0  0
  -30.8190  -17.1160   18.7900 C   0  0  0  0  0  3  0  0  0  0  0  0
  -29.4220  -18.1360   20.4930 C   0  0  0  0  0  3  0  0  0  0  0  0
  -30.1920  -19.4750   18.5980 C   0  0  0  0  0  0  0  0  0  0  0  0
  -29.4740  -19.4010   19.8210 C   0  0  0  0  0  0  0  0  0  0  0  0
  -30.0800  -16.9760   19.9890 C   0  0  0  0  0  0  0  0  0  0  0  0
  -30.2160  -20.7240   17.7320 C   0  0  0  0  0  1  0  0  0  0  0  0
  -30.6820  -14.5750   20.4130 C   0  0  0  0  0  0  0  0  0  0  0  0
  -30.4070  -12.3670   19.3710 C   0  0  0  0  0  2  0  0  0  0  0  0
  -29.4950  -12.5530   18.1400 C   0  0  0  0  0  2  0  0  0  0  0  0
  -28.0130  -12.4170   18.5450 C   0  0  0  0  0  2  0  0  0  0  0  0
  -27.6460  -13.2740   19.7870 C   0  0  0  0  0  3  0  0  0  0  0  0
  -28.6870  -13.1070   20.9190 C   0  0  0  0  0  2  0  0  0  0  0  0
  -30.0150  -13.3870   20.3590 N   0  0  0  0  0  0  0  0  0  0  0  0
  -31.8700  -14.6690   20.0950 O   0  0  0  0  0  0  0  0  0  0  0  0
  -29.9270  -15.6840   20.6270 N   0  0  0  0  0  0  0  0  0  0  0  0
  -29.0400  -15.5210   21.0790 H   0  0  0  0  0  0  0  0  0  0  0  0
  -25.2360  -13.8720   20.4550 C   0  0  0  0  0  0  0  0  0  0  0  0
  -24.1660  -13.0990   20.8150 C   0  0  0  0  0  0  0  0  0  0  0  0
  -24.6350  -11.7500   20.8090 C   0  0  0  0  0  0  0  0  0  0  0  0
  -26.2890  -12.9940   20.2500 N   0  0  0  0  0  0  0  0  0  0  0  0
  -25.9300  -11.7130   20.5240 N   0  0  0  0  0  0  0  0  0  0  0  0
  -23.9110  -10.4860   21.0020 C   0  0  0  0  0  0  0  0  0  0  0  0
  -24.3340   -9.5290   21.9510 C   0  0  0  0  0  3  0  0  0  0  0  0
  -23.6100   -8.3310   22.1310 C   0  0  0  0  0  3  0  0  0  0  0  0
  -22.4480   -8.0800   21.3630 C   0  0  0  0  0  0  0  0  0  0  0  0
  -22.0440   -9.0260   20.4040 C   0  0  0  0  0  3  0  0  0  0  0  0
  -22.7690  -10.2160   20.2220 C   0  0  0  0  0  3  0  0  0  0  0  0
  -21.6970   -6.9340   21.4520 O   0  0  0  0  0  0  0  0  0  0  0  0
  -21.6410   -6.1970   22.6090 C   0  0  0  0  0  0  0  0  0  0  0  0
  -21.2020   -6.7590   23.8280 C   0  0  0  0  0  3  0  0  0  0  0  0
  -21.0930   -5.9490   24.9760 C   0  0  0  0  0  3  0  0  0  0  0  0
  -21.4130   -4.5800   24.9070 C   0  0  0  0  0  0  0  0  0  0  0  0
  -21.8470   -4.0190   23.6920 C   0  0  0  0  0  3  0  0  0  0  0  0
  -21.9570   -4.8250   22.5460 C   0  0  0  0  0  0  0  0  0  0  0  0
  -22.3540   -4.2750   21.3730 F   0  0  0  0  0  0  0  0  0  0  0  0
  -21.3010   -3.8010   26.0070 F   0  0  0  0  0  0  0  0  0  0  0  0
  -22.7620  -13.5730   21.0560 C   0  0  0  0  0  0  0  0  0  0  0  0
  -22.0200  -12.8850   21.9150 N   0  0  0  0  0  0  0  0  0  0  0  0
  -22.3300  -14.5910   20.5150 O   0  0  0  0  0  0  0  0  0  0  0  0
  -22.3810  -12.0640   22.3770 H   0  0  0  0  0  0  0  0  0  0  0  0
  -21.0770  -13.1860   22.1170 H   0  0  0  0  0  0  0  0  0  0  0  0
  -25.3970  -15.2410   20.2620 N   0  0  0  0  0  0  0  0  0  0  0  0
  -24.6220  -15.8900   20.3430 H   0  0  0  0  0  0  0  0  0  0  0  0
  -26.2450  -15.6780   19.9220 H   0  0  0  0  0  0  0  0  0  0  0  0
  -28.1280  -25.3900   20.9890 C   0  0  0  0  0  2  0  0  0  0  0  0
  -28.3500  -26.6200   20.2480 O   0  0  0  0  0  0  0  0  0  0  0  0
  -24.5840  -31.9000   23.2560 C   0  0  0  0  0  0  0  0  0  0  0  0
  -27.2310  -27.4330   20.1970 C   0  0  0  0  0  0  0  0  0  0  0  0
  -23.3860  -30.4970   21.6110 C   0  0  0  0  0  3  0  0  0  0  0  0
  -24.8480  -28.9660   20.1820 C   0  0  0  0  0  0  0  0  0  0  0  0
  -25.9150  -30.8540   21.4220 C   0  0  0  0  0  2  0  0  0  0  0  0
  -26.0070  -29.4830   20.7780 C   0  0  0  0  0  0  0  0  0  0  0  0
  -27.2050  -28.7240   20.7800 C   0  0  0  0  0  3  0  0  0  0  0  0
  -26.0620  -26.9510   19.5710 C   0  0  0  0  0  3  0  0  0  0  0  0
  -24.8730  -27.7030   19.5700 C   0  0  0  0  0  3  0  0  0  0  0  0
  -23.6010  -29.8230   20.2300 C   0  0  0  0  0  2  0  0  0  0  0  0
  -24.6470  -31.0980   22.1550 N   0  0  0  0  0  0  0  0  0  0  0  0
  -23.5010  -32.1690   23.7930 O   0  0  0  0  0  0  0  0  0  0  0  0
  -22.7330  -29.4730   22.5690 C   0  0  0  0  0  0  0  0  0  0  0  0
  -21.4090  -29.2890   22.4400 N   0  0  0  0  0  0  0  0  0  0  0  0
  -23.4160  -28.8490   23.3860 O   0  0  0  0  0  0  0  0  0  0  0  0
  -20.9190  -29.8450   21.7530 H   0  0  0  0  0  0  0  0  0  0  0  0
  -18.0350  -28.0910   22.9340 C   0  0  0  0  0  0  0  0  0  0  0  0
  -20.5920  -28.3500   23.2080 C   0  0  0  0  0  3  0  0  0  0  0  0
  -20.6960  -26.9190   22.6310 C   0  0  0  0  0  2  0  0  0  0  0  0
  -19.5960  -26.5980   21.6150 C   0  0  0  0  0  2  0  0  0  0  0  0
  -18.2120  -26.7430   22.2570 C   0  0  0  0  0  2  0  0  0  0  0  0
  -19.1530  -28.8530   23.3670 C   0  0  0  0  0  0  0  0  0  0  0  0
  -18.9330  -30.1150   23.9580 C   0  0  0  0  0  3  0  0  0  0  0  0
  -17.6280  -30.6170   24.1220 C   0  0  0  0  0  3  0  0  0  0  0  0
  -16.5240  -29.8520   23.7060 C   0  0  0  0  0  3  0  0  0  0  0  0
  -16.7280  -28.5910   23.1180 C   0  0  0  0  0  3  0  0  0  0  0  0
  -25.8670  -32.5340   23.8780 C   0  0  0  0  0  3  0  0  0  0  0  0
  -26.3790  -31.7710   25.1600 C   0  0  1  0  0  0  0  0  0  0  0  0
  -25.2820  -31.5390   26.2260 C   0  0  0  0  0  1  0  0  0  0  0  0
  -26.9630  -30.3900   24.7760 C   0  0  0  0  0  1  0  0  0  0  0  0
  -27.5270  -32.5680   25.8220 C   0  0  0  0  0  1  0  0  0  0  0  0
  -25.5570  -33.9350   24.1970 N   0  0  0  0  0  0  0  0  0  0  0  0
  -25.8980  -34.9820   23.4330 C   0  0  0  0  0  0  0  0  0  0  0  0
  -26.5780  -34.8710   22.4080 O   0  0  0  0  0  0  0  0  0  0  0  0
  -24.9570  -34.0950   24.9920 H   0  0  0  0  0  0  0  0  0  0  0  0
  -24.1810  -36.7770   23.0460 C   0  0  0  0  0  1  0  0  0  0  0  0
  -25.4100  -36.3730   23.8760 C   0  0  0  0  0  3  0  0  0  0  0  0
  -27.5350  -37.2560   24.7330 C   0  0  0  0  0  1  0  0  0  0  0  0
  -26.4470  -37.4230   23.7720 N   0  0  0  0  0  0  0  0  0  0  0  0
  -26.0420  -38.3450   23.9090 H   0  0  0  0  0  0  0  0  0  0  0  0
  2  3  1  0
  2  4  1  0
  3  5  1  0
  3  1  1  0
  4 51  1  0
  4  1  1  0
  6  9  2  0
  6  7  1  0
  7 11  2  0
  9 10  1  0
 10  5  1  0
 10  8  2  0
 11  8  1  0
 11 21  1  0
 12  9  1  0
 13 21  1  0
 14 19  1  0
 15 16  1  0
 15 14  1  0
 17 16  1  0
 17 26  1  0
 17 18  1  0
 19 13  1  0
 19 18  1  0
 20 13  2  0
 21 22  1  0
 23 24  2  0
 24 43  1  0
 25 24  1  0
 25 28  1  0
 26 23  1  0
 26 27  1  0
 27 25  2  0
 28 29  1  0
 29 30  2  0
 31 34  1  0
 31 30  1  0
 32 31  2  0
 33 32  1  0
 33 28  2  0
 34 35  1  0
 35 36  1  0
 36 37  2  0
 38 37  1  0
 38 42  1  0
 39 38  2  0
 40 35  2  0
 40 39  1  0
 41 40  1  0
 43 44  1  0
 44 47  1  0
 44 46  1  0
 45 43  2  0
 48 49  1  0
 48 23  1  0
 50 48  1  0
 52 51  1  0
 53 64  2  0
 54 52  1  0
 54 59  1  0
 55 63  1  0
 55 65  1  0
 56 62  1  0
 56 58  1  0
 57 63  1  0
 58 59  2  0
 58 57  1  0
 60 54  2  0
 61 60  1  0
 61 56  2  0
 62 55  1  0
 63 53  1  0
 65 67  2  0
 66 65  1  0
 68 66  1  0
 69 78  2  0
 69 74  1  0
 70 66  1  0
 70 74  1  0
 71 70  1  0
 72 73  1  0
 72 71  1  0
 73 69  1  0
 74 75  2  0
 75 76  1  0
 77 76  2  0
 78 77  1  0
 79 53  1  0
 79 84  1  0
 79 80  1  0
 80 83  1  1
 80 81  1  0
 82 80  1  0
 84 87  1  0
 85 89  1  0
 85 84  1  0
 86 85  2  0
 89 88  1  0
 91 89  1  0
 91 92  1  0
 91 90  1  0
M  ISO  4  13 100  21 100  51 101  52 101
M  END
>  <TORSDO>  (4) 
F 19

>  <SCORE>  (4) 
-14.426

>  <name>  (4) 
3

>  <ligand_id>  (4) 
3

>  <original_smiles>  (4) 
[H]c1c([H])c([H])c2c(c1[H])C([H])([H])C([H])([H])C([H])([H])C2([H])N([H])C(=O)C1([H])N(C(=O)C([H])(N([H])C(=O)C([H])(N([H])C([H])([H])[H])C([H])([H])[H])C(C([H])([H])[H])(C([H])([H])[H])C([H])([H])[H])C([H])([H])c2c([H])c(OC([H])([H])C3([H])C([H])([H])C([H])(C([H])([H])c4c([H])c(N([H])C(=O)N5C([H])([H])C([H])([H])C([H])([H])C([H])(n6nc(-c7c([H])c([H])c(Oc8c([H])c([H])c(F)c([H])c8F)c([H])c7[H])c(C(=O)N([H])[H])c6N([H])[H])C5([H])[H])c([H])c([H])c4C([H])([H])[H])C3([H])[H])c([H])c([H])c2C1([H])[H]

>  <smiles>  (4) 
[H]c1c([H])c([H])c2c(c1[H])C([H])([H])C([H])([H])C([H])([H])C2([H])N([H])C(=O)C1([H])N(C(=O)C([H])(N([H])C(=O)C([H])(N([H])C([H])([H])[H])C([H])([H])[H])C(C([H])([H])[H])(C([H])([H])[H])C([H])([H])[H])C([H])([H])c2c([H])c(OC([H])([H])C3([H])C([H])([H])C([H])(C([H])([H])c4c([H])c(N([H])C(=O)N5C([H])([H])C([H])([H])C([H])([H])C([H])(n6nc(-c7c([H])c([H])c(Oc8c([H])c([H])c(F)c([H])c8F)c([H])c7[H])c(C(=O)N([H])[H])c6N([H])[H])C5([H])[H])c([H])c([H])c4C([H])([H])[H])C3([H])[H])c([H])c([H])c2C1([H])[H]

$$$$
4:0:0
     RDKit          3D

 86 94  0  0  1  0  0  0  0  0999 V2000
  -28.8950  -21.1730   20.5900 C   0  0  0  0  0  0  0  0  0  0  0  0
  -28.5750  -21.1180   21.7810 O   0  0  0  0  0  0  0  0  0  0  0  0
  -30.4800  -15.4000   20.1790 C   0  0  0  0  0  0  0  0  0  0  0  0
  -30.4260  -12.9580   19.2950 C   0  0  0  0  0  2  0  0  0  0  0  0
  -29.4950  -12.7420   18.0790 C   0  0  0  0  0  2  0  0  0  0  0  0
  -28.0570  -12.4430   18.5430 C   0  0  0  0  0  2  0  0  0  0  0  0
  -27.6080  -13.3950   19.6810 C   0  0  0  0  0  3  0  0  0  0  0  0
  -28.6760  -13.5870   20.7790 C   0  0  0  0  0  2  0  0  0  0  0  0
  -29.8790  -14.1070   20.1060 N   0  0  0  0  0  0  0  0  0  0  0  0
  -31.7130  -15.3420   20.0580 O   0  0  0  0  0  0  0  0  0  0  0  0
  -28.0900  -18.6220   19.7260 C   0  0  0  0  0  2  0  0  0  0  0  0
  -28.5090  -17.0790   19.5720 C   0  0  0  0  0  2  0  0  0  0  0  0
  -30.2240  -18.2640   20.5130 C   0  0  0  0  0  2  0  0  0  0  0  0
  -29.2970  -19.5950   19.9110 C   0  0  0  0  0  3  0  0  0  0  0  0
  -29.7910  -16.7330   20.2260 N   0  0  0  0  0  0  0  0  0  0  0  0
  -25.2480  -13.9230   20.4850 C   0  0  0  0  0  0  0  0  0  0  0  0
  -24.1990  -13.1360   20.8660 C   0  0  0  0  0  0  0  0  0  0  0  0
  -24.6790  -11.7920   20.8190 C   0  0  0  0  0  0  0  0  0  0  0  0
  -26.2960  -13.0610   20.2170 N   0  0  0  0  0  0  0  0  0  0  0  0
  -25.9670  -11.7700   20.4860 N   0  0  0  0  0  0  0  0  0  0  0  0
  -23.9630  -10.5230   21.0120 C   0  0  0  0  0  0  0  0  0  0  0  0
  -24.4050   -9.5600   21.9460 C   0  0  0  0  0  3  0  0  0  0  0  0
  -23.6870   -8.3580   22.1260 C   0  0  0  0  0  3  0  0  0  0  0  0
  -22.5130   -8.1120   21.3750 C   0  0  0  0  0  0  0  0  0  0  0  0
  -22.0910   -9.0620   20.4290 C   0  0  0  0  0  3  0  0  0  0  0  0
  -22.8100  -10.2550   20.2470 C   0  0  0  0  0  3  0  0  0  0  0  0
  -21.7670   -6.9610   21.4660 O   0  0  0  0  0  0  0  0  0  0  0  0
  -21.7210   -6.2200   22.6210 C   0  0  0  0  0  0  0  0  0  0  0  0
  -21.2740   -6.7720   23.8410 C   0  0  0  0  0  3  0  0  0  0  0  0
  -21.1770   -5.9590   24.9880 C   0  0  0  0  0  3  0  0  0  0  0  0
  -21.5160   -4.5950   24.9150 C   0  0  0  0  0  0  0  0  0  0  0  0
  -21.9540   -4.0410   23.6990 C   0  0  0  0  0  3  0  0  0  0  0  0
  -22.0540   -4.8520   22.5550 C   0  0  0  0  0  0  0  0  0  0  0  0
  -22.4590   -4.3110   21.3800 F   0  0  0  0  0  0  0  0  0  0  0  0
  -21.4160   -3.8100   26.0140 F   0  0  0  0  0  0  0  0  0  0  0  0
  -22.8020  -13.6010   21.1520 C   0  0  0  0  0  0  0  0  0  0  0  0
  -22.0850  -12.8950   22.0200 N   0  0  0  0  0  0  0  0  0  0  0  0
  -22.3540  -14.6270   20.6410 O   0  0  0  0  0  0  0  0  0  0  0  0
  -22.4590  -12.0670   22.4590 H   0  0  0  0  0  0  0  0  0  0  0  0
  -21.1450  -13.1900   22.2480 H   0  0  0  0  0  0  0  0  0  0  0  0
  -25.3830  -15.2960   20.3140 N   0  0  0  0  0  0  0  0  0  0  0  0
  -24.6090  -15.9360   20.4550 H   0  0  0  0  0  0  0  0  0  0  0  0
  -26.2150  -15.7490   19.9640 H   0  0  0  0  0  0  0  0  0  0  0  0
  -28.8410  -22.7980   19.9340 C   0  0  0  0  0  2  0  0  0  0  0  0
  -28.0450  -24.3310   20.4800 C   0  0  0  0  0  2  0  0  0  0  0  0
  -28.2400  -25.9530   20.2350 O   0  0  0  0  0  0  0  0  0  0  0  0
  -24.6220  -31.8990   23.2250 C   0  0  0  0  0  0  0  0  0  0  0  0
  -27.2030  -27.0250   20.2320 C   0  0  0  0  0  0  0  0  0  0  0  0
  -23.4380  -30.4940   21.5890 C   0  0  0  0  0  3  0  0  0  0  0  0
  -24.8940  -28.8890   20.1780 C   0  0  0  0  0  0  0  0  0  0  0  0
  -26.0020  -30.7170   21.4430 C   0  0  0  0  0  2  0  0  0  0  0  0
  -26.0790  -29.3040   20.7960 C   0  0  0  0  0  0  0  0  0  0  0  0
  -27.2330  -28.3960   20.7910 C   0  0  0  0  0  3  0  0  0  0  0  0
  -25.9830  -26.7560   19.5710 C   0  0  0  0  0  3  0  0  0  0  0  0
  -24.8710  -27.6360   19.5430 C   0  0  0  0  0  3  0  0  0  0  0  0
  -23.6720  -29.8060   20.2160 C   0  0  0  0  0  2  0  0  0  0  0  0
  -24.7090  -31.0630   22.1400 N   0  0  0  0  0  0  0  0  0  0  0  0
  -23.5300  -32.1850   23.7420 O   0  0  0  0  0  0  0  0  0  0  0  0
  -22.7440  -29.4970   22.5560 C   0  0  0  0  0  0  0  0  0  0  0  0
  -21.4130  -29.3380   22.4360 N   0  0  0  0  0  0  0  0  0  0  0  0
  -23.4110  -28.8700   23.3830 O   0  0  0  0  0  0  0  0  0  0  0  0
  -20.9290  -29.8910   21.7420 H   0  0  0  0  0  0  0  0  0  0  0  0
  -18.0270  -28.1430   22.9650 C   0  0  0  0  0  0  0  0  0  0  0  0
  -20.5900  -28.4020   23.2100 C   0  0  0  0  0  3  0  0  0  0  0  0
  -20.6840  -26.9710   22.6310 C   0  0  0  0  0  2  0  0  0  0  0  0
  -19.5730  -26.6550   21.6240 C   0  0  0  0  0  2  0  0  0  0  0  0
  -18.1970  -26.7980   22.2780 C   0  0  0  0  0  2  0  0  0  0  0  0
  -19.1510  -28.9030   23.3890 C   0  0  0  0  0  0  0  0  0  0  0  0
  -18.9360  -30.1590   23.9980 C   0  0  0  0  0  3  0  0  0  0  0  0
  -17.6320  -30.6570   24.1810 C   0  0  0  0  0  3  0  0  0  0  0  0
  -16.5240  -29.8960   23.7710 C   0  0  0  0  0  3  0  0  0  0  0  0
  -16.7230  -28.6400   23.1720 C   0  0  0  0  0  3  0  0  0  0  0  0
  -25.8880  -32.5500   23.8600 C   0  0  0  0  0  3  0  0  0  0  0  0
  -25.5680  -33.9550   24.1770 N   0  0  0  0  0  0  0  0  0  0  0  0
  -25.9050  -35.0080   23.4210 C   0  0  0  0  0  0  0  0  0  0  0  0
  -26.5840  -34.9000   22.3970 O   0  0  0  0  0  0  0  0  0  0  0  0
  -24.9670  -34.1110   24.9730 H   0  0  0  0  0  0  0  0  0  0  0  0
  -24.1890  -36.8140   23.0460 C   0  0  0  0  0  1  0  0  0  0  0  0
  -25.4190  -36.4020   23.8720 C   0  0  0  0  0  3  0  0  0  0  0  0
  -27.5470  -37.2850   24.7260 C   0  0  0  0  0  1  0  0  0  0  0  0
  -26.4580  -37.4520   23.7690 N   0  0  0  0  0  0  0  0  0  0  0  0
  -26.0550  -38.3730   23.9060 H   0  0  0  0  0  0  0  0  0  0  0  0
  -26.3840  -31.8000   25.1590 C   0  0  1  0  0  0  0  0  0  0  0  0
  -25.2750  -31.5820   26.2150 C   0  0  0  0  0  1  0  0  0  0  0  0
  -26.9680  -30.4130   24.8050 C   0  0  0  0  0  1  0  0  0  0  0  0
  -27.5280  -32.6010   25.8240 C   0  0  0  0  0  1  0  0  0  0  0  0
  1  2  2  0
  3 15  1  0
  4  9  1  0
  5  6  1  0
  5  4  1  0
  7  6  1  0
  7 19  1  0
  7  8  1  0
  9  3  1  0
  9  8  1  0
 10  3  2  0
 11 14  1  0
 12 11  1  0
 12 15  1  0
 14 13  1  0
 14  1  1  0
 15 13  1  0
 16 17  2  0
 17 36  1  0
 18 17  1  0
 18 21  1  0
 19 16  1  0
 19 20  1  0
 20 18  2  0
 21 22  1  0
 22 23  2  0
 24 27  1  0
 24 23  1  0
 25 24  2  0
 26 25  1  0
 26 21  2  0
 27 28  1  0
 28 29  1  0
 29 30  2  0
 31 30  1  0
 31 35  1  0
 32 31  2  0
 33 28  2  0
 33 32  1  0
 34 33  1  0
 36 37  1  0
 37 40  1  0
 37 39  1  0
 38 36  2  0
 41 42  1  0
 41 16  1  0
 43 41  1  0
 44 45  1  0
 44  1  1  0
 46 45  1  0
 47 58  2  0
 48 46  1  0
 48 53  1  0
 49 57  1  0
 49 59  1  0
 50 56  1  0
 50 52  1  0
 51 57  1  0
 52 51  1  0
 53 52  2  0
 54 48  2  0
 55 54  1  0
 55 50  2  0
 56 49  1  0
 57 47  1  0
 59 61  2  0
 60 59  1  0
 62 60  1  0
 63 72  2  0
 63 68  1  0
 64 60  1  0
 64 68  1  0
 65 64  1  0
 66 67  1  0
 66 65  1  0
 67 63  1  0
 68 69  2  0
 69 70  1  0
 71 70  2  0
 72 71  1  0
 73 47  1  0
 73 74  1  0
 73 83  1  0
 74 77  1  0
 75 79  1  0
 75 74  1  0
 76 75  2  0
 79 78  1  0
 81 79  1  0
 81 82  1  0
 81 80  1  0
 83 86  1  1
 83 84  1  0
 85 83  1  0
M  ISO  4   3 100  15 100  45 101  46 101
M  END
>  <TORSDO>  (5) 
F 18

>  <SCORE>  (5) 
-16.693

>  <name>  (5) 
4

>  <ligand_id>  (5) 
4

>  <original_smiles>  (5) 
[H]c1c([H])c([H])c2c(c1[H])C([H])([H])C([H])([H])C([H])([H])C2([H])N([H])C(=O)C1([H])N(C(=O)C([H])(N([H])C(=O)C([H])(N([H])C([H])([H])[H])C([H])([H])[H])C(C([H])([H])[H])(C([H])([H])[H])C([H])([H])[H])C([H])([H])c2c([H])c(OC([H])([H])C([H])([H])C(=O)C3([H])C([H])([H])N(C(=O)N4C([H])([H])C([H])([H])C([H])([H])C([H])(n5nc(-c6c([H])c([H])c(Oc7c([H])c([H])c(F)c([H])c7F)c([H])c6[H])c(C(=O)N([H])[H])c5N([H])[H])C4([H])[H])C([H])([H])C3([H])[H])c([H])c([H])c2C1([H])[H]

>  <smiles>  (5) 
[H]c1c([H])c([H])c2c(c1[H])C([H])([H])C([H])([H])C([H])([H])C2([H])N([H])C(=O)C1([H])N(C(=O)C([H])(N([H])C(=O)C([H])(N([H])C([H])([H])[H])C([H])([H])[H])C(C([H])([H])[H])(C([H])([H])[H])C([H])([H])[H])C([H])([H])c2c([H])c(OC([H])([H])C([H])([H])C(=O)C3([H])C([H])([H])N(C(=O)N4C([H])([H])C([H])([H])C([H])([H])C([H])(n5nc(-c6c([H])c([H])c(Oc7c([H])c([H])c(F)c([H])c7F)c([H])c6[H])c(C(=O)N([H])[H])c5N([H])[H])C4([H])[H])C([H])([H])C3([H])[H])c([H])c([H])c2C1([H])[H]

$$$$
5:0:0
     RDKit          3D

 88 96  0  0  1  0  0  0  0  0999 V2000
  -28.5700  -21.8330   20.0450 C   0  0  0  0  0  3  0  0  0  0  0  0
  -29.3880  -20.6730   20.1770 C   0  0  0  0  0  3  0  0  0  0  0  0
  -28.8560  -23.3890   20.3440 C   0  0  0  0  0  0  0  0  0  0  0  0
  -29.9510  -23.7000   20.8250 O   0  0  0  0  0  0  0  0  0  0  0  0
  -27.8110  -24.6560   20.0590 C   0  0  0  0  0  2  0  0  0  0  0  0
  -28.1330  -26.1650   20.3390 O   0  0  0  0  0  0  0  0  0  0  0  0
  -24.5610  -31.9280   23.2800 C   0  0  0  0  0  0  0  0  0  0  0  0
  -27.0970  -27.1730   20.2620 C   0  0  0  0  0  0  0  0  0  0  0  0
  -23.3500  -30.5370   21.6460 C   0  0  0  0  0  3  0  0  0  0  0  0
  -24.7850  -28.9480   20.2230 C   0  0  0  0  0  0  0  0  0  0  0  0
  -25.9070  -30.7770   21.4820 C   0  0  0  0  0  2  0  0  0  0  0  0
  -25.9690  -29.3820   20.8320 C   0  0  0  0  0  0  0  0  0  0  0  0
  -27.1260  -28.5110   20.8360 C   0  0  0  0  0  3  0  0  0  0  0  0
  -25.8860  -26.8460   19.6130 C   0  0  0  0  0  3  0  0  0  0  0  0
  -24.7570  -27.6940   19.5980 C   0  0  0  0  0  3  0  0  0  0  0  0
  -23.5630  -29.8530   20.2700 C   0  0  0  0  0  2  0  0  0  0  0  0
  -24.6260  -31.1020   22.1900 N   0  0  0  0  0  0  0  0  0  0  0  0
  -23.4760  -32.2220   23.8060 O   0  0  0  0  0  0  0  0  0  0  0  0
  -22.6630  -29.5380   22.6110 C   0  0  0  0  0  0  0  0  0  0  0  0
  -21.3360  -29.3690   22.4760 N   0  0  0  0  0  0  0  0  0  0  0  0
  -23.3270  -28.9180   23.4440 O   0  0  0  0  0  0  0  0  0  0  0  0
  -20.8560  -29.9160   21.7750 H   0  0  0  0  0  0  0  0  0  0  0  0
  -17.9480  -28.1850   22.9720 C   0  0  0  0  0  0  0  0  0  0  0  0
  -20.5060  -28.4400   23.2490 C   0  0  0  0  0  3  0  0  0  0  0  0
  -20.6060  -27.0040   22.6840 C   0  0  0  0  0  2  0  0  0  0  0  0
  -19.5070  -26.6800   21.6660 C   0  0  0  0  0  2  0  0  0  0  0  0
  -18.1230  -26.8320   22.3020 C   0  0  0  0  0  2  0  0  0  0  0  0
  -19.0670  -28.9460   23.4020 C   0  0  0  0  0  0  0  0  0  0  0  0
  -18.8490  -30.2120   23.9890 C   0  0  0  0  0  3  0  0  0  0  0  0
  -17.5450  -30.7170   24.1480 C   0  0  0  0  0  3  0  0  0  0  0  0
  -16.4400  -29.9520   23.7350 C   0  0  0  0  0  3  0  0  0  0  0  0
  -16.6430  -28.6870   23.1530 C   0  0  0  0  0  3  0  0  0  0  0  0
  -25.8430  -32.5570   23.9060 C   0  0  0  0  0  3  0  0  0  0  0  0
  -26.3320  -31.8010   25.2030 C   0  0  1  0  0  0  0  0  0  0  0  0
  -25.2230  -31.5970   26.2620 C   0  0  0  0  0  1  0  0  0  0  0  0
  -26.9000  -30.4070   24.8470 C   0  0  0  0  0  1  0  0  0  0  0  0
  -27.4860  -32.5910   25.8650 C   0  0  0  0  0  1  0  0  0  0  0  0
  -25.5460  -33.9640   24.2160 N   0  0  0  0  0  0  0  0  0  0  0  0
  -25.8810  -35.0050   23.4410 C   0  0  0  0  0  0  0  0  0  0  0  0
  -26.5370  -34.8810   22.4040 O   0  0  0  0  0  0  0  0  0  0  0  0
  -24.9580  -34.1340   25.0190 H   0  0  0  0  0  0  0  0  0  0  0  0
  -24.1560  -36.8060   23.0960 C   0  0  0  0  0  1  0  0  0  0  0  0
  -25.4130  -36.4060   23.8850 C   0  0  0  0  0  3  0  0  0  0  0  0
  -27.5720  -37.2920   24.6530 C   0  0  0  0  0  1  0  0  0  0  0  0
  -26.4490  -37.4510   23.7320 N   0  0  0  0  0  0  0  0  0  0  0  0
  -26.0510  -38.3750   23.8760 H   0  0  0  0  0  0  0  0  0  0  0  0
  -29.1300  -19.0650   19.8510 C   0  0  0  0  0  2  0  0  0  0  0  0
  -30.5340  -15.0420   19.9210 C   0  0  0  0  0  0  0  0  0  0  0  0
  -30.3200  -12.7060   18.9280 C   0  0  0  0  0  2  0  0  0  0  0  0
  -29.3070  -12.6770   17.7620 C   0  0  0  0  0  2  0  0  0  0  0  0
  -27.8770  -12.4540   18.2880 C   0  0  0  0  0  2  0  0  0  0  0  0
  -27.5550  -13.3590   19.5070 C   0  0  0  0  0  3  0  0  0  0  0  0
  -28.6840  -13.3520   20.5570 C   0  0  0  0  0  2  0  0  0  0  0  0
  -29.9090  -13.7910   19.8710 N   0  0  0  0  0  0  0  0  0  0  0  0
  -31.6800  -15.0990   19.4600 O   0  0  0  0  0  0  0  0  0  0  0  0
  -29.5090  -16.4370   21.6960 C   0  0  0  0  0  2  0  0  0  0  0  0
  -30.4590  -17.6420   21.7310 C   0  0  0  0  0  3  0  0  0  0  0  0
  -30.1880  -17.8080   20.2390 C   0  0  0  0  0  3  0  0  0  0  0  0
  -31.8950  -17.4630   22.2200 C   0  0  0  0  0  1  0  0  0  0  0  0
  -29.8340  -16.2490   20.2750 N   0  0  0  0  0  0  0  0  0  0  0  0
  -25.2430  -13.9340   20.4400 C   0  0  0  0  0  0  0  0  0  0  0  0
  -24.1970  -13.1560   20.8580 C   0  0  0  0  0  0  0  0  0  0  0  0
  -24.6410  -11.8030   20.7460 C   0  0  0  0  0  0  0  0  0  0  0  0
  -26.2530  -13.0550   20.0910 N   0  0  0  0  0  0  0  0  0  0  0  0
  -25.9060  -11.7650   20.3410 N   0  0  0  0  0  0  0  0  0  0  0  0
  -23.9150  -10.5420   20.9470 C   0  0  0  0  0  0  0  0  0  0  0  0
  -24.3630   -9.5670   21.8650 C   0  0  0  0  0  3  0  0  0  0  0  0
  -23.6340   -8.3720   22.0530 C   0  0  0  0  0  3  0  0  0  0  0  0
  -22.4430   -8.1440   21.3240 C   0  0  0  0  0  0  0  0  0  0  0  0
  -22.0130   -9.1090   20.3960 C   0  0  0  0  0  3  0  0  0  0  0  0
  -22.7420  -10.2950   20.2050 C   0  0  0  0  0  3  0  0  0  0  0  0
  -21.6840   -7.0030   21.4240 O   0  0  0  0  0  0  0  0  0  0  0  0
  -21.6100   -6.2880   22.5920 C   0  0  0  0  0  0  0  0  0  0  0  0
  -21.1530   -6.8680   23.7960 C   0  0  0  0  0  3  0  0  0  0  0  0
  -21.0280   -6.0790   24.9550 C   0  0  0  0  0  3  0  0  0  0  0  0
  -21.3490   -4.7080   24.9140 C   0  0  0  0  0  0  0  0  0  0  0  0
  -21.7980   -4.1270   23.7150 C   0  0  0  0  0  3  0  0  0  0  0  0
  -21.9250   -4.9150   22.5570 C   0  0  0  0  0  0  0  0  0  0  0  0
  -22.3370   -4.3440   21.4000 F   0  0  0  0  0  0  0  0  0  0  0  0
  -21.2210   -3.9470   26.0260 F   0  0  0  0  0  0  0  0  0  0  0  0
  -22.8300  -13.6390   21.2470 C   0  0  0  0  0  0  0  0  0  0  0  0
  -22.1570  -12.9240   22.1410 N   0  0  0  0  0  0  0  0  0  0  0  0
  -22.3700  -14.6860   20.7930 O   0  0  0  0  0  0  0  0  0  0  0  0
  -22.5420  -12.0760   22.5310 H   0  0  0  0  0  0  0  0  0  0  0  0
  -21.2440  -13.2310   22.4420 H   0  0  0  0  0  0  0  0  0  0  0  0
  -25.4160  -15.3090   20.3060 N   0  0  0  0  0  0  0  0  0  0  0  0
  -24.6880  -15.9780   20.5340 H   0  0  0  0  0  0  0  0  0  0  0  0
  -26.2660  -15.7480   19.9750 H   0  0  0  0  0  0  0  0  0  0  0  0
  1  2  2  0
  1  3  1  0
  3  4  2  0
  5  6  1  0
  5  3  1  0
  7 18  2  0
  8  6  1  0
  8 13  1  0
  9 17  1  0
  9 19  1  0
 10 16  1  0
 10 12  1  0
 11 17  1  0
 12 13  2  0
 12 11  1  0
 14  8  2  0
 15 14  1  0
 15 10  2  0
 16  9  1  0
 17  7  1  0
 19 21  2  0
 20 19  1  0
 22 20  1  0
 23 32  2  0
 23 28  1  0
 24 20  1  0
 24 28  1  0
 25 24  1  0
 26 27  1  0
 26 25  1  0
 27 23  1  0
 28 29  2  0
 29 30  1  0
 31 30  2  0
 32 31  1  0
 33  7  1  0
 33 38  1  0
 33 34  1  0
 34 37  1  1
 34 35  1  0
 36 34  1  0
 38 41  1  0
 39 43  1  0
 39 38  1  0
 40 39  2  0
 43 42  1  0
 45 46  1  0
 45 43  1  0
 45 44  1  0
 47  2  1  0
 48 60  1  0
 49 54  1  0
 50 51  1  0
 50 49  1  0
 52 51  1  0
 52 64  1  0
 52 53  1  0
 54 48  1  0
 54 53  1  0
 55 48  2  0
 56 57  1  0
 57 59  1  0
 58 47  1  0
 58 60  1  0
 58 57  1  0
 60 56  1  0
 61 62  2  0
 62 81  1  0
 63 62  1  0
 63 66  1  0
 64 65  1  0
 64 61  1  0
 65 63  2  0
 66 67  1  0
 67 68  2  0
 69 72  1  0
 69 68  1  0
 70 69  2  0
 71 70  1  0
 71 66  2  0
 72 73  1  0
 73 74  1  0
 74 75  2  0
 76 75  1  0
 76 80  1  0
 77 76  2  0
 78 73  2  0
 78 77  1  0
 79 78  1  0
 81 82  1  0
 82 85  1  0
 82 84  1  0
 83 81  2  0
 86 61  1  0
 86 87  1  0
 88 86  1  0
M  ISO  4   5 101   6 101  48 100  60 100
M  END
>  <TORSDO>  (6) 
F 19

>  <SCORE>  (6) 
-12.869

>  <name>  (6) 
5

>  <ligand_id>  (6) 
5

>  <original_smiles>  (6) 
[H]C(C(=O)C([H])([H])Oc1c([H])c([H])c2c(c1[H])C([H])([H])N(C(=O)C([H])(N([H])C(=O)C([H])(N([H])C([H])([H])[H])C([H])([H])[H])C(C([H])([H])[H])(C([H])([H])[H])C([H])([H])[H])C([H])(C(=O)N([H])C1([H])c3c([H])c([H])c([H])c([H])c3C([H])([H])C([H])([H])C1([H])[H])C2([H])[H])=C([H])C([H])([H])C1([H])N(C(=O)N2C([H])([H])C([H])([H])C([H])([H])C([H])(n3nc(-c4c([H])c([H])c(Oc5c([H])c([H])c(F)c([H])c5F)c([H])c4[H])c(C(=O)N([H])[H])c3N([H])[H])C2([H])[H])C([H])([H])C1([H])C([H])([H])[H]

>  <smiles>  (6) 
[H]C(C(=O)C([H])([H])Oc1c([H])c([H])c2c(c1[H])C([H])([H])N(C(=O)C([H])(N([H])C(=O)C([H])(N([H])C([H])([H])[H])C([H])([H])[H])C(C([H])([H])[H])(C([H])([H])[H])C([H])([H])[H])C([H])(C(=O)N([H])C1([H])c3c([H])c([H])c([H])c([H])c3C([H])([H])C([H])([H])C1([H])[H])C2([H])[H])=C([H])C([H])([H])C1([H])N(C(=O)N2C([H])([H])C([H])([H])C([H])([H])C([H])(n3nc(-c4c([H])c([H])c(Oc5c([H])c([H])c(F)c([H])c5F)c([H])c4[H])c(C(=O)N([H])[H])c3N([H])[H])C2([H])[H])C([H])([H])C1([H])C([H])([H])[H]

$$$$
6:0:0
     RDKit          3D

 91 99  0  0  1  0  0  0  0  0999 V2000
  -29.7320  -20.3180   21.6990 C   0  0  0  0  0  0  0  0  0  0  0  0
  -29.0650  -19.2290   20.8780 C   0  0  0  0  0  2  0  0  0  0  0  0
  -30.7300  -21.1140   20.8710 C   0  0  0  0  0  2  0  0  0  0  0  0
  -29.7830  -19.3460   19.5240 C   0  0  0  0  0  3  0  0  0  0  0  0
  -30.2710  -20.8700   19.4860 N   0  0  1  0  0  4  0  0  0  0  0  0
  -29.4860  -20.5250   22.8910 O   0  0  0  0  0  0  0  0  0  0  0  0
  -31.0850  -20.8930   18.8890 H   0  0  0  0  0  0  0  0  0  0  0  0
  -31.2870  -15.4720   19.4130 C   0  0  0  0  0  0  0  0  0  0  0  0
  -31.0680  -13.0760   18.6010 C   0  0  0  0  0  2  0  0  0  0  0  0
  -30.0220  -12.9670   17.4680 C   0  0  0  0  0  2  0  0  0  0  0  0
  -28.6080  -12.7840   18.0490 C   0  0  0  0  0  2  0  0  0  0  0  0
  -28.3140  -13.7720   19.2090 C   0  0  0  0  0  3  0  0  0  0  0  0
  -29.4710  -13.8430   20.2270 C   0  0  0  0  0  2  0  0  0  0  0  0
  -30.6750  -14.2190   19.4760 N   0  0  0  0  0  0  0  0  0  0  0  0
  -32.4670  -15.4780   19.0450 O   0  0  0  0  0  0  0  0  0  0  0  0
  -30.8480  -18.0660   19.4260 C   0  0  0  0  0  0  0  0  0  0  0  0
  -30.5230  -16.6760   19.5520 N   0  0  0  0  0  0  0  0  0  0  0  0
  -32.0180  -18.4040   19.2320 O   0  0  0  0  0  0  0  0  0  0  0  0
  -29.5520  -16.5040   19.7500 H   0  0  0  0  0  0  0  0  0  0  0  0
  -26.0800  -14.4180   20.2730 C   0  0  0  0  0  0  0  0  0  0  0  0
  -25.0220  -13.6760   20.7170 C   0  0  0  0  0  0  0  0  0  0  0  0
  -25.3950  -12.3080   20.5380 C   0  0  0  0  0  0  0  0  0  0  0  0
  -27.0300  -13.5060   19.8470 N   0  0  0  0  0  0  0  0  0  0  0  0
  -26.6350  -12.2260   20.0700 N   0  0  0  0  0  0  0  0  0  0  0  0
  -24.6180  -11.0760   20.7270 C   0  0  0  0  0  0  0  0  0  0  0  0
  -25.0210  -10.0820   21.6460 C   0  0  0  0  0  3  0  0  0  0  0  0
  -24.2450   -8.9160   21.8250 C   0  0  0  0  0  3  0  0  0  0  0  0
  -23.0520   -8.7370   21.0850 C   0  0  0  0  0  0  0  0  0  0  0  0
  -22.6680   -9.7190   20.1550 C   0  0  0  0  0  3  0  0  0  0  0  0
  -23.4450  -10.8760   19.9740 C   0  0  0  0  0  3  0  0  0  0  0  0
  -22.2500   -7.6260   21.1750 O   0  0  0  0  0  0  0  0  0  0  0  0
  -22.0510   -6.9740   22.3650 C   0  0  0  0  0  0  0  0  0  0  0  0
  -21.4440   -7.6100   23.4710 C   0  0  0  0  0  3  0  0  0  0  0  0
  -21.1960   -6.8830   24.6520 C   0  0  0  0  0  3  0  0  0  0  0  0
  -21.5460   -5.5220   24.7280 C   0  0  0  0  0  0  0  0  0  0  0  0
  -22.1460   -4.8860   23.6270 C   0  0  0  0  0  3  0  0  0  0  0  0
  -22.3960   -5.6100   22.4480 C   0  0  0  0  0  0  0  0  0  0  0  0
  -22.9540   -4.9870   21.3820 F   0  0  0  0  0  0  0  0  0  0  0  0
  -21.3010   -4.8210   25.8600 F   0  0  0  0  0  0  0  0  0  0  0  0
  -23.6980  -14.2060   21.1840 C   0  0  0  0  0  0  0  0  0  0  0  0
  -23.0440  -13.5000   22.0990 N   0  0  0  0  0  0  0  0  0  0  0  0
  -23.2600  -15.2790   20.7720 O   0  0  0  0  0  0  0  0  0  0  0  0
  -23.4160  -12.6300   22.4510 H   0  0  0  0  0  0  0  0  0  0  0  0
  -22.1590  -13.8340   22.4540 H   0  0  0  0  0  0  0  0  0  0  0  0
  -26.3010  -15.7890   20.1660 N   0  0  0  0  0  0  0  0  0  0  0  0
  -25.5670  -16.4550   20.3860 H   0  0  0  0  0  0  0  0  0  0  0  0
  -27.0730  -16.2050   19.6650 H   0  0  0  0  0  0  0  0  0  0  0  0
  -29.3360  -22.0840   19.0080 C   0  0  0  0  0  2  0  0  0  0  0  0
  -29.6000  -23.7400   19.3450 C   0  0  0  0  0  3  0  0  0  0  0  0
  -28.5210  -25.0230   19.0580 C   0  0  0  0  0  3  0  0  0  0  0  0
  -28.6390  -26.5380   19.4480 O   0  0  0  0  0  0  0  0  0  0  0  0
  -24.5630  -31.5180   23.0580 C   0  0  0  0  0  0  0  0  0  0  0  0
  -27.5000  -27.4300   19.4850 C   0  0  0  0  0  0  0  0  0  0  0  0
  -23.4610  -30.2000   21.2930 C   0  0  0  0  0  3  0  0  0  0  0  0
  -25.0170  -28.9440   19.6750 C   0  0  0  0  0  0  0  0  0  0  0  0
  -25.9730  -30.7300   21.1200 C   0  0  0  0  0  2  0  0  0  0  0  0
  -26.1630  -29.4320   20.3140 C   0  0  0  0  0  0  0  0  0  0  0  0
  -27.4030  -28.6930   20.2020 C   0  0  0  0  0  3  0  0  0  0  0  0
  -26.3170  -27.0530   18.8110 C   0  0  0  0  0  3  0  0  0  0  0  0
  -25.1050  -27.7730   18.9090 C   0  0  0  0  0  3  0  0  0  0  0  0
  -23.7090  -29.7040   19.8440 C   0  0  0  0  0  2  0  0  0  0  0  0
  -24.6850  -30.8340   21.8800 N   0  0  0  0  0  0  0  0  0  0  0  0
  -23.4690  -31.6350   23.6310 O   0  0  0  0  0  0  0  0  0  0  0  0
  -22.9070  -29.0320   22.1460 C   0  0  0  0  0  0  0  0  0  0  0  0
  -21.6220  -28.6870   21.9550 N   0  0  0  0  0  0  0  0  0  0  0  0
  -23.6390  -28.4390   22.9440 O   0  0  0  0  0  0  0  0  0  0  0  0
  -21.0780  -29.2260   21.2950 H   0  0  0  0  0  0  0  0  0  0  0  0
  -18.4420  -26.9680   22.2100 C   0  0  0  0  0  0  0  0  0  0  0  0
  -20.9200  -27.5840   22.6190 C   0  0  0  0  0  3  0  0  0  0  0  0
  -21.2590  -26.2290   21.9550 C   0  0  0  0  0  2  0  0  0  0  0  0
  -20.2570  -25.8240   20.8680 C   0  0  0  0  0  2  0  0  0  0  0  0
  -18.8460  -25.7150   21.4510 C   0  0  0  0  0  2  0  0  0  0  0  0
  -19.4160  -27.8530   22.7450 C   0  0  0  0  0  0  0  0  0  0  0  0
  -18.9860  -29.0200   23.4130 C   0  0  0  0  0  3  0  0  0  0  0  0
  -17.6150  -29.3070   23.5520 C   0  0  0  0  0  3  0  0  0  0  0  0
  -16.6550  -28.4200   23.0330 C   0  0  0  0  0  3  0  0  0  0  0  0
  -17.0700  -27.2520   22.3670 C   0  0  0  0  0  3  0  0  0  0  0  0
  -25.7890  -32.2050   23.7330 C   0  0  0  0  0  3  0  0  0  0  0  0
  -26.3050  -31.4340   25.0110 C   0  0  1  0  0  0  0  0  0  0  0  0
  -25.1920  -31.1100   26.0340 C   0  0  0  0  0  1  0  0  0  0  0  0
  -26.9790  -30.1010   24.6150 C   0  0  0  0  0  1  0  0  0  0  0  0
  -27.3860  -32.2770   25.7300 C   0  0  0  0  0  1  0  0  0  0  0  0
  -25.3970  -33.5770   24.0890 N   0  0  0  0  0  0  0  0  0  0  0  0
  -25.6790  -34.6670   23.3620 C   0  0  0  0  0  0  0  0  0  0  0  0
  -26.3620  -34.6240   22.3360 O   0  0  0  0  0  0  0  0  0  0  0  0
  -24.7850  -33.6810   24.8850 H   0  0  0  0  0  0  0  0  0  0  0  0
  -23.8430  -36.3620   23.0510 C   0  0  0  0  0  1  0  0  0  0  0  0
  -25.1130  -36.0160   23.8470 C   0  0  0  0  0  3  0  0  0  0  0  0
  -27.1800  -37.0270   24.7010 C   0  0  0  0  0  1  0  0  0  0  0  0
  -26.0800  -37.1310   23.7460 N   0  0  0  0  0  0  0  0  0  0  0  0
  -25.6160  -38.0250   23.8920 H   0  0  0  0  0  0  0  0  0  0  0  0
  1  6  2  0
  2  1  1  0
  3  1  1  0
  4 16  1  0
  4  2  1  0
  5  4  1  0
  5  3  1  0
  5  7  1  6
  8 14  1  0
  8 17  1  0
  9 14  1  0
 10 11  1  0
 10  9  1  0
 12 11  1  0
 12 23  1  0
 12 13  1  0
 14 13  1  0
 15  8  2  0
 16 17  1  0
 17 19  1  0
 18 16  2  0
 20 21  2  0
 21 40  1  0
 22 21  1  0
 22 25  1  0
 23 24  1  0
 23 20  1  0
 24 22  2  0
 25 26  1  0
 26 27  2  0
 28 31  1  0
 28 27  1  0
 29 28  2  0
 30 29  1  0
 30 25  2  0
 31 32  1  0
 32 37  2  0
 32 33  1  0
 33 34  2  0
 34 35  1  0
 35 39  1  0
 36 35  2  0
 37 36  1  0
 38 37  1  0
 40 41  1  0
 41 43  1  0
 41 44  1  0
 42 40  2  0
 45 20  1  0
 45 46  1  0
 47 45  1  0
 48 49  1  0
 48  5  1  0
 50 49  2  0
 50 51  1  0
 51 53  1  0
 52 63  2  0
 53 58  1  0
 54 62  1  0
 54 64  1  0
 55 61  1  0
 55 57  1  0
 56 62  1  0
 57 56  1  0
 58 57  2  0
 59 60  1  0
 59 53  2  0
 60 55  2  0
 61 54  1  0
 62 52  1  0
 64 66  2  0
 65 64  1  0
 67 65  1  0
 68 77  2  0
 68 73  1  0
 69 65  1  0
 69 73  1  0
 70 69  1  0
 71 72  1  0
 71 70  1  0
 72 68  1  0
 73 74  2  0
 74 75  1  0
 76 75  2  0
 77 76  1  0
 78 52  1  0
 78 83  1  0
 78 79  1  0
 79 82  1  1
 79 80  1  0
 81 79  1  0
 83 86  1  0
 84 88  1  0
 84 83  1  0
 85 84  2  0
 88 87  1  0
 90 88  1  0
 90 91  1  0
 90 89  1  0
M  ISO  4   8 100  17 100  50 101  51 101
M  END
>  <TORSDO>  (7) 
F 19

>  <SCORE>  (7) 
-11.504

>  <name>  (7) 
6

>  <ligand_id>  (7) 
6

>  <original_smiles>  (7) 
[H]c1c([H])c([H])c2c(c1[H])C([H])([H])C([H])([H])C([H])([H])C2([H])N([H])C(=O)C1([H])N(C(=O)C([H])(N([H])C(=O)C([H])(N([H])C([H])([H])[H])C([H])([H])[H])C(C([H])([H])[H])(C([H])([H])[H])C([H])([H])[H])C([H])([H])c2c([H])c(OC([H])([H])C([H])([H])C([H])([H])[N+]3([H])C([H])([H])C(=O)C([H])([H])C3([H])C(=O)N([H])C(=O)N3C([H])([H])C([H])([H])C([H])([H])C([H])(n4nc(-c5c([H])c([H])c(Oc6c([H])c([H])c(F)c([H])c6F)c([H])c5[H])c(C(=O)N([H])[H])c4N([H])[H])C3([H])[H])c([H])c([H])c2C1([H])[H]

>  <smiles>  (7) 
[H]c1c([H])c([H])c2c(c1[H])C([H])([H])C([H])([H])C([H])([H])C2([H])N([H])C(=O)C1([H])N(C(=O)C([H])(N([H])C(=O)C([H])(N([H])C([H])([H])[H])C([H])([H])[H])C(C([H])([H])[H])(C([H])([H])[H])C([H])([H])[H])C([H])([H])c2c([H])c(OC([H])([H])C([H])([H])C([H])([H])[N+]3([H])C([H])([H])C(=O)C([H])([H])C3([H])C(=O)N([H])C(=O)N3C([H])([H])C([H])([H])C([H])([H])C([H])(n4nc(-c5c([H])c([H])c(Oc6c([H])c([H])c(F)c([H])c6F)c([H])c5[H])c(C(=O)N([H])[H])c4N([H])[H])C3([H])[H])c([H])c([H])c2C1([H])[H]

$$$$
7:0:0
     RDKit          3D

 92100  0  0  1  0  0  0  0  0999 V2000
  -29.8130  -18.9370   19.7340 C   0  0  0  0  0  3  0  0  0  0  0  0
  -28.2880  -18.7580   19.5760 C   0  0  0  0  0  3  0  0  0  0  0  0
  -29.5680  -20.3990   18.9400 C   0  0  0  0  0  3  0  0  0  0  0  0
  -27.4030  -18.3760   20.7730 C   0  0  0  0  0  1  0  0  0  0  0  0
  -28.1390  -20.1740   19.2070 N   0  0  0  0  0  4  0  0  0  0  0  0
  -27.7970  -20.7300   19.9800 H   0  0  0  0  0  0  0  0  0  0  0  0
  -27.5540  -20.3040   18.3940 H   0  0  0  0  0  0  0  0  0  0  0  0
  -31.4070  -22.3010   18.7350 C   0  0  0  0  0  1  0  0  0  0  0  0
  -29.9990  -21.9860   19.3160 C   0  0  0  0  0  3  0  0  0  0  0  0
  -27.9020  -23.0860   18.0410 C   0  0  0  0  0  1  0  0  0  0  0  0
  -28.9680  -23.3300   19.1450 C   0  0  0  0  0  3  0  0  0  0  0  0
  -29.4700  -24.9290   19.0370 C   0  0  0  0  0  2  0  0  0  0  0  0
  -29.1290  -26.1750   19.8800 O   0  0  0  0  0  0  0  0  0  0  0  0
  -24.8330  -31.2040   22.9900 C   0  0  0  0  0  0  0  0  0  0  0  0
  -28.0040  -27.0480   19.7460 C   0  0  0  0  0  0  0  0  0  0  0  0
  -23.8860  -29.8960   21.1300 C   0  0  0  0  0  3  0  0  0  0  0  0
  -25.5610  -28.5950   19.6800 C   0  0  0  0  0  0  0  0  0  0  0  0
  -26.4100  -30.3670   21.2140 C   0  0  0  0  0  2  0  0  0  0  0  0
  -26.6420  -29.0620   20.4350 C   0  0  0  0  0  0  0  0  0  0  0  0
  -27.8600  -28.3000   20.4610 C   0  0  0  0  0  3  0  0  0  0  0  0
  -26.9100  -26.6830   18.9410 C   0  0  0  0  0  3  0  0  0  0  0  0
  -25.7060  -27.4200   18.9230 C   0  0  0  0  0  3  0  0  0  0  0  0
  -24.2680  -29.3860   19.7120 C   0  0  0  0  0  2  0  0  0  0  0  0
  -25.0580  -30.5070   21.8350 N   0  0  0  0  0  0  0  0  0  0  0  0
  -23.6900  -31.3540   23.4450 O   0  0  0  0  0  0  0  0  0  0  0  0
  -23.2270  -28.7450   21.9260 C   0  0  0  0  0  0  0  0  0  0  0  0
  -21.9150  -28.5400   21.7240 N   0  0  0  0  0  0  0  0  0  0  0  0
  -23.8970  -28.0470   22.6920 O   0  0  0  0  0  0  0  0  0  0  0  0
  -21.4350  -29.1480   21.0750 H   0  0  0  0  0  0  0  0  0  0  0  0
  -18.5510  -27.2300   22.0110 C   0  0  0  0  0  0  0  0  0  0  0  0
  -21.1030  -27.4850   22.3370 C   0  0  0  0  0  3  0  0  0  0  0  0
  -21.2330  -26.1600   21.5510 C   0  0  0  0  0  2  0  0  0  0  0  0
  -20.1410  -25.9820   20.4900 C   0  0  0  0  0  2  0  0  0  0  0  0
  -18.7520  -26.0060   21.1340 C   0  0  0  0  0  2  0  0  0  0  0  0
  -19.6540  -27.9350   22.5620 C   0  0  0  0  0  0  0  0  0  0  0  0
  -19.4090  -29.0870   23.3410 C   0  0  0  0  0  3  0  0  0  0  0  0
  -18.0960  -29.5350   23.5710 C   0  0  0  0  0  3  0  0  0  0  0  0
  -17.0070  -28.8250   23.0360 C   0  0  0  0  0  3  0  0  0  0  0  0
  -17.2360  -27.6730   22.2630 C   0  0  0  0  0  3  0  0  0  0  0  0
  -26.0030  -31.8650   23.7830 C   0  0  0  0  0  3  0  0  0  0  0  0
  -26.3970  -31.0630   25.0830 C   0  0  1  0  0  0  0  0  0  0  0  0
  -25.2010  -30.7600   26.0170 C   0  0  0  0  0  1  0  0  0  0  0  0
  -27.0610  -29.7170   24.7180 C   0  0  0  0  0  1  0  0  0  0  0  0
  -27.4490  -31.8640   25.8880 C   0  0  0  0  0  1  0  0  0  0  0  0
  -25.5880  -33.2320   24.1320 N   0  0  0  0  0  0  0  0  0  0  0  0
  -25.9540  -34.3350   23.4650 C   0  0  0  0  0  0  0  0  0  0  0  0
  -26.7430  -34.3070   22.5170 O   0  0  0  0  0  0  0  0  0  0  0  0
  -24.8930  -33.3220   24.8600 H   0  0  0  0  0  0  0  0  0  0  0  0
  -24.1860  -36.0580   23.0000 C   0  0  0  0  0  1  0  0  0  0  0  0
  -25.3540  -35.6780   23.9210 C   0  0  0  0  0  3  0  0  0  0  0  0
  -27.3310  -36.6340   25.0210 C   0  0  0  0  0  1  0  0  0  0  0  0
  -26.3390  -36.7820   23.9590 N   0  0  0  0  0  0  0  0  0  0  0  0
  -25.8720  -37.6770   24.0820 H   0  0  0  0  0  0  0  0  0  0  0  0
  -30.8000  -17.6190   19.4110 C   0  0  0  0  0  2  0  0  0  0  0  0
  -31.5510  -15.0340   20.0430 C   0  0  0  0  0  0  0  0  0  0  0  0
  -31.4940  -12.5590   19.4800 C   0  0  0  0  0  2  0  0  0  0  0  0
  -30.5930  -12.3530   18.2400 C   0  0  0  0  0  2  0  0  0  0  0  0
  -29.1240  -12.1840   18.6770 C   0  0  0  0  0  2  0  0  0  0  0  0
  -28.6920  -13.2800   19.6910 C   0  0  0  0  0  3  0  0  0  0  0  0
  -29.7150  -13.4470   20.8370 C   0  0  0  0  0  2  0  0  0  0  0  0
  -31.0000  -13.7640   20.2080 N   0  0  0  0  0  0  0  0  0  0  0  0
  -32.7310  -15.0920   19.6810 O   0  0  0  0  0  0  0  0  0  0  0  0
  -30.7200  -16.1870   20.0860 N   0  0  0  0  0  0  0  0  0  0  0  0
  -29.8080  -15.9930   20.4710 H   0  0  0  0  0  0  0  0  0  0  0  0
  -26.3660  -13.9880   20.4970 C   0  0  0  0  0  0  0  0  0  0  0  0
  -25.2590  -13.2740   20.8640 C   0  0  0  0  0  0  0  0  0  0  0  0
  -25.6340  -11.8980   20.7740 C   0  0  0  0  0  0  0  0  0  0  0  0
  -27.3440  -13.0560   20.2000 N   0  0  0  0  0  0  0  0  0  0  0  0
  -26.9110  -11.7900   20.4310 N   0  0  0  0  0  0  0  0  0  0  0  0
  -24.8300  -10.6780   20.9300 C   0  0  0  0  0  0  0  0  0  0  0  0
  -25.1370   -9.7070   21.9080 C   0  0  0  0  0  3  0  0  0  0  0  0
  -24.3330   -8.5580   22.0530 C   0  0  0  0  0  3  0  0  0  0  0  0
  -23.2110   -8.3650   21.2110 C   0  0  0  0  0  0  0  0  0  0  0  0
  -22.9280   -9.3190   20.2220 C   0  0  0  0  0  3  0  0  0  0  0  0
  -23.7330  -10.4610   20.0730 C   0  0  0  0  0  3  0  0  0  0  0  0
  -22.3920   -7.2610   21.2560 O   0  0  0  0  0  0  0  0  0  0  0  0
  -22.0630   -6.6550   22.4430 C   0  0  0  0  0  0  0  0  0  0  0  0
  -21.3760   -7.3420   23.4650 C   0  0  0  0  0  3  0  0  0  0  0  0
  -21.0000   -6.6610   24.6410 C   0  0  0  0  0  3  0  0  0  0  0  0
  -21.3030   -5.2970   24.7910 C   0  0  0  0  0  0  0  0  0  0  0  0
  -21.9860   -4.6080   23.7730 C   0  0  0  0  0  3  0  0  0  0  0  0
  -22.3590   -5.2850   22.5980 C   0  0  0  0  0  0  0  0  0  0  0  0
  -23.0000   -4.6160   21.6100 F   0  0  0  0  0  0  0  0  0  0  0  0
  -20.9330   -4.6370   25.9160 F   0  0  0  0  0  0  0  0  0  0  0  0
  -23.9040  -13.8290   21.1820 C   0  0  0  0  0  0  0  0  0  0  0  0
  -23.1720  -13.1760   22.0800 N   0  0  0  0  0  0  0  0  0  0  0  0
  -23.5080  -14.8760   20.6740 O   0  0  0  0  0  0  0  0  0  0  0  0
  -23.5080  -12.3280   22.5150 H   0  0  0  0  0  0  0  0  0  0  0  0
  -22.2680  -13.5400   22.3410 H   0  0  0  0  0  0  0  0  0  0  0  0
  -26.6130  -15.3510   20.3660 N   0  0  0  0  0  0  0  0  0  0  0  0
  -25.8750  -16.0350   20.4750 H   0  0  0  0  0  0  0  0  0  0  0  0
  -27.4430  -15.7350   19.9330 H   0  0  0  0  0  0  0  0  0  0  0  0
  1 54  1  0
  2  1  1  0
  2  4  1  0
  3  5  1  0
  3  9  1  0
  3  1  1  0
  5  2  1  0
  5  6  1  0
  7  5  1  0
  9  8  1  0
 11 10  1  0
 11  9  1  0
 12 11  1  0
 12 13  1  0
 14 25  2  0
 15 13  1  0
 15 20  1  0
 16 24  1  0
 16 26  1  0
 17 23  1  0
 17 19  1  0
 18 24  1  0
 19 20  2  0
 19 18  1  0
 21 15  2  0
 22 21  1  0
 22 17  2  0
 23 16  1  0
 24 14  1  0
 26 28  2  0
 27 26  1  0
 29 27  1  0
 30 39  2  0
 30 35  1  0
 31 27  1  0
 31 35  1  0
 32 31  1  0
 33 34  1  0
 33 32  1  0
 34 30  1  0
 35 36  2  0
 36 37  1  0
 38 37  2  0
 39 38  1  0
 40 14  1  0
 40 45  1  0
 40 41  1  0
 41 44  1  1
 41 42  1  0
 43 41  1  0
 45 48  1  0
 46 50  1  0
 46 45  1  0
 47 46  2  0
 50 49  1  0
 50 52  1  0
 52 53  1  0
 52 51  1  0
 54 63  1  0
 55 63  1  0
 55 61  1  0
 56 61  1  0
 57 58  1  0
 57 56  1  0
 59 58  1  0
 59 68  1  0
 59 60  1  0
 61 60  1  0
 62 55  2  0
 63 64  1  0
 65 66  2  0
 66 85  1  0
 67 66  1  0
 67 70  1  0
 68 69  1  0
 68 65  1  0
 69 67  2  0
 70 71  1  0
 71 72  2  0
 73 76  1  0
 73 72  1  0
 74 73  2  0
 75 74  1  0
 75 70  2  0
 76 77  1  0
 77 82  2  0
 77 78  1  0
 78 79  2  0
 79 80  1  0
 80 84  1  0
 81 80  2  0
 82 81  1  0
 83 82  1  0
 85 86  1  0
 86 89  1  0
 86 88  1  0
 87 85  2  0
 90 91  1  0
 90 65  1  0
 92 90  1  0
M  ISO  4  12 101  13 101  55 100  63 100
M  END
>  <TORSDO>  (8) 
F 20

>  <SCORE>  (8) 
-10.584

>  <name>  (8) 
7

>  <ligand_id>  (8) 
7

>  <original_smiles>  (8) 
[H]c1c([H])c([H])c2c(c1[H])C([H])([H])C([H])([H])C([H])([H])C2([H])N([H])C(=O)C1([H])N(C(=O)C([H])(N([H])C(=O)C([H])(N([H])C([H])([H])[H])C([H])([H])[H])C(C([H])([H])[H])(C([H])([H])[H])C([H])([H])[H])C([H])([H])c2c([H])c(OC([H])([H])C([H])(C([H])([H])[H])C([H])(C([H])([H])[H])C3([H])C([H])(C([H])([H])N([H])C(=O)N4C([H])([H])C([H])([H])C([H])([H])C([H])(n5nc(-c6c([H])c([H])c(Oc7c([H])c([H])c(F)c([H])c7F)c([H])c6[H])c(C(=O)N([H])[H])c5N([H])[H])C4([H])[H])C([H])(C([H])([H])[H])[N+]3([H])[H])c([H])c([H])c2C1([H])[H]

>  <smiles>  (8) 
[H]c1c([H])c([H])c2c(c1[H])C([H])([H])C([H])([H])C([H])([H])C2([H])N([H])C(=O)C1([H])N(C(=O)C([H])(N([H])C(=O)C([H])(N([H])C([H])([H])[H])C([H])([H])[H])C(C([H])([H])[H])(C([H])([H])[H])C([H])([H])[H])C([H])([H])c2c([H])c(OC([H])([H])C([H])(C([H])([H])[H])C([H])(C([H])([H])[H])C3([H])C([H])(C([H])([H])N([H])C(=O)N4C([H])([H])C([H])([H])C([H])([H])C([H])(n5nc(-c6c([H])c([H])c(Oc7c([H])c([H])c(F)c([H])c7F)c([H])c6[H])c(C(=O)N([H])[H])c5N([H])[H])C4([H])[H])C([H])(C([H])([H])[H])[N+]3([H])[H])c([H])c([H])c2C1([H])[H]

$$$$
8:0:0
     RDKit          3D

 88 96  0  0  1  0  0  0  0  0999 V2000
  -28.5850  -21.8410   21.9850 C   0  0  0  0  0  2  0  0  0  0  0  0
  -29.2160  -20.4160   21.9950 C   0  0  0  0  0  2  0  0  0  0  0  0
  -29.5730  -21.3330   19.8340 C   0  0  0  0  0  2  0  0  0  0  0  0
  -28.6940  -22.4220   20.5460 C   0  0  0  0  0  3  0  0  0  0  0  0
  -29.2710  -19.9540   20.5230 C   0  0  0  0  0  3  0  0  0  0  0  0
  -31.6050  -18.7570   20.8220 C   0  0  0  0  0  1  0  0  0  0  0  0
  -30.2240  -18.7210   20.1420 C   0  0  0  0  0  3  0  0  0  0  0  0
  -29.6180  -17.2450   19.9970 C   0  0  0  0  0  2  0  0  0  0  0  0
  -30.0090  -16.0080   20.9310 C   0  0  0  0  0  2  0  0  0  0  0  0
  -30.6740  -14.7390   20.2550 C   0  0  0  0  0  0  0  0  0  0  0  0
  -30.4420  -12.5300   19.1200 C   0  0  0  0  0  2  0  0  0  0  0  0
  -29.4680  -12.6610   17.9280 C   0  0  0  0  0  2  0  0  0  0  0  0
  -28.0000  -12.5020   18.3810 C   0  0  0  0  0  2  0  0  0  0  0  0
  -27.6720  -13.3530   19.6370 C   0  0  0  0  0  3  0  0  0  0  0  0
  -28.7470  -13.1520   20.7240 C   0  0  0  0  0  2  0  0  0  0  0  0
  -30.0450  -13.5240   20.1430 N   0  0  0  0  0  0  0  0  0  0  0  0
  -31.7920  -14.8990   19.7570 O   0  0  0  0  0  0  0  0  0  0  0  0
  -25.2790  -13.9550   20.3670 C   0  0  0  0  0  0  0  0  0  0  0  0
  -24.2200  -13.1810   20.7550 C   0  0  0  0  0  0  0  0  0  0  0  0
  -24.6880  -11.8310   20.7330 C   0  0  0  0  0  0  0  0  0  0  0  0
  -26.3270  -13.0780   20.1360 N   0  0  0  0  0  0  0  0  0  0  0  0
  -25.9770  -11.7980   20.4160 N   0  0  0  0  0  0  0  0  0  0  0  0
  -23.9720  -10.5670   20.9430 C   0  0  0  0  0  0  0  0  0  0  0  0
  -24.4180   -9.6090   21.8820 C   0  0  0  0  0  3  0  0  0  0  0  0
  -23.7030   -8.4100   22.0810 C   0  0  0  0  0  3  0  0  0  0  0  0
  -22.5230   -8.1560   21.3400 C   0  0  0  0  0  0  0  0  0  0  0  0
  -22.0950   -9.1010   20.3900 C   0  0  0  0  0  3  0  0  0  0  0  0
  -22.8130  -10.2900   20.1890 C   0  0  0  0  0  3  0  0  0  0  0  0
  -21.7750   -7.0090   21.4450 O   0  0  0  0  0  0  0  0  0  0  0  0
  -21.7400   -6.2760   22.6040 C   0  0  0  0  0  0  0  0  0  0  0  0
  -21.3260   -6.8440   23.8290 C   0  0  0  0  0  3  0  0  0  0  0  0
  -21.2400   -6.0400   24.9850 C   0  0  0  0  0  3  0  0  0  0  0  0
  -21.5550   -4.6710   24.9140 C   0  0  0  0  0  0  0  0  0  0  0  0
  -21.9620   -4.1030   23.6940 C   0  0  0  0  0  3  0  0  0  0  0  0
  -22.0520   -4.9040   22.5410 C   0  0  0  0  0  0  0  0  0  0  0  0
  -22.4240   -4.3480   21.3630 F   0  0  0  0  0  0  0  0  0  0  0  0
  -21.4650   -3.8950   26.0200 F   0  0  0  0  0  0  0  0  0  0  0  0
  -22.8200  -13.6520   21.0330 C   0  0  0  0  0  0  0  0  0  0  0  0
  -22.1030  -12.9650   21.9130 N   0  0  0  0  0  0  0  0  0  0  0  0
  -22.3720  -14.6660   20.5000 O   0  0  0  0  0  0  0  0  0  0  0  0
  -22.4780  -12.1460   22.3700 H   0  0  0  0  0  0  0  0  0  0  0  0
  -21.1630  -13.2620   22.1360 H   0  0  0  0  0  0  0  0  0  0  0  0
  -25.4330  -15.3260   20.1720 N   0  0  0  0  0  0  0  0  0  0  0  0
  -24.6640  -15.9810   20.2840 H   0  0  0  0  0  0  0  0  0  0  0  0
  -26.2830  -15.7670   19.8440 H   0  0  0  0  0  0  0  0  0  0  0  0
  -29.1120  -23.9660   20.3680 C   0  0  0  0  0  3  0  0  0  0  0  0
  -28.0140  -25.0990   20.6040 C   0  0  0  0  0  3  0  0  0  0  0  0
  -28.3050  -26.5210   20.2440 O   0  0  0  0  0  0  0  0  0  0  0  0
  -24.6180  -31.9590   23.2390 C   0  0  0  0  0  0  0  0  0  0  0  0
  -27.2090  -27.3990   20.1760 C   0  0  0  0  0  0  0  0  0  0  0  0
  -23.4080  -30.5590   21.6000 C   0  0  0  0  0  3  0  0  0  0  0  0
  -24.8550  -29.0230   20.1580 C   0  0  0  0  0  0  0  0  0  0  0  0
  -25.9470  -30.8810   21.4150 C   0  0  0  0  0  2  0  0  0  0  0  0
  -26.0270  -29.5070   20.7590 C   0  0  0  0  0  0  0  0  0  0  0  0
  -27.2110  -28.7040   20.7600 C   0  0  0  0  0  3  0  0  0  0  0  0
  -26.0240  -26.9870   19.5250 C   0  0  0  0  0  3  0  0  0  0  0  0
  -24.8550  -27.7710   19.5290 C   0  0  0  0  0  3  0  0  0  0  0  0
  -23.6190  -29.8970   20.2130 C   0  0  0  0  0  2  0  0  0  0  0  0
  -24.6750  -31.1530   22.1390 N   0  0  0  0  0  0  0  0  0  0  0  0
  -23.5360  -32.2320   23.7820 O   0  0  0  0  0  0  0  0  0  0  0  0
  -22.7580  -29.5360   22.5610 C   0  0  0  0  0  0  0  0  0  0  0  0
  -21.4320  -29.3460   22.4400 N   0  0  0  0  0  0  0  0  0  0  0  0
  -23.4420  -28.9110   23.3780 O   0  0  0  0  0  0  0  0  0  0  0  0
  -20.9370  -29.9110   21.7650 H   0  0  0  0  0  0  0  0  0  0  0  0
  -18.0680  -28.1080   22.9370 C   0  0  0  0  0  0  0  0  0  0  0  0
  -20.6220  -28.4030   23.2120 C   0  0  0  0  0  3  0  0  0  0  0  0
  -20.7420  -26.9660   22.6500 C   0  0  0  0  0  2  0  0  0  0  0  0
  -19.6490  -26.6240   21.6320 C   0  0  0  0  0  2  0  0  0  0  0  0
  -18.2630  -26.7550   22.2710 C   0  0  0  0  0  2  0  0  0  0  0  0
  -19.1750  -28.8890   23.3620 C   0  0  0  0  0  0  0  0  0  0  0  0
  -18.9380  -30.1540   23.9430 C   0  0  0  0  0  3  0  0  0  0  0  0
  -17.6260  -30.6370   24.1070 C   0  0  0  0  0  3  0  0  0  0  0  0
  -16.5330  -29.8550   23.6960 C   0  0  0  0  0  3  0  0  0  0  0  0
  -16.7560  -28.5940   23.1140 C   0  0  0  0  0  3  0  0  0  0  0  0
  -25.9040  -32.5940   23.8510 C   0  0  0  0  0  3  0  0  0  0  0  0
  -25.5920  -33.9910   24.1810 N   0  0  0  0  0  0  0  0  0  0  0  0
  -25.9190  -35.0460   23.4210 C   0  0  0  0  0  0  0  0  0  0  0  0
  -26.5890  -34.9460   22.3900 O   0  0  0  0  0  0  0  0  0  0  0  0
  -24.9940  -34.1420   24.9810 H   0  0  0  0  0  0  0  0  0  0  0  0
  -24.1900  -36.8440   23.0770 C   0  0  0  0  0  1  0  0  0  0  0  0
  -25.4300  -36.4310   23.8850 C   0  0  0  0  0  3  0  0  0  0  0  0
  -27.5650  -37.3170   24.7190 C   0  0  0  0  0  1  0  0  0  0  0  0
  -26.4620  -37.4870   23.7780 N   0  0  0  0  0  0  0  0  0  0  0  0
  -26.0520  -38.4030   23.9370 H   0  0  0  0  0  0  0  0  0  0  0  0
  -26.4290  -31.8290   25.1280 C   0  0  1  0  0  0  0  0  0  0  0  0
  -25.3450  -31.5960   26.2060 C   0  0  0  0  0  1  0  0  0  0  0  0
  -27.0170  -30.4500   24.7460 C   0  0  0  0  0  1  0  0  0  0  0  0
  -27.5760  -32.6330   25.7860 C   0  0  0  0  0  1  0  0  0  0  0  0
  1  2  1  0
  3  5  1  0
  3  4  1  0
  4 46  1  0
  4  1  1  0
  5  7  1  0
  5  2  1  0
  7  6  1  0
  8  7  1  0
  8  9  1  0
 10  9  1  0
 11 16  1  0
 12 13  1  0
 12 11  1  0
 14 13  1  0
 14 21  1  0
 14 15  1  0
 16 10  1  0
 16 15  1  0
 17 10  2  0
 18 19  2  0
 19 38  1  0
 20 19  1  0
 20 23  1  0
 21 18  1  0
 21 22  1  0
 22 20  2  0
 23 24  1  0
 24 25  2  0
 26 29  1  0
 26 25  1  0
 27 26  2  0
 28 27  1  0
 28 23  2  0
 29 30  1  0
 30 31  1  0
 31 32  2  0
 33 32  1  0
 33 37  1  0
 34 33  2  0
 35 30  2  0
 35 34  1  0
 36 35  1  0
 38 39  1  0
 39 42  1  0
 39 41  1  0
 40 38  2  0
 43 44  1  0
 43 18  1  0
 45 43  1  0
 46 47  2  0
 48 47  1  0
 49 60  2  0
 50 48  1  0
 50 55  1  0
 51 59  1  0
 51 61  1  0
 52 58  1  0
 52 54  1  0
 53 59  1  0
 54 55  2  0
 54 53  1  0
 56 57  1  0
 56 50  2  0
 57 52  2  0
 58 51  1  0
 59 49  1  0
 61 63  2  0
 62 61  1  0
 64 62  1  0
 65 74  2  0
 65 70  1  0
 66 62  1  0
 66 70  1  0
 67 66  1  0
 68 69  1  0
 68 67  1  0
 69 65  1  0
 70 71  2  0
 71 72  1  0
 73 72  2  0
 74 73  1  0
 75 49  1  0
 75 76  1  0
 75 85  1  0
 76 79  1  0
 77 81  1  0
 77 76  1  0
 78 77  2  0
 81 80  1  0
 83 81  1  0
 83 84  1  0
 83 82  1  0
 85 88  1  1
 85 86  1  0
 87 85  1  0
M  ISO  4   9 100  10 100  47 101  48 101
M  END
>  <TORSDO>  (9) 
F 21

>  <SCORE>  (9) 
-12.901

>  <name>  (9) 
8

>  <ligand_id>  (9) 
8

>  <original_smiles>  (9) 
[H]c1c([H])c([H])c2c(c1[H])C([H])([H])C([H])([H])C([H])([H])C2([H])N([H])C(=O)C1([H])N(C(=O)C([H])(N([H])C(=O)C([H])(N([H])C([H])([H])[H])C([H])([H])[H])C(C([H])([H])[H])(C([H])([H])[H])C([H])([H])[H])C([H])([H])c2c([H])c(OC([H])([H])C([H])([H])C3([H])C([H])([H])C([H])([H])C([H])(C([H])(C([H])([H])[H])C([H])([H])C([H])([H])C(=O)N4C([H])([H])C([H])([H])C([H])([H])C([H])(n5nc(-c6c([H])c([H])c(Oc7c([H])c([H])c(F)c([H])c7F)c([H])c6[H])c(C(=O)N([H])[H])c5N([H])[H])C4([H])[H])C3([H])[H])c([H])c([H])c2C1([H])[H]

>  <smiles>  (9) 
[H]c1c([H])c([H])c2c(c1[H])C([H])([H])C([H])([H])C([H])([H])C2([H])N([H])C(=O)C1([H])N(C(=O)C([H])(N([H])C(=O)C([H])(N([H])C([H])([H])[H])C([H])([H])[H])C(C([H])([H])[H])(C([H])([H])[H])C([H])([H])[H])C([H])([H])c2c([H])c(OC([H])([H])C([H])([H])C3([H])C([H])([H])C([H])([H])C([H])(C([H])(C([H])([H])[H])C([H])([H])C([H])([H])C(=O)N4C([H])([H])C([H])([H])C([H])([H])C([H])(n5nc(-c6c([H])c([H])c(Oc7c([H])c([H])c(F)c([H])c7F)c([H])c6[H])c(C(=O)N([H])[H])c5N([H])[H])C4([H])[H])C3([H])[H])c([H])c([H])c2C1([H])[H]

$$$$
9:0:0
     RDKit          3D

 90 98  0  0  1  0  0  0  0  0999 V2000
  -28.2750  -21.9450   20.6870 C   0  0  0  0  0  3  0  0  0  0  0  0
  -30.6330  -21.9090   20.2220 C   0  0  0  0  0  3  0  0  0  0  0  0
  -28.3010  -20.5300   20.8580 C   0  0  0  0  0  3  0  0  0  0  0  0
  -30.6620  -20.4940   20.3950 C   0  0  0  0  0  3  0  0  0  0  0  0
  -29.4490  -22.6790   20.3770 C   0  0  0  0  0  0  0  0  0  0  0  0
  -29.4940  -19.7640   20.7320 C   0  0  0  0  0  0  0  0  0  0  0  0
  -29.5130  -24.2470   20.2880 C   0  0  0  0  0  3  0  0  0  0  0  0
  -28.2150  -25.1110   20.0300 C   0  0  0  0  0  3  0  0  0  0  0  0
  -28.3700  -26.5720   20.1410 O   0  0  0  0  0  0  0  0  0  0  0  0
  -24.6020  -31.8830   23.2290 C   0  0  0  0  0  0  0  0  0  0  0  0
  -27.2190  -27.3710   20.1260 C   0  0  0  0  0  0  0  0  0  0  0  0
  -23.3900  -30.4850   21.5940 C   0  0  0  0  0  3  0  0  0  0  0  0
  -24.8320  -28.9430   20.1560 C   0  0  0  0  0  0  0  0  0  0  0  0
  -25.9230  -30.8210   21.3860 C   0  0  0  0  0  2  0  0  0  0  0  0
  -26.0030  -29.4460   20.7360 C   0  0  0  0  0  0  0  0  0  0  0  0
  -27.1990  -28.6740   20.7070 C   0  0  0  0  0  3  0  0  0  0  0  0
  -26.0190  -26.9080   19.5380 C   0  0  0  0  0  3  0  0  0  0  0  0
  -24.8410  -27.6770   19.5500 C   0  0  0  0  0  3  0  0  0  0  0  0
  -23.5910  -29.8090   20.2130 C   0  0  0  0  0  2  0  0  0  0  0  0
  -24.6580  -31.0790   22.1270 N   0  0  0  0  0  0  0  0  0  0  0  0
  -23.5230  -32.1550   23.7730 O   0  0  0  0  0  0  0  0  0  0  0  0
  -22.7380  -29.4660   22.5570 C   0  0  0  0  0  0  0  0  0  0  0  0
  -21.4130  -29.2810   22.4320 N   0  0  0  0  0  0  0  0  0  0  0  0
  -23.4230  -28.8440   23.3730 O   0  0  0  0  0  0  0  0  0  0  0  0
  -20.9200  -29.8290   21.7410 H   0  0  0  0  0  0  0  0  0  0  0  0
  -18.0440  -28.0710   22.9420 C   0  0  0  0  0  0  0  0  0  0  0  0
  -20.6010  -28.3430   23.2080 C   0  0  0  0  0  3  0  0  0  0  0  0
  -20.7080  -26.9100   22.6350 C   0  0  0  0  0  2  0  0  0  0  0  0
  -19.6060  -26.5800   21.6230 C   0  0  0  0  0  2  0  0  0  0  0  0
  -18.2250  -26.7210   22.2690 C   0  0  0  0  0  2  0  0  0  0  0  0
  -19.1600  -28.8390   23.3690 C   0  0  0  0  0  0  0  0  0  0  0  0
  -18.9370  -30.1020   23.9580 C   0  0  0  0  0  3  0  0  0  0  0  0
  -17.6300  -30.5980   24.1260 C   0  0  0  0  0  3  0  0  0  0  0  0
  -16.5280  -29.8280   23.7170 C   0  0  0  0  0  3  0  0  0  0  0  0
  -16.7370  -28.5660   23.1310 C   0  0  0  0  0  3  0  0  0  0  0  0
  -25.8890  -32.5160   23.8430 C   0  0  0  0  0  3  0  0  0  0  0  0
  -26.4150  -31.7430   25.1140 C   0  0  1  0  0  0  0  0  0  0  0  0
  -25.3290  -31.5020   26.1900 C   0  0  0  0  0  1  0  0  0  0  0  0
  -26.9960  -30.3670   24.7150 C   0  0  0  0  0  1  0  0  0  0  0  0
  -27.5690  -32.5380   25.7700 C   0  0  0  0  0  1  0  0  0  0  0  0
  -25.5780  -33.9120   24.1770 N   0  0  0  0  0  0  0  0  0  0  0  0
  -25.9080  -34.9680   23.4210 C   0  0  0  0  0  0  0  0  0  0  0  0
  -26.5740  -34.8690   22.3870 O   0  0  0  0  0  0  0  0  0  0  0  0
  -24.9810  -34.0610   24.9770 H   0  0  0  0  0  0  0  0  0  0  0  0
  -24.1750  -36.7600   23.0790 C   0  0  0  0  0  1  0  0  0  0  0  0
  -25.4200  -36.3540   23.8850 C   0  0  0  0  0  3  0  0  0  0  0  0
  -27.5580  -37.2360   24.7100 C   0  0  0  0  0  1  0  0  0  0  0  0
  -26.4510  -37.4100   23.7720 N   0  0  0  0  0  0  0  0  0  0  0  0
  -26.0450  -38.3290   23.9280 H   0  0  0  0  0  0  0  0  0  0  0  0
  -29.5140  -18.2370   21.1070 C   0  0  0  0  0  2  0  0  0  0  0  0
  -29.5710  -17.3050   18.7050 C   0  0  0  0  0  1  0  0  0  0  0  0
  -30.1260  -17.1460   20.1320 C   0  0  0  0  0  3  0  0  0  0  0  0
  -30.6800  -14.6330   20.2420 C   0  0  0  0  0  0  0  0  0  0  0  0
  -30.3970  -12.4360   19.1410 C   0  0  0  0  0  2  0  0  0  0  0  0
  -29.4350  -12.6230   17.9480 C   0  0  0  0  0  2  0  0  0  0  0  0
  -27.9670  -12.4790   18.3970 C   0  0  0  0  0  2  0  0  0  0  0  0
  -27.6480  -13.3090   19.6680 C   0  0  0  0  0  3  0  0  0  0  0  0
  -28.7240  -13.1100   20.7610 C   0  0  0  0  0  2  0  0  0  0  0  0
  -30.0310  -13.4320   20.1660 N   0  0  0  0  0  0  0  0  0  0  0  0
  -31.8310  -14.7740   19.8190 O   0  0  0  0  0  0  0  0  0  0  0  0
  -29.9150  -15.7190   20.5630 N   0  0  0  0  0  0  0  0  0  0  0  0
  -29.0020  -15.4960   20.9340 H   0  0  0  0  0  0  0  0  0  0  0  0
  -25.2650  -13.9130   20.4170 C   0  0  0  0  0  0  0  0  0  0  0  0
  -24.2040  -13.1400   20.8030 C   0  0  0  0  0  0  0  0  0  0  0  0
  -24.6650  -11.7880   20.7700 C   0  0  0  0  0  0  0  0  0  0  0  0
  -26.3050  -13.0320   20.1700 N   0  0  0  0  0  0  0  0  0  0  0  0
  -25.9500  -11.7500   20.4420 N   0  0  0  0  0  0  0  0  0  0  0  0
  -23.9420  -10.5270   20.9750 C   0  0  0  0  0  0  0  0  0  0  0  0
  -24.3850   -9.5640   21.9090 C   0  0  0  0  0  3  0  0  0  0  0  0
  -23.6600   -8.3680   22.1010 C   0  0  0  0  0  3  0  0  0  0  0  0
  -22.4790   -8.1250   21.3600 C   0  0  0  0  0  0  0  0  0  0  0  0
  -22.0560   -9.0770   20.4160 C   0  0  0  0  0  3  0  0  0  0  0  0
  -22.7800  -10.2630   20.2210 C   0  0  0  0  0  3  0  0  0  0  0  0
  -21.7270   -6.9800   21.4610 O   0  0  0  0  0  0  0  0  0  0  0  0
  -21.6860   -6.2450   22.6180 C   0  0  0  0  0  0  0  0  0  0  0  0
  -21.2730   -6.8120   23.8450 C   0  0  0  0  0  3  0  0  0  0  0  0
  -21.1790   -6.0050   24.9960 C   0  0  0  0  0  3  0  0  0  0  0  0
  -21.4860   -4.6330   24.9220 C   0  0  0  0  0  0  0  0  0  0  0  0
  -21.8930   -4.0660   23.7020 C   0  0  0  0  0  3  0  0  0  0  0  0
  -21.9900   -4.8710   22.5540 C   0  0  0  0  0  0  0  0  0  0  0  0
  -22.3620   -4.3160   21.3750 F   0  0  0  0  0  0  0  0  0  0  0  0
  -21.3870   -3.8570   26.0260 F   0  0  0  0  0  0  0  0  0  0  0  0
  -22.8110  -13.6200   21.0930 C   0  0  0  0  0  0  0  0  0  0  0  0
  -22.0970  -12.9260   21.9740 N   0  0  0  0  0  0  0  0  0  0  0  0
  -22.3640  -14.6420   20.5750 O   0  0  0  0  0  0  0  0  0  0  0  0
  -22.4710  -12.1020   22.4170 H   0  0  0  0  0  0  0  0  0  0  0  0
  -21.1630  -13.2310   22.2120 H   0  0  0  0  0  0  0  0  0  0  0  0
  -25.4270  -15.2840   20.2340 N   0  0  0  0  0  0  0  0  0  0  0  0
  -24.6580  -15.9360   20.3430 H   0  0  0  0  0  0  0  0  0  0  0  0
  -26.2690  -15.7260   19.8910 H   0  0  0  0  0  0  0  0  0  0  0  0
  1  3  1  0
  2  5  1  0
  2  4  2  0
  4  6  1  0
  5  1  2  0
  6  3  2  0
  6 50  1  0
  7  5  1  0
  8  9  1  0
  8  7  2  0
 10 21  2  0
 11  9  1  0
 11 16  1  0
 12 20  1  0
 12 22  1  0
 13 19  1  0
 13 15  1  0
 14 20  1  0
 15 14  1  0
 16 15  2  0
 17 18  1  0
 17 11  2  0
 18 13  2  0
 19 12  1  0
 20 10  1  0
 22 24  2  0
 23 22  1  0
 25 23  1  0
 26 35  2  0
 26 31  1  0
 27 23  1  0
 27 31  1  0
 28 27  1  0
 29 30  1  0
 29 28  1  0
 30 26  1  0
 31 32  2  0
 32 33  1  0
 34 33  2  0
 35 34  1  0
 36 10  1  0
 36 41  1  0
 36 37  1  0
 37 40  1  1
 37 38  1  0
 39 37  1  0
 41 44  1  0
 42 46  1  0
 42 41  1  0
 43 42  2  0
 46 45  1  0
 48 46  1  0
 48 49  1  0
 48 47  1  0
 52 51  1  0
 52 61  1  0
 52 50  1  0
 53 61  1  0
 54 59  1  0
 55 56  1  0
 55 54  1  0
 57 56  1  0
 57 66  1  0
 57 58  1  0
 59 53  1  0
 59 58  1  0
 60 53  2  0
 61 62  1  0
 63 64  2  0
 64 83  1  0
 65 64  1  0
 65 68  1  0
 66 63  1  0
 66 67  1  0
 67 65  2  0
 68 69  1  0
 69 70  2  0
 71 74  1  0
 71 70  1  0
 72 71  2  0
 73 72  1  0
 73 68  2  0
 74 75  1  0
 75 76  1  0
 76 77  2  0
 78 77  1  0
 78 82  1  0
 79 78  2  0
 80 75  2  0
 80 79  1  0
 81 80  1  0
 83 84  1  0
 84 87  1  0
 84 86  1  0
 85 83  2  0
 88 89  1  0
 88 63  1  0
 90 88  1  0
M  ISO  4   8 101   9 101  53 100  61 100
M  END
>  <TORSDO>  (10) 
F 20

>  <SCORE>  (10) 
-13.651

>  <name>  (10) 
9

>  <ligand_id>  (10) 
9

>  <original_smiles>  (10) 
[H]c1c([H])c([H])c2c(c1[H])C([H])([H])C([H])([H])C([H])([H])C2([H])N([H])C(=O)C1([H])N(C(=O)C([H])(N([H])C(=O)C([H])(N([H])C([H])([H])[H])C([H])([H])[H])C(C([H])([H])[H])(C([H])([H])[H])C([H])([H])[H])C([H])([H])c2c([H])c(OC([H])([H])C([H])([H])c3c([H])c([H])c(C([H])([H])C([H])(N([H])C(=O)N4C([H])([H])C([H])([H])C([H])([H])C([H])(n5nc(-c6c([H])c([H])c(Oc7c([H])c([H])c(F)c([H])c7F)c([H])c6[H])c(C(=O)N([H])[H])c5N([H])[H])C4([H])[H])C([H])([H])[H])c([H])c3[H])c([H])c([H])c2C1([H])[H]

>  <smiles>  (10) 
[H]c1c([H])c([H])c2c(c1[H])C([H])([H])C([H])([H])C([H])([H])C2([H])N([H])C(=O)C1([H])N(C(=O)C([H])(N([H])C(=O)C([H])(N([H])C([H])([H])[H])C([H])([H])[H])C(C([H])([H])[H])(C([H])([H])[H])C([H])([H])[H])C([H])([H])c2c([H])c(OC([H])([H])C([H])([H])c3c([H])c([H])c(C([H])([H])C([H])(N([H])C(=O)N4C([H])([H])C([H])([H])C([H])([H])C([H])(n5nc(-c6c([H])c([H])c(Oc7c([H])c([H])c(F)c([H])c7F)c([H])c6[H])c(C(=O)N([H])[H])c5N([H])[H])C4([H])[H])C([H])([H])[H])c([H])c3[H])c([H])c([H])c2C1([H])[H]

$$$$
10:0:0
     RDKit          3D

 91 99  0  0  1  0  0  0  0  0999 V2000
  -28.6350  -19.7420   20.8780 C   0  0  0  0  0  3  0  0  0  0  0  0
  -30.7460  -20.4270   20.0390 C   0  0  0  0  0  3  0  0  0  0  0  0
  -29.0470  -18.3630   20.8190 C   0  0  0  0  0  3  0  0  0  0  0  0
  -31.1610  -19.0470   19.9920 C   0  0  0  0  0  3  0  0  0  0  0  0
  -29.4310  -20.8290   20.4090 C   0  0  0  0  0  0  0  0  0  0  0  0
  -30.2950  -17.9310   20.2630 C   0  0  0  0  0  0  0  0  0  0  0  0
  -29.1650  -16.2550   18.8350 C   0  0  0  0  0  1  0  0  0  0  0  0
  -30.4910  -16.4530   19.5810 C   0  0  2  0  0  0  0  0  0  0  0  0
  -30.9690  -15.0610   20.3610 C   0  0  0  0  0  0  0  0  0  0  0  0
  -30.7510  -12.7080   19.5340 C   0  0  0  0  0  2  0  0  0  0  0  0
  -29.8450  -12.6220   18.2890 C   0  0  0  0  0  2  0  0  0  0  0  0
  -28.3740  -12.4120   18.7050 C   0  0  0  0  0  2  0  0  0  0  0  0
  -27.9250  -13.3770   19.8270 C   0  0  0  0  0  3  0  0  0  0  0  0
  -28.9750  -13.5280   20.9540 C   0  0  0  0  0  2  0  0  0  0  0  0
  -30.2780  -13.8520   20.3480 N   0  0  0  0  0  0  0  0  0  0  0  0
  -32.1870  -14.9780   20.5250 O   0  0  0  0  0  0  0  0  0  0  0  0
  -25.5500  -14.0320   20.5050 C   0  0  0  0  0  0  0  0  0  0  0  0
  -24.4610  -13.2790   20.8460 C   0  0  0  0  0  0  0  0  0  0  0  0
  -24.9130  -11.9240   20.8540 C   0  0  0  0  0  0  0  0  0  0  0  0
  -26.5850  -13.1270   20.3170 N   0  0  0  0  0  0  0  0  0  0  0  0
  -26.2110  -11.8590   20.5970 N   0  0  0  0  0  0  0  0  0  0  0  0
  -24.1730  -10.6730   21.0290 C   0  0  0  0  0  0  0  0  0  0  0  0
  -24.5700   -9.7160   21.9870 C   0  0  0  0  0  3  0  0  0  0  0  0
  -23.8340   -8.5260   22.1510 C   0  0  0  0  0  3  0  0  0  0  0  0
  -22.6880   -8.2860   21.3570 C   0  0  0  0  0  0  0  0  0  0  0  0
  -22.3120   -9.2320   20.3860 C   0  0  0  0  0  3  0  0  0  0  0  0
  -23.0500  -10.4150   20.2190 C   0  0  0  0  0  3  0  0  0  0  0  0
  -21.9230   -7.1470   21.4320 O   0  0  0  0  0  0  0  0  0  0  0  0
  -21.8250   -6.4260   22.5930 C   0  0  0  0  0  0  0  0  0  0  0  0
  -21.3570   -7.0040   23.7930 C   0  0  0  0  0  3  0  0  0  0  0  0
  -21.2050   -6.2080   24.9460 C   0  0  0  0  0  3  0  0  0  0  0  0
  -21.5110   -4.8350   24.9000 C   0  0  0  0  0  0  0  0  0  0  0  0
  -21.9740   -4.2560   23.7040 C   0  0  0  0  0  3  0  0  0  0  0  0
  -22.1270   -5.0500   22.5540 C   0  0  0  0  0  0  0  0  0  0  0  0
  -22.5540   -4.4840   21.3990 F   0  0  0  0  0  0  0  0  0  0  0  0
  -21.3580   -4.0680   26.0030 F   0  0  0  0  0  0  0  0  0  0  0  0
  -23.0600  -13.7760   21.0500 C   0  0  0  0  0  0  0  0  0  0  0  0
  -22.2960  -13.1090   21.9080 N   0  0  0  0  0  0  0  0  0  0  0  0
  -22.6500  -14.7880   20.4840 O   0  0  0  0  0  0  0  0  0  0  0  0
  -22.6410  -12.2900   22.3880 H   0  0  0  0  0  0  0  0  0  0  0  0
  -21.3530  -13.4230   22.0890 H   0  0  0  0  0  0  0  0  0  0  0  0
  -25.7300  -15.3990   20.3090 N   0  0  0  0  0  0  0  0  0  0  0  0
  -24.9640  -16.0590   20.3820 H   0  0  0  0  0  0  0  0  0  0  0  0
  -26.5900  -15.8260   19.9940 H   0  0  0  0  0  0  0  0  0  0  0  0
  -31.2820  -17.4850   17.2180 C   0  0  0  0  0  1  0  0  0  0  0  0
  -31.5680  -16.5640   18.4300 C   0  0  0  0  0  2  0  0  0  0  0  0
  -28.7710  -22.2460   20.0200 C   0  0  0  0  0  3  0  0  0  0  0  0
  -29.1190  -23.7470   20.5560 C   0  0  0  0  0  3  0  0  0  0  0  0
  -28.6140  -25.0440   18.3750 C   0  0  0  0  0  1  0  0  0  0  0  0
  -28.2950  -24.9960   19.8810 C   0  0  0  0  0  3  0  0  0  0  0  0
  -28.3870  -26.4430   20.3280 O   0  0  0  0  0  0  0  0  0  0  0  0
  -24.6170  -31.9490   23.2450 C   0  0  0  0  0  0  0  0  0  0  0  0
  -27.2730  -27.3310   20.2370 C   0  0  0  0  0  0  0  0  0  0  0  0
  -23.4320  -30.5290   21.6140 C   0  0  0  0  0  3  0  0  0  0  0  0
  -24.8990  -28.9770   20.2020 C   0  0  0  0  0  0  0  0  0  0  0  0
  -25.9760  -30.8470   21.4430 C   0  0  0  0  0  2  0  0  0  0  0  0
  -26.0670  -29.4610   20.8040 C   0  0  0  0  0  0  0  0  0  0  0  0
  -27.2520  -28.6510   20.8110 C   0  0  0  0  0  3  0  0  0  0  0  0
  -26.0740  -26.9270   19.5980 C   0  0  0  0  0  3  0  0  0  0  0  0
  -24.9090  -27.7170   19.5890 C   0  0  0  0  0  3  0  0  0  0  0  0
  -23.6580  -29.8470   20.2400 C   0  0  0  0  0  2  0  0  0  0  0  0
  -24.6930  -31.1280   22.1560 N   0  0  0  0  0  0  0  0  0  0  0  0
  -23.5280  -32.2240   23.7720 O   0  0  0  0  0  0  0  0  0  0  0  0
  -22.7700  -29.5160   22.5800 C   0  0  0  0  0  0  0  0  0  0  0  0
  -21.4430  -29.3330   22.4540 N   0  0  0  0  0  0  0  0  0  0  0  0
  -23.4500  -28.8980   23.4040 O   0  0  0  0  0  0  0  0  0  0  0  0
  -20.9530  -29.8820   21.7630 H   0  0  0  0  0  0  0  0  0  0  0  0
  -18.0690  -28.1280   22.9720 C   0  0  0  0  0  0  0  0  0  0  0  0
  -20.6280  -28.3960   23.2320 C   0  0  0  0  0  3  0  0  0  0  0  0
  -20.7320  -26.9630   22.6630 C   0  0  0  0  0  2  0  0  0  0  0  0
  -19.6280  -26.6320   21.6540 C   0  0  0  0  0  2  0  0  0  0  0  0
  -18.2480  -26.7770   22.3010 C   0  0  0  0  0  2  0  0  0  0  0  0
  -19.1880  -28.8950   23.3960 C   0  0  0  0  0  0  0  0  0  0  0  0
  -18.9660  -30.1590   23.9840 C   0  0  0  0  0  3  0  0  0  0  0  0
  -17.6610  -30.6570   24.1530 C   0  0  0  0  0  3  0  0  0  0  0  0
  -16.5570  -29.8880   23.7460 C   0  0  0  0  0  3  0  0  0  0  0  0
  -16.7620  -28.6240   23.1610 C   0  0  0  0  0  3  0  0  0  0  0  0
  -25.8900  -32.5990   23.8660 C   0  0  0  0  0  3  0  0  0  0  0  0
  -25.5670  -33.9980   24.1850 N   0  0  0  0  0  0  0  0  0  0  0  0
  -25.9010  -35.0500   23.4250 C   0  0  0  0  0  0  0  0  0  0  0  0
  -26.5820  -34.9460   22.4020 O   0  0  0  0  0  0  0  0  0  0  0  0
  -24.9620  -34.1510   24.9770 H   0  0  0  0  0  0  0  0  0  0  0  0
  -24.1700  -36.8350   23.0410 C   0  0  0  0  0  1  0  0  0  0  0  0
  -25.4010  -36.4370   23.8720 C   0  0  0  0  0  3  0  0  0  0  0  0
  -27.5190  -37.3350   24.7300 C   0  0  0  0  0  1  0  0  0  0  0  0
  -26.4300  -37.4960   23.7700 N   0  0  0  0  0  0  0  0  0  0  0  0
  -26.0180  -38.4140   23.9090 H   0  0  0  0  0  0  0  0  0  0  0  0
  -26.4070  -31.8440   25.1530 C   0  0  1  0  0  0  0  0  0  0  0  0
  -25.3100  -31.6040   26.2150 C   0  0  0  0  0  1  0  0  0  0  0  0
  -27.0080  -30.4700   24.7790 C   0  0  0  0  0  1  0  0  0  0  0  0
  -27.5440  -32.6570   25.8140 C   0  0  0  0  0  1  0  0  0  0  0  0
  2  5  1  0
  3  1  1  0
  4  2  2  0
  4  6  1  0
  5  1  2  0
  6  3  2  0
  8  7  1  6
  8  6  1  0
  8  9  1  0
  9 16  2  0
 10 15  1  0
 11 12  1  0
 11 10  1  0
 13 12  1  0
 13 20  1  0
 13 14  1  0
 15  9  1  0
 15 14  1  0
 17 18  2  0
 18 19  1  0
 18 37  1  0
 19 22  1  0
 20 17  1  0
 20 21  1  0
 21 19  2  0
 22 23  1  0
 23 24  2  0
 25 28  1  0
 25 24  1  0
 26 25  2  0
 27 26  1  0
 27 22  2  0
 28 29  1  0
 29 30  1  0
 30 31  2  0
 32 31  1  0
 32 36  1  0
 33 32  2  0
 34 29  2  0
 34 33  1  0
 35 34  1  0
 37 38  1  0
 38 41  1  0
 38 40  1  0
 39 37  2  0
 42 43  1  0
 42 17  1  0
 44 42  1  0
 45 46  1  0
 46  8  1  0
 47  5  1  0
 47 48  2  0
 50 49  1  0
 50 51  1  0
 50 48  1  0
 52 63  2  0
 53 51  1  0
 53 58  1  0
 54 62  1  0
 54 64  1  0
 55 61  1  0
 55 57  1  0
 56 62  1  0
 57 58  2  0
 57 56  1  0
 59 53  2  0
 60 59  1  0
 60 55  2  0
 61 54  1  0
 62 52  1  0
 64 66  2  0
 65 64  1  0
 67 65  1  0
 68 77  2  0
 68 73  1  0
 69 65  1  0
 69 73  1  0
 70 69  1  0
 71 72  1  0
 71 70  1  0
 72 68  1  0
 73 74  2  0
 74 75  1  0
 76 75  2  0
 77 76  1  0
 78 52  1  0
 78 79  1  0
 78 88  1  0
 79 82  1  0
 80 84  1  0
 80 79  1  0
 81 80  2  0
 84 83  1  0
 86 84  1  0
 86 87  1  0
 86 85  1  0
 88 91  1  1
 88 89  1  0
 90 88  1  0
M  ISO  4   8 100   9 100  50 101  51 101
M  END
>  <TORSDO>  (11) 
F 21

>  <SCORE>  (11) 
-12.994

>  <name>  (11) 
10

>  <ligand_id>  (11) 
10

>  <original_smiles>  (11) 
[H]c1c([H])c([H])c2c(c1[H])C([H])([H])C([H])([H])C([H])([H])C2([H])N([H])C(=O)C1([H])N(C(=O)C([H])(N([H])C(=O)C([H])(N([H])C([H])([H])[H])C([H])([H])[H])C(C([H])([H])[H])(C([H])([H])[H])C([H])([H])[H])C([H])([H])c2c([H])c(OC([H])(C([H])([H])[H])C([H])([H])C([H])([H])c3c([H])c([H])c(C(C(=O)N4C([H])([H])C([H])([H])C([H])([H])C([H])(n5nc(-c6c([H])c([H])c(Oc7c([H])c([H])c(F)c([H])c7F)c([H])c6[H])c(C(=O)N([H])[H])c5N([H])[H])C4([H])[H])(C([H])([H])[H])C([H])([H])C([H])([H])[H])c([H])c3[H])c([H])c([H])c2C1([H])[H]

>  <smiles>  (11) 
[H]c1c([H])c([H])c2c(c1[H])C([H])([H])C([H])([H])C([H])([H])C2([H])N([H])C(=O)C1([H])N(C(=O)C([H])(N([H])C(=O)C([H])(N([H])C([H])([H])[H])C([H])([H])[H])C(C([H])([H])[H])(C([H])([H])[H])C([H])([H])[H])C([H])([H])c2c([H])c(OC([H])(C([H])([H])[H])C([H])([H])C([H])([H])c3c([H])c([H])c(C(C(=O)N4C([H])([H])C([H])([H])C([H])([H])C([H])(n5nc(-c6c([H])c([H])c(Oc7c([H])c([H])c(F)c([H])c7F)c([H])c6[H])c(C(=O)N([H])[H])c5N([H])[H])C4([H])[H])(C([H])([H])[H])C([H])([H])C([H])([H])[H])c([H])c3[H])c([H])c([H])c2C1([H])[H]

$$$$
11:0:0
     RDKit          3D

 90 98  0  0  1  0  0  0  0  0999 V2000
  -30.2940  -21.8300   21.1990 C   0  0  0  0  0  3  0  0  0  0  0  0
  -29.2030  -19.4900   21.3880 C   0  0  0  0  0  3  0  0  0  0  0  0
  -31.3470  -19.6340   20.2900 C   0  0  0  0  0  3  0  0  0  0  0  0
  -29.1800  -18.0920   21.1430 C   0  0  0  0  0  3  0  0  0  0  0  0
  -31.3250  -18.2330   20.0450 C   0  0  0  0  0  3  0  0  0  0  0  0
  -30.2690  -20.2970   20.9320 C   0  0  0  0  0  0  0  0  0  0  0  0
  -30.2200  -17.4330   20.4330 C   0  0  0  0  0  0  0  0  0  0  0  0
  -29.7200  -16.3150   18.3050 C   0  0  0  0  0  1  0  0  0  0  0  0
  -29.9300  -16.0290   19.8100 C   0  0  0  0  0  3  0  0  0  0  0  0
  -30.8820  -14.7640   19.9770 C   0  0  0  0  0  0  0  0  0  0  0  0
  -30.6960  -12.4410   19.1430 C   0  0  0  0  0  2  0  0  0  0  0  0
  -29.7250  -12.4570   17.9380 C   0  0  0  0  0  2  0  0  0  0  0  0
  -28.2470  -12.3790   18.3920 C   0  0  0  0  0  2  0  0  0  0  0  0
  -27.9120  -13.3070   19.5900 C   0  0  0  0  0  3  0  0  0  0  0  0
  -29.0020  -13.2250   20.6830 C   0  0  0  0  0  2  0  0  0  0  0  0
  -30.3040  -13.5240   20.0650 N   0  0  0  0  0  0  0  0  0  0  0  0
  -32.0800  -14.8850   19.7000 O   0  0  0  0  0  0  0  0  0  0  0  0
  -25.5720  -13.9820   20.4070 C   0  0  0  0  0  0  0  0  0  0  0  0
  -24.4930  -13.2390   20.8000 C   0  0  0  0  0  0  0  0  0  0  0  0
  -24.9100  -11.8750   20.7330 C   0  0  0  0  0  0  0  0  0  0  0  0
  -26.5760  -13.0680   20.1230 N   0  0  0  0  0  0  0  0  0  0  0  0
  -26.1860  -11.7960   20.3790 N   0  0  0  0  0  0  0  0  0  0  0  0
  -24.1510  -10.6340   20.9260 C   0  0  0  0  0  0  0  0  0  0  0  0
  -24.5710   -9.6530   21.8510 C   0  0  0  0  0  3  0  0  0  0  0  0
  -23.8170   -8.4730   22.0320 C   0  0  0  0  0  3  0  0  0  0  0  0
  -22.6290   -8.2690   21.2900 C   0  0  0  0  0  0  0  0  0  0  0  0
  -22.2290   -9.2390   20.3540 C   0  0  0  0  0  3  0  0  0  0  0  0
  -22.9840  -10.4110   20.1710 C   0  0  0  0  0  3  0  0  0  0  0  0
  -21.8490   -7.1420   21.3810 O   0  0  0  0  0  0  0  0  0  0  0  0
  -21.7660   -6.4170   22.5420 C   0  0  0  0  0  0  0  0  0  0  0  0
  -21.3140   -6.9920   23.7490 C   0  0  0  0  0  3  0  0  0  0  0  0
  -21.1800   -6.1930   24.9030 C   0  0  0  0  0  3  0  0  0  0  0  0
  -21.4860   -4.8200   24.8490 C   0  0  0  0  0  0  0  0  0  0  0  0
  -21.9320   -4.2450   23.6460 C   0  0  0  0  0  3  0  0  0  0  0  0
  -22.0690   -5.0410   22.4950 C   0  0  0  0  0  0  0  0  0  0  0  0
  -22.4790   -4.4780   21.3330 F   0  0  0  0  0  0  0  0  0  0  0  0
  -21.3500   -4.0500   25.9540 F   0  0  0  0  0  0  0  0  0  0  0  0
  -23.1210  -13.7560   21.1290 C   0  0  0  0  0  0  0  0  0  0  0  0
  -22.4080  -13.0750   22.0170 N   0  0  0  0  0  0  0  0  0  0  0  0
  -22.6940  -14.7980   20.6320 O   0  0  0  0  0  0  0  0  0  0  0  0
  -22.7660  -12.2300   22.4370 H   0  0  0  0  0  0  0  0  0  0  0  0
  -21.4890  -13.4000   22.2800 H   0  0  0  0  0  0  0  0  0  0  0  0
  -25.7760  -15.3500   20.2430 N   0  0  0  0  0  0  0  0  0  0  0  0
  -25.0340  -16.0260   20.3880 H   0  0  0  0  0  0  0  0  0  0  0  0
  -26.6240  -15.7660   19.8830 H   0  0  0  0  0  0  0  0  0  0  0  0
  -29.3260  -22.7460   20.3610 C   0  0  0  0  0  3  0  0  0  0  0  0
  -29.3640  -24.2820   20.6680 C   0  0  0  0  0  0  0  0  0  0  0  0
  -30.1920  -24.7470   21.4580 O   0  0  0  0  0  0  0  0  0  0  0  0
  -28.3240  -25.2120   19.9620 C   0  0  0  0  0  2  0  0  0  0  0  0
  -28.4480  -26.6390   20.2760 O   0  0  0  0  0  0  0  0  0  0  0  0
  -24.6230  -31.9120   23.2600 C   0  0  0  0  0  0  0  0  0  0  0  0
  -27.2940  -27.4220   20.2060 C   0  0  0  0  0  0  0  0  0  0  0  0
  -23.4300  -30.4990   21.6210 C   0  0  0  0  0  3  0  0  0  0  0  0
  -24.8950  -28.9670   20.1950 C   0  0  0  0  0  0  0  0  0  0  0  0
  -25.9590  -30.8570   21.4320 C   0  0  0  0  0  2  0  0  0  0  0  0
  -26.0540  -29.4820   20.7900 C   0  0  0  0  0  0  0  0  0  0  0  0
  -27.2530  -28.7190   20.7900 C   0  0  0  0  0  3  0  0  0  0  0  0
  -26.1140  -26.9500   19.5830 C   0  0  0  0  0  3  0  0  0  0  0  0
  -24.9250  -27.7030   19.5850 C   0  0  0  0  0  3  0  0  0  0  0  0
  -23.6460  -29.8200   20.2420 C   0  0  0  0  0  2  0  0  0  0  0  0
  -24.6890  -31.1060   22.1610 N   0  0  0  0  0  0  0  0  0  0  0  0
  -23.5380  -32.1790   23.7970 O   0  0  0  0  0  0  0  0  0  0  0  0
  -22.7810  -29.4760   22.5820 C   0  0  0  0  0  0  0  0  0  0  0  0
  -21.4590  -29.2810   22.4510 N   0  0  0  0  0  0  0  0  0  0  0  0
  -23.4660  -28.8630   23.4060 O   0  0  0  0  0  0  0  0  0  0  0  0
  -20.9650  -29.8280   21.7610 H   0  0  0  0  0  0  0  0  0  0  0  0
  -18.0930  -28.0580   22.9500 C   0  0  0  0  0  0  0  0  0  0  0  0
  -20.6490  -28.3370   23.2230 C   0  0  0  0  0  3  0  0  0  0  0  0
  -20.7630  -26.9060   22.6480 C   0  0  0  0  0  2  0  0  0  0  0  0
  -19.6650  -26.5730   21.6340 C   0  0  0  0  0  2  0  0  0  0  0  0
  -18.2820  -26.7080   22.2760 C   0  0  0  0  0  2  0  0  0  0  0  0
  -19.2050  -28.8290   23.3790 C   0  0  0  0  0  0  0  0  0  0  0  0
  -18.9750  -30.0920   23.9680 C   0  0  0  0  0  3  0  0  0  0  0  0
  -17.6660  -30.5820   24.1320 C   0  0  0  0  0  3  0  0  0  0  0  0
  -16.5690  -29.8070   23.7190 C   0  0  0  0  0  3  0  0  0  0  0  0
  -16.7830  -28.5470   23.1330 C   0  0  0  0  0  3  0  0  0  0  0  0
  -25.9030  -32.5550   23.8790 C   0  0  0  0  0  3  0  0  0  0  0  0
  -25.5910  -33.9590   24.1820 N   0  0  0  0  0  0  0  0  0  0  0  0
  -25.9220  -34.9970   23.4020 C   0  0  0  0  0  0  0  0  0  0  0  0
  -26.5930  -34.8740   22.3730 O   0  0  0  0  0  0  0  0  0  0  0  0
  -24.9970  -34.1280   24.9800 H   0  0  0  0  0  0  0  0  0  0  0  0
  -24.1920  -36.7800   23.0120 C   0  0  0  0  0  1  0  0  0  0  0  0
  -25.4330  -36.3930   23.8310 C   0  0  0  0  0  3  0  0  0  0  0  0
  -27.5620  -37.3020   24.6500 C   0  0  0  0  0  1  0  0  0  0  0  0
  -26.4650  -37.4450   23.6980 N   0  0  0  0  0  0  0  0  0  0  0  0
  -26.0560  -38.3680   23.8210 H   0  0  0  0  0  0  0  0  0  0  0  0
  -26.4100  -31.8060   25.1720 C   0  0  1  0  0  0  0  0  0  0  0  0
  -25.3090  -31.5840   26.2350 C   0  0  0  0  0  1  0  0  0  0  0  0
  -27.0010  -30.4240   24.8100 C   0  0  0  0  0  1  0  0  0  0  0  0
  -27.5520  -32.6150   25.8310 C   0  0  0  0  0  1  0  0  0  0  0  0
  3  6  1  0
  4  2  1  0
  5  3  2  0
  5  7  1  0
  6  1  1  0
  6  2  2  0
  7  4  2  0
  9  8  1  0
  9 10  1  0
  9  7  1  0
 10 16  1  0
 11 16  1  0
 12 13  1  0
 12 11  1  0
 14 13  1  0
 14 21  1  0
 14 15  1  0
 16 15  1  0
 17 10  2  0
 18 19  2  0
 19 38  1  0
 20 19  1  0
 20 23  1  0
 21 22  1  0
 21 18  1  0
 22 20  2  0
 23 24  1  0
 24 25  2  0
 26 29  1  0
 26 25  1  0
 27 26  2  0
 28 27  1  0
 28 23  2  0
 29 30  1  0
 30 31  1  0
 31 32  2  0
 33 32  1  0
 33 37  1  0
 34 33  2  0
 35 30  2  0
 35 34  1  0
 36 35  1  0
 38 39  1  0
 39 42  1  0
 39 41  1  0
 40 38  2  0
 43 44  1  0
 43 18  1  0
 45 43  1  0
 46 47  1  0
 46  1  2  0
 47 48  2  0
 49 50  1  0
 49 47  1  0
 51 62  2  0
 52 50  1  0
 52 57  1  0
 53 61  1  0
 53 63  1  0
 54 60  1  0
 54 56  1  0
 55 61  1  0
 56 55  1  0
 57 56  2  0
 58 59  1  0
 58 52  2  0
 59 54  2  0
 60 53  1  0
 61 51  1  0
 63 65  2  0
 64 63  1  0
 66 64  1  0
 67 76  2  0
 67 72  1  0
 68 64  1  0
 68 72  1  0
 69 68  1  0
 70 71  1  0
 70 69  1  0
 71 67  1  0
 72 73  2  0
 73 74  1  0
 75 74  2  0
 76 75  1  0
 77 51  1  0
 77 78  1  0
 77 87  1  0
 78 81  1  0
 79 83  1  0
 79 78  1  0
 80 79  2  0
 83 82  1  0
 85 86  1  0
 85 83  1  0
 85 84  1  0
 87 90  1  1
 87 88  1  0
 89 87  1  0
M  ISO  4   9 100  10 100  49 101  50 101
M  END
>  <TORSDO>  (12) 
F 21

>  <SCORE>  (12) 
-12.285

>  <name>  (12) 
11

>  <ligand_id>  (12) 
11

>  <original_smiles>  (12) 
[H]c1c([H])c([H])c2c(c1[H])C([H])([H])C([H])([H])C([H])([H])C2([H])N([H])C(=O)C1([H])N(C(=O)C([H])(N([H])C(=O)C([H])(N([H])C([H])([H])[H])C([H])([H])[H])C(C([H])([H])[H])(C([H])([H])[H])C([H])([H])[H])C([H])([H])c2c([H])c(OC([H])([H])C(=O)C([H])([H])C([H])([H])c3c([H])c([H])c(C([H])(C(=O)N4C([H])([H])C([H])([H])C([H])([H])C([H])(n5nc(-c6c([H])c([H])c(Oc7c([H])c([H])c(F)c([H])c7F)c([H])c6[H])c(C(=O)N([H])[H])c5N([H])[H])C4([H])[H])C([H])([H])[H])c([H])c3[H])c([H])c([H])c2C1([H])[H]

>  <smiles>  (12) 
[H]c1c([H])c([H])c2c(c1[H])C([H])([H])C([H])([H])C([H])([H])C2([H])N([H])C(=O)C1([H])N(C(=O)C([H])(N([H])C(=O)C([H])(N([H])C([H])([H])[H])C([H])([H])[H])C(C([H])([H])[H])(C([H])([H])[H])C([H])([H])[H])C([H])([H])c2c([H])c(OC([H])([H])C(=O)C([H])([H])C([H])([H])c3c([H])c([H])c(C([H])(C(=O)N4C([H])([H])C([H])([H])C([H])([H])C([H])(n5nc(-c6c([H])c([H])c(Oc7c([H])c([H])c(F)c([H])c7F)c([H])c6[H])c(C(=O)N([H])[H])c5N([H])[H])C4([H])[H])C([H])([H])[H])c([H])c3[H])c([H])c([H])c2C1([H])[H]

$$$$
12:0:0
     RDKit          3D

 88 96  0  0  1  0  0  0  0  0999 V2000
  -29.7170  -20.4670   19.3880 C   0  0  0  0  0  2  0  0  0  0  0  0
  -30.2470  -18.6500   21.3800 C   0  0  0  0  0  0  0  0  0  0  0  0
  -31.4130  -17.6270   21.2420 C   0  0  0  0  0  2  0  0  0  0  0  0
  -30.6120  -19.2090   20.0130 C   0  0  0  0  0  3  0  0  0  0  0  0
  -31.2310  -17.6530   19.6850 C   0  0  0  0  0  3  0  0  0  0  0  0
  -29.3620  -18.8730   22.2110 O   0  0  0  0  0  0  0  0  0  0  0  0
  -31.2840  -15.0030   19.2380 C   0  0  0  0  0  0  0  0  0  0  0  0
  -30.9520  -12.6160   18.4660 C   0  0  0  0  0  2  0  0  0  0  0  0
  -29.8620  -12.5250   17.3760 C   0  0  0  0  0  2  0  0  0  0  0  0
  -28.4690  -12.3870   18.0170 C   0  0  0  0  0  2  0  0  0  0  0  0
  -28.2410  -13.4090   19.1630 C   0  0  0  0  0  3  0  0  0  0  0  0
  -29.4370  -13.4670   20.1330 C   0  0  0  0  0  2  0  0  0  0  0  0
  -30.6220  -13.7840   19.3280 N   0  0  0  0  0  0  0  0  0  0  0  0
  -32.4540  -14.9880   18.8460 O   0  0  0  0  0  0  0  0  0  0  0  0
  -30.6050  -16.2400   19.4060 N   0  0  0  0  0  0  0  0  0  0  0  0
  -29.6130  -16.1550   19.5730 H   0  0  0  0  0  0  0  0  0  0  0  0
  -26.1040  -14.1250   20.3710 C   0  0  0  0  0  0  0  0  0  0  0  0
  -25.0300  -13.4190   20.8390 C   0  0  0  0  0  0  0  0  0  0  0  0
  -25.3190  -12.0430   20.5830 C   0  0  0  0  0  0  0  0  0  0  0  0
  -26.9790  -13.1850   19.8570 N   0  0  0  0  0  0  0  0  0  0  0  0
  -26.5260  -11.9180   20.0460 N   0  0  0  0  0  0  0  0  0  0  0  0
  -24.4860  -10.8460   20.7600 C   0  0  0  0  0  0  0  0  0  0  0  0
  -24.8870   -9.7880   21.6040 C   0  0  0  0  0  3  0  0  0  0  0  0
  -24.0620   -8.6550   21.7720 C   0  0  0  0  0  3  0  0  0  0  0  0
  -22.8200   -8.5750   21.0970 C   0  0  0  0  0  0  0  0  0  0  0  0
  -22.4380   -9.6210   20.2390 C   0  0  0  0  0  3  0  0  0  0  0  0
  -23.2630  -10.7450   20.0690 C   0  0  0  0  0  3  0  0  0  0  0  0
  -21.9650   -7.5020   21.1820 O   0  0  0  0  0  0  0  0  0  0  0  0
  -21.8330   -6.7760   22.3380 C   0  0  0  0  0  0  0  0  0  0  0  0
  -21.3950   -7.3660   23.5450 C   0  0  0  0  0  3  0  0  0  0  0  0
  -21.2080   -6.5690   24.6910 C   0  0  0  0  0  3  0  0  0  0  0  0
  -21.4470   -5.1830   24.6330 C   0  0  0  0  0  0  0  0  0  0  0  0
  -21.8780   -4.5920   23.4320 C   0  0  0  0  0  3  0  0  0  0  0  0
  -22.0680   -5.3870   22.2870 C   0  0  0  0  0  0  0  0  0  0  0  0
  -22.4620   -4.8090   21.1270 F   0  0  0  0  0  0  0  0  0  0  0  0
  -21.2600   -4.4160   25.7310 F   0  0  0  0  0  0  0  0  0  0  0  0
  -23.7610  -13.9950   21.3980 C   0  0  0  0  0  0  0  0  0  0  0  0
  -23.1160  -13.2830   22.3140 N   0  0  0  0  0  0  0  0  0  0  0  0
  -23.3610  -15.1070   21.0560 O   0  0  0  0  0  0  0  0  0  0  0  0
  -23.4570  -12.3820   22.6150 H   0  0  0  0  0  0  0  0  0  0  0  0
  -22.2630  -13.6420   22.7190 H   0  0  0  0  0  0  0  0  0  0  0  0
  -26.3970  -15.4850   20.3100 N   0  0  0  0  0  0  0  0  0  0  0  0
  -25.7330  -16.1920   20.6090 H   0  0  0  0  0  0  0  0  0  0  0  0
  -27.1970  -15.8770   19.8300 H   0  0  0  0  0  0  0  0  0  0  0  0
  -29.4670  -21.8860   20.2590 C   0  0  0  0  0  3  0  0  0  0  0  0
  -29.2450  -23.4440   19.6680 C   0  0  0  0  0  3  0  0  0  0  0  0
  -28.6690  -24.7450   20.5600 C   0  0  0  0  0  2  0  0  0  0  0  0
  -28.8160  -26.2590   20.2710 O   0  0  0  0  0  0  0  0  0  0  0  0
  -24.8000  -31.6810   23.2050 C   0  0  0  0  0  0  0  0  0  0  0  0
  -27.6920  -27.1490   20.2390 C   0  0  0  0  0  0  0  0  0  0  0  0
  -23.7150  -30.2490   21.5160 C   0  0  0  0  0  3  0  0  0  0  0  0
  -25.2800  -28.7540   20.1300 C   0  0  0  0  0  0  0  0  0  0  0  0
  -26.2520  -30.6460   21.4260 C   0  0  0  0  0  2  0  0  0  0  0  0
  -26.4130  -29.2640   20.7760 C   0  0  0  0  0  0  0  0  0  0  0  0
  -27.6220  -28.4780   20.8100 C   0  0  0  0  0  3  0  0  0  0  0  0
  -26.5300  -26.7240   19.5620 C   0  0  0  0  0  3  0  0  0  0  0  0
  -25.3480  -27.4960   19.5090 C   0  0  0  0  0  3  0  0  0  0  0  0
  -24.0100  -29.5920   20.1400 C   0  0  0  0  0  2  0  0  0  0  0  0
  -24.9400  -30.8810   22.1050 N   0  0  0  0  0  0  0  0  0  0  0  0
  -23.6870  -31.9070   23.7050 O   0  0  0  0  0  0  0  0  0  0  0  0
  -23.0590  -29.2010   22.4480 C   0  0  0  0  0  0  0  0  0  0  0  0
  -21.7440  -28.9720   22.2820 N   0  0  0  0  0  0  0  0  0  0  0  0
  -23.7350  -28.5970   23.2830 O   0  0  0  0  0  0  0  0  0  0  0  0
  -21.2530  -29.5160   21.5870 H   0  0  0  0  0  0  0  0  0  0  0  0
  -18.4080  -27.6230   22.6840 C   0  0  0  0  0  0  0  0  0  0  0  0
  -20.9450  -27.9900   23.0200 C   0  0  0  0  0  3  0  0  0  0  0  0
  -21.1220  -26.5720   22.4310 C   0  0  0  0  0  2  0  0  0  0  0  0
  -20.0620  -26.2140   21.3850 C   0  0  0  0  0  2  0  0  0  0  0  0
  -18.6590  -26.2910   21.9950 C   0  0  0  0  0  2  0  0  0  0  0  0
  -19.4810  -28.4280   23.1510 C   0  0  0  0  0  0  0  0  0  0  0  0
  -19.1920  -29.6690   23.7560 C   0  0  0  0  0  3  0  0  0  0  0  0
  -17.8650  -30.1120   23.8960 C   0  0  0  0  0  3  0  0  0  0  0  0
  -16.8050  -29.3080   23.4410 C   0  0  0  0  0  3  0  0  0  0  0  0
  -17.0770  -28.0630   22.8430 C   0  0  0  0  0  3  0  0  0  0  0  0
  -26.0280  -32.3670   23.8760 C   0  0  0  0  0  3  0  0  0  0  0  0
  -26.5180  -31.6260   25.1820 C   0  0  1  0  0  0  0  0  0  0  0  0
  -25.3890  -31.3440   26.2010 C   0  0  0  0  0  1  0  0  0  0  0  0
  -27.1770  -30.2720   24.8270 C   0  0  0  0  0  1  0  0  0  0  0  0
  -27.6000  -32.4750   25.8880 C   0  0  0  0  0  1  0  0  0  0  0  0
  -25.6520  -33.7560   24.1840 N   0  0  0  0  0  0  0  0  0  0  0  0
  -25.9700  -34.8200   23.4340 C   0  0  0  0  0  0  0  0  0  0  0  0
  -26.6780  -34.7380   22.4270 O   0  0  0  0  0  0  0  0  0  0  0  0
  -25.0240  -33.8870   24.9630 H   0  0  0  0  0  0  0  0  0  0  0  0
  -24.1870  -36.5480   23.0170 C   0  0  0  0  0  1  0  0  0  0  0  0
  -25.4170  -36.1930   23.8680 C   0  0  0  0  0  3  0  0  0  0  0  0
  -27.4860  -37.1730   24.7620 C   0  0  0  0  0  1  0  0  0  0  0  0
  -26.4130  -37.2840   23.7760 N   0  0  0  0  0  0  0  0  0  0  0  0
  -25.9680  -38.1920   23.8910 H   0  0  0  0  0  0  0  0  0  0  0  0
  1 45  1  0
  2  6  2  0
  3  2  1  0
  4  1  1  0
  4  2  1  0
  5 15  1  0
  5  4  1  0
  5  3  1  0
  7 13  1  0
  7 15  1  0
  8 13  1  0
  9 10  1  0
  9  8  1  0
 11 10  1  0
 11 20  1  0
 11 12  1  0
 13 12  1  0
 14  7  2  0
 15 16  1  0
 17 18  2  0
 18 37  1  0
 19 22  1  0
 19 18  1  0
 20 21  1  0
 20 17  1  0
 21 19  2  0
 22 23  1  0
 23 24  2  0
 25 28  1  0
 25 24  1  0
 26 25  2  0
 27 26  1  0
 27 22  2  0
 28 29  1  0
 29 30  1  0
 30 31  2  0
 32 31  1  0
 32 36  1  0
 33 32  2  0
 34 29  2  0
 34 33  1  0
 35 34  1  0
 37 38  1  0
 38 40  1  0
 38 41  1  0
 39 37  2  0
 42 17  1  0
 42 43  1  0
 44 42  1  0
 46 45  2  0
 46 47  1  0
 48 47  1  0
 49 60  2  0
 50 48  1  0
 50 55  1  0
 51 59  1  0
 51 61  1  0
 52 58  1  0
 52 54  1  0
 53 59  1  0
 54 55  2  0
 54 53  1  0
 56 50  2  0
 57 56  1  0
 57 52  2  0
 58 51  1  0
 59 49  1  0
 61 63  2  0
 62 61  1  0
 64 62  1  0
 65 74  2  0
 65 70  1  0
 66 62  1  0
 66 70  1  0
 67 66  1  0
 68 69  1  0
 68 67  1  0
 69 65  1  0
 70 71  2  0
 71 72  1  0
 73 72  2  0
 74 73  1  0
 75 49  1  0
 75 80  1  0
 75 76  1  0
 76 79  1  1
 76 77  1  0
 78 76  1  0
 80 83  1  0
 81 85  1  0
 81 80  1  0
 82 81  2  0
 85 84  1  0
 87 85  1  0
 87 88  1  0
 87 86  1  0
M  ISO  4   7 100  15 100  47 101  48 101
M  END
>  <TORSDO>  (13) 
F 20

>  <SCORE>  (13) 
-10.776

>  <name>  (13) 
12

>  <ligand_id>  (13) 
12

>  <original_smiles>  (13) 
[H]c1c([H])c([H])c2c(c1[H])C([H])([H])C([H])([H])C([H])([H])C2([H])N([H])C(=O)C1([H])N(C(=O)C([H])(N([H])C(=O)C([H])(N([H])C([H])([H])[H])C([H])([H])[H])C(C([H])([H])[H])(C([H])([H])[H])C([H])([H])[H])C([H])([H])c2c([H])c(OC([H])([H])C([H])([H])C([H])([H])C([H])([H])C3([H])C(=O)C([H])([H])C3([H])N([H])C(=O)N3C([H])([H])C([H])([H])C([H])([H])C([H])(n4nc(-c5c([H])c([H])c(Oc6c([H])c([H])c(F)c([H])c6F)c([H])c5[H])c(C(=O)N([H])[H])c4N([H])[H])C3([H])[H])c([H])c([H])c2C1([H])[H]

>  <smiles>  (13) 
[H]c1c([H])c([H])c2c(c1[H])C([H])([H])C([H])([H])C([H])([H])C2([H])N([H])C(=O)C1([H])N(C(=O)C([H])(N([H])C(=O)C([H])(N([H])C([H])([H])[H])C([H])([H])[H])C(C([H])([H])[H])(C([H])([H])[H])C([H])([H])[H])C([H])([H])c2c([H])c(OC([H])([H])C([H])([H])C([H])([H])C([H])([H])C3([H])C(=O)C([H])([H])C3([H])N([H])C(=O)N3C([H])([H])C([H])([H])C([H])([H])C([H])(n4nc(-c5c([H])c([H])c(Oc6c([H])c([H])c(F)c([H])c6F)c([H])c5[H])c(C(=O)N([H])[H])c4N([H])[H])C3([H])[H])c([H])c([H])c2C1([H])[H]

$$$$
13:0:0
     RDKit          3D

 88 96  0  0  1  0  0  0  0  0999 V2000
  -28.9770  -21.4050   20.8450 C   0  0  0  0  0  3  0  0  0  0  0  0
  -29.5130  -19.8290   20.2230 C   0  0  0  0  0  3  0  0  0  0  0  0
  -29.9040  -18.2590   20.9880 C   0  0  0  0  0  2  0  0  0  0  0  0
  -30.6940  -15.4550   20.7740 C   0  0  0  0  0  0  0  0  0  0  0  0
  -30.7680  -12.9930   19.9960 C   0  0  0  0  0  2  0  0  0  0  0  0
  -29.9570  -12.7100   18.7070 C   0  0  0  0  0  2  0  0  0  0  0  0
  -28.4710  -12.4670   19.0280 C   0  0  0  0  0  2  0  0  0  0  0  0
  -27.9160  -13.4670   20.0730 C   0  0  0  0  0  3  0  0  0  0  0  0
  -28.8630  -13.6740   21.2690 C   0  0  0  0  0  2  0  0  0  0  0  0
  -30.1340  -14.1550   20.7030 N   0  0  0  0  0  0  0  0  0  0  0  0
  -31.9310  -15.4530   20.8590 O   0  0  0  0  0  0  0  0  0  0  0  0
  -29.9640  -16.7000   20.4110 N   0  0  0  0  0  0  0  0  0  0  0  0
  -25.4820  -14.0340   20.5940 C   0  0  0  0  0  0  0  0  0  0  0  0
  -24.3950  -13.2570   20.8810 C   0  0  0  0  0  0  0  0  0  0  0  0
  -24.8750  -11.9130   20.9380 C   0  0  0  0  0  0  0  0  0  0  0  0
  -26.5500  -13.1620   20.4760 N   0  0  0  0  0  0  0  0  0  0  0  0
  -26.1900  -11.8830   20.7550 N   0  0  0  0  0  0  0  0  0  0  0  0
  -24.1460  -10.6480   21.0980 C   0  0  0  0  0  0  0  0  0  0  0  0
  -24.5040   -9.7090   22.0910 C   0  0  0  0  0  3  0  0  0  0  0  0
  -23.7740   -8.5100   22.2370 C   0  0  0  0  0  3  0  0  0  0  0  0
  -22.6720   -8.2420   21.3910 C   0  0  0  0  0  0  0  0  0  0  0  0
  -22.3340   -9.1700   20.3910 C   0  0  0  0  0  3  0  0  0  0  0  0
  -23.0650  -10.3600   20.2420 C   0  0  0  0  0  3  0  0  0  0  0  0
  -21.9200   -7.0930   21.4450 O   0  0  0  0  0  0  0  0  0  0  0  0
  -21.7860   -6.3740   22.6050 C   0  0  0  0  0  0  0  0  0  0  0  0
  -21.2650   -6.9540   23.7840 C   0  0  0  0  0  3  0  0  0  0  0  0
  -21.0780   -6.1620   24.9340 C   0  0  0  0  0  3  0  0  0  0  0  0
  -21.4010   -4.7910   24.9070 C   0  0  0  0  0  0  0  0  0  0  0  0
  -21.9130   -4.2120   23.7320 C   0  0  0  0  0  3  0  0  0  0  0  0
  -22.1010   -5.0010   22.5850 C   0  0  0  0  0  0  0  0  0  0  0  0
  -22.5760   -4.4340   21.4500 F   0  0  0  0  0  0  0  0  0  0  0  0
  -21.2140   -4.0290   26.0090 F   0  0  0  0  0  0  0  0  0  0  0  0
  -22.9750  -13.7250   20.9990 C   0  0  0  0  0  0  0  0  0  0  0  0
  -22.1750  -13.0550   21.8210 N   0  0  0  0  0  0  0  0  0  0  0  0
  -22.5790  -14.7230   20.3960 O   0  0  0  0  0  0  0  0  0  0  0  0
  -22.5070  -12.2500   22.3310 H   0  0  0  0  0  0  0  0  0  0  0  0
  -21.2170  -13.3520   21.9410 H   0  0  0  0  0  0  0  0  0  0  0  0
  -25.6490  -15.4010   20.3960 N   0  0  0  0  0  0  0  0  0  0  0  0
  -24.8740  -16.0530   20.4300 H   0  0  0  0  0  0  0  0  0  0  0  0
  -26.5320  -15.8450   20.1830 H   0  0  0  0  0  0  0  0  0  0  0  0
  -29.9030  -18.1940   17.1930 C   0  0  0  0  0  3  0  0  0  0  0  0
  -30.5460  -17.4360   18.0790 C   0  0  0  0  0  3  0  0  0  0  0  0
  -28.4060  -18.1100   17.3410 C   0  0  0  0  0  3  0  0  0  0  0  0
  -28.2010  -17.2420   18.6070 C   0  0  0  0  0  3  0  0  0  0  0  0
  -29.5990  -16.6730   18.9730 C   0  0  0  0  0  3  0  0  0  0  0  0
  -28.8950  -23.0350   20.1330 C   0  0  0  0  0  2  0  0  0  0  0  0
  -28.0560  -24.5300   20.6080 C   0  0  0  0  0  2  0  0  0  0  0  0
  -28.2490  -26.1150   20.2940 O   0  0  0  0  0  0  0  0  0  0  0  0
  -24.6160  -32.0030   23.2580 C   0  0  0  0  0  0  0  0  0  0  0  0
  -27.2030  -27.1590   20.2860 C   0  0  0  0  0  0  0  0  0  0  0  0
  -23.4260  -30.5850   21.6350 C   0  0  0  0  0  3  0  0  0  0  0  0
  -24.8810  -28.9810   20.2300 C   0  0  0  0  0  0  0  0  0  0  0  0
  -25.9870  -30.8270   21.4750 C   0  0  0  0  0  2  0  0  0  0  0  0
  -26.0660  -29.4150   20.8360 C   0  0  0  0  0  0  0  0  0  0  0  0
  -27.2260  -28.5260   20.8360 C   0  0  0  0  0  3  0  0  0  0  0  0
  -25.9850  -26.8590   19.6380 C   0  0  0  0  0  3  0  0  0  0  0  0
  -24.8610  -27.7210   19.6100 C   0  0  0  0  0  3  0  0  0  0  0  0
  -23.6550  -29.8900   20.2670 C   0  0  0  0  0  2  0  0  0  0  0  0
  -24.6980  -31.1650   22.1770 N   0  0  0  0  0  0  0  0  0  0  0  0
  -23.5270  -32.2890   23.7810 O   0  0  0  0  0  0  0  0  0  0  0  0
  -22.7430  -29.5920   22.6110 C   0  0  0  0  0  0  0  0  0  0  0  0
  -21.4160  -29.4080   22.4810 N   0  0  0  0  0  0  0  0  0  0  0  0
  -23.4130  -28.9870   23.4520 O   0  0  0  0  0  0  0  0  0  0  0  0
  -20.9290  -29.9480   21.7790 H   0  0  0  0  0  0  0  0  0  0  0  0
  -18.0500  -28.1480   22.9710 C   0  0  0  0  0  0  0  0  0  0  0  0
  -20.6010  -28.4710   23.2610 C   0  0  0  0  0  3  0  0  0  0  0  0
  -20.7380  -27.0290   22.7180 C   0  0  0  0  0  2  0  0  0  0  0  0
  -19.6550  -26.6630   21.6970 C   0  0  0  0  0  2  0  0  0  0  0  0
  -18.2620  -26.7920   22.3220 C   0  0  0  0  0  2  0  0  0  0  0  0
  -19.1480  -28.9440   23.3970 C   0  0  0  0  0  0  0  0  0  0  0  0
  -18.8940  -30.2100   23.9670 C   0  0  0  0  0  3  0  0  0  0  0  0
  -17.5760  -30.6840   24.1130 C   0  0  0  0  0  3  0  0  0  0  0  0
  -16.4930  -29.8870   23.7000 C   0  0  0  0  0  3  0  0  0  0  0  0
  -16.7310  -28.6230   23.1360 C   0  0  0  0  0  3  0  0  0  0  0  0
  -25.8860  -32.6570   23.8820 C   0  0  0  0  0  3  0  0  0  0  0  0
  -25.5590  -34.0540   24.2140 N   0  0  0  0  0  0  0  0  0  0  0  0
  -25.8950  -35.1180   23.4720 C   0  0  0  0  0  0  0  0  0  0  0  0
  -26.5760  -35.0260   22.4480 O   0  0  0  0  0  0  0  0  0  0  0  0
  -24.9540  -34.1970   25.0090 H   0  0  0  0  0  0  0  0  0  0  0  0
  -24.1670  -36.9160   23.1180 C   0  0  0  0  0  1  0  0  0  0  0  0
  -25.3990  -36.5030   23.9380 C   0  0  0  0  0  3  0  0  0  0  0  0
  -27.5220  -37.3870   24.8040 C   0  0  0  0  0  1  0  0  0  0  0  0
  -26.4310  -37.5600   23.8480 N   0  0  0  0  0  0  0  0  0  0  0  0
  -26.0200  -38.4780   23.9970 H   0  0  0  0  0  0  0  0  0  0  0  0
  -26.4050  -31.9000   25.1680 C   0  0  1  0  0  0  0  0  0  0  0  0
  -25.3110  -31.6630   26.2360 C   0  0  0  0  0  1  0  0  0  0  0  0
  -26.9980  -30.5230   24.7950 C   0  0  0  0  0  1  0  0  0  0  0  0
  -27.5480  -32.7080   25.8260 C   0  0  0  0  0  1  0  0  0  0  0  0
  2  1  2  0
  2  3  1  0
  4 11  2  0
  5 10  1  0
  6  7  1  0
  6  5  1  0
  8  7  1  0
  8 16  1  0
  8  9  1  0
 10  4  1  0
 10  9  1  0
 12  4  1  0
 12  3  1  0
 13 14  2  0
 14 15  1  0
 14 33  1  0
 15 18  1  0
 16 13  1  0
 16 17  1  0
 17 15  2  0
 18 19  1  0
 19 20  2  0
 21 24  1  0
 21 20  1  0
 22 21  2  0
 23 22  1  0
 23 18  2  0
 24 25  1  0
 25 26  1  0
 26 27  2  0
 28 27  1  0
 28 32  1  0
 29 28  2  0
 30 25  2  0
 30 29  1  0
 31 30  1  0
 33 34  1  0
 34 37  1  0
 34 36  1  0
 35 33  2  0
 38 39  1  0
 38 13  1  0
 40 38  1  0
 41 43  1  0
 41 42  2  0
 42 45  1  0
 43 44  2  0
 44 45  1  0
 45 12  1  0
 46 47  1  0
 46  1  1  0
 48 47  1  0
 49 60  2  0
 50 48  1  0
 50 55  1  0
 51 59  1  0
 51 61  1  0
 52 58  1  0
 52 54  1  0
 53 59  1  0
 54 53  1  0
 55 54  2  0
 56 50  2  0
 57 56  1  0
 57 52  2  0
 58 51  1  0
 59 49  1  0
 61 63  2  0
 62 61  1  0
 64 62  1  0
 65 74  2  0
 65 70  1  0
 66 62  1  0
 66 70  1  0
 67 66  1  0
 68 69  1  0
 68 67  1  0
 69 65  1  0
 70 71  2  0
 71 72  1  0
 73 72  2  0
 74 73  1  0
 75 49  1  0
 75 76  1  0
 75 85  1  0
 76 79  1  0
 77 81  1  0
 77 76  1  0
 78 77  2  0
 81 80  1  0
 83 81  1  0
 83 84  1  0
 83 82  1  0
 85 88  1  1
 85 86  1  0
 87 85  1  0
M  ISO  4   4 100  12 100  47 101  48 101
M  END
>  <TORSDO>  (14) 
F 21

>  <SCORE>  (14) 
-14.860

>  <name>  (14) 
13

>  <ligand_id>  (14) 
13

>  <original_smiles>  (14) 
[H]C1=C([H])C([H])(N(C(=O)N2C([H])([H])C([H])([H])C([H])([H])C([H])(n3nc(-c4c([H])c([H])c(Oc5c([H])c([H])c(F)c([H])c5F)c([H])c4[H])c(C(=O)N([H])[H])c3N([H])[H])C2([H])[H])C([H])([H])C([H])([H])C([H])([H])C([H])([H])C([H])([H])Oc2c([H])c([H])c3c(c2[H])C([H])([H])N(C(=O)C([H])(N([H])C(=O)C([H])(N([H])C([H])([H])[H])C([H])([H])[H])C(C([H])([H])[H])(C([H])([H])[H])C([H])([H])[H])C([H])(C(=O)N([H])C2([H])c4c([H])c([H])c([H])c([H])c4C([H])([H])C([H])([H])C2([H])[H])C3([H])[H])C([H])([H])C1([H])[H]

>  <smiles>  (14) 
[H]C1=C([H])C([H])(N(C(=O)N2C([H])([H])C([H])([H])C([H])([H])C([H])(n3nc(-c4c([H])c([H])c(Oc5c([H])c([H])c(F)c([H])c5F)c([H])c4[H])c(C(=O)N([H])[H])c3N([H])[H])C2([H])[H])C([H])([H])C([H])([H])C([H])([H])C([H])([H])C([H])([H])Oc2c([H])c([H])c3c(c2[H])C([H])([H])N(C(=O)C([H])(N([H])C(=O)C([H])(N([H])C([H])([H])[H])C([H])([H])[H])C(C([H])([H])[H])(C([H])([H])[H])C([H])([H])[H])C([H])(C(=O)N([H])C2([H])c4c([H])c([H])c([H])c([H])c4C([H])([H])C([H])([H])C2([H])[H])C3([H])[H])C([H])([H])C1([H])[H]

$$$$
14:0:0
     RDKit          3D

 90 98  0  0  1  0  0  0  0  0999 V2000
  -29.1510  -20.3310   19.7840 C   0  0  0  0  0  2  0  0  0  0  0  0
  -30.3580  -22.4100   18.5480 C   0  0  0  0  0  1  0  0  0  0  0  0
  -30.2780  -22.4080   21.0410 C   0  0  0  0  0  1  0  0  0  0  0  0
  -29.4430  -22.2120   19.7650 C   0  0  2  0  0  0  0  0  0  0  0  0
  -28.3800  -23.7970   19.7240 C   0  0  0  0  0  2  0  0  0  0  0  0
  -28.5620  -25.5140   19.8010 O   0  0  0  0  0  0  0  0  0  0  0  0
  -25.0730  -31.5240   23.1320 C   0  0  0  0  0  0  0  0  0  0  0  0
  -27.5680  -26.6860   19.8240 C   0  0  0  0  0  0  0  0  0  0  0  0
  -23.8660  -30.2500   21.4070 C   0  0  0  0  0  3  0  0  0  0  0  0
  -25.2970  -28.6870   19.8950 C   0  0  0  0  0  0  0  0  0  0  0  0
  -26.4430  -30.3920   21.2870 C   0  0  0  0  0  2  0  0  0  0  0  0
  -26.4940  -29.0100   20.5440 C   0  0  0  0  0  0  0  0  0  0  0  0
  -27.6170  -28.0390   20.4770 C   0  0  0  0  0  3  0  0  0  0  0  0
  -26.3340  -26.5520   19.1400 C   0  0  0  0  0  3  0  0  0  0  0  0
  -25.2520  -27.4830   19.1710 C   0  0  0  0  0  3  0  0  0  0  0  0
  -24.0950  -29.6390   19.9960 C   0  0  0  0  0  2  0  0  0  0  0  0
  -25.1510  -30.7480   21.9980 N   0  0  0  0  0  0  0  0  0  0  0  0
  -23.9850  -31.8030   23.6630 O   0  0  0  0  0  0  0  0  0  0  0  0
  -23.1400  -29.2180   22.3130 C   0  0  0  0  0  0  0  0  0  0  0  0
  -21.8040  -29.1030   22.1910 N   0  0  0  0  0  0  0  0  0  0  0  0
  -23.7900  -28.5220   23.0970 O   0  0  0  0  0  0  0  0  0  0  0  0
  -21.3310  -29.7150   21.5390 H   0  0  0  0  0  0  0  0  0  0  0  0
  -18.3930  -27.9400   22.6450 C   0  0  0  0  0  0  0  0  0  0  0  0
  -20.9620  -28.1340   22.9010 C   0  0  0  0  0  3  0  0  0  0  0  0
  -21.0240  -26.7420   22.2260 C   0  0  0  0  0  2  0  0  0  0  0  0
  -19.9070  -26.5160   21.2020 C   0  0  0  0  0  2  0  0  0  0  0  0
  -18.5340  -26.6420   21.8680 C   0  0  0  0  0  2  0  0  0  0  0  0
  -19.5320  -28.6490   23.1160 C   0  0  0  0  0  0  0  0  0  0  0  0
  -19.3410  -29.8640   23.8080 C   0  0  0  0  0  3  0  0  0  0  0  0
  -18.0470  -30.3730   24.0310 C   0  0  0  0  0  3  0  0  0  0  0  0
  -16.9240  -29.6610   23.5730 C   0  0  0  0  0  3  0  0  0  0  0  0
  -17.0990  -28.4450   22.8880 C   0  0  0  0  0  3  0  0  0  0  0  0
  -26.3470  -32.1110   23.8140 C   0  0  0  0  0  3  0  0  0  0  0  0
  -26.8660  -31.2270   25.0160 C   0  0  1  0  0  0  0  0  0  0  0  0
  -25.7810  -30.9010   26.0690 C   0  0  0  0  0  1  0  0  0  0  0  0
  -27.4400  -29.8840   24.5090 C   0  0  0  0  0  1  0  0  0  0  0  0
  -28.0270  -31.9550   25.7360 C   0  0  0  0  0  1  0  0  0  0  0  0
  -26.0280  -33.4700   24.2920 N   0  0  0  0  0  0  0  0  0  0  0  0
  -26.3910  -34.6060   23.6800 C   0  0  0  0  0  0  0  0  0  0  0  0
  -27.0880  -34.6190   22.6640 O   0  0  0  0  0  0  0  0  0  0  0  0
  -25.4100  -33.5330   25.0880 H   0  0  0  0  0  0  0  0  0  0  0  0
  -24.7030  -36.4670   23.4980 C   0  0  0  0  0  1  0  0  0  0  0  0
  -25.9090  -35.9380   24.2920 C   0  0  0  0  0  3  0  0  0  0  0  0
  -28.0260  -36.6810   25.2970 C   0  0  0  0  0  1  0  0  0  0  0  0
  -26.9600  -36.9800   24.3430 N   0  0  0  0  0  0  0  0  0  0  0  0
  -26.5610  -37.8820   24.5880 H   0  0  0  0  0  0  0  0  0  0  0  0
  -30.0700  -18.6280   19.8110 C   0  0  0  0  0  2  0  0  0  0  0  0
  -30.6200  -15.6140   20.6300 C   0  0  0  0  0  0  0  0  0  0  0  0
  -30.9500  -12.9600   20.4520 C   0  0  0  0  0  2  0  0  0  0  0  0
  -30.2880  -12.2240   19.2510 C   0  0  0  0  0  2  0  0  0  0  0  0
  -28.8160  -11.8710   19.5390 C   0  0  0  0  0  2  0  0  0  0  0  0
  -28.0970  -13.0350   20.2500 C   0  0  0  0  0  3  0  0  0  0  0  0
  -28.9290  -13.6440   21.4110 C   0  0  0  0  0  2  0  0  0  0  0  0
  -30.1600  -14.2260   20.8080 N   0  0  0  0  0  0  0  0  0  0  0  0
  -31.8660  -15.5960   20.6820 O   0  0  0  0  0  0  0  0  0  0  0  0
  -29.8230  -16.9150   20.2280 N   0  0  0  0  0  0  0  0  0  0  0  0
  -26.5980  -18.3130   19.6640 C   0  0  0  0  0  0  0  0  0  0  0  0
  -26.5250  -17.2430   18.5880 C   0  0  0  0  0  3  0  0  0  0  0  0
  -27.5650  -17.9440   20.7740 C   0  0  0  0  0  2  0  0  0  0  0  0
  -27.6360  -16.2330   18.9340 C   0  0  0  0  0  3  0  0  0  0  0  0
  -28.3420  -16.7200   20.2400 C   0  0  0  0  0  3  0  0  0  0  0  0
  -25.9600  -19.3680   19.6310 O   0  0  0  0  0  0  0  0  0  0  0  0
  -25.6490  -13.6190   20.6730 C   0  0  0  0  0  0  0  0  0  0  0  0
  -24.5450  -12.8680   20.9380 C   0  0  0  0  0  0  0  0  0  0  0  0
  -25.0080  -11.5220   21.0330 C   0  0  0  0  0  0  0  0  0  0  0  0
  -26.7170  -12.7410   20.6130 N   0  0  0  0  0  0  0  0  0  0  0  0
  -26.3310  -11.4720   20.8990 N   0  0  0  0  0  0  0  0  0  0  0  0
  -24.2510  -10.2780   21.1850 C   0  0  0  0  0  0  0  0  0  0  0  0
  -24.6320   -9.2940   22.1220 C   0  0  0  0  0  3  0  0  0  0  0  0
  -23.8710   -8.1150   22.2660 C   0  0  0  0  0  3  0  0  0  0  0  0
  -22.7150   -7.9140   21.4750 C   0  0  0  0  0  0  0  0  0  0  0  0
  -22.3520   -8.8890   20.5290 C   0  0  0  0  0  3  0  0  0  0  0  0
  -23.1140  -10.0590   20.3820 C   0  0  0  0  0  3  0  0  0  0  0  0
  -21.9280   -6.7900   21.5300 O   0  0  0  0  0  0  0  0  0  0  0  0
  -21.8720   -6.0080   22.6560 C   0  0  0  0  0  0  0  0  0  0  0  0
  -21.5010   -6.5370   23.9120 C   0  0  0  0  0  3  0  0  0  0  0  0
  -21.3880   -5.6840   25.0270 C   0  0  0  0  0  3  0  0  0  0  0  0
  -21.6340   -4.3050   24.8880 C   0  0  0  0  0  0  0  0  0  0  0  0
  -21.9970   -3.7770   23.6360 C   0  0  0  0  0  3  0  0  0  0  0  0
  -22.1140   -4.6260   22.5230 C   0  0  0  0  0  0  0  0  0  0  0  0
  -22.4450   -4.1090   21.3150 F   0  0  0  0  0  0  0  0  0  0  0  0
  -21.5210   -3.4850   25.9580 F   0  0  0  0  0  0  0  0  0  0  0  0
  -23.1320  -13.3690   20.9870 C   0  0  0  0  0  0  0  0  0  0  0  0
  -22.2970  -12.7590   21.8180 N   0  0  0  0  0  0  0  0  0  0  0  0
  -22.7750  -14.3410   20.3200 O   0  0  0  0  0  0  0  0  0  0  0  0
  -22.6030  -11.9850   22.3880 H   0  0  0  0  0  0  0  0  0  0  0  0
  -21.3400  -13.0770   21.8910 H   0  0  0  0  0  0  0  0  0  0  0  0
  -25.7960  -14.9730   20.4420 N   0  0  0  0  0  0  0  0  0  0  0  0
  -24.9750  -15.5680   20.3920 H   0  0  0  0  0  0  0  0  0  0  0  0
  -26.6350  -15.4160   20.0980 H   0  0  0  0  0  0  0  0  0  0  0  0
  1 47  1  0
  4  2  1  6
  4  1  1  0
  4  3  1  0
  5  4  1  0
  5  6  1  0
  6  8  1  0
  7 18  2  0
  8 13  1  0
  9 17  1  0
  9 19  1  0
 10 16  1  0
 10 12  1  0
 11 17  1  0
 12 11  1  0
 13 12  2  0
 14 15  1  0
 14  8  2  0
 15 10  2  0
 16  9  1  0
 17  7  1  0
 19 21  2  0
 20 19  1  0
 22 20  1  0
 23 32  2  0
 23 28  1  0
 24 20  1  0
 24 28  1  0
 25 24  1  0
 26 27  1  0
 26 25  1  0
 27 23  1  0
 28 29  2  0
 29 30  1  0
 31 30  2  0
 32 31  1  0
 33  7  1  0
 33 38  1  0
 33 34  1  0
 34 37  1  1
 34 35  1  0
 36 34  1  0
 38 41  1  0
 39 38  1  0
 39 43  1  0
 40 39  2  0
 43 42  1  0
 43 45  1  0
 45 46  1  0
 45 44  1  0
 47 56  1  0
 48 55  2  0
 48 54  1  0
 49 54  1  0
 50 51  1  0
 50 49  1  0
 52 51  1  0
 52 66  1  0
 52 53  1  0
 54 53  1  0
 56 48  1  0
 57 59  1  0
 58 60  2  0
 58 57  1  0
 60 61  1  0
 61 56  1  0
 61 59  1  0
 62 57  2  0
 63 64  2  0
 64 83  1  0
 64 65  1  0
 65 68  1  0
 66 63  1  0
 66 67  1  0
 67 65  2  0
 68 69  1  0
 69 70  2  0
 71 74  1  0
 71 70  1  0
 72 71  2  0
 73 72  1  0
 73 68  2  0
 74 75  1  0
 75 76  1  0
 76 77  2  0
 78 77  1  0
 78 82  1  0
 79 78  2  0
 80 75  2  0
 80 79  1  0
 81 80  1  0
 83 84  1  0
 84 87  1  0
 84 86  1  0
 85 83  2  0
 88 63  1  0
 89 88  1  0
 90 88  1  0
M  ISO  4   5 101   6 101  48 100  56 100
M  END
>  <TORSDO>  (15) 
F 20

>  <SCORE>  (15) 
-11.712

>  <name>  (15) 
14

>  <ligand_id>  (15) 
14

>  <original_smiles>  (15) 
[H]c1c([H])c([H])c2c(c1[H])C([H])([H])C([H])([H])C([H])([H])C2([H])N([H])C(=O)C1([H])N(C(=O)C([H])(N([H])C(=O)C([H])(N([H])C([H])([H])[H])C([H])([H])[H])C(C([H])([H])[H])(C([H])([H])[H])C([H])([H])[H])C([H])([H])c2c([H])c(OC([H])([H])C(C([H])([H])[H])(C([H])([H])[H])C([H])([H])C([H])([H])N(C(=O)N3C([H])([H])C([H])([H])C([H])([H])C([H])(n4nc(-c5c([H])c([H])c(Oc6c([H])c([H])c(F)c([H])c6F)c([H])c5[H])c(C(=O)N([H])[H])c4N([H])[H])C3([H])[H])C3([H])C([H])([H])C(=O)C([H])([H])C3([H])[H])c([H])c([H])c2C1([H])[H]

>  <smiles>  (15) 
[H]c1c([H])c([H])c2c(c1[H])C([H])([H])C([H])([H])C([H])([H])C2([H])N([H])C(=O)C1([H])N(C(=O)C([H])(N([H])C(=O)C([H])(N([H])C([H])([H])[H])C([H])([H])[H])C(C([H])([H])[H])(C([H])([H])[H])C([H])([H])[H])C([H])([H])c2c([H])c(OC([H])([H])C(C([H])([H])[H])(C([H])([H])[H])C([H])([H])C([H])([H])N(C(=O)N3C([H])([H])C([H])([H])C([H])([H])C([H])(n4nc(-c5c([H])c([H])c(Oc6c([H])c([H])c(F)c([H])c6F)c([H])c5[H])c(C(=O)N([H])[H])c4N([H])[H])C3([H])[H])C3([H])C([H])([H])C(=O)C([H])([H])C3([H])[H])c([H])c([H])c2C1([H])[H]

$$$$
15:0:0
     RDKit          3D

 91 99  0  0  1  0  0  0  0  0999 V2000
  -29.0820  -21.2710   20.9440 C   0  0  0  0  0  2  0  0  0  0  0  0
  -28.9490  -20.4080   18.7860 C   0  0  0  0  0  2  0  0  0  0  0  0
  -29.0010  -19.7210   20.1900 C   0  0  0  0  0  3  0  0  0  0  0  0
  -28.8250  -22.7280   20.0660 C   0  0  0  0  0  3  0  0  0  0  0  0
  -28.3050  -21.8880   18.8360 C   0  0  0  0  0  3  0  0  0  0  0  0
  -28.4980  -22.5900   17.5520 N   0  0  0  0  0  4  0  0  0  0  0  0
  -29.4720  -22.7760   17.3830 H   0  0  0  0  0  0  0  0  0  0  0  0
  -28.0000  -23.4620   17.5310 H   0  0  0  0  0  0  0  0  0  0  0  0
  -28.1470  -22.0330   16.7950 H   0  0  0  0  0  0  0  0  0  0  0  0
  -30.5870  -18.3830   21.8380 C   0  0  0  0  0  1  0  0  0  0  0  0
  -29.9850  -18.2230   20.4350 C   0  0  0  0  0  3  0  0  0  0  0  0
  -30.4250  -15.3120   20.1960 C   0  0  0  0  0  0  0  0  0  0  0  0
  -30.3820  -12.8740   19.3080 C   0  0  0  0  0  2  0  0  0  0  0  0
  -29.4290  -12.6590   18.1070 C   0  0  0  0  0  2  0  0  0  0  0  0
  -27.9940  -12.3850   18.5920 C   0  0  0  0  0  2  0  0  0  0  0  0
  -27.5690  -13.3570   19.7210 C   0  0  0  0  0  3  0  0  0  0  0  0
  -28.6450  -13.5040   20.8170 C   0  0  0  0  0  2  0  0  0  0  0  0
  -29.8520  -14.0120   20.1450 N   0  0  0  0  0  0  0  0  0  0  0  0
  -31.6450  -15.3070   19.9750 O   0  0  0  0  0  0  0  0  0  0  0  0
  -29.6660  -16.5870   20.2970 N   0  0  0  0  0  0  0  0  0  0  0  0
  -28.6790  -16.3950   20.3840 H   0  0  0  0  0  0  0  0  0  0  0  0
  -25.2260  -13.9190   20.5530 C   0  0  0  0  0  0  0  0  0  0  0  0
  -24.1700  -13.1420   20.9380 C   0  0  0  0  0  0  0  0  0  0  0  0
  -24.6280  -11.7890   20.8720 C   0  0  0  0  0  0  0  0  0  0  0  0
  -26.2550  -13.0420   20.2650 N   0  0  0  0  0  0  0  0  0  0  0  0
  -25.9100  -11.7530   20.5260 N   0  0  0  0  0  0  0  0  0  0  0  0
  -23.8990  -10.5280   21.0570 C   0  0  0  0  0  0  0  0  0  0  0  0
  -24.3400   -9.5460   21.9730 C   0  0  0  0  0  3  0  0  0  0  0  0
  -23.6070   -8.3520   22.1470 C   0  0  0  0  0  3  0  0  0  0  0  0
  -22.4200   -8.1320   21.4090 C   0  0  0  0  0  0  0  0  0  0  0  0
  -22.0000   -9.1010   20.4820 C   0  0  0  0  0  3  0  0  0  0  0  0
  -22.7330  -10.2870   20.3050 C   0  0  0  0  0  3  0  0  0  0  0  0
  -21.6590   -6.9910   21.4950 O   0  0  0  0  0  0  0  0  0  0  0  0
  -21.6120   -6.2420   22.6440 C   0  0  0  0  0  0  0  0  0  0  0  0
  -21.1820   -6.7900   23.8740 C   0  0  0  0  0  3  0  0  0  0  0  0
  -21.0830   -5.9670   25.0140 C   0  0  0  0  0  3  0  0  0  0  0  0
  -21.4050   -4.5990   24.9260 C   0  0  0  0  0  0  0  0  0  0  0  0
  -21.8260   -4.0510   23.7020 C   0  0  0  0  0  3  0  0  0  0  0  0
  -21.9270   -4.8710   22.5640 C   0  0  0  0  0  0  0  0  0  0  0  0
  -22.3150   -4.3340   21.3820 F   0  0  0  0  0  0  0  0  0  0  0  0
  -21.3020   -3.8060   26.0180 F   0  0  0  0  0  0  0  0  0  0  0  0
  -22.7820  -13.6210   21.2500 C   0  0  0  0  0  0  0  0  0  0  0  0
  -22.0680  -12.9130   22.1170 N   0  0  0  0  0  0  0  0  0  0  0  0
  -22.3410  -14.6600   20.7590 O   0  0  0  0  0  0  0  0  0  0  0  0
  -22.4380  -12.0720   22.5360 H   0  0  0  0  0  0  0  0  0  0  0  0
  -21.1380  -13.2160   22.3670 H   0  0  0  0  0  0  0  0  0  0  0  0
  -25.3900  -15.2920   20.3930 N   0  0  0  0  0  0  0  0  0  0  0  0
  -24.6250  -15.9450   20.5310 H   0  0  0  0  0  0  0  0  0  0  0  0
  -26.2160  -15.7290   20.0070 H   0  0  0  0  0  0  0  0  0  0  0  0
  -27.9960  -24.2800   20.5030 C   0  0  0  0  0  2  0  0  0  0  0  0
  -28.2400  -25.9030   20.3120 O   0  0  0  0  0  0  0  0  0  0  0  0
  -24.6260  -31.8810   23.2390 C   0  0  0  0  0  0  0  0  0  0  0  0
  -27.2170  -26.9870   20.2910 C   0  0  0  0  0  0  0  0  0  0  0  0
  -23.4490  -30.4640   21.6070 C   0  0  0  0  0  3  0  0  0  0  0  0
  -24.9120  -28.8530   20.2130 C   0  0  0  0  0  0  0  0  0  0  0  0
  -26.0150  -30.6900   21.4720 C   0  0  0  0  0  2  0  0  0  0  0  0
  -26.0960  -29.2710   20.8350 C   0  0  0  0  0  0  0  0  0  0  0  0
  -27.2460  -28.3610   20.8460 C   0  0  0  0  0  3  0  0  0  0  0  0
  -26.0030  -26.7210   19.6210 C   0  0  0  0  0  3  0  0  0  0  0  0
  -24.8900  -27.5980   19.5850 C   0  0  0  0  0  3  0  0  0  0  0  0
  -23.6910  -29.7700   20.2390 C   0  0  0  0  0  2  0  0  0  0  0  0
  -24.7180  -31.0380   22.1600 N   0  0  0  0  0  0  0  0  0  0  0  0
  -23.5310  -32.1700   23.7470 O   0  0  0  0  0  0  0  0  0  0  0  0
  -22.7550  -29.4720   22.5790 C   0  0  0  0  0  0  0  0  0  0  0  0
  -21.4270  -29.3000   22.4480 N   0  0  0  0  0  0  0  0  0  0  0  0
  -23.4190  -28.8580   23.4180 O   0  0  0  0  0  0  0  0  0  0  0  0
  -20.9440  -29.8500   21.7510 H   0  0  0  0  0  0  0  0  0  0  0  0
  -18.0450  -28.0800   22.9480 C   0  0  0  0  0  0  0  0  0  0  0  0
  -20.6030  -28.3640   23.2220 C   0  0  0  0  0  3  0  0  0  0  0  0
  -20.7160  -26.9280   22.6610 C   0  0  0  0  0  2  0  0  0  0  0  0
  -19.6210  -26.5890   21.6450 C   0  0  0  0  0  2  0  0  0  0  0  0
  -18.2340  -26.7290   22.2800 C   0  0  0  0  0  2  0  0  0  0  0  0
  -19.1580  -28.8550   23.3770 C   0  0  0  0  0  0  0  0  0  0  0  0
  -18.9260  -30.1180   23.9650 C   0  0  0  0  0  3  0  0  0  0  0  0
  -17.6150  -30.6070   24.1260 C   0  0  0  0  0  3  0  0  0  0  0  0
  -16.5200  -29.8310   23.7130 C   0  0  0  0  0  3  0  0  0  0  0  0
  -16.7350  -28.5690   23.1310 C   0  0  0  0  0  3  0  0  0  0  0  0
  -25.8890  -32.5360   23.8750 C   0  0  0  0  0  3  0  0  0  0  0  0
  -26.3850  -31.7920   25.1760 C   0  0  1  0  0  0  0  0  0  0  0  0
  -25.2760  -31.5670   26.2310 C   0  0  0  0  0  1  0  0  0  0  0  0
  -26.9850  -30.4110   24.8270 C   0  0  0  0  0  1  0  0  0  0  0  0
  -27.5240  -32.6020   25.8430 C   0  0  0  0  0  1  0  0  0  0  0  0
  -25.5650  -33.9390   24.1870 N   0  0  0  0  0  0  0  0  0  0  0  0
  -25.8980  -34.9920   23.4310 C   0  0  0  0  0  0  0  0  0  0  0  0
  -26.5750  -34.8880   22.4060 O   0  0  0  0  0  0  0  0  0  0  0  0
  -24.9690  -34.0920   24.9880 H   0  0  0  0  0  0  0  0  0  0  0  0
  -24.1710  -36.7870   23.0590 C   0  0  0  0  0  1  0  0  0  0  0  0
  -25.4050  -36.3850   23.8810 C   0  0  0  0  0  3  0  0  0  0  0  0
  -27.5290  -37.2830   24.7300 C   0  0  0  0  0  1  0  0  0  0  0  0
  -26.4370  -37.4390   23.7730 N   0  0  0  0  0  0  0  0  0  0  0  0
  -26.0270  -38.3600   23.9090 H   0  0  0  0  0  0  0  0  0  0  0  0
  2  5  1  0
  2  3  1  0
  3 11  1  0
  3  1  1  0
  4 50  1  0
  4  1  1  0
  5  6  1  0
  5  4  1  0
  7  6  1  0
  8  6  1  0
  9  6  1  0
 11 10  1  0
 12 20  1  0
 13 18  1  0
 14 15  1  0
 14 13  1  0
 16 15  1  0
 16 25  1  0
 16 17  1  0
 18 12  1  0
 18 17  1  0
 19 12  2  0
 20 21  1  0
 20 11  1  0
 22 23  2  0
 23 42  1  0
 24 23  1  0
 24 27  1  0
 25 26  1  0
 25 22  1  0
 26 24  2  0
 27 28  1  0
 28 29  2  0
 30 33  1  0
 30 29  1  0
 31 30  2  0
 32 31  1  0
 32 27  2  0
 33 34  1  0
 34 35  1  0
 35 36  2  0
 37 36  1  0
 37 41  1  0
 38 37  2  0
 39 34  2  0
 39 38  1  0
 40 39  1  0
 42 43  1  0
 43 46  1  0
 43 45  1  0
 44 42  2  0
 47 48  1  0
 47 22  1  0
 49 47  1  0
 51 50  1  0
 52 63  2  0
 53 51  1  0
 53 58  1  0
 54 62  1  0
 54 64  1  0
 55 61  1  0
 55 57  1  0
 56 62  1  0
 57 58  2  0
 57 56  1  0
 59 53  2  0
 60 59  1  0
 60 55  2  0
 61 54  1  0
 62 52  1  0
 64 66  2  0
 65 64  1  0
 67 65  1  0
 68 77  2  0
 68 73  1  0
 69 65  1  0
 69 73  1  0
 70 69  1  0
 71 72  1  0
 71 70  1  0
 72 68  1  0
 73 74  2  0
 74 75  1  0
 76 75  2  0
 77 76  1  0
 78 52  1  0
 78 83  1  0
 78 79  1  0
 79 82  1  1
 79 80  1  0
 81 79  1  0
 83 86  1  0
 84 88  1  0
 84 83  1  0
 85 84  2  0
 88 87  1  0
 90 88  1  0
 90 91  1  0
 90 89  1  0
M  ISO  4  12 100  20 100  50 101  51 101
M  END
>  <TORSDO>  (16) 
F 19

>  <SCORE>  (16) 
-16.354

>  <name>  (16) 
15

>  <ligand_id>  (16) 
15

>  <original_smiles>  (16) 
[H]c1c([H])c([H])c2c(c1[H])C([H])([H])C([H])([H])C([H])([H])C2([H])N([H])C(=O)C1([H])N(C(=O)C([H])(N([H])C(=O)C([H])(N([H])C([H])([H])[H])C([H])([H])[H])C(C([H])([H])[H])(C([H])([H])[H])C([H])([H])[H])C([H])([H])c2c([H])c(OC([H])([H])C3([H])C([H])([H])C([H])(C([H])(N([H])C(=O)N4C([H])([H])C([H])([H])C([H])([H])C([H])(n5nc(-c6c([H])c([H])c(Oc7c([H])c([H])c(F)c([H])c7F)c([H])c6[H])c(C(=O)N([H])[H])c5N([H])[H])C4([H])[H])C([H])([H])[H])C([H])([H])C3([H])[N+]([H])([H])[H])c([H])c([H])c2C1([H])[H]

>  <smiles>  (16) 
[H]c1c([H])c([H])c2c(c1[H])C([H])([H])C([H])([H])C([H])([H])C2([H])N([H])C(=O)C1([H])N(C(=O)C([H])(N([H])C(=O)C([H])(N([H])C([H])([H])[H])C([H])([H])[H])C(C([H])([H])[H])(C([H])([H])[H])C([H])([H])[H])C([H])([H])c2c([H])c(OC([H])([H])C3([H])C([H])([H])C([H])(C([H])(N([H])C(=O)N4C([H])([H])C([H])([H])C([H])([H])C([H])(n5nc(-c6c([H])c([H])c(Oc7c([H])c([H])c(F)c([H])c7F)c([H])c6[H])c(C(=O)N([H])[H])c5N([H])[H])C4([H])[H])C([H])([H])[H])C([H])([H])C3([H])[N+]([H])([H])[H])c([H])c([H])c2C1([H])[H]

$$$$
16:0:0
     RDKit          3D

 90 98  0  0  1  0  0  0  0  0999 V2000
  -29.0040  -20.7840   21.5240 C   0  0  0  0  0  2  0  0  0  0  0  0
  -29.2770  -21.9200   20.4630 C   0  0  0  0  0  3  0  0  0  0  0  0
  -29.8570  -19.7340   20.6810 C   0  0  0  0  0  3  0  0  0  0  0  0
  -29.3310  -20.6530   19.5790 N   0  0  0  0  0  4  0  0  0  0  0  0
  -29.9690  -20.7400   18.8030 H   0  0  0  0  0  0  0  0  0  0  0  0
  -28.4150  -20.3840   19.2580 H   0  0  0  0  0  0  0  0  0  0  0  0
  -30.3210  -17.6990   22.2180 C   0  0  0  0  0  1  0  0  0  0  0  0
  -29.7120  -18.0290   20.8460 C   0  0  0  0  0  3  0  0  0  0  0  0
  -30.2320  -16.7850   19.7990 C   0  0  0  0  0  3  0  0  0  0  0  0
  -30.8450  -15.2190   20.1000 C   0  0  0  0  0  0  0  0  0  0  0  0
  -30.6350  -12.8800   19.1270 C   0  0  0  0  0  2  0  0  0  0  0  0
  -29.6760  -12.8500   17.9120 C   0  0  0  0  0  2  0  0  0  0  0  0
  -28.2140  -12.6760   18.3710 C   0  0  0  0  0  2  0  0  0  0  0  0
  -27.8500  -13.5560   19.5950 C   0  0  0  0  0  3  0  0  0  0  0  0
  -28.9400  -13.5570   20.6810 C   0  0  0  0  0  2  0  0  0  0  0  0
  -30.1900  -13.9790   20.0380 N   0  0  0  0  0  0  0  0  0  0  0  0
  -32.0740  -15.1310   20.0150 O   0  0  0  0  0  0  0  0  0  0  0  0
  -25.4920  -14.1420   20.3680 C   0  0  0  0  0  0  0  0  0  0  0  0
  -24.4260  -13.3700   20.7380 C   0  0  0  0  0  0  0  0  0  0  0  0
  -24.8870  -12.0180   20.7060 C   0  0  0  0  0  0  0  0  0  0  0  0
  -26.5280  -13.2580   20.1220 N   0  0  0  0  0  0  0  0  0  0  0  0
  -26.1770  -11.9760   20.3960 N   0  0  0  0  0  0  0  0  0  0  0  0
  -24.1570  -10.7580   20.8970 C   0  0  0  0  0  0  0  0  0  0  0  0
  -24.5550   -9.8160   21.8690 C   0  0  0  0  0  3  0  0  0  0  0  0
  -23.8280   -8.6210   22.0480 C   0  0  0  0  0  3  0  0  0  0  0  0
  -22.6860   -8.3580   21.2550 C   0  0  0  0  0  0  0  0  0  0  0  0
  -22.3090   -9.2880   20.2670 C   0  0  0  0  0  3  0  0  0  0  0  0
  -23.0390  -10.4760   20.0860 C   0  0  0  0  0  3  0  0  0  0  0  0
  -21.9350   -7.2110   21.3360 O   0  0  0  0  0  0  0  0  0  0  0  0
  -21.7830   -6.5330   22.5210 C   0  0  0  0  0  0  0  0  0  0  0  0
  -21.2330   -7.1480   23.6660 C   0  0  0  0  0  3  0  0  0  0  0  0
  -21.0350   -6.3970   24.8420 C   0  0  0  0  0  3  0  0  0  0  0  0
  -21.3780   -5.0310   24.8720 C   0  0  0  0  0  0  0  0  0  0  0  0
  -21.9210   -4.4160   23.7310 C   0  0  0  0  0  3  0  0  0  0  0  0
  -22.1230   -5.1660   22.5580 C   0  0  0  0  0  0  0  0  0  0  0  0
  -22.6270   -4.5640   21.4550 F   0  0  0  0  0  0  0  0  0  0  0  0
  -21.1770   -4.3070   25.9990 F   0  0  0  0  0  0  0  0  0  0  0  0
  -23.0320  -13.8510   21.0120 C   0  0  0  0  0  0  0  0  0  0  0  0
  -22.3130  -13.1620   21.8880 N   0  0  0  0  0  0  0  0  0  0  0  0
  -22.5920  -14.8690   20.4810 O   0  0  0  0  0  0  0  0  0  0  0  0
  -22.6860  -12.3380   22.3390 H   0  0  0  0  0  0  0  0  0  0  0  0
  -21.3750  -13.4600   22.1140 H   0  0  0  0  0  0  0  0  0  0  0  0
  -25.6590  -15.5160   20.1930 N   0  0  0  0  0  0  0  0  0  0  0  0
  -24.9000  -16.1800   20.3030 H   0  0  0  0  0  0  0  0  0  0  0  0
  -26.5180  -15.9490   19.8840 H   0  0  0  0  0  0  0  0  0  0  0  0
  -29.7250  -17.7390   17.4090 C   0  0  0  0  0  1  0  0  0  0  0  0
  -29.3260  -16.7710   18.5350 C   0  0  0  0  0  2  0  0  0  0  0  0
  -28.3640  -23.2920   20.0030 C   0  0  0  0  0  2  0  0  0  0  0  0
  -28.3120  -24.8200   20.7480 C   0  0  0  0  0  2  0  0  0  0  0  0
  -28.2840  -26.2770   20.1600 O   0  0  0  0  0  0  0  0  0  0  0  0
  -24.6130  -31.9450   23.2070 C   0  0  0  0  0  0  0  0  0  0  0  0
  -27.1880  -27.2140   20.2080 C   0  0  0  0  0  0  0  0  0  0  0  0
  -23.4040  -30.5270   21.5940 C   0  0  0  0  0  3  0  0  0  0  0  0
  -24.8430  -28.9390   20.1760 C   0  0  0  0  0  0  0  0  0  0  0  0
  -25.9480  -30.8160   21.3860 C   0  0  0  0  0  2  0  0  0  0  0  0
  -26.0280  -29.4100   20.7590 C   0  0  0  0  0  0  0  0  0  0  0  0
  -27.2020  -28.5640   20.7490 C   0  0  0  0  0  3  0  0  0  0  0  0
  -25.9740  -26.8370   19.5980 C   0  0  0  0  0  3  0  0  0  0  0  0
  -24.8300  -27.6660   19.5790 C   0  0  0  0  0  3  0  0  0  0  0  0
  -23.6130  -29.8310   20.2230 C   0  0  0  0  0  2  0  0  0  0  0  0
  -24.6770  -31.1180   22.1200 N   0  0  0  0  0  0  0  0  0  0  0  0
  -23.5330  -32.2260   23.7470 O   0  0  0  0  0  0  0  0  0  0  0  0
  -22.7430  -29.5260   22.5770 C   0  0  0  0  0  0  0  0  0  0  0  0
  -21.4170  -29.3300   22.4550 N   0  0  0  0  0  0  0  0  0  0  0  0
  -23.4240  -28.9270   23.4110 O   0  0  0  0  0  0  0  0  0  0  0  0
  -20.9220  -29.8680   21.7570 H   0  0  0  0  0  0  0  0  0  0  0  0
  -18.0620  -28.0640   22.9760 C   0  0  0  0  0  0  0  0  0  0  0  0
  -20.6130  -28.3890   23.2420 C   0  0  0  0  0  3  0  0  0  0  0  0
  -20.7500  -26.9490   22.6940 C   0  0  0  0  0  2  0  0  0  0  0  0
  -19.6570  -26.5830   21.6850 C   0  0  0  0  0  2  0  0  0  0  0  0
  -18.2710  -26.7070   22.3240 C   0  0  0  0  0  2  0  0  0  0  0  0
  -19.1620  -28.8590   23.3930 C   0  0  0  0  0  0  0  0  0  0  0  0
  -18.9110  -30.1250   23.9670 C   0  0  0  0  0  3  0  0  0  0  0  0
  -17.5950  -30.5970   24.1250 C   0  0  0  0  0  3  0  0  0  0  0  0
  -16.5100  -29.8000   23.7220 C   0  0  0  0  0  3  0  0  0  0  0  0
  -16.7450  -28.5350   23.1550 C   0  0  0  0  0  3  0  0  0  0  0  0
  -25.8940  -32.5950   23.8150 C   0  0  0  0  0  3  0  0  0  0  0  0
  -25.5730  -33.9890   24.1580 N   0  0  0  0  0  0  0  0  0  0  0  0
  -25.8910  -35.0530   23.4080 C   0  0  0  0  0  0  0  0  0  0  0  0
  -26.5530  -34.9670   22.3720 O   0  0  0  0  0  0  0  0  0  0  0  0
  -24.9860  -34.1300   24.9670 H   0  0  0  0  0  0  0  0  0  0  0  0
  -24.1560  -36.8470   23.0780 C   0  0  0  0  0  1  0  0  0  0  0  0
  -25.4000  -36.4360   23.8830 C   0  0  0  0  0  3  0  0  0  0  0  0
  -27.5290  -37.3230   24.7290 C   0  0  0  0  0  1  0  0  0  0  0  0
  -26.4280  -37.4950   23.7810 N   0  0  0  0  0  0  0  0  0  0  0  0
  -26.0190  -38.4120   23.9350 H   0  0  0  0  0  0  0  0  0  0  0  0
  -26.4380  -31.8290   25.0840 C   0  0  1  0  0  0  0  0  0  0  0  0
  -25.3590  -31.5550   26.1570 C   0  0  0  0  0  1  0  0  0  0  0  0
  -27.0500  -30.4690   24.6790 C   0  0  0  0  0  1  0  0  0  0  0  0
  -27.5790  -32.6440   25.7390 C   0  0  0  0  0  1  0  0  0  0  0  0
  2 48  1  0
  2  1  1  0
  3  8  1  0
  3  1  1  0
  4  2  1  0
  4  3  1  0
  5  4  1  0
  6  4  1  0
  8  7  1  0
  9 47  1  0
  9 10  1  0
  9  8  1  0
 11 16  1  0
 12 13  1  0
 12 11  1  0
 14 13  1  0
 14 21  1  0
 14 15  1  0
 16 10  1  0
 16 15  1  0
 17 10  2  0
 18 19  2  0
 19 38  1  0
 20 19  1  0
 20 23  1  0
 21 18  1  0
 21 22  1  0
 22 20  2  0
 23 24  1  0
 24 25  2  0
 26 29  1  0
 26 25  1  0
 27 26  2  0
 28 27  1  0
 28 23  2  0
 29 30  1  0
 30 35  2  0
 30 31  1  0
 31 32  2  0
 32 33  1  0
 33 37  1  0
 34 33  2  0
 35 34  1  0
 36 35  1  0
 38 39  1  0
 39 42  1  0
 39 41  1  0
 40 38  2  0
 43 44  1  0
 43 18  1  0
 45 43  1  0
 46 47  1  0
 48 49  1  0
 50 52  1  0
 50 49  1  0
 51 62  2  0
 52 57  1  0
 53 61  1  0
 53 63  1  0
 54 60  1  0
 54 56  1  0
 55 61  1  0
 56 55  1  0
 57 56  2  0
 58 52  2  0
 59 58  1  0
 59 54  2  0
 60 53  1  0
 61 51  1  0
 63 65  2  0
 64 63  1  0
 66 64  1  0
 67 76  2  0
 67 72  1  0
 68 64  1  0
 68 72  1  0
 69 68  1  0
 70 71  1  0
 70 69  1  0
 71 67  1  0
 72 73  2  0
 73 74  1  0
 75 74  2  0
 76 75  1  0
 77 51  1  0
 77 78  1  0
 77 87  1  0
 78 81  1  0
 79 83  1  0
 79 78  1  0
 80 79  2  0
 83 82  1  0
 85 83  1  0
 85 86  1  0
 85 84  1  0
 87 90  1  1
 87 88  1  0
 89 87  1  0
M  ISO  4   9 100  10 100  49 101  50 101
M  END
>  <TORSDO>  (17) 
F 21

>  <SCORE>  (17) 
-14.777

>  <name>  (17) 
16

>  <ligand_id>  (17) 
16

>  <original_smiles>  (17) 
[H]c1c([H])c([H])c2c(c1[H])C([H])([H])C([H])([H])C([H])([H])C2([H])N([H])C(=O)C1([H])N(C(=O)C([H])(N([H])C(=O)C([H])(N([H])C([H])([H])[H])C([H])([H])[H])C(C([H])([H])[H])(C([H])([H])[H])C([H])([H])[H])C([H])([H])c2c([H])c(OC([H])([H])C([H])([H])C3([H])C([H])([H])C([H])(C([H])(C([H])([H])[H])C([H])(C(=O)N4C([H])([H])C([H])([H])C([H])([H])C([H])(n5nc(-c6c([H])c([H])c(Oc7c([H])c([H])c(F)c([H])c7F)c([H])c6[H])c(C(=O)N([H])[H])c5N([H])[H])C4([H])[H])C([H])([H])C([H])([H])[H])[N+]3([H])[H])c([H])c([H])c2C1([H])[H]

>  <smiles>  (17) 
[H]c1c([H])c([H])c2c(c1[H])C([H])([H])C([H])([H])C([H])([H])C2([H])N([H])C(=O)C1([H])N(C(=O)C([H])(N([H])C(=O)C([H])(N([H])C([H])([H])[H])C([H])([H])[H])C(C([H])([H])[H])(C([H])([H])[H])C([H])([H])[H])C([H])([H])c2c([H])c(OC([H])([H])C([H])([H])C3([H])C([H])([H])C([H])(C([H])(C([H])([H])[H])C([H])(C(=O)N4C([H])([H])C([H])([H])C([H])([H])C([H])(n5nc(-c6c([H])c([H])c(Oc7c([H])c([H])c(F)c([H])c7F)c([H])c6[H])c(C(=O)N([H])[H])c5N([H])[H])C4([H])[H])C([H])([H])C([H])([H])[H])[N+]3([H])[H])c([H])c([H])c2C1([H])[H]

$$$$
17:0:0
     RDKit          3D

 88 97  0  0  1  0  0  0  0  0999 V2000
  -29.1190  -21.8450   19.9340 C   0  0  0  0  0  0  0  0  0  0  0  0
  -29.8440  -21.9140   18.9390 O   0  0  0  0  0  0  0  0  0  0  0  0
  -27.2200  -23.7740   20.4550 C   0  0  0  0  0  2  0  0  0  0  0  0
  -28.6540  -23.2930   20.5860 C   0  0  0  0  0  3  0  0  0  0  0  0
  -28.2230  -24.7090   19.8150 C   0  0  0  0  0  3  0  0  0  0  0  0
  -28.2560  -26.1850   20.3290 O   0  0  0  0  0  0  0  0  0  0  0  0
  -24.6270  -31.8730   23.2440 C   0  0  0  0  0  0  0  0  0  0  0  0
  -27.1980  -27.1580   20.2120 C   0  0  0  0  0  0  0  0  0  0  0  0
  -23.4260  -30.4830   21.5990 C   0  0  0  0  0  3  0  0  0  0  0  0
  -24.8730  -28.9050   20.1690 C   0  0  0  0  0  0  0  0  0  0  0  0
  -25.9790  -30.7410   21.4410 C   0  0  0  0  0  2  0  0  0  0  0  0
  -26.0480  -29.3500   20.7850 C   0  0  0  0  0  0  0  0  0  0  0  0
  -27.2080  -28.4890   20.7930 C   0  0  0  0  0  3  0  0  0  0  0  0
  -26.0010  -26.8130   19.5480 C   0  0  0  0  0  3  0  0  0  0  0  0
  -24.8620  -27.6510   19.5360 C   0  0  0  0  0  3  0  0  0  0  0  0
  -23.6460  -29.8030   20.2190 C   0  0  0  0  0  2  0  0  0  0  0  0
  -24.6970  -31.0540   22.1500 N   0  0  0  0  0  0  0  0  0  0  0  0
  -23.5400  -32.1600   23.7700 O   0  0  0  0  0  0  0  0  0  0  0  0
  -22.7430  -29.4770   22.5590 C   0  0  0  0  0  0  0  0  0  0  0  0
  -21.4140  -29.3140   22.4320 N   0  0  0  0  0  0  0  0  0  0  0  0
  -23.4110  -28.8470   23.3840 O   0  0  0  0  0  0  0  0  0  0  0  0
  -20.9310  -29.8730   21.7430 H   0  0  0  0  0  0  0  0  0  0  0  0
  -18.0240  -28.1400   22.9400 C   0  0  0  0  0  0  0  0  0  0  0  0
  -20.5870  -28.3800   23.2000 C   0  0  0  0  0  3  0  0  0  0  0  0
  -20.6730  -26.9500   22.6170 C   0  0  0  0  0  2  0  0  0  0  0  0
  -19.5660  -26.6420   21.6040 C   0  0  0  0  0  2  0  0  0  0  0  0
  -18.1870  -26.7950   22.2530 C   0  0  0  0  0  2  0  0  0  0  0  0
  -19.1510  -28.8910   23.3700 C   0  0  0  0  0  0  0  0  0  0  0  0
  -18.9430  -30.1500   23.9730 C   0  0  0  0  0  3  0  0  0  0  0  0
  -17.6430  -30.6590   24.1500 C   0  0  0  0  0  3  0  0  0  0  0  0
  -16.5310  -29.9050   23.7350 C   0  0  0  0  0  3  0  0  0  0  0  0
  -16.7230  -28.6480   23.1360 C   0  0  0  0  0  3  0  0  0  0  0  0
  -25.9050  -32.5040   23.8760 C   0  0  0  0  0  3  0  0  0  0  0  0
  -25.6010  -33.9070   24.1990 N   0  0  0  0  0  0  0  0  0  0  0  0
  -25.9320  -34.9570   23.4380 C   0  0  0  0  0  0  0  0  0  0  0  0
  -26.5940  -34.8470   22.4020 O   0  0  0  0  0  0  0  0  0  0  0  0
  -25.0130  -34.0650   25.0050 H   0  0  0  0  0  0  0  0  0  0  0  0
  -24.2080  -36.7600   23.0990 C   0  0  0  0  0  1  0  0  0  0  0  0
  -25.4570  -36.3500   23.8960 C   0  0  0  0  0  3  0  0  0  0  0  0
  -27.6000  -37.2350   24.7060 C   0  0  0  0  0  1  0  0  0  0  0  0
  -26.4920  -37.3990   23.7680 N   0  0  0  0  0  0  0  0  0  0  0  0
  -26.0910  -38.3210   23.9110 H   0  0  0  0  0  0  0  0  0  0  0  0
  -26.4030  -31.7390   25.1640 C   0  0  1  0  0  0  0  0  0  0  0  0
  -25.2960  -31.5180   26.2230 C   0  0  0  0  0  1  0  0  0  0  0  0
  -26.9810  -30.3550   24.7940 C   0  0  0  0  0  1  0  0  0  0  0  0
  -27.5520  -32.5310   25.8330 C   0  0  0  0  0  1  0  0  0  0  0  0
  -28.7670  -20.3030   20.4380 C   0  0  0  0  0  2  0  0  0  0  0  0
  -30.5960  -14.9760   20.0250 C   0  0  0  0  0  0  0  0  0  0  0  0
  -30.3580  -12.6560   19.0290 C   0  0  0  0  0  2  0  0  0  0  0  0
  -29.3650  -12.6530   17.8460 C   0  0  0  0  0  2  0  0  0  0  0  0
  -27.9300  -12.4360   18.3570 C   0  0  0  0  0  2  0  0  0  0  0  0
  -27.5960  -13.3310   19.5800 C   0  0  0  0  0  3  0  0  0  0  0  0
  -28.7120  -13.3260   20.6460 C   0  0  0  0  0  2  0  0  0  0  0  0
  -29.9490  -13.7390   19.9750 N   0  0  0  0  0  0  0  0  0  0  0  0
  -31.7570  -14.9960   19.5970 O   0  0  0  0  0  0  0  0  0  0  0  0
  -30.2180  -18.3980   21.7040 C   0  0  0  0  0  2  0  0  0  0  0  0
  -30.7380  -16.9300   21.5500 C   0  0  0  0  0  2  0  0  0  0  0  0
  -29.3260  -17.3990   19.7860 C   0  0  0  0  0  2  0  0  0  0  0  0
  -29.7360  -18.9050   20.3390 C   0  0  0  0  0  3  0  0  0  0  0  0
  -29.9970  -16.1880   20.5060 N   0  0  0  0  0  0  0  0  0  0  0  0
  -25.2650  -13.8830   20.4700 C   0  0  0  0  0  0  0  0  0  0  0  0
  -24.2220  -13.0970   20.8740 C   0  0  0  0  0  0  0  0  0  0  0  0
  -24.6820  -11.7480   20.7790 C   0  0  0  0  0  0  0  0  0  0  0  0
  -26.2910  -13.0140   20.1460 N   0  0  0  0  0  0  0  0  0  0  0  0
  -25.9550  -11.7220   20.3990 N   0  0  0  0  0  0  0  0  0  0  0  0
  -23.9660  -10.4800   20.9740 C   0  0  0  0  0  0  0  0  0  0  0  0
  -24.4130   -9.5100   21.8970 C   0  0  0  0  0  3  0  0  0  0  0  0
  -23.6940   -8.3090   22.0800 C   0  0  0  0  0  3  0  0  0  0  0  0
  -22.5120   -8.0690   21.3390 C   0  0  0  0  0  0  0  0  0  0  0  0
  -22.0830   -9.0280   20.4040 C   0  0  0  0  0  3  0  0  0  0  0  0
  -22.8040  -10.2200   20.2180 C   0  0  0  0  0  3  0  0  0  0  0  0
  -21.7630   -6.9210   21.4320 O   0  0  0  0  0  0  0  0  0  0  0  0
  -21.6900   -6.2010   22.5970 C   0  0  0  0  0  0  0  0  0  0  0  0
  -21.2020   -6.7670   23.7940 C   0  0  0  0  0  3  0  0  0  0  0  0
  -21.0800   -5.9710   24.9510 C   0  0  0  0  0  3  0  0  0  0  0  0
  -21.4360   -4.6100   24.9100 C   0  0  0  0  0  0  0  0  0  0  0  0
  -21.9180   -4.0430   23.7170 C   0  0  0  0  0  3  0  0  0  0  0  0
  -22.0410   -4.8360   22.5630 C   0  0  0  0  0  0  0  0  0  0  0  0
  -22.4850   -4.2790   21.4110 F   0  0  0  0  0  0  0  0  0  0  0  0
  -21.3120   -3.8430   26.0200 F   0  0  0  0  0  0  0  0  0  0  0  0
  -22.8430  -13.5660   21.2350 C   0  0  0  0  0  0  0  0  0  0  0  0
  -22.1610  -12.8430   22.1160 N   0  0  0  0  0  0  0  0  0  0  0  0
  -22.3810  -14.6080   20.7710 O   0  0  0  0  0  0  0  0  0  0  0  0
  -22.5480  -11.9990   22.5110 H   0  0  0  0  0  0  0  0  0  0  0  0
  -21.2370  -13.1380   22.4000 H   0  0  0  0  0  0  0  0  0  0  0  0
  -25.4210  -15.2580   20.3250 N   0  0  0  0  0  0  0  0  0  0  0  0
  -24.6670  -15.9120   20.5070 H   0  0  0  0  0  0  0  0  0  0  0  0
  -26.2630  -15.7070   19.9850 H   0  0  0  0  0  0  0  0  0  0  0  0
  1 47  1  0
  2  1  2  0
  3  4  1  0
  4  1  1  0
  5  6  1  0
  5  3  1  0
  5  4  1  0
  7 18  2  0
  8  6  1  0
  8 13  1  0
  9 17  1  0
  9 19  1  0
 10 16  1  0
 10 12  1  0
 11 17  1  0
 12 13  2  0
 12 11  1  0
 14  8  2  0
 15 14  1  0
 15 10  2  0
 16  9  1  0
 17  7  1  0
 19 21  2  0
 20 19  1  0
 22 20  1  0
 23 32  2  0
 23 28  1  0
 24 20  1  0
 24 28  1  0
 25 24  1  0
 26 27  1  0
 26 25  1  0
 27 23  1  0
 28 29  2  0
 29 30  1  0
 31 30  2  0
 32 31  1  0
 33  7  1  0
 33 34  1  0
 33 43  1  0
 34 37  1  0
 35 39  1  0
 35 34  1  0
 36 35  2  0
 39 38  1  0
 41 39  1  0
 41 42  1  0
 41 40  1  0
 43 46  1  1
 43 44  1  0
 45 43  1  0
 48 60  1  0
 49 54  1  0
 50 51  1  0
 50 49  1  0
 52 51  1  0
 52 64  1  0
 52 53  1  0
 54 48  1  0
 54 53  1  0
 55 48  2  0
 57 56  1  0
 58 59  1  0
 58 60  1  0
 59 47  1  0
 59 56  1  0
 60 57  1  0
 61 62  2  0
 62 81  1  0
 63 62  1  0
 63 66  1  0
 64 65  1  0
 64 61  1  0
 65 63  2  0
 66 67  1  0
 67 68  2  0
 69 72  1  0
 69 68  1  0
 70 69  2  0
 71 70  1  0
 71 66  2  0
 72 73  1  0
 73 74  1  0
 74 75  2  0
 76 75  1  0
 76 80  1  0
 77 76  2  0
 78 73  2  0
 78 77  1  0
 79 78  1  0
 81 82  1  0
 82 85  1  0
 82 84  1  0
 83 81  2  0
 86 61  1  0
 86 87  1  0
 88 86  1  0
M  ISO  4   5 101   6 101  48 100  60 100
M  END
>  <TORSDO>  (18) 
F 18

>  <SCORE>  (18) 
-15.138

>  <name>  (18) 
17

>  <ligand_id>  (18) 
17

>  <original_smiles>  (18) 
[H]c1c([H])c([H])c2c(c1[H])C([H])([H])C([H])([H])C([H])([H])C2([H])N([H])C(=O)C1([H])N(C(=O)C([H])(N([H])C(=O)C([H])(N([H])C([H])([H])[H])C([H])([H])[H])C(C([H])([H])[H])(C([H])([H])[H])C([H])([H])[H])C([H])([H])c2c([H])c(OC3([H])C([H])([H])C3([H])C(=O)C([H])([H])C3([H])C([H])([H])N(C(=O)N4C([H])([H])C([H])([H])C([H])([H])C([H])(n5nc(-c6c([H])c([H])c(Oc7c([H])c([H])c(F)c([H])c7F)c([H])c6[H])c(C(=O)N([H])[H])c5N([H])[H])C4([H])[H])C([H])([H])C3([H])[H])c([H])c([H])c2C1([H])[H]

>  <smiles>  (18) 
[H]c1c([H])c([H])c2c(c1[H])C([H])([H])C([H])([H])C([H])([H])C2([H])N([H])C(=O)C1([H])N(C(=O)C([H])(N([H])C(=O)C([H])(N([H])C([H])([H])[H])C([H])([H])[H])C(C([H])([H])[H])(C([H])([H])[H])C([H])([H])[H])C([H])([H])c2c([H])c(OC3([H])C([H])([H])C3([H])C(=O)C([H])([H])C3([H])C([H])([H])N(C(=O)N4C([H])([H])C([H])([H])C([H])([H])C([H])(n5nc(-c6c([H])c([H])c(Oc7c([H])c([H])c(F)c([H])c7F)c([H])c6[H])c(C(=O)N([H])[H])c5N([H])[H])C4([H])[H])C([H])([H])C3([H])[H])c([H])c([H])c2C1([H])[H]

$$$$
18:0:0
     RDKit          3D

 93101  0  0  1  0  0  0  0  0999 V2000
  -30.2330  -20.8170   20.0140 C   0  0  0  0  0  2  0  0  0  0  0  0
  -28.2900  -20.6210   18.6390 C   0  0  0  0  0  2  0  0  0  0  0  0
  -29.1330  -21.7930   19.2890 C   0  0  0  0  0  3  0  0  0  0  0  0
  -30.2790  -19.2870   19.4100 C   0  0  0  0  0  3  0  0  0  0  0  0
  -29.0330  -19.2870   18.5970 N   0  0  0  0  0  4  0  0  0  0  0  0
  -29.2580  -19.0900   17.6330 H   0  0  0  0  0  0  0  0  0  0  0  0
  -28.4230  -18.5550   18.9160 H   0  0  0  0  0  0  0  0  0  0  0  0
  -27.2000  -22.6050   20.9060 C   0  0  0  0  0  1  0  0  0  0  0  0
  -28.3720  -23.1330   20.0580 C   0  0  0  0  0  3  0  0  0  0  0  0
  -27.9160  -24.6470   19.4620 C   0  0  0  0  0  2  0  0  0  0  0  0
  -27.9020  -25.9650   20.3120 O   0  0  0  0  0  0  0  0  0  0  0  0
  -24.4340  -31.7670   23.3790 C   0  0  0  0  0  0  0  0  0  0  0  0
  -26.8510  -26.9470   20.3270 C   0  0  0  0  0  0  0  0  0  0  0  0
  -23.2010  -30.4090   21.7460 C   0  0  0  0  0  3  0  0  0  0  0  0
  -24.5930  -28.7780   20.3430 C   0  0  0  0  0  0  0  0  0  0  0  0
  -25.7770  -30.5720   21.6080 C   0  0  0  0  0  2  0  0  0  0  0  0
  -25.7980  -29.1830   20.9310 C   0  0  0  0  0  0  0  0  0  0  0  0
  -26.9300  -28.2820   20.9010 C   0  0  0  0  0  3  0  0  0  0  0  0
  -25.5880  -26.6110   19.7920 C   0  0  0  0  0  3  0  0  0  0  0  0
  -24.4880  -27.4970   19.7800 C   0  0  0  0  0  3  0  0  0  0  0  0
  -23.4150  -29.7440   20.3660 C   0  0  0  0  0  2  0  0  0  0  0  0
  -24.4920  -30.9280   22.3050 N   0  0  0  0  0  0  0  0  0  0  0  0
  -23.3510  -32.1000   23.8890 O   0  0  0  0  0  0  0  0  0  0  0  0
  -22.4950  -29.4070   22.6970 C   0  0  0  0  0  0  0  0  0  0  0  0
  -21.1770  -29.2050   22.5170 N   0  0  0  0  0  0  0  0  0  0  0  0
  -23.1360  -28.8230   23.5780 O   0  0  0  0  0  0  0  0  0  0  0  0
  -20.7310  -29.6540   21.7310 H   0  0  0  0  0  0  0  0  0  0  0  0
  -17.7810  -28.0820   22.9510 C   0  0  0  0  0  0  0  0  0  0  0  0
  -20.3200  -28.3810   23.3690 C   0  0  0  0  0  3  0  0  0  0  0  0
  -20.4260  -26.8830   22.9810 C   0  0  0  0  0  2  0  0  0  0  0  0
  -19.4370  -26.5180   21.8680 C   0  0  0  0  0  2  0  0  0  0  0  0
  -18.0040  -26.6750   22.4120 C   0  0  0  0  0  2  0  0  0  0  0  0
  -18.8680  -28.8890   23.3920 C   0  0  0  0  0  0  0  0  0  0  0  0
  -18.6030  -30.1870   23.8750 C   0  0  0  0  0  3  0  0  0  0  0  0
  -17.2910  -30.6840   23.9220 C   0  0  0  0  0  3  0  0  0  0  0  0
  -16.2220  -29.8830   23.4950 C   0  0  0  0  0  3  0  0  0  0  0  0
  -16.4660  -28.5840   23.0270 C   0  0  0  0  0  3  0  0  0  0  0  0
  -25.7270  -32.3700   24.0110 C   0  0  0  0  0  3  0  0  0  0  0  0
  -25.4630  -33.7910   24.2820 N   0  0  0  0  0  0  0  0  0  0  0  0
  -25.8260  -34.8020   23.4800 C   0  0  0  0  0  0  0  0  0  0  0  0
  -26.4910  -34.6360   22.4570 O   0  0  0  0  0  0  0  0  0  0  0  0
  -24.8790  -33.9980   25.0770 H   0  0  0  0  0  0  0  0  0  0  0  0
  -24.1500  -36.6400   23.0730 C   0  0  0  0  0  1  0  0  0  0  0  0
  -25.3870  -36.2270   23.8830 C   0  0  0  0  0  3  0  0  0  0  0  0
  -27.5540  -37.0870   24.6530 C   0  0  0  0  0  1  0  0  0  0  0  0
  -26.4480  -37.2420   23.7130 N   0  0  0  0  0  0  0  0  0  0  0  0
  -26.0680  -38.1750   23.8270 H   0  0  0  0  0  0  0  0  0  0  0  0
  -26.1700  -31.6350   25.3420 C   0  0  1  0  0  0  0  0  0  0  0  0
  -25.0300  -31.4680   26.3720 C   0  0  0  0  0  1  0  0  0  0  0  0
  -26.7210  -30.2250   25.0380 C   0  0  0  0  0  1  0  0  0  0  0  0
  -27.3130  -32.4200   26.0290 C   0  0  0  0  0  1  0  0  0  0  0  0
  -30.8250  -17.8610   20.2160 C   0  0  0  0  0  0  0  0  0  0  0  0
  -31.1050  -15.0820   19.7560 C   0  0  0  0  0  0  0  0  0  0  0  0
  -30.8250  -12.7260   18.8400 C   0  0  0  0  0  2  0  0  0  0  0  0
  -29.8350  -12.6510   17.6580 C   0  0  0  0  0  2  0  0  0  0  0  0
  -28.3860  -12.4990   18.1570 C   0  0  0  0  0  2  0  0  0  0  0  0
  -28.0740  -13.4400   19.3450 C   0  0  0  0  0  3  0  0  0  0  0  0
  -29.1930  -13.4600   20.4110 C   0  0  0  0  0  2  0  0  0  0  0  0
  -30.4250  -13.8600   19.7200 N   0  0  0  0  0  0  0  0  0  0  0  0
  -32.3030  -15.0460   19.4440 O   0  0  0  0  0  0  0  0  0  0  0  0
  -30.4250  -16.3340   19.9180 N   0  0  0  0  0  4  0  0  0  0  0  0
  -29.4260  -16.2050   19.9970 H   0  0  0  0  0  0  0  0  0  0  0  0
  -25.7790  -14.1350   20.2120 C   0  0  0  0  0  0  0  0  0  0  0  0
  -24.6900  -13.4120   20.6260 C   0  0  0  0  0  0  0  0  0  0  0  0
  -25.0730  -12.0450   20.5560 C   0  0  0  0  0  0  0  0  0  0  0  0
  -26.7580  -13.1990   19.9220 N   0  0  0  0  0  0  0  0  0  0  0  0
  -26.3440  -11.9340   20.1810 N   0  0  0  0  0  0  0  0  0  0  0  0
  -24.2780  -10.8260   20.7750 C   0  0  0  0  0  0  0  0  0  0  0  0
  -24.6710   -9.8470   21.7120 C   0  0  0  0  0  3  0  0  0  0  0  0
  -23.8790   -8.6940   21.9200 C   0  0  0  0  0  3  0  0  0  0  0  0
  -22.6810   -8.5170   21.1880 C   0  0  0  0  0  0  0  0  0  0  0  0
  -22.3120   -9.4750   20.2330 C   0  0  0  0  0  3  0  0  0  0  0  0
  -23.1030  -10.6200   20.0240 C   0  0  0  0  0  3  0  0  0  0  0  0
  -21.8650   -7.4170   21.3060 O   0  0  0  0  0  0  0  0  0  0  0  0
  -21.7450   -6.7380   22.4920 C   0  0  0  0  0  0  0  0  0  0  0  0
  -21.3290   -7.3750   23.6820 C   0  0  0  0  0  3  0  0  0  0  0  0
  -21.1540   -6.6220   24.8610 C   0  0  0  0  0  3  0  0  0  0  0  0
  -21.3700   -5.2320   24.8520 C   0  0  0  0  0  0  0  0  0  0  0  0
  -21.7880   -4.5950   23.6700 C   0  0  0  0  0  3  0  0  0  0  0  0
  -21.9670   -5.3450   22.4940 C   0  0  0  0  0  0  0  0  0  0  0  0
  -22.3430   -4.7220   21.3510 F   0  0  0  0  0  0  0  0  0  0  0  0
  -21.2010   -4.5080   25.9830 F   0  0  0  0  0  0  0  0  0  0  0  0
  -23.3490  -13.9800   20.9820 C   0  0  0  0  0  0  0  0  0  0  0  0
  -22.6470  -13.3260   21.9100 N   0  0  0  0  0  0  0  0  0  0  0  0
  -22.9380  -15.0240   20.4840 O   0  0  0  0  0  0  0  0  0  0  0  0
  -23.0020  -12.4760   22.3210 H   0  0  0  0  0  0  0  0  0  0  0  0
  -21.7380  -13.6730   22.1910 H   0  0  0  0  0  0  0  0  0  0  0  0
  -26.0070  -15.4940   20.0640 N   0  0  0  0  0  0  0  0  0  0  0  0
  -25.2820  -16.1820   20.2350 H   0  0  0  0  0  0  0  0  0  0  0  0
  -26.9100  -15.9030   19.8810 H   0  0  0  0  0  0  0  0  0  0  0  0
  -30.9250  -18.1580   21.7810 C   0  0  0  0  0  2  0  0  0  0  0  0
  -30.2290  -15.8070   22.6640 C   0  0  0  0  0  1  0  0  0  0  0  0
  -31.1410  -17.0160   22.8500 C   0  0  0  0  0  2  0  0  0  0  0  0
  2  3  1  0
  3  1  1  0
  3  9  1  0
  4  1  1  0
  4 52  1  0
  5  2  1  0
  5  7  1  0
  5  4  1  0
  6  5  1  0
  9  8  1  0
 10  9  1  0
 10 11  1  0
 11 13  1  0
 12 23  2  0
 13 18  1  0
 14 22  1  0
 14 24  1  0
 15 21  1  0
 15 17  1  0
 16 22  1  0
 17 16  1  0
 18 17  2  0
 19 13  2  0
 20 19  1  0
 20 15  2  0
 21 14  1  0
 22 12  1  0
 24 26  2  0
 25 24  1  0
 27 25  1  0
 28 37  2  0
 28 33  1  0
 29 25  1  0
 29 33  1  0
 30 29  1  0
 31 32  1  0
 31 30  1  0
 32 28  1  0
 33 34  2  0
 34 35  1  0
 36 35  2  0
 37 36  1  0
 38 12  1  0
 38 39  1  0
 38 48  1  0
 39 42  1  0
 40 44  1  0
 40 39  1  0
 41 40  2  0
 44 43  1  0
 46 47  1  0
 46 44  1  0
 46 45  1  0
 48 51  1  1
 48 49  1  0
 50 48  1  0
 52 91  1  0
 53 61  1  0
 54 59  1  0
 55 56  1  0
 55 54  1  0
 57 56  1  0
 57 66  1  0
 57 58  1  0
 59 53  1  0
 59 58  1  0
 60 53  2  0
 61 62  1  0
 61 52  2  3
 63 64  2  0
 64 83  1  0
 65 64  1  0
 65 68  1  0
 66 67  1  0
 66 63  1  0
 67 65  2  0
 68 69  1  0
 69 70  2  0
 71 74  1  0
 71 70  1  0
 72 71  2  0
 73 72  1  0
 73 68  2  0
 74 75  1  0
 75 80  2  0
 75 76  1  0
 76 77  2  0
 78 77  1  0
 78 82  1  0
 79 78  2  0
 80 79  1  0
 81 80  1  0
 83 84  1  0
 84 87  1  0
 84 86  1  0
 85 83  2  0
 88 63  1  0
 88 89  1  0
 90 88  1  0
 91 93  1  0
 92 93  1  0
M  ISO  4  10 101  11 101  53 100  61 100
M  END
>  <TORSDO>  (19) 
F 21

>  <SCORE>  (19) 
-11.878

>  <name>  (19) 
18

>  <ligand_id>  (19) 
18

>  <original_smiles>  (19) 
[H]c1c([H])c([H])c2c(c1[H])C([H])([H])C([H])([H])C([H])([H])C2([H])N([H])C(=O)C1([H])N(C(=O)C([H])(N([H])C(=O)C([H])(N([H])C([H])([H])[H])C([H])([H])[H])C(C([H])([H])[H])(C([H])([H])[H])C([H])([H])[H])C([H])([H])c2c([H])c(OC([H])([H])C([H])(C([H])([H])[H])C3([H])C([H])([H])C([H])(C([H])(N([H])C(=O)N4C([H])([H])C([H])([H])C([H])([H])C([H])(n5nc(-c6c([H])c([H])c(Oc7c([H])c([H])c(F)c([H])c7F)c([H])c6[H])c(C(=O)N([H])[H])c5N([H])[H])C4([H])[H])C([H])([H])C([H])([H])C([H])([H])[H])[N+]([H])([H])C3([H])[H])c([H])c([H])c2C1([H])[H]

>  <smiles>  (19) 
[H]c1c([H])c([H])c2c(c1[H])C([H])([H])C([H])([H])C([H])([H])C2([H])N([H])C(=O)C1([H])N(C(=O)C([H])(N([H])C(=O)C([H])(N([H])C([H])([H])[H])C([H])([H])[H])C(C([H])([H])[H])(C([H])([H])[H])C([H])([H])[H])C([H])([H])c2c([H])c(OC([H])([H])C([H])(C([H])([H])[H])C3([H])C([H])([H])C([H])(C([H])(N([H])C(=O)N4C([H])([H])C([H])([H])C([H])([H])C([H])(n5nc(-c6c([H])c([H])c(Oc7c([H])c([H])c(F)c([H])c7F)c([H])c6[H])c(C(=O)N([H])[H])c5N([H])[H])C4([H])[H])C([H])([H])C([H])([H])C([H])([H])[H])[N+]([H])([H])C3([H])[H])c([H])c([H])c2C1([H])[H]

$$$$
19:0:0
     RDKit          3D

 87 92  0  0  1  0  0  0  0  0999 V2000
  -30.1470  -16.0640   20.2830 C   0  0  0  0  0  0  0  0  0  0  0  0
  -30.3560  -13.4070   19.5580 C   0  0  0  0  0  2  0  0  0  0  0  0
  -29.5380  -12.8030   18.3660 C   0  0  0  0  0  2  0  0  0  0  0  0
  -28.1350  -12.3750   18.8100 C   0  0  0  0  0  2  0  0  0  0  0  0
  -27.5440  -13.4170   19.7800 C   0  0  0  0  0  3  0  0  0  0  0  0
  -28.5220  -13.9090   20.8880 C   0  0  0  0  0  2  0  0  0  0  0  0
  -29.6540  -14.6340   20.2260 N   0  0  0  0  0  0  0  0  0  0  0  0
  -31.3870  -15.9220   20.1450 O   0  0  0  0  0  0  0  0  0  0  0  0
  -27.9520  -17.5650   20.1900 C   0  0  0  0  0  2  0  0  0  0  0  0
  -27.9770  -18.8160   19.2530 C   0  0  0  0  0  3  0  0  0  0  0  0
  -29.2420  -19.3960   19.8770 C   0  0  0  0  0  2  0  0  0  0  0  0
  -29.4090  -17.5490   20.3110 N   0  0  0  0  0  0  0  0  0  0  0  0
  -25.1650  -13.9160   20.4850 C   0  0  0  0  0  0  0  0  0  0  0  0
  -24.1030  -13.1350   20.8310 C   0  0  0  0  0  0  0  0  0  0  0  0
  -24.5840  -11.7900   20.8310 C   0  0  0  0  0  0  0  0  0  0  0  0
  -26.2240  -13.0560   20.2820 N   0  0  0  0  0  0  0  0  0  0  0  0
  -25.8880  -11.7660   20.5540 N   0  0  0  0  0  0  0  0  0  0  0  0
  -23.8540  -10.5290   21.0190 C   0  0  0  0  0  0  0  0  0  0  0  0
  -24.2660   -9.5680   21.9690 C   0  0  0  0  0  3  0  0  0  0  0  0
  -23.5290   -8.3780   22.1490 C   0  0  0  0  0  3  0  0  0  0  0  0
  -22.3650   -8.1390   21.3810 C   0  0  0  0  0  0  0  0  0  0  0  0
  -21.9700   -9.0880   20.4230 C   0  0  0  0  0  3  0  0  0  0  0  0
  -22.7080  -10.2700   20.2390 C   0  0  0  0  0  3  0  0  0  0  0  0
  -21.6020   -7.0000   21.4700 O   0  0  0  0  0  0  0  0  0  0  0  0
  -21.5460   -6.2580   22.6230 C   0  0  0  0  0  0  0  0  0  0  0  0
  -21.1290   -6.8200   23.8500 C   0  0  0  0  0  3  0  0  0  0  0  0
  -21.0190   -6.0060   24.9960 C   0  0  0  0  0  3  0  0  0  0  0  0
  -21.3160   -4.6330   24.9150 C   0  0  0  0  0  0  0  0  0  0  0  0
  -21.7250   -4.0710   23.6930 C   0  0  0  0  0  3  0  0  0  0  0  0
  -21.8360   -4.8810   22.5500 C   0  0  0  0  0  0  0  0  0  0  0  0
  -22.2110   -4.3300   21.3700 F   0  0  0  0  0  0  0  0  0  0  0  0
  -21.2030   -3.8490   26.0140 F   0  0  0  0  0  0  0  0  0  0  0  0
  -22.6980  -13.6120   21.0460 C   0  0  0  0  0  0  0  0  0  0  0  0
  -21.9480  -12.9380   21.9090 N   0  0  0  0  0  0  0  0  0  0  0  0
  -22.2760  -14.6240   20.4870 O   0  0  0  0  0  0  0  0  0  0  0  0
  -22.3030  -12.1220   22.3850 H   0  0  0  0  0  0  0  0  0  0  0  0
  -21.0040  -13.2430   22.0980 H   0  0  0  0  0  0  0  0  0  0  0  0
  -25.3120  -15.2860   20.2930 N   0  0  0  0  0  0  0  0  0  0  0  0
  -24.5350  -15.9300   20.3930 H   0  0  0  0  0  0  0  0  0  0  0  0
  -26.1750  -15.7340   20.0260 H   0  0  0  0  0  0  0  0  0  0  0  0
  -28.0950  -18.5220   17.8070 N   0  0  0  0  0  4  0  0  0  0  0  0
  -28.9250  -17.9960   17.6020 H   0  0  0  0  0  0  0  0  0  0  0  0
  -28.1330  -19.3760   17.2790 H   0  0  0  0  0  0  0  0  0  0  0  0
  -27.2990  -18.0070   17.4770 H   0  0  0  0  0  0  0  0  0  0  0  0
  -28.9090  -21.3740   20.5220 C   0  0  0  0  0 15  0  0  0  0  0  0
  -28.2240  -23.2940   19.9770 C   0  0  0  0  0 15  0  0  0  0  0  0
  -28.1670  -25.1640   20.2990 O   0  0  0  0  0  1  0  0  0  0  0  0
  -24.6450  -31.7800   23.0940 C   0  0  0  0  0  0  0  0  0  0  0  0
  -27.2170  -26.4840   20.1860 C   0  0  0  0  0  0  0  0  0  0  0  0
  -23.4840  -30.3520   21.4680 C   0  0  0  0  0  3  0  0  0  0  0  0
  -24.9540  -28.6560   20.0870 C   0  0  0  0  0  0  0  0  0  0  0  0
  -26.0740  -30.4440   21.3850 C   0  0  0  0  0  2  0  0  0  0  0  0
  -26.1480  -28.9790   20.7410 C   0  0  0  0  0  0  0  0  0  0  0  0
  -27.2470  -27.9290   20.7540 C   0  0  0  0  0  3  0  0  0  0  0  0
  -25.9870  -26.4370   19.4600 C   0  0  0  0  0  3  0  0  0  0  0  0
  -24.9290  -27.4150   19.4210 C   0  0  0  0  0  3  0  0  0  0  0  0
  -23.7480  -29.6270   20.1120 C   0  0  0  0  0  2  0  0  0  0  0  0
  -24.7610  -30.8990   22.0340 N   0  0  0  0  0  0  0  0  0  0  0  0
  -23.5430  -32.0860   23.5850 O   0  0  0  0  0  0  0  0  0  0  0  0
  -22.7480  -29.4010   22.4530 C   0  0  0  0  0  0  0  0  0  0  0  0
  -21.4100  -29.2700   22.3430 N   0  0  0  0  0  0  0  0  0  0  0  0
  -23.3970  -28.7740   23.2930 O   0  0  0  0  0  0  0  0  0  0  0  0
  -20.9310  -29.8260   21.6480 H   0  0  0  0  0  0  0  0  0  0  0  0
  -18.0110  -28.0960   22.9090 C   0  0  0  0  0  0  0  0  0  0  0  0
  -20.5800  -28.3410   23.1250 C   0  0  0  0  0  3  0  0  0  0  0  0
  -20.6540  -26.9090   22.5440 C   0  0  0  0  0  2  0  0  0  0  0  0
  -19.5330  -26.6050   21.5460 C   0  0  0  0  0  2  0  0  0  0  0  0
  -18.1640  -26.7540   22.2150 C   0  0  0  0  0  2  0  0  0  0  0  0
  -19.1440  -28.8490   23.3210 C   0  0  0  0  0  0  0  0  0  0  0  0
  -18.9420  -30.1020   23.9390 C   0  0  0  0  0  3  0  0  0  0  0  0
  -17.6420  -30.6030   24.1440 C   0  0  0  0  0  3  0  0  0  0  0  0
  -16.5250  -29.8500   23.7430 C   0  0  0  0  0  3  0  0  0  0  0  0
  -16.7110  -28.5980   23.1320 C   0  0  0  0  0  3  0  0  0  0  0  0
  -25.8890  -32.4600   23.7430 C   0  0  0  0  0  3  0  0  0  0  0  0
  -26.3940  -31.7080   25.0390 C   0  0  1  0  0  0  0  0  0  0  0  0
  -25.2890  -31.4720   26.0970 C   0  0  0  0  0  1  0  0  0  0  0  0
  -26.9950  -30.3300   24.6850 C   0  0  0  0  0  1  0  0  0  0  0  0
  -27.5300  -32.5200   25.7050 C   0  0  0  0  0  1  0  0  0  0  0  0
  -25.5370  -33.8540   24.0920 N   0  0  0  0  0  0  0  0  0  0  0  0
  -25.8560  -34.9390   23.3730 C   0  0  0  0  0  0  0  0  0  0  0  0
  -26.5290  -34.8730   22.3420 O   0  0  0  0  0  0  0  0  0  0  0  0
  -24.9360  -33.9750   24.8940 H   0  0  0  0  0  0  0  0  0  0  0  0
  -24.1000  -36.7270   23.0870 C   0  0  0  0  0  1  0  0  0  0  0  0
  -25.3560  -36.3140   23.8720 C   0  0  0  0  0  3  0  0  0  0  0  0
  -27.4850  -37.2200   24.7000 C   0  0  0  0  0  1  0  0  0  0  0  0
  -26.3710  -37.3870   23.7710 N   0  0  0  0  0  0  0  0  0  0  0  0
  -25.9510  -38.2970   23.9420 H   0  0  0  0  0  0  0  0  0  0  0  0
  1 12  1  0
  2  7  1  0
  3  4  1  0
  3  2  1  0
  5  4  1  0
  5 16  1  0
  5  6  1  0
  7  1  1  0
  7  6  1  0
  8  1  2  0
  9 12  1  0
 10 41  1  0
 10 11  1  0
 10  9  1  0
 11 12  1  0
 13 14  2  0
 14 15  1  0
 14 33  1  0
 15 18  1  0
 16 13  1  0
 16 17  1  0
 17 15  2  0
 18 19  1  0
 19 20  2  0
 21 24  1  0
 21 20  1  0
 22 21  2  0
 23 22  1  0
 23 18  2  0
 24 25  1  0
 25 26  1  0
 26 27  2  0
 28 27  1  0
 28 32  1  0
 29 28  2  0
 30 25  2  0
 30 29  1  0
 31 30  1  0
 33 34  1  0
 34 37  1  0
 34 36  1  0
 35 33  2  0
 38 39  1  0
 38 13  1  0
 40 38  1  0
 42 41  1  0
 43 41  1  0
 44 41  1  0
 48 59  2  0
 49 47  1  0
 49 54  1  0
 50 58  1  0
 50 60  1  0
 51 57  1  0
 51 53  1  0
 52 58  1  0
 53 54  2  0
 53 52  1  0
 55 49  2  0
 56 55  1  0
 56 51  2  0
 57 50  1  0
 58 48  1  0
 60 62  2  0
 61 60  1  0
 63 61  1  0
 64 73  2  0
 64 69  1  0
 65 61  1  0
 65 69  1  0
 66 65  1  0
 67 68  1  0
 67 66  1  0
 68 64  1  0
 69 70  2  0
 70 71  1  0
 72 71  2  0
 73 72  1  0
 74 48  1  0
 74 79  1  0
 74 75  1  0
 75 78  1  1
 75 76  1  0
 77 75  1  0
 79 82  1  0
 80 84  1  0
 80 79  1  0
 81 80  2  0
 84 83  1  0
 86 84  1  0
 86 87  1  0
 86 85  1  0
M  ISO  4   1 100  12 100  46 101  47 101
M  END
>  <TORSDO>  (20) 
F 18

>  <SCORE>  (20) 
-16.084

>  <name>  (20) 
19

>  <ligand_id>  (20) 
19

>  <original_smiles>  (20) 
[H]c1c([H])c([H])c2c(c1[H])C([H])([H])C([H])([H])C([H])([H])C2([H])N([H])C(=O)C1([H])N(C(=O)C([H])(N([H])C(=O)C([H])(N([H])C([H])([H])[H])C([H])([H])[H])C(C([H])([H])[H])(C([H])([H])[H])C([H])([H])[H])C([H])([H])c2c([H])c(OC([H])([H])C([H])([H])C3([H])N(C(=O)N4C([H])([H])C([H])([H])C([H])([H])C([H])(n5nc(-c6c([H])c([H])c(Oc7c([H])c([H])c(F)c([H])c7F)c([H])c6[H])c(C(=O)N([H])[H])c5N([H])[H])C4([H])[H])C([H])([H])C3([H])[N+]([H])([H])[H])c([H])c([H])c2C1([H])[H]

>  <smiles>  (20) 
[H]c1c([H])c([H])c2c(c1[H])C([H])([H])C([H])([H])C([H])([H])C2([H])N([H])C(=O)C1([H])N(C(=O)C([H])(N([H])C(=O)C([H])(N([H])C([H])([H])[H])C([H])([H])[H])C(C([H])([H])[H])(C([H])([H])[H])C([H])([H])[H])C([H])([H])c2c([H])c(OC([H])([H])C([H])([H])C3([H])N(C(=O)N4C([H])([H])C([H])([H])C([H])([H])C([H])(n5nc(-c6c([H])c([H])c(Oc7c([H])c([H])c(F)c([H])c7F)c([H])c6[H])c(C(=O)N([H])[H])c5N([H])[H])C4([H])[H])C([H])([H])C3([H])[N+]([H])([H])[H])c([H])c([H])c2C1([H])[H]

$$$$
20:0:0
     RDKit          3D

 95103  0  0  1  0  0  0  0  0999 V2000
  -29.2610  -22.5840   19.5440 C   0  0  0  0  0  2  0  0  0  0  0  0
  -28.3620  -22.1340   21.3500 C   0  0  0  0  0  2  0  0  0  0  0  0
  -28.2530  -23.4390   20.4170 C   0  0  0  0  0  3  0  0  0  0  0  0
  -29.5660  -21.4010   20.5990 C   0  0  2  0  0  0  0  0  0  0  0  0
  -30.8220  -21.8100   21.2770 N   0  0  0  0  0  4  0  0  0  0  0  0
  -30.8100  -22.7930   21.4810 H   0  0  0  0  0  0  0  0  0  0  0  0
  -31.6310  -21.6540   20.7090 H   0  0  0  0  0  0  0  0  0  0  0  0
  -30.9770  -21.3760   22.1660 H   0  0  0  0  0  0  0  0  0  0  0  0
  -28.3500  -25.0320   20.9410 C   0  0  0  0  0  2  0  0  0  0  0  0
  -28.3490  -26.3830   20.1900 O   0  0  0  0  0  0  0  0  0  0  0  0
  -24.6170  -31.9520   23.2390 C   0  0  0  0  0  0  0  0  0  0  0  0
  -27.2570  -27.3010   20.2230 C   0  0  0  0  0  0  0  0  0  0  0  0
  -23.4360  -30.5500   21.5890 C   0  0  0  0  0  3  0  0  0  0  0  0
  -24.9070  -28.9920   20.1630 C   0  0  0  0  0  0  0  0  0  0  0  0
  -25.9810  -30.8560   21.4250 C   0  0  0  0  0  2  0  0  0  0  0  0
  -26.0750  -29.4610   20.7780 C   0  0  0  0  0  0  0  0  0  0  0  0
  -27.2550  -28.6370   20.7900 C   0  0  0  0  0  3  0  0  0  0  0  0
  -26.0610  -26.9090   19.5920 C   0  0  0  0  0  3  0  0  0  0  0  0
  -24.9090  -27.7230   19.5570 C   0  0  0  0  0  3  0  0  0  0  0  0
  -23.6690  -29.8710   20.2110 C   0  0  0  0  0  2  0  0  0  0  0  0
  -24.6980  -31.1390   22.1390 N   0  0  0  0  0  0  0  0  0  0  0  0
  -23.5300  -32.2260   23.7660 O   0  0  0  0  0  0  0  0  0  0  0  0
  -22.7650  -29.5350   22.5470 C   0  0  0  0  0  0  0  0  0  0  0  0
  -21.4460  -29.3300   22.3990 N   0  0  0  0  0  0  0  0  0  0  0  0
  -23.4390  -28.9300   23.3840 O   0  0  0  0  0  0  0  0  0  0  0  0
  -20.9600  -29.8720   21.6970 H   0  0  0  0  0  0  0  0  0  0  0  0
  -18.0910  -28.0380   22.8360 C   0  0  0  0  0  0  0  0  0  0  0  0
  -20.6330  -28.3810   23.1640 C   0  0  0  0  0  3  0  0  0  0  0  0
  -20.7920  -26.9440   22.6140 C   0  0  0  0  0  2  0  0  0  0  0  0
  -19.7260  -26.5740   21.5780 C   0  0  0  0  0  2  0  0  0  0  0  0
  -18.3250  -26.6860   22.1850 C   0  0  0  0  0  2  0  0  0  0  0  0
  -19.1740  -28.8430   23.2810 C   0  0  0  0  0  0  0  0  0  0  0  0
  -18.9030  -30.1040   23.8500 C   0  0  0  0  0  3  0  0  0  0  0  0
  -17.5780  -30.5650   23.9810 C   0  0  0  0  0  3  0  0  0  0  0  0
  -16.5090  -29.7600   23.5490 C   0  0  0  0  0  3  0  0  0  0  0  0
  -16.7660  -28.5000   22.9830 C   0  0  0  0  0  3  0  0  0  0  0  0
  -25.8910  -32.5970   23.8680 C   0  0  0  0  0  3  0  0  0  0  0  0
  -26.4000  -31.8370   25.1540 C   0  0  1  0  0  0  0  0  0  0  0  0
  -25.3010  -31.5980   26.2150 C   0  0  0  0  0  1  0  0  0  0  0  0
  -26.9960  -30.4620   24.7810 C   0  0  0  0  0  1  0  0  0  0  0  0
  -27.5400  -32.6410   25.8230 C   0  0  0  0  0  1  0  0  0  0  0  0
  -25.5690  -33.9960   24.1910 N   0  0  0  0  0  0  0  0  0  0  0  0
  -25.9250  -35.0530   23.4510 C   0  0  0  0  0  0  0  0  0  0  0  0
  -26.6200  -34.9540   22.4330 O   0  0  0  0  0  0  0  0  0  0  0  0
  -24.9520  -34.1460   24.9770 H   0  0  0  0  0  0  0  0  0  0  0  0
  -24.2250  -36.8670   23.0370 C   0  0  0  0  0  1  0  0  0  0  0  0
  -25.4260  -36.4420   23.9010 C   0  0  0  0  0  3  0  0  0  0  0  0
  -27.5220  -37.3030   24.8440 C   0  0  0  0  0  1  0  0  0  0  0  0
  -26.4670  -37.4890   23.8500 N   0  0  0  0  0  0  0  0  0  0  0  0
  -26.0590  -38.4090   23.9900 H   0  0  0  0  0  0  0  0  0  0  0  0
  -29.7230  -19.7560   20.1000 C   0  0  0  0  0  2  0  0  0  0  0  0
  -29.8730  -18.2290   20.9280 C   0  0  0  0  0  3  0  0  0  0  0  0
  -30.7920  -18.3670   22.0860 N   0  0  0  0  0  4  0  0  0  0  0  0
  -31.7530  -18.4380   21.7910 H   0  0  0  0  0  0  0  0  0  0  0  0
  -30.7260  -17.5860   22.7170 H   0  0  0  0  0  0  0  0  0  0  0  0
  -30.5570  -19.1600   22.6570 H   0  0  0  0  0  0  0  0  0  0  0  0
  -30.2030  -16.7320   20.1100 C   0  0  0  0  0  3  0  0  0  0  0  0
  -30.7670  -15.2020   20.6080 C   0  0  0  0  0  0  0  0  0  0  0  0
  -30.6540  -12.8360   19.6780 C   0  0  0  0  0  2  0  0  0  0  0  0
  -29.7570  -12.7320   18.4220 C   0  0  0  0  0  2  0  0  0  0  0  0
  -28.2850  -12.4850   18.8100 C   0  0  0  0  0  2  0  0  0  0  0  0
  -27.8290  -13.3820   19.9900 C   0  0  0  0  0  3  0  0  0  0  0  0
  -28.8600  -13.5180   21.1240 C   0  0  0  0  0  2  0  0  0  0  0  0
  -30.1320  -13.9520   20.5250 N   0  0  0  0  0  0  0  0  0  0  0  0
  -32.0010  -15.1190   20.6490 O   0  0  0  0  0  0  0  0  0  0  0  0
  -25.4270  -13.9630   20.6080 C   0  0  0  0  0  0  0  0  0  0  0  0
  -24.3510  -13.1890   20.9110 C   0  0  0  0  0  0  0  0  0  0  0  0
  -24.8280  -11.8360   20.9210 C   0  0  0  0  0  0  0  0  0  0  0  0
  -26.4890  -13.0850   20.4560 N   0  0  0  0  0  0  0  0  0  0  0  0
  -26.1320  -11.8040   20.6930 N   0  0  0  0  0  0  0  0  0  0  0  0
  -24.1120  -10.5670   21.0850 C   0  0  0  0  0  0  0  0  0  0  0  0
  -24.5060   -9.6220   22.0530 C   0  0  0  0  0  3  0  0  0  0  0  0
  -23.7950   -8.4170   22.2060 C   0  0  0  0  0  3  0  0  0  0  0  0
  -22.6710   -8.1500   21.3890 C   0  0  0  0  0  0  0  0  0  0  0  0
  -22.2970   -9.0860   20.4080 C   0  0  0  0  0  3  0  0  0  0  0  0
  -23.0100  -10.2830   20.2520 C   0  0  0  0  0  3  0  0  0  0  0  0
  -21.9360   -6.9880   21.4410 O   0  0  0  0  0  0  0  0  0  0  0  0
  -21.8320   -6.2690   22.6020 C   0  0  0  0  0  0  0  0  0  0  0  0
  -21.3010   -6.8310   23.7860 C   0  0  0  0  0  3  0  0  0  0  0  0
  -21.1450   -6.0290   24.9330 C   0  0  0  0  0  3  0  0  0  0  0  0
  -21.5100   -4.6680   24.8990 C   0  0  0  0  0  0  0  0  0  0  0  0
  -22.0450   -4.1110   23.7220 C   0  0  0  0  0  3  0  0  0  0  0  0
  -22.2010   -4.9070   22.5770 C   0  0  0  0  0  0  0  0  0  0  0  0
  -22.6930   -4.3670   21.4390 F   0  0  0  0  0  0  0  0  0  0  0  0
  -21.3570   -3.8930   26.0010 F   0  0  0  0  0  0  0  0  0  0  0  0
  -22.9390  -13.6520   21.1030 C   0  0  0  0  0  0  0  0  0  0  0  0
  -22.1780  -12.9510   21.9250 N   0  0  0  0  0  0  0  0  0  0  0  0
  -22.5210  -14.6670   20.5460 O   0  0  0  0  0  0  0  0  0  0  0  0
  -22.5310  -12.1230   22.3900 H   0  0  0  0  0  0  0  0  0  0  0  0
  -21.2280  -13.2520   22.1060 H   0  0  0  0  0  0  0  0  0  0  0  0
  -25.5970  -15.3370   20.4140 N   0  0  0  0  0  0  0  0  0  0  0  0
  -26.4980  -15.7630   20.2410 H   0  0  0  0  0  0  0  0  0  0  0  0
  -24.8180  -15.8670   20.0310 H   0  0  0  0  0  0  0  0  0  0  0  0
  -28.6190  -17.5790   18.0780 C   0  0  0  0  0  1  0  0  0  0  0  0
  -29.2480  -16.4470   18.9090 C   0  0  0  0  0  2  0  0  0  0  0  0
  1  3  1  0
  1  4  1  0
  3  9  1  0
  3  2  1  0
  4 51  1  6
  4  5  1  0
  4  2  1  0
  5  6  1  0
  5  8  1  0
  7  5  1  0
 10 12  1  0
 10  9  1  0
 11 22  2  0
 12 17  1  0
 13 21  1  0
 13 23  1  0
 14 20  1  0
 14 16  1  0
 15 21  1  0
 16 17  2  0
 16 15  1  0
 18 12  2  0
 19 18  1  0
 19 14  2  0
 20 13  1  0
 21 11  1  0
 23 25  2  0
 24 23  1  0
 26 24  1  0
 27 36  2  0
 27 32  1  0
 28 24  1  0
 28 32  1  0
 29 28  1  0
 30 31  1  0
 30 29  1  0
 31 27  1  0
 32 33  2  0
 33 34  1  0
 35 34  2  0
 36 35  1  0
 37 11  1  0
 37 42  1  0
 37 38  1  0
 38 41  1  1
 38 39  1  0
 40 38  1  0
 42 45  1  0
 43 47  1  0
 43 42  1  0
 44 43  2  0
 47 46  1  0
 49 47  1  0
 49 50  1  0
 49 48  1  0
 52 51  1  0
 52 53  1  0
 53 56  1  0
 53 55  1  0
 54 53  1  0
 57 95  1  0
 57 58  1  0
 57 52  1  0
 58 65  2  0
 59 64  1  0
 60 61  1  0
 60 59  1  0
 62 61  1  0
 62 69  1  0
 62 63  1  0
 64 58  1  0
 64 63  1  0
 66 67  2  0
 67 68  1  0
 67 86  1  0
 68 71  1  0
 69 66  1  0
 69 70  1  0
 70 68  2  0
 71 72  1  0
 72 73  2  0
 74 77  1  0
 74 73  1  0
 75 74  2  0
 76 75  1  0
 76 71  2  0
 77 78  1  0
 78 79  1  0
 79 80  2  0
 81 80  1  0
 81 85  1  0
 82 81  2  0
 83 78  2  0
 83 82  1  0
 84 83  1  0
 86 87  1  0
 87 90  1  0
 87 89  1  0
 88 86  2  0
 91 66  1  0
 92 91  1  0
 93 91  1  0
 94 95  1  0
M  ISO  4   9 101  10 101  57 100  58 100
M  END
>  <TORSDO>  (21) 
F 23

>  <SCORE>  (21) 
-14.996

>  <name>  (21) 
20

>  <ligand_id>  (21) 
20

>  <original_smiles>  (21) 
[H]c1c([H])c([H])c2c(c1[H])C([H])([H])C([H])([H])C([H])([H])C2([H])N([H])C(=O)C1([H])N(C(=O)C([H])(N([H])C(=O)C([H])(N([H])C([H])([H])[H])C([H])([H])[H])C(C([H])([H])[H])(C([H])([H])[H])C([H])([H])[H])C([H])([H])c2c([H])c(OC([H])([H])C3([H])C([H])([H])C(C([H])([H])C([H])(C([H])(C(=O)N4C([H])([H])C([H])([H])C([H])([H])C([H])(n5nc(-c6c([H])c([H])c(Oc7c([H])c([H])c(F)c([H])c7F)c([H])c6[H])c(C(=O)N([H])[H])c5N([H])[H])C4([H])[H])C([H])([H])C([H])([H])[H])[N+]([H])([H])[H])([N+]([H])([H])[H])C3([H])[H])c([H])c([H])c2C1([H])[H]

>  <smiles>  (21) 
[H]c1c([H])c([H])c2c(c1[H])C([H])([H])C([H])([H])C([H])([H])C2([H])N([H])C(=O)C1([H])N(C(=O)C([H])(N([H])C(=O)C([H])(N([H])C([H])([H])[H])C([H])([H])[H])C(C([H])([H])[H])(C([H])([H])[H])C([H])([H])[H])C([H])([H])c2c([H])c(OC([H])([H])C3([H])C([H])([H])C(C([H])([H])C([H])(C([H])(C(=O)N4C([H])([H])C([H])([H])C([H])([H])C([H])(n5nc(-c6c([H])c([H])c(Oc7c([H])c([H])c(F)c([H])c7F)c([H])c6[H])c(C(=O)N([H])[H])c5N([H])[H])C4([H])[H])C([H])([H])C([H])([H])[H])[N+]([H])([H])[H])([N+]([H])([H])[H])C3([H])[H])c([H])c([H])c2C1([H])[H]

$$$$
21:0:0
     RDKit          3D

 92100  0  0  1  0  0  0  0  0999 V2000
  -28.7160  -22.7320   21.1240 C   0  0  0  0  0  3  0  0  0  0  0  0
  -29.1130  -22.9420   18.7970 C   0  0  0  0  0  3  0  0  0  0  0  0
  -28.3650  -24.1390   21.1760 C   0  0  0  0  0  3  0  0  0  0  0  0
  -28.7720  -24.3430   18.8520 C   0  0  0  0  0  3  0  0  0  0  0  0
  -29.1380  -22.0680   19.9320 C   0  0  0  0  0  0  0  0  0  0  0  0
  -28.3990  -25.0220   20.0500 C   0  0  0  0  0  0  0  0  0  0  0  0
  -28.3320  -26.4620   20.1380 O   0  0  0  0  0  0  0  0  0  0  0  0
  -24.5460  -31.9040   23.2180 C   0  0  0  0  0  0  0  0  0  0  0  0
  -27.1780  -27.2880   20.1600 C   0  0  0  0  0  0  0  0  0  0  0  0
  -23.3480  -30.4880   21.5920 C   0  0  0  0  0  3  0  0  0  0  0  0
  -24.8010  -28.9220   20.1700 C   0  0  0  0  0  0  0  0  0  0  0  0
  -25.8880  -30.8020   21.4000 C   0  0  0  0  0  2  0  0  0  0  0  0
  -25.9720  -29.4130   20.7590 C   0  0  0  0  0  0  0  0  0  0  0  0
  -27.1590  -28.6090   20.7400 C   0  0  0  0  0  3  0  0  0  0  0  0
  -25.9800  -26.8590   19.5560 C   0  0  0  0  0  3  0  0  0  0  0  0
  -24.8090  -27.6540   19.5610 C   0  0  0  0  0  3  0  0  0  0  0  0
  -23.5600  -29.7960   20.2180 C   0  0  0  0  0  2  0  0  0  0  0  0
  -24.6140  -31.0840   22.1260 N   0  0  0  0  0  0  0  0  0  0  0  0
  -23.4610  -32.1820   23.7540 O   0  0  0  0  0  0  0  0  0  0  0  0
  -22.6900  -29.4780   22.5640 C   0  0  0  0  0  0  0  0  0  0  0  0
  -21.3640  -29.2970   22.4470 N   0  0  0  0  0  0  0  0  0  0  0  0
  -23.3740  -28.8600   23.3840 O   0  0  0  0  0  0  0  0  0  0  0  0
  -20.8700  -29.8500   21.7610 H   0  0  0  0  0  0  0  0  0  0  0  0
  -17.9940  -28.0750   22.9670 C   0  0  0  0  0  0  0  0  0  0  0  0
  -20.5520  -28.3580   23.2250 C   0  0  0  0  0  3  0  0  0  0  0  0
  -20.6620  -26.9240   22.6580 C   0  0  0  0  0  2  0  0  0  0  0  0
  -19.5590  -26.5860   21.6490 C   0  0  0  0  0  2  0  0  0  0  0  0
  -18.1790  -26.7230   22.2980 C   0  0  0  0  0  2  0  0  0  0  0  0
  -19.1090  -28.8500   23.3880 C   0  0  0  0  0  0  0  0  0  0  0  0
  -18.8810  -30.1140   23.9760 C   0  0  0  0  0  3  0  0  0  0  0  0
  -17.5730  -30.6040   24.1440 C   0  0  0  0  0  3  0  0  0  0  0  0
  -16.4730  -29.8270   23.7390 C   0  0  0  0  0  3  0  0  0  0  0  0
  -16.6850  -28.5640   23.1560 C   0  0  0  0  0  3  0  0  0  0  0  0
  -25.8210  -32.5550   23.8340 C   0  0  0  0  0  3  0  0  0  0  0  0
  -25.4980  -33.9500   24.1750 N   0  0  0  0  0  0  0  0  0  0  0  0
  -25.8120  -35.0110   23.4190 C   0  0  0  0  0  0  0  0  0  0  0  0
  -26.4720  -34.9180   22.3810 O   0  0  0  0  0  0  0  0  0  0  0  0
  -24.9100  -34.0940   24.9820 H   0  0  0  0  0  0  0  0  0  0  0  0
  -24.0650  -36.7900   23.0850 C   0  0  0  0  0  1  0  0  0  0  0  0
  -25.3150  -36.3930   23.8860 C   0  0  0  0  0  3  0  0  0  0  0  0
  -27.4490  -37.2970   24.7050 C   0  0  0  0  0  1  0  0  0  0  0  0
  -26.3380  -37.4580   23.7700 N   0  0  0  0  0  0  0  0  0  0  0  0
  -25.9250  -38.3740   23.9210 H   0  0  0  0  0  0  0  0  0  0  0  0
  -26.3550  -31.7890   25.1080 C   0  0  1  0  0  0  0  0  0  0  0  0
  -25.2740  -31.5340   26.1860 C   0  0  0  0  0  1  0  0  0  0  0  0
  -26.9520  -30.4180   24.7120 C   0  0  0  0  0  1  0  0  0  0  0  0
  -27.5030  -32.5940   25.7610 C   0  0  0  0  0  1  0  0  0  0  0  0
  -29.8410  -20.6040   19.8500 C   0  0  0  0  0  3  0  0  0  0  0  0
  -29.3020  -19.1490   20.3870 C   0  0  0  0  0  3  0  0  0  0  0  0
  -30.1910  -17.7650   20.1490 C   0  0  0  0  0  3  0  0  0  0  0  0
  -30.4100  -17.5570   18.6460 C   0  0  0  0  0  0  0  0  0  0  0  0
  -29.3410  -17.2700   17.9130 N   0  0  0  0  0  0  0  0  0  0  0  0
  -31.5260  -17.6610   18.1420 O   0  0  0  0  0  0  0  0  0  0  0  0
  -28.4270  -17.2250   18.3380 H   0  0  0  0  0  0  0  0  0  0  0  0
  -29.4290  -17.1400   16.9150 H   0  0  0  0  0  0  0  0  0  0  0  0
  -29.8340  -16.3010   20.8320 C   0  0  0  0  0  2  0  0  0  0  0  0
  -30.6080  -14.9090   20.4720 C   0  0  0  0  0  0  0  0  0  0  0  0
  -30.4330  -12.6110   19.4690 C   0  0  0  0  0  2  0  0  0  0  0  0
  -29.5300  -12.7030   18.2180 C   0  0  0  0  0  2  0  0  0  0  0  0
  -28.0510  -12.5190   18.6130 C   0  0  0  0  0  2  0  0  0  0  0  0
  -27.6510  -13.4050   19.8240 C   0  0  0  0  0  3  0  0  0  0  0  0
  -28.6840  -13.3210   20.9680 C   0  0  0  0  0  2  0  0  0  0  0  0
  -29.9940  -13.6720   20.4090 N   0  0  0  0  0  0  0  0  0  0  0  0
  -31.7990  -14.9750   20.1520 O   0  0  0  0  0  0  0  0  0  0  0  0
  -25.2410  -13.9960   20.4710 C   0  0  0  0  0  0  0  0  0  0  0  0
  -24.1670  -13.2250   20.8200 C   0  0  0  0  0  0  0  0  0  0  0  0
  -24.6360  -11.8760   20.8310 C   0  0  0  0  0  0  0  0  0  0  0  0
  -26.2950  -13.1180   20.2840 N   0  0  0  0  0  0  0  0  0  0  0  0
  -25.9360  -11.8390   20.5640 N   0  0  0  0  0  0  0  0  0  0  0  0
  -23.9050  -10.6140   21.0170 C   0  0  0  0  0  0  0  0  0  0  0  0
  -24.3100   -9.6590   21.9770 C   0  0  0  0  0  3  0  0  0  0  0  0
  -23.5770   -8.4660   22.1520 C   0  0  0  0  0  3  0  0  0  0  0  0
  -22.4250   -8.2190   21.3690 C   0  0  0  0  0  0  0  0  0  0  0  0
  -22.0400   -9.1620   20.3990 C   0  0  0  0  0  3  0  0  0  0  0  0
  -22.7740  -10.3460   20.2210 C   0  0  0  0  0  3  0  0  0  0  0  0
  -21.6670   -7.0740   21.4510 O   0  0  0  0  0  0  0  0  0  0  0  0
  -21.5870   -6.3460   22.6100 C   0  0  0  0  0  0  0  0  0  0  0  0
  -21.1280   -6.9170   23.8180 C   0  0  0  0  0  3  0  0  0  0  0  0
  -20.9950   -6.1170   24.9700 C   0  0  0  0  0  3  0  0  0  0  0  0
  -21.3110   -4.7470   24.9160 C   0  0  0  0  0  0  0  0  0  0  0  0
  -21.7620   -4.1730   23.7140 C   0  0  0  0  0  3  0  0  0  0  0  0
  -21.8970   -4.9710   22.5630 C   0  0  0  0  0  0  0  0  0  0  0  0
  -22.3110   -4.4100   21.4020 F   0  0  0  0  0  0  0  0  0  0  0  0
  -21.1770   -3.9750   26.0210 F   0  0  0  0  0  0  0  0  0  0  0  0
  -22.7600  -13.7040   21.0380 C   0  0  0  0  0  0  0  0  0  0  0  0
  -22.0090  -13.0240   21.8980 N   0  0  0  0  0  0  0  0  0  0  0  0
  -22.3360  -14.7170   20.4810 O   0  0  0  0  0  0  0  0  0  0  0  0
  -22.3650  -12.2030   22.3660 H   0  0  0  0  0  0  0  0  0  0  0  0
  -21.0660  -13.3270   22.0950 H   0  0  0  0  0  0  0  0  0  0  0  0
  -25.4080  -15.3630   20.2720 N   0  0  0  0  0  0  0  0  0  0  0  0
  -24.6400  -16.0210   20.3480 H   0  0  0  0  0  0  0  0  0  0  0  0
  -26.2710  -15.7960   19.9740 H   0  0  0  0  0  0  0  0  0  0  0  0
  1  3  1  0
  2  4  2  0
  2  5  1  0
  4  6  1  0
  5  1  2  0
  6  7  1  0
  6  3  2  0
  7  9  1  0
  8 19  2  0
  9 14  1  0
 10 18  1  0
 10 20  1  0
 11 17  1  0
 11 13  1  0
 12 18  1  0
 13 12  1  0
 14 13  2  0
 15 16  1  0
 15  9  2  0
 16 11  2  0
 17 10  1  0
 18  8  1  0
 20 22  2  0
 21 20  1  0
 23 21  1  0
 24 33  2  0
 24 29  1  0
 25 21  1  0
 25 29  1  0
 26 25  1  0
 27 28  1  0
 27 26  1  0
 28 24  1  0
 29 30  2  0
 30 31  1  0
 32 31  2  0
 33 32  1  0
 34  8  1  0
 34 35  1  0
 34 44  1  0
 35 38  1  0
 36 40  1  0
 36 35  1  0
 37 36  2  0
 40 39  1  0
 42 40  1  0
 42 43  1  0
 42 41  1  0
 44 47  1  1
 44 45  1  0
 46 44  1  0
 48  5  1  0
 48 49  2  0
 50 49  1  0
 50 56  1  0
 51 50  1  0
 52 54  1  0
 52 51  1  0
 53 51  2  0
 55 52  1  0
 57 56  1  0
 58 63  1  0
 59 60  1  0
 59 58  1  0
 61 60  1  0
 61 68  1  0
 61 62  1  0
 63 57  1  0
 63 62  1  0
 64 57  2  0
 65 66  2  0
 66 67  1  0
 66 85  1  0
 67 70  1  0
 68 65  1  0
 68 69  1  0
 69 67  2  0
 70 71  1  0
 71 72  2  0
 73 76  1  0
 73 72  1  0
 74 73  2  0
 75 74  1  0
 75 70  2  0
 76 77  1  0
 77 78  1  0
 78 79  2  0
 80 79  1  0
 80 84  1  0
 81 80  2  0
 82 77  2  0
 82 81  1  0
 83 82  1  0
 85 86  1  0
 86 89  1  0
 86 88  1  0
 87 85  2  0
 90 91  1  0
 90 65  1  0
 92 90  1  0
M  ISO  4   6 101   7 101  56 100  57 100
M  END
>  <TORSDO>  (22) 
F 21

>  <SCORE>  (22) 
-13.420

>  <name>  (22) 
21

>  <ligand_id>  (22) 
21

>  <original_smiles>  (22) 
[H]c1c([H])c([H])c2c(c1[H])C([H])([H])C([H])([H])C([H])([H])C2([H])N([H])C(=O)C1([H])N(C(=O)C([H])(N([H])C(=O)C([H])(N([H])C([H])([H])[H])C([H])([H])[H])C(C([H])([H])[H])(C([H])([H])[H])C([H])([H])[H])C([H])([H])c2c([H])c(Oc3c([H])c([H])c(C([H])([H])C([H])([H])C([H])(C(=O)N([H])[H])C([H])([H])C(=O)N4C([H])([H])C([H])([H])C([H])([H])C([H])(n5nc(-c6c([H])c([H])c(Oc7c([H])c([H])c(F)c([H])c7F)c([H])c6[H])c(C(=O)N([H])[H])c5N([H])[H])C4([H])[H])c([H])c3[H])c([H])c([H])c2C1([H])[H]

>  <smiles>  (22) 
[H]c1c([H])c([H])c2c(c1[H])C([H])([H])C([H])([H])C([H])([H])C2([H])N([H])C(=O)C1([H])N(C(=O)C([H])(N([H])C(=O)C([H])(N([H])C([H])([H])[H])C([H])([H])[H])C(C([H])([H])[H])(C([H])([H])[H])C([H])([H])[H])C([H])([H])c2c([H])c(Oc3c([H])c([H])c(C([H])([H])C([H])([H])C([H])(C(=O)N([H])[H])C([H])([H])C(=O)N4C([H])([H])C([H])([H])C([H])([H])C([H])(n5nc(-c6c([H])c([H])c(Oc7c([H])c([H])c(F)c([H])c7F)c([H])c6[H])c(C(=O)N([H])[H])c5N([H])[H])C4([H])[H])c([H])c3[H])c([H])c([H])c2C1([H])[H]

$$$$
22:0:0
     RDKit          3D

 87 95  0  0  1  0  0  0  0  0999 V2000
  -28.6930  -22.5750   21.2720 C   0  0  0  0  0  2  0  0  0  0  0  0
  -29.5090  -22.7410   19.3400 C   0  0  0  0  0  2  0  0  0  0  0  0
  -28.9680  -21.5170   20.1540 C   0  0  0  0  0  3  0  0  0  0  0  0
  -29.0620  -23.8190   20.3830 C   0  0  0  0  0  3  0  0  0  0  0  0
  -29.9190  -20.2840   20.4230 C   0  0  0  0  0  0  0  0  0  0  0  0
  -31.1430  -20.3960   20.5330 O   0  0  0  0  0  0  0  0  0  0  0  0
  -29.3260  -18.8110   20.5310 C   0  0  0  0  0  3  0  0  0  0  0  0
  -30.3170  -17.5330   20.5020 C   0  0  0  0  0  3  0  0  0  0  0  0
  -29.7390  -16.0590   20.8130 C   0  0  0  0  0  2  0  0  0  0  0  0
  -30.5610  -14.7420   20.4240 C   0  0  0  0  0  0  0  0  0  0  0  0
  -30.3560  -12.4910   19.3570 C   0  0  0  0  0  2  0  0  0  0  0  0
  -29.4130  -12.6160   18.1380 C   0  0  0  0  0  2  0  0  0  0  0  0
  -27.9410  -12.4500   18.5610 C   0  0  0  0  0  2  0  0  0  0  0  0
  -27.5770  -13.3160   19.7940 C   0  0  0  0  0  3  0  0  0  0  0  0
  -28.6340  -13.1810   20.9120 C   0  0  0  0  0  2  0  0  0  0  0  0
  -29.9470  -13.5130   20.3430 N   0  0  0  0  0  0  0  0  0  0  0  0
  -31.7320  -14.8670   20.0520 O   0  0  0  0  0  0  0  0  0  0  0  0
  -25.1900  -13.9250   20.5200 C   0  0  0  0  0  0  0  0  0  0  0  0
  -24.1190  -13.1580   20.8850 C   0  0  0  0  0  0  0  0  0  0  0  0
  -24.5740  -11.8030   20.8530 C   0  0  0  0  0  0  0  0  0  0  0  0
  -26.2290  -13.0390   20.2810 N   0  0  0  0  0  0  0  0  0  0  0  0
  -25.8640  -11.7580   20.5450 N   0  0  0  0  0  0  0  0  0  0  0  0
  -23.8400  -10.5460   21.0390 C   0  0  0  0  0  0  0  0  0  0  0  0
  -24.2660   -9.5730   21.9700 C   0  0  0  0  0  3  0  0  0  0  0  0
  -23.5340   -8.3790   22.1440 C   0  0  0  0  0  3  0  0  0  0  0  0
  -22.3610   -8.1490   21.3850 C   0  0  0  0  0  0  0  0  0  0  0  0
  -21.9550   -9.1100   20.4430 C   0  0  0  0  0  3  0  0  0  0  0  0
  -22.6870  -10.2960   20.2680 C   0  0  0  0  0  3  0  0  0  0  0  0
  -21.5990   -7.0080   21.4680 O   0  0  0  0  0  0  0  0  0  0  0  0
  -21.5430   -6.2640   22.6180 C   0  0  0  0  0  0  0  0  0  0  0  0
  -21.1110   -6.8160   23.8440 C   0  0  0  0  0  3  0  0  0  0  0  0
  -21.0020   -5.9970   24.9860 C   0  0  0  0  0  3  0  0  0  0  0  0
  -21.3160   -4.6260   24.9020 C   0  0  0  0  0  0  0  0  0  0  0  0
  -21.7400   -4.0740   23.6810 C   0  0  0  0  0  3  0  0  0  0  0  0
  -21.8510   -4.8890   22.5420 C   0  0  0  0  0  0  0  0  0  0  0  0
  -22.2410   -4.3480   21.3640 F   0  0  0  0  0  0  0  0  0  0  0  0
  -21.2030   -3.8380   25.9970 F   0  0  0  0  0  0  0  0  0  0  0  0
  -22.7230  -13.6430   21.1550 C   0  0  0  0  0  0  0  0  0  0  0  0
  -21.9900  -12.9480   22.0180 N   0  0  0  0  0  0  0  0  0  0  0  0
  -22.2920  -14.6700   20.6340 O   0  0  0  0  0  0  0  0  0  0  0  0
  -22.3510  -12.1160   22.4590 H   0  0  0  0  0  0  0  0  0  0  0  0
  -21.0530  -13.2550   22.2410 H   0  0  0  0  0  0  0  0  0  0  0  0
  -25.3640  -15.2960   20.3500 N   0  0  0  0  0  0  0  0  0  0  0  0
  -24.6070  -15.9590   20.4710 H   0  0  0  0  0  0  0  0  0  0  0  0
  -26.2260  -15.7310   20.0460 H   0  0  0  0  0  0  0  0  0  0  0  0
  -28.0160  -24.9740   20.0160 C   0  0  0  0  0  2  0  0  0  0  0  0
  -28.2830  -26.4310   20.2410 O   0  0  0  0  0  0  0  0  0  0  0  0
  -24.6200  -31.9190   23.2440 C   0  0  0  0  0  0  0  0  0  0  0  0
  -27.1880  -27.3220   20.1780 C   0  0  0  0  0  0  0  0  0  0  0  0
  -23.4030  -30.5280   21.6100 C   0  0  0  0  0  3  0  0  0  0  0  0
  -24.8390  -28.9720   20.1760 C   0  0  0  0  0  0  0  0  0  0  0  0
  -25.9480  -30.8240   21.4210 C   0  0  0  0  0  2  0  0  0  0  0  0
  -26.0160  -29.4450   20.7700 C   0  0  0  0  0  0  0  0  0  0  0  0
  -27.1920  -28.6310   20.7630 C   0  0  0  0  0  3  0  0  0  0  0  0
  -25.9860  -26.9210   19.5470 C   0  0  0  0  0  3  0  0  0  0  0  0
  -24.8280  -27.7180   19.5530 C   0  0  0  0  0  3  0  0  0  0  0  0
  -23.6080  -29.8560   20.2280 C   0  0  0  0  0  2  0  0  0  0  0  0
  -24.6760  -31.1080   22.1480 N   0  0  0  0  0  0  0  0  0  0  0  0
  -23.5390  -32.2020   23.7820 O   0  0  0  0  0  0  0  0  0  0  0  0
  -22.7390  -29.5130   22.5720 C   0  0  0  0  0  0  0  0  0  0  0  0
  -21.4110  -29.3420   22.4500 N   0  0  0  0  0  0  0  0  0  0  0  0
  -23.4160  -28.8830   23.3880 O   0  0  0  0  0  0  0  0  0  0  0  0
  -20.9220  -29.9030   21.7650 H   0  0  0  0  0  0  0  0  0  0  0  0
  -18.0280  -28.1650   22.9630 C   0  0  0  0  0  0  0  0  0  0  0  0
  -20.5890  -28.4110   23.2240 C   0  0  0  0  0  3  0  0  0  0  0  0
  -20.6810  -26.9780   22.6500 C   0  0  0  0  0  2  0  0  0  0  0  0
  -19.5730  -26.6590   21.6410 C   0  0  0  0  0  2  0  0  0  0  0  0
  -18.1950  -26.8130   22.2890 C   0  0  0  0  0  2  0  0  0  0  0  0
  -19.1520  -28.9210   23.3880 C   0  0  0  0  0  0  0  0  0  0  0  0
  -18.9420  -30.1860   23.9790 C   0  0  0  0  0  3  0  0  0  0  0  0
  -17.6400  -30.6940   24.1490 C   0  0  0  0  0  3  0  0  0  0  0  0
  -16.5310  -29.9340   23.7390 C   0  0  0  0  0  3  0  0  0  0  0  0
  -16.7250  -28.6710   23.1520 C   0  0  0  0  0  3  0  0  0  0  0  0
  -25.9070  -32.5460   23.8610 C   0  0  0  0  0  3  0  0  0  0  0  0
  -25.6030  -33.9440   24.1970 N   0  0  0  0  0  0  0  0  0  0  0  0
  -25.9180  -34.9980   23.4330 C   0  0  0  0  0  0  0  0  0  0  0  0
  -26.5660  -34.8940   22.3880 O   0  0  0  0  0  0  0  0  0  0  0  0
  -25.0240  -34.0970   25.0100 H   0  0  0  0  0  0  0  0  0  0  0  0
  -24.1760  -36.7860   23.1260 C   0  0  0  0  0  1  0  0  0  0  0  0
  -25.4420  -36.3860   23.9010 C   0  0  0  0  0  3  0  0  0  0  0  0
  -27.5950  -37.2810   24.6690 C   0  0  0  0  0  1  0  0  0  0  0  0
  -26.4680  -37.4410   23.7550 N   0  0  0  0  0  0  0  0  0  0  0  0
  -26.0640  -38.3600   23.9060 H   0  0  0  0  0  0  0  0  0  0  0  0
  -26.4270  -31.7690   25.1340 C   0  0  1  0  0  0  0  0  0  0  0  0
  -25.3360  -31.5320   26.2040 C   0  0  0  0  0  1  0  0  0  0  0  0
  -27.0020  -30.3890   24.7380 C   0  0  0  0  0  1  0  0  0  0  0  0
  -27.5820  -32.5570   25.7930 C   0  0  0  0  0  1  0  0  0  0  0  0
  2  3  1  0
  2  4  1  0
  3  5  1  0
  3  1  1  0
  4 46  1  0
  4  1  1  0
  5  7  1  0
  5  6  2  0
  8  7  2  0
  8  9  1  0
 10  9  1  0
 11 16  1  0
 12 13  1  0
 12 11  1  0
 14 13  1  0
 14 21  1  0
 14 15  1  0
 16 10  1  0
 16 15  1  0
 17 10  2  0
 18 19  2  0
 19 38  1  0
 20 19  1  0
 20 23  1  0
 21 18  1  0
 21 22  1  0
 22 20  2  0
 23 24  1  0
 24 25  2  0
 26 29  1  0
 26 25  1  0
 27 26  2  0
 28 27  1  0
 28 23  2  0
 29 30  1  0
 30 31  1  0
 31 32  2  0
 33 32  1  0
 33 37  1  0
 34 33  2  0
 35 30  2  0
 35 34  1  0
 36 35  1  0
 38 39  1  0
 39 42  1  0
 39 41  1  0
 40 38  2  0
 43 44  1  0
 43 18  1  0
 45 43  1  0
 46 47  1  0
 48 59  2  0
 49 47  1  0
 49 54  1  0
 50 58  1  0
 50 60  1  0
 51 57  1  0
 51 53  1  0
 52 58  1  0
 53 52  1  0
 54 53  2  0
 55 56  1  0
 55 49  2  0
 56 51  2  0
 57 50  1  0
 58 48  1  0
 60 62  2  0
 61 60  1  0
 63 61  1  0
 64 73  2  0
 64 69  1  0
 65 61  1  0
 65 69  1  0
 66 65  1  0
 67 68  1  0
 67 66  1  0
 68 64  1  0
 69 70  2  0
 70 71  1  0
 72 71  2  0
 73 72  1  0
 74 48  1  0
 74 75  1  0
 74 84  1  0
 75 78  1  0
 76 80  1  0
 76 75  1  0
 77 76  2  0
 80 79  1  0
 82 80  1  0
 82 83  1  0
 82 81  1  0
 84 87  1  1
 84 85  1  0
 86 84  1  0
M  ISO  4   9 100  10 100  46 101  47 101
M  END
>  <TORSDO>  (23) 
F 21

>  <SCORE>  (23) 
-13.385

>  <name>  (23) 
22

>  <ligand_id>  (23) 
22

>  <original_smiles>  (23) 
[H]c1c([H])c([H])c2c(c1[H])C([H])([H])C([H])([H])C([H])([H])C2([H])N([H])C(=O)C1([H])N(C(=O)C([H])(N([H])C(=O)C([H])(N([H])C([H])([H])[H])C([H])([H])[H])C(C([H])([H])[H])(C([H])([H])[H])C([H])([H])[H])C([H])([H])c2c([H])c(OC([H])([H])C3([H])C([H])([H])C([H])(C(=O)C([H])([H])C([H])([H])C([H])([H])C(=O)N4C([H])([H])C([H])([H])C([H])([H])C([H])(n5nc(-c6c([H])c([H])c(Oc7c([H])c([H])c(F)c([H])c7F)c([H])c6[H])c(C(=O)N([H])[H])c5N([H])[H])C4([H])[H])C3([H])[H])c([H])c([H])c2C1([H])[H]

>  <smiles>  (23) 
[H]c1c([H])c([H])c2c(c1[H])C([H])([H])C([H])([H])C([H])([H])C2([H])N([H])C(=O)C1([H])N(C(=O)C([H])(N([H])C(=O)C([H])(N([H])C([H])([H])[H])C([H])([H])[H])C(C([H])([H])[H])(C([H])([H])[H])C([H])([H])[H])C([H])([H])c2c([H])c(OC([H])([H])C3([H])C([H])([H])C([H])(C(=O)C([H])([H])C([H])([H])C([H])([H])C(=O)N4C([H])([H])C([H])([H])C([H])([H])C([H])(n5nc(-c6c([H])c([H])c(Oc7c([H])c([H])c(F)c([H])c7F)c([H])c6[H])c(C(=O)N([H])[H])c5N([H])[H])C4([H])[H])C3([H])[H])c([H])c([H])c2C1([H])[H]

$$$$
23:0:0
     RDKit          3D

 92 95  0  0  1  0  0  0  0  0999 V2000
  -25.0090  -15.0750   21.6040 C   0  0  0  0  0  2  0  0  0  0  0  0
  -24.4020  -16.4840   20.2590 C   0  0  0  0  0  2  0  0  0  0  0  0
  -26.7680  -14.6800   21.1130 C   0  0  0  0  0  3  0  0  0  0  0  0
  -25.6710  -17.2380   19.2430 C   0  0  0  0  0  1  0  0  0  0  0  0
  -27.0420  -15.9070   19.4740 N   0  0  0  0  0  1  0  0  0  0  0  0
  -27.9680  -16.0600   19.0930 H   0  0  0  0  0  0  0  0  0  0  0  0
  -23.1550  -17.0310   20.3120 O   0  0  0  0  0  0  0  0  0  0  0  0
  -22.5090  -16.3750   20.5660 H   0  0  0  0  0  0  0  0  0  0  0  0
  -26.2920  -19.4110   19.0310 C   0  0  0  0  0 15  0  0  0  0  0  0
  -26.3080  -21.7630   19.3710 C   0  0  0  0  0 15  0  0  0  0  0  0
  -27.0830  -23.7420   19.3200 O   0  0  0  0  0  1  0  0  0  0  0  0
  -25.1100  -30.9840   22.9390 C   0  0  0  0  0  0  0  0  0  0  0  0
  -26.7190  -25.4200   19.4720 C   0  0  0  0  0  0  0  0  0  0  0  0
  -23.8400  -29.8020   21.2290 C   0  0  0  0  0  3  0  0  0  0  0  0
  -25.0820  -28.1370   19.6130 C   0  0  0  0  0  0  0  0  0  0  0  0
  -26.4140  -29.5460   21.1310 C   0  0  0  0  0  2  0  0  0  0  0  0
  -26.2770  -28.1250   20.3270 C   0  0  0  0  0  0  0  0  0  0  0  0
  -27.0920  -26.8000   20.2210 C   0  0  0  0  0  3  0  0  0  0  0  0
  -25.6690  -25.8790   18.6470 C   0  0  0  0  0  3  0  0  0  0  0  0
  -24.8780  -27.0680   18.7340 C   0  0  0  0  0  3  0  0  0  0  0  0
  -24.0310  -29.2540   19.7830 C   0  0  0  0  0  2  0  0  0  0  0  0
  -25.1660  -30.1640   21.8160 N   0  0  0  0  0  0  0  0  0  0  0  0
  -24.0290  -31.3120   23.4660 O   0  0  0  0  0  0  0  0  0  0  0  0
  -23.0770  -28.7800   22.1160 C   0  0  0  0  0  0  0  0  0  0  0  0
  -21.7460  -28.6480   21.9530 N   0  0  0  0  0  0  0  0  0  0  0  0
  -23.7000  -28.1130   22.9460 O   0  0  0  0  0  0  0  0  0  0  0  0
  -21.2880  -29.2380   21.2730 H   0  0  0  0  0  0  0  0  0  0  0  0
  -18.3600  -27.3550   22.2800 C   0  0  0  0  0  0  0  0  0  0  0  0
  -20.9020  -27.6690   22.6540 C   0  0  0  0  0  3  0  0  0  0  0  0
  -21.0560  -26.2610   22.0300 C   0  0  0  0  0  2  0  0  0  0  0  0
  -20.0060  -25.9600   20.9580 C   0  0  0  0  0  2  0  0  0  0  0  0
  -18.5960  -26.0440   21.5490 C   0  0  0  0  0  2  0  0  0  0  0  0
  -19.4420  -28.1270   22.7840 C   0  0  0  0  0  0  0  0  0  0  0  0
  -19.1630  -29.3480   23.4330 C   0  0  0  0  0  3  0  0  0  0  0  0
  -17.8390  -29.8010   23.5790 C   0  0  0  0  0  3  0  0  0  0  0  0
  -16.7730  -29.0290   23.0880 C   0  0  0  0  0  3  0  0  0  0  0  0
  -17.0340  -27.8060   22.4440 C   0  0  0  0  0  3  0  0  0  0  0  0
  -26.3820  -31.5660   23.6310 C   0  0  0  0  0  3  0  0  0  0  0  0
  -26.0470  -32.8900   24.2150 N   0  0  0  0  0  0  0  0  0  0  0  0
  -26.3420  -34.0850   23.6830 C   0  0  0  0  0  0  0  0  0  0  0  0
  -26.9710  -34.1960   22.6290 O   0  0  0  0  0  0  0  0  0  0  0  0
  -25.4750  -32.8730   25.0470 H   0  0  0  0  0  0  0  0  0  0  0  0
  -24.5840  -35.8970   23.7910 C   0  0  0  0  0  1  0  0  0  0  0  0
  -25.8750  -35.3580   24.4300 C   0  0  0  0  0  3  0  0  0  0  0  0
  -28.0460  -36.1200   25.3020 C   0  0  0  0  0  1  0  0  0  0  0  0
  -26.8910  -36.4350   24.4650 N   0  0  0  0  0  0  0  0  0  0  0  0
  -26.4830  -37.3040   24.8020 H   0  0  0  0  0  0  0  0  0  0  0  0
  -26.9390  -30.6340   24.7790 C   0  0  1  0  0  0  0  0  0  0  0  0
  -25.8800  -30.2420   25.8400 C   0  0  0  0  0  1  0  0  0  0  0  0
  -27.5200  -29.3270   24.2070 C   0  0  0  0  0  1  0  0  0  0  0  0
  -28.1080  -31.3410   25.5070 C   0  0  0  0  0  1  0  0  0  0  0  0
  -27.8750  -14.0120   21.9030 C   0  0  0  0  0  3  0  0  0  0  0  0
  -27.7940  -14.3980   23.2580 O   0  0  0  0  0  0  0  0  0  0  0  0
  -28.4880  -13.9390   23.7200 H   0  0  0  0  0  0  0  0  0  0  0  0
  -29.4080  -14.2270   21.5280 C   0  0  0  0  0  2  0  0  0  0  0  0
  -30.0050  -14.2730   20.0720 C   0  0  0  0  0  2  0  0  0  0  0  0
  -30.5870  -13.0270   19.3400 C   0  0  0  0  0  0  0  0  0  0  0  0
  -30.2390  -10.6980   18.5280 C   0  0  0  0  0  2  0  0  0  0  0  0
  -29.1050  -10.6220   17.4690 C   0  0  0  0  0  2  0  0  0  0  0  0
  -27.6650  -10.8010   18.0470 C   0  0  0  0  0  2  0  0  0  0  0  0
  -27.5740  -12.0040   19.0500 C   0  0  0  0  0  3  0  0  0  0  0  0
  -28.6860  -11.6100   20.0730 C   0  0  0  0  0  2  0  0  0  0  0  0
  -29.9640  -11.8260   19.4210 N   0  0  0  0  0  0  0  0  0  0  0  0
  -31.5630  -13.1900   18.5920 O   0  0  0  0  0  0  0  0  0  0  0  0
  -25.4060  -13.6020   19.9130 C   0  0  0  0  0  3  0  0  0  0  0  0
  -24.3410  -12.5030   20.3580 C   0  0  0  0  0  0  0  0  0  0  0  0
  -24.6270  -11.0110   20.4760 C   0  0  0  0  0  0  0  0  0  0  0  0
  -26.2130  -12.2670   19.6120 N   0  0  0  0  0  0  0  0  0  0  0  0
  -25.8170  -10.9660   20.0150 N   0  0  0  0  0  0  0  0  0  0  0  0
  -23.9000   -9.6180   20.9310 C   0  0  0  0  0  0  0  0  0  0  0  0
  -24.3770   -8.6480   21.9040 C   0  0  0  0  0  3  0  0  0  0  0  0
  -23.6720   -7.4450   22.2990 C   0  0  0  0  0  3  0  0  0  0  0  0
  -22.4150   -7.1020   21.7370 C   0  0  0  0  0  0  0  0  0  0  0  0
  -21.9410   -8.0000   20.7550 C   0  0  0  0  0  3  0  0  0  0  0  0
  -22.6500   -9.1880   20.3780 C   0  0  0  0  0  3  0  0  0  0  0  0
  -21.6640   -5.9490   22.0010 O   0  0  0  0  0  0  0  0  0  0  0  0
  -21.6630   -5.2520   23.2030 C   0  0  0  0  0  0  0  0  0  0  0  0
  -21.3440   -5.8760   24.4290 C   0  0  0  0  0  3  0  0  0  0  0  0
  -21.2980   -5.1280   25.6280 C   0  0  0  0  0  3  0  0  0  0  0  0
  -21.5600   -3.7440   25.6140 C   0  0  0  0  0  0  0  0  0  0  0  0
  -21.8460   -3.1060   24.3950 C   0  0  0  0  0  3  0  0  0  0  0  0
  -21.8860   -3.8500   23.1990 C   0  0  0  0  0  0  0  0  0  0  0  0
  -22.1340   -3.2010   22.0350 F   0  0  0  0  0  0  0  0  0  0  0  0
  -21.5350   -3.0310   26.7660 F   0  0  0  0  0  0  0  0  0  0  0  0
  -22.9280  -12.7400   20.8760 C   0  0  0  0  0  0  0  0  0  0  0  0
  -22.4320  -12.0390   21.9130 N   0  0  0  0  0  0  0  0  0  0  0  0
  -22.2350  -13.5860   20.3490 O   0  0  0  0  0  0  0  0  0  0  0  0
  -22.9720  -11.3270   22.3810 H   0  0  0  0  0  0  0  0  0  0  0  0
  -21.4930  -12.2280   22.2300 H   0  0  0  0  0  0  0  0  0  0  0  0
  -26.4680  -16.0990   21.4420 N   0  0  0  0  0  4  0  0  0  0  0  0
  -25.9860  -16.9230   21.1070 H   0  0  0  0  0  0  0  0  0  0  0  0
  -27.4400  -16.1620   21.1840 H   0  0  0  0  0  0  0  0  0  0  0  0
  2  7  1  0
  3 90  1  0
  3  1  1  0
  3 52  1  0
  4  2  1  0
  6  5  1  0
  7  8  1  0
 11 13  1  0
 12 23  2  0
 13 18  1  0
 14 22  1  0
 14 24  1  0
 15 21  1  0
 15 17  1  0
 16 22  1  0
 17 16  1  0
 18 17  2  0
 19 20  1  0
 19 13  2  0
 20 15  2  0
 21 14  1  0
 22 12  1  0
 24 26  2  0
 25 24  1  0
 27 25  1  0
 28 37  2  0
 28 33  1  0
 29 25  1  0
 29 33  1  0
 30 29  1  0
 31 32  1  0
 31 30  1  0
 32 28  1  0
 33 34  2  0
 34 35  1  0
 36 35  2  0
 37 36  1  0
 38 12  1  0
 38 39  1  0
 38 48  1  0
 39 42  1  0
 40 39  1  0
 40 44  1  0
 41 40  2  0
 44 43  1  0
 44 46  1  0
 46 47  1  0
 46 45  1  0
 48 51  1  1
 48 49  1  0
 50 48  1  0
 52 55  1  0
 52 53  1  0
 53 54  1  0
 56 55  1  0
 57 63  1  0
 57 56  1  0
 58 63  1  0
 59 60  1  0
 59 58  1  0
 61 60  1  0
 61 68  1  0
 61 62  1  0
 63 62  1  0
 64 57  2  0
 65 66  2  0
 66 67  1  0
 66 85  1  0
 67 70  1  0
 68 65  1  0
 68 69  1  0
 69 67  2  0
 70 71  1  0
 71 72  2  0
 73 76  1  0
 73 72  1  0
 74 73  2  0
 75 74  1  0
 75 70  2  0
 76 77  1  0
 77 78  1  0
 78 79  2  0
 80 79  1  0
 80 84  1  0
 81 80  2  0
 82 77  2  0
 82 81  1  0
 83 82  1  0
 85 86  1  0
 86 89  1  0
 86 88  1  0
 87 85  2  0
 90  1  1  0
 91 90  1  0
 92 90  1  0
M  ISO  4  10 101  11 101  56 100  57 100
M  END
>  <TORSDO>  (24) 
F 23

>  <SCORE>  (24) 
1.869

>  <name>  (24) 
23

>  <ligand_id>  (24) 
23

>  <original_smiles>  (24) 
[H]Oc1c([H])c(C([H])(O[H])C([H])([H])C([H])([H])C(=O)N2C([H])([H])C([H])([H])C([H])([H])C([H])(n3nc(-c4c([H])c([H])c(Oc5c([H])c([H])c(F)c([H])c5F)c([H])c4[H])c(C(=O)N([H])[H])c3N([H])[H])C2([H])[H])n([H])c1C([H])([H])C([H])([H])Oc1c([H])c([H])c2c(c1[H])C([H])([H])N(C(=O)C([H])(N([H])C(=O)C([H])(N([H])C([H])([H])[H])C([H])([H])[H])C(C([H])([H])[H])(C([H])([H])[H])C([H])([H])[H])C([H])(C(=O)N([H])C1([H])c3c([H])c([H])c([H])c([H])c3C([H])([H])C([H])([H])C1([H])[H])C2([H])[H]

>  <smiles>  (24) 
[H]Oc1c([H])c(C([H])(O[H])C([H])([H])C([H])([H])C(=O)N2C([H])([H])C([H])([H])C([H])([H])C([H])(n3nc(-c4c([H])c([H])c(Oc5c([H])c([H])c(F)c([H])c5F)c([H])c4[H])c(C(=O)N([H])[H])c3N([H])[H])C2([H])[H])n([H])c1C([H])([H])C([H])([H])Oc1c([H])c([H])c2c(c1[H])C([H])([H])N(C(=O)C([H])(N([H])C(=O)C([H])(N([H])C([H])([H])[H])C([H])([H])[H])C(C([H])([H])[H])(C([H])([H])[H])C([H])([H])[H])C([H])(C(=O)N([H])C1([H])c3c([H])c([H])c([H])c([H])c3C([H])([H])C([H])([H])C1([H])[H])C2([H])[H]

$$$$
24:0:0
     RDKit          3D

 89 97  0  0  1  0  0  0  0  0999 V2000
  -28.3130  -21.0650   19.9540 C   0  0  0  0  0  2  0  0  0  0  0  0
  -30.1660  -22.2440   20.5550 C   0  0  0  0  0  2  0  0  0  0  0  0
  -28.6440  -22.6420   20.5200 C   0  0  0  0  0  3  0  0  0  0  0  0
  -29.2770  -19.8000   20.5660 C   0  0  0  0  0  3  0  0  0  0  0  0
  -30.4220  -20.7440   20.8290 N   0  0  0  0  0  4  0  0  0  0  0  0
  -30.6870  -20.6360   21.7950 H   0  0  0  0  0  0  0  0  0  0  0  0
  -31.2190  -20.4560   20.2820 H   0  0  0  0  0  0  0  0  0  0  0  0
  -31.0030  -18.3620   19.0210 C   0  0  0  0  0  1  0  0  0  0  0  0
  -29.7420  -18.1810   19.8840 C   0  0  0  0  0  0  0  0  0  0  0  0
  -30.4310  -15.3060   20.2400 C   0  0  0  0  0  0  0  0  0  0  0  0
  -30.3970  -12.8600   19.3800 C   0  0  0  0  0  2  0  0  0  0  0  0
  -29.4770  -12.6710   18.1470 C   0  0  0  0  0  2  0  0  0  0  0  0
  -28.0260  -12.4060   18.5850 C   0  0  0  0  0  2  0  0  0  0  0  0
  -27.5820  -13.3570   19.7240 C   0  0  0  0  0  3  0  0  0  0  0  0
  -28.6340  -13.4950   20.8490 C   0  0  0  0  0  2  0  0  0  0  0  0
  -29.8660  -13.9980   20.2220 N   0  0  0  0  0  0  0  0  0  0  0  0
  -31.6320  -15.3040   19.9340 O   0  0  0  0  0  0  0  0  0  0  0  0
  -29.6790  -16.5810   20.4000 N   0  0  0  0  0  4  0  0  0  0  0  0
  -28.7590  -16.3740   20.7630 H   0  0  0  0  0  0  0  0  0  0  0  0
  -25.2120  -13.9090   20.4810 C   0  0  0  0  0  0  0  0  0  0  0  0
  -24.1540  -13.1290   20.8560 C   0  0  0  0  0  0  0  0  0  0  0  0
  -24.6250  -11.7800   20.8250 C   0  0  0  0  0  0  0  0  0  0  0  0
  -26.2560  -13.0360   20.2360 N   0  0  0  0  0  0  0  0  0  0  0  0
  -25.9160  -11.7500   20.5110 N   0  0  0  0  0  0  0  0  0  0  0  0
  -23.9010  -10.5160   21.0180 C   0  0  0  0  0  0  0  0  0  0  0  0
  -24.3340   -9.5500   21.9540 C   0  0  0  0  0  3  0  0  0  0  0  0
  -23.6070   -8.3540   22.1380 C   0  0  0  0  0  3  0  0  0  0  0  0
  -22.4320   -8.1150   21.3850 C   0  0  0  0  0  0  0  0  0  0  0  0
  -22.0180   -9.0680   20.4370 C   0  0  0  0  0  3  0  0  0  0  0  0
  -22.7460  -10.2550   20.2530 C   0  0  0  0  0  3  0  0  0  0  0  0
  -21.6780   -6.9690   21.4760 O   0  0  0  0  0  0  0  0  0  0  0  0
  -21.6290   -6.2290   22.6300 C   0  0  0  0  0  0  0  0  0  0  0  0
  -21.1980   -6.7860   23.8530 C   0  0  0  0  0  3  0  0  0  0  0  0
  -21.0980   -5.9730   25.0010 C   0  0  0  0  0  3  0  0  0  0  0  0
  -21.4160   -4.6040   24.9230 C   0  0  0  0  0  0  0  0  0  0  0  0
  -21.8380   -4.0460   23.7040 C   0  0  0  0  0  3  0  0  0  0  0  0
  -21.9420   -4.8570   22.5600 C   0  0  0  0  0  0  0  0  0  0  0  0
  -22.3300   -4.3090   21.3820 F   0  0  0  0  0  0  0  0  0  0  0  0
  -21.3120   -3.8210   26.0230 F   0  0  0  0  0  0  0  0  0  0  0  0
  -22.7560  -13.6030   21.1240 C   0  0  0  0  0  0  0  0  0  0  0  0
  -22.0310  -12.9090   21.9930 N   0  0  0  0  0  0  0  0  0  0  0  0
  -22.3170  -14.6260   20.5980 O   0  0  0  0  0  0  0  0  0  0  0  0
  -22.4000  -12.0830   22.4400 H   0  0  0  0  0  0  0  0  0  0  0  0
  -21.0900  -13.2070   22.2130 H   0  0  0  0  0  0  0  0  0  0  0  0
  -25.3710  -15.2800   20.2980 N   0  0  0  0  0  0  0  0  0  0  0  0
  -24.5990  -15.9300   20.4010 H   0  0  0  0  0  0  0  0  0  0  0  0
  -26.2030  -15.7130   19.9190 H   0  0  0  0  0  0  0  0  0  0  0  0
  -28.0470  -24.2610   19.9480 C   0  0  0  0  0  2  0  0  0  0  0  0
  -28.1780  -25.8600   20.3530 O   0  0  0  0  0  0  0  0  0  0  0  0
  -24.6220  -31.8580   23.2320 C   0  0  0  0  0  0  0  0  0  0  0  0
  -27.1730  -26.9600   20.2400 C   0  0  0  0  0  0  0  0  0  0  0  0
  -23.4280  -30.4550   21.6000 C   0  0  0  0  0  3  0  0  0  0  0  0
  -24.8760  -28.8440   20.1820 C   0  0  0  0  0  0  0  0  0  0  0  0
  -25.9930  -30.6620   21.4570 C   0  0  0  0  0  2  0  0  0  0  0  0
  -26.0620  -29.2490   20.8070 C   0  0  0  0  0  0  0  0  0  0  0  0
  -27.2010  -28.3260   20.8150 C   0  0  0  0  0  3  0  0  0  0  0  0
  -25.9630  -26.7140   19.5550 C   0  0  0  0  0  3  0  0  0  0  0  0
  -24.8520  -27.5980   19.5360 C   0  0  0  0  0  3  0  0  0  0  0  0
  -23.6570  -29.7650   20.2270 C   0  0  0  0  0  2  0  0  0  0  0  0
  -24.7020  -31.0200   22.1500 N   0  0  0  0  0  0  0  0  0  0  0  0
  -23.5330  -32.1530   23.7520 O   0  0  0  0  0  0  0  0  0  0  0  0
  -22.7310  -29.4660   22.5710 C   0  0  0  0  0  0  0  0  0  0  0  0
  -21.4000  -29.3060   22.4480 N   0  0  0  0  0  0  0  0  0  0  0  0
  -23.3940  -28.8440   23.4030 O   0  0  0  0  0  0  0  0  0  0  0  0
  -20.9180  -29.8580   21.7530 H   0  0  0  0  0  0  0  0  0  0  0  0
  -18.0140  -28.1050   22.9590 C   0  0  0  0  0  0  0  0  0  0  0  0
  -20.5750  -28.3730   23.2240 C   0  0  0  0  0  3  0  0  0  0  0  0
  -20.6760  -26.9370   22.6580 C   0  0  0  0  0  2  0  0  0  0  0  0
  -19.5750  -26.6090   21.6450 C   0  0  0  0  0  2  0  0  0  0  0  0
  -18.1930  -26.7540   22.2870 C   0  0  0  0  0  2  0  0  0  0  0  0
  -19.1320  -28.8720   23.3860 C   0  0  0  0  0  0  0  0  0  0  0  0
  -18.9090  -30.1330   23.9780 C   0  0  0  0  0  3  0  0  0  0  0  0
  -17.6020  -30.6300   24.1470 C   0  0  0  0  0  3  0  0  0  0  0  0
  -16.4990  -29.8600   23.7350 C   0  0  0  0  0  3  0  0  0  0  0  0
  -16.7070  -28.6000   23.1480 C   0  0  0  0  0  3  0  0  0  0  0  0
  -25.8930  -32.5030   23.8650 C   0  0  0  0  0  3  0  0  0  0  0  0
  -25.5790  -33.9060   24.1860 N   0  0  0  0  0  0  0  0  0  0  0  0
  -25.9160  -34.9620   23.4330 C   0  0  0  0  0  0  0  0  0  0  0  0
  -26.5870  -34.8560   22.4030 O   0  0  0  0  0  0  0  0  0  0  0  0
  -24.9800  -34.0620   24.9840 H   0  0  0  0  0  0  0  0  0  0  0  0
  -24.1950  -36.7680   23.0850 C   0  0  0  0  0  1  0  0  0  0  0  0
  -25.4370  -36.3560   23.8910 C   0  0  0  0  0  3  0  0  0  0  0  0
  -27.5770  -37.2350   24.7170 C   0  0  0  0  0  1  0  0  0  0  0  0
  -26.4740  -37.4040   23.7740 N   0  0  0  0  0  0  0  0  0  0  0  0
  -26.0720  -38.3270   23.9180 H   0  0  0  0  0  0  0  0  0  0  0  0
  -26.3910  -31.7480   25.1600 C   0  0  1  0  0  0  0  0  0  0  0  0
  -25.2850  -31.5350   26.2200 C   0  0  0  0  0  1  0  0  0  0  0  0
  -26.9700  -30.3610   24.8040 C   0  0  0  0  0  1  0  0  0  0  0  0
  -27.5400  -32.5460   25.8210 C   0  0  0  0  0  1  0  0  0  0  0  0
  1  3  1  0
  1  4  1  0
  2  5  1  0
  3 48  1  0
  3  2  1  0
  4  9  1  0
  4  5  1  0
  5  6  1  0
  7  5  1  0
  8  9  1  0
  9 18  2  0
 10 18  1  0
 11 16  1  0
 12 13  1  0
 12 11  1  0
 14 13  1  0
 14 23  1  0
 14 15  1  0
 16 10  1  0
 16 15  1  0
 17 10  2  0
 18 19  1  0
 20 21  2  0
 21 40  1  0
 22 21  1  0
 22 25  1  0
 23 20  1  0
 23 24  1  0
 24 22  2  0
 25 26  1  0
 26 27  2  0
 28 31  1  0
 28 27  1  0
 29 28  2  0
 30 29  1  0
 30 25  2  0
 31 32  1  0
 32 33  1  0
 33 34  2  0
 35 34  1  0
 35 39  1  0
 36 35  2  0
 37 32  2  0
 37 36  1  0
 38 37  1  0
 40 41  1  0
 41 44  1  0
 41 43  1  0
 42 40  2  0
 45 46  1  0
 45 20  1  0
 47 45  1  0
 48 49  1  0
 50 61  2  0
 51 49  1  0
 51 56  1  0
 52 60  1  0
 52 62  1  0
 53 59  1  0
 53 55  1  0
 54 60  1  0
 55 56  2  0
 55 54  1  0
 57 51  2  0
 58 57  1  0
 58 53  2  0
 59 52  1  0
 60 50  1  0
 62 64  2  0
 63 62  1  0
 65 63  1  0
 66 75  2  0
 66 71  1  0
 67 63  1  0
 67 71  1  0
 68 67  1  0
 69 70  1  0
 69 68  1  0
 70 66  1  0
 71 72  2  0
 72 73  1  0
 74 73  2  0
 75 74  1  0
 76 50  1  0
 76 77  1  0
 76 86  1  0
 77 80  1  0
 78 82  1  0
 78 77  1  0
 79 78  2  0
 82 81  1  0
 84 82  1  0
 84 85  1  0
 84 83  1  0
 86 89  1  1
 86 87  1  0
 88 86  1  0
M  ISO  4  10 100  18 100  48 101  49 101
M  END
>  <TORSDO>  (25) 
F 18

>  <SCORE>  (25) 
-16.599

>  <name>  (25) 
24

>  <ligand_id>  (25) 
24

>  <original_smiles>  (25) 
[H]c1c([H])c([H])c2c(c1[H])C([H])([H])C([H])([H])C([H])([H])C2([H])N([H])C(=O)C1([H])N(C(=O)C([H])(N([H])C(=O)C([H])(N([H])C([H])([H])[H])C([H])([H])[H])C(C([H])([H])[H])(C([H])([H])[H])C([H])([H])[H])C([H])([H])c2c([H])c(OC([H])([H])C3([H])C([H])([H])C([H])(C([H])(N([H])C(=O)N4C([H])([H])C([H])([H])C([H])([H])C([H])(n5nc(-c6c([H])c([H])c(Oc7c([H])c([H])c(F)c([H])c7F)c([H])c6[H])c(C(=O)N([H])[H])c5N([H])[H])C4([H])[H])C([H])([H])[H])[N+]([H])([H])C3([H])[H])c([H])c([H])c2C1([H])[H]

>  <smiles>  (25) 
[H]c1c([H])c([H])c2c(c1[H])C([H])([H])C([H])([H])C([H])([H])C2([H])N([H])C(=O)C1([H])N(C(=O)C([H])(N([H])C(=O)C([H])(N([H])C([H])([H])[H])C([H])([H])[H])C(C([H])([H])[H])(C([H])([H])[H])C([H])([H])[H])C([H])([H])c2c([H])c(OC([H])([H])C3([H])C([H])([H])C([H])(C([H])(N([H])C(=O)N4C([H])([H])C([H])([H])C([H])([H])C([H])(n5nc(-c6c([H])c([H])c(Oc7c([H])c([H])c(F)c([H])c7F)c([H])c6[H])c(C(=O)N([H])[H])c5N([H])[H])C4([H])[H])C([H])([H])[H])[N+]([H])([H])C3([H])[H])c([H])c([H])c2C1([H])[H]

$$$$
25:0:0
     RDKit          3D

 91 99  0  0  1  0  0  0  0  0999 V2000
  -28.6350  -21.8370   20.4160 N   0  0  0  0  0  4  0  0  0  0  0  0
  -27.7130  -21.6700   20.0480 H   0  0  0  0  0  0  0  0  0  0  0  0
  -28.5460  -21.7820   21.4190 H   0  0  0  0  0  0  0  0  0  0  0  0
  -28.9950  -23.3550   20.0790 C   0  0  0  0  0  3  0  0  0  0  0  0
  -27.9820  -24.6580   20.4260 C   0  0  0  0  0  3  0  0  0  0  0  0
  -28.2540  -26.1860   20.2240 O   0  0  0  0  0  0  0  0  0  0  0  0
  -24.6340  -31.8790   23.2380 C   0  0  0  0  0  0  0  0  0  0  0  0
  -27.1910  -27.1620   20.1970 C   0  0  0  0  0  0  0  0  0  0  0  0
  -23.4240  -30.4830   21.6070 C   0  0  0  0  0  3  0  0  0  0  0  0
  -24.8640  -28.9070   20.1780 C   0  0  0  0  0  0  0  0  0  0  0  0
  -25.9780  -30.7460   21.4290 C   0  0  0  0  0  2  0  0  0  0  0  0
  -26.0460  -29.3530   20.7800 C   0  0  0  0  0  0  0  0  0  0  0  0
  -27.2130  -28.4990   20.7700 C   0  0  0  0  0  3  0  0  0  0  0  0
  -25.9830  -26.8250   19.5470 C   0  0  0  0  0  3  0  0  0  0  0  0
  -24.8440  -27.6570   19.5450 C   0  0  0  0  0  3  0  0  0  0  0  0
  -23.6370  -29.8040   20.2290 C   0  0  0  0  0  2  0  0  0  0  0  0
  -24.7000  -31.0590   22.1450 N   0  0  0  0  0  0  0  0  0  0  0  0
  -23.5510  -32.1650   23.7700 O   0  0  0  0  0  0  0  0  0  0  0  0
  -22.7500  -29.4770   22.5730 C   0  0  0  0  0  0  0  0  0  0  0  0
  -21.4230  -29.3030   22.4470 N   0  0  0  0  0  0  0  0  0  0  0  0
  -23.4250  -28.8550   23.3980 O   0  0  0  0  0  0  0  0  0  0  0  0
  -20.9360  -29.8530   21.7540 H   0  0  0  0  0  0  0  0  0  0  0  0
  -18.0470  -28.0870   22.9510 C   0  0  0  0  0  0  0  0  0  0  0  0
  -20.6040  -28.3670   23.2220 C   0  0  0  0  0  3  0  0  0  0  0  0
  -20.7150  -26.9300   22.6590 C   0  0  0  0  0  2  0  0  0  0  0  0
  -19.6170  -26.5930   21.6440 C   0  0  0  0  0  2  0  0  0  0  0  0
  -18.2320  -26.7350   22.2820 C   0  0  0  0  0  2  0  0  0  0  0  0
  -19.1600  -28.8610   23.3760 C   0  0  0  0  0  0  0  0  0  0  0  0
  -18.9300  -30.1240   23.9610 C   0  0  0  0  0  3  0  0  0  0  0  0
  -17.6220  -30.6180   24.1220 C   0  0  0  0  0  3  0  0  0  0  0  0
  -16.5240  -29.8430   23.7100 C   0  0  0  0  0  3  0  0  0  0  0  0
  -16.7370  -28.5790   23.1310 C   0  0  0  0  0  3  0  0  0  0  0  0
  -25.9160  -32.5140   23.8580 C   0  0  0  0  0  3  0  0  0  0  0  0
  -25.6050  -33.9120   24.1940 N   0  0  0  0  0  0  0  0  0  0  0  0
  -25.9260  -34.9700   23.4390 C   0  0  0  0  0  0  0  0  0  0  0  0
  -26.5840  -34.8720   22.3980 O   0  0  0  0  0  0  0  0  0  0  0  0
  -25.0200  -34.0620   25.0030 H   0  0  0  0  0  0  0  0  0  0  0  0
  -24.1900  -36.7650   23.1190 C   0  0  0  0  0  1  0  0  0  0  0  0
  -25.4450  -36.3580   23.9090 C   0  0  0  0  0  3  0  0  0  0  0  0
  -27.5910  -37.2440   24.7090 C   0  0  0  0  0  1  0  0  0  0  0  0
  -26.4740  -37.4120   23.7830 N   0  0  0  0  0  0  0  0  0  0  0  0
  -26.0690  -38.3320   23.9360 H   0  0  0  0  0  0  0  0  0  0  0  0
  -26.4330  -31.7430   25.1350 C   0  0  1  0  0  0  0  0  0  0  0  0
  -25.3420  -31.5100   26.2050 C   0  0  0  0  0  1  0  0  0  0  0  0
  -27.0130  -30.3620   24.7500 C   0  0  0  0  0  1  0  0  0  0  0  0
  -27.5880  -32.5360   25.7920 C   0  0  0  0  0  1  0  0  0  0  0  0
  -29.5180  -20.5840   19.9880 C   0  0  0  0  0  3  0  0  0  0  0  0
  -30.7400  -21.5160   17.8160 C   0  0  0  0  0  2  0  0  0  0  0  0
  -30.9170  -20.0190   17.7970 C   0  0  0  0  0  2  0  0  0  0  0  0
  -29.7050  -20.6270   18.4730 C   0  0  0  0  0  3  0  0  0  0  0  0
  -27.7360  -18.6240   19.9190 C   0  0  0  0  0  1  0  0  0  0  0  0
  -29.1340  -18.9900   20.4470 C   0  0  0  0  0  3  0  0  0  0  0  0
  -30.1320  -17.6500   20.1730 C   0  0  0  0  0  2  0  0  0  0  0  0
  -30.5380  -14.9490   20.2980 C   0  0  0  0  0  0  0  0  0  0  0  0
  -30.3940  -12.6130   19.3470 C   0  0  0  0  0  2  0  0  0  0  0  0
  -29.4580  -12.6030   18.1180 C   0  0  0  0  0  2  0  0  0  0  0  0
  -27.9950  -12.3900   18.5550 C   0  0  0  0  0  2  0  0  0  0  0  0
  -27.5980  -13.2980   19.7510 C   0  0  0  0  0  3  0  0  0  0  0  0
  -28.6600  -13.2910   20.8710 C   0  0  0  0  0  2  0  0  0  0  0  0
  -29.9320  -13.6970   20.2580 N   0  0  0  0  0  0  0  0  0  0  0  0
  -31.7330  -15.0140   19.9920 O   0  0  0  0  0  0  0  0  0  0  0  0
  -29.7740  -16.1360   20.4570 N   0  0  0  0  0  0  0  0  0  0  0  0
  -28.8090  -15.9680   20.6970 H   0  0  0  0  0  0  0  0  0  0  0  0
  -25.2160  -13.8630   20.4940 C   0  0  0  0  0  0  0  0  0  0  0  0
  -24.1570  -13.0820   20.8680 C   0  0  0  0  0  0  0  0  0  0  0  0
  -24.6300  -11.7340   20.8350 C   0  0  0  0  0  0  0  0  0  0  0  0
  -26.2630  -12.9900   20.2520 N   0  0  0  0  0  0  0  0  0  0  0  0
  -25.9200  -11.7040   20.5220 N   0  0  0  0  0  0  0  0  0  0  0  0
  -23.9100  -10.4680   21.0270 C   0  0  0  0  0  0  0  0  0  0  0  0
  -24.3430   -9.5050   21.9650 C   0  0  0  0  0  3  0  0  0  0  0  0
  -23.6210   -8.3040   22.1450 C   0  0  0  0  0  3  0  0  0  0  0  0
  -22.4530   -8.0580   21.3840 C   0  0  0  0  0  0  0  0  0  0  0  0
  -22.0390   -9.0090   20.4350 C   0  0  0  0  0  3  0  0  0  0  0  0
  -22.7610  -10.2010   20.2550 C   0  0  0  0  0  3  0  0  0  0  0  0
  -21.7030   -6.9100   21.4720 O   0  0  0  0  0  0  0  0  0  0  0  0
  -21.6480   -6.1740   22.6280 C   0  0  0  0  0  0  0  0  0  0  0  0
  -21.2050   -6.7320   23.8480 C   0  0  0  0  0  3  0  0  0  0  0  0
  -21.0990   -5.9220   24.9950 C   0  0  0  0  0  3  0  0  0  0  0  0
  -21.4240   -4.5530   24.9250 C   0  0  0  0  0  0  0  0  0  0  0  0
  -21.8600   -3.9950   23.7100 C   0  0  0  0  0  3  0  0  0  0  0  0
  -21.9680   -4.8030   22.5640 C   0  0  0  0  0  0  0  0  0  0  0  0
  -22.3690   -4.2540   21.3920 F   0  0  0  0  0  0  0  0  0  0  0  0
  -21.3140   -3.7730   26.0260 F   0  0  0  0  0  0  0  0  0  0  0  0
  -22.7580  -13.5520   21.1380 C   0  0  0  0  0  0  0  0  0  0  0  0
  -22.0350  -12.8520   22.0060 N   0  0  0  0  0  0  0  0  0  0  0  0
  -22.3140  -14.5740   20.6180 O   0  0  0  0  0  0  0  0  0  0  0  0
  -22.4080  -12.0250   22.4500 H   0  0  0  0  0  0  0  0  0  0  0  0
  -21.0950  -13.1480   22.2300 H   0  0  0  0  0  0  0  0  0  0  0  0
  -25.3690  -15.2340   20.3150 N   0  0  0  0  0  0  0  0  0  0  0  0
  -24.5900  -15.8760   20.4120 H   0  0  0  0  0  0  0  0  0  0  0  0
  -26.1990  -15.6720   19.9350 H   0  0  0  0  0  0  0  0  0  0  0  0
  1  3  1  0
  2  1  1  0
  4  1  1  0
  4  5  2  0
  6  5  1  0
  7 18  2  0
  8  6  1  0
  8 13  1  0
  9 17  1  0
  9 19  1  0
 10 16  1  0
 10 12  1  0
 11 17  1  0
 12 11  1  0
 13 12  2  0
 14  8  2  0
 15 14  1  0
 15 10  2  0
 16  9  1  0
 17  7  1  0
 19 21  2  0
 20 19  1  0
 22 20  1  0
 23 32  2  0
 23 28  1  0
 24 20  1  0
 24 28  1  0
 25 24  1  0
 26 27  1  0
 26 25  1  0
 27 23  1  0
 28 29  2  0
 29 30  1  0
 31 30  2  0
 32 31  1  0
 33  7  1  0
 33 34  1  0
 33 43  1  0
 34 37  1  0
 35 39  1  0
 35 34  1  0
 36 35  2  0
 39 38  1  0
 41 39  1  0
 41 42  1  0
 41 40  1  0
 43 46  1  1
 43 44  1  0
 45 43  1  0
 47  1  1  0
 47 52  1  0
 48 50  1  0
 49 48  1  0
 49 50  1  0
 50 47  1  0
 52 51  1  0
 53 52  1  0
 53 62  1  0
 54 62  1  0
 55 60  1  0
 56 57  1  0
 56 55  1  0
 58 57  1  0
 58 67  1  0
 58 59  1  0
 60 54  1  0
 60 59  1  0
 61 54  2  0
 62 63  1  0
 64 65  2  0
 65 84  1  0
 66 65  1  0
 66 69  1  0
 67 64  1  0
 67 68  1  0
 68 66  2  0
 69 70  1  0
 70 71  2  0
 72 75  1  0
 72 71  1  0
 73 72  2  0
 74 73  1  0
 74 69  2  0
 75 76  1  0
 76 77  1  0
 77 78  2  0
 79 78  1  0
 79 83  1  0
 80 79  2  0
 81 76  2  0
 81 80  1  0
 82 81  1  0
 84 85  1  0
 85 88  1  0
 85 87  1  0
 86 84  2  0
 89 90  1  0
 89 64  1  0
 91 89  1  0
M  ISO  4   5 101   6 101  54 100  62 100
M  END
>  <TORSDO>  (26) 
F 22

>  <SCORE>  (26) 
-13.432

>  <name>  (26) 
25

>  <ligand_id>  (26) 
25

>  <original_smiles>  (26) 
[H]c1c([H])c([H])c2c(c1[H])C([H])([H])C([H])([H])C([H])([H])C2([H])N([H])C(=O)C1([H])N(C(=O)C([H])(N([H])C(=O)C([H])(N([H])C([H])([H])[H])C([H])([H])[H])C(C([H])([H])[H])(C([H])([H])[H])C([H])([H])[H])C([H])([H])c2c([H])c(OC([H])([H])C([H])([H])[N+]([H])([H])C([H])(C([H])(C([H])([H])[H])C([H])([H])N([H])C(=O)N3C([H])([H])C([H])([H])C([H])([H])C([H])(n4nc(-c5c([H])c([H])c(Oc6c([H])c([H])c(F)c([H])c6F)c([H])c5[H])c(C(=O)N([H])[H])c4N([H])[H])C3([H])[H])C3([H])C([H])([H])C3([H])[H])c([H])c([H])c2C1([H])[H]

>  <smiles>  (26) 
[H]c1c([H])c([H])c2c(c1[H])C([H])([H])C([H])([H])C([H])([H])C2([H])N([H])C(=O)C1([H])N(C(=O)C([H])(N([H])C(=O)C([H])(N([H])C([H])([H])[H])C([H])([H])[H])C(C([H])([H])[H])(C([H])([H])[H])C([H])([H])[H])C([H])([H])c2c([H])c(OC([H])([H])C([H])([H])[N+]([H])([H])C([H])(C([H])(C([H])([H])[H])C([H])([H])N([H])C(=O)N3C([H])([H])C([H])([H])C([H])([H])C([H])(n4nc(-c5c([H])c([H])c(Oc6c([H])c([H])c(F)c([H])c6F)c([H])c5[H])c(C(=O)N([H])[H])c4N([H])[H])C3([H])[H])C3([H])C([H])([H])C3([H])[H])c([H])c([H])c2C1([H])[H]

$$$$
26:0:0
     RDKit          3D

 89 97  0  0  1  0  0  0  0  0999 V2000
  -28.9900  -21.3700   22.4750 C   0  0  0  0  0  3  0  0  0  0  0  0
  -29.3410  -20.1760   21.8140 C   0  0  0  0  0  3  0  0  0  0  0  0
  -28.9470  -22.6020   21.7940 C   0  0  0  0  0  3  0  0  0  0  0  0
  -29.6290  -21.4490   19.7630 C   0  0  0  0  0  3  0  0  0  0  0  0
  -29.6770  -20.1670   20.4450 C   0  0  0  0  0  0  0  0  0  0  0  0
  -29.2600  -22.6920   20.4190 C   0  0  0  0  0  0  0  0  0  0  0  0
  -29.9210  -18.7590   19.7550 C   0  0  0  0  0  2  0  0  0  0  0  0
  -30.8170  -17.6230   20.4690 C   0  0  0  0  0  2  0  0  0  0  0  0
  -31.2320  -15.0490   20.0470 C   0  0  0  0  0  0  0  0  0  0  0  0
  -31.0030  -12.7620   19.0790 C   0  0  0  0  0  2  0  0  0  0  0  0
  -30.0370  -12.8160   17.8740 C   0  0  0  0  0  2  0  0  0  0  0  0
  -28.5740  -12.6710   18.3390 C   0  0  0  0  0  2  0  0  0  0  0  0
  -28.2350  -13.6010   19.5340 C   0  0  0  0  0  3  0  0  0  0  0  0
  -29.3100  -13.5130   20.6380 C   0  0  0  0  0  2  0  0  0  0  0  0
  -30.6000  -13.8310   20.0160 N   0  0  0  0  0  0  0  0  0  0  0  0
  -32.4100  -15.1590   19.6990 O   0  0  0  0  0  0  0  0  0  0  0  0
  -30.4490  -16.1570   20.2950 N   0  0  0  0  0  0  0  0  0  0  0  0
  -29.4860  -15.9360   20.4980 H   0  0  0  0  0  0  0  0  0  0  0  0
  -25.8870  -14.2570   20.3380 C   0  0  0  0  0  0  0  0  0  0  0  0
  -24.8070  -13.5070   20.7210 C   0  0  0  0  0  0  0  0  0  0  0  0
  -25.2270  -12.1430   20.6500 C   0  0  0  0  0  0  0  0  0  0  0  0
  -26.8960  -13.3490   20.0550 N   0  0  0  0  0  0  0  0  0  0  0  0
  -26.5070  -12.0720   20.3050 N   0  0  0  0  0  0  0  0  0  0  0  0
  -24.4670  -10.8990   20.8320 C   0  0  0  0  0  0  0  0  0  0  0  0
  -24.8310   -9.9490   21.8100 C   0  0  0  0  0  3  0  0  0  0  0  0
  -24.0750   -8.7690   21.9780 C   0  0  0  0  0  3  0  0  0  0  0  0
  -22.9400   -8.5320   21.1650 C   0  0  0  0  0  0  0  0  0  0  0  0
  -22.5960   -9.4710   20.1770 C   0  0  0  0  0  3  0  0  0  0  0  0
  -23.3530  -10.6420   20.0080 C   0  0  0  0  0  3  0  0  0  0  0  0
  -22.1610   -7.4030   21.2410 O   0  0  0  0  0  0  0  0  0  0  0  0
  -21.9510   -6.7510   22.4290 C   0  0  0  0  0  0  0  0  0  0  0  0
  -21.3350   -7.3880   23.5290 C   0  0  0  0  0  3  0  0  0  0  0  0
  -21.0760   -6.6600   24.7070 C   0  0  0  0  0  3  0  0  0  0  0  0
  -21.4200   -5.2970   24.7860 C   0  0  0  0  0  0  0  0  0  0  0  0
  -22.0270   -4.6600   23.6890 C   0  0  0  0  0  3  0  0  0  0  0  0
  -22.2890   -5.3850   22.5130 C   0  0  0  0  0  0  0  0  0  0  0  0
  -22.8550   -4.7610   21.4510 F   0  0  0  0  0  0  0  0  0  0  0  0
  -21.1630   -4.5960   25.9140 F   0  0  0  0  0  0  0  0  0  0  0  0
  -23.4330  -14.0200   21.0410 C   0  0  0  0  0  0  0  0  0  0  0  0
  -22.7130  -13.3340   21.9220 N   0  0  0  0  0  0  0  0  0  0  0  0
  -23.0090  -15.0640   20.5470 O   0  0  0  0  0  0  0  0  0  0  0  0
  -23.0690  -12.4880   22.3410 H   0  0  0  0  0  0  0  0  0  0  0  0
  -21.7930  -13.6610   22.1820 H   0  0  0  0  0  0  0  0  0  0  0  0
  -26.0900  -15.6240   20.1830 N   0  0  0  0  0  0  0  0  0  0  0  0
  -25.3460  -16.3000   20.3190 H   0  0  0  0  0  0  0  0  0  0  0  0
  -26.9310  -16.0380   19.8030 H   0  0  0  0  0  0  0  0  0  0  0  0
  -29.2200  -24.1140   19.7090 C   0  0  0  0  0  3  0  0  0  0  0  0
  -28.4940  -25.3640   20.4220 C   0  0  0  0  0  3  0  0  0  0  0  0
  -28.6070  -26.7490   19.8860 O   0  0  0  0  0  0  0  0  0  0  0  0
  -24.6860  -31.8540   23.2090 C   0  0  0  0  0  0  0  0  0  0  0  0
  -27.4660  -27.5650   19.9210 C   0  0  0  0  0  0  0  0  0  0  0  0
  -23.5390  -30.5100   21.4860 C   0  0  0  0  0  3  0  0  0  0  0  0
  -25.0480  -29.0900   19.9840 C   0  0  0  0  0  0  0  0  0  0  0  0
  -26.0660  -30.9280   21.3320 C   0  0  0  0  0  2  0  0  0  0  0  0
  -26.1980  -29.5890   20.6110 C   0  0  0  0  0  0  0  0  0  0  0  0
  -27.4120  -28.8390   20.5680 C   0  0  0  0  0  3  0  0  0  0  0  0
  -26.2970  -27.1210   19.2690 C   0  0  0  0  0  3  0  0  0  0  0  0
  -25.1000  -27.8640   19.3020 C   0  0  0  0  0  3  0  0  0  0  0  0
  -23.7810  -29.9180   20.0720 C   0  0  0  0  0  2  0  0  0  0  0  0
  -24.7820  -31.1110   22.0680 N   0  0  0  0  0  0  0  0  0  0  0  0
  -23.5920  -32.0630   23.7530 O   0  0  0  0  0  0  0  0  0  0  0  0
  -22.9080  -29.4190   22.3850 C   0  0  0  0  0  0  0  0  0  0  0  0
  -21.5870  -29.2110   22.2460 N   0  0  0  0  0  0  0  0  0  0  0  0
  -23.6060  -28.7660   23.1650 O   0  0  0  0  0  0  0  0  0  0  0  0
  -21.0830  -29.7880   21.5880 H   0  0  0  0  0  0  0  0  0  0  0  0
  -18.2440  -27.9090   22.6980 C   0  0  0  0  0  0  0  0  0  0  0  0
  -20.7990  -28.2070   22.9620 C   0  0  0  0  0  3  0  0  0  0  0  0
  -20.9280  -26.8210   22.2900 C   0  0  0  0  0  2  0  0  0  0  0  0
  -19.8220  -26.5420   21.2680 C   0  0  0  0  0  2  0  0  0  0  0  0
  -18.4440  -26.6120   21.9320 C   0  0  0  0  0  2  0  0  0  0  0  0
  -19.3500  -28.6660   23.1690 C   0  0  0  0  0  0  0  0  0  0  0  0
  -19.1100  -29.8800   23.8470 C   0  0  0  0  0  3  0  0  0  0  0  0
  -17.7960  -30.3390   24.0610 C   0  0  0  0  0  3  0  0  0  0  0  0
  -16.7040  -29.5780   23.6080 C   0  0  0  0  0  3  0  0  0  0  0  0
  -16.9300  -28.3660   22.9310 C   0  0  0  0  0  3  0  0  0  0  0  0
  -25.9450  -32.4950   23.8730 C   0  0  0  0  0  3  0  0  0  0  0  0
  -26.4460  -31.7060   25.1440 C   0  0  1  0  0  0  0  0  0  0  0  0
  -25.3260  -31.4010   26.1670 C   0  0  0  0  0  1  0  0  0  0  0  0
  -27.0880  -30.3610   24.7350 C   0  0  0  0  0  1  0  0  0  0  0  0
  -27.5440  -32.5210   25.8650 C   0  0  0  0  0  1  0  0  0  0  0  0
  -25.6030  -33.8810   24.2250 N   0  0  0  0  0  0  0  0  0  0  0  0
  -25.9250  -34.9550   23.4930 C   0  0  0  0  0  0  0  0  0  0  0  0
  -26.6110  -34.8860   22.4680 O   0  0  0  0  0  0  0  0  0  0  0  0
  -24.9970  -34.0070   25.0220 H   0  0  0  0  0  0  0  0  0  0  0  0
  -24.1610  -36.7180   23.1610 C   0  0  0  0  0  1  0  0  0  0  0  0
  -25.4060  -36.3260   23.9720 C   0  0  0  0  0  3  0  0  0  0  0  0
  -27.5110  -37.2460   24.8380 C   0  0  0  0  0  1  0  0  0  0  0  0
  -26.4170  -37.4020   23.8840 N   0  0  0  0  0  0  0  0  0  0  0  0
  -25.9890  -38.3110   24.0380 H   0  0  0  0  0  0  0  0  0  0  0  0
  2  1  1  0
  3  1  2  0
  4  6  2  0
  4  5  1  0
  5  2  2  0
  6  3  1  0
  7  5  1  0
  7  8  1  0
  9 17  1  0
 10 15  1  0
 11 12  1  0
 11 10  1  0
 13 12  1  0
 13 22  1  0
 13 14  1  0
 15  9  1  0
 15 14  1  0
 16  9  2  0
 17  8  1  0
 17 18  1  0
 19 20  2  0
 20 39  1  0
 21 20  1  0
 21 24  1  0
 22 23  1  0
 22 19  1  0
 23 21  2  0
 24 25  1  0
 25 26  2  0
 27 30  1  0
 27 26  1  0
 28 27  2  0
 29 28  1  0
 29 24  2  0
 30 31  1  0
 31 36  2  0
 31 32  1  0
 32 33  2  0
 33 34  1  0
 34 38  1  0
 35 34  2  0
 36 35  1  0
 37 36  1  0
 39 40  1  0
 40 43  1  0
 40 42  1  0
 41 39  2  0
 44 45  1  0
 44 19  1  0
 46 44  1  0
 47  6  1  0
 47 48  2  0
 49 51  1  0
 49 48  1  0
 50 61  2  0
 51 56  1  0
 52 60  1  0
 52 62  1  0
 53 59  1  0
 53 55  1  0
 54 60  1  0
 55 54  1  0
 56 55  2  0
 57 58  1  0
 57 51  2  0
 58 53  2  0
 59 52  1  0
 60 50  1  0
 62 64  2  0
 63 62  1  0
 65 63  1  0
 66 75  2  0
 66 71  1  0
 67 63  1  0
 67 71  1  0
 68 67  1  0
 69 70  1  0
 69 68  1  0
 70 66  1  0
 71 72  2  0
 72 73  1  0
 74 73  2  0
 75 74  1  0
 76 50  1  0
 76 81  1  0
 76 77  1  0
 77 80  1  1
 77 78  1  0
 79 77  1  0
 81 84  1  0
 82 86  1  0
 82 81  1  0
 83 82  2  0
 86 85  1  0
 88 86  1  0
 88 89  1  0
 88 87  1  0
M  ISO  4   9 100  17 100  48 101  49 101
M  END
>  <TORSDO>  (27) 
F 20

>  <SCORE>  (27) 
-12.146

>  <name>  (27) 
26

>  <ligand_id>  (27) 
26

>  <original_smiles>  (27) 
[H]c1c([H])c(C([H])([H])C([H])([H])Oc2c([H])c([H])c3c(c2[H])C([H])([H])N(C(=O)C([H])(N([H])C(=O)C([H])(N([H])C([H])([H])[H])C([H])([H])[H])C(C([H])([H])[H])(C([H])([H])[H])C([H])([H])[H])C([H])(C(=O)N([H])C2([H])c4c([H])c([H])c([H])c([H])c4C([H])([H])C([H])([H])C2([H])[H])C3([H])[H])c([H])c(C([H])([H])C([H])([H])N([H])C(=O)N2C([H])([H])C([H])([H])C([H])([H])C([H])(n3nc(-c4c([H])c([H])c(Oc5c([H])c([H])c(F)c([H])c5F)c([H])c4[H])c(C(=O)N([H])[H])c3N([H])[H])C2([H])[H])c1[H]

>  <smiles>  (27) 
[H]c1c([H])c(C([H])([H])C([H])([H])Oc2c([H])c([H])c3c(c2[H])C([H])([H])N(C(=O)C([H])(N([H])C(=O)C([H])(N([H])C([H])([H])[H])C([H])([H])[H])C(C([H])([H])[H])(C([H])([H])[H])C([H])([H])[H])C([H])(C(=O)N([H])C2([H])c4c([H])c([H])c([H])c([H])c4C([H])([H])C([H])([H])C2([H])[H])C3([H])[H])c([H])c(C([H])([H])C([H])([H])N([H])C(=O)N2C([H])([H])C([H])([H])C([H])([H])C([H])(n3nc(-c4c([H])c([H])c(Oc5c([H])c([H])c(F)c([H])c5F)c([H])c4[H])c(C(=O)N([H])[H])c3N([H])[H])C2([H])[H])c1[H]

$$$$
27:0:0
     RDKit          3D

 95104  0  0  1  0  0  0  0  0999 V2000
  -29.1010  -23.1420   22.8250 C   0  0  0  0  0  0  0  0  0  0  0  0
  -29.4770  -21.6540   22.6950 C   0  0  0  0  0  2  0  0  0  0  0  0
  -28.8810  -23.2190   21.2960 C   0  0  0  0  0  3  0  0  0  0  0  0
  -29.8310  -21.9860   21.2270 C   0  0  0  0  0  3  0  0  0  0  0  0
  -29.1020  -23.9600   23.7480 O   0  0  0  0  0  0  0  0  0  0  0  0
  -28.5510  -21.0350   19.2710 C   0  0  0  0  0  2  0  0  0  0  0  0
  -29.5280  -20.9030   20.1870 C   0  0  0  0  0  0  0  0  0  0  0  0
  -30.4350  -19.6730   20.1730 C   0  0  0  0  0  2  0  0  0  0  0  0
  -30.3150  -18.3520   22.3670 C   0  0  0  0  0  2  0  0  0  0  0  0
  -31.6290  -17.5580   22.3920 C   0  0  0  0  0  2  0  0  0  0  0  0
  -29.8860  -18.3980   20.8900 C   0  0  0  0  0  3  0  0  0  0  0  0
  -30.5200  -17.0950   20.3350 C   0  0  0  0  0  3  0  0  0  0  0  0
  -31.8200  -17.0320   21.0300 N   0  0  0  0  0  4  0  0  0  0  0  0
  -32.2160  -16.1050   21.0230 H   0  0  0  0  0  0  0  0  0  0  0  0
  -32.4620  -17.6400   20.5460 H   0  0  0  0  0  0  0  0  0  0  0  0
  -29.7000  -15.7770   20.5600 C   0  0  0  0  0  2  0  0  0  0  0  0
  -30.3470  -14.5350   19.8970 C   0  0  0  0  0  0  0  0  0  0  0  0
  -30.0820  -12.2960   18.9010 C   0  0  0  0  0  2  0  0  0  0  0  0
  -29.0490  -12.3530   17.7580 C   0  0  0  0  0  2  0  0  0  0  0  0
  -27.6210  -12.1590   18.3010 C   0  0  0  0  0  2  0  0  0  0  0  0
  -27.3170  -13.0660   19.5250 C   0  0  0  0  0  3  0  0  0  0  0  0
  -28.4610  -13.0090   20.5650 C   0  0  0  0  0  2  0  0  0  0  0  0
  -29.7210  -13.3290   19.8830 N   0  0  0  0  0  0  0  0  0  0  0  0
  -31.4120  -14.7090   19.3010 O   0  0  0  0  0  0  0  0  0  0  0  0
  -24.9760  -13.5830   20.4610 C   0  0  0  0  0  0  0  0  0  0  0  0
  -23.9700  -12.7710   20.9130 C   0  0  0  0  0  0  0  0  0  0  0  0
  -24.4700  -11.4370   20.8240 C   0  0  0  0  0  0  0  0  0  0  0  0
  -26.0230  -12.7390   20.1250 N   0  0  0  0  0  0  0  0  0  0  0  0
  -25.7280  -11.4430   20.4010 N   0  0  0  0  0  0  0  0  0  0  0  0
  -23.8040  -10.1490   21.0650 C   0  0  0  0  0  0  0  0  0  0  0  0
  -24.2780   -9.2440   22.0380 C   0  0  0  0  0  3  0  0  0  0  0  0
  -23.6120   -8.0200   22.2620 C   0  0  0  0  0  3  0  0  0  0  0  0
  -22.4580   -7.6930   21.5120 C   0  0  0  0  0  0  0  0  0  0  0  0
  -22.0060   -8.5870   20.5270 C   0  0  0  0  0  3  0  0  0  0  0  0
  -22.6720   -9.8020   20.3010 C   0  0  0  0  0  3  0  0  0  0  0  0
  -21.7600   -6.5170   21.6430 O   0  0  0  0  0  0  0  0  0  0  0  0
  -21.6620   -5.8680   22.8480 C   0  0  0  0  0  0  0  0  0  0  0  0
  -21.0930   -6.4860   23.9820 C   0  0  0  0  0  3  0  0  0  0  0  0
  -20.9460   -5.7590   25.1810 C   0  0  0  0  0  3  0  0  0  0  0  0
  -21.3620   -4.4150   25.2460 C   0  0  0  0  0  0  0  0  0  0  0  0
  -21.9270   -3.7980   24.1160 C   0  0  0  0  0  3  0  0  0  0  0  0
  -22.0750   -4.5210   22.9200 C   0  0  0  0  0  0  0  0  0  0  0  0
  -22.5990   -3.9130   21.8280 F   0  0  0  0  0  0  0  0  0  0  0  0
  -21.2160   -3.7160   26.3960 F   0  0  0  0  0  0  0  0  0  0  0  0
  -22.5890  -13.2010   21.3170 C   0  0  0  0  0  0  0  0  0  0  0  0
  -21.9740  -12.4770   22.2460 N   0  0  0  0  0  0  0  0  0  0  0  0
  -22.0690  -14.2090   20.8450 O   0  0  0  0  0  0  0  0  0  0  0  0
  -22.4130  -11.6620   22.6490 H   0  0  0  0  0  0  0  0  0  0  0  0
  -21.0500  -12.7400   22.5590 H   0  0  0  0  0  0  0  0  0  0  0  0
  -25.0780  -14.9590   20.2900 N   0  0  0  0  0  0  0  0  0  0  0  0
  -24.2950  -15.5780   20.4670 H   0  0  0  0  0  0  0  0  0  0  0  0
  -25.8790  -15.4370   19.8970 H   0  0  0  0  0  0  0  0  0  0  0  0
  -29.2370  -24.5850   20.6780 C   0  0  0  0  0  2  0  0  0  0  0  0
  -28.0130  -25.5180   20.6310 C   0  0  0  0  0  2  0  0  0  0  0  0
  -28.2660  -26.8440   20.1260 O   0  0  0  0  0  0  0  0  0  0  0  0
  -24.6440  -32.0060   23.4350 C   0  0  0  0  0  0  0  0  0  0  0  0
  -27.1390  -27.6410   20.1270 C   0  0  0  0  0  0  0  0  0  0  0  0
  -23.3840  -30.7030   21.7550 C   0  0  0  0  0  3  0  0  0  0  0  0
  -24.7820  -29.2020   20.2350 C   0  0  0  0  0  0  0  0  0  0  0  0
  -25.9160  -31.0120   21.5330 C   0  0  0  0  0  2  0  0  0  0  0  0
  -25.9610  -29.6710   20.8300 C   0  0  0  0  0  0  0  0  0  0  0  0
  -27.1460  -28.8990   20.7730 C   0  0  0  0  0  3  0  0  0  0  0  0
  -25.9460  -27.1990   19.5100 C   0  0  0  0  0  3  0  0  0  0  0  0
  -24.7700  -27.9660   19.5700 C   0  0  0  0  0  3  0  0  0  0  0  0
  -23.5560  -30.0800   20.3440 C   0  0  0  0  0  2  0  0  0  0  0  0
  -24.6680  -31.2510   22.3000 N   0  0  0  0  0  0  0  0  0  0  0  0
  -23.5760  -32.2770   24.0030 O   0  0  0  0  0  0  0  0  0  0  0  0
  -22.7280  -29.6540   22.6810 C   0  0  0  0  0  0  0  0  0  0  0  0
  -21.4080  -29.4600   22.5250 N   0  0  0  0  0  0  0  0  0  0  0  0
  -23.4030  -29.0190   23.4940 O   0  0  0  0  0  0  0  0  0  0  0  0
  -20.9290  -30.0200   21.8330 H   0  0  0  0  0  0  0  0  0  0  0  0
  -18.0500  -28.1810   22.9010 C   0  0  0  0  0  0  0  0  0  0  0  0
  -20.5900  -28.4980   23.2600 C   0  0  0  0  0  3  0  0  0  0  0  0
  -20.7480  -27.0740   22.6790 C   0  0  0  0  0  2  0  0  0  0  0  0
  -19.6870  -26.7320   21.6260 C   0  0  0  0  0  2  0  0  0  0  0  0
  -18.2810  -26.8420   22.2240 C   0  0  0  0  0  2  0  0  0  0  0  0
  -19.1350  -28.9650   23.3740 C   0  0  0  0  0  0  0  0  0  0  0  0
  -18.8660  -30.2180   23.9680 C   0  0  0  0  0  3  0  0  0  0  0  0
  -17.5440  -30.6870   24.0940 C   0  0  0  0  0  3  0  0  0  0  0  0
  -16.4730  -29.9000   23.6350 C   0  0  0  0  0  3  0  0  0  0  0  0
  -16.7260  -28.6480   23.0440 C   0  0  0  0  0  3  0  0  0  0  0  0
  -25.9500  -32.5830   24.0600 C   0  0  0  0  0  3  0  0  0  0  0  0
  -25.6890  -33.9870   24.4060 N   0  0  0  0  0  0  0  0  0  0  0  0
  -26.0630  -35.0360   23.6610 C   0  0  0  0  0  0  0  0  0  0  0  0
  -26.7320  -34.9220   22.6310 O   0  0  0  0  0  0  0  0  0  0  0  0
  -25.0970  -34.1530   25.2060 H   0  0  0  0  0  0  0  0  0  0  0  0
  -24.4000  -36.8900   23.3220 C   0  0  0  0  0  1  0  0  0  0  0  0
  -25.6230  -36.4340   24.1320 C   0  0  0  0  0  3  0  0  0  0  0  0
  -27.7840  -37.2320   24.9810 C   0  0  0  0  0  1  0  0  0  0  0  0
  -26.6940  -37.4500   24.0340 N   0  0  0  0  0  0  0  0  0  0  0  0
  -26.3220  -38.3830   24.1900 H   0  0  0  0  0  0  0  0  0  0  0  0
  -26.4450  -31.7780   25.3230 C   0  0  1  0  0  0  0  0  0  0  0  0
  -25.3420  -31.5460   26.3820 C   0  0  0  0  0  1  0  0  0  0  0  0
  -26.9980  -30.3950   24.9080 C   0  0  0  0  0  1  0  0  0  0  0  0
  -27.6130  -32.5340   26.0000 C   0  0  0  0  0  1  0  0  0  0  0  0
  1  5  2  0
  2  1  1  0
  3 53  1  0
  3  1  1  0
  4  7  1  0
  4  3  1  0
  4  2  1  0
  6  7  2  0
  8  7  1  0
  9 10  1  0
 11  8  1  0
 11  9  1  0
 12 16  1  0
 12 11  1  0
 12 13  1  0
 13 10  1  0
 14 13  1  0
 15 13  1  0
 17 16  1  0
 18 23  1  0
 19 20  1  0
 19 18  1  0
 21 20  1  0
 21 28  1  0
 21 22  1  0
 23 17  1  0
 23 22  1  0
 24 17  2  0
 25 26  2  0
 26 45  1  0
 27 26  1  0
 27 30  1  0
 28 29  1  0
 28 25  1  0
 29 27  2  0
 30 31  1  0
 31 32  2  0
 33 36  1  0
 33 32  1  0
 34 33  2  0
 35 34  1  0
 35 30  2  0
 36 37  1  0
 37 42  2  0
 37 38  1  0
 38 39  2  0
 39 40  1  0
 40 44  1  0
 41 40  2  0
 42 41  1  0
 43 42  1  0
 45 46  1  0
 46 49  1  0
 46 48  1  0
 47 45  2  0
 50 25  1  0
 50 51  1  0
 52 50  1  0
 54 53  1  0
 55 57  1  0
 55 54  1  0
 56 67  2  0
 57 62  1  0
 58 66  1  0
 58 68  1  0
 59 65  1  0
 59 61  1  0
 60 66  1  0
 61 60  1  0
 62 61  2  0
 63 64  1  0
 63 57  2  0
 64 59  2  0
 65 58  1  0
 66 56  1  0
 68 70  2  0
 69 68  1  0
 71 69  1  0
 72 81  2  0
 72 77  1  0
 73 69  1  0
 73 77  1  0
 74 73  1  0
 75 76  1  0
 75 74  1  0
 76 72  1  0
 77 78  2  0
 78 79  1  0
 80 79  2  0
 81 80  1  0
 82 56  1  0
 82 83  1  0
 82 92  1  0
 83 86  1  0
 84 88  1  0
 84 83  1  0
 85 84  2  0
 88 87  1  0
 90 88  1  0
 90 91  1  0
 90 89  1  0
 92 95  1  1
 92 93  1  0
 94 92  1  0
M  ISO  4  16 100  17 100  54 101  55 101
M  END
>  <TORSDO>  (28) 
F 22

>  <SCORE>  (28) 
-11.240

>  <name>  (28) 
27

>  <ligand_id>  (28) 
27

>  <original_smiles>  (28) 
[H]C([H])=C(C([H])([H])C1([H])C([H])([H])C([H])([H])[N+]([H])([H])C1([H])C([H])([H])C(=O)N1C([H])([H])C([H])([H])C([H])([H])C([H])(n2nc(-c3c([H])c([H])c(Oc4c([H])c([H])c(F)c([H])c4F)c([H])c3[H])c(C(=O)N([H])[H])c2N([H])[H])C1([H])[H])C1([H])C([H])([H])C(=O)C1([H])C([H])([H])C([H])([H])Oc1c([H])c([H])c2c(c1[H])C([H])([H])N(C(=O)C([H])(N([H])C(=O)C([H])(N([H])C([H])([H])[H])C([H])([H])[H])C(C([H])([H])[H])(C([H])([H])[H])C([H])([H])[H])C([H])(C(=O)N([H])C1([H])c3c([H])c([H])c([H])c([H])c3C([H])([H])C([H])([H])C1([H])[H])C2([H])[H]

>  <smiles>  (28) 
[H]C([H])=C(C([H])([H])C1([H])C([H])([H])C([H])([H])[N+]([H])([H])C1([H])C([H])([H])C(=O)N1C([H])([H])C([H])([H])C([H])([H])C([H])(n2nc(-c3c([H])c([H])c(Oc4c([H])c([H])c(F)c([H])c4F)c([H])c3[H])c(C(=O)N([H])[H])c2N([H])[H])C1([H])[H])C1([H])C([H])([H])C(=O)C1([H])C([H])([H])C([H])([H])Oc1c([H])c([H])c2c(c1[H])C([H])([H])N(C(=O)C([H])(N([H])C(=O)C([H])(N([H])C([H])([H])[H])C([H])([H])[H])C(C([H])([H])[H])(C([H])([H])[H])C([H])([H])[H])C([H])(C(=O)N([H])C1([H])c3c([H])c([H])c([H])c([H])c3C([H])([H])C([H])([H])C1([H])[H])C2([H])[H]

$$$$
28:0:0
     RDKit          3D

 89 97  0  0  1  0  0  0  0  0999 V2000
  -28.6710  -20.8620   20.4040 N   0  0  0  0  0  4  0  0  0  0  0  0
  -28.7790  -20.8110   21.4050 H   0  0  0  0  0  0  0  0  0  0  0  0
  -27.6770  -20.7820   20.2610 H   0  0  0  0  0  0  0  0  0  0  0  0
  -30.4060  -15.5570   19.8510 C   0  0  0  0  0  0  0  0  0  0  0  0
  -30.3140  -13.1060   18.9170 C   0  0  0  0  0  2  0  0  0  0  0  0
  -29.3170  -12.8080   17.7700 C   0  0  0  0  0  2  0  0  0  0  0  0
  -27.9290  -12.4730   18.3360 C   0  0  0  0  0  2  0  0  0  0  0  0
  -27.5320  -13.4330   19.4840 C   0  0  0  0  0  3  0  0  0  0  0  0
  -28.6590  -13.6760   20.5110 C   0  0  0  0  0  2  0  0  0  0  0  0
  -29.7850  -14.2610   19.7570 N   0  0  0  0  0  0  0  0  0  0  0  0
  -31.6240  -15.4440   19.6330 O   0  0  0  0  0  0  0  0  0  0  0  0
  -28.5240  -17.8310   20.0660 C   0  0  0  0  0  2  0  0  0  0  0  0
  -30.4900  -18.3780   20.2770 C   0  0  0  0  0  3  0  0  0  0  0  0
  -29.2210  -19.3310   19.8180 C   0  0  0  0  0  3  0  0  0  0  0  0
  -29.8330  -16.9690   19.9820 N   0  0  0  0  0  0  0  0  0  0  0  0
  -25.2430  -13.9250   20.4740 C   0  0  0  0  0  0  0  0  0  0  0  0
  -24.2210  -13.1220   20.8950 C   0  0  0  0  0  0  0  0  0  0  0  0
  -24.6930  -11.7800   20.7680 C   0  0  0  0  0  0  0  0  0  0  0  0
  -26.2650  -13.0710   20.1040 N   0  0  0  0  0  0  0  0  0  0  0  0
  -25.9550  -11.7710   20.3500 N   0  0  0  0  0  0  0  0  0  0  0  0
  -23.9910  -10.5040   20.9640 C   0  0  0  0  0  0  0  0  0  0  0  0
  -24.4550   -9.5350   21.8800 C   0  0  0  0  0  3  0  0  0  0  0  0
  -23.7470   -8.3280   22.0670 C   0  0  0  0  0  3  0  0  0  0  0  0
  -22.5610   -8.0800   21.3360 C   0  0  0  0  0  0  0  0  0  0  0  0
  -22.1150   -9.0380   20.4090 C   0  0  0  0  0  3  0  0  0  0  0  0
  -22.8230  -10.2370   20.2200 C   0  0  0  0  0  3  0  0  0  0  0  0
  -21.8220   -6.9260   21.4340 O   0  0  0  0  0  0  0  0  0  0  0  0
  -21.7590   -6.2070   22.6010 C   0  0  0  0  0  0  0  0  0  0  0  0
  -21.2720   -6.7730   23.7990 C   0  0  0  0  0  3  0  0  0  0  0  0
  -21.1590   -5.9790   24.9570 C   0  0  0  0  0  3  0  0  0  0  0  0
  -21.5230   -4.6200   24.9180 C   0  0  0  0  0  0  0  0  0  0  0  0
  -22.0030   -4.0530   23.7250 C   0  0  0  0  0  3  0  0  0  0  0  0
  -22.1170   -4.8440   22.5680 C   0  0  0  0  0  0  0  0  0  0  0  0
  -22.5600   -4.2880   21.4150 F   0  0  0  0  0  0  0  0  0  0  0  0
  -21.4080   -3.8540   26.0290 F   0  0  0  0  0  0  0  0  0  0  0  0
  -22.8490  -13.5760   21.2930 C   0  0  0  0  0  0  0  0  0  0  0  0
  -22.1960  -12.8430   22.1870 N   0  0  0  0  0  0  0  0  0  0  0  0
  -22.3670  -14.6170   20.8460 O   0  0  0  0  0  0  0  0  0  0  0  0
  -22.6020  -12.0010   22.5680 H   0  0  0  0  0  0  0  0  0  0  0  0
  -21.2780  -13.1280   22.4960 H   0  0  0  0  0  0  0  0  0  0  0  0
  -25.3840  -15.3040   20.3410 N   0  0  0  0  0  0  0  0  0  0  0  0
  -24.6260  -15.9450   20.5440 H   0  0  0  0  0  0  0  0  0  0  0  0
  -26.2010  -15.7600   19.9590 H   0  0  0  0  0  0  0  0  0  0  0  0
  -30.9230  -18.4830   21.7180 C   0  0  0  0  0  0  0  0  0  0  0  0
  -32.1110  -17.6200   22.1200 C   0  0  0  0  0  1  0  0  0  0  0  0
  -30.3950  -19.2010   22.5720 O   0  0  0  0  0  0  0  0  0  0  0  0
  -28.9220  -22.5150   20.0140 C   0  0  0  0  0  3  0  0  0  0  0  0
  -27.9710  -24.0890   20.3670 C   0  0  0  0  0  3  0  0  0  0  0  0
  -28.1820  -25.7850   20.2860 O   0  0  0  0  0  0  0  0  0  0  0  0
  -24.6270  -31.9270   23.1970 C   0  0  0  0  0  0  0  0  0  0  0  0
  -27.1760  -26.9250   20.2550 C   0  0  0  0  0  0  0  0  0  0  0  0
  -23.4360  -30.5050   21.5810 C   0  0  0  0  0  3  0  0  0  0  0  0
  -24.8860  -28.8680   20.1830 C   0  0  0  0  0  0  0  0  0  0  0  0
  -26.0090  -30.6930   21.4360 C   0  0  0  0  0  2  0  0  0  0  0  0
  -26.0800  -29.2640   20.7990 C   0  0  0  0  0  0  0  0  0  0  0  0
  -27.2160  -28.3180   20.8020 C   0  0  0  0  0  3  0  0  0  0  0  0
  -25.9470  -26.7070   19.5880 C   0  0  0  0  0  3  0  0  0  0  0  0
  -24.8510  -27.6130   19.5540 C   0  0  0  0  0  3  0  0  0  0  0  0
  -23.6700  -29.8000   20.2160 C   0  0  0  0  0  2  0  0  0  0  0  0
  -24.7140  -31.0720   22.1240 N   0  0  0  0  0  0  0  0  0  0  0  0
  -23.5360  -32.2230   23.7120 O   0  0  0  0  0  0  0  0  0  0  0  0
  -22.7390  -29.5270   22.5630 C   0  0  0  0  0  0  0  0  0  0  0  0
  -21.4080  -29.3610   22.4450 N   0  0  0  0  0  0  0  0  0  0  0  0
  -23.4040  -28.9150   23.4020 O   0  0  0  0  0  0  0  0  0  0  0  0
  -20.9220  -29.9050   21.7450 H   0  0  0  0  0  0  0  0  0  0  0  0
  -18.0300  -28.1380   22.9730 C   0  0  0  0  0  0  0  0  0  0  0  0
  -20.5890  -28.4310   23.2300 C   0  0  0  0  0  3  0  0  0  0  0  0
  -20.7000  -26.9890   22.6790 C   0  0  0  0  0  2  0  0  0  0  0  0
  -19.6020  -26.6410   21.6710 C   0  0  0  0  0  2  0  0  0  0  0  0
  -18.2190  -26.7810   22.3130 C   0  0  0  0  0  2  0  0  0  0  0  0
  -19.1420  -28.9180   23.3890 C   0  0  0  0  0  0  0  0  0  0  0  0
  -18.9090  -30.1830   23.9710 C   0  0  0  0  0  3  0  0  0  0  0  0
  -17.5980  -30.6690   24.1370 C   0  0  0  0  0  3  0  0  0  0  0  0
  -16.5010  -29.8870   23.7350 C   0  0  0  0  0  3  0  0  0  0  0  0
  -16.7180  -28.6230   23.1580 C   0  0  0  0  0  3  0  0  0  0  0  0
  -25.8920  -32.5860   23.8230 C   0  0  0  0  0  3  0  0  0  0  0  0
  -26.4050  -31.8370   25.1150 C   0  0  1  0  0  0  0  0  0  0  0  0
  -25.3060  -31.6060   26.1800 C   0  0  0  0  0  1  0  0  0  0  0  0
  -27.0020  -30.4580   24.7580 C   0  0  0  0  0  1  0  0  0  0  0  0
  -27.5450  -32.6490   25.7740 C   0  0  0  0  0  1  0  0  0  0  0  0
  -25.5640  -33.9860   24.1500 N   0  0  0  0  0  0  0  0  0  0  0  0
  -25.8900  -35.0490   23.4030 C   0  0  0  0  0  0  0  0  0  0  0  0
  -26.5600  -34.9550   22.3710 O   0  0  0  0  0  0  0  0  0  0  0  0
  -24.9660  -34.1310   24.9510 H   0  0  0  0  0  0  0  0  0  0  0  0
  -24.1580  -36.8480   23.0640 C   0  0  0  0  0  1  0  0  0  0  0  0
  -25.4000  -36.4360   23.8710 C   0  0  0  0  0  3  0  0  0  0  0  0
  -27.5310  -37.3280   24.7120 C   0  0  0  0  0  1  0  0  0  0  0  0
  -26.4310  -37.4930   23.7650 N   0  0  0  0  0  0  0  0  0  0  0  0
  -26.0200  -38.4110   23.9130 H   0  0  0  0  0  0  0  0  0  0  0  0
  1  2  1  0
  3  1  1  0
  4 15  1  0
  5 10  1  0
  6  7  1  0
  6  5  1  0
  8  7  1  0
  8 19  1  0
  8  9  1  0
 10  4  1  0
 10  9  1  0
 11  4  2  0
 13 44  1  0
 14 12  1  0
 14 13  1  0
 14  1  1  0
 15 12  1  0
 15 13  1  0
 16 17  2  0
 17 36  1  0
 18 17  1  0
 18 21  1  0
 19 20  1  0
 19 16  1  0
 20 18  2  0
 21 22  1  0
 22 23  2  0
 24 27  1  0
 24 23  1  0
 25 24  2  0
 26 25  1  0
 26 21  2  0
 27 28  1  0
 28 29  1  0
 29 30  2  0
 31 30  1  0
 31 35  1  0
 32 31  2  0
 33 28  2  0
 33 32  1  0
 34 33  1  0
 36 37  1  0
 37 40  1  0
 37 39  1  0
 38 36  2  0
 41 16  1  0
 41 42  1  0
 43 41  1  0
 44 45  1  0
 44 46  2  0
 47 48  2  0
 47  1  1  0
 49 48  1  0
 50 61  2  0
 51 49  1  0
 51 56  1  0
 52 60  1  0
 52 62  1  0
 53 59  1  0
 53 55  1  0
 54 60  1  0
 55 56  2  0
 55 54  1  0
 57 51  2  0
 58 57  1  0
 58 53  2  0
 59 52  1  0
 60 50  1  0
 62 64  2  0
 63 62  1  0
 65 63  1  0
 66 75  2  0
 66 71  1  0
 67 63  1  0
 67 71  1  0
 68 67  1  0
 69 70  1  0
 69 68  1  0
 70 66  1  0
 71 72  2  0
 72 73  1  0
 74 73  2  0
 75 74  1  0
 76 50  1  0
 76 81  1  0
 76 77  1  0
 77 80  1  1
 77 78  1  0
 79 77  1  0
 81 84  1  0
 82 86  1  0
 82 81  1  0
 83 82  2  0
 86 85  1  0
 88 86  1  0
 88 89  1  0
 88 87  1  0
M  ISO  4   4 100  15 100  48 101  49 101
M  END
>  <TORSDO>  (29) 
F 19

>  <SCORE>  (29) 
-14.605

>  <name>  (29) 
28

>  <ligand_id>  (29) 
28

>  <original_smiles>  (29) 
[H]c1c([H])c([H])c2c(c1[H])C([H])([H])C([H])([H])C([H])([H])C2([H])N([H])C(=O)C1([H])N(C(=O)C([H])(N([H])C(=O)C([H])(N([H])C([H])([H])[H])C([H])([H])[H])C(C([H])([H])[H])(C([H])([H])[H])C([H])([H])[H])C([H])([H])c2c([H])c(OC([H])([H])C([H])([H])[N+]([H])([H])C3([H])C([H])([H])N(C(=O)N4C([H])([H])C([H])([H])C([H])([H])C([H])(n5nc(-c6c([H])c([H])c(Oc7c([H])c([H])c(F)c([H])c7F)c([H])c6[H])c(C(=O)N([H])[H])c5N([H])[H])C4([H])[H])C3([H])C(=O)C([H])([H])[H])c([H])c([H])c2C1([H])[H]

>  <smiles>  (29) 
[H]c1c([H])c([H])c2c(c1[H])C([H])([H])C([H])([H])C([H])([H])C2([H])N([H])C(=O)C1([H])N(C(=O)C([H])(N([H])C(=O)C([H])(N([H])C([H])([H])[H])C([H])([H])[H])C(C([H])([H])[H])(C([H])([H])[H])C([H])([H])[H])C([H])([H])c2c([H])c(OC([H])([H])C([H])([H])[N+]([H])([H])C3([H])C([H])([H])N(C(=O)N4C([H])([H])C([H])([H])C([H])([H])C([H])(n5nc(-c6c([H])c([H])c(Oc7c([H])c([H])c(F)c([H])c7F)c([H])c6[H])c(C(=O)N([H])[H])c5N([H])[H])C4([H])[H])C3([H])C(=O)C([H])([H])[H])c([H])c([H])c2C1([H])[H]

$$$$
29:0:0
     RDKit          3D

 89 97  0  0  1  0  0  0  0  0999 V2000
  -29.8330  -21.1080   19.9660 C   0  0  0  0  0  3  0  0  0  0  0  0
  -29.3860  -18.5020   20.1710 C   0  0  0  0  0  0  0  0  0  0  0  0
  -31.2200  -17.8670   21.5660 C   0  0  0  0  0  2  0  0  0  0  0  0
  -30.9860  -19.4080   21.5450 C   0  0  0  0  0  2  0  0  0  0  0  0
  -29.9060  -17.3120   21.0400 C   0  0  0  0  0  3  0  0  0  0  0  0
  -29.9150  -19.7050   20.5760 N   0  0  0  0  0  0  0  0  0  0  0  0
  -28.5860  -18.3420   19.2450 O   0  0  0  0  0  0  0  0  0  0  0  0
  -30.5650  -14.7620   20.3700 C   0  0  0  0  0  0  0  0  0  0  0  0
  -30.3770  -12.5020   19.2990 C   0  0  0  0  0  2  0  0  0  0  0  0
  -29.4220  -12.5810   18.0830 C   0  0  0  0  0  2  0  0  0  0  0  0
  -27.9600  -12.3850   18.5260 C   0  0  0  0  0  2  0  0  0  0  0  0
  -27.5940  -13.2640   19.7490 C   0  0  0  0  0  3  0  0  0  0  0  0
  -28.6590  -13.1710   20.8650 C   0  0  0  0  0  2  0  0  0  0  0  0
  -29.9550  -13.5330   20.2720 N   0  0  0  0  0  0  0  0  0  0  0  0
  -31.7300  -14.9190   19.9900 O   0  0  0  0  0  0  0  0  0  0  0  0
  -29.7630  -15.8110   20.7670 N   0  0  0  0  0  0  0  0  0  0  0  0
  -28.8310  -15.4870   20.9710 H   0  0  0  0  0  0  0  0  0  0  0  0
  -25.2160  -13.8510   20.5030 C   0  0  0  0  0  0  0  0  0  0  0  0
  -24.1560  -13.0760   20.8810 C   0  0  0  0  0  0  0  0  0  0  0  0
  -24.6210  -11.7250   20.8470 C   0  0  0  0  0  0  0  0  0  0  0  0
  -26.2570  -12.9730   20.2520 N   0  0  0  0  0  0  0  0  0  0  0  0
  -25.9070  -11.6870   20.5230 N   0  0  0  0  0  0  0  0  0  0  0  0
  -23.9010  -10.4600   21.0440 C   0  0  0  0  0  0  0  0  0  0  0  0
  -24.3420   -9.4930   21.9750 C   0  0  0  0  0  3  0  0  0  0  0  0
  -23.6210   -8.2950   22.1570 C   0  0  0  0  0  3  0  0  0  0  0  0
  -22.4430   -8.0550   21.4070 C   0  0  0  0  0  0  0  0  0  0  0  0
  -22.0220   -9.0110   20.4650 C   0  0  0  0  0  3  0  0  0  0  0  0
  -22.7460  -10.2020   20.2820 C   0  0  0  0  0  3  0  0  0  0  0  0
  -21.6930   -6.9090   21.4940 O   0  0  0  0  0  0  0  0  0  0  0  0
  -21.6530   -6.1630   22.6450 C   0  0  0  0  0  0  0  0  0  0  0  0
  -21.2220   -6.7070   23.8740 C   0  0  0  0  0  3  0  0  0  0  0  0
  -21.1330   -5.8880   25.0160 C   0  0  0  0  0  3  0  0  0  0  0  0
  -21.4670   -4.5220   24.9290 C   0  0  0  0  0  0  0  0  0  0  0  0
  -21.8900   -3.9750   23.7060 C   0  0  0  0  0  3  0  0  0  0  0  0
  -21.9820   -4.7930   22.5670 C   0  0  0  0  0  0  0  0  0  0  0  0
  -22.3720   -4.2600   21.3840 F   0  0  0  0  0  0  0  0  0  0  0  0
  -21.3750   -3.7300   26.0230 F   0  0  0  0  0  0  0  0  0  0  0  0
  -22.7590  -13.5520   21.1620 C   0  0  0  0  0  0  0  0  0  0  0  0
  -22.0360  -12.8530   22.0270 N   0  0  0  0  0  0  0  0  0  0  0  0
  -22.3170  -14.5790   20.6490 O   0  0  0  0  0  0  0  0  0  0  0  0
  -22.4050  -12.0200   22.4580 H   0  0  0  0  0  0  0  0  0  0  0  0
  -21.1040  -13.1610   22.2640 H   0  0  0  0  0  0  0  0  0  0  0  0
  -25.3770  -15.2240   20.3270 N   0  0  0  0  0  0  0  0  0  0  0  0
  -24.6020  -15.8690   20.4350 H   0  0  0  0  0  0  0  0  0  0  0  0
  -26.2070  -15.6620   19.9440 H   0  0  0  0  0  0  0  0  0  0  0  0
  -28.9270  -22.2940   20.5920 C   0  0  0  0  0  3  0  0  0  0  0  0
  -29.1630  -23.8150   20.0870 C   0  0  0  0  0  3  0  0  0  0  0  0
  -28.1210  -24.9700   20.5030 C   0  0  0  0  0  3  0  0  0  0  0  0
  -28.3460  -26.4270   20.2170 O   0  0  0  0  0  0  0  0  0  0  0  0
  -24.6020  -31.8980   23.2300 C   0  0  0  0  0  0  0  0  0  0  0  0
  -27.2310  -27.2940   20.1990 C   0  0  0  0  0  0  0  0  0  0  0  0
  -23.4060  -30.4890   21.5920 C   0  0  0  0  0  3  0  0  0  0  0  0
  -24.8620  -28.9230   20.1850 C   0  0  0  0  0  0  0  0  0  0  0  0
  -25.9480  -30.7980   21.4220 C   0  0  0  0  0  2  0  0  0  0  0  0
  -26.0320  -29.4110   20.7840 C   0  0  0  0  0  0  0  0  0  0  0  0
  -27.2180  -28.6070   20.7800 C   0  0  0  0  0  3  0  0  0  0  0  0
  -26.0390  -26.8810   19.5610 C   0  0  0  0  0  3  0  0  0  0  0  0
  -24.8690  -27.6640   19.5670 C   0  0  0  0  0  3  0  0  0  0  0  0
  -23.6250  -29.7960   20.2220 C   0  0  0  0  0  2  0  0  0  0  0  0
  -24.6710  -31.0810   22.1380 N   0  0  0  0  0  0  0  0  0  0  0  0
  -23.5150  -32.1780   23.7560 O   0  0  0  0  0  0  0  0  0  0  0  0
  -22.7340  -29.4820   22.5580 C   0  0  0  0  0  0  0  0  0  0  0  0
  -21.4080  -29.3070   22.4290 N   0  0  0  0  0  0  0  0  0  0  0  0
  -23.4080  -28.8590   23.3820 O   0  0  0  0  0  0  0  0  0  0  0  0
  -20.9240  -29.8610   21.7370 H   0  0  0  0  0  0  0  0  0  0  0  0
  -18.0260  -28.1240   22.9470 C   0  0  0  0  0  0  0  0  0  0  0  0
  -20.5860  -28.3740   23.2030 C   0  0  0  0  0  3  0  0  0  0  0  0
  -20.6770  -26.9390   22.6320 C   0  0  0  0  0  2  0  0  0  0  0  0
  -19.5710  -26.6190   21.6220 C   0  0  0  0  0  2  0  0  0  0  0  0
  -18.1930  -26.7720   22.2710 C   0  0  0  0  0  2  0  0  0  0  0  0
  -19.1500  -28.8820   23.3700 C   0  0  0  0  0  0  0  0  0  0  0  0
  -18.9390  -30.1440   23.9670 C   0  0  0  0  0  3  0  0  0  0  0  0
  -17.6370  -30.6530   24.1340 C   0  0  0  0  0  3  0  0  0  0  0  0
  -16.5270  -29.8930   23.7260 C   0  0  0  0  0  3  0  0  0  0  0  0
  -16.7230  -28.6280   23.1410 C   0  0  0  0  0  3  0  0  0  0  0  0
  -25.8810  -32.5360   23.8570 C   0  0  0  0  0  3  0  0  0  0  0  0
  -26.3900  -31.7750   25.1430 C   0  0  1  0  0  0  0  0  0  0  0  0
  -25.2940  -31.5450   26.2090 C   0  0  0  0  0  1  0  0  0  0  0  0
  -26.9750  -30.3950   24.7650 C   0  0  0  0  0  1  0  0  0  0  0  0
  -27.5410  -32.5720   25.8030 C   0  0  0  0  0  1  0  0  0  0  0  0
  -25.5700  -33.9360   24.1790 N   0  0  0  0  0  0  0  0  0  0  0  0
  -25.9030  -34.9850   23.4140 C   0  0  0  0  0  0  0  0  0  0  0  0
  -26.5760  -34.8740   22.3850 O   0  0  0  0  0  0  0  0  0  0  0  0
  -24.9800  -34.0990   24.9820 H   0  0  0  0  0  0  0  0  0  0  0  0
  -24.1850  -36.7820   23.0340 C   0  0  0  0  0  1  0  0  0  0  0  0
  -25.4150  -36.3760   23.8620 C   0  0  0  0  0  3  0  0  0  0  0  0
  -27.5430  -37.2580   24.7140 C   0  0  0  0  0  1  0  0  0  0  0  0
  -26.4530  -37.4260   23.7560 N   0  0  0  0  0  0  0  0  0  0  0  0
  -26.0480  -38.3480   23.8950 H   0  0  0  0  0  0  0  0  0  0  0  0
  1  6  1  0
  1 46  2  0
  2  6  1  0
  2  5  1  0
  4  3  1  0
  5 16  1  0
  5  3  1  0
  6  4  1  0
  7  2  2  0
  8 16  1  0
  9 14  1  0
 10 11  1  0
 10  9  1  0
 12 11  1  0
 12 21  1  0
 12 13  1  0
 14  8  1  0
 14 13  1  0
 15  8  2  0
 16 17  1  0
 18 19  2  0
 19 38  1  0
 20 19  1  0
 20 23  1  0
 21 18  1  0
 21 22  1  0
 22 20  2  0
 23 24  1  0
 24 25  2  0
 26 29  1  0
 26 25  1  0
 27 26  2  0
 28 27  1  0
 28 23  2  0
 29 30  1  0
 30 31  1  0
 31 32  2  0
 33 32  1  0
 33 37  1  0
 34 33  2  0
 35 30  2  0
 35 34  1  0
 36 35  1  0
 38 39  1  0
 39 42  1  0
 39 41  1  0
 40 38  2  0
 43 44  1  0
 43 18  1  0
 45 43  1  0
 47 48  2  0
 47 46  1  0
 49 48  1  0
 50 61  2  0
 51 49  1  0
 51 56  1  0
 52 60  1  0
 52 62  1  0
 53 59  1  0
 53 55  1  0
 54 60  1  0
 55 54  1  0
 56 55  2  0
 57 58  1  0
 57 51  2  0
 58 53  2  0
 59 52  1  0
 60 50  1  0
 62 64  2  0
 63 62  1  0
 65 63  1  0
 66 75  2  0
 66 71  1  0
 67 63  1  0
 67 71  1  0
 68 67  1  0
 69 70  1  0
 69 68  1  0
 70 66  1  0
 71 72  2  0
 72 73  1  0
 74 73  2  0
 75 74  1  0
 76 50  1  0
 76 81  1  0
 76 77  1  0
 77 80  1  1
 77 78  1  0
 79 77  1  0
 81 84  1  0
 82 86  1  0
 82 81  1  0
 83 82  2  0
 86 85  1  0
 88 86  1  0
 88 89  1  0
 88 87  1  0
M  ISO  4   8 100  16 100  48 101  49 101
M  END
>  <TORSDO>  (30) 
F 20

>  <SCORE>  (30) 
-13.987

>  <name>  (30) 
29

>  <ligand_id>  (30) 
29

>  <original_smiles>  (30) 
[H]c1c([H])c([H])c2c(c1[H])C([H])([H])C([H])([H])C([H])([H])C2([H])N([H])C(=O)C1([H])N(C(=O)C([H])(N([H])C(=O)C([H])(N([H])C([H])([H])[H])C([H])([H])[H])C(C([H])([H])[H])(C([H])([H])[H])C([H])([H])[H])C([H])([H])c2c([H])c(OC([H])([H])C([H])([H])C([H])([H])C([H])([H])N3C(=O)C([H])(N([H])C(=O)N4C([H])([H])C([H])([H])C([H])([H])C([H])(n5nc(-c6c([H])c([H])c(Oc7c([H])c([H])c(F)c([H])c7F)c([H])c6[H])c(C(=O)N([H])[H])c5N([H])[H])C4([H])[H])C([H])([H])C3([H])[H])c([H])c([H])c2C1([H])[H]

>  <smiles>  (30) 
[H]c1c([H])c([H])c2c(c1[H])C([H])([H])C([H])([H])C([H])([H])C2([H])N([H])C(=O)C1([H])N(C(=O)C([H])(N([H])C(=O)C([H])(N([H])C([H])([H])[H])C([H])([H])[H])C(C([H])([H])[H])(C([H])([H])[H])C([H])([H])[H])C([H])([H])c2c([H])c(OC([H])([H])C([H])([H])C([H])([H])C([H])([H])N3C(=O)C([H])(N([H])C(=O)N4C([H])([H])C([H])([H])C([H])([H])C([H])(n5nc(-c6c([H])c([H])c(Oc7c([H])c([H])c(F)c([H])c7F)c([H])c6[H])c(C(=O)N([H])[H])c5N([H])[H])C4([H])[H])C([H])([H])C3([H])[H])c([H])c([H])c2C1([H])[H]

$$$$
30:0:0
     RDKit          3D

 95104  0  0  1  0  0  0  0  0999 V2000
  -29.7350  -19.9440   20.0860 C   0  0  0  0  0  3  0  0  0  0  0  0
  -28.9610  -20.2110   17.5110 C   0  0  0  0  0  2  0  0  0  0  0  0
  -30.1130  -20.8590   16.7300 C   0  0  0  0  0  3  0  0  0  0  0  0
  -30.0180  -19.8890   18.5740 C   0  0  0  0  0  3  0  0  0  0  0  0
  -29.9120  -22.1820   16.0040 C   0  0  0  0  0  1  0  0  0  0  0  0
  -30.7400  -21.0420   18.0370 N   0  0  0  0  0  0  0  0  0  0  0  0
  -34.1580  -21.5640   18.5340 C   0  0  0  0  0  2  0  0  0  0  0  0
  -33.1080  -22.0070   17.5110 C   0  0  0  0  0  2  0  0  0  0  0  0
  -33.0050  -20.9560   19.3360 C   0  0  0  0  0  2  0  0  0  0  0  0
  -32.2020  -20.8810   18.0290 C   0  0  0  0  0  3  0  0  0  0  0  0
  -28.7940  -21.2610   20.4420 N   0  0  0  0  0  4  0  0  0  0  0  0
  -27.9590  -21.1270   19.8950 H   0  0  0  0  0  0  0  0  0  0  0  0
  -28.5090  -21.1260   21.3990 H   0  0  0  0  0  0  0  0  0  0  0  0
  -29.1470  -22.8790   20.3270 C   0  0  0  0  0  3  0  0  0  0  0  0
  -28.0630  -24.2830   20.3690 C   0  0  0  0  0  3  0  0  0  0  0  0
  -28.3070  -25.8970   20.3710 O   0  0  0  0  0  0  0  0  0  0  0  0
  -24.6700  -31.8280   23.2110 C   0  0  0  0  0  0  0  0  0  0  0  0
  -27.2710  -26.9520   20.3000 C   0  0  0  0  0  0  0  0  0  0  0  0
  -23.4920  -30.4040   21.5860 C   0  0  0  0  0  3  0  0  0  0  0  0
  -24.9570  -28.7870   20.2040 C   0  0  0  0  0  0  0  0  0  0  0  0
  -26.0570  -30.6340   21.4520 C   0  0  0  0  0  2  0  0  0  0  0  0
  -26.1370  -29.2180   20.8230 C   0  0  0  0  0  0  0  0  0  0  0  0
  -27.2910  -28.3230   20.8420 C   0  0  0  0  0  3  0  0  0  0  0  0
  -26.0600  -26.6570   19.6350 C   0  0  0  0  0  3  0  0  0  0  0  0
  -24.9400  -27.5250   19.5910 C   0  0  0  0  0  3  0  0  0  0  0  0
  -23.7330  -29.6990   20.2230 C   0  0  0  0  0  2  0  0  0  0  0  0
  -24.7600  -30.9820   22.1360 N   0  0  0  0  0  0  0  0  0  0  0  0
  -23.5770  -32.1210   23.7210 O   0  0  0  0  0  0  0  0  0  0  0  0
  -22.7970  -29.4170   22.5610 C   0  0  0  0  0  0  0  0  0  0  0  0
  -21.4710  -29.2410   22.4240 N   0  0  0  0  0  0  0  0  0  0  0  0
  -23.4580  -28.8120   23.4070 O   0  0  0  0  0  0  0  0  0  0  0  0
  -20.9910  -29.7790   21.7150 H   0  0  0  0  0  0  0  0  0  0  0  0
  -18.0910  -28.0180   22.9120 C   0  0  0  0  0  0  0  0  0  0  0  0
  -20.6440  -28.3140   23.2040 C   0  0  0  0  0  3  0  0  0  0  0  0
  -20.7660  -26.8700   22.6630 C   0  0  0  0  0  2  0  0  0  0  0  0
  -19.6800  -26.5160   21.6420 C   0  0  0  0  0  2  0  0  0  0  0  0
  -18.2890  -26.6590   22.2640 C   0  0  0  0  0  2  0  0  0  0  0  0
  -19.1960  -28.8020   23.3400 C   0  0  0  0  0  0  0  0  0  0  0  0
  -18.9550  -30.0710   23.9090 C   0  0  0  0  0  3  0  0  0  0  0  0
  -17.6420  -30.5590   24.0520 C   0  0  0  0  0  3  0  0  0  0  0  0
  -16.5510  -29.7740   23.6390 C   0  0  0  0  0  3  0  0  0  0  0  0
  -16.7760  -28.5060   23.0750 C   0  0  0  0  0  3  0  0  0  0  0  0
  -25.9360  -32.4830   23.8410 C   0  0  0  0  0  3  0  0  0  0  0  0
  -25.6060  -33.8830   24.1670 N   0  0  0  0  0  0  0  0  0  0  0  0
  -25.9290  -34.9410   23.4120 C   0  0  0  0  0  0  0  0  0  0  0  0
  -26.5980  -34.8450   22.3800 O   0  0  0  0  0  0  0  0  0  0  0  0
  -25.0110  -34.0290   24.9680 H   0  0  0  0  0  0  0  0  0  0  0  0
  -24.1820  -36.7240   23.0700 C   0  0  0  0  0  1  0  0  0  0  0  0
  -25.4330  -36.3280   23.8730 C   0  0  0  0  0  3  0  0  0  0  0  0
  -27.5600  -37.2380   24.6980 C   0  0  0  0  0  1  0  0  0  0  0  0
  -26.4550  -37.3910   23.7540 N   0  0  0  0  0  0  0  0  0  0  0  0
  -26.0400  -38.3080   23.8950 H   0  0  0  0  0  0  0  0  0  0  0  0
  -26.4460  -31.7300   25.1320 C   0  0  1  0  0  0  0  0  0  0  0  0
  -25.3430  -31.4920   26.1920 C   0  0  0  0  0  1  0  0  0  0  0  0
  -27.0450  -30.3540   24.7680 C   0  0  0  0  0  1  0  0  0  0  0  0
  -27.5820  -32.5410   25.7990 C   0  0  0  0  0  1  0  0  0  0  0  0
  -30.2370  -18.1020   21.9940 C   0  0  0  0  0  1  0  0  0  0  0  0
  -29.5290  -18.2630   20.6390 C   0  0  0  0  0  3  0  0  0  0  0  0
  -29.6130  -16.6890   19.8090 C   0  0  0  0  0  2  0  0  0  0  0  0
  -30.4480  -15.1710   19.9440 C   0  0  0  0  0  0  0  0  0  0  0  0
  -30.3300  -12.7750   18.9970 C   0  0  0  0  0  2  0  0  0  0  0  0
  -29.3250  -12.6860   17.8210 C   0  0  0  0  0  2  0  0  0  0  0  0
  -27.8950  -12.4320   18.3350 C   0  0  0  0  0  2  0  0  0  0  0  0
  -27.5430  -13.3430   19.5370 C   0  0  0  0  0  3  0  0  0  0  0  0
  -28.6650  -13.3970   20.5920 C   0  0  0  0  0  2  0  0  0  0  0  0
  -29.8820  -13.8730   19.9200 N   0  0  0  0  0  0  0  0  0  0  0  0
  -31.6660  -15.1680   19.7190 O   0  0  0  0  0  0  0  0  0  0  0  0
  -25.2310  -13.9010   20.4590 C   0  0  0  0  0  0  0  0  0  0  0  0
  -24.1890  -13.1220   20.8760 C   0  0  0  0  0  0  0  0  0  0  0  0
  -24.6420  -11.7710   20.7820 C   0  0  0  0  0  0  0  0  0  0  0  0
  -26.2470  -13.0260   20.1240 N   0  0  0  0  0  0  0  0  0  0  0  0
  -25.9100  -11.7360   20.3880 N   0  0  0  0  0  0  0  0  0  0  0  0
  -23.9190  -10.5080   20.9880 C   0  0  0  0  0  0  0  0  0  0  0  0
  -24.3810   -9.5310   21.8980 C   0  0  0  0  0  3  0  0  0  0  0  0
  -23.6570   -8.3350   22.0910 C   0  0  0  0  0  3  0  0  0  0  0  0
  -22.4580   -8.1070   21.3760 C   0  0  0  0  0  0  0  0  0  0  0  0
  -22.0140   -9.0730   20.4550 C   0  0  0  0  0  3  0  0  0  0  0  0
  -22.7390  -10.2600   20.2590 C   0  0  0  0  0  3  0  0  0  0  0  0
  -21.7010   -6.9650   21.4820 O   0  0  0  0  0  0  0  0  0  0  0  0
  -21.6710   -6.2240   22.6360 C   0  0  0  0  0  0  0  0  0  0  0  0
  -21.2480   -6.7760   23.8660 C   0  0  0  0  0  3  0  0  0  0  0  0
  -21.1690   -5.9610   25.0130 C   0  0  0  0  0  3  0  0  0  0  0  0
  -21.5000   -4.5940   24.9320 C   0  0  0  0  0  0  0  0  0  0  0  0
  -21.9150   -4.0430   23.7060 C   0  0  0  0  0  3  0  0  0  0  0  0
  -21.9970   -4.8550   22.5620 C   0  0  0  0  0  0  0  0  0  0  0  0
  -22.3770   -4.3130   21.3800 F   0  0  0  0  0  0  0  0  0  0  0  0
  -21.4160   -3.8090   26.0300 F   0  0  0  0  0  0  0  0  0  0  0  0
  -22.8140  -13.6010   21.2430 C   0  0  0  0  0  0  0  0  0  0  0  0
  -22.1320  -12.8850   22.1300 N   0  0  0  0  0  0  0  0  0  0  0  0
  -22.3570  -14.6440   20.7780 O   0  0  0  0  0  0  0  0  0  0  0  0
  -22.5160  -12.0430   22.5310 H   0  0  0  0  0  0  0  0  0  0  0  0
  -21.2100  -13.1870   22.4120 H   0  0  0  0  0  0  0  0  0  0  0  0
  -25.3930  -15.2750   20.3070 N   0  0  0  0  0  0  0  0  0  0  0  0
  -24.6440  -15.9310   20.4920 H   0  0  0  0  0  0  0  0  0  0  0  0
  -26.2280  -15.7160   19.9420 H   0  0  0  0  0  0  0  0  0  0  0  0
  1 11  1  0
  1 58  1  0
  2  4  1  0
  3  5  1  0
  3  2  1  0
  3  6  1  0
  4  1  1  0
  6 10  1  0
  6  4  1  0
  7  9  1  0
  8 10  1  0
  8  7  1  0
 10  9  1  0
 11 13  1  0
 12 11  1  0
 14 15  2  0
 14 11  1  0
 15 16  1  0
 17 28  2  0
 18 16  1  0
 18 23  1  0
 19 27  1  0
 19 29  1  0
 20 26  1  0
 20 22  1  0
 21 27  1  0
 22 23  2  0
 22 21  1  0
 24 18  2  0
 25 24  1  0
 25 20  2  0
 26 19  1  0
 27 17  1  0
 29 31  2  0
 30 29  1  0
 32 30  1  0
 33 42  2  0
 33 38  1  0
 34 30  1  0
 34 38  1  0
 35 34  1  0
 36 37  1  0
 36 35  1  0
 37 33  1  0
 38 39  2  0
 39 40  1  0
 41 40  2  0
 42 41  1  0
 43 17  1  0
 43 44  1  0
 43 53  1  0
 44 47  1  0
 45 49  1  0
 45 44  1  0
 46 45  2  0
 49 48  1  0
 51 49  1  0
 51 52  1  0
 51 50  1  0
 53 56  1  1
 53 54  1  0
 55 53  1  0
 58 57  1  0
 59 60  1  0
 59 58  1  0
 61 66  1  0
 62 63  1  0
 62 61  1  0
 64 63  1  0
 64 71  1  0
 64 65  1  0
 66 60  1  0
 66 65  1  0
 67 60  2  0
 68 69  2  0
 69 88  1  0
 70 69  1  0
 70 73  1  0
 71 72  1  0
 71 68  1  0
 72 70  2  0
 73 74  1  0
 74 75  2  0
 76 79  1  0
 76 75  1  0
 77 76  2  0
 78 77  1  0
 78 73  2  0
 79 80  1  0
 80 81  1  0
 81 82  2  0
 83 82  1  0
 83 87  1  0
 84 83  2  0
 85 80  2  0
 85 84  1  0
 86 85  1  0
 88 89  1  0
 89 92  1  0
 89 91  1  0
 90 88  2  0
 93 68  1  0
 93 94  1  0
 95 93  1  0
M  ISO  4  15 101  16 101  59 100  60 100
M  END
>  <TORSDO>  (31) 
F 23

>  <SCORE>  (31) 
-14.353

>  <name>  (31) 
30

>  <ligand_id>  (31) 
30

>  <original_smiles>  (31) 
[H]c1c([H])c([H])c2c(c1[H])C([H])([H])C([H])([H])C([H])([H])C2([H])N([H])C(=O)C1([H])N(C(=O)C([H])(N([H])C(=O)C([H])(N([H])C([H])([H])[H])C([H])([H])[H])C(C([H])([H])[H])(C([H])([H])[H])C([H])([H])[H])C([H])([H])c2c([H])c(OC([H])([H])C([H])([H])[N+]([H])([H])C([H])(C3([H])N(C4([H])C([H])([H])C([H])([H])C4([H])[H])C([H])(C([H])([H])[H])C3([H])[H])C([H])(C([H])([H])[H])C([H])([H])C(=O)N3C([H])([H])C([H])([H])C([H])([H])C([H])(n4nc(-c5c([H])c([H])c(Oc6c([H])c([H])c(F)c([H])c6F)c([H])c5[H])c(C(=O)N([H])[H])c4N([H])[H])C3([H])[H])c([H])c([H])c2C1([H])[H]

>  <smiles>  (31) 
[H]c1c([H])c([H])c2c(c1[H])C([H])([H])C([H])([H])C([H])([H])C2([H])N([H])C(=O)C1([H])N(C(=O)C([H])(N([H])C(=O)C([H])(N([H])C([H])([H])[H])C([H])([H])[H])C(C([H])([H])[H])(C([H])([H])[H])C([H])([H])[H])C([H])([H])c2c([H])c(OC([H])([H])C([H])([H])[N+]([H])([H])C([H])(C3([H])N(C4([H])C([H])([H])C([H])([H])C4([H])[H])C([H])(C([H])([H])[H])C3([H])[H])C([H])(C([H])([H])[H])C([H])([H])C(=O)N3C([H])([H])C([H])([H])C([H])([H])C([H])(n4nc(-c5c([H])c([H])c(Oc6c([H])c([H])c(F)c([H])c6F)c([H])c5[H])c(C(=O)N([H])[H])c4N([H])[H])C3([H])[H])c([H])c([H])c2C1([H])[H]

$$$$
31:0:0
     RDKit          3D

 87 95  0  0  1  0  0  0  0  0999 V2000
  -29.2150  -21.3140   20.6950 C   0  0  0  0  0  2  0  0  0  0  0  0
  -28.9440  -19.6240   20.3830 C   0  0  0  0  0  0  0  0  0  0  0  0
  -27.7550  -19.3600   20.1930 O   0  0  0  0  0  0  0  0  0  0  0  0
  -30.4650  -15.3230   20.4390 C   0  0  0  0  0  0  0  0  0  0  0  0
  -30.4580  -12.8860   19.5770 C   0  0  0  0  0  2  0  0  0  0  0  0
  -29.5730  -12.6570   18.3270 C   0  0  0  0  0  2  0  0  0  0  0  0
  -28.1060  -12.4110   18.7260 C   0  0  0  0  0  2  0  0  0  0  0  0
  -27.6230  -13.3800   19.8340 C   0  0  0  0  0  3  0  0  0  0  0  0
  -28.6410  -13.5410   20.9800 C   0  0  0  0  0  2  0  0  0  0  0  0
  -29.8810  -14.0320   20.3590 N   0  0  0  0  0  0  0  0  0  0  0  0
  -31.7040  -15.2970   20.4440 O   0  0  0  0  0  0  0  0  0  0  0  0
  -29.8700  -17.8420   17.9990 C   0  0  0  0  0  2  0  0  0  0  0  0
  -30.8300  -18.4820   18.9920 C   0  0  0  0  0  2  0  0  0  0  0  0
  -29.4940  -16.5090   18.6610 C   0  0  0  0  0  2  0  0  0  0  0  0
  -30.0680  -18.2260   20.2820 C   0  0  0  0  0  3  0  0  0  0  0  0
  -29.7540  -16.5930   20.1280 N   0  0  0  0  0  0  0  0  0  0  0  0
  -25.2250  -13.9330   20.5010 C   0  0  0  0  0  0  0  0  0  0  0  0
  -24.1560  -13.1510   20.8380 C   0  0  0  0  0  0  0  0  0  0  0  0
  -24.6340  -11.8050   20.8440 C   0  0  0  0  0  0  0  0  0  0  0  0
  -26.2820  -13.0620   20.3090 N   0  0  0  0  0  0  0  0  0  0  0  0
  -25.9380  -11.7780   20.5840 N   0  0  0  0  0  0  0  0  0  0  0  0
  -23.9130  -10.5390   21.0210 C   0  0  0  0  0  0  0  0  0  0  0  0
  -24.3170   -9.5840   21.9800 C   0  0  0  0  0  3  0  0  0  0  0  0
  -23.5920   -8.3840   22.1460 C   0  0  0  0  0  3  0  0  0  0  0  0
  -22.4480   -8.1310   21.3540 C   0  0  0  0  0  0  0  0  0  0  0  0
  -22.0630   -9.0730   20.3840 C   0  0  0  0  0  3  0  0  0  0  0  0
  -22.7880  -10.2640   20.2160 C   0  0  0  0  0  3  0  0  0  0  0  0
  -21.6970   -6.9820   21.4290 O   0  0  0  0  0  0  0  0  0  0  0  0
  -21.6140   -6.2500   22.5860 C   0  0  0  0  0  0  0  0  0  0  0  0
  -21.1280   -6.8090   23.7880 C   0  0  0  0  0  3  0  0  0  0  0  0
  -20.9940   -6.0020   24.9360 C   0  0  0  0  0  3  0  0  0  0  0  0
  -21.3350   -4.6380   24.8830 C   0  0  0  0  0  0  0  0  0  0  0  0
  -21.8140   -4.0780   23.6850 C   0  0  0  0  0  3  0  0  0  0  0  0
  -21.9500   -4.8820   22.5390 C   0  0  0  0  0  0  0  0  0  0  0  0
  -22.3920   -4.3330   21.3830 F   0  0  0  0  0  0  0  0  0  0  0  0
  -21.1990   -3.8610   25.9820 F   0  0  0  0  0  0  0  0  0  0  0  0
  -22.7450  -13.6190   21.0440 C   0  0  0  0  0  0  0  0  0  0  0  0
  -21.9910  -12.9310   21.8930 N   0  0  0  0  0  0  0  0  0  0  0  0
  -22.3200  -14.6300   20.4860 O   0  0  0  0  0  0  0  0  0  0  0  0
  -22.3470  -12.1120   22.3620 H   0  0  0  0  0  0  0  0  0  0  0  0
  -21.0420  -13.2260   22.0740 H   0  0  0  0  0  0  0  0  0  0  0  0
  -25.3850  -15.3030   20.3140 N   0  0  0  0  0  0  0  0  0  0  0  0
  -24.6150  -15.9570   20.4050 H   0  0  0  0  0  0  0  0  0  0  0  0
  -26.2530  -15.7510   20.0470 H   0  0  0  0  0  0  0  0  0  0  0  0
  -28.5980  -22.8470   20.0030 C   0  0  0  0  0  2  0  0  0  0  0  0
  -28.1280  -24.4330   20.6840 C   0  0  0  0  0  2  0  0  0  0  0  0
  -28.2340  -26.0070   20.2520 O   0  0  0  0  0  0  0  0  0  0  0  0
  -24.6190  -31.9200   23.2420 C   0  0  0  0  0  0  0  0  0  0  0  0
  -27.1850  -27.0540   20.2720 C   0  0  0  0  0  0  0  0  0  0  0  0
  -23.4220  -30.5050   21.6210 C   0  0  0  0  0  3  0  0  0  0  0  0
  -24.8710  -28.8920   20.2160 C   0  0  0  0  0  0  0  0  0  0  0  0
  -25.9850  -30.7370   21.4570 C   0  0  0  0  0  2  0  0  0  0  0  0
  -26.0600  -29.3210   20.8200 C   0  0  0  0  0  0  0  0  0  0  0  0
  -27.2160  -28.4250   20.8170 C   0  0  0  0  0  3  0  0  0  0  0  0
  -25.9640  -26.7590   19.6320 C   0  0  0  0  0  3  0  0  0  0  0  0
  -24.8440  -27.6290   19.6020 C   0  0  0  0  0  3  0  0  0  0  0  0
  -23.6480  -29.8060   20.2520 C   0  0  0  0  0  2  0  0  0  0  0  0
  -24.6970  -31.0810   22.1600 N   0  0  0  0  0  0  0  0  0  0  0  0
  -23.5310  -32.2090   23.7660 O   0  0  0  0  0  0  0  0  0  0  0  0
  -22.7390  -29.5140   22.5980 C   0  0  0  0  0  0  0  0  0  0  0  0
  -21.4110  -29.3350   22.4730 N   0  0  0  0  0  0  0  0  0  0  0  0
  -23.4090  -28.9050   23.4350 O   0  0  0  0  0  0  0  0  0  0  0  0
  -20.9220  -29.8760   21.7720 H   0  0  0  0  0  0  0  0  0  0  0  0
  -18.0410  -28.0950   22.9840 C   0  0  0  0  0  0  0  0  0  0  0  0
  -20.5960  -28.4000   23.2550 C   0  0  0  0  0  3  0  0  0  0  0  0
  -20.7190  -26.9600   22.7060 C   0  0  0  0  0  2  0  0  0  0  0  0
  -19.6260  -26.6050   21.6920 C   0  0  0  0  0  2  0  0  0  0  0  0
  -18.2390  -26.7390   22.3280 C   0  0  0  0  0  2  0  0  0  0  0  0
  -19.1470  -28.8810   23.4060 C   0  0  0  0  0  0  0  0  0  0  0  0
  -18.9050  -30.1460   23.9840 C   0  0  0  0  0  3  0  0  0  0  0  0
  -17.5920  -30.6280   24.1420 C   0  0  0  0  0  3  0  0  0  0  0  0
  -16.5010  -29.8400   23.7330 C   0  0  0  0  0  3  0  0  0  0  0  0
  -16.7260  -28.5760   23.1620 C   0  0  0  0  0  3  0  0  0  0  0  0
  -25.8910  -32.5730   23.8640 C   0  0  0  0  0  3  0  0  0  0  0  0
  -26.4020  -31.8240   25.1560 C   0  0  1  0  0  0  0  0  0  0  0  0
  -25.3040  -31.6020   26.2250 C   0  0  0  0  0  1  0  0  0  0  0  0
  -26.9900  -30.4400   24.7980 C   0  0  0  0  0  1  0  0  0  0  0  0
  -27.5480  -32.6300   25.8110 C   0  0  0  0  0  1  0  0  0  0  0  0
  -25.5690  -33.9740   24.1840 N   0  0  0  0  0  0  0  0  0  0  0  0
  -25.9070  -35.0300   23.4320 C   0  0  0  0  0  0  0  0  0  0  0  0
  -26.5850  -34.9270   22.4070 O   0  0  0  0  0  0  0  0  0  0  0  0
  -24.9660  -34.1270   24.9790 H   0  0  0  0  0  0  0  0  0  0  0  0
  -24.1920  -36.8370   23.0610 C   0  0  0  0  0  1  0  0  0  0  0  0
  -25.4180  -36.4200   23.8880 C   0  0  0  0  0  3  0  0  0  0  0  0
  -27.5400  -37.3000   24.7600 C   0  0  0  0  0  1  0  0  0  0  0  0
  -26.4570  -37.4710   23.7960 N   0  0  0  0  0  0  0  0  0  0  0  0
  -26.0510  -38.3930   23.9350 H   0  0  0  0  0  0  0  0  0  0  0  0
  2  1  1  0
  3  2  2  0
  4 11  2  0
  5 10  1  0
  6  7  1  0
  6  5  1  0
  8  7  1  0
  8 20  1  0
  8  9  1  0
 10  4  1  0
 10  9  1  0
 12 14  1  0
 12 13  1  0
 13 15  1  0
 14 16  1  0
 15  2  1  0
 16 15  1  0
 16  4  1  0
 17 18  2  0
 18 19  1  0
 18 37  1  0
 19 22  1  0
 20 17  1  0
 20 21  1  0
 21 19  2  0
 22 23  1  0
 23 24  2  0
 25 28  1  0
 25 24  1  0
 26 25  2  0
 27 26  1  0
 27 22  2  0
 28 29  1  0
 29 30  1  0
 30 31  2  0
 32 31  1  0
 32 36  1  0
 33 32  2  0
 34 29  2  0
 34 33  1  0
 35 34  1  0
 37 38  1  0
 38 41  1  0
 38 40  1  0
 39 37  2  0
 42 43  1  0
 42 17  1  0
 44 42  1  0
 45 46  1  0
 45  1  1  0
 47 49  1  0
 47 46  1  0
 48 59  2  0
 49 54  1  0
 50 58  1  0
 50 60  1  0
 51 57  1  0
 51 53  1  0
 52 58  1  0
 53 52  1  0
 54 53  2  0
 55 49  2  0
 56 55  1  0
 56 51  2  0
 57 50  1  0
 58 48  1  0
 60 62  2  0
 61 60  1  0
 63 61  1  0
 64 73  2  0
 64 69  1  0
 65 61  1  0
 65 69  1  0
 66 65  1  0
 67 68  1  0
 67 66  1  0
 68 64  1  0
 69 70  2  0
 70 71  1  0
 72 71  2  0
 73 72  1  0
 74 48  1  0
 74 79  1  0
 74 75  1  0
 75 78  1  1
 75 76  1  0
 77 75  1  0
 79 82  1  0
 80 84  1  0
 80 79  1  0
 81 80  2  0
 84 83  1  0
 86 84  1  0
 86 87  1  0
 86 85  1  0
M  ISO  4   4 100  16 100  46 101  47 101
M  END
>  <TORSDO>  (32) 
F 19

>  <SCORE>  (32) 
-15.716

>  <name>  (32) 
31

>  <ligand_id>  (32) 
31

>  <original_smiles>  (32) 
[H]c1c([H])c([H])c2c(c1[H])C([H])([H])C([H])([H])C([H])([H])C2([H])N([H])C(=O)C1([H])N(C(=O)C([H])(N([H])C(=O)C([H])(N([H])C([H])([H])[H])C([H])([H])[H])C(C([H])([H])[H])(C([H])([H])[H])C([H])([H])[H])C([H])([H])c2c([H])c(OC([H])([H])C([H])([H])C([H])([H])C(=O)C3([H])N(C(=O)N4C([H])([H])C([H])([H])C([H])([H])C([H])(n5nc(-c6c([H])c([H])c(Oc7c([H])c([H])c(F)c([H])c7F)c([H])c6[H])c(C(=O)N([H])[H])c5N([H])[H])C4([H])[H])C([H])([H])C([H])([H])C3([H])[H])c([H])c([H])c2C1([H])[H]

>  <smiles>  (32) 
[H]c1c([H])c([H])c2c(c1[H])C([H])([H])C([H])([H])C([H])([H])C2([H])N([H])C(=O)C1([H])N(C(=O)C([H])(N([H])C(=O)C([H])(N([H])C([H])([H])[H])C([H])([H])[H])C(C([H])([H])[H])(C([H])([H])[H])C([H])([H])[H])C([H])([H])c2c([H])c(OC([H])([H])C([H])([H])C([H])([H])C(=O)C3([H])N(C(=O)N4C([H])([H])C([H])([H])C([H])([H])C([H])(n5nc(-c6c([H])c([H])c(Oc7c([H])c([H])c(F)c([H])c7F)c([H])c6[H])c(C(=O)N([H])[H])c5N([H])[H])C4([H])[H])C([H])([H])C([H])([H])C3([H])[H])c([H])c([H])c2C1([H])[H]

$$$$
32:0:0
     RDKit          3D

 89 97  0  0  1  0  0  0  0  0999 V2000
  -29.8250  -22.2760   21.2200 C   0  0  0  0  0  2  0  0  0  0  0  0
  -29.9580  -20.6800   21.4630 C   0  0  0  0  0  2  0  0  0  0  0  0
  -28.5730  -21.1750   19.6430 C   0  0  0  0  0  2  0  0  0  0  0  0
  -28.5150  -22.6760   20.4680 C   0  0  0  0  0  3  0  0  0  0  0  0
  -29.1440  -19.7750   20.4540 C   0  0  0  0  0  3  0  0  0  0  0  0
  -28.1890  -24.3470   19.8450 C   0  0  0  0  0  2  0  0  0  0  0  0
  -28.1970  -25.9130   20.3630 O   0  0  0  0  0  0  0  0  0  0  0  0
  -24.6240  -31.8840   23.2280 C   0  0  0  0  0  0  0  0  0  0  0  0
  -27.1880  -27.0030   20.2300 C   0  0  0  0  0  0  0  0  0  0  0  0
  -23.4340  -30.4820   21.5920 C   0  0  0  0  0  3  0  0  0  0  0  0
  -24.8850  -28.8780   20.1710 C   0  0  0  0  0  0  0  0  0  0  0  0
  -26.0000  -30.6960   21.4500 C   0  0  0  0  0  2  0  0  0  0  0  0
  -26.0700  -29.2860   20.7980 C   0  0  0  0  0  0  0  0  0  0  0  0
  -27.2090  -28.3650   20.8090 C   0  0  0  0  0  3  0  0  0  0  0  0
  -25.9790  -26.7540   19.5380 C   0  0  0  0  0  3  0  0  0  0  0  0
  -24.8660  -27.6340   19.5200 C   0  0  0  0  0  3  0  0  0  0  0  0
  -23.6640  -29.7960   20.2180 C   0  0  0  0  0  2  0  0  0  0  0  0
  -24.7070  -31.0490   22.1440 N   0  0  0  0  0  0  0  0  0  0  0  0
  -23.5340  -32.1730   23.7480 O   0  0  0  0  0  0  0  0  0  0  0  0
  -22.7420  -29.4880   22.5600 C   0  0  0  0  0  0  0  0  0  0  0  0
  -21.4110  -29.3200   22.4360 N   0  0  0  0  0  0  0  0  0  0  0  0
  -23.4080  -28.8660   23.3920 O   0  0  0  0  0  0  0  0  0  0  0  0
  -20.9250  -29.8730   21.7450 H   0  0  0  0  0  0  0  0  0  0  0  0
  -18.0310  -28.1080   22.9500 C   0  0  0  0  0  0  0  0  0  0  0  0
  -20.5900  -28.3840   23.2120 C   0  0  0  0  0  3  0  0  0  0  0  0
  -20.6950  -26.9490   22.6430 C   0  0  0  0  0  2  0  0  0  0  0  0
  -19.5930  -26.6200   21.6300 C   0  0  0  0  0  2  0  0  0  0  0  0
  -18.2120  -26.7600   22.2740 C   0  0  0  0  0  2  0  0  0  0  0  0
  -19.1460  -28.8780   23.3760 C   0  0  0  0  0  0  0  0  0  0  0  0
  -18.9200  -30.1370   23.9720 C   0  0  0  0  0  3  0  0  0  0  0  0
  -17.6120  -30.6300   24.1420 C   0  0  0  0  0  3  0  0  0  0  0  0
  -16.5110  -29.8590   23.7300 C   0  0  0  0  0  3  0  0  0  0  0  0
  -16.7220  -28.5990   23.1410 C   0  0  0  0  0  3  0  0  0  0  0  0
  -25.8940  -32.5330   23.8590 C   0  0  0  0  0  3  0  0  0  0  0  0
  -26.3930  -31.7810   25.1550 C   0  0  1  0  0  0  0  0  0  0  0  0
  -25.2870  -31.5630   26.2140 C   0  0  0  0  0  1  0  0  0  0  0  0
  -26.9780  -30.3950   24.8010 C   0  0  0  0  0  1  0  0  0  0  0  0
  -27.5370  -32.5820   25.8180 C   0  0  0  0  0  1  0  0  0  0  0  0
  -25.5760  -33.9350   24.1800 N   0  0  0  0  0  0  0  0  0  0  0  0
  -25.9100  -34.9910   23.4240 C   0  0  0  0  0  0  0  0  0  0  0  0
  -26.5780  -34.8840   22.3930 O   0  0  0  0  0  0  0  0  0  0  0  0
  -24.9810  -34.0910   24.9810 H   0  0  0  0  0  0  0  0  0  0  0  0
  -24.1830  -36.7920   23.0780 C   0  0  0  0  0  1  0  0  0  0  0  0
  -25.4270  -36.3830   23.8830 C   0  0  0  0  0  3  0  0  0  0  0  0
  -27.5640  -37.2720   24.7060 C   0  0  0  0  0  1  0  0  0  0  0  0
  -26.4600  -37.4350   23.7620 N   0  0  0  0  0  0  0  0  0  0  0  0
  -26.0550  -38.3550   23.9060 H   0  0  0  0  0  0  0  0  0  0  0  0
  -29.8540  -18.2240   19.8310 C   0  0  0  0  0  0  0  0  0  0  0  0
  -30.4800  -15.3380   20.1500 C   0  0  0  0  0  0  0  0  0  0  0  0
  -30.4340  -12.8980   19.2730 C   0  0  0  0  0  2  0  0  0  0  0  0
  -29.5040  -12.7210   18.0470 C   0  0  0  0  0  2  0  0  0  0  0  0
  -28.0580  -12.4490   18.4960 C   0  0  0  0  0  2  0  0  0  0  0  0
  -27.6220  -13.3920   19.6450 C   0  0  0  0  0  3  0  0  0  0  0  0
  -28.6830  -13.5280   20.7600 C   0  0  0  0  0  2  0  0  0  0  0  0
  -29.9090  -14.0320   20.1220 N   0  0  0  0  0  0  0  0  0  0  0  0
  -31.6850  -15.3260   19.8600 O   0  0  0  0  0  0  0  0  0  0  0  0
  -29.7330  -16.6150   20.2990 N   0  0  0  0  0  4  0  0  0  0  0  0
  -28.7950  -16.4130   20.6140 H   0  0  0  0  0  0  0  0  0  0  0  0
  -25.2520  -13.9260   20.4150 C   0  0  0  0  0  0  0  0  0  0  0  0
  -24.2020  -13.1390   20.7970 C   0  0  0  0  0  0  0  0  0  0  0  0
  -24.6830  -11.7930   20.7670 C   0  0  0  0  0  0  0  0  0  0  0  0
  -26.3020  -13.0610   20.1660 N   0  0  0  0  0  0  0  0  0  0  0  0
  -25.9720  -11.7720   20.4460 N   0  0  0  0  0  0  0  0  0  0  0  0
  -23.9700  -10.5240   20.9670 C   0  0  0  0  0  0  0  0  0  0  0  0
  -24.4090   -9.5700   21.9110 C   0  0  0  0  0  3  0  0  0  0  0  0
  -23.6930   -8.3680   22.1010 C   0  0  0  0  0  3  0  0  0  0  0  0
  -22.5230   -8.1110   21.3470 C   0  0  0  0  0  0  0  0  0  0  0  0
  -22.1030   -9.0550   20.3920 C   0  0  0  0  0  3  0  0  0  0  0  0
  -22.8200  -10.2480   20.2010 C   0  0  0  0  0  3  0  0  0  0  0  0
  -21.7790   -6.9610   21.4440 O   0  0  0  0  0  0  0  0  0  0  0  0
  -21.7280   -6.2330   22.6050 C   0  0  0  0  0  0  0  0  0  0  0  0
  -21.2730   -6.7950   23.8180 C   0  0  0  0  0  3  0  0  0  0  0  0
  -21.1700   -5.9930   24.9720 C   0  0  0  0  0  3  0  0  0  0  0  0
  -21.5130   -4.6280   24.9150 C   0  0  0  0  0  0  0  0  0  0  0  0
  -21.9600   -4.0640   23.7070 C   0  0  0  0  0  3  0  0  0  0  0  0
  -22.0650   -4.8640   22.5550 C   0  0  0  0  0  0  0  0  0  0  0  0
  -22.4760   -4.3120   21.3890 F   0  0  0  0  0  0  0  0  0  0  0  0
  -21.4080   -3.8550   26.0210 F   0  0  0  0  0  0  0  0  0  0  0  0
  -22.8020  -13.6020   21.0740 C   0  0  0  0  0  0  0  0  0  0  0  0
  -22.0850  -12.9010   21.9460 N   0  0  0  0  0  0  0  0  0  0  0  0
  -22.3530  -14.6220   20.5520 O   0  0  0  0  0  0  0  0  0  0  0  0
  -22.4610  -12.0770   22.3890 H   0  0  0  0  0  0  0  0  0  0  0  0
  -21.1450  -13.1950   22.1720 H   0  0  0  0  0  0  0  0  0  0  0  0
  -25.3960  -15.2990   20.2280 N   0  0  0  0  0  0  0  0  0  0  0  0
  -24.6200  -15.9420   20.3380 H   0  0  0  0  0  0  0  0  0  0  0  0
  -26.2240  -15.7430   19.8530 H   0  0  0  0  0  0  0  0  0  0  0  0
  -31.3180  -18.4700   19.3820 C   0  0  0  0  0  2  0  0  0  0  0  0
  -33.0010  -19.7870   17.9780 C   0  0  0  0  0  1  0  0  0  0  0  0
  -31.5510  -19.6880   18.4700 C   0  0  0  0  0  2  0  0  0  0  0  0
  1  2  1  0
  3  5  1  0
  3  4  1  0
  4  6  1  0
  4  1  1  0
  5 48  1  0
  5  2  1  0
  6  7  1  0
  8 19  2  0
  9  7  1  0
  9 14  1  0
 10 18  1  0
 10 20  1  0
 11 17  1  0
 11 13  1  0
 12 18  1  0
 13 14  2  0
 13 12  1  0
 15  9  2  0
 16 15  1  0
 16 11  2  0
 17 10  1  0
 18  8  1  0
 20 22  2  0
 21 20  1  0
 23 21  1  0
 24 33  2  0
 24 29  1  0
 25 21  1  0
 25 29  1  0
 26 25  1  0
 27 28  1  0
 27 26  1  0
 28 24  1  0
 29 30  2  0
 30 31  1  0
 32 31  2  0
 33 32  1  0
 34  8  1  0
 34 39  1  0
 34 35  1  0
 35 38  1  1
 35 36  1  0
 37 35  1  0
 39 42  1  0
 40 44  1  0
 40 39  1  0
 41 40  2  0
 44 43  1  0
 46 44  1  0
 46 47  1  0
 46 45  1  0
 48 57  2  0
 49 57  1  0
 50 55  1  0
 51 52  1  0
 51 50  1  0
 53 52  1  0
 53 62  1  0
 53 54  1  0
 55 49  1  0
 55 54  1  0
 56 49  2  0
 57 58  1  0
 59 60  2  0
 60 79  1  0
 61 60  1  0
 61 64  1  0
 62 59  1  0
 62 63  1  0
 63 61  2  0
 64 65  1  0
 65 66  2  0
 67 70  1  0
 67 66  1  0
 68 67  2  0
 69 68  1  0
 69 64  2  0
 70 71  1  0
 71 72  1  0
 72 73  2  0
 74 73  1  0
 74 78  1  0
 75 74  2  0
 76 71  2  0
 76 75  1  0
 77 76  1  0
 79 80  1  0
 80 83  1  0
 80 82  1  0
 81 79  2  0
 84 85  1  0
 84 59  1  0
 86 84  1  0
 87 48  1  0
 88 89  1  0
 89 87  1  0
M  ISO  4   6 101   7 101  49 100  57 100
M  END
>  <TORSDO>  (33) 
F 20

>  <SCORE>  (33) 
-15.462

>  <name>  (33) 
32

>  <ligand_id>  (33) 
32

>  <original_smiles>  (33) 
[H]c1c([H])c([H])c2c(c1[H])C([H])([H])C([H])([H])C([H])([H])C2([H])N([H])C(=O)C1([H])N(C(=O)C([H])(N([H])C(=O)C([H])(N([H])C([H])([H])[H])C([H])([H])[H])C(C([H])([H])[H])(C([H])([H])[H])C([H])([H])[H])C([H])([H])c2c([H])c(OC([H])([H])C3([H])C([H])([H])C([H])([H])C([H])(C([H])(N([H])C(=O)N4C([H])([H])C([H])([H])C([H])([H])C([H])(n5nc(-c6c([H])c([H])c(Oc7c([H])c([H])c(F)c([H])c7F)c([H])c6[H])c(C(=O)N([H])[H])c5N([H])[H])C4([H])[H])C([H])([H])C([H])([H])C([H])([H])[H])C3([H])[H])c([H])c([H])c2C1([H])[H]

>  <smiles>  (33) 
[H]c1c([H])c([H])c2c(c1[H])C([H])([H])C([H])([H])C([H])([H])C2([H])N([H])C(=O)C1([H])N(C(=O)C([H])(N([H])C(=O)C([H])(N([H])C([H])([H])[H])C([H])([H])[H])C(C([H])([H])[H])(C([H])([H])[H])C([H])([H])[H])C([H])([H])c2c([H])c(OC([H])([H])C3([H])C([H])([H])C([H])([H])C([H])(C([H])(N([H])C(=O)N4C([H])([H])C([H])([H])C([H])([H])C([H])(n5nc(-c6c([H])c([H])c(Oc7c([H])c([H])c(F)c([H])c7F)c([H])c6[H])c(C(=O)N([H])[H])c5N([H])[H])C4([H])[H])C([H])([H])C([H])([H])C([H])([H])[H])C3([H])[H])c([H])c([H])c2C1([H])[H]

$$$$
33:0:0
     RDKit          3D

 89 97  0  0  1  0  0  0  0  0999 V2000
  -29.4610  -19.6770   19.4140 C   0  0  0  0  0  0  0  0  0  0  0  0
  -29.8880  -18.9120   21.5800 C   0  0  0  0  0  2  0  0  0  0  0  0
  -30.1500  -18.3000   20.1570 C   0  0  0  0  0  3  0  0  0  0  0  0
  -29.1120  -21.0440   20.4010 C   0  0  0  0  0  3  0  0  0  0  0  0
  -29.8540  -20.4480   21.5660 N   0  0  0  0  0  4  0  0  0  0  0  0
  -29.2300  -19.6820   18.2010 O   0  0  0  0  0  0  0  0  0  0  0  0
  -30.8100  -20.7630   21.5170 H   0  0  0  0  0  0  0  0  0  0  0  0
  -29.4740  -20.7850   22.4340 H   0  0  0  0  0  0  0  0  0  0  0  0
  -30.6220  -15.3720   19.8340 C   0  0  0  0  0  0  0  0  0  0  0  0
  -30.4930  -12.9340   18.9350 C   0  0  0  0  0  2  0  0  0  0  0  0
  -29.4890  -12.7410   17.7700 C   0  0  0  0  0  2  0  0  0  0  0  0
  -28.0620  -12.5080   18.3010 C   0  0  0  0  0  2  0  0  0  0  0  0
  -27.7080  -13.4690   19.4630 C   0  0  0  0  0  3  0  0  0  0  0  0
  -28.8340  -13.5910   20.5120 C   0  0  0  0  0  2  0  0  0  0  0  0
  -30.0220  -14.0800   19.7940 N   0  0  0  0  0  0  0  0  0  0  0  0
  -31.8330  -15.3480   19.5710 O   0  0  0  0  0  0  0  0  0  0  0  0
  -29.8820  -16.6500   19.9760 N   0  0  0  0  0  0  0  0  0  0  0  0
  -28.8950  -16.4570   20.0410 H   0  0  0  0  0  0  0  0  0  0  0  0
  -25.4140  -14.0660   20.4040 C   0  0  0  0  0  0  0  0  0  0  0  0
  -24.3600  -13.3060   20.8270 C   0  0  0  0  0  0  0  0  0  0  0  0
  -24.7850  -11.9460   20.7250 C   0  0  0  0  0  0  0  0  0  0  0  0
  -26.4120  -13.1730   20.0600 N   0  0  0  0  0  0  0  0  0  0  0  0
  -26.0520  -11.8890   20.3220 N   0  0  0  0  0  0  0  0  0  0  0  0
  -24.0370  -10.6980   20.9280 C   0  0  0  0  0  0  0  0  0  0  0  0
  -24.4750   -9.7150   21.8440 C   0  0  0  0  0  3  0  0  0  0  0  0
  -23.7260   -8.5350   22.0380 C   0  0  0  0  0  3  0  0  0  0  0  0
  -22.5250   -8.3270   21.3170 C   0  0  0  0  0  0  0  0  0  0  0  0
  -22.1070   -9.2980   20.3920 C   0  0  0  0  0  3  0  0  0  0  0  0
  -22.8560  -10.4710   20.1950 C   0  0  0  0  0  3  0  0  0  0  0  0
  -21.7450   -7.2010   21.4240 O   0  0  0  0  0  0  0  0  0  0  0  0
  -21.6740   -6.4820   22.5900 C   0  0  0  0  0  0  0  0  0  0  0  0
  -21.1850   -7.0490   23.7870 C   0  0  0  0  0  3  0  0  0  0  0  0
  -21.0640   -6.2540   24.9440 C   0  0  0  0  0  3  0  0  0  0  0  0
  -21.4220   -4.8930   24.9070 C   0  0  0  0  0  0  0  0  0  0  0  0
  -21.9050   -4.3250   23.7130 C   0  0  0  0  0  3  0  0  0  0  0  0
  -22.0280   -5.1170   22.5590 C   0  0  0  0  0  0  0  0  0  0  0  0
  -22.4730   -4.5600   21.4070 F   0  0  0  0  0  0  0  0  0  0  0  0
  -21.2980   -4.1280   26.0160 F   0  0  0  0  0  0  0  0  0  0  0  0
  -22.9970  -13.8110   21.2000 C   0  0  0  0  0  0  0  0  0  0  0  0
  -22.3160  -13.1210   22.1070 N   0  0  0  0  0  0  0  0  0  0  0  0
  -22.5510  -14.8550   20.7240 O   0  0  0  0  0  0  0  0  0  0  0  0
  -22.6900  -12.2760   22.5150 H   0  0  0  0  0  0  0  0  0  0  0  0
  -21.4040  -13.4410   22.4000 H   0  0  0  0  0  0  0  0  0  0  0  0
  -25.5970  -15.4380   20.2510 N   0  0  0  0  0  0  0  0  0  0  0  0
  -24.8510  -16.0980   20.4360 H   0  0  0  0  0  0  0  0  0  0  0  0
  -26.3920  -15.8620   19.7930 H   0  0  0  0  0  0  0  0  0  0  0  0
  -29.2780  -22.8300   20.0910 C   0  0  0  0  0  3  0  0  0  0  0  0
  -28.2680  -24.3060   20.3880 C   0  0  0  0  0  3  0  0  0  0  0  0
  -28.4840  -25.9480   20.3030 O   0  0  0  0  0  0  0  0  0  0  0  0
  -24.7320  -31.8500   23.2040 C   0  0  0  0  0  0  0  0  0  0  0  0
  -27.4450  -27.0210   20.2480 C   0  0  0  0  0  0  0  0  0  0  0  0
  -23.6040  -30.4400   21.5310 C   0  0  0  0  0  3  0  0  0  0  0  0
  -25.1150  -28.8630   20.1440 C   0  0  0  0  0  0  0  0  0  0  0  0
  -26.1690  -30.6950   21.4490 C   0  0  0  0  0  2  0  0  0  0  0  0
  -26.2810  -29.2870   20.7950 C   0  0  0  0  0  0  0  0  0  0  0  0
  -27.4420  -28.3890   20.8170 C   0  0  0  0  0  3  0  0  0  0  0  0
  -26.2450  -26.7480   19.5540 C   0  0  0  0  0  3  0  0  0  0  0  0
  -25.1220  -27.6130   19.5040 C   0  0  0  0  0  3  0  0  0  0  0  0
  -23.8780  -29.7600   20.1620 C   0  0  0  0  0  2  0  0  0  0  0  0
  -24.8550  -31.0230   22.1160 N   0  0  0  0  0  0  0  0  0  0  0  0
  -23.6250  -32.1200   23.6980 O   0  0  0  0  0  0  0  0  0  0  0  0
  -22.9010  -29.4310   22.4770 C   0  0  0  0  0  0  0  0  0  0  0  0
  -21.5700  -29.2690   22.3390 N   0  0  0  0  0  0  0  0  0  0  0  0
  -23.5580  -28.7920   23.3010 O   0  0  0  0  0  0  0  0  0  0  0  0
  -21.0910  -29.8350   21.6510 H   0  0  0  0  0  0  0  0  0  0  0  0
  -18.1740  -28.0990   22.8450 C   0  0  0  0  0  0  0  0  0  0  0  0
  -20.7400  -28.3200   23.0890 C   0  0  0  0  0  3  0  0  0  0  0  0
  -20.8140  -26.9050   22.4670 C   0  0  0  0  0  2  0  0  0  0  0  0
  -19.6960  -26.6320   21.4560 C   0  0  0  0  0  2  0  0  0  0  0  0
  -18.3230  -26.7720   22.1200 C   0  0  0  0  0  2  0  0  0  0  0  0
  -19.3080  -28.8330   23.2860 C   0  0  0  0  0  0  0  0  0  0  0  0
  -19.1100  -30.0750   23.9270 C   0  0  0  0  0  3  0  0  0  0  0  0
  -17.8130  -30.5830   24.1310 C   0  0  0  0  0  3  0  0  0  0  0  0
  -16.6940  -29.8460   23.7050 C   0  0  0  0  0  3  0  0  0  0  0  0
  -16.8760  -28.6050   23.0680 C   0  0  0  0  0  3  0  0  0  0  0  0
  -25.9770  -32.5100   23.8730 C   0  0  0  0  0  3  0  0  0  0  0  0
  -25.6340  -33.9080   24.1890 N   0  0  0  0  0  0  0  0  0  0  0  0
  -25.9550  -34.9670   23.4340 C   0  0  0  0  0  0  0  0  0  0  0  0
  -26.6330  -34.8720   22.4070 O   0  0  0  0  0  0  0  0  0  0  0  0
  -25.0350  -34.0560   24.9890 H   0  0  0  0  0  0  0  0  0  0  0  0
  -24.1990  -36.7370   23.0700 C   0  0  0  0  0  1  0  0  0  0  0  0
  -25.4470  -36.3530   23.8850 C   0  0  0  0  0  3  0  0  0  0  0  0
  -27.5560  -37.2890   24.7270 C   0  0  0  0  0  1  0  0  0  0  0  0
  -26.4620  -37.4220   23.7670 N   0  0  0  0  0  0  0  0  0  0  0  0
  -26.0390  -38.3370   23.8960 H   0  0  0  0  0  0  0  0  0  0  0  0
  -26.4470  -31.7590   25.1800 C   0  0  1  0  0  0  0  0  0  0  0  0
  -25.3130  -31.5190   26.2030 C   0  0  0  0  0  1  0  0  0  0  0  0
  -27.0630  -30.3840   24.8360 C   0  0  0  0  0  1  0  0  0  0  0  0
  -27.5610  -32.5740   25.8800 C   0  0  0  0  0  1  0  0  0  0  0  0
  1  3  1  0
  1  4  1  0
  3 17  1  0
  3  2  1  0
  4 47  1  0
  4  5  1  0
  5  2  1  0
  5  8  1  0
  6  1  2  0
  7  5  1  0
  9 17  1  0
 10 15  1  0
 11 12  1  0
 11 10  1  0
 13 12  1  0
 13 22  1  0
 13 14  1  0
 15  9  1  0
 15 14  1  0
 16  9  2  0
 17 18  1  0
 19 20  2  0
 20 39  1  0
 21 20  1  0
 21 24  1  0
 22 23  1  0
 22 19  1  0
 23 21  2  0
 24 25  1  0
 25 26  2  0
 27 30  1  0
 27 26  1  0
 28 27  2  0
 29 28  1  0
 29 24  2  0
 30 31  1  0
 31 32  1  0
 32 33  2  0
 34 33  1  0
 34 38  1  0
 35 34  2  0
 36 31  2  0
 36 35  1  0
 37 36  1  0
 39 40  1  0
 40 43  1  0
 40 42  1  0
 41 39  2  0
 44 19  1  0
 44 45  1  0
 46 44  1  0
 47 48  2  0
 49 48  1  0
 50 61  2  0
 51 49  1  0
 51 56  1  0
 52 60  1  0
 52 62  1  0
 53 59  1  0
 53 55  1  0
 54 60  1  0
 55 56  2  0
 55 54  1  0
 57 51  2  0
 58 57  1  0
 58 53  2  0
 59 52  1  0
 60 50  1  0
 62 64  2  0
 63 62  1  0
 65 63  1  0
 66 75  2  0
 66 71  1  0
 67 63  1  0
 67 71  1  0
 68 67  1  0
 69 70  1  0
 69 68  1  0
 70 66  1  0
 71 72  2  0
 72 73  1  0
 74 73  2  0
 75 74  1  0
 76 50  1  0
 76 77  1  0
 76 86  1  0
 77 80  1  0
 78 82  1  0
 78 77  1  0
 79 78  2  0
 82 81  1  0
 84 82  1  0
 84 85  1  0
 84 83  1  0
 86 89  1  1
 86 87  1  0
 88 86  1  0
M  ISO  4   9 100  17 100  48 101  49 101
M  END
>  <TORSDO>  (34) 
F 18

>  <SCORE>  (34) 
-16.158

>  <name>  (34) 
33

>  <ligand_id>  (34) 
33

>  <original_smiles>  (34) 
[H]c1c([H])c([H])c2c(c1[H])C([H])([H])C([H])([H])C([H])([H])C2([H])N([H])C(=O)C1([H])N(C(=O)C([H])(N([H])C(=O)C([H])(N([H])C([H])([H])[H])C([H])([H])[H])C(C([H])([H])[H])(C([H])([H])[H])C([H])([H])[H])C([H])([H])c2c([H])c(OC([H])([H])C([H])([H])C3([H])C(=O)C([H])(N([H])C(=O)N4C([H])([H])C([H])([H])C([H])([H])C([H])(n5nc(-c6c([H])c([H])c(Oc7c([H])c([H])c(F)c([H])c7F)c([H])c6[H])c(C(=O)N([H])[H])c5N([H])[H])C4([H])[H])C([H])([H])[N+]3([H])[H])c([H])c([H])c2C1([H])[H]

>  <smiles>  (34) 
[H]c1c([H])c([H])c2c(c1[H])C([H])([H])C([H])([H])C([H])([H])C2([H])N([H])C(=O)C1([H])N(C(=O)C([H])(N([H])C(=O)C([H])(N([H])C([H])([H])[H])C([H])([H])[H])C(C([H])([H])[H])(C([H])([H])[H])C([H])([H])[H])C([H])([H])c2c([H])c(OC([H])([H])C([H])([H])C3([H])C(=O)C([H])(N([H])C(=O)N4C([H])([H])C([H])([H])C([H])([H])C([H])(n5nc(-c6c([H])c([H])c(Oc7c([H])c([H])c(F)c([H])c7F)c([H])c6[H])c(C(=O)N([H])[H])c5N([H])[H])C4([H])[H])C([H])([H])[N+]3([H])[H])c([H])c([H])c2C1([H])[H]

$$$$
34:0:0
     RDKit          3D

 87 95  0  0  1  0  0  0  0  0999 V2000
  -29.7140  -22.9320   19.1810 C   0  0  0  0  0  2  0  0  0  0  0  0
  -28.8250  -21.9620   19.9380 C   0  0  0  0  0  3  0  0  0  0  0  0
  -28.9820  -23.5560   20.3390 C   0  0  0  0  0  3  0  0  0  0  0  0
  -29.6140  -20.6630   20.4890 C   0  0  0  0  0  0  0  0  0  0  0  0
  -30.6420  -20.8510   21.1430 O   0  0  0  0  0  0  0  0  0  0  0  0
  -29.1620  -19.1110   20.2660 C   0  0  0  0  0  2  0  0  0  0  0  0
  -31.1770  -17.9570   19.1490 C   0  0  0  0  0  1  0  0  0  0  0  0
  -30.2010  -17.8160   20.3340 C   0  0  0  0  0  3  0  0  0  0  0  0
  -29.6330  -16.2540   20.4470 C   0  0  0  0  0  2  0  0  0  0  0  0
  -30.5070  -14.8700   20.3470 C   0  0  0  0  0  0  0  0  0  0  0  0
  -30.3530  -12.5560   19.3780 C   0  0  0  0  0  2  0  0  0  0  0  0
  -29.4120  -12.6120   18.1520 C   0  0  0  0  0  2  0  0  0  0  0  0
  -27.9450  -12.4150   18.5830 C   0  0  0  0  0  2  0  0  0  0  0  0
  -27.5610  -13.3080   19.7900 C   0  0  0  0  0  3  0  0  0  0  0  0
  -28.6220  -13.2530   20.9090 C   0  0  0  0  0  2  0  0  0  0  0  0
  -29.9190  -13.6160   20.3230 N   0  0  0  0  0  0  0  0  0  0  0  0
  -31.7120  -14.9390   20.0900 O   0  0  0  0  0  0  0  0  0  0  0  0
  -25.1750  -13.8900   20.5310 C   0  0  0  0  0  0  0  0  0  0  0  0
  -24.1090  -13.1140   20.8930 C   0  0  0  0  0  0  0  0  0  0  0  0
  -24.5750  -11.7640   20.8590 C   0  0  0  0  0  0  0  0  0  0  0  0
  -26.2200  -13.0140   20.2870 N   0  0  0  0  0  0  0  0  0  0  0  0
  -25.8670  -11.7300   20.5510 N   0  0  0  0  0  0  0  0  0  0  0  0
  -23.8510  -10.4990   21.0430 C   0  0  0  0  0  0  0  0  0  0  0  0
  -24.2740   -9.5320   21.9810 C   0  0  0  0  0  3  0  0  0  0  0  0
  -23.5500   -8.3340   22.1510 C   0  0  0  0  0  3  0  0  0  0  0  0
  -22.3870   -8.0920   21.3820 C   0  0  0  0  0  0  0  0  0  0  0  0
  -21.9850   -9.0460   20.4320 C   0  0  0  0  0  3  0  0  0  0  0  0
  -22.7100  -10.2370   20.2600 C   0  0  0  0  0  3  0  0  0  0  0  0
  -21.6340   -6.9450   21.4610 O   0  0  0  0  0  0  0  0  0  0  0  0
  -21.5660   -6.2070   22.6160 C   0  0  0  0  0  0  0  0  0  0  0  0
  -21.0990   -6.7600   23.8270 C   0  0  0  0  0  3  0  0  0  0  0  0
  -20.9820   -5.9490   24.9720 C   0  0  0  0  0  3  0  0  0  0  0  0
  -21.3200   -4.5840   24.9070 C   0  0  0  0  0  0  0  0  0  0  0  0
  -21.7810   -4.0300   23.6990 C   0  0  0  0  0  3  0  0  0  0  0  0
  -21.9010   -4.8390   22.5570 C   0  0  0  0  0  0  0  0  0  0  0  0
  -22.3250   -4.2950   21.3910 F   0  0  0  0  0  0  0  0  0  0  0  0
  -21.2000   -3.8030   26.0050 F   0  0  0  0  0  0  0  0  0  0  0  0
  -22.7110  -13.5870   21.1650 C   0  0  0  0  0  0  0  0  0  0  0  0
  -21.9850  -12.8820   22.0250 N   0  0  0  0  0  0  0  0  0  0  0  0
  -22.2730  -14.6140   20.6480 O   0  0  0  0  0  0  0  0  0  0  0  0
  -22.3580  -12.0500   22.4570 H   0  0  0  0  0  0  0  0  0  0  0  0
  -21.0470  -13.1790   22.2540 H   0  0  0  0  0  0  0  0  0  0  0  0
  -25.3440  -15.2610   20.3630 N   0  0  0  0  0  0  0  0  0  0  0  0
  -24.5850  -15.9250   20.4640 H   0  0  0  0  0  0  0  0  0  0  0  0
  -26.2070  -15.6910   20.0560 H   0  0  0  0  0  0  0  0  0  0  0  0
  -27.9820  -24.8110   20.0350 C   0  0  0  0  0  2  0  0  0  0  0  0
  -28.2570  -26.3040   20.2410 O   0  0  0  0  0  0  0  0  0  0  0  0
  -24.6050  -31.8970   23.2460 C   0  0  0  0  0  0  0  0  0  0  0  0
  -27.1800  -27.2440   20.1860 C   0  0  0  0  0  0  0  0  0  0  0  0
  -23.3950  -30.5030   21.6130 C   0  0  0  0  0  3  0  0  0  0  0  0
  -24.8380  -28.9430   20.1770 C   0  0  0  0  0  0  0  0  0  0  0  0
  -25.9460  -30.7870   21.4290 C   0  0  0  0  0  2  0  0  0  0  0  0
  -26.0180  -29.4030   20.7740 C   0  0  0  0  0  0  0  0  0  0  0  0
  -27.1910  -28.5690   20.7630 C   0  0  0  0  0  3  0  0  0  0  0  0
  -25.9710  -26.8700   19.5550 C   0  0  0  0  0  3  0  0  0  0  0  0
  -24.8220  -27.6870   19.5540 C   0  0  0  0  0  3  0  0  0  0  0  0
  -23.6070  -29.8310   20.2320 C   0  0  0  0  0  2  0  0  0  0  0  0
  -24.6690  -31.0800   22.1520 N   0  0  0  0  0  0  0  0  0  0  0  0
  -23.5220  -32.1810   23.7790 O   0  0  0  0  0  0  0  0  0  0  0  0
  -22.7250  -29.4900   22.5720 C   0  0  0  0  0  0  0  0  0  0  0  0
  -21.3980  -29.3080   22.4370 N   0  0  0  0  0  0  0  0  0  0  0  0
  -23.3970  -28.8740   23.4030 O   0  0  0  0  0  0  0  0  0  0  0  0
  -20.9130  -29.8550   21.7400 H   0  0  0  0  0  0  0  0  0  0  0  0
  -18.0240  -28.0830   22.9160 C   0  0  0  0  0  0  0  0  0  0  0  0
  -20.5790  -28.3700   23.2070 C   0  0  0  0  0  3  0  0  0  0  0  0
  -20.6990  -26.9340   22.6450 C   0  0  0  0  0  2  0  0  0  0  0  0
  -19.6110  -26.5930   21.6230 C   0  0  0  0  0  2  0  0  0  0  0  0
  -18.2210  -26.7300   22.2510 C   0  0  0  0  0  2  0  0  0  0  0  0
  -19.1320  -28.8590   23.3500 C   0  0  0  0  0  0  0  0  0  0  0  0
  -18.8960  -30.1240   23.9310 C   0  0  0  0  0  3  0  0  0  0  0  0
  -17.5850  -30.6140   24.0810 C   0  0  0  0  0  3  0  0  0  0  0  0
  -16.4920  -29.8350   23.6630 C   0  0  0  0  0  3  0  0  0  0  0  0
  -16.7130  -28.5710   23.0870 C   0  0  0  0  0  3  0  0  0  0  0  0
  -25.8880  -32.5280   23.8670 C   0  0  0  0  0  3  0  0  0  0  0  0
  -25.5880  -33.9370   24.1760 N   0  0  0  0  0  0  0  0  0  0  0  0
  -25.9120  -34.9750   23.3950 C   0  0  0  0  0  0  0  0  0  0  0  0
  -26.5630  -34.8490   22.3540 O   0  0  0  0  0  0  0  0  0  0  0  0
  -25.0080  -34.1070   24.9840 H   0  0  0  0  0  0  0  0  0  0  0  0
  -24.1800  -36.7670   23.0470 C   0  0  0  0  0  1  0  0  0  0  0  0
  -25.4400  -36.3750   23.8350 C   0  0  0  0  0  3  0  0  0  0  0  0
  -27.5940  -37.2720   24.5990 C   0  0  0  0  0  1  0  0  0  0  0  0
  -26.4720  -37.4210   23.6750 N   0  0  0  0  0  0  0  0  0  0  0  0
  -26.0730  -38.3460   23.8110 H   0  0  0  0  0  0  0  0  0  0  0  0
  -26.3850  -31.7740   25.1620 C   0  0  1  0  0  0  0  0  0  0  0  0
  -25.2810  -31.5630   26.2230 C   0  0  0  0  0  1  0  0  0  0  0  0
  -26.9580  -30.3840   24.8010 C   0  0  0  0  0  1  0  0  0  0  0  0
  -27.5390  -32.5670   25.8200 C   0  0  0  0  0  1  0  0  0  0  0  0
  1  2  1  0
  1  3  1  0
  2  3  1  0
  2  4  1  0
  3 46  1  0
  4  5  2  0
  6  8  1  0
  6  4  1  0
  8  7  1  0
  8  9  1  0
 10  9  1  0
 11 16  1  0
 12 13  1  0
 12 11  1  0
 14 13  1  0
 14 21  1  0
 14 15  1  0
 16 10  1  0
 16 15  1  0
 17 10  2  0
 18 19  2  0
 19 38  1  0
 20 19  1  0
 20 23  1  0
 21 18  1  0
 21 22  1  0
 22 20  2  0
 23 24  1  0
 24 25  2  0
 26 29  1  0
 26 25  1  0
 27 26  2  0
 28 27  1  0
 28 23  2  0
 29 30  1  0
 30 31  1  0
 31 32  2  0
 33 32  1  0
 33 37  1  0
 34 33  2  0
 35 30  2  0
 35 34  1  0
 36 35  1  0
 38 39  1  0
 39 42  1  0
 39 41  1  0
 40 38  2  0
 43 44  1  0
 43 18  1  0
 45 43  1  0
 46 47  1  0
 48 59  2  0
 49 47  1  0
 49 54  1  0
 50 58  1  0
 50 60  1  0
 51 57  1  0
 51 53  1  0
 52 58  1  0
 53 52  1  0
 54 53  2  0
 55 49  2  0
 56 55  1  0
 56 51  2  0
 57 50  1  0
 58 48  1  0
 60 62  2  0
 61 60  1  0
 63 61  1  0
 64 73  2  0
 64 69  1  0
 65 61  1  0
 65 69  1  0
 66 65  1  0
 67 68  1  0
 67 66  1  0
 68 64  1  0
 69 70  2  0
 70 71  1  0
 72 71  2  0
 73 72  1  0
 74 48  1  0
 74 75  1  0
 74 84  1  0
 75 78  1  0
 76 80  1  0
 76 75  1  0
 77 76  2  0
 80 79  1  0
 82 83  1  0
 82 80  1  0
 82 81  1  0
 84 87  1  1
 84 85  1  0
 86 84  1  0
M  ISO  4   9 100  10 100  46 101  47 101
M  END
>  <TORSDO>  (35) 
F 21

>  <SCORE>  (35) 
-13.353

>  <name>  (35) 
34

>  <ligand_id>  (35) 
34

>  <original_smiles>  (35) 
[H]c1c([H])c([H])c2c(c1[H])C([H])([H])C([H])([H])C([H])([H])C2([H])N([H])C(=O)C1([H])N(C(=O)C([H])(N([H])C(=O)C([H])(N([H])C([H])([H])[H])C([H])([H])[H])C(C([H])([H])[H])(C([H])([H])[H])C([H])([H])[H])C([H])([H])c2c([H])c(OC([H])([H])C3([H])C([H])([H])C3([H])C(=O)C([H])([H])C([H])(C([H])([H])[H])C([H])([H])C(=O)N3C([H])([H])C([H])([H])C([H])([H])C([H])(n4nc(-c5c([H])c([H])c(Oc6c([H])c([H])c(F)c([H])c6F)c([H])c5[H])c(C(=O)N([H])[H])c4N([H])[H])C3([H])[H])c([H])c([H])c2C1([H])[H]

>  <smiles>  (35) 
[H]c1c([H])c([H])c2c(c1[H])C([H])([H])C([H])([H])C([H])([H])C2([H])N([H])C(=O)C1([H])N(C(=O)C([H])(N([H])C(=O)C([H])(N([H])C([H])([H])[H])C([H])([H])[H])C(C([H])([H])[H])(C([H])([H])[H])C([H])([H])[H])C([H])([H])c2c([H])c(OC([H])([H])C3([H])C([H])([H])C3([H])C(=O)C([H])([H])C([H])(C([H])([H])[H])C([H])([H])C(=O)N3C([H])([H])C([H])([H])C([H])([H])C([H])(n4nc(-c5c([H])c([H])c(Oc6c([H])c([H])c(F)c([H])c6F)c([H])c5[H])c(C(=O)N([H])[H])c4N([H])[H])C3([H])[H])c([H])c([H])c2C1([H])[H]

$$$$
35:0:0
     RDKit          3D

 88 97  0  0  1  0  0  0  0  0999 V2000
  -28.8070  -16.7560   19.2320 C   0  0  0  0  0  3  0  0  0  0  0  0
  -28.2430  -18.0470   18.9400 C   0  0  0  0  0  3  0  0  0  0  0  0
  -30.1880  -17.7650   20.9110 C   0  0  0  0  0  3  0  0  0  0  0  0
  -29.7950  -16.5050   20.2370 C   0  0  0  0  0  0  0  0  0  0  0  0
  -28.6460  -19.2240   19.6270 C   0  0  0  0  0  0  0  0  0  0  0  0
  -29.6080  -19.0970   20.6110 C   0  0  0  0  0  0  0  0  0  0  0  0
  -28.1890  -20.7100   19.4010 C   0  0  0  0  0  2  0  0  0  0  0  0
  -29.8580  -20.5740   21.1470 C   0  0  0  0  0  2  0  0  0  0  0  0
  -28.7350  -21.6310   20.5790 C   0  0  0  0  0  3  0  0  0  0  0  0
  -30.5250  -15.0570   20.3300 C   0  0  0  0  0  0  0  0  0  0  0  0
  -30.3980  -12.6810   19.4480 C   0  0  0  0  0  2  0  0  0  0  0  0
  -29.4690  -12.6000   18.2140 C   0  0  0  0  0  2  0  0  0  0  0  0
  -28.0100  -12.3670   18.6500 C   0  0  0  0  0  2  0  0  0  0  0  0
  -27.5840  -13.3040   19.8090 C   0  0  0  0  0  3  0  0  0  0  0  0
  -28.6410  -13.3930   20.9260 C   0  0  0  0  0  2  0  0  0  0  0  0
  -29.9090  -13.7990   20.3070 N   0  0  0  0  0  0  0  0  0  0  0  0
  -31.7500  -15.0510   20.1700 O   0  0  0  0  0  0  0  0  0  0  0  0
  -25.2160  -13.8710   20.5760 C   0  0  0  0  0  0  0  0  0  0  0  0
  -24.1530  -13.0900   20.9370 C   0  0  0  0  0  0  0  0  0  0  0  0
  -24.6220  -11.7400   20.8930 C   0  0  0  0  0  0  0  0  0  0  0  0
  -26.2570  -12.9960   20.3220 N   0  0  0  0  0  0  0  0  0  0  0  0
  -25.9130  -11.7090   20.5810 N   0  0  0  0  0  0  0  0  0  0  0  0
  -23.9000  -10.4750   21.0720 C   0  0  0  0  0  0  0  0  0  0  0  0
  -24.3320   -9.5020   21.9990 C   0  0  0  0  0  3  0  0  0  0  0  0
  -23.6080   -8.3010   22.1670 C   0  0  0  0  0  3  0  0  0  0  0  0
  -22.4380   -8.0660   21.4050 C   0  0  0  0  0  0  0  0  0  0  0  0
  -22.0260   -9.0290   20.4660 C   0  0  0  0  0  3  0  0  0  0  0  0
  -22.7510  -10.2200   20.2970 C   0  0  0  0  0  3  0  0  0  0  0  0
  -21.6850   -6.9200   21.4820 O   0  0  0  0  0  0  0  0  0  0  0  0
  -21.6230   -6.1770   22.6330 C   0  0  0  0  0  0  0  0  0  0  0  0
  -21.1600   -6.7230   23.8490 C   0  0  0  0  0  3  0  0  0  0  0  0
  -21.0470   -5.9050   24.9920 C   0  0  0  0  0  3  0  0  0  0  0  0
  -21.3860   -4.5410   24.9180 C   0  0  0  0  0  0  0  0  0  0  0  0
  -21.8430   -3.9940   23.7060 C   0  0  0  0  0  3  0  0  0  0  0  0
  -21.9580   -4.8090   22.5660 C   0  0  0  0  0  0  0  0  0  0  0  0
  -22.3780   -4.2710   21.3950 F   0  0  0  0  0  0  0  0  0  0  0  0
  -21.2700   -3.7520   26.0120 F   0  0  0  0  0  0  0  0  0  0  0  0
  -22.7560  -13.5610   21.2120 C   0  0  0  0  0  0  0  0  0  0  0  0
  -22.0320  -12.8590   22.0760 N   0  0  0  0  0  0  0  0  0  0  0  0
  -22.3140  -14.5870   20.6960 O   0  0  0  0  0  0  0  0  0  0  0  0
  -22.4020  -12.0300   22.5160 H   0  0  0  0  0  0  0  0  0  0  0  0
  -21.0930  -13.1570   22.3030 H   0  0  0  0  0  0  0  0  0  0  0  0
  -25.3780  -15.2440   20.4150 N   0  0  0  0  0  0  0  0  0  0  0  0
  -24.6160  -15.8990   20.5530 H   0  0  0  0  0  0  0  0  0  0  0  0
  -26.2410  -15.6950   20.1380 H   0  0  0  0  0  0  0  0  0  0  0  0
  -29.0320  -23.3080   20.3890 C   0  0  0  0  0  3  0  0  0  0  0  0
  -27.9430  -24.6120   20.2720 C   0  0  0  0  0  3  0  0  0  0  0  0
  -28.2290  -26.1580   20.3240 O   0  0  0  0  0  0  0  0  0  0  0  0
  -24.6270  -31.9170   23.2700 C   0  0  0  0  0  0  0  0  0  0  0  0
  -27.1790  -27.1580   20.2640 C   0  0  0  0  0  0  0  0  0  0  0  0
  -23.4220  -30.5200   21.6370 C   0  0  0  0  0  3  0  0  0  0  0  0
  -24.8630  -28.9310   20.2200 C   0  0  0  0  0  0  0  0  0  0  0  0
  -25.9790  -30.7680   21.4720 C   0  0  0  0  0  2  0  0  0  0  0  0
  -26.0460  -29.3700   20.8260 C   0  0  0  0  0  0  0  0  0  0  0  0
  -27.2060  -28.5020   20.8260 C   0  0  0  0  0  3  0  0  0  0  0  0
  -25.9670  -26.8260   19.6200 C   0  0  0  0  0  3  0  0  0  0  0  0
  -24.8370  -27.6730   19.6000 C   0  0  0  0  0  3  0  0  0  0  0  0
  -23.6400  -29.8360   20.2610 C   0  0  0  0  0  2  0  0  0  0  0  0
  -24.6970  -31.0900   22.1810 N   0  0  0  0  0  0  0  0  0  0  0  0
  -23.5420  -32.2090   23.7960 O   0  0  0  0  0  0  0  0  0  0  0  0
  -22.7370  -29.5210   22.6030 C   0  0  0  0  0  0  0  0  0  0  0  0
  -21.4090  -29.3520   22.4730 N   0  0  0  0  0  0  0  0  0  0  0  0
  -23.4030  -28.9010   23.4350 O   0  0  0  0  0  0  0  0  0  0  0  0
  -20.9260  -29.9040   21.7770 H   0  0  0  0  0  0  0  0  0  0  0  0
  -18.0250  -28.1530   22.9650 C   0  0  0  0  0  0  0  0  0  0  0  0
  -20.5820  -28.4220   23.2470 C   0  0  0  0  0  3  0  0  0  0  0  0
  -20.6890  -26.9840   22.6880 C   0  0  0  0  0  2  0  0  0  0  0  0
  -19.5950  -26.6490   21.6690 C   0  0  0  0  0  2  0  0  0  0  0  0
  -18.2090  -26.7980   22.3010 C   0  0  0  0  0  2  0  0  0  0  0  0
  -19.1400  -28.9220   23.3940 C   0  0  0  0  0  0  0  0  0  0  0  0
  -18.9120  -30.1880   23.9750 C   0  0  0  0  0  3  0  0  0  0  0  0
  -17.6050  -30.6860   24.1300 C   0  0  0  0  0  3  0  0  0  0  0  0
  -16.5060  -29.9150   23.7150 C   0  0  0  0  0  3  0  0  0  0  0  0
  -16.7160  -28.6490   23.1390 C   0  0  0  0  0  3  0  0  0  0  0  0
  -25.9070  -32.5500   23.8960 C   0  0  0  0  0  3  0  0  0  0  0  0
  -25.6010  -33.9530   24.2190 N   0  0  0  0  0  0  0  0  0  0  0  0
  -25.9230  -35.0030   23.4530 C   0  0  0  0  0  0  0  0  0  0  0  0
  -26.5750  -34.8930   22.4110 O   0  0  0  0  0  0  0  0  0  0  0  0
  -25.0200  -34.1120   25.0300 H   0  0  0  0  0  0  0  0  0  0  0  0
  -24.1890  -36.7990   23.1290 C   0  0  0  0  0  1  0  0  0  0  0  0
  -25.4480  -36.3960   23.9130 C   0  0  0  0  0  3  0  0  0  0  0  0
  -27.6010  -37.2900   24.6890 C   0  0  0  0  0  1  0  0  0  0  0  0
  -26.4790  -37.4480   23.7680 N   0  0  0  0  0  0  0  0  0  0  0  0
  -26.0770  -38.3700   23.9130 H   0  0  0  0  0  0  0  0  0  0  0  0
  -26.4090  -31.7880   25.1830 C   0  0  1  0  0  0  0  0  0  0  0  0
  -25.3090  -31.5680   26.2470 C   0  0  0  0  0  1  0  0  0  0  0  0
  -26.9860  -30.4020   24.8120 C   0  0  0  0  0  1  0  0  0  0  0  0
  -27.5620  -32.5800   25.8450 C   0  0  0  0  0  1  0  0  0  0  0  0
  1  4  1  0
  2  1  2  0
  2  5  1  0
  4 10  1  0
  4  3  2  0
  5  6  2  0
  6  3  1  0
  6  8  1  0
  7  5  1  0
  7  9  1  0
  9 46  1  0
  9  8  1  0
 11 16  1  0
 12 13  1  0
 12 11  1  0
 14 13  1  0
 14 21  1  0
 14 15  1  0
 16 10  1  0
 16 15  1  0
 17 10  2  0
 18 19  2  0
 19 38  1  0
 20 19  1  0
 20 23  1  0
 21 18  1  0
 21 22  1  0
 22 20  2  0
 23 24  1  0
 24 25  2  0
 26 29  1  0
 26 25  1  0
 27 26  2  0
 28 27  1  0
 28 23  2  0
 29 30  1  0
 30 31  1  0
 31 32  2  0
 33 32  1  0
 33 37  1  0
 34 33  2  0
 35 30  2  0
 35 34  1  0
 36 35  1  0
 38 39  1  0
 39 42  1  0
 39 41  1  0
 40 38  2  0
 43 44  1  0
 43 18  1  0
 45 43  1  0
 47 48  1  0
 47 46  2  0
 49 60  2  0
 50 48  1  0
 50 55  1  0
 51 59  1  0
 51 61  1  0
 52 58  1  0
 52 54  1  0
 53 59  1  0
 54 55  2  0
 54 53  1  0
 56 50  2  0
 57 56  1  0
 57 52  2  0
 58 51  1  0
 59 49  1  0
 61 63  2  0
 62 61  1  0
 64 62  1  0
 65 74  2  0
 65 70  1  0
 66 62  1  0
 66 70  1  0
 67 66  1  0
 68 69  1  0
 68 67  1  0
 69 65  1  0
 70 71  2  0
 71 72  1  0
 73 72  2  0
 74 73  1  0
 75 49  1  0
 75 76  1  0
 75 85  1  0
 76 79  1  0
 77 81  1  0
 77 76  1  0
 78 77  2  0
 81 80  1  0
 83 81  1  0
 83 84  1  0
 83 82  1  0
 85 88  1  1
 85 86  1  0
 87 85  1  0
M  ISO  4   4 100  10 100  47 101  48 101
M  END
>  <TORSDO>  (36) 
F 18

>  <SCORE>  (36) 
-15.979

>  <name>  (36) 
35

>  <ligand_id>  (36) 
35

>  <original_smiles>  (36) 
[H]c1c([H])c([H])c2c(c1[H])C([H])([H])C([H])([H])C([H])([H])C2([H])N([H])C(=O)C1([H])N(C(=O)C([H])(N([H])C(=O)C([H])(N([H])C([H])([H])[H])C([H])([H])[H])C(C([H])([H])[H])(C([H])([H])[H])C([H])([H])[H])C([H])([H])c2c([H])c(OC([H])([H])C([H])([H])C3([H])C([H])([H])c4c([H])c([H])c(C(=O)N5C([H])([H])C([H])([H])C([H])([H])C([H])(n6nc(-c7c([H])c([H])c(Oc8c([H])c([H])c(F)c([H])c8F)c([H])c7[H])c(C(=O)N([H])[H])c6N([H])[H])C5([H])[H])c([H])c4C3([H])[H])c([H])c([H])c2C1([H])[H]

>  <smiles>  (36) 
[H]c1c([H])c([H])c2c(c1[H])C([H])([H])C([H])([H])C([H])([H])C2([H])N([H])C(=O)C1([H])N(C(=O)C([H])(N([H])C(=O)C([H])(N([H])C([H])([H])[H])C([H])([H])[H])C(C([H])([H])[H])(C([H])([H])[H])C([H])([H])[H])C([H])([H])c2c([H])c(OC([H])([H])C([H])([H])C3([H])C([H])([H])c4c([H])c([H])c(C(=O)N5C([H])([H])C([H])([H])C([H])([H])C([H])(n6nc(-c7c([H])c([H])c(Oc8c([H])c([H])c(F)c([H])c8F)c([H])c7[H])c(C(=O)N([H])[H])c6N([H])[H])C5([H])[H])c([H])c4C3([H])[H])c([H])c([H])c2C1([H])[H]

$$$$
36:0:0
     RDKit          3D

 91 99  0  0  1  0  0  0  0  0999 V2000
  -27.4280  -22.1780   16.9950 C   0  0  0  0  0  3  0  0  0  0  0  0
  -28.1120  -21.3690   17.7960 C   0  0  0  0  0  3  0  0  0  0  0  0
  -27.6230  -23.5410   17.4270 C   0  0  0  0  0  0  0  0  0  0  0  0
  -28.8180  -22.1350   18.8740 C   0  0  0  0  0  3  0  0  0  0  0  0
  -28.4460  -23.5140   18.5090 N   0  0  0  0  0  0  0  0  0  0  0  0
  -27.1510  -24.5340   16.8730 O   0  0  0  0  0  0  0  0  0  0  0  0
  -28.3270  -21.7490   20.2890 C   0  0  0  0  0  2  0  0  0  0  0  0
  -28.1760  -20.2360   20.5610 C   0  0  0  0  0  2  0  0  0  0  0  0
  -29.4410  -19.3790   20.3470 C   0  0  0  0  0  2  0  0  0  0  0  0
  -29.1780  -17.9100   20.7200 C   0  0  0  0  0  2  0  0  0  0  0  0
  -30.3260  -16.9300   20.3950 C   0  0  0  0  0  2  0  0  0  0  0  0
  -30.0410  -15.5180   20.9680 C   0  0  0  0  0  2  0  0  0  0  0  0
  -30.7200  -14.3490   20.2140 C   0  0  0  0  0  0  0  0  0  0  0  0
  -30.3500  -12.2510   18.9660 C   0  0  0  0  0  2  0  0  0  0  0  0
  -29.3540  -12.5340   17.8220 C   0  0  0  0  0  2  0  0  0  0  0  0
  -27.8940  -12.4240   18.3100 C   0  0  0  0  0  2  0  0  0  0  0  0
  -27.6430  -13.2090   19.6250 C   0  0  0  0  0  3  0  0  0  0  0  0
  -28.7360  -12.8780   20.6670 C   0  0  0  0  0  2  0  0  0  0  0  0
  -30.0410  -13.1810   20.0600 N   0  0  0  0  0  0  0  0  0  0  0  0
  -31.8170  -14.5500   19.6820 O   0  0  0  0  0  0  0  0  0  0  0  0
  -25.2820  -13.8700   20.4110 C   0  0  0  0  0  0  0  0  0  0  0  0
  -24.2100  -13.1170   20.8150 C   0  0  0  0  0  0  0  0  0  0  0  0
  -24.6440  -11.7570   20.7680 C   0  0  0  0  0  0  0  0  0  0  0  0
  -26.3000  -12.9670   20.1490 N   0  0  0  0  0  0  0  0  0  0  0  0
  -25.9210  -11.6910   20.4160 N   0  0  0  0  0  0  0  0  0  0  0  0
  -23.9020  -10.5090   20.9830 C   0  0  0  0  0  0  0  0  0  0  0  0
  -24.3440   -9.5370   21.9060 C   0  0  0  0  0  3  0  0  0  0  0  0
  -23.6030   -8.3530   22.1090 C   0  0  0  0  0  3  0  0  0  0  0  0
  -22.4060   -8.1320   21.3880 C   0  0  0  0  0  0  0  0  0  0  0  0
  -21.9830   -9.0930   20.4540 C   0  0  0  0  0  3  0  0  0  0  0  0
  -22.7240  -10.2690   20.2490 C   0  0  0  0  0  3  0  0  0  0  0  0
  -21.6360   -7.0000   21.5000 O   0  0  0  0  0  0  0  0  0  0  0  0
  -21.6030   -6.2650   22.6580 C   0  0  0  0  0  0  0  0  0  0  0  0
  -21.2200   -6.8350   23.8920 C   0  0  0  0  0  3  0  0  0  0  0  0
  -21.1280   -6.0260   25.0420 C   0  0  0  0  0  3  0  0  0  0  0  0
  -21.4140   -4.6510   24.9620 C   0  0  0  0  0  0  0  0  0  0  0  0
  -21.7920   -4.0810   23.7340 C   0  0  0  0  0  3  0  0  0  0  0  0
  -21.8840   -4.8860   22.5850 C   0  0  0  0  0  0  0  0  0  0  0  0
  -22.2280   -4.3280   21.3990 F   0  0  0  0  0  0  0  0  0  0  0  0
  -21.3220   -3.8720   26.0660 F   0  0  0  0  0  0  0  0  0  0  0  0
  -22.8330  -13.6190   21.1380 C   0  0  0  0  0  0  0  0  0  0  0  0
  -22.1250  -12.9350   22.0310 N   0  0  0  0  0  0  0  0  0  0  0  0
  -22.3940  -14.6520   20.6340 O   0  0  0  0  0  0  0  0  0  0  0  0
  -22.4940  -12.0980   22.4570 H   0  0  0  0  0  0  0  0  0  0  0  0
  -21.2030  -13.2550   22.2940 H   0  0  0  0  0  0  0  0  0  0  0  0
  -25.4670  -15.2370   20.2270 N   0  0  0  0  0  0  0  0  0  0  0  0
  -24.7140  -15.9050   20.3600 H   0  0  0  0  0  0  0  0  0  0  0  0
  -26.3180  -15.6610   19.8790 H   0  0  0  0  0  0  0  0  0  0  0  0
  -29.2070  -24.6030   19.1560 C   0  0  0  0  0  2  0  0  0  0  0  0
  -28.8300  -26.0850   18.8840 C   0  0  0  0  0  2  0  0  0  0  0  0
  -28.4800  -26.7590   20.0990 O   0  0  0  0  0  0  0  0  0  0  0  0
  -24.6050  -31.8660   23.2050 C   0  0  0  0  0  0  0  0  0  0  0  0
  -27.2880  -27.4470   20.1190 C   0  0  0  0  0  0  0  0  0  0  0  0
  -23.4160  -30.4690   21.5470 C   0  0  0  0  0  3  0  0  0  0  0  0
  -24.8820  -28.9290   20.1370 C   0  0  0  0  0  0  0  0  0  0  0  0
  -25.9430  -30.8230   21.3810 C   0  0  0  0  0  2  0  0  0  0  0  0
  -26.0330  -29.4550   20.7400 C   0  0  0  0  0  0  0  0  0  0  0  0
  -27.2350  -28.7140   20.7390 C   0  0  0  0  0  3  0  0  0  0  0  0
  -26.1110  -26.9170   19.5430 C   0  0  0  0  0  3  0  0  0  0  0  0
  -24.9140  -27.6560   19.5430 C   0  0  0  0  0  3  0  0  0  0  0  0
  -23.6370  -29.7860   20.1700 C   0  0  0  0  0  2  0  0  0  0  0  0
  -24.6720  -31.0670   22.1030 N   0  0  0  0  0  0  0  0  0  0  0  0
  -23.5180  -32.1390   23.7320 O   0  0  0  0  0  0  0  0  0  0  0  0
  -22.7520  -29.4480   22.4970 C   0  0  0  0  0  0  0  0  0  0  0  0
  -21.4280  -29.2730   22.3580 N   0  0  0  0  0  0  0  0  0  0  0  0
  -23.4250  -28.8140   23.3150 O   0  0  0  0  0  0  0  0  0  0  0  0
  -20.9480  -29.8370   21.6690 H   0  0  0  0  0  0  0  0  0  0  0  0
  -18.0430  -28.1000   22.8160 C   0  0  0  0  0  0  0  0  0  0  0  0
  -20.5990  -28.3380   23.1150 C   0  0  0  0  0  3  0  0  0  0  0  0
  -20.6970  -26.9090   22.5300 C   0  0  0  0  0  2  0  0  0  0  0  0
  -19.6020  -26.6000   21.5050 C   0  0  0  0  0  2  0  0  0  0  0  0
  -18.2150  -26.7530   22.1360 C   0  0  0  0  0  2  0  0  0  0  0  0
  -19.1620  -28.8520   23.2610 C   0  0  0  0  0  0  0  0  0  0  0  0
  -18.9470  -30.1170   23.8530 C   0  0  0  0  0  3  0  0  0  0  0  0
  -17.6440  -30.6260   24.0060 C   0  0  0  0  0  3  0  0  0  0  0  0
  -16.5390  -29.8700   23.5770 C   0  0  0  0  0  3  0  0  0  0  0  0
  -16.7400  -28.6090   22.9890 C   0  0  0  0  0  3  0  0  0  0  0  0
  -25.8850  -32.4920   23.8420 C   0  0  0  0  0  3  0  0  0  0  0  0
  -25.5770  -33.8880   24.1750 N   0  0  0  0  0  0  0  0  0  0  0  0
  -25.9150  -34.9420   23.4210 C   0  0  0  0  0  0  0  0  0  0  0  0
  -26.5920  -34.8430   22.3940 O   0  0  0  0  0  0  0  0  0  0  0  0
  -24.9730  -34.0410   24.9690 H   0  0  0  0  0  0  0  0  0  0  0  0
  -24.1870  -36.7350   23.0580 C   0  0  0  0  0  1  0  0  0  0  0  0
  -25.4240  -36.3290   23.8760 C   0  0  0  0  0  3  0  0  0  0  0  0
  -27.5520  -37.2110   24.7240 C   0  0  0  0  0  1  0  0  0  0  0  0
  -26.4570  -37.3830   23.7730 N   0  0  0  0  0  0  0  0  0  0  0  0
  -26.0510  -38.3020   23.9220 H   0  0  0  0  0  0  0  0  0  0  0  0
  -26.3900  -31.7120   25.1180 C   0  0  1  0  0  0  0  0  0  0  0  0
  -25.2890  -31.4660   26.1760 C   0  0  0  0  0  1  0  0  0  0  0  0
  -26.9740  -30.3370   24.7210 C   0  0  0  0  0  1  0  0  0  0  0  0
  -27.5380  -32.5000   25.7930 C   0  0  0  0  0  1  0  0  0  0  0  0
  1  3  1  0
  1  2  2  0
  2  4  1  0
  3  5  1  0
  4  7  1  0
  5  4  1  0
  5 49  1  0
  6  3  2  0
  7  8  1  0
  9  8  1  0
  9 10  1  0
 11 10  1  0
 11 12  1  0
 13 12  1  0
 14 19  1  0
 15 16  1  0
 15 14  1  0
 17 16  1  0
 17 24  1  0
 17 18  1  0
 19 13  1  0
 19 18  1  0
 20 13  2  0
 21 22  2  0
 22 41  1  0
 23 22  1  0
 23 26  1  0
 24 21  1  0
 24 25  1  0
 25 23  2  0
 26 27  1  0
 27 28  2  0
 29 32  1  0
 29 28  1  0
 30 29  2  0
 31 30  1  0
 31 26  2  0
 32 33  1  0
 33 34  1  0
 34 35  2  0
 36 35  1  0
 36 40  1  0
 37 36  2  0
 38 33  2  0
 38 37  1  0
 39 38  1  0
 41 42  1  0
 42 45  1  0
 42 44  1  0
 43 41  2  0
 46 47  1  0
 46 21  1  0
 48 46  1  0
 50 49  1  0
 50 51  1  0
 51 53  1  0
 52 63  2  0
 53 58  1  0
 54 62  1  0
 54 64  1  0
 55 61  1  0
 55 57  1  0
 56 62  1  0
 57 56  1  0
 58 57  2  0
 59 60  1  0
 59 53  2  0
 60 55  2  0
 61 54  1  0
 62 52  1  0
 64 66  2  0
 65 64  1  0
 67 65  1  0
 68 77  2  0
 68 73  1  0
 69 65  1  0
 69 73  1  0
 70 69  1  0
 71 72  1  0
 71 70  1  0
 72 68  1  0
 73 74  2  0
 74 75  1  0
 76 75  2  0
 77 76  1  0
 78 52  1  0
 78 79  1  0
 78 88  1  0
 79 82  1  0
 80 84  1  0
 80 79  1  0
 81 80  2  0
 84 83  1  0
 86 84  1  0
 86 87  1  0
 86 85  1  0
 88 91  1  1
 88 89  1  0
 90 88  1  0
M  ISO  4  12 100  13 100  50 101  51 101
M  END
>  <TORSDO>  (37) 
F 24

>  <SCORE>  (37) 
-11.770

>  <name>  (37) 
36

>  <ligand_id>  (37) 
36

>  <original_smiles>  (37) 
[H]C1=C([H])C([H])(C([H])([H])C([H])([H])C([H])([H])C([H])([H])C([H])([H])C([H])([H])C(=O)N2C([H])([H])C([H])([H])C([H])([H])C([H])(n3nc(-c4c([H])c([H])c(Oc5c([H])c([H])c(F)c([H])c5F)c([H])c4[H])c(C(=O)N([H])[H])c3N([H])[H])C2([H])[H])N(C([H])([H])C([H])([H])Oc2c([H])c([H])c3c(c2[H])C([H])([H])N(C(=O)C([H])(N([H])C(=O)C([H])(N([H])C([H])([H])[H])C([H])([H])[H])C(C([H])([H])[H])(C([H])([H])[H])C([H])([H])[H])C([H])(C(=O)N([H])C2([H])c4c([H])c([H])c([H])c([H])c4C([H])([H])C([H])([H])C2([H])[H])C3([H])[H])C1=O

>  <smiles>  (37) 
[H]C1=C([H])C([H])(C([H])([H])C([H])([H])C([H])([H])C([H])([H])C([H])([H])C([H])([H])C(=O)N2C([H])([H])C([H])([H])C([H])([H])C([H])(n3nc(-c4c([H])c([H])c(Oc5c([H])c([H])c(F)c([H])c5F)c([H])c4[H])c(C(=O)N([H])[H])c3N([H])[H])C2([H])[H])N(C([H])([H])C([H])([H])Oc2c([H])c([H])c3c(c2[H])C([H])([H])N(C(=O)C([H])(N([H])C(=O)C([H])(N([H])C([H])([H])[H])C([H])([H])[H])C(C([H])([H])[H])(C([H])([H])[H])C([H])([H])[H])C([H])(C(=O)N([H])C2([H])c4c([H])c([H])c([H])c([H])c4C([H])([H])C([H])([H])C2([H])[H])C3([H])[H])C1=O

$$$$
37:0:0
     RDKit          3D

 88 96  0  0  1  0  0  0  0  0999 V2000
  -30.8070  -21.5510   20.4790 C   0  0  0  0  0  1  0  0  0  0  0  0
  -29.2910  -21.3580   20.6190 C   0  0  0  0  0  3  0  0  0  0  0  0
  -28.9440  -19.6590   20.4160 C   0  0  0  0  0  0  0  0  0  0  0  0
  -27.7400  -19.4130   20.5100 O   0  0  0  0  0  0  0  0  0  0  0  0
  -30.4160  -15.3370   20.2320 C   0  0  0  0  0  0  0  0  0  0  0  0
  -30.4160  -12.8980   19.3550 C   0  0  0  0  0  2  0  0  0  0  0  0
  -29.4930  -12.6600   18.1330 C   0  0  0  0  0  2  0  0  0  0  0  0
  -28.0380  -12.4020   18.5680 C   0  0  0  0  0  2  0  0  0  0  0  0
  -27.5850  -13.3560   19.7000 C   0  0  0  0  0  3  0  0  0  0  0  0
  -28.6370  -13.5160   20.8150 C   0  0  0  0  0  2  0  0  0  0  0  0
  -29.8540  -14.0310   20.1690 N   0  0  0  0  0  0  0  0  0  0  0  0
  -31.6540  -15.3310   20.1670 O   0  0  0  0  0  0  0  0  0  0  0  0
  -29.1520  -17.7900   17.9650 C   0  0  0  0  0  2  0  0  0  0  0  0
  -30.3690  -18.4250   18.6250 C   0  0  0  0  0  2  0  0  0  0  0  0
  -28.9090  -16.5120   18.7840 C   0  0  0  0  0  2  0  0  0  0  0  0
  -29.9980  -18.2370   20.0860 C   0  0  0  0  0  3  0  0  0  0  0  0
  -29.6470  -16.6060   20.0680 N   0  0  0  0  0  0  0  0  0  0  0  0
  -25.2140  -13.9170   20.4480 C   0  0  0  0  0  0  0  0  0  0  0  0
  -24.1540  -13.1360   20.8120 C   0  0  0  0  0  0  0  0  0  0  0  0
  -24.6310  -11.7880   20.7920 C   0  0  0  0  0  0  0  0  0  0  0  0
  -26.2620  -13.0440   20.2140 N   0  0  0  0  0  0  0  0  0  0  0  0
  -25.9240  -11.7600   20.4890 N   0  0  0  0  0  0  0  0  0  0  0  0
  -23.9140  -10.5210   20.9850 C   0  0  0  0  0  0  0  0  0  0  0  0
  -24.3440   -9.5640   21.9310 C   0  0  0  0  0  3  0  0  0  0  0  0
  -23.6250   -8.3640   22.1090 C   0  0  0  0  0  3  0  0  0  0  0  0
  -22.4640   -8.1110   21.3410 C   0  0  0  0  0  0  0  0  0  0  0  0
  -22.0540   -9.0550   20.3840 C   0  0  0  0  0  3  0  0  0  0  0  0
  -22.7730  -10.2480   20.2030 C   0  0  0  0  0  3  0  0  0  0  0  0
  -21.7190   -6.9600   21.4270 O   0  0  0  0  0  0  0  0  0  0  0  0
  -21.6570   -6.2300   22.5860 C   0  0  0  0  0  0  0  0  0  0  0  0
  -21.1980   -6.7920   23.7980 C   0  0  0  0  0  3  0  0  0  0  0  0
  -21.0850   -5.9880   24.9490 C   0  0  0  0  0  3  0  0  0  0  0  0
  -21.4210   -4.6220   24.8900 C   0  0  0  0  0  0  0  0  0  0  0  0
  -21.8750   -4.0590   23.6840 C   0  0  0  0  0  3  0  0  0  0  0  0
  -21.9880   -4.8610   22.5350 C   0  0  0  0  0  0  0  0  0  0  0  0
  -22.4050   -4.3110   21.3700 F   0  0  0  0  0  0  0  0  0  0  0  0
  -21.3050   -3.8470   25.9940 F   0  0  0  0  0  0  0  0  0  0  0  0
  -22.7530  -13.6040   21.0700 C   0  0  0  0  0  0  0  0  0  0  0  0
  -22.0230  -12.9010   21.9290 N   0  0  0  0  0  0  0  0  0  0  0  0
  -22.3130  -14.6260   20.5450 O   0  0  0  0  0  0  0  0  0  0  0  0
  -22.3960  -12.0750   22.3740 H   0  0  0  0  0  0  0  0  0  0  0  0
  -21.0820  -13.1950   22.1500 H   0  0  0  0  0  0  0  0  0  0  0  0
  -25.3700  -15.2900   20.2710 N   0  0  0  0  0  0  0  0  0  0  0  0
  -24.6040  -15.9440   20.3950 H   0  0  0  0  0  0  0  0  0  0  0  0
  -26.2380  -15.7400   20.0130 H   0  0  0  0  0  0  0  0  0  0  0  0
  -28.5250  -22.8560   20.0210 C   0  0  0  0  0  2  0  0  0  0  0  0
  -28.2200  -24.4620   20.7350 C   0  0  0  0  0  2  0  0  0  0  0  0
  -28.2780  -26.0230   20.2660 O   0  0  0  0  0  0  0  0  0  0  0  0
  -24.6170  -31.9000   23.2520 C   0  0  0  0  0  0  0  0  0  0  0  0
  -27.2220  -27.0570   20.2910 C   0  0  0  0  0  0  0  0  0  0  0  0
  -23.4410  -30.4890   21.6140 C   0  0  0  0  0  3  0  0  0  0  0  0
  -24.9050  -28.8860   20.2170 C   0  0  0  0  0  0  0  0  0  0  0  0
  -26.0030  -30.7300   21.4740 C   0  0  0  0  0  2  0  0  0  0  0  0
  -26.0860  -29.3170   20.8340 C   0  0  0  0  0  0  0  0  0  0  0  0
  -27.2450  -28.4250   20.8400 C   0  0  0  0  0  3  0  0  0  0  0  0
  -26.0080  -26.7580   19.6370 C   0  0  0  0  0  3  0  0  0  0  0  0
  -24.8870  -27.6260   19.5970 C   0  0  0  0  0  3  0  0  0  0  0  0
  -23.6820  -29.7980   20.2440 C   0  0  0  0  0  2  0  0  0  0  0  0
  -24.7080  -31.0660   22.1680 N   0  0  0  0  0  0  0  0  0  0  0  0
  -23.5240  -32.1860   23.7670 O   0  0  0  0  0  0  0  0  0  0  0  0
  -22.7500  -29.4920   22.5790 C   0  0  0  0  0  0  0  0  0  0  0  0
  -21.4220  -29.3150   22.4440 N   0  0  0  0  0  0  0  0  0  0  0  0
  -23.4140  -28.8770   23.4160 O   0  0  0  0  0  0  0  0  0  0  0  0
  -20.9400  -29.8600   21.7430 H   0  0  0  0  0  0  0  0  0  0  0  0
  -18.0450  -28.0850   22.9290 C   0  0  0  0  0  0  0  0  0  0  0  0
  -20.6000  -28.3770   23.2150 C   0  0  0  0  0  3  0  0  0  0  0  0
  -20.7210  -26.9420   22.6520 C   0  0  0  0  0  2  0  0  0  0  0  0
  -19.6310  -26.6010   21.6300 C   0  0  0  0  0  2  0  0  0  0  0  0
  -18.2410  -26.7340   22.2620 C   0  0  0  0  0  2  0  0  0  0  0  0
  -19.1520  -28.8630   23.3630 C   0  0  0  0  0  0  0  0  0  0  0  0
  -18.9120  -30.1230   23.9520 C   0  0  0  0  0  3  0  0  0  0  0  0
  -17.6010  -30.6090   24.1080 C   0  0  0  0  0  3  0  0  0  0  0  0
  -16.5080  -29.8290   23.6890 C   0  0  0  0  0  3  0  0  0  0  0  0
  -16.7310  -28.5690   23.1080 C   0  0  0  0  0  3  0  0  0  0  0  0
  -25.8820  -32.5520   23.8890 C   0  0  0  0  0  3  0  0  0  0  0  0
  -26.3740  -31.8090   25.1920 C   0  0  1  0  0  0  0  0  0  0  0  0
  -25.2610  -31.5920   26.2460 C   0  0  0  0  0  1  0  0  0  0  0  0
  -26.9620  -30.4230   24.8460 C   0  0  0  0  0  1  0  0  0  0  0  0
  -27.5160  -32.6140   25.8570 C   0  0  0  0  0  1  0  0  0  0  0  0
  -25.5620  -33.9560   24.1960 N   0  0  0  0  0  0  0  0  0  0  0  0
  -25.9060  -35.0060   23.4370 C   0  0  0  0  0  0  0  0  0  0  0  0
  -26.5920  -34.8940   22.4180 O   0  0  0  0  0  0  0  0  0  0  0  0
  -24.9550  -34.1190   24.9870 H   0  0  0  0  0  0  0  0  0  0  0  0
  -24.1910  -36.8070   23.0430 C   0  0  0  0  0  1  0  0  0  0  0  0
  -25.4170  -36.4010   23.8770 C   0  0  0  0  0  3  0  0  0  0  0  0
  -27.5400  -37.2870   24.7400 C   0  0  0  0  0  1  0  0  0  0  0  0
  -26.4540  -37.4520   23.7760 N   0  0  0  0  0  0  0  0  0  0  0  0
  -26.0470  -38.3730   23.9130 H   0  0  0  0  0  0  0  0  0  0  0  0
  2  1  1  0
  3  4  2  0
  3  2  1  0
  6 11  1  0
  7  8  1  0
  7  6  1  0
  9  8  1  0
  9 21  1  0
  9 10  1  0
 11  5  1  0
 11 10  1  0
 12  5  2  0
 13 14  1  0
 13 15  1  0
 14 16  1  0
 15 17  1  0
 16  3  1  0
 17 16  1  0
 17  5  1  0
 18 19  2  0
 19 38  1  0
 20 19  1  0
 20 23  1  0
 21 18  1  0
 21 22  1  0
 22 20  2  0
 23 24  1  0
 24 25  2  0
 26 29  1  0
 26 25  1  0
 27 26  2  0
 28 27  1  0
 28 23  2  0
 29 30  1  0
 30 31  1  0
 31 32  2  0
 33 32  1  0
 33 37  1  0
 34 33  2  0
 35 30  2  0
 35 34  1  0
 36 35  1  0
 38 39  1  0
 39 42  1  0
 39 41  1  0
 40 38  2  0
 43 44  1  0
 43 18  1  0
 45 43  1  0
 46  2  1  0
 46 47  1  0
 48 50  1  0
 48 47  1  0
 49 60  2  0
 50 55  1  0
 51 59  1  0
 51 61  1  0
 52 58  1  0
 52 54  1  0
 53 59  1  0
 54 55  2  0
 54 53  1  0
 56 50  2  0
 57 56  1  0
 57 52  2  0
 58 51  1  0
 59 49  1  0
 61 63  2  0
 62 61  1  0
 64 62  1  0
 65 74  2  0
 65 70  1  0
 66 62  1  0
 66 70  1  0
 67 66  1  0
 68 69  1  0
 68 67  1  0
 69 65  1  0
 70 71  2  0
 71 72  1  0
 73 72  2  0
 74 73  1  0
 75 49  1  0
 75 80  1  0
 75 76  1  0
 76 79  1  1
 76 77  1  0
 78 76  1  0
 80 83  1  0
 81 85  1  0
 81 80  1  0
 82 81  2  0
 85 84  1  0
 87 85  1  0
 87 88  1  0
 87 86  1  0
M  ISO  4   5 100  17 100  47 101  48 101
M  END
>  <TORSDO>  (38) 
F 19

>  <SCORE>  (38) 
-15.938

>  <name>  (38) 
37

>  <ligand_id>  (38) 
37

>  <original_smiles>  (38) 
[H]c1c([H])c([H])c2c(c1[H])C([H])([H])C([H])([H])C([H])([H])C2([H])N([H])C(=O)C1([H])N(C(=O)C([H])(N([H])C(=O)C([H])(N([H])C([H])([H])[H])C([H])([H])[H])C(C([H])([H])[H])(C([H])([H])[H])C([H])([H])[H])C([H])([H])c2c([H])c(OC([H])([H])C([H])([H])C([H])(C(=O)C3([H])N(C(=O)N4C([H])([H])C([H])([H])C([H])([H])C([H])(n5nc(-c6c([H])c([H])c(Oc7c([H])c([H])c(F)c([H])c7F)c([H])c6[H])c(C(=O)N([H])[H])c5N([H])[H])C4([H])[H])C([H])([H])C([H])([H])C3([H])[H])C([H])([H])[H])c([H])c([H])c2C1([H])[H]

>  <smiles>  (38) 
[H]c1c([H])c([H])c2c(c1[H])C([H])([H])C([H])([H])C([H])([H])C2([H])N([H])C(=O)C1([H])N(C(=O)C([H])(N([H])C(=O)C([H])(N([H])C([H])([H])[H])C([H])([H])[H])C(C([H])([H])[H])(C([H])([H])[H])C([H])([H])[H])C([H])([H])c2c([H])c(OC([H])([H])C([H])([H])C([H])(C(=O)C3([H])N(C(=O)N4C([H])([H])C([H])([H])C([H])([H])C([H])(n5nc(-c6c([H])c([H])c(Oc7c([H])c([H])c(F)c([H])c7F)c([H])c6[H])c(C(=O)N([H])[H])c5N([H])[H])C4([H])[H])C([H])([H])C([H])([H])C3([H])[H])C([H])([H])[H])c([H])c([H])c2C1([H])[H]

$$$$
38:0:0
     RDKit          3D

 92100  0  0  1  0  0  0  0  0999 V2000
  -28.8480  -22.3460   21.4890 C   0  0  0  0  0  3  0  0  0  0  0  0
  -28.5570  -22.2840   19.1930 C   0  0  0  0  0  3  0  0  0  0  0  0
  -28.6270  -23.8080   21.4660 C   0  0  0  0  0  3  0  0  0  0  0  0
  -28.3320  -23.7420   19.1730 C   0  0  0  0  0  3  0  0  0  0  0  0
  -28.8340  -21.4470   20.3480 C   0  0  0  0  0  0  0  0  0  0  0  0
  -28.3230  -24.6360   20.3110 C   0  0  0  0  0  0  0  0  0  0  0  0
  -28.2910  -26.1430   20.2760 O   0  0  0  0  0  0  0  0  0  0  0  0
  -24.6100  -31.9070   23.2450 C   0  0  0  0  0  0  0  0  0  0  0  0
  -27.1980  -27.1140   20.2510 C   0  0  0  0  0  0  0  0  0  0  0  0
  -23.4120  -30.4960   21.6140 C   0  0  0  0  0  3  0  0  0  0  0  0
  -24.8640  -28.8960   20.2000 C   0  0  0  0  0  0  0  0  0  0  0  0
  -25.9670  -30.7470   21.4520 C   0  0  0  0  0  2  0  0  0  0  0  0
  -26.0420  -29.3400   20.8110 C   0  0  0  0  0  0  0  0  0  0  0  0
  -27.2020  -28.4660   20.8190 C   0  0  0  0  0  3  0  0  0  0  0  0
  -25.9920  -26.7860   19.5970 C   0  0  0  0  0  3  0  0  0  0  0  0
  -24.8550  -27.6360   19.5780 C   0  0  0  0  0  3  0  0  0  0  0  0
  -23.6350  -29.8010   20.2420 C   0  0  0  0  0  2  0  0  0  0  0  0
  -24.6820  -31.0770   22.1570 N   0  0  0  0  0  0  0  0  0  0  0  0
  -23.5230  -32.1930   23.7730 O   0  0  0  0  0  0  0  0  0  0  0  0
  -22.7310  -29.5000   22.5870 C   0  0  0  0  0  0  0  0  0  0  0  0
  -21.4050  -29.3200   22.4600 N   0  0  0  0  0  0  0  0  0  0  0  0
  -23.4030  -28.8900   23.4230 O   0  0  0  0  0  0  0  0  0  0  0  0
  -20.9170  -29.8640   21.7610 H   0  0  0  0  0  0  0  0  0  0  0  0
  -18.0340  -28.0890   22.9640 C   0  0  0  0  0  0  0  0  0  0  0  0
  -20.5880  -28.3830   23.2370 C   0  0  0  0  0  3  0  0  0  0  0  0
  -20.7080  -26.9470   22.6780 C   0  0  0  0  0  2  0  0  0  0  0  0
  -19.6130  -26.6020   21.6620 C   0  0  0  0  0  2  0  0  0  0  0  0
  -18.2270  -26.7370   22.3000 C   0  0  0  0  0  2  0  0  0  0  0  0
  -19.1430  -28.8690   23.3910 C   0  0  0  0  0  0  0  0  0  0  0  0
  -18.9060  -30.1330   23.9740 C   0  0  0  0  0  3  0  0  0  0  0  0
  -17.5940  -30.6180   24.1340 C   0  0  0  0  0  3  0  0  0  0  0  0
  -16.5010  -29.8360   23.7230 C   0  0  0  0  0  3  0  0  0  0  0  0
  -16.7210  -28.5740   23.1460 C   0  0  0  0  0  3  0  0  0  0  0  0
  -25.8840  -32.5530   23.8690 C   0  0  0  0  0  3  0  0  0  0  0  0
  -25.5680  -33.9540   24.1910 N   0  0  0  0  0  0  0  0  0  0  0  0
  -25.8980  -35.0080   23.4330 C   0  0  0  0  0  0  0  0  0  0  0  0
  -26.5650  -34.9030   22.4000 O   0  0  0  0  0  0  0  0  0  0  0  0
  -24.9790  -34.1090   24.9960 H   0  0  0  0  0  0  0  0  0  0  0  0
  -24.1730  -36.8070   23.0810 C   0  0  0  0  0  1  0  0  0  0  0  0
  -25.4140  -36.3980   23.8920 C   0  0  0  0  0  3  0  0  0  0  0  0
  -27.5470  -37.2850   24.7240 C   0  0  0  0  0  1  0  0  0  0  0  0
  -26.4480  -37.4510   23.7780 N   0  0  0  0  0  0  0  0  0  0  0  0
  -26.0400  -38.3710   23.9240 H   0  0  0  0  0  0  0  0  0  0  0  0
  -26.3960  -31.7980   25.1580 C   0  0  1  0  0  0  0  0  0  0  0  0
  -25.3000  -31.5740   26.2270 C   0  0  0  0  0  1  0  0  0  0  0  0
  -26.9810  -30.4140   24.7930 C   0  0  0  0  0  1  0  0  0  0  0  0
  -27.5440  -32.6000   25.8140 C   0  0  0  0  0  1  0  0  0  0  0  0
  -28.7870  -19.7330   20.3380 C   0  0  0  0  0  2  0  0  0  0  0  0
  -29.8960  -18.4050   20.6090 C   0  0  0  0  0  3  0  0  0  0  0  0
  -30.5030  -18.6110   21.9350 N   0  0  0  0  0  4  0  0  0  0  0  0
  -29.8360  -18.4260   22.6630 H   0  0  0  0  0  0  0  0  0  0  0  0
  -30.8110  -19.5620   22.0280 H   0  0  0  0  0  0  0  0  0  0  0  0
  -31.3020  -18.0170   22.0610 H   0  0  0  0  0  0  0  0  0  0  0  0
  -29.5330  -16.6880   20.3960 C   0  0  0  0  0  3  0  0  0  0  0  0
  -30.4690  -15.2470   20.6150 C   0  0  0  0  0  0  0  0  0  0  0  0
  -30.5480  -12.7950   19.8650 C   0  0  0  0  0  2  0  0  0  0  0  0
  -29.6890  -12.5940   18.5890 C   0  0  0  0  0  2  0  0  0  0  0  0
  -28.2080  -12.3520   18.9440 C   0  0  0  0  0  2  0  0  0  0  0  0
  -27.6990  -13.3250   20.0370 C   0  0  0  0  0  3  0  0  0  0  0  0
  -28.6870  -13.4650   21.2100 C   0  0  0  0  0  2  0  0  0  0  0  0
  -29.9670  -13.9290   20.6540 N   0  0  0  0  0  0  0  0  0  0  0  0
  -31.7010  -15.3050   20.4930 O   0  0  0  0  0  0  0  0  0  0  0  0
  -25.2920  -13.8930   20.6780 C   0  0  0  0  0  0  0  0  0  0  0  0
  -24.2150  -13.1160   20.9970 C   0  0  0  0  0  0  0  0  0  0  0  0
  -24.6860  -11.7670   20.9910 C   0  0  0  0  0  0  0  0  0  0  0  0
  -26.3460  -13.0170   20.4810 N   0  0  0  0  0  0  0  0  0  0  0  0
  -25.9900  -11.7340   20.7410 N   0  0  0  0  0  0  0  0  0  0  0  0
  -23.9560  -10.5040   21.1470 C   0  0  0  0  0  0  0  0  0  0  0  0
  -24.3480   -9.5370   22.0990 C   0  0  0  0  0  3  0  0  0  0  0  0
  -23.6130   -8.3400   22.2450 C   0  0  0  0  0  3  0  0  0  0  0  0
  -22.4760   -8.1020   21.4390 C   0  0  0  0  0  0  0  0  0  0  0  0
  -22.1050   -9.0570   20.4750 C   0  0  0  0  0  3  0  0  0  0  0  0
  -22.8380  -10.2450   20.3270 C   0  0  0  0  0  3  0  0  0  0  0  0
  -21.7180   -6.9560   21.4920 O   0  0  0  0  0  0  0  0  0  0  0  0
  -21.6170   -6.2160   22.6420 C   0  0  0  0  0  0  0  0  0  0  0  0
  -21.1130   -6.7670   23.8410 C   0  0  0  0  0  3  0  0  0  0  0  0
  -20.9610   -5.9510   24.9810 C   0  0  0  0  0  3  0  0  0  0  0  0
  -21.3000   -4.5870   24.9220 C   0  0  0  0  0  0  0  0  0  0  0  0
  -21.7960   -4.0370   23.7280 C   0  0  0  0  0  3  0  0  0  0  0  0
  -21.9520   -4.8480   22.5910 C   0  0  0  0  0  0  0  0  0  0  0  0
  -22.4110   -4.3090   21.4360 F   0  0  0  0  0  0  0  0  0  0  0  0
  -21.1470   -3.8010   26.0140 F   0  0  0  0  0  0  0  0  0  0  0  0
  -22.8060  -13.5920   21.1950 C   0  0  0  0  0  0  0  0  0  0  0  0
  -22.0410  -12.9040   22.0340 N   0  0  0  0  0  0  0  0  0  0  0  0
  -22.3920  -14.6090   20.6400 O   0  0  0  0  0  0  0  0  0  0  0  0
  -22.3900  -12.0800   22.5030 H   0  0  0  0  0  0  0  0  0  0  0  0
  -21.0920  -13.2040   22.2100 H   0  0  0  0  0  0  0  0  0  0  0  0
  -25.4600  -15.2620   20.5150 N   0  0  0  0  0  0  0  0  0  0  0  0
  -24.6900  -15.9170   20.5900 H   0  0  0  0  0  0  0  0  0  0  0  0
  -26.3140  -15.6920   20.1860 H   0  0  0  0  0  0  0  0  0  0  0  0
  -27.5560  -17.0280   18.6840 C   0  0  0  0  0  1  0  0  0  0  0  0
  -29.0140  -16.5920   18.9280 C   0  0  0  0  0  2  0  0  0  0  0  0
  2  5  1  0
  3  1  1  0
  4  2  2  0
  4  6  1  0
  5  1  2  0
  6  3  2  0
  7  6  1  0
  8 19  2  0
  9  7  1  0
  9 14  1  0
 10 18  1  0
 10 20  1  0
 11 17  1  0
 11 13  1  0
 12 18  1  0
 13 14  2  0
 13 12  1  0
 15  9  2  0
 16 15  1  0
 16 11  2  0
 17 10  1  0
 18  8  1  0
 20 22  2  0
 21 20  1  0
 23 21  1  0
 24 33  2  0
 24 29  1  0
 25 21  1  0
 25 29  1  0
 26 25  1  0
 27 28  1  0
 27 26  1  0
 28 24  1  0
 29 30  2  0
 30 31  1  0
 32 31  2  0
 33 32  1  0
 34  8  1  0
 34 35  1  0
 34 44  1  0
 35 38  1  0
 36 40  1  0
 36 35  1  0
 37 36  2  0
 40 39  1  0
 42 40  1  0
 42 43  1  0
 42 41  1  0
 44 47  1  1
 44 45  1  0
 46 44  1  0
 48  5  1  0
 49 48  1  0
 49 50  1  0
 50 52  1  0
 50 53  1  0
 50 51  1  0
 54 92  1  0
 54 49  1  0
 54 55  1  0
 55 61  1  0
 56 61  1  0
 57 58  1  0
 57 56  1  0
 59 58  1  0
 59 66  1  0
 59 60  1  0
 61 60  1  0
 62 55  2  0
 63 64  2  0
 64 83  1  0
 65 64  1  0
 65 68  1  0
 66 63  1  0
 66 67  1  0
 67 65  2  0
 68 69  1  0
 69 70  2  0
 71 74  1  0
 71 70  1  0
 72 71  2  0
 73 72  1  0
 73 68  2  0
 74 75  1  0
 75 76  1  0
 76 77  2  0
 78 77  1  0
 78 82  1  0
 79 78  2  0
 80 75  2  0
 80 79  1  0
 81 80  1  0
 83 84  1  0
 84 87  1  0
 84 86  1  0
 85 83  2  0
 88 89  1  0
 88 63  1  0
 90 88  1  0
 91 92  1  0
M  ISO  4   6 101   7 101  54 100  55 100
M  END
>  <TORSDO>  (39) 
F 21

>  <SCORE>  (39) 
-15.728

>  <name>  (39) 
38

>  <ligand_id>  (39) 
38

>  <original_smiles>  (39) 
[H]c1c([H])c([H])c2c(c1[H])C([H])([H])C([H])([H])C([H])([H])C2([H])N([H])C(=O)C1([H])N(C(=O)C([H])(N([H])C(=O)C([H])(N([H])C([H])([H])[H])C([H])([H])[H])C(C([H])([H])[H])(C([H])([H])[H])C([H])([H])[H])C([H])([H])c2c([H])c(Oc3c([H])c([H])c(C([H])([H])C([H])(C([H])(C(=O)N4C([H])([H])C([H])([H])C([H])([H])C([H])(n5nc(-c6c([H])c([H])c(Oc7c([H])c([H])c(F)c([H])c7F)c([H])c6[H])c(C(=O)N([H])[H])c5N([H])[H])C4([H])[H])C([H])([H])C([H])([H])[H])[N+]([H])([H])[H])c([H])c3[H])c([H])c([H])c2C1([H])[H]

>  <smiles>  (39) 
[H]c1c([H])c([H])c2c(c1[H])C([H])([H])C([H])([H])C([H])([H])C2([H])N([H])C(=O)C1([H])N(C(=O)C([H])(N([H])C(=O)C([H])(N([H])C([H])([H])[H])C([H])([H])[H])C(C([H])([H])[H])(C([H])([H])[H])C([H])([H])[H])C([H])([H])c2c([H])c(Oc3c([H])c([H])c(C([H])([H])C([H])(C([H])(C(=O)N4C([H])([H])C([H])([H])C([H])([H])C([H])(n5nc(-c6c([H])c([H])c(Oc7c([H])c([H])c(F)c([H])c7F)c([H])c6[H])c(C(=O)N([H])[H])c5N([H])[H])C4([H])[H])C([H])([H])C([H])([H])[H])[N+]([H])([H])[H])c([H])c3[H])c([H])c([H])c2C1([H])[H]

$$$$
39:0:0
     RDKit          3D

 92100  0  0  1  0  0  0  0  0999 V2000
  -29.1730  -20.6550   20.8410 C   0  0  0  0  0  2  0  0  0  0  0  0
  -29.1430  -19.7950   18.6760 C   0  0  0  0  0  2  0  0  0  0  0  0
  -29.0080  -19.2010   20.1150 C   0  0  0  0  0  3  0  0  0  0  0  0
  -28.4930  -21.8470   19.9740 C   0  0  0  0  0  3  0  0  0  0  0  0
  -28.7540  -21.2660   18.6250 N   0  0  0  0  0  4  0  0  0  0  0  0
  -27.9370  -21.3790   18.0460 H   0  0  0  0  0  0  0  0  0  0  0  0
  -29.5060  -21.7660   18.1780 H   0  0  0  0  0  0  0  0  0  0  0  0
  -28.8090  -23.5070   20.1880 C   0  0  0  0  0  3  0  0  0  0  0  0
  -27.8230  -24.8240   19.8000 C   0  0  0  0  0  3  0  0  0  0  0  0
  -28.0650  -26.3370   20.1020 O   0  0  0  0  0  0  0  0  0  0  0  0
  -24.4520  -31.9400   23.2510 C   0  0  0  0  0  0  0  0  0  0  0  0
  -27.0000  -27.3120   20.0700 C   0  0  0  0  0  0  0  0  0  0  0  0
  -23.2280  -30.5690   21.6100 C   0  0  0  0  0  3  0  0  0  0  0  0
  -24.6570  -29.0370   20.1210 C   0  0  0  0  0  0  0  0  0  0  0  0
  -25.7750  -30.8590   21.3960 C   0  0  0  0  0  2  0  0  0  0  0  0
  -25.8460  -29.4810   20.7130 C   0  0  0  0  0  0  0  0  0  0  0  0
  -27.0170  -28.6350   20.6710 C   0  0  0  0  0  3  0  0  0  0  0  0
  -25.7830  -26.9710   19.4390 C   0  0  0  0  0  3  0  0  0  0  0  0
  -24.6380  -27.7960   19.4680 C   0  0  0  0  0  3  0  0  0  0  0  0
  -23.4240  -29.9220   20.2130 C   0  0  0  0  0  2  0  0  0  0  0  0
  -24.5060  -31.1440   22.1400 N   0  0  0  0  0  0  0  0  0  0  0  0
  -23.3750  -32.2050   23.8070 O   0  0  0  0  0  0  0  0  0  0  0  0
  -22.5770  -29.5370   22.5650 C   0  0  0  0  0  0  0  0  0  0  0  0
  -21.2540  -29.3350   22.4410 N   0  0  0  0  0  0  0  0  0  0  0  0
  -23.2670  -28.9200   23.3820 O   0  0  0  0  0  0  0  0  0  0  0  0
  -20.7530  -29.8840   21.7570 H   0  0  0  0  0  0  0  0  0  0  0  0
  -17.9040  -28.0440   22.9370 C   0  0  0  0  0  0  0  0  0  0  0  0
  -20.4570  -28.3720   23.2050 C   0  0  0  0  0  3  0  0  0  0  0  0
  -20.5950  -26.9460   22.6240 C   0  0  0  0  0  2  0  0  0  0  0  0
  -19.5020  -26.6000   21.6080 C   0  0  0  0  0  2  0  0  0  0  0  0
  -18.1170  -26.7040   22.2520 C   0  0  0  0  0  2  0  0  0  0  0  0
  -19.0030  -28.8340   23.3710 C   0  0  0  0  0  0  0  0  0  0  0  0
  -18.7500  -30.0850   23.9730 C   0  0  0  0  0  3  0  0  0  0  0  0
  -17.4320  -30.5480   24.1450 C   0  0  0  0  0  3  0  0  0  0  0  0
  -16.3490  -29.7560   23.7260 C   0  0  0  0  0  3  0  0  0  0  0  0
  -16.5860  -28.5060   23.1280 C   0  0  0  0  0  3  0  0  0  0  0  0
  -25.7380  -32.5740   23.8640 C   0  0  0  0  0  3  0  0  0  0  0  0
  -25.4410  -33.9820   24.1700 N   0  0  0  0  0  0  0  0  0  0  0  0
  -25.7610  -35.0200   23.3850 C   0  0  0  0  0  0  0  0  0  0  0  0
  -26.4010  -34.8910   22.3380 O   0  0  0  0  0  0  0  0  0  0  0  0
  -24.8700  -34.1560   24.9840 H   0  0  0  0  0  0  0  0  0  0  0  0
  -24.0250  -36.8130   23.0580 C   0  0  0  0  0  1  0  0  0  0  0  0
  -25.2960  -36.4210   23.8290 C   0  0  0  0  0  3  0  0  0  0  0  0
  -27.4590  -37.3250   24.5620 C   0  0  0  0  0  1  0  0  0  0  0  0
  -26.3260  -37.4670   23.6500 N   0  0  0  0  0  0  0  0  0  0  0  0
  -25.9270  -38.3930   23.7830 H   0  0  0  0  0  0  0  0  0  0  0  0
  -26.2410  -31.8240   25.1590 C   0  0  1  0  0  0  0  0  0  0  0  0
  -25.1400  -31.6170   26.2250 C   0  0  0  0  0  1  0  0  0  0  0  0
  -26.8150  -30.4340   24.8020 C   0  0  0  0  0  1  0  0  0  0  0  0
  -27.3950  -32.6220   25.8100 C   0  0  0  0  0  1  0  0  0  0  0  0
  -29.9060  -17.8170   20.5470 C   0  0  0  0  0  3  0  0  0  0  0  0
  -30.2600  -15.1390   19.9430 C   0  0  0  0  0  0  0  0  0  0  0  0
  -30.0880  -12.8390   18.8870 C   0  0  0  0  0  2  0  0  0  0  0  0
  -29.0610  -12.8350   17.7330 C   0  0  0  0  0  2  0  0  0  0  0  0
  -27.6410  -12.5760   18.2700 C   0  0  0  0  0  2  0  0  0  0  0  0
  -27.3150  -13.4380   19.5170 C   0  0  0  0  0  3  0  0  0  0  0  0
  -28.4560  -13.4200   20.5560 C   0  0  0  0  0  2  0  0  0  0  0  0
  -29.6650  -13.8810   19.8660 N   0  0  0  0  0  0  0  0  0  0  0  0
  -31.4370  -15.2250   19.5770 O   0  0  0  0  0  0  0  0  0  0  0  0
  -29.5060  -16.3060   20.2600 N   0  0  0  0  0  0  0  0  0  0  0  0
  -28.5340  -16.1030   20.4420 H   0  0  0  0  0  0  0  0  0  0  0  0
  -24.9870  -13.9310   20.4580 C   0  0  0  0  0  0  0  0  0  0  0  0
  -23.9700  -13.1170   20.8730 C   0  0  0  0  0  0  0  0  0  0  0  0
  -24.4590  -11.7800   20.7500 C   0  0  0  0  0  0  0  0  0  0  0  0
  -26.0260  -13.0880   20.1030 N   0  0  0  0  0  0  0  0  0  0  0  0
  -25.7230  -11.7870   20.3450 N   0  0  0  0  0  0  0  0  0  0  0  0
  -23.7730  -10.4940   20.9380 C   0  0  0  0  0  0  0  0  0  0  0  0
  -24.2280   -9.5440   21.8800 C   0  0  0  0  0  3  0  0  0  0  0  0
  -23.5390   -8.3250   22.0570 C   0  0  0  0  0  3  0  0  0  0  0  0
  -22.3810   -8.0460   21.2920 C   0  0  0  0  0  0  0  0  0  0  0  0
  -21.9460   -8.9860   20.3400 C   0  0  0  0  0  3  0  0  0  0  0  0
  -22.6370  -10.1960   20.1620 C   0  0  0  0  0  3  0  0  0  0  0  0
  -21.6630   -6.8780   21.3770 O   0  0  0  0  0  0  0  0  0  0  0  0
  -21.5590   -6.1830   22.5560 C   0  0  0  0  0  0  0  0  0  0  0  0
  -21.0030   -6.7630   23.7160 C   0  0  0  0  0  3  0  0  0  0  0  0
  -20.8490   -5.9910   24.8860 C   0  0  0  0  0  3  0  0  0  0  0  0
  -21.2420   -4.6400   24.8930 C   0  0  0  0  0  0  0  0  0  0  0  0
  -21.7910   -4.0580   23.7360 C   0  0  0  0  0  3  0  0  0  0  0  0
  -21.9450   -4.8280   22.5700 C   0  0  0  0  0  0  0  0  0  0  0  0
  -22.4550   -4.2570   21.4520 F   0  0  0  0  0  0  0  0  0  0  0  0
  -21.0880   -3.8950   26.0140 F   0  0  0  0  0  0  0  0  0  0  0  0
  -22.5870  -13.5510   21.2640 C   0  0  0  0  0  0  0  0  0  0  0  0
  -21.9450  -12.8120   22.1610 N   0  0  0  0  0  0  0  0  0  0  0  0
  -22.0880  -14.5800   20.8080 O   0  0  0  0  0  0  0  0  0  0  0  0
  -22.3640  -11.9790   22.5490 H   0  0  0  0  0  0  0  0  0  0  0  0
  -21.0210  -13.0830   22.4670 H   0  0  0  0  0  0  0  0  0  0  0  0
  -25.1070  -15.3110   20.3250 N   0  0  0  0  0  0  0  0  0  0  0  0
  -24.3290  -15.9360   20.5150 H   0  0  0  0  0  0  0  0  0  0  0  0
  -25.9000  -15.7850   19.9150 H   0  0  0  0  0  0  0  0  0  0  0  0
  -30.1450  -17.9550   22.0760 C   0  0  0  0  0  2  0  0  0  0  0  0
  -31.1530  -17.0960   24.2620 C   0  0  0  0  0  1  0  0  0  0  0  0
  -30.9010  -16.8110   22.7760 C   0  0  0  0  0  2  0  0  0  0  0  0
  2  3  1  0
  3 51  1  0
  3  1  1  0
  4  8  1  0
  4  1  1  0
  5  2  1  0
  5  4  1  0
  6  5  1  0
  7  5  1  0
  9 10  1  0
  9  8  2  0
 11 22  2  0
 12 10  1  0
 12 17  1  0
 13 21  1  0
 13 23  1  0
 14 20  1  0
 14 16  1  0
 15 21  1  0
 16 15  1  0
 17 16  2  0
 18 19  1  0
 18 12  2  0
 19 14  2  0
 20 13  1  0
 21 11  1  0
 23 25  2  0
 24 23  1  0
 26 24  1  0
 27 36  2  0
 27 32  1  0
 28 24  1  0
 28 32  1  0
 29 28  1  0
 30 31  1  0
 30 29  1  0
 31 27  1  0
 32 33  2  0
 33 34  1  0
 35 34  2  0
 36 35  1  0
 37 11  1  0
 37 38  1  0
 37 47  1  0
 38 41  1  0
 39 43  1  0
 39 38  1  0
 40 39  2  0
 43 42  1  0
 45 46  1  0
 45 43  1  0
 45 44  1  0
 47 50  1  1
 47 48  1  0
 49 47  1  0
 51 90  1  0
 52 60  1  0
 53 58  1  0
 54 55  1  0
 54 53  1  0
 56 55  1  0
 56 65  1  0
 56 57  1  0
 58 52  1  0
 58 57  1  0
 59 52  2  0
 60 61  1  0
 60 51  1  0
 62 63  2  0
 63 82  1  0
 64 63  1  0
 64 67  1  0
 65 66  1  0
 65 62  1  0
 66 64  2  0
 67 68  1  0
 68 69  2  0
 70 73  1  0
 70 69  1  0
 71 70  2  0
 72 71  1  0
 72 67  2  0
 73 74  1  0
 74 79  2  0
 74 75  1  0
 75 76  2  0
 76 77  1  0
 77 81  1  0
 78 77  2  0
 79 78  1  0
 80 79  1  0
 82 83  1  0
 83 86  1  0
 83 85  1  0
 84 82  2  0
 87 62  1  0
 87 88  1  0
 89 87  1  0
 90 92  1  0
 92 91  1  0
M  ISO  4   9 101  10 101  52 100  60 100
M  END
>  <TORSDO>  (40) 
F 21

>  <SCORE>  (40) 
-11.467

>  <name>  (40) 
39

>  <ligand_id>  (40) 
39

>  <original_smiles>  (40) 
[H]c1c([H])c([H])c2c(c1[H])C([H])([H])C([H])([H])C([H])([H])C2([H])N([H])C(=O)C1([H])N(C(=O)C([H])(N([H])C(=O)C([H])(N([H])C([H])([H])[H])C([H])([H])[H])C(C([H])([H])[H])(C([H])([H])[H])C([H])([H])[H])C([H])([H])c2c([H])c(OC([H])([H])C([H])([H])C3([H])C([H])([H])C([H])(C([H])(N([H])C(=O)N4C([H])([H])C([H])([H])C([H])([H])C([H])(n5nc(-c6c([H])c([H])c(Oc7c([H])c([H])c(F)c([H])c7F)c([H])c6[H])c(C(=O)N([H])[H])c5N([H])[H])C4([H])[H])C([H])([H])C([H])([H])C([H])([H])[H])C([H])([H])[N+]3([H])[H])c([H])c([H])c2C1([H])[H]

>  <smiles>  (40) 
[H]c1c([H])c([H])c2c(c1[H])C([H])([H])C([H])([H])C([H])([H])C2([H])N([H])C(=O)C1([H])N(C(=O)C([H])(N([H])C(=O)C([H])(N([H])C([H])([H])[H])C([H])([H])[H])C(C([H])([H])[H])(C([H])([H])[H])C([H])([H])[H])C([H])([H])c2c([H])c(OC([H])([H])C([H])([H])C3([H])C([H])([H])C([H])(C([H])(N([H])C(=O)N4C([H])([H])C([H])([H])C([H])([H])C([H])(n5nc(-c6c([H])c([H])c(Oc7c([H])c([H])c(F)c([H])c7F)c([H])c6[H])c(C(=O)N([H])[H])c5N([H])[H])C4([H])[H])C([H])([H])C([H])([H])C([H])([H])[H])C([H])([H])[N+]3([H])[H])c([H])c([H])c2C1([H])[H]

$$$$
40:0:0
     RDKit          3D

 90 98  0  0  1  0  0  0  0  0999 V2000
  -28.2950  -21.4440   21.0200 C   0  0  0  0  0  3  0  0  0  0  0  0
  -30.2400  -22.3070   19.8950 C   0  0  0  0  0  3  0  0  0  0  0  0
  -27.8290  -22.7810   21.1850 C   0  0  0  0  0  3  0  0  0  0  0  0
  -29.7760  -23.6440   20.0610 C   0  0  0  0  0  3  0  0  0  0  0  0
  -29.5310  -21.1750   20.3850 C   0  0  0  0  0  0  0  0  0  0  0  0
  -28.5590  -23.9160   20.7270 C   0  0  0  0  0  0  0  0  0  0  0  0
  -30.1890  -19.7580   20.2580 C   0  0  0  0  0  2  0  0  0  0  0  0
  -29.4700  -18.3970   20.6530 C   0  0  0  0  0  2  0  0  0  0  0  0
  -31.2740  -17.3220   22.1420 C   0  0  0  0  0  1  0  0  0  0  0  0
  -30.4690  -17.1650   20.8350 C   0  0  0  0  0  3  0  0  0  0  0  0
  -30.6110  -14.6420   20.4340 C   0  0  0  0  0  0  0  0  0  0  0  0
  -30.3390  -12.4210   19.3680 C   0  0  0  0  0  2  0  0  0  0  0  0
  -29.4060  -12.5580   18.1480 C   0  0  0  0  0  2  0  0  0  0  0  0
  -27.9330  -12.4050   18.5750 C   0  0  0  0  0  2  0  0  0  0  0  0
  -27.5750  -13.2690   19.8160 C   0  0  0  0  0  3  0  0  0  0  0  0
  -28.6330  -13.1360   20.9330 C   0  0  0  0  0  2  0  0  0  0  0  0
  -29.9400  -13.4540   20.3450 N   0  0  0  0  0  0  0  0  0  0  0  0
  -31.7760  -14.7410   20.0430 O   0  0  0  0  0  0  0  0  0  0  0  0
  -29.9110  -15.7650   20.7940 N   0  0  0  0  0  0  0  0  0  0  0  0
  -28.9410  -15.6380   21.0450 H   0  0  0  0  0  0  0  0  0  0  0  0
  -25.1810  -13.8520   20.5390 C   0  0  0  0  0  0  0  0  0  0  0  0
  -24.1180  -13.0720   20.9060 C   0  0  0  0  0  0  0  0  0  0  0  0
  -24.5870  -11.7230   20.8740 C   0  0  0  0  0  0  0  0  0  0  0  0
  -26.2300  -12.9770   20.3030 N   0  0  0  0  0  0  0  0  0  0  0  0
  -25.8780  -11.6920   20.5660 N   0  0  0  0  0  0  0  0  0  0  0  0
  -23.8660  -10.4570   21.0610 C   0  0  0  0  0  0  0  0  0  0  0  0
  -24.2980   -9.4920   21.9970 C   0  0  0  0  0  3  0  0  0  0  0  0
  -23.5770   -8.2910   22.1730 C   0  0  0  0  0  3  0  0  0  0  0  0
  -22.4090   -8.0470   21.4120 C   0  0  0  0  0  0  0  0  0  0  0  0
  -21.9960   -9.0010   20.4640 C   0  0  0  0  0  3  0  0  0  0  0  0
  -22.7180  -10.1930   20.2870 C   0  0  0  0  0  3  0  0  0  0  0  0
  -21.6580   -6.8990   21.4960 O   0  0  0  0  0  0  0  0  0  0  0  0
  -21.6110   -6.1550   22.6480 C   0  0  0  0  0  0  0  0  0  0  0  0
  -21.1750   -6.7040   23.8730 C   0  0  0  0  0  3  0  0  0  0  0  0
  -21.0750   -5.8860   25.0150 C   0  0  0  0  0  3  0  0  0  0  0  0
  -21.3980   -4.5180   24.9340 C   0  0  0  0  0  0  0  0  0  0  0  0
  -21.8270   -3.9680   23.7120 C   0  0  0  0  0  3  0  0  0  0  0  0
  -21.9290   -4.7840   22.5720 C   0  0  0  0  0  0  0  0  0  0  0  0
  -22.3220   -4.2440   21.3930 F   0  0  0  0  0  0  0  0  0  0  0  0
  -21.2940   -3.7290   26.0280 F   0  0  0  0  0  0  0  0  0  0  0  0
  -22.7190  -13.5420   21.1790 C   0  0  0  0  0  0  0  0  0  0  0  0
  -21.9930  -12.8380   22.0400 N   0  0  0  0  0  0  0  0  0  0  0  0
  -22.2780  -14.5690   20.6640 O   0  0  0  0  0  0  0  0  0  0  0  0
  -22.3620  -12.0070   22.4770 H   0  0  0  0  0  0  0  0  0  0  0  0
  -21.0530  -13.1340   22.2650 H   0  0  0  0  0  0  0  0  0  0  0  0
  -25.3390  -15.2230   20.3660 N   0  0  0  0  0  0  0  0  0  0  0  0
  -24.5690  -15.8730   20.4780 H   0  0  0  0  0  0  0  0  0  0  0  0
  -26.1850  -15.6690   20.0340 H   0  0  0  0  0  0  0  0  0  0  0  0
  -28.0780  -25.3550   21.1190 C   0  0  0  0  0  2  0  0  0  0  0  0
  -28.3210  -26.5180   20.2530 O   0  0  0  0  0  0  0  0  0  0  0  0
  -24.6070  -31.9120   23.2360 C   0  0  0  0  0  0  0  0  0  0  0  0
  -27.2360  -27.3910   20.1940 C   0  0  0  0  0  0  0  0  0  0  0  0
  -23.4090  -30.5110   21.5920 C   0  0  0  0  0  3  0  0  0  0  0  0
  -24.8690  -28.9690   20.1690 C   0  0  0  0  0  0  0  0  0  0  0  0
  -25.9430  -30.8480   21.4100 C   0  0  0  0  0  2  0  0  0  0  0  0
  -26.0310  -29.4710   20.7670 C   0  0  0  0  0  0  0  0  0  0  0  0
  -27.2250  -28.6920   20.7730 C   0  0  0  0  0  3  0  0  0  0  0  0
  -26.0600  -26.9320   19.5680 C   0  0  0  0  0  3  0  0  0  0  0  0
  -24.8820  -27.7030   19.5590 C   0  0  0  0  0  3  0  0  0  0  0  0
  -23.6270  -29.8350   20.2130 C   0  0  0  0  0  2  0  0  0  0  0  0
  -24.6720  -31.1060   22.1370 N   0  0  0  0  0  0  0  0  0  0  0  0
  -23.5230  -32.1870   23.7710 O   0  0  0  0  0  0  0  0  0  0  0  0
  -22.7470  -29.4930   22.5510 C   0  0  0  0  0  0  0  0  0  0  0  0
  -21.4210  -29.3200   22.4270 N   0  0  0  0  0  0  0  0  0  0  0  0
  -23.4270  -28.8620   23.3650 O   0  0  0  0  0  0  0  0  0  0  0  0
  -20.9340  -29.8800   21.7410 H   0  0  0  0  0  0  0  0  0  0  0  0
  -18.0370  -28.1520   22.9410 C   0  0  0  0  0  0  0  0  0  0  0  0
  -20.5990  -28.3860   23.1980 C   0  0  0  0  0  3  0  0  0  0  0  0
  -20.6840  -26.9570   22.6130 C   0  0  0  0  0  2  0  0  0  0  0  0
  -19.5730  -26.6500   21.6040 C   0  0  0  0  0  2  0  0  0  0  0  0
  -18.1960  -26.8060   22.2560 C   0  0  0  0  0  2  0  0  0  0  0  0
  -19.1660  -28.9020   23.3690 C   0  0  0  0  0  0  0  0  0  0  0  0
  -18.9620  -30.1630   23.9700 C   0  0  0  0  0  3  0  0  0  0  0  0
  -17.6630  -30.6740   24.1480 C   0  0  0  0  0  3  0  0  0  0  0  0
  -16.5490  -29.9220   23.7370 C   0  0  0  0  0  3  0  0  0  0  0  0
  -16.7370  -28.6630   23.1400 C   0  0  0  0  0  3  0  0  0  0  0  0
  -25.8900  -32.5460   23.8610 C   0  0  0  0  0  3  0  0  0  0  0  0
  -26.4010  -31.7780   25.1410 C   0  0  1  0  0  0  0  0  0  0  0  0
  -25.3030  -31.5450   26.2060 C   0  0  0  0  0  1  0  0  0  0  0  0
  -26.9850  -30.4000   24.7550 C   0  0  0  0  0  1  0  0  0  0  0  0
  -27.5510  -32.5730   25.8040 C   0  0  0  0  0  1  0  0  0  0  0  0
  -25.5800  -33.9450   24.1860 N   0  0  0  0  0  0  0  0  0  0  0  0
  -25.9170  -34.9950   23.4240 C   0  0  0  0  0  0  0  0  0  0  0  0
  -26.5910  -34.8870   22.3960 O   0  0  0  0  0  0  0  0  0  0  0  0
  -24.9870  -34.1030   24.9870 H   0  0  0  0  0  0  0  0  0  0  0  0
  -24.1980  -36.7910   23.0490 C   0  0  0  0  0  1  0  0  0  0  0  0
  -25.4280  -36.3850   23.8750 C   0  0  0  0  0  3  0  0  0  0  0  0
  -27.5570  -37.2640   24.7270 C   0  0  0  0  0  1  0  0  0  0  0  0
  -26.4640  -37.4360   23.7710 N   0  0  0  0  0  0  0  0  0  0  0  0
  -26.0590  -38.3560   23.9160 H   0  0  0  0  0  0  0  0  0  0  0  0
  1  3  1  0
  2  4  2  0
  2  5  1  0
  4  6  1  0
  5  1  2  0
  6 49  1  0
  6  3  2  0
  7  5  1  0
  7  8  1  0
  8 10  1  0
 10  9  1  0
 11 19  1  0
 12 17  1  0
 13 14  1  0
 13 12  1  0
 15 14  1  0
 15 24  1  0
 15 16  1  0
 17 11  1  0
 17 16  1  0
 18 11  2  0
 19 10  1  0
 19 20  1  0
 21 22  2  0
 22 41  1  0
 23 22  1  0
 23 26  1  0
 24 21  1  0
 24 25  1  0
 25 23  2  0
 26 27  1  0
 27 28  2  0
 29 32  1  0
 29 28  1  0
 30 29  2  0
 31 30  1  0
 31 26  2  0
 32 33  1  0
 33 34  1  0
 34 35  2  0
 36 35  1  0
 36 40  1  0
 37 36  2  0
 38 33  2  0
 38 37  1  0
 39 38  1  0
 41 42  1  0
 42 45  1  0
 42 44  1  0
 43 41  2  0
 46 47  1  0
 46 21  1  0
 48 46  1  0
 50 49  1  0
 51 62  2  0
 52 50  1  0
 52 57  1  0
 53 61  1  0
 53 63  1  0
 54 60  1  0
 54 56  1  0
 55 61  1  0
 56 57  2  0
 56 55  1  0
 58 52  2  0
 59 58  1  0
 59 54  2  0
 60 53  1  0
 61 51  1  0
 63 65  2  0
 64 63  1  0
 66 64  1  0
 67 76  2  0
 67 72  1  0
 68 64  1  0
 68 72  1  0
 69 68  1  0
 70 71  1  0
 70 69  1  0
 71 67  1  0
 72 73  2  0
 73 74  1  0
 75 74  2  0
 76 75  1  0
 77 51  1  0
 77 82  1  0
 77 78  1  0
 78 81  1  1
 78 79  1  0
 80 78  1  0
 82 85  1  0
 83 87  1  0
 83 82  1  0
 84 83  2  0
 87 86  1  0
 89 87  1  0
 89 90  1  0
 89 88  1  0
M  ISO  4  11 100  19 100  49 101  50 101
M  END
>  <TORSDO>  (41) 
F 20

>  <SCORE>  (41) 
-13.787

>  <name>  (41) 
40

>  <ligand_id>  (41) 
40

>  <original_smiles>  (41) 
[H]c1c([H])c([H])c2c(c1[H])C([H])([H])C([H])([H])C([H])([H])C2([H])N([H])C(=O)C1([H])N(C(=O)C([H])(N([H])C(=O)C([H])(N([H])C([H])([H])[H])C([H])([H])[H])C(C([H])([H])[H])(C([H])([H])[H])C([H])([H])[H])C([H])([H])c2c([H])c(OC([H])([H])c3c([H])c([H])c(C([H])([H])C([H])([H])C([H])(N([H])C(=O)N4C([H])([H])C([H])([H])C([H])([H])C([H])(n5nc(-c6c([H])c([H])c(Oc7c([H])c([H])c(F)c([H])c7F)c([H])c6[H])c(C(=O)N([H])[H])c5N([H])[H])C4([H])[H])C([H])([H])[H])c([H])c3[H])c([H])c([H])c2C1([H])[H]

>  <smiles>  (41) 
[H]c1c([H])c([H])c2c(c1[H])C([H])([H])C([H])([H])C([H])([H])C2([H])N([H])C(=O)C1([H])N(C(=O)C([H])(N([H])C(=O)C([H])(N([H])C([H])([H])[H])C([H])([H])[H])C(C([H])([H])[H])(C([H])([H])[H])C([H])([H])[H])C([H])([H])c2c([H])c(OC([H])([H])c3c([H])c([H])c(C([H])([H])C([H])([H])C([H])(N([H])C(=O)N4C([H])([H])C([H])([H])C([H])([H])C([H])(n5nc(-c6c([H])c([H])c(Oc7c([H])c([H])c(F)c([H])c7F)c([H])c6[H])c(C(=O)N([H])[H])c5N([H])[H])C4([H])[H])C([H])([H])[H])c([H])c3[H])c([H])c([H])c2C1([H])[H]

$$$$
41:0:0
     RDKit          3D

 90 98  0  0  1  0  0  0  0  0999 V2000
  -29.4610  -20.5960   21.4700 C   0  0  0  0  0  2  0  0  0  0  0  0
  -28.7600  -22.0900   21.4880 C   0  0  0  0  0  2  0  0  0  0  0  0
  -28.3280  -21.8090   19.1580 C   0  0  0  0  0  2  0  0  0  0  0  0
  -29.0540  -19.4970   20.3650 C   0  0  0  0  0  3  0  0  0  0  0  0
  -28.7320  -23.0160   20.1740 C   0  0  0  0  0  3  0  0  0  0  0  0
  -29.0840  -20.4370   19.1550 N   0  0  0  0  0  4  0  0  0  0  0  0
  -30.0540  -20.6210   18.9530 H   0  0  0  0  0  0  0  0  0  0  0  0
  -28.7340  -19.9100   18.3720 H   0  0  0  0  0  0  0  0  0  0  0  0
  -29.5700  -16.5950   20.4240 C   0  0  0  0  0  3  0  0  0  0  0  0
  -29.8920  -18.0070   20.2640 C   0  0  0  0  0  0  0  0  0  0  0  0
  -30.4240  -15.2530   20.2650 C   0  0  0  0  0  0  0  0  0  0  0  0
  -30.3830  -12.8380   19.3880 C   0  0  0  0  0  2  0  0  0  0  0  0
  -29.4510  -12.7040   18.1590 C   0  0  0  0  0  2  0  0  0  0  0  0
  -28.0010  -12.4380   18.6060 C   0  0  0  0  0  2  0  0  0  0  0  0
  -27.5640  -13.3830   19.7530 C   0  0  0  0  0  3  0  0  0  0  0  0
  -28.6220  -13.4800   20.8700 C   0  0  0  0  0  2  0  0  0  0  0  0
  -29.8700  -13.9520   20.2550 N   0  0  0  0  0  0  0  0  0  0  0  0
  -31.6320  -15.2750   19.9860 O   0  0  0  0  0  0  0  0  0  0  0  0
  -25.1980  -13.9230   20.5480 C   0  0  0  0  0  0  0  0  0  0  0  0
  -24.1450  -13.1360   20.9210 C   0  0  0  0  0  0  0  0  0  0  0  0
  -24.6160  -11.7890   20.8590 C   0  0  0  0  0  0  0  0  0  0  0  0
  -26.2410  -13.0570   20.2720 N   0  0  0  0  0  0  0  0  0  0  0  0
  -25.9030  -11.7660   20.5270 N   0  0  0  0  0  0  0  0  0  0  0  0
  -23.8950  -10.5210   21.0390 C   0  0  0  0  0  0  0  0  0  0  0  0
  -24.3240   -9.5550   21.9730 C   0  0  0  0  0  3  0  0  0  0  0  0
  -23.6040   -8.3510   22.1420 C   0  0  0  0  0  3  0  0  0  0  0  0
  -22.4390   -8.1090   21.3770 C   0  0  0  0  0  0  0  0  0  0  0  0
  -22.0280   -9.0650   20.4330 C   0  0  0  0  0  3  0  0  0  0  0  0
  -22.7480  -10.2580   20.2620 C   0  0  0  0  0  3  0  0  0  0  0  0
  -21.6900   -6.9600   21.4540 O   0  0  0  0  0  0  0  0  0  0  0  0
  -21.6080   -6.2310   22.6130 C   0  0  0  0  0  0  0  0  0  0  0  0
  -21.1020   -6.7880   23.8080 C   0  0  0  0  0  3  0  0  0  0  0  0
  -20.9710   -5.9830   24.9580 C   0  0  0  0  0  3  0  0  0  0  0  0
  -21.3340   -4.6240   24.9120 C   0  0  0  0  0  0  0  0  0  0  0  0
  -21.8310   -4.0680   23.7210 C   0  0  0  0  0  3  0  0  0  0  0  0
  -21.9670   -4.8700   22.5740 C   0  0  0  0  0  0  0  0  0  0  0  0
  -22.4280   -4.3230   21.4220 F   0  0  0  0  0  0  0  0  0  0  0  0
  -21.1990   -3.8500   26.0140 F   0  0  0  0  0  0  0  0  0  0  0  0
  -22.7500  -13.6040   21.2170 C   0  0  0  0  0  0  0  0  0  0  0  0
  -22.0340  -12.8960   22.0830 N   0  0  0  0  0  0  0  0  0  0  0  0
  -22.3040  -14.6360   20.7160 O   0  0  0  0  0  0  0  0  0  0  0  0
  -22.4110  -12.0650   22.5170 H   0  0  0  0  0  0  0  0  0  0  0  0
  -21.1000  -13.1970   22.3230 H   0  0  0  0  0  0  0  0  0  0  0  0
  -25.3490  -15.2980   20.3920 N   0  0  0  0  0  0  0  0  0  0  0  0
  -24.5640  -15.9310   20.5040 H   0  0  0  0  0  0  0  0  0  0  0  0
  -26.1680  -15.7490   20.0060 H   0  0  0  0  0  0  0  0  0  0  0  0
  -31.1480  -18.3390   19.9370 O   0  0  0  0  0  0  0  0  0  0  0  0
  -31.6560  -17.5360   19.8880 H   0  0  0  0  0  0  0  0  0  0  0  0
  -27.8310  -24.5250   20.1040 C   0  0  0  0  0  2  0  0  0  0  0  0
  -28.1460  -26.0870   20.2990 O   0  0  0  0  0  0  0  0  0  0  0  0
  -24.6090  -31.9570   23.2550 C   0  0  0  0  0  0  0  0  0  0  0  0
  -27.1310  -27.1440   20.2300 C   0  0  0  0  0  0  0  0  0  0  0  0
  -23.4010  -30.5730   21.6180 C   0  0  0  0  0  3  0  0  0  0  0  0
  -24.8340  -28.9770   20.1900 C   0  0  0  0  0  0  0  0  0  0  0  0
  -25.9620  -30.7930   21.4570 C   0  0  0  0  0  2  0  0  0  0  0  0
  -26.0220  -29.3920   20.8040 C   0  0  0  0  0  0  0  0  0  0  0  0
  -27.1690  -28.4950   20.8010 C   0  0  0  0  0  3  0  0  0  0  0  0
  -25.9140  -26.8580   19.5710 C   0  0  0  0  0  3  0  0  0  0  0  0
  -24.7990  -27.7270   19.5550 C   0  0  0  0  0  3  0  0  0  0  0  0
  -23.6190  -29.8960   20.2390 C   0  0  0  0  0  2  0  0  0  0  0  0
  -24.6780  -31.1330   22.1640 N   0  0  0  0  0  0  0  0  0  0  0  0
  -23.5250  -32.2510   23.7820 O   0  0  0  0  0  0  0  0  0  0  0  0
  -22.7100  -29.5730   22.5800 C   0  0  0  0  0  0  0  0  0  0  0  0
  -21.3810  -29.4050   22.4500 N   0  0  0  0  0  0  0  0  0  0  0  0
  -23.3730  -28.9480   23.4130 O   0  0  0  0  0  0  0  0  0  0  0  0
  -20.9000  -29.9580   21.7530 H   0  0  0  0  0  0  0  0  0  0  0  0
  -17.9920  -28.2200   22.9530 C   0  0  0  0  0  0  0  0  0  0  0  0
  -20.5530  -28.4740   23.2210 C   0  0  0  0  0  3  0  0  0  0  0  0
  -20.6470  -27.0390   22.6490 C   0  0  0  0  0  2  0  0  0  0  0  0
  -19.5450  -26.7200   21.6350 C   0  0  0  0  0  2  0  0  0  0  0  0
  -18.1640  -26.8700   22.2770 C   0  0  0  0  0  2  0  0  0  0  0  0
  -19.1130  -28.9800   23.3830 C   0  0  0  0  0  0  0  0  0  0  0  0
  -18.8960  -30.2410   23.9780 C   0  0  0  0  0  3  0  0  0  0  0  0
  -17.5930  -30.7440   24.1480 C   0  0  0  0  0  3  0  0  0  0  0  0
  -16.4870  -29.9820   23.7320 C   0  0  0  0  0  3  0  0  0  0  0  0
  -16.6870  -28.7230   23.1410 C   0  0  0  0  0  3  0  0  0  0  0  0
  -25.8890  -32.5890   23.8830 C   0  0  0  0  0  3  0  0  0  0  0  0
  -26.3910  -31.8200   25.1670 C   0  0  1  0  0  0  0  0  0  0  0  0
  -25.2890  -31.5920   26.2300 C   0  0  0  0  0  1  0  0  0  0  0  0
  -26.9670  -30.4360   24.7900 C   0  0  0  0  0  1  0  0  0  0  0  0
  -27.5430  -32.6090   25.8330 C   0  0  0  0  0  1  0  0  0  0  0  0
  -25.5820  -33.9910   24.2150 N   0  0  0  0  0  0  0  0  0  0  0  0
  -25.8970  -35.0450   23.4510 C   0  0  0  0  0  0  0  0  0  0  0  0
  -26.5390  -34.9400   22.4030 O   0  0  0  0  0  0  0  0  0  0  0  0
  -25.0050  -34.1440   25.0290 H   0  0  0  0  0  0  0  0  0  0  0  0
  -24.1540  -36.8390   23.1590 C   0  0  0  0  0  1  0  0  0  0  0  0
  -25.4250  -36.4360   23.9230 C   0  0  0  0  0  3  0  0  0  0  0  0
  -27.5860  -37.3320   24.6730 C   0  0  0  0  0  1  0  0  0  0  0  0
  -26.4510  -37.4910   23.7680 N   0  0  0  0  0  0  0  0  0  0  0  0
  -26.0470  -38.4110   23.9250 H   0  0  0  0  0  0  0  0  0  0  0  0
  1  2  1  0
  3  5  1  0
  4 10  1  0
  4  1  1  0
  5 49  1  0
  5  2  1  0
  6  3  1  0
  6  4  1  0
  7  6  1  0
  8  6  1  0
 10  9  2  0
 11  9  1  0
 12 17  1  0
 13 14  1  0
 13 12  1  0
 15 14  1  0
 15 22  1  0
 15 16  1  0
 17 11  1  0
 17 16  1  0
 18 11  2  0
 19 20  2  0
 20 39  1  0
 21 20  1  0
 21 24  1  0
 22 23  1  0
 22 19  1  0
 23 21  2  0
 24 25  1  0
 25 26  2  0
 27 30  1  0
 27 26  1  0
 28 27  2  0
 29 28  1  0
 29 24  2  0
 30 31  1  0
 31 32  1  0
 32 33  2  0
 34 33  1  0
 34 38  1  0
 35 34  2  0
 36 31  2  0
 36 35  1  0
 37 36  1  0
 39 40  1  0
 40 43  1  0
 40 42  1  0
 41 39  2  0
 44 45  1  0
 44 19  1  0
 46 44  1  0
 47 10  1  0
 48 47  1  0
 49 50  1  0
 51 62  2  0
 52 50  1  0
 52 57  1  0
 53 61  1  0
 53 63  1  0
 54 60  1  0
 54 56  1  0
 55 61  1  0
 56 55  1  0
 57 56  2  0
 58 52  2  0
 59 58  1  0
 59 54  2  0
 60 53  1  0
 61 51  1  0
 63 65  2  0
 64 63  1  0
 66 64  1  0
 67 76  2  0
 67 72  1  0
 68 64  1  0
 68 72  1  0
 69 68  1  0
 70 71  1  0
 70 69  1  0
 71 67  1  0
 72 73  2  0
 73 74  1  0
 75 74  2  0
 76 75  1  0
 77 51  1  0
 77 82  1  0
 77 78  1  0
 78 81  1  1
 78 79  1  0
 80 78  1  0
 82 85  1  0
 83 87  1  0
 83 82  1  0
 84 83  2  0
 87 86  1  0
 89 87  1  0
 89 90  1  0
 89 88  1  0
M  ISO  4   9 100  11 100  49 101  50 101
M  END
>  <TORSDO>  (42) 
F 19

>  <SCORE>  (42) 
-15.465

>  <name>  (42) 
41

>  <ligand_id>  (42) 
41

>  <original_smiles>  (42) 
[H]OC(=C([H])C(=O)N1C([H])([H])C([H])([H])C([H])([H])C([H])(n2nc(-c3c([H])c([H])c(Oc4c([H])c([H])c(F)c([H])c4F)c([H])c3[H])c(C(=O)N([H])[H])c2N([H])[H])C1([H])[H])C1([H])C([H])([H])C([H])([H])C([H])(C([H])([H])Oc2c([H])c([H])c3c(c2[H])C([H])([H])N(C(=O)C([H])(N([H])C(=O)C([H])(N([H])C([H])([H])[H])C([H])([H])[H])C(C([H])([H])[H])(C([H])([H])[H])C([H])([H])[H])C([H])(C(=O)N([H])C2([H])c4c([H])c([H])c([H])c([H])c4C([H])([H])C([H])([H])C2([H])[H])C3([H])[H])C([H])([H])[N+]1([H])[H]

>  <smiles>  (42) 
[H]OC(=C([H])C(=O)N1C([H])([H])C([H])([H])C([H])([H])C([H])(n2nc(-c3c([H])c([H])c(Oc4c([H])c([H])c(F)c([H])c4F)c([H])c3[H])c(C(=O)N([H])[H])c2N([H])[H])C1([H])[H])C1([H])C([H])([H])C([H])([H])C([H])(C([H])([H])Oc2c([H])c([H])c3c(c2[H])C([H])([H])N(C(=O)C([H])(N([H])C(=O)C([H])(N([H])C([H])([H])[H])C([H])([H])[H])C(C([H])([H])[H])(C([H])([H])[H])C([H])([H])[H])C([H])(C(=O)N([H])C2([H])c4c([H])c([H])c([H])c([H])c4C([H])([H])C([H])([H])C2([H])[H])C3([H])[H])C([H])([H])[N+]1([H])[H]

$$$$
42:0:0
     RDKit          3D

 92100  0  0  1  0  0  0  0  0999 V2000
  -29.8800  -22.3930   22.0520 C   0  0  0  0  0  2  0  0  0  0  0  0
  -29.0770  -22.3760   19.8450 C   0  0  0  0  0  2  0  0  0  0  0  0
  -29.7330  -23.8930   21.6610 C   0  0  0  0  0  3  0  0  0  0  0  0
  -30.1300  -21.6030   20.7610 C   0  0  0  0  0  3  0  0  0  0  0  0
  -29.2160  -23.9490   20.1900 C   0  0  0  0  0  3  0  0  0  0  0  0
  -31.0710  -24.6010   21.8770 C   0  0  0  0  0  3  0  0  0  0  0  0
  -31.2260  -25.8470   21.7560 N   0  0  0  0  0  0  0  0  0  0  0  0
  -30.3680  -26.3200   21.4850 H   0  0  0  0  0  0  0  0  0  0  0  0
  -31.9380  -19.9130   21.2670 C   0  0  0  0  0  1  0  0  0  0  0  0
  -30.4030  -20.0150   21.0950 C   0  0  0  0  0  3  0  0  0  0  0  0
  -29.9010  -18.6770   20.3460 C   0  0  0  0  0  2  0  0  0  0  0  0
  -30.4920  -17.2870   20.9530 C   0  0  0  0  0  2  0  0  0  0  0  0
  -30.5560  -14.7500   20.4290 C   0  0  0  0  0  0  0  0  0  0  0  0
  -30.3070  -12.4920   19.4210 C   0  0  0  0  0  2  0  0  0  0  0  0
  -29.3750  -12.5590   18.1920 C   0  0  0  0  0  2  0  0  0  0  0  0
  -27.9070  -12.3550   18.6230 C   0  0  0  0  0  2  0  0  0  0  0  0
  -27.5110  -13.2370   19.8390 C   0  0  0  0  0  3  0  0  0  0  0  0
  -28.5840  -13.2110   20.9590 C   0  0  0  0  0  2  0  0  0  0  0  0
  -29.8790  -13.5600   20.3540 N   0  0  0  0  0  0  0  0  0  0  0  0
  -31.7350  -14.8060   20.1000 O   0  0  0  0  0  0  0  0  0  0  0  0
  -29.8790  -15.9170   20.7010 N   0  0  0  0  0  0  0  0  0  0  0  0
  -28.8950  -15.8160   20.9050 H   0  0  0  0  0  0  0  0  0  0  0  0
  -25.1010  -13.7500   20.5800 C   0  0  0  0  0  0  0  0  0  0  0  0
  -24.0570  -12.9380   20.9460 C   0  0  0  0  0  0  0  0  0  0  0  0
  -24.5580  -11.6010   20.8980 C   0  0  0  0  0  0  0  0  0  0  0  0
  -26.1710  -12.9030   20.3360 N   0  0  0  0  0  0  0  0  0  0  0  0
  -25.8510  -11.6020   20.5890 N   0  0  0  0  0  0  0  0  0  0  0  0
  -23.8630  -10.3160   21.0800 C   0  0  0  0  0  0  0  0  0  0  0  0
  -24.3250   -9.3530   22.0040 C   0  0  0  0  0  3  0  0  0  0  0  0
  -23.6300   -8.1360   22.1750 C   0  0  0  0  0  3  0  0  0  0  0  0
  -22.4580   -7.8750   21.4260 C   0  0  0  0  0  0  0  0  0  0  0  0
  -22.0160   -8.8290   20.4930 C   0  0  0  0  0  3  0  0  0  0  0  0
  -22.7110  -10.0370   20.3180 C   0  0  0  0  0  3  0  0  0  0  0  0
  -21.7320   -6.7100   21.5070 O   0  0  0  0  0  0  0  0  0  0  0  0
  -21.7050   -5.9570   22.6530 C   0  0  0  0  0  0  0  0  0  0  0  0
  -21.2550   -6.4880   23.8820 C   0  0  0  0  0  3  0  0  0  0  0  0
  -21.1750   -5.6610   25.0200 C   0  0  0  0  0  3  0  0  0  0  0  0
  -21.5390   -4.3030   24.9320 C   0  0  0  0  0  0  0  0  0  0  0  0
  -21.9820   -3.7710   23.7080 C   0  0  0  0  0  3  0  0  0  0  0  0
  -22.0630   -4.5950   22.5720 C   0  0  0  0  0  0  0  0  0  0  0  0
  -22.4690   -4.0740   21.3900 F   0  0  0  0  0  0  0  0  0  0  0  0
  -21.4560   -3.5060   26.0220 F   0  0  0  0  0  0  0  0  0  0  0  0
  -22.6470  -13.3730   21.2230 C   0  0  0  0  0  0  0  0  0  0  0  0
  -21.9410  -12.6510   22.0910 N   0  0  0  0  0  0  0  0  0  0  0  0
  -22.1790  -14.3890   20.7130 O   0  0  0  0  0  0  0  0  0  0  0  0
  -22.3320  -11.8320   22.5280 H   0  0  0  0  0  0  0  0  0  0  0  0
  -20.9970  -12.9270   22.3170 H   0  0  0  0  0  0  0  0  0  0  0  0
  -25.2150  -15.1220   20.4110 N   0  0  0  0  0  0  0  0  0  0  0  0
  -24.4220  -15.7430   20.5290 H   0  0  0  0  0  0  0  0  0  0  0  0
  -26.0390  -15.6000   20.0660 H   0  0  0  0  0  0  0  0  0  0  0  0
  -27.9640  -24.9850   19.9420 C   0  0  0  0  0  2  0  0  0  0  0  0
  -28.1010  -26.4790   20.0440 O   0  0  0  0  0  0  0  0  0  0  0  0
  -24.4700  -31.9560   23.1410 C   0  0  0  0  0  0  0  0  0  0  0  0
  -26.9690  -27.3350   20.0340 C   0  0  0  0  0  0  0  0  0  0  0  0
  -23.2180  -30.5640   21.5350 C   0  0  0  0  0  3  0  0  0  0  0  0
  -24.6120  -28.9830   20.0950 C   0  0  0  0  0  0  0  0  0  0  0  0
  -25.7610  -30.8320   21.3080 C   0  0  0  0  0  2  0  0  0  0  0  0
  -25.8050  -29.4530   20.6570 C   0  0  0  0  0  0  0  0  0  0  0  0
  -26.9770  -28.6410   20.6150 C   0  0  0  0  0  3  0  0  0  0  0  0
  -25.7490  -26.9340   19.4180 C   0  0  0  0  0  3  0  0  0  0  0  0
  -24.5860  -27.7250   19.4720 C   0  0  0  0  0  3  0  0  0  0  0  0
  -23.4000  -29.8970   20.1460 C   0  0  0  0  0  2  0  0  0  0  0  0
  -24.5010  -31.1440   22.0480 N   0  0  0  0  0  0  0  0  0  0  0  0
  -23.4020  -32.2510   23.6950 O   0  0  0  0  0  0  0  0  0  0  0  0
  -22.5510  -29.5680   22.5170 C   0  0  0  0  0  0  0  0  0  0  0  0
  -21.2150  -29.4180   22.4270 N   0  0  0  0  0  0  0  0  0  0  0  0
  -23.2370  -28.9320   23.3150 O   0  0  0  0  0  0  0  0  0  0  0  0
  -20.7150  -30.0030   21.7740 H   0  0  0  0  0  0  0  0  0  0  0  0
  -17.8250  -28.2300   22.9880 C   0  0  0  0  0  0  0  0  0  0  0  0
  -20.3950  -28.4920   23.2220 C   0  0  0  0  0  3  0  0  0  0  0  0
  -20.4830  -27.0490   22.6770 C   0  0  0  0  0  2  0  0  0  0  0  0
  -19.3690  -26.7130   21.6780 C   0  0  0  0  0  2  0  0  0  0  0  0
  -17.9920  -26.8690   22.3350 C   0  0  0  0  0  2  0  0  0  0  0  0
  -18.9530  -28.9890   23.3970 C   0  0  0  0  0  0  0  0  0  0  0  0
  -18.7470  -30.2560   23.9820 C   0  0  0  0  0  3  0  0  0  0  0  0
  -17.4490  -30.7660   24.1570 C   0  0  0  0  0  3  0  0  0  0  0  0
  -16.3340  -30.0060   23.7650 C   0  0  0  0  0  3  0  0  0  0  0  0
  -16.5230  -28.7410   23.1830 C   0  0  0  0  0  3  0  0  0  0  0  0
  -25.7720  -32.5690   23.7410 C   0  0  0  0  0  3  0  0  0  0  0  0
  -25.4930  -33.9690   24.0990 N   0  0  0  0  0  0  0  0  0  0  0  0
  -25.8450  -35.0260   23.3540 C   0  0  0  0  0  0  0  0  0  0  0  0
  -26.5100  -34.9130   22.3200 O   0  0  0  0  0  0  0  0  0  0  0  0
  -24.8780  -34.1190   24.8890 H   0  0  0  0  0  0  0  0  0  0  0  0
  -24.1920  -36.8860   22.9880 C   0  0  0  0  0  1  0  0  0  0  0  0
  -25.3950  -36.4230   23.8230 C   0  0  0  0  0  3  0  0  0  0  0  0
  -27.5410  -37.2310   24.7070 C   0  0  0  0  0  1  0  0  0  0  0  0
  -26.4610  -37.4430   23.7490 N   0  0  0  0  0  0  0  0  0  0  0  0
  -26.0870  -38.3780   23.8900 H   0  0  0  0  0  0  0  0  0  0  0  0
  -26.2960  -31.7760   25.0010 C   0  0  1  0  0  0  0  0  0  0  0  0
  -25.2320  -31.5500   26.1020 C   0  0  0  0  0  1  0  0  0  0  0  0
  -26.8430  -30.3910   24.5930 C   0  0  0  0  0  1  0  0  0  0  0  0
  -27.4820  -32.5340   25.6370 C   0  0  0  0  0  1  0  0  0  0  0  0
  2  5  1  0
  2  4  1  0
  3  6  1  0
  3  1  1  0
  4 10  1  0
  4  1  1  0
  5 51  1  0
  5  3  1  0
  7  6  2  0
  8  7  1  0
 10  9  1  0
 11 12  1  0
 11 10  1  0
 13 21  1  0
 14 19  1  0
 15 16  1  0
 15 14  1  0
 17 16  1  0
 17 26  1  0
 17 18  1  0
 19 13  1  0
 19 18  1  0
 20 13  2  0
 21 22  1  0
 21 12  1  0
 23 24  2  0
 24 43  1  0
 25 24  1  0
 25 28  1  0
 26 23  1  0
 26 27  1  0
 27 25  2  0
 28 29  1  0
 29 30  2  0
 31 34  1  0
 31 30  1  0
 32 31  2  0
 33 32  1  0
 33 28  2  0
 34 35  1  0
 35 36  1  0
 36 37  2  0
 38 37  1  0
 38 42  1  0
 39 38  2  0
 40 35  2  0
 40 39  1  0
 41 40  1  0
 43 44  1  0
 44 47  1  0
 44 46  1  0
 45 43  2  0
 48 49  1  0
 48 23  1  0
 50 48  1  0
 51 52  1  0
 53 64  2  0
 54 52  1  0
 54 59  1  0
 55 63  1  0
 55 65  1  0
 56 62  1  0
 56 58  1  0
 57 63  1  0
 58 57  1  0
 59 58  2  0
 60 61  1  0
 60 54  2  0
 61 56  2  0
 62 55  1  0
 63 53  1  0
 65 67  2  0
 66 65  1  0
 68 66  1  0
 69 78  2  0
 69 74  1  0
 70 66  1  0
 70 74  1  0
 71 70  1  0
 72 73  1  0
 72 71  1  0
 73 69  1  0
 74 75  2  0
 75 76  1  0
 77 76  2  0
 78 77  1  0
 79 53  1  0
 79 80  1  0
 79 89  1  0
 80 83  1  0
 81 85  1  0
 81 80  1  0
 82 81  2  0
 85 84  1  0
 87 85  1  0
 87 88  1  0
 87 86  1  0
 89 92  1  1
 89 90  1  0
 91 89  1  0
M  ISO  4  13 100  21 100  51 101  52 101
M  END
>  <TORSDO>  (43) 
F 21

>  <SCORE>  (43) 
-12.970

>  <name>  (43) 
42

>  <ligand_id>  (43) 
42

>  <original_smiles>  (43) 
[H]N=C([H])C1([H])C([H])([H])C([H])(C([H])(C([H])([H])[H])C([H])([H])C([H])([H])N([H])C(=O)N2C([H])([H])C([H])([H])C([H])([H])C([H])(n3nc(-c4c([H])c([H])c(Oc5c([H])c([H])c(F)c([H])c5F)c([H])c4[H])c(C(=O)N([H])[H])c3N([H])[H])C2([H])[H])C([H])([H])C1([H])C([H])([H])Oc1c([H])c([H])c2c(c1[H])C([H])([H])N(C(=O)C([H])(N([H])C(=O)C([H])(N([H])C([H])([H])[H])C([H])([H])[H])C(C([H])([H])[H])(C([H])([H])[H])C([H])([H])[H])C([H])(C(=O)N([H])C1([H])c3c([H])c([H])c([H])c([H])c3C([H])([H])C([H])([H])C1([H])[H])C2([H])[H]

>  <smiles>  (43) 
[H]N=C([H])C1([H])C([H])([H])C([H])(C([H])(C([H])([H])[H])C([H])([H])C([H])([H])N([H])C(=O)N2C([H])([H])C([H])([H])C([H])([H])C([H])(n3nc(-c4c([H])c([H])c(Oc5c([H])c([H])c(F)c([H])c5F)c([H])c4[H])c(C(=O)N([H])[H])c3N([H])[H])C2([H])[H])C([H])([H])C1([H])C([H])([H])Oc1c([H])c([H])c2c(c1[H])C([H])([H])N(C(=O)C([H])(N([H])C(=O)C([H])(N([H])C([H])([H])[H])C([H])([H])[H])C(C([H])([H])[H])(C([H])([H])[H])C([H])([H])[H])C([H])(C(=O)N([H])C1([H])c3c([H])c([H])c([H])c([H])c3C([H])([H])C([H])([H])C1([H])[H])C2([H])[H]

$$$$
43:0:0
     RDKit          3D

 88 96  0  0  1  0  0  0  0  0999 V2000
  -29.0070  -23.1350   18.9850 C   0  0  0  0  0  2  0  0  0  0  0  0
  -28.5660  -22.3560   20.2030 C   0  0  0  0  0  3  0  0  0  0  0  0
  -29.0420  -23.8600   20.3150 C   0  0  0  0  0  3  0  0  0  0  0  0
  -29.4070  -21.1290   20.6750 C   0  0  0  0  0  0  0  0  0  0  0  0
  -30.1180  -21.2330   21.6770 O   0  0  0  0  0  0  0  0  0  0  0  0
  -29.3710  -19.7490   19.9040 C   0  0  0  0  0  2  0  0  0  0  0  0
  -29.2470  -18.3560   20.6910 C   0  0  0  0  0  3  0  0  0  0  0  0
  -30.1820  -17.1490   20.2250 C   0  0  0  0  0  3  0  0  0  0  0  0
  -30.6010  -14.6240   20.3890 C   0  0  0  0  0  0  0  0  0  0  0  0
  -30.3410  -12.3870   19.3520 C   0  0  0  0  0  2  0  0  0  0  0  0
  -29.4040  -12.5440   18.1340 C   0  0  0  0  0  2  0  0  0  0  0  0
  -27.9310  -12.3960   18.5570 C   0  0  0  0  0  2  0  0  0  0  0  0
  -27.5860  -13.2560   19.8030 C   0  0  0  0  0  3  0  0  0  0  0  0
  -28.6450  -13.1080   20.9220 C   0  0  0  0  0  2  0  0  0  0  0  0
  -29.9540  -13.4180   20.3360 N   0  0  0  0  0  0  0  0  0  0  0  0
  -31.7650  -14.7400   19.9970 O   0  0  0  0  0  0  0  0  0  0  0  0
  -29.8430  -15.7410   20.6460 N   0  0  0  0  0  0  0  0  0  0  0  0
  -28.9000  -15.5710   20.9600 H   0  0  0  0  0  0  0  0  0  0  0  0
  -25.2010  -13.8630   20.5260 C   0  0  0  0  0  0  0  0  0  0  0  0
  -24.1300  -13.0950   20.8970 C   0  0  0  0  0  0  0  0  0  0  0  0
  -24.5870  -11.7420   20.8710 C   0  0  0  0  0  0  0  0  0  0  0  0
  -26.2400  -12.9790   20.2930 N   0  0  0  0  0  0  0  0  0  0  0  0
  -25.8770  -11.6970   20.5640 N   0  0  0  0  0  0  0  0  0  0  0  0
  -23.8530  -10.4830   21.0660 C   0  0  0  0  0  0  0  0  0  0  0  0
  -24.2960   -9.5040   21.9840 C   0  0  0  0  0  3  0  0  0  0  0  0
  -23.5610   -8.3140   22.1690 C   0  0  0  0  0  3  0  0  0  0  0  0
  -22.3680   -8.0940   21.4400 C   0  0  0  0  0  0  0  0  0  0  0  0
  -21.9470   -9.0610   20.5120 C   0  0  0  0  0  3  0  0  0  0  0  0
  -22.6810  -10.2420   20.3220 C   0  0  0  0  0  3  0  0  0  0  0  0
  -21.6060   -6.9540   21.5340 O   0  0  0  0  0  0  0  0  0  0  0  0
  -21.5950   -6.1880   22.6710 C   0  0  0  0  0  0  0  0  0  0  0  0
  -21.2420   -6.7270   23.9280 C   0  0  0  0  0  3  0  0  0  0  0  0
  -21.1770   -5.8910   25.0600 C   0  0  0  0  0  3  0  0  0  0  0  0
  -21.4500   -4.5160   24.9360 C   0  0  0  0  0  0  0  0  0  0  0  0
  -21.7930   -3.9740   23.6850 C   0  0  0  0  0  3  0  0  0  0  0  0
  -21.8630   -4.8100   22.5550 C   0  0  0  0  0  0  0  0  0  0  0  0
  -22.1730   -4.2790   21.3470 F   0  0  0  0  0  0  0  0  0  0  0  0
  -21.3770   -3.7120   26.0230 F   0  0  0  0  0  0  0  0  0  0  0  0
  -22.7370  -13.5800   21.1670 C   0  0  0  0  0  0  0  0  0  0  0  0
  -22.0130  -12.8910   22.0410 N   0  0  0  0  0  0  0  0  0  0  0  0
  -22.3020  -14.6040   20.6410 O   0  0  0  0  0  0  0  0  0  0  0  0
  -22.3770  -12.0600   22.4800 H   0  0  0  0  0  0  0  0  0  0  0  0
  -21.0790  -13.1980   22.2720 H   0  0  0  0  0  0  0  0  0  0  0  0
  -25.3730  -15.2330   20.3450 N   0  0  0  0  0  0  0  0  0  0  0  0
  -24.6110  -15.8950   20.4500 H   0  0  0  0  0  0  0  0  0  0  0  0
  -26.2220  -15.6620   19.9960 H   0  0  0  0  0  0  0  0  0  0  0  0
  -28.0570  -25.0440   20.6330 C   0  0  0  0  0  2  0  0  0  0  0  0
  -28.3180  -26.4400   20.1910 O   0  0  0  0  0  0  0  0  0  0  0  0
  -24.6230  -31.8630   23.2080 C   0  0  0  0  0  0  0  0  0  0  0  0
  -27.2110  -27.3030   20.1530 C   0  0  0  0  0  0  0  0  0  0  0  0
  -23.4070  -30.4620   21.5760 C   0  0  0  0  0  3  0  0  0  0  0  0
  -24.8470  -28.9110   20.1410 C   0  0  0  0  0  0  0  0  0  0  0  0
  -25.9450  -30.7820   21.3780 C   0  0  0  0  0  2  0  0  0  0  0  0
  -26.0200  -29.4040   20.7320 C   0  0  0  0  0  0  0  0  0  0  0  0
  -27.2070  -28.6120   20.7280 C   0  0  0  0  0  3  0  0  0  0  0  0
  -26.0240  -26.8750   19.5210 C   0  0  0  0  0  3  0  0  0  0  0  0
  -24.8530  -27.6530   19.5240 C   0  0  0  0  0  3  0  0  0  0  0  0
  -23.6050  -29.7780   20.1980 C   0  0  0  0  0  2  0  0  0  0  0  0
  -24.6760  -31.0530   22.1090 N   0  0  0  0  0  0  0  0  0  0  0  0
  -23.5440  -32.1400   23.7520 O   0  0  0  0  0  0  0  0  0  0  0  0
  -22.7500  -29.4490   22.5450 C   0  0  0  0  0  0  0  0  0  0  0  0
  -21.4230  -29.2740   22.4290 N   0  0  0  0  0  0  0  0  0  0  0  0
  -23.4350  -28.8210   23.3580 O   0  0  0  0  0  0  0  0  0  0  0  0
  -20.9320  -29.8290   21.7430 H   0  0  0  0  0  0  0  0  0  0  0  0
  -18.0500  -28.0810   22.9540 C   0  0  0  0  0  0  0  0  0  0  0  0
  -20.6090  -28.3380   23.2060 C   0  0  0  0  0  3  0  0  0  0  0  0
  -20.7080  -26.9050   22.6370 C   0  0  0  0  0  2  0  0  0  0  0  0
  -19.6000  -26.5790   21.6310 C   0  0  0  0  0  2  0  0  0  0  0  0
  -18.2210  -26.7280   22.2810 C   0  0  0  0  0  2  0  0  0  0  0  0
  -19.1710  -28.8440   23.3730 C   0  0  0  0  0  0  0  0  0  0  0  0
  -18.9570  -30.1100   23.9610 C   0  0  0  0  0  3  0  0  0  0  0  0
  -17.6530  -30.6130   24.1330 C   0  0  0  0  0  3  0  0  0  0  0  0
  -16.5460  -29.8470   23.7300 C   0  0  0  0  0  3  0  0  0  0  0  0
  -16.7450  -28.5820   23.1460 C   0  0  0  0  0  3  0  0  0  0  0  0
  -25.9130  -32.4950   23.8170 C   0  0  0  0  0  3  0  0  0  0  0  0
  -25.6040  -33.8890   24.1640 N   0  0  0  0  0  0  0  0  0  0  0  0
  -25.9170  -34.9510   23.4110 C   0  0  0  0  0  0  0  0  0  0  0  0
  -26.5710  -34.8610   22.3680 O   0  0  0  0  0  0  0  0  0  0  0  0
  -25.0260  -34.0320   24.9780 H   0  0  0  0  0  0  0  0  0  0  0  0
  -24.1720  -36.7370   23.1030 C   0  0  0  0  0  1  0  0  0  0  0  0
  -25.4280  -36.3320   23.8890 C   0  0  0  0  0  3  0  0  0  0  0  0
  -27.5740  -37.2220   24.6860 C   0  0  0  0  0  1  0  0  0  0  0  0
  -26.4500  -37.3930   23.7680 N   0  0  0  0  0  0  0  0  0  0  0  0
  -26.0430  -38.3100   23.9350 H   0  0  0  0  0  0  0  0  0  0  0  0
  -26.4500  -31.7140   25.0780 C   0  0  1  0  0  0  0  0  0  0  0  0
  -25.3750  -31.4610   26.1610 C   0  0  0  0  0  1  0  0  0  0  0  0
  -27.0370  -30.3430   24.6720 C   0  0  0  0  0  1  0  0  0  0  0  0
  -27.6100  -32.5060   25.7270 C   0  0  0  0  0  1  0  0  0  0  0  0
  1  2  1  0
  1  3  1  0
  2  3  1  0
  2  4  1  0
  3 47  1  0
  4  5  2  0
  6  4  1  0
  6  7  1  0
  8 17  1  0
  8  7  2  0
  9 17  1  0
 10 15  1  0
 11 12  1  0
 11 10  1  0
 13 12  1  0
 13 22  1  0
 13 14  1  0
 15  9  1  0
 15 14  1  0
 16  9  2  0
 17 18  1  0
 19 20  2  0
 20 39  1  0
 21 20  1  0
 21 24  1  0
 22 19  1  0
 22 23  1  0
 23 21  2  0
 24 25  1  0
 25 26  2  0
 27 30  1  0
 27 26  1  0
 28 27  2  0
 29 28  1  0
 29 24  2  0
 30 31  1  0
 31 32  1  0
 32 33  2  0
 34 33  1  0
 34 38  1  0
 35 34  2  0
 36 31  2  0
 36 35  1  0
 37 36  1  0
 39 40  1  0
 40 43  1  0
 40 42  1  0
 41 39  2  0
 44 45  1  0
 44 19  1  0
 46 44  1  0
 48 47  1  0
 49 60  2  0
 50 48  1  0
 50 55  1  0
 51 59  1  0
 51 61  1  0
 52 58  1  0
 52 54  1  0
 53 59  1  0
 54 53  1  0
 55 54  2  0
 56 57  1  0
 56 50  2  0
 57 52  2  0
 58 51  1  0
 59 49  1  0
 61 63  2  0
 62 61  1  0
 64 62  1  0
 65 74  2  0
 65 70  1  0
 66 62  1  0
 66 70  1  0
 67 66  1  0
 68 69  1  0
 68 67  1  0
 69 65  1  0
 70 71  2  0
 71 72  1  0
 73 72  2  0
 74 73  1  0
 75 49  1  0
 75 76  1  0
 75 85  1  0
 76 79  1  0
 77 81  1  0
 77 76  1  0
 78 77  2  0
 81 80  1  0
 83 81  1  0
 83 84  1  0
 83 82  1  0
 85 88  1  1
 85 86  1  0
 87 85  1  0
M  ISO  4   9 100  17 100  47 101  48 101
M  END
>  <TORSDO>  (44) 
F 21

>  <SCORE>  (44) 
-13.308

>  <name>  (44) 
43

>  <ligand_id>  (44) 
43

>  <original_smiles>  (44) 
[H]c1c([H])c([H])c2c(c1[H])C([H])([H])C([H])([H])C([H])([H])C2([H])N([H])C(=O)C1([H])N(C(=O)C([H])(N([H])C(=O)C([H])(N([H])C([H])([H])[H])C([H])([H])[H])C(C([H])([H])[H])(C([H])([H])[H])C([H])([H])[H])C([H])([H])c2c([H])c(OC([H])([H])C3([H])C([H])([H])C3([H])C(=O)C([H])([H])C([H])([H])C([H])([H])N([H])C(=O)N3C([H])([H])C([H])([H])C([H])([H])C([H])(n4nc(-c5c([H])c([H])c(Oc6c([H])c([H])c(F)c([H])c6F)c([H])c5[H])c(C(=O)N([H])[H])c4N([H])[H])C3([H])[H])c([H])c([H])c2C1([H])[H]

>  <smiles>  (44) 
[H]c1c([H])c([H])c2c(c1[H])C([H])([H])C([H])([H])C([H])([H])C2([H])N([H])C(=O)C1([H])N(C(=O)C([H])(N([H])C(=O)C([H])(N([H])C([H])([H])[H])C([H])([H])[H])C(C([H])([H])[H])(C([H])([H])[H])C([H])([H])[H])C([H])([H])c2c([H])c(OC([H])([H])C3([H])C([H])([H])C3([H])C(=O)C([H])([H])C([H])([H])C([H])([H])N([H])C(=O)N3C([H])([H])C([H])([H])C([H])([H])C([H])(n4nc(-c5c([H])c([H])c(Oc6c([H])c([H])c(F)c([H])c6F)c([H])c5[H])c(C(=O)N([H])[H])c4N([H])[H])C3([H])[H])c([H])c([H])c2C1([H])[H]

$$$$
44:0:0
     RDKit          3D

 88 96  0  0  1  0  0  0  0  0999 V2000
  -30.1840  -24.0730   21.8370 C   0  0  0  0  0  2  0  0  0  0  0  0
  -30.4410  -23.1770   20.6130 C   0  0  0  0  0  2  0  0  0  0  0  0
  -28.6890  -24.4290   21.8390 C   0  0  0  0  0  2  0  0  0  0  0  0
  -29.0540  -22.8320   20.0230 C   0  0  0  0  0  3  0  0  0  0  0  0
  -28.2140  -24.3900   20.3750 C   0  0  0  0  0  3  0  0  0  0  0  0
  -28.7980  -21.1780   20.5090 C   0  0  0  0  0  0  0  0  0  0  0  0
  -28.1020  -21.0420   21.5180 O   0  0  0  0  0  0  0  0  0  0  0  0
  -29.3430  -19.6770   19.8200 C   0  0  0  0  0  2  0  0  0  0  0  0
  -29.9100  -18.1380   20.5330 C   0  0  0  0  0  2  0  0  0  0  0  0
  -30.4700  -15.2820   20.0770 C   0  0  0  0  0  0  0  0  0  0  0  0
  -30.3970  -12.8690   19.1490 C   0  0  0  0  0  2  0  0  0  0  0  0
  -29.4330  -12.6990   17.9480 C   0  0  0  0  0  2  0  0  0  0  0  0
  -27.9920  -12.4490   18.4320 C   0  0  0  0  0  2  0  0  0  0  0  0
  -27.5910  -13.3970   19.5880 C   0  0  0  0  0  3  0  0  0  0  0  0
  -28.6770  -13.5030   20.6780 C   0  0  0  0  0  2  0  0  0  0  0  0
  -29.8890  -13.9920   20.0070 N   0  0  0  0  0  0  0  0  0  0  0  0
  -31.6920  -15.2890   19.8730 O   0  0  0  0  0  0  0  0  0  0  0  0
  -29.6930  -16.5300   20.1760 N   0  0  0  0  0  0  0  0  0  0  0  0
  -28.7090  -16.3020   20.1710 H   0  0  0  0  0  0  0  0  0  0  0  0
  -25.2470  -13.9700   20.4120 C   0  0  0  0  0  0  0  0  0  0  0  0
  -24.1920  -13.1980   20.8120 C   0  0  0  0  0  0  0  0  0  0  0  0
  -24.6520  -11.8460   20.7680 C   0  0  0  0  0  0  0  0  0  0  0  0
  -26.2770  -13.0890   20.1380 N   0  0  0  0  0  0  0  0  0  0  0  0
  -25.9350  -11.8060   20.4200 N   0  0  0  0  0  0  0  0  0  0  0  0
  -23.9240  -10.5880   20.9760 C   0  0  0  0  0  0  0  0  0  0  0  0
  -24.3730   -9.6180   21.9010 C   0  0  0  0  0  3  0  0  0  0  0  0
  -23.6430   -8.4260   22.0980 C   0  0  0  0  0  3  0  0  0  0  0  0
  -22.4500   -8.1960   21.3730 C   0  0  0  0  0  0  0  0  0  0  0  0
  -22.0220   -9.1520   20.4360 C   0  0  0  0  0  3  0  0  0  0  0  0
  -22.7520  -10.3350   20.2370 C   0  0  0  0  0  3  0  0  0  0  0  0
  -21.6910   -7.0550   21.4790 O   0  0  0  0  0  0  0  0  0  0  0  0
  -21.6650   -6.3130   22.6330 C   0  0  0  0  0  0  0  0  0  0  0  0
  -21.2790   -6.8730   23.8700 C   0  0  0  0  0  3  0  0  0  0  0  0
  -21.1980   -6.0580   25.0170 C   0  0  0  0  0  3  0  0  0  0  0  0
  -21.4950   -4.6860   24.9300 C   0  0  0  0  0  0  0  0  0  0  0  0
  -21.8730   -4.1240   23.6970 C   0  0  0  0  0  3  0  0  0  0  0  0
  -21.9560   -4.9350   22.5530 C   0  0  0  0  0  0  0  0  0  0  0  0
  -22.3020   -4.3860   21.3620 F   0  0  0  0  0  0  0  0  0  0  0  0
  -21.4090   -3.9010   26.0290 F   0  0  0  0  0  0  0  0  0  0  0  0
  -22.8040  -13.6820   21.1160 C   0  0  0  0  0  0  0  0  0  0  0  0
  -22.0940  -12.9910   22.0000 N   0  0  0  0  0  0  0  0  0  0  0  0
  -22.3590  -14.7080   20.6000 O   0  0  0  0  0  0  0  0  0  0  0  0
  -22.4700  -12.1640   22.4380 H   0  0  0  0  0  0  0  0  0  0  0  0
  -21.1640  -13.2970   22.2440 H   0  0  0  0  0  0  0  0  0  0  0  0
  -25.4070  -15.3400   20.2280 N   0  0  0  0  0  0  0  0  0  0  0  0
  -24.6360  -15.9880   20.3530 H   0  0  0  0  0  0  0  0  0  0  0  0
  -26.2210  -15.7740   19.8140 H   0  0  0  0  0  0  0  0  0  0  0  0
  -28.2900  -26.0200   20.2010 O   0  0  0  0  0  0  0  0  0  0  0  0
  -24.6360  -31.8670   23.2020 C   0  0  0  0  0  0  0  0  0  0  0  0
  -27.2230  -27.0420   20.2030 C   0  0  0  0  0  0  0  0  0  0  0  0
  -23.4490  -30.4620   21.5630 C   0  0  0  0  0  3  0  0  0  0  0  0
  -24.9050  -28.8670   20.1490 C   0  0  0  0  0  0  0  0  0  0  0  0
  -26.0080  -30.7070   21.4070 C   0  0  0  0  0  2  0  0  0  0  0  0
  -26.0890  -29.2980   20.7600 C   0  0  0  0  0  0  0  0  0  0  0  0
  -27.2460  -28.4070   20.7560 C   0  0  0  0  0  3  0  0  0  0  0  0
  -26.0070  -26.7400   19.5550 C   0  0  0  0  0  3  0  0  0  0  0  0
  -24.8850  -27.6060   19.5270 C   0  0  0  0  0  3  0  0  0  0  0  0
  -23.6800  -29.7770   20.1880 C   0  0  0  0  0  2  0  0  0  0  0  0
  -24.7190  -31.0380   22.1130 N   0  0  0  0  0  0  0  0  0  0  0  0
  -23.5460  -32.1480   23.7250 O   0  0  0  0  0  0  0  0  0  0  0  0
  -22.7640  -29.4620   22.5300 C   0  0  0  0  0  0  0  0  0  0  0  0
  -21.4330  -29.2970   22.4130 N   0  0  0  0  0  0  0  0  0  0  0  0
  -23.4360  -28.8350   23.3530 O   0  0  0  0  0  0  0  0  0  0  0  0
  -20.9450  -29.8550   21.7270 H   0  0  0  0  0  0  0  0  0  0  0  0
  -18.0550  -28.0860   22.9340 C   0  0  0  0  0  0  0  0  0  0  0  0
  -20.6150  -28.3550   23.1850 C   0  0  0  0  0  3  0  0  0  0  0  0
  -20.7170  -26.9250   22.6060 C   0  0  0  0  0  2  0  0  0  0  0  0
  -19.6090  -26.6040   21.5960 C   0  0  0  0  0  2  0  0  0  0  0  0
  -18.2310  -26.7410   22.2490 C   0  0  0  0  0  2  0  0  0  0  0  0
  -19.1750  -28.8500   23.3590 C   0  0  0  0  0  0  0  0  0  0  0  0
  -18.9540  -30.1070   23.9640 C   0  0  0  0  0  3  0  0  0  0  0  0
  -17.6470  -30.6010   24.1450 C   0  0  0  0  0  3  0  0  0  0  0  0
  -16.5430  -29.8340   23.7340 C   0  0  0  0  0  3  0  0  0  0  0  0
  -16.7480  -28.5780   23.1340 C   0  0  0  0  0  3  0  0  0  0  0  0
  -25.9040  -32.5160   23.8350 C   0  0  0  0  0  3  0  0  0  0  0  0
  -26.4200  -31.7450   25.1130 C   0  0  1  0  0  0  0  0  0  0  0  0
  -25.3240  -31.5020   26.1790 C   0  0  0  0  0  1  0  0  0  0  0  0
  -27.0100  -30.3690   24.7270 C   0  0  0  0  0  1  0  0  0  0  0  0
  -27.5650  -32.5430   25.7810 C   0  0  0  0  0  1  0  0  0  0  0  0
  -25.5760  -33.9110   24.1790 N   0  0  0  0  0  0  0  0  0  0  0  0
  -25.8860  -34.9790   23.4310 C   0  0  0  0  0  0  0  0  0  0  0  0
  -26.5400  -34.8940   22.3880 O   0  0  0  0  0  0  0  0  0  0  0  0
  -24.9900  -34.0480   24.9890 H   0  0  0  0  0  0  0  0  0  0  0  0
  -24.1230  -36.7560   23.1450 C   0  0  0  0  0  1  0  0  0  0  0  0
  -25.3940  -36.3590   23.9150 C   0  0  0  0  0  3  0  0  0  0  0  0
  -27.5400  -37.2720   24.6880 C   0  0  0  0  0  1  0  0  0  0  0  0
  -26.4080  -37.4280   23.7770 N   0  0  0  0  0  0  0  0  0  0  0  0
  -25.9940  -38.3410   23.9420 H   0  0  0  0  0  0  0  0  0  0  0  0
  1  3  1  0
  2  1  1  0
  4  5  1  0
  4  6  1  0
  4  2  1  0
  5 48  1  0
  5  3  1  0
  6  7  2  0
  8  6  1  0
  8  9  1  0
 10 18  1  0
 11 16  1  0
 12 13  1  0
 12 11  1  0
 14 13  1  0
 14 23  1  0
 14 15  1  0
 16 10  1  0
 16 15  1  0
 17 10  2  0
 18  9  1  0
 19 18  1  0
 20 21  2  0
 21 40  1  0
 22 21  1  0
 22 25  1  0
 23 20  1  0
 23 24  1  0
 24 22  2  0
 25 26  1  0
 26 27  2  0
 28 31  1  0
 28 27  1  0
 29 28  2  0
 30 29  1  0
 30 25  2  0
 31 32  1  0
 32 33  1  0
 33 34  2  0
 35 34  1  0
 35 39  1  0
 36 35  2  0
 37 32  2  0
 37 36  1  0
 38 37  1  0
 40 41  1  0
 41 44  1  0
 41 43  1  0
 42 40  2  0
 45 46  1  0
 45 20  1  0
 47 45  1  0
 48 50  1  0
 49 60  2  0
 50 55  1  0
 51 59  1  0
 51 61  1  0
 52 58  1  0
 52 54  1  0
 53 59  1  0
 54 53  1  0
 55 54  2  0
 56 50  2  0
 57 56  1  0
 57 52  2  0
 58 51  1  0
 59 49  1  0
 61 63  2  0
 62 61  1  0
 64 62  1  0
 65 74  2  0
 65 70  1  0
 66 62  1  0
 66 70  1  0
 67 66  1  0
 68 69  1  0
 68 67  1  0
 69 65  1  0
 70 71  2  0
 71 72  1  0
 73 72  2  0
 74 73  1  0
 75 49  1  0
 75 80  1  0
 75 76  1  0
 76 79  1  1
 76 77  1  0
 78 76  1  0
 80 83  1  0
 81 85  1  0
 81 80  1  0
 82 81  2  0
 85 84  1  0
 87 85  1  0
 87 88  1  0
 87 86  1  0
M  ISO  4   5 101  10 100  18 100  48 101
M  END
>  <TORSDO>  (45) 
F 19

>  <SCORE>  (45) 
-15.575

>  <name>  (45) 
44

>  <ligand_id>  (45) 
44

>  <original_smiles>  (45) 
[H]c1c([H])c([H])c2c(c1[H])C([H])([H])C([H])([H])C([H])([H])C2([H])N([H])C(=O)C1([H])N(C(=O)C([H])(N([H])C(=O)C([H])(N([H])C([H])([H])[H])C([H])([H])[H])C(C([H])([H])[H])(C([H])([H])[H])C([H])([H])[H])C([H])([H])c2c([H])c(OC3([H])C([H])([H])C([H])([H])C([H])([H])C3([H])C(=O)C([H])([H])C([H])([H])N([H])C(=O)N3C([H])([H])C([H])([H])C([H])([H])C([H])(n4nc(-c5c([H])c([H])c(Oc6c([H])c([H])c(F)c([H])c6F)c([H])c5[H])c(C(=O)N([H])[H])c4N([H])[H])C3([H])[H])c([H])c([H])c2C1([H])[H]

>  <smiles>  (45) 
[H]c1c([H])c([H])c2c(c1[H])C([H])([H])C([H])([H])C([H])([H])C2([H])N([H])C(=O)C1([H])N(C(=O)C([H])(N([H])C(=O)C([H])(N([H])C([H])([H])[H])C([H])([H])[H])C(C([H])([H])[H])(C([H])([H])[H])C([H])([H])[H])C([H])([H])c2c([H])c(OC3([H])C([H])([H])C([H])([H])C([H])([H])C3([H])C(=O)C([H])([H])C([H])([H])N([H])C(=O)N3C([H])([H])C([H])([H])C([H])([H])C([H])(n4nc(-c5c([H])c([H])c(Oc6c([H])c([H])c(F)c([H])c6F)c([H])c5[H])c(C(=O)N([H])[H])c4N([H])[H])C3([H])[H])c([H])c([H])c2C1([H])[H]

$$$$
45:0:0
     RDKit          3D

 91 99  0  0  1  0  0  0  0  0999 V2000
  -28.8610  -20.6670   21.0340 C   0  0  0  0  0  3  0  0  0  0  0  0
  -29.2790  -20.7710   18.7670 C   0  0  0  0  0  3  0  0  0  0  0  0
  -28.4340  -22.0890   21.0070 C   0  0  0  0  0  3  0  0  0  0  0  0
  -28.9390  -22.2070   18.7570 C   0  0  0  0  0  3  0  0  0  0  0  0
  -29.2820  -19.8620   19.8990 C   0  0  0  0  0  0  0  0  0  0  0  0
  -28.4720  -23.0070   19.8770 C   0  0  0  0  0  0  0  0  0  0  0  0
  -29.4570  -18.1500   19.7350 C   0  0  0  0  0  3  0  0  0  0  0  0
  -30.1380  -16.8350   20.5920 C   0  0  0  0  0  0  0  0  0  0  0  0
  -30.8180  -17.0910   21.7700 C   0  0  0  0  0  3  0  0  0  0  0  0
  -30.4420  -15.3260   20.0770 C   0  0  0  0  0  0  0  0  0  0  0  0
  -30.1990  -12.9460   19.1930 C   0  0  0  0  0  2  0  0  0  0  0  0
  -29.2120  -12.7450   18.0260 C   0  0  0  0  0  2  0  0  0  0  0  0
  -27.8390  -12.3950   18.5920 C   0  0  0  0  0  2  0  0  0  0  0  0
  -27.4140  -13.3790   19.7020 C   0  0  0  0  0  3  0  0  0  0  0  0
  -28.5160  -13.5960   20.7700 C   0  0  0  0  0  2  0  0  0  0  0  0
  -29.7400  -14.0840   20.0860 N   0  0  0  0  0  0  0  0  0  0  0  0
  -31.5710  -15.1840   19.5960 O   0  0  0  0  0  0  0  0  0  0  0  0
  -25.0680  -13.8680   20.5540 C   0  0  0  0  0  0  0  0  0  0  0  0
  -24.0300  -13.0580   20.9390 C   0  0  0  0  0  0  0  0  0  0  0  0
  -24.5240  -11.7220   20.8670 C   0  0  0  0  0  0  0  0  0  0  0  0
  -26.1130  -13.0190   20.2590 N   0  0  0  0  0  0  0  0  0  0  0  0
  -25.8030  -11.7220   20.5080 N   0  0  0  0  0  0  0  0  0  0  0  0
  -23.8200  -10.4420   21.0560 C   0  0  0  0  0  0  0  0  0  0  0  0
  -24.2880   -9.4580   21.9550 C   0  0  0  0  0  3  0  0  0  0  0  0
  -23.5760   -8.2510   22.1270 C   0  0  0  0  0  3  0  0  0  0  0  0
  -22.3790   -8.0250   21.4050 C   0  0  0  0  0  0  0  0  0  0  0  0
  -21.9330   -8.9950   20.4900 C   0  0  0  0  0  3  0  0  0  0  0  0
  -22.6500  -10.1890   20.3140 C   0  0  0  0  0  3  0  0  0  0  0  0
  -21.6360   -6.8710   21.4940 O   0  0  0  0  0  0  0  0  0  0  0  0
  -21.6300   -6.1080   22.6320 C   0  0  0  0  0  0  0  0  0  0  0  0
  -21.2130   -6.6290   23.8770 C   0  0  0  0  0  3  0  0  0  0  0  0
  -21.1430   -5.7880   25.0050 C   0  0  0  0  0  3  0  0  0  0  0  0
  -21.4950   -4.4290   24.8940 C   0  0  0  0  0  0  0  0  0  0  0  0
  -21.9120   -3.9090   23.6570 C   0  0  0  0  0  3  0  0  0  0  0  0
  -21.9730   -4.7430   22.5290 C   0  0  0  0  0  0  0  0  0  0  0  0
  -22.3510   -4.2330   21.3300 F   0  0  0  0  0  0  0  0  0  0  0  0
  -21.4260   -3.6160   25.9760 F   0  0  0  0  0  0  0  0  0  0  0  0
  -22.6380  -13.5150   21.2500 C   0  0  0  0  0  0  0  0  0  0  0  0
  -21.9430  -12.8060   22.1340 N   0  0  0  0  0  0  0  0  0  0  0  0
  -22.1680  -14.5350   20.7510 O   0  0  0  0  0  0  0  0  0  0  0  0
  -22.3220  -11.9810   22.5700 H   0  0  0  0  0  0  0  0  0  0  0  0
  -21.0160  -13.1220   22.3820 H   0  0  0  0  0  0  0  0  0  0  0  0
  -25.1940  -15.2420   20.4020 N   0  0  0  0  0  0  0  0  0  0  0  0
  -24.4110  -15.8730   20.5400 H   0  0  0  0  0  0  0  0  0  0  0  0
  -26.0240  -15.7200   20.0660 H   0  0  0  0  0  0  0  0  0  0  0  0
  -30.8090  -18.8880   23.7660 C   0  0  0  0  0  1  0  0  0  0  0  0
  -31.3140  -18.4370   22.3690 C   0  0  0  0  0  2  0  0  0  0  0  0
  -31.3330  -16.1110   22.5340 O   0  0  0  0  0  0  0  0  0  0  0  0
  -32.1200  -16.4330   22.9560 H   0  0  0  0  0  0  0  0  0  0  0  0
  -27.7160  -24.5490   19.7390 C   0  0  0  0  0  2  0  0  0  0  0  0
  -28.0410  -26.0560   20.2000 O   0  0  0  0  0  0  0  0  0  0  0  0
  -24.5990  -31.9800   23.2770 C   0  0  0  0  0  0  0  0  0  0  0  0
  -27.0410  -27.1430   20.1630 C   0  0  0  0  0  0  0  0  0  0  0  0
  -23.3530  -30.6110   21.6640 C   0  0  0  0  0  3  0  0  0  0  0  0
  -24.7430  -29.0120   20.1840 C   0  0  0  0  0  0  0  0  0  0  0  0
  -25.9130  -30.7940   21.4550 C   0  0  0  0  0  2  0  0  0  0  0  0
  -25.9450  -29.4000   20.7870 C   0  0  0  0  0  0  0  0  0  0  0  0
  -27.0900  -28.4930   20.7510 C   0  0  0  0  0  3  0  0  0  0  0  0
  -25.8020  -26.8830   19.5310 C   0  0  0  0  0  3  0  0  0  0  0  0
  -24.7000  -27.7750   19.5210 C   0  0  0  0  0  3  0  0  0  0  0  0
  -23.5250  -29.9370   20.2750 C   0  0  0  0  0  2  0  0  0  0  0  0
  -24.6470  -31.1460   22.1890 N   0  0  0  0  0  0  0  0  0  0  0  0
  -23.5240  -32.2880   23.8150 O   0  0  0  0  0  0  0  0  0  0  0  0
  -22.6650  -29.6170   22.6330 C   0  0  0  0  0  0  0  0  0  0  0  0
  -21.3390  -29.4430   22.4940 N   0  0  0  0  0  0  0  0  0  0  0  0
  -23.3280  -29.0060   23.4750 O   0  0  0  0  0  0  0  0  0  0  0  0
  -20.8600  -29.9830   21.7850 H   0  0  0  0  0  0  0  0  0  0  0  0
  -17.9660  -28.2100   22.9750 C   0  0  0  0  0  0  0  0  0  0  0  0
  -20.5170  -28.5140   23.2720 C   0  0  0  0  0  3  0  0  0  0  0  0
  -20.6460  -27.0720   22.7300 C   0  0  0  0  0  2  0  0  0  0  0  0
  -19.5630  -26.7130   21.7070 C   0  0  0  0  0  2  0  0  0  0  0  0
  -18.1690  -26.8520   22.3270 C   0  0  0  0  0  2  0  0  0  0  0  0
  -19.0670  -28.9980   23.4020 C   0  0  0  0  0  0  0  0  0  0  0  0
  -18.8200  -30.2680   23.9640 C   0  0  0  0  0  3  0  0  0  0  0  0
  -17.5050  -30.7460   24.1160 C   0  0  0  0  0  3  0  0  0  0  0  0
  -16.4180  -29.9590   23.6980 C   0  0  0  0  0  3  0  0  0  0  0  0
  -16.6490  -28.6950   23.1280 C   0  0  0  0  0  3  0  0  0  0  0  0
  -25.8910  -32.6030   23.8870 C   0  0  0  0  0  3  0  0  0  0  0  0
  -25.5970  -34.0080   24.2250 N   0  0  0  0  0  0  0  0  0  0  0  0
  -25.9170  -35.0630   23.4670 C   0  0  0  0  0  0  0  0  0  0  0  0
  -26.5500  -34.9570   22.4160 O   0  0  0  0  0  0  0  0  0  0  0  0
  -25.0220  -34.1660   25.0390 H   0  0  0  0  0  0  0  0  0  0  0  0
  -24.1850  -36.8750   23.1980 C   0  0  0  0  0  1  0  0  0  0  0  0
  -25.4620  -36.4580   23.9480 C   0  0  0  0  0  3  0  0  0  0  0  0
  -27.6300  -37.3370   24.6840 C   0  0  0  0  0  1  0  0  0  0  0  0
  -26.4950  -37.5030   23.7790 N   0  0  0  0  0  0  0  0  0  0  0  0
  -26.1050  -38.4310   23.9240 H   0  0  0  0  0  0  0  0  0  0  0  0
  -26.3940  -31.8320   25.1700 C   0  0  1  0  0  0  0  0  0  0  0  0
  -25.3000  -31.6210   26.2430 C   0  0  0  0  0  1  0  0  0  0  0  0
  -26.9560  -30.4450   24.7920 C   0  0  0  0  0  1  0  0  0  0  0  0
  -27.5530  -32.6160   25.8290 C   0  0  0  0  0  1  0  0  0  0  0  0
  2  5  1  0
  3  1  1  0
  4  2  2  0
  4  6  1  0
  5  1  2  0
  6  3  2  0
  7  5  1  0
  7  8  2  0
  8  9  1  0
  9 47  1  0
  9 48  1  0
 10 16  1  0
 10  8  1  0
 11 16  1  0
 12 13  1  0
 12 11  1  0
 14 13  1  0
 14 21  1  0
 14 15  1  0
 16 15  1  0
 17 10  2  0
 18 19  2  0
 19 38  1  0
 20 19  1  0
 20 23  1  0
 21 22  1  0
 21 18  1  0
 22 20  2  0
 23 24  1  0
 24 25  2  0
 26 29  1  0
 26 25  1  0
 27 26  2  0
 28 27  1  0
 28 23  2  0
 29 30  1  0
 30 31  1  0
 31 32  2  0
 33 32  1  0
 33 37  1  0
 34 33  2  0
 35 30  2  0
 35 34  1  0
 36 35  1  0
 38 39  1  0
 39 42  1  0
 39 41  1  0
 40 38  2  0
 43 44  1  0
 43 18  1  0
 45 43  1  0
 47 46  1  0
 48 49  1  0
 50  6  1  0
 50 51  1  0
 52 63  2  0
 53 51  1  0
 53 58  1  0
 54 62  1  0
 54 64  1  0
 55 61  1  0
 55 57  1  0
 56 62  1  0
 57 56  1  0
 58 57  2  0
 59 53  2  0
 60 59  1  0
 60 55  2  0
 61 54  1  0
 62 52  1  0
 64 66  2  0
 65 64  1  0
 67 65  1  0
 68 77  2  0
 68 73  1  0
 69 65  1  0
 69 73  1  0
 70 69  1  0
 71 72  1  0
 71 70  1  0
 72 68  1  0
 73 74  2  0
 74 75  1  0
 76 75  2  0
 77 76  1  0
 78 52  1  0
 78 79  1  0
 78 88  1  0
 79 82  1  0
 80 84  1  0
 80 79  1  0
 81 80  2  0
 84 83  1  0
 86 87  1  0
 86 84  1  0
 86 85  1  0
 88 91  1  1
 88 89  1  0
 90 88  1  0
M  ISO  4   8 100  10 100  50 101  51 101
M  END
>  <TORSDO>  (46) 
F 21

>  <SCORE>  (46) 
-14.535

>  <name>  (46) 
45

>  <ligand_id>  (46) 
45

>  <original_smiles>  (46) 
[H]OC(=C(C(=O)N1C([H])([H])C([H])([H])C([H])([H])C([H])(n2nc(-c3c([H])c([H])c(Oc4c([H])c([H])c(F)c([H])c4F)c([H])c3[H])c(C(=O)N([H])[H])c2N([H])[H])C1([H])[H])C([H])([H])c1c([H])c([H])c(C([H])([H])Oc2c([H])c([H])c3c(c2[H])C([H])([H])N(C(=O)C([H])(N([H])C(=O)C([H])(N([H])C([H])([H])[H])C([H])([H])[H])C(C([H])([H])[H])(C([H])([H])[H])C([H])([H])[H])C([H])(C(=O)N([H])C2([H])c4c([H])c([H])c([H])c([H])c4C([H])([H])C([H])([H])C2([H])[H])C3([H])[H])c([H])c1[H])C([H])([H])C([H])([H])[H]

>  <smiles>  (46) 
[H]OC(=C(C(=O)N1C([H])([H])C([H])([H])C([H])([H])C([H])(n2nc(-c3c([H])c([H])c(Oc4c([H])c([H])c(F)c([H])c4F)c([H])c3[H])c(C(=O)N([H])[H])c2N([H])[H])C1([H])[H])C([H])([H])c1c([H])c([H])c(C([H])([H])Oc2c([H])c([H])c3c(c2[H])C([H])([H])N(C(=O)C([H])(N([H])C(=O)C([H])(N([H])C([H])([H])[H])C([H])([H])[H])C(C([H])([H])[H])(C([H])([H])[H])C([H])([H])[H])C([H])(C(=O)N([H])C2([H])c4c([H])c([H])c([H])c([H])c4C([H])([H])C([H])([H])C2([H])[H])C3([H])[H])c([H])c1[H])C([H])([H])C([H])([H])[H]

$$$$
46:0:0
     RDKit          3D

 89 97  0  0  1  0  0  0  0  0999 V2000
  -27.6130  -21.9090   20.3830 C   0  0  0  0  0  2  0  0  0  0  0  0
  -27.5660  -23.4920   20.8210 C   0  0  0  0  0  2  0  0  0  0  0  0
  -29.6160  -23.8200   19.5340 C   0  0  0  0  0  2  0  0  0  0  0  0
  -28.9540  -21.2120   19.8300 C   0  0  0  0  0  3  0  0  0  0  0  0
  -28.2220  -24.5870   19.8740 C   0  0  0  0  0  3  0  0  0  0  0  0
  -29.9380  -22.3600   20.0210 N   0  0  0  0  0  4  0  0  0  0  0  0
  -30.1130  -22.4020   21.0130 H   0  0  0  0  0  0  0  0  0  0  0  0
  -30.8090  -22.0760   19.6030 H   0  0  0  0  0  0  0  0  0  0  0  0
  -29.4090  -19.6450   20.4640 C   0  0  0  0  0  0  0  0  0  0  0  0
  -29.4780  -19.5640   21.6930 O   0  0  0  0  0  0  0  0  0  0  0  0
  -29.7970  -18.1910   19.6910 C   0  0  0  0  0  2  0  0  0  0  0  0
  -29.7410  -16.5920   20.3590 C   0  0  0  0  0  2  0  0  0  0  0  0
  -30.5190  -15.1540   19.9020 C   0  0  0  0  0  0  0  0  0  0  0  0
  -30.3990  -12.7700   18.9640 C   0  0  0  0  0  2  0  0  0  0  0  0
  -29.3860  -12.7050   17.7940 C   0  0  0  0  0  2  0  0  0  0  0  0
  -27.9570  -12.4710   18.3180 C   0  0  0  0  0  2  0  0  0  0  0  0
  -27.6200  -13.3870   19.5230 C   0  0  0  0  0  3  0  0  0  0  0  0
  -28.7470  -13.4110   20.5770 C   0  0  0  0  0  2  0  0  0  0  0  0
  -29.9710  -13.8590   19.8990 N   0  0  0  0  0  0  0  0  0  0  0  0
  -31.6770  -15.2210   19.4700 O   0  0  0  0  0  0  0  0  0  0  0  0
  -25.3080  -13.9510   20.4560 C   0  0  0  0  0  0  0  0  0  0  0  0
  -24.2660  -13.1720   20.8770 C   0  0  0  0  0  0  0  0  0  0  0  0
  -24.7160  -11.8200   20.7710 C   0  0  0  0  0  0  0  0  0  0  0  0
  -26.3210  -13.0750   20.1100 N   0  0  0  0  0  0  0  0  0  0  0  0
  -25.9800  -11.7840   20.3660 N   0  0  0  0  0  0  0  0  0  0  0  0
  -23.9920  -10.5580   20.9750 C   0  0  0  0  0  0  0  0  0  0  0  0
  -24.4580   -9.5740   21.8750 C   0  0  0  0  0  3  0  0  0  0  0  0
  -23.7320   -8.3790   22.0690 C   0  0  0  0  0  3  0  0  0  0  0  0
  -22.5260   -8.1580   21.3620 C   0  0  0  0  0  0  0  0  0  0  0  0
  -22.0790   -9.1290   20.4490 C   0  0  0  0  0  3  0  0  0  0  0  0
  -22.8050  -10.3170   20.2540 C   0  0  0  0  0  3  0  0  0  0  0  0
  -21.7690   -7.0160   21.4660 O   0  0  0  0  0  0  0  0  0  0  0  0
  -21.7410   -6.2730   22.6190 C   0  0  0  0  0  0  0  0  0  0  0  0
  -21.3260   -6.8260   23.8520 C   0  0  0  0  0  3  0  0  0  0  0  0
  -21.2470   -6.0090   24.9980 C   0  0  0  0  0  3  0  0  0  0  0  0
  -21.5710   -4.6420   24.9130 C   0  0  0  0  0  0  0  0  0  0  0  0
  -21.9770   -4.0890   23.6860 C   0  0  0  0  0  3  0  0  0  0  0  0
  -22.0580   -4.9030   22.5420 C   0  0  0  0  0  0  0  0  0  0  0  0
  -22.4300   -4.3610   21.3570 F   0  0  0  0  0  0  0  0  0  0  0  0
  -21.4860   -3.8560   26.0110 F   0  0  0  0  0  0  0  0  0  0  0  0
  -22.8960  -13.6500   21.2620 C   0  0  0  0  0  0  0  0  0  0  0  0
  -22.2270  -12.9360   22.1590 N   0  0  0  0  0  0  0  0  0  0  0  0
  -22.4330  -14.6940   20.8030 O   0  0  0  0  0  0  0  0  0  0  0  0
  -22.6160  -12.0920   22.5520 H   0  0  0  0  0  0  0  0  0  0  0  0
  -21.3100  -13.2380   22.4590 H   0  0  0  0  0  0  0  0  0  0  0  0
  -25.4690  -15.3260   20.3100 N   0  0  0  0  0  0  0  0  0  0  0  0
  -24.7190  -15.9820   20.5010 H   0  0  0  0  0  0  0  0  0  0  0  0
  -26.2960  -15.7700   19.9310 H   0  0  0  0  0  0  0  0  0  0  0  0
  -28.2600  -26.1510   20.2000 O   0  0  0  0  0  0  0  0  0  0  0  0
  -24.6730  -31.8900   23.2410 C   0  0  0  0  0  0  0  0  0  0  0  0
  -27.1900  -27.1410   20.1390 C   0  0  0  0  0  0  0  0  0  0  0  0
  -23.4450  -30.5100   21.6090 C   0  0  0  0  0  3  0  0  0  0  0  0
  -24.8670  -28.9290   20.1500 C   0  0  0  0  0  0  0  0  0  0  0  0
  -26.0000  -30.7530   21.4110 C   0  0  0  0  0  2  0  0  0  0  0  0
  -26.0590  -29.3600   20.7460 C   0  0  0  0  0  0  0  0  0  0  0  0
  -27.2140  -28.4840   20.7180 C   0  0  0  0  0  3  0  0  0  0  0  0
  -25.9690  -26.8220   19.5050 C   0  0  0  0  0  3  0  0  0  0  0  0
  -24.8390  -27.6760   19.5130 C   0  0  0  0  0  3  0  0  0  0  0  0
  -23.6440  -29.8350   20.2240 C   0  0  0  0  0  2  0  0  0  0  0  0
  -24.7280  -31.0750   22.1420 N   0  0  0  0  0  0  0  0  0  0  0  0
  -23.5950  -32.1760   23.7860 O   0  0  0  0  0  0  0  0  0  0  0  0
  -22.7740  -29.5020   22.5780 C   0  0  0  0  0  0  0  0  0  0  0  0
  -21.4450  -29.3290   22.4640 N   0  0  0  0  0  0  0  0  0  0  0  0
  -23.4540  -28.8780   23.3970 O   0  0  0  0  0  0  0  0  0  0  0  0
  -20.9520  -29.8850   21.7790 H   0  0  0  0  0  0  0  0  0  0  0  0
  -18.0780  -28.0880   22.9740 C   0  0  0  0  0  0  0  0  0  0  0  0
  -20.6340  -28.3880   23.2410 C   0  0  0  0  0  3  0  0  0  0  0  0
  -20.7540  -26.9530   22.6770 C   0  0  0  0  0  2  0  0  0  0  0  0
  -19.6580  -26.6090   21.6630 C   0  0  0  0  0  2  0  0  0  0  0  0
  -18.2740  -26.7380   22.3030 C   0  0  0  0  0  2  0  0  0  0  0  0
  -19.1850  -28.8690   23.3990 C   0  0  0  0  0  0  0  0  0  0  0  0
  -18.9460  -30.1310   23.9860 C   0  0  0  0  0  3  0  0  0  0  0  0
  -17.6340  -30.6120   24.1520 C   0  0  0  0  0  3  0  0  0  0  0  0
  -16.5410  -29.8280   23.7410 C   0  0  0  0  0  3  0  0  0  0  0  0
  -16.7640  -28.5680   23.1570 C   0  0  0  0  0  3  0  0  0  0  0  0
  -25.9600  -32.5210   23.8550 C   0  0  0  0  0  3  0  0  0  0  0  0
  -26.4820  -31.7480   25.1290 C   0  0  1  0  0  0  0  0  0  0  0  0
  -25.3970  -31.5170   26.2060 C   0  0  0  0  0  1  0  0  0  0  0  0
  -27.0550  -30.3660   24.7390 C   0  0  0  0  0  1  0  0  0  0  0  0
  -27.6430  -32.5360   25.7800 C   0  0  0  0  0  1  0  0  0  0  0  0
  -25.6570  -33.9210   24.1980 N   0  0  0  0  0  0  0  0  0  0  0  0
  -25.9860  -34.9820   23.4500 C   0  0  0  0  0  0  0  0  0  0  0  0
  -26.6420  -34.8850   22.4090 O   0  0  0  0  0  0  0  0  0  0  0  0
  -25.0730  -34.0690   25.0090 H   0  0  0  0  0  0  0  0  0  0  0  0
  -24.2690  -36.7960   23.1370 C   0  0  0  0  0  1  0  0  0  0  0  0
  -25.5150  -36.3700   23.9290 C   0  0  0  0  0  3  0  0  0  0  0  0
  -27.6620  -37.2330   24.7520 C   0  0  0  0  0  1  0  0  0  0  0  0
  -26.5550  -37.4170   23.8180 N   0  0  0  0  0  0  0  0  0  0  0  0
  -26.1570  -38.3390   23.9760 H   0  0  0  0  0  0  0  0  0  0  0  0
  1  2  1  0
  3  5  1  0
  3  6  1  0
  4  6  1  0
  4  1  1  0
  4  9  1  0
  5 49  1  0
  5  2  1  0
  6  7  1  0
  8  6  1  0
  9 10  2  0
 11 12  1  0
 11  9  1  0
 13 12  1  0
 14 19  1  0
 15 16  1  0
 15 14  1  0
 17 16  1  0
 17 24  1  0
 17 18  1  0
 19 13  1  0
 19 18  1  0
 20 13  2  0
 21 22  2  0
 22 41  1  0
 23 22  1  0
 23 26  1  0
 24 25  1  0
 24 21  1  0
 25 23  2  0
 26 27  1  0
 27 28  2  0
 29 32  1  0
 29 28  1  0
 30 29  2  0
 31 30  1  0
 31 26  2  0
 32 33  1  0
 33 34  1  0
 34 35  2  0
 36 35  1  0
 36 40  1  0
 37 36  2  0
 38 33  2  0
 38 37  1  0
 39 38  1  0
 41 42  1  0
 42 45  1  0
 42 44  1  0
 43 41  2  0
 46 21  1  0
 46 47  1  0
 48 46  1  0
 50 61  2  0
 51 49  1  0
 51 56  1  0
 52 60  1  0
 52 62  1  0
 53 59  1  0
 53 55  1  0
 54 60  1  0
 55 54  1  0
 56 55  2  0
 57 58  1  0
 57 51  2  0
 58 53  2  0
 59 52  1  0
 60 50  1  0
 62 64  2  0
 63 62  1  0
 65 63  1  0
 66 75  2  0
 66 71  1  0
 67 63  1  0
 67 71  1  0
 68 67  1  0
 69 70  1  0
 69 68  1  0
 70 66  1  0
 71 72  2  0
 72 73  1  0
 74 73  2  0
 75 74  1  0
 76 50  1  0
 76 81  1  0
 76 77  1  0
 77 80  1  1
 77 78  1  0
 79 77  1  0
 81 84  1  0
 82 86  1  0
 82 81  1  0
 83 82  2  0
 86 85  1  0
 88 86  1  0
 88 89  1  0
 88 87  1  0
M  ISO  4   5 101  12 100  13 100  49 101
M  END
>  <TORSDO>  (47) 
F 19

>  <SCORE>  (47) 
-14.962

>  <name>  (47) 
46

>  <ligand_id>  (47) 
46

>  <original_smiles>  (47) 
[H]c1c([H])c([H])c2c(c1[H])C([H])([H])C([H])([H])C([H])([H])C2([H])N([H])C(=O)C1([H])N(C(=O)C([H])(N([H])C(=O)C([H])(N([H])C([H])([H])[H])C([H])([H])[H])C(C([H])([H])[H])(C([H])([H])[H])C([H])([H])[H])C([H])([H])c2c([H])c(OC3([H])C([H])([H])C([H])([H])C([H])(C(=O)C([H])([H])C([H])([H])C(=O)N4C([H])([H])C([H])([H])C([H])([H])C([H])(n5nc(-c6c([H])c([H])c(Oc7c([H])c([H])c(F)c([H])c7F)c([H])c6[H])c(C(=O)N([H])[H])c5N([H])[H])C4([H])[H])[N+]([H])([H])C3([H])[H])c([H])c([H])c2C1([H])[H]

>  <smiles>  (47) 
[H]c1c([H])c([H])c2c(c1[H])C([H])([H])C([H])([H])C([H])([H])C2([H])N([H])C(=O)C1([H])N(C(=O)C([H])(N([H])C(=O)C([H])(N([H])C([H])([H])[H])C([H])([H])[H])C(C([H])([H])[H])(C([H])([H])[H])C([H])([H])[H])C([H])([H])c2c([H])c(OC3([H])C([H])([H])C([H])([H])C([H])(C(=O)C([H])([H])C([H])([H])C(=O)N4C([H])([H])C([H])([H])C([H])([H])C([H])(n5nc(-c6c([H])c([H])c(Oc7c([H])c([H])c(F)c([H])c7F)c([H])c6[H])c(C(=O)N([H])[H])c5N([H])[H])C4([H])[H])[N+]([H])([H])C3([H])[H])c([H])c([H])c2C1([H])[H]

$$$$
47:0:0
     RDKit          3D

 89 97  0  0  1  0  0  0  0  0999 V2000
  -29.5960  -21.5960   18.6340 C   0  0  0  0  0  2  0  0  0  0  0  0
  -29.8560  -20.6140   20.4780 C   0  0  0  0  0  3  0  0  0  0  0  0
  -29.0180  -21.9710   20.0150 C   0  0  0  0  0  3  0  0  0  0  0  0
  -30.6410  -20.7880   19.2680 N   0  0  0  0  0  4  0  0  0  0  0  0
  -31.4810  -21.3150   19.4460 H   0  0  0  0  0  0  0  0  0  0  0  0
  -30.8380  -19.9250   18.7870 H   0  0  0  0  0  0  0  0  0  0  0  0
  -29.2960  -19.0810   20.4640 C   0  0  0  0  0  0  0  0  0  0  0  0
  -28.0870  -18.8400   20.3800 O   0  0  0  0  0  0  0  0  0  0  0  0
  -30.2560  -17.7650   20.5470 C   0  0  0  0  0  3  0  0  0  0  0  0
  -29.6500  -16.2290   20.6430 C   0  0  0  0  0  3  0  0  0  0  0  0
  -30.5110  -14.8730   20.3640 C   0  0  0  0  0  0  0  0  0  0  0  0
  -30.3850  -12.5730   19.3520 C   0  0  0  0  0  2  0  0  0  0  0  0
  -29.4380  -12.6180   18.1320 C   0  0  0  0  0  2  0  0  0  0  0  0
  -27.9630  -12.4350   18.5510 C   0  0  0  0  0  2  0  0  0  0  0  0
  -27.5820  -13.3070   19.7780 C   0  0  0  0  0  3  0  0  0  0  0  0
  -28.6450  -13.2200   20.8930 C   0  0  0  0  0  2  0  0  0  0  0  0
  -29.9370  -13.6120   20.3130 N   0  0  0  0  0  0  0  0  0  0  0  0
  -31.6950  -14.9880   20.0280 O   0  0  0  0  0  0  0  0  0  0  0  0
  -25.1970  -13.8800   20.5280 C   0  0  0  0  0  0  0  0  0  0  0  0
  -24.1360  -13.0990   20.9040 C   0  0  0  0  0  0  0  0  0  0  0  0
  -24.6070  -11.7490   20.8680 C   0  0  0  0  0  0  0  0  0  0  0  0
  -26.2410  -13.0050   20.2770 N   0  0  0  0  0  0  0  0  0  0  0  0
  -25.8960  -11.7200   20.5520 N   0  0  0  0  0  0  0  0  0  0  0  0
  -23.8870  -10.4830   21.0630 C   0  0  0  0  0  0  0  0  0  0  0  0
  -24.3330   -9.5100   21.9850 C   0  0  0  0  0  3  0  0  0  0  0  0
  -23.6110   -8.3110   22.1670 C   0  0  0  0  0  3  0  0  0  0  0  0
  -22.4280   -8.0760   21.4260 C   0  0  0  0  0  0  0  0  0  0  0  0
  -22.0010   -9.0390   20.4960 C   0  0  0  0  0  3  0  0  0  0  0  0
  -22.7240  -10.2290   20.3110 C   0  0  0  0  0  3  0  0  0  0  0  0
  -21.6800   -6.9280   21.5160 O   0  0  0  0  0  0  0  0  0  0  0  0
  -21.6570   -6.1690   22.6590 C   0  0  0  0  0  0  0  0  0  0  0  0
  -21.2570   -6.7090   23.9010 C   0  0  0  0  0  3  0  0  0  0  0  0
  -21.1800   -5.8780   25.0380 C   0  0  0  0  0  3  0  0  0  0  0  0
  -21.4950   -4.5110   24.9330 C   0  0  0  0  0  0  0  0  0  0  0  0
  -21.8890   -3.9710   23.6960 C   0  0  0  0  0  3  0  0  0  0  0  0
  -21.9670   -4.7980   22.5630 C   0  0  0  0  0  0  0  0  0  0  0  0
  -22.3260   -4.2680   21.3680 F   0  0  0  0  0  0  0  0  0  0  0  0
  -21.4150   -3.7110   26.0220 F   0  0  0  0  0  0  0  0  0  0  0  0
  -22.7370  -13.5720   21.1770 C   0  0  0  0  0  0  0  0  0  0  0  0
  -22.0100  -12.8750   22.0440 N   0  0  0  0  0  0  0  0  0  0  0  0
  -22.2950  -14.5930   20.6570 O   0  0  0  0  0  0  0  0  0  0  0  0
  -22.3780  -12.0480   22.4890 H   0  0  0  0  0  0  0  0  0  0  0  0
  -21.0720  -13.1800   22.2670 H   0  0  0  0  0  0  0  0  0  0  0  0
  -25.3500  -15.2510   20.3570 N   0  0  0  0  0  0  0  0  0  0  0  0
  -24.5770  -15.8980   20.4960 H   0  0  0  0  0  0  0  0  0  0  0  0
  -26.1990  -15.7100   20.0480 H   0  0  0  0  0  0  0  0  0  0  0  0
  -29.1950  -23.5690   20.4670 C   0  0  0  0  0  3  0  0  0  0  0  0
  -28.1470  -24.7810   19.9970 C   0  0  0  0  0  3  0  0  0  0  0  0
  -28.3210  -26.2910   20.2540 O   0  0  0  0  0  0  0  0  0  0  0  0
  -24.6120  -31.8710   23.2340 C   0  0  0  0  0  0  0  0  0  0  0  0
  -27.2260  -27.2180   20.1840 C   0  0  0  0  0  0  0  0  0  0  0  0
  -23.4080  -30.4700   21.5920 C   0  0  0  0  0  3  0  0  0  0  0  0
  -24.8630  -28.9000   20.1650 C   0  0  0  0  0  0  0  0  0  0  0  0
  -25.9550  -30.7600   21.4190 C   0  0  0  0  0  2  0  0  0  0  0  0
  -26.0340  -29.3670   20.7790 C   0  0  0  0  0  0  0  0  0  0  0  0
  -27.2120  -28.5370   20.7790 C   0  0  0  0  0  3  0  0  0  0  0  0
  -26.0360  -26.8490   19.5170 C   0  0  0  0  0  3  0  0  0  0  0  0
  -24.8790  -27.6590   19.5090 C   0  0  0  0  0  3  0  0  0  0  0  0
  -23.6250  -29.7840   20.2140 C   0  0  0  0  0  2  0  0  0  0  0  0
  -24.6760  -31.0580   22.1370 N   0  0  0  0  0  0  0  0  0  0  0  0
  -23.5290  -32.1490   23.7710 O   0  0  0  0  0  0  0  0  0  0  0  0
  -22.7340  -29.4640   22.5610 C   0  0  0  0  0  0  0  0  0  0  0  0
  -21.4050  -29.2900   22.4360 N   0  0  0  0  0  0  0  0  0  0  0  0
  -23.4070  -28.8430   23.3880 O   0  0  0  0  0  0  0  0  0  0  0  0
  -20.9150  -29.8410   21.7450 H   0  0  0  0  0  0  0  0  0  0  0  0
  -18.0330  -28.0670   22.9180 C   0  0  0  0  0  0  0  0  0  0  0  0
  -20.5890  -28.3520   23.2090 C   0  0  0  0  0  3  0  0  0  0  0  0
  -20.7100  -26.9170   22.6430 C   0  0  0  0  0  2  0  0  0  0  0  0
  -19.6190  -26.5800   21.6220 C   0  0  0  0  0  2  0  0  0  0  0  0
  -18.2300  -26.7140   22.2540 C   0  0  0  0  0  2  0  0  0  0  0  0
  -19.1420  -28.8420   23.3520 C   0  0  0  0  0  0  0  0  0  0  0  0
  -18.9040  -30.1070   23.9320 C   0  0  0  0  0  3  0  0  0  0  0  0
  -17.5920  -30.5950   24.0860 C   0  0  0  0  0  3  0  0  0  0  0  0
  -16.4980  -29.8150   23.6710 C   0  0  0  0  0  3  0  0  0  0  0  0
  -16.7210  -28.5550   23.0910 C   0  0  0  0  0  3  0  0  0  0  0  0
  -25.8930  -32.5070   23.8570 C   0  0  0  0  0  3  0  0  0  0  0  0
  -25.5880  -33.9060   24.1900 N   0  0  0  0  0  0  0  0  0  0  0  0
  -25.9080  -34.9620   23.4310 C   0  0  0  0  0  0  0  0  0  0  0  0
  -26.5650  -34.8630   22.3910 O   0  0  0  0  0  0  0  0  0  0  0  0
  -25.0160  -34.0570   25.0080 H   0  0  0  0  0  0  0  0  0  0  0  0
  -24.1690  -36.7510   23.1200 C   0  0  0  0  0  1  0  0  0  0  0  0
  -25.4280  -36.3490   23.9030 C   0  0  0  0  0  3  0  0  0  0  0  0
  -27.5750  -37.2400   24.6930 C   0  0  0  0  0  1  0  0  0  0  0  0
  -26.4530  -37.4060   23.7720 N   0  0  0  0  0  0  0  0  0  0  0  0
  -26.0440  -38.3230   23.9310 H   0  0  0  0  0  0  0  0  0  0  0  0
  -26.4060  -31.7390   25.1370 C   0  0  1  0  0  0  0  0  0  0  0  0
  -25.3130  -31.5160   26.2070 C   0  0  0  0  0  1  0  0  0  0  0  0
  -26.9780  -30.3560   24.7500 C   0  0  0  0  0  1  0  0  0  0  0  0
  -27.5590  -32.5310   25.8010 C   0  0  0  0  0  1  0  0  0  0  0  0
  1  4  1  0
  1  3  1  0
  2  7  1  0
  3 47  1  0
  3  2  1  0
  4  5  1  0
  4  2  1  0
  6  4  1  0
  7  9  1  0
  8  7  2  0
  9 10  2  0
 11 10  1  0
 12 17  1  0
 13 14  1  0
 13 12  1  0
 15 14  1  0
 15 22  1  0
 15 16  1  0
 17 11  1  0
 17 16  1  0
 18 11  2  0
 19 20  2  0
 20 39  1  0
 21 20  1  0
 21 24  1  0
 22 19  1  0
 22 23  1  0
 23 21  2  0
 24 25  1  0
 25 26  2  0
 27 30  1  0
 27 26  1  0
 28 27  2  0
 29 28  1  0
 29 24  2  0
 30 31  1  0
 31 32  1  0
 32 33  2  0
 34 33  1  0
 34 38  1  0
 35 34  2  0
 36 31  2  0
 36 35  1  0
 37 36  1  0
 39 40  1  0
 40 43  1  0
 40 42  1  0
 41 39  2  0
 44 45  1  0
 44 19  1  0
 46 44  1  0
 48 49  1  0
 48 47  2  0
 50 61  2  0
 51 49  1  0
 51 56  1  0
 52 60  1  0
 52 62  1  0
 53 59  1  0
 53 55  1  0
 54 60  1  0
 55 54  1  0
 56 55  2  0
 57 51  2  0
 58 57  1  0
 58 53  2  0
 59 52  1  0
 60 50  1  0
 62 64  2  0
 63 62  1  0
 65 63  1  0
 66 75  2  0
 66 71  1  0
 67 63  1  0
 67 71  1  0
 68 67  1  0
 69 70  1  0
 69 68  1  0
 70 66  1  0
 71 72  2  0
 72 73  1  0
 74 73  2  0
 75 74  1  0
 76 50  1  0
 76 77  1  0
 76 86  1  0
 77 80  1  0
 78 82  1  0
 78 77  1  0
 79 78  2  0
 82 81  1  0
 84 82  1  0
 84 85  1  0
 84 83  1  0
 86 89  1  1
 86 87  1  0
 88 86  1  0
M  ISO  4  10 100  11 100  48 101  49 101
M  END
>  <TORSDO>  (48) 
F 21

>  <SCORE>  (48) 
-13.438

>  <name>  (48) 
47

>  <ligand_id>  (48) 
47

>  <original_smiles>  (48) 
[H]c1c([H])c([H])c2c(c1[H])C([H])([H])C([H])([H])C([H])([H])C2([H])N([H])C(=O)C1([H])N(C(=O)C([H])(N([H])C(=O)C([H])(N([H])C([H])([H])[H])C([H])([H])[H])C(C([H])([H])[H])(C([H])([H])[H])C([H])([H])[H])C([H])([H])c2c([H])c(OC([H])([H])C([H])([H])C3([H])C([H])([H])[N+]([H])([H])C3([H])C(=O)C([H])([H])C([H])([H])C(=O)N3C([H])([H])C([H])([H])C([H])([H])C([H])(n4nc(-c5c([H])c([H])c(Oc6c([H])c([H])c(F)c([H])c6F)c([H])c5[H])c(C(=O)N([H])[H])c4N([H])[H])C3([H])[H])c([H])c([H])c2C1([H])[H]

>  <smiles>  (48) 
[H]c1c([H])c([H])c2c(c1[H])C([H])([H])C([H])([H])C([H])([H])C2([H])N([H])C(=O)C1([H])N(C(=O)C([H])(N([H])C(=O)C([H])(N([H])C([H])([H])[H])C([H])([H])[H])C(C([H])([H])[H])(C([H])([H])[H])C([H])([H])[H])C([H])([H])c2c([H])c(OC([H])([H])C([H])([H])C3([H])C([H])([H])[N+]([H])([H])C3([H])C(=O)C([H])([H])C([H])([H])C(=O)N3C([H])([H])C([H])([H])C([H])([H])C([H])(n4nc(-c5c([H])c([H])c(Oc6c([H])c([H])c(F)c([H])c6F)c([H])c5[H])c(C(=O)N([H])[H])c4N([H])[H])C3([H])[H])c([H])c([H])c2C1([H])[H]

$$$$
48:0:0
     RDKit          3D

 90 98  0  0  1  0  0  0  0  0999 V2000
  -29.0610  -20.1160   20.7550 N   0  0  0  0  0  4  0  0  0  0  0  0
  -29.3070  -20.3430   21.7050 H   0  0  0  0  0  0  0  0  0  0  0  0
  -28.0810  -19.8870   20.8040 H   0  0  0  0  0  0  0  0  0  0  0  0
  -30.6040  -15.1720   20.2910 C   0  0  0  0  0  0  0  0  0  0  0  0
  -30.5110  -12.7880   19.3610 C   0  0  0  0  0  2  0  0  0  0  0  0
  -29.5660  -12.6750   18.1430 C   0  0  0  0  0  2  0  0  0  0  0  0
  -28.1200  -12.4210   18.6010 C   0  0  0  0  0  2  0  0  0  0  0  0
  -27.7040  -13.3530   19.7690 C   0  0  0  0  0  3  0  0  0  0  0  0
  -28.7720  -13.4390   20.8770 C   0  0  0  0  0  2  0  0  0  0  0  0
  -30.0120  -13.8980   20.2360 N   0  0  0  0  0  0  0  0  0  0  0  0
  -31.8050  -15.2050   19.9950 O   0  0  0  0  0  0  0  0  0  0  0  0
  -29.7200  -17.4600   21.4810 C   0  0  0  0  0  2  0  0  0  0  0  0
  -29.6720  -17.5880   19.3980 C   0  0  0  0  0  3  0  0  0  0  0  0
  -29.8800  -18.7230   20.5050 C   0  0  0  0  0  3  0  0  0  0  0  0
  -29.8440  -16.4060   20.3790 N   0  0  0  0  0  0  0  0  0  0  0  0
  -25.3390  -13.9000   20.5700 C   0  0  0  0  0  0  0  0  0  0  0  0
  -24.2870  -13.1100   20.9430 C   0  0  0  0  0  0  0  0  0  0  0  0
  -24.7600  -11.7640   20.8750 C   0  0  0  0  0  0  0  0  0  0  0  0
  -26.3820  -13.0330   20.2900 N   0  0  0  0  0  0  0  0  0  0  0  0
  -26.0440  -11.7420   20.5420 N   0  0  0  0  0  0  0  0  0  0  0  0
  -24.0420  -10.4940   21.0520 C   0  0  0  0  0  0  0  0  0  0  0  0
  -24.4740   -9.5250   21.9830 C   0  0  0  0  0  3  0  0  0  0  0  0
  -23.7550   -8.3220   22.1490 C   0  0  0  0  0  3  0  0  0  0  0  0
  -22.5910   -8.0790   21.3810 C   0  0  0  0  0  0  0  0  0  0  0  0
  -22.1800   -9.0360   20.4390 C   0  0  0  0  0  3  0  0  0  0  0  0
  -22.8990  -10.2310   20.2710 C   0  0  0  0  0  3  0  0  0  0  0  0
  -21.8440   -6.9280   21.4580 O   0  0  0  0  0  0  0  0  0  0  0  0
  -21.7640   -6.1970   22.6160 C   0  0  0  0  0  0  0  0  0  0  0  0
  -21.2550   -6.7490   23.8120 C   0  0  0  0  0  3  0  0  0  0  0  0
  -21.1250   -5.9420   24.9600 C   0  0  0  0  0  3  0  0  0  0  0  0
  -21.4940   -4.5850   24.9120 C   0  0  0  0  0  0  0  0  0  0  0  0
  -21.9950   -4.0330   23.7200 C   0  0  0  0  0  3  0  0  0  0  0  0
  -22.1280   -4.8360   22.5750 C   0  0  0  0  0  0  0  0  0  0  0  0
  -22.5920   -4.2940   21.4240 F   0  0  0  0  0  0  0  0  0  0  0  0
  -21.3620   -3.8070   26.0120 F   0  0  0  0  0  0  0  0  0  0  0  0
  -22.8910  -13.5740   21.2400 C   0  0  0  0  0  0  0  0  0  0  0  0
  -22.1760  -12.8540   22.0970 N   0  0  0  0  0  0  0  0  0  0  0  0
  -22.4440  -14.6100   20.7480 O   0  0  0  0  0  0  0  0  0  0  0  0
  -22.5540  -12.0170   22.5160 H   0  0  0  0  0  0  0  0  0  0  0  0
  -21.2390  -13.1430   22.3360 H   0  0  0  0  0  0  0  0  0  0  0  0
  -25.4820  -15.2730   20.4190 N   0  0  0  0  0  0  0  0  0  0  0  0
  -24.6930  -15.9000   20.5140 H   0  0  0  0  0  0  0  0  0  0  0  0
  -26.2750  -15.7120   19.9470 H   0  0  0  0  0  0  0  0  0  0  0  0
  -28.3480  -17.5470   18.6830 C   0  0  0  0  0  0  0  0  0  0  0  0
  -28.1840  -18.5590   17.5580 C   0  0  0  0  0  1  0  0  0  0  0  0
  -27.4090  -16.7920   18.9320 O   0  0  0  0  0  0  0  0  0  0  0  0
  -29.1510  -21.5610   20.0310 C   0  0  0  0  0  3  0  0  0  0  0  0
  -28.6460  -23.0890   20.7050 C   0  0  0  0  0  3  0  0  0  0  0  0
  -28.2850  -24.5960   19.9210 C   0  0  0  0  0  2  0  0  0  0  0  0
  -28.2540  -26.1120   20.4330 O   0  0  0  0  0  0  0  0  0  0  0  0
  -24.5980  -31.9290   23.2470 C   0  0  0  0  0  0  0  0  0  0  0  0
  -27.2060  -27.1220   20.2940 C   0  0  0  0  0  0  0  0  0  0  0  0
  -23.4200  -30.5160   21.6080 C   0  0  0  0  0  3  0  0  0  0  0  0
  -24.8860  -28.9200   20.2100 C   0  0  0  0  0  0  0  0  0  0  0  0
  -25.9810  -30.7600   21.4790 C   0  0  0  0  0  2  0  0  0  0  0  0
  -26.0600  -29.3560   20.8370 C   0  0  0  0  0  0  0  0  0  0  0  0
  -27.2120  -28.4720   20.8620 C   0  0  0  0  0  3  0  0  0  0  0  0
  -26.0060  -26.8110   19.6150 C   0  0  0  0  0  3  0  0  0  0  0  0
  -24.8780  -27.6650   19.5820 C   0  0  0  0  0  3  0  0  0  0  0  0
  -23.6600  -29.8250   20.2390 C   0  0  0  0  0  2  0  0  0  0  0  0
  -24.6860  -31.0930   22.1660 N   0  0  0  0  0  0  0  0  0  0  0  0
  -23.5040  -32.2200   23.7570 O   0  0  0  0  0  0  0  0  0  0  0  0
  -22.7260  -29.5220   22.5740 C   0  0  0  0  0  0  0  0  0  0  0  0
  -21.3970  -29.3590   22.4410 N   0  0  0  0  0  0  0  0  0  0  0  0
  -23.3870  -28.9000   23.4090 O   0  0  0  0  0  0  0  0  0  0  0  0
  -20.9190  -29.9120   21.7440 H   0  0  0  0  0  0  0  0  0  0  0  0
  -18.0030  -28.1890   22.9470 C   0  0  0  0  0  0  0  0  0  0  0  0
  -20.5660  -28.4310   23.2130 C   0  0  0  0  0  3  0  0  0  0  0  0
  -20.6540  -26.9980   22.6410 C   0  0  0  0  0  2  0  0  0  0  0  0
  -19.5490  -26.6830   21.6280 C   0  0  0  0  0  2  0  0  0  0  0  0
  -18.1680  -26.8390   22.2700 C   0  0  0  0  0  2  0  0  0  0  0  0
  -19.1280  -28.9440   23.3760 C   0  0  0  0  0  0  0  0  0  0  0  0
  -18.9180  -30.2070   23.9700 C   0  0  0  0  0  3  0  0  0  0  0  0
  -17.6160  -30.7160   24.1410 C   0  0  0  0  0  3  0  0  0  0  0  0
  -16.5060  -29.9590   23.7270 C   0  0  0  0  0  3  0  0  0  0  0  0
  -16.7020  -28.6970   23.1360 C   0  0  0  0  0  3  0  0  0  0  0  0
  -25.8650  -32.5750   23.8850 C   0  0  0  0  0  3  0  0  0  0  0  0
  -26.3540  -31.8280   25.1880 C   0  0  1  0  0  0  0  0  0  0  0  0
  -25.2380  -31.6110   26.2370 C   0  0  0  0  0  1  0  0  0  0  0  0
  -26.9460  -30.4430   24.8400 C   0  0  0  0  0  1  0  0  0  0  0  0
  -27.4900  -32.6360   25.8590 C   0  0  0  0  0  1  0  0  0  0  0  0
  -25.5480  -33.9800   24.1920 N   0  0  0  0  0  0  0  0  0  0  0  0
  -25.8890  -35.0270   23.4300 C   0  0  0  0  0  0  0  0  0  0  0  0
  -26.5680  -34.9140   22.4050 O   0  0  0  0  0  0  0  0  0  0  0  0
  -24.9470  -34.1430   24.9860 H   0  0  0  0  0  0  0  0  0  0  0  0
  -24.1720  -36.8280   23.0450 C   0  0  0  0  0  1  0  0  0  0  0  0
  -25.4030  -36.4230   23.8720 C   0  0  0  0  0  3  0  0  0  0  0  0
  -27.5250  -37.3140   24.7280 C   0  0  0  0  0  1  0  0  0  0  0  0
  -26.4400  -37.4720   23.7630 N   0  0  0  0  0  0  0  0  0  0  0  0
  -26.0340  -38.3940   23.8920 H   0  0  0  0  0  0  0  0  0  0  0  0
  1  3  1  0
  1  2  1  0
  4 15  1  0
  5 10  1  0
  6  7  1  0
  6  5  1  0
  8  7  1  0
  8 19  1  0
  8  9  1  0
 10  4  1  0
 10  9  1  0
 11  4  2  0
 13 44  1  0
 13 15  1  0
 13 14  1  0
 14  1  1  0
 14 12  1  0
 15 12  1  0
 16 17  2  0
 17 36  1  0
 18 17  1  0
 18 21  1  0
 19 20  1  0
 19 16  1  0
 20 18  2  0
 21 22  1  0
 22 23  2  0
 24 27  1  0
 24 23  1  0
 25 24  2  0
 26 25  1  0
 26 21  2  0
 27 28  1  0
 28 29  1  0
 29 30  2  0
 31 30  1  0
 31 35  1  0
 32 31  2  0
 33 28  2  0
 33 32  1  0
 34 33  1  0
 36 37  1  0
 37 40  1  0
 37 39  1  0
 38 36  2  0
 41 42  1  0
 41 16  1  0
 43 41  1  0
 44 46  2  0
 45 44  1  0
 47 48  2  0
 47  1  1  0
 49 50  1  0
 49 48  1  0
 51 62  2  0
 52 50  1  0
 52 57  1  0
 53 61  1  0
 53 63  1  0
 54 60  1  0
 54 56  1  0
 55 61  1  0
 56 57  2  0
 56 55  1  0
 58 52  2  0
 59 58  1  0
 59 54  2  0
 60 53  1  0
 61 51  1  0
 63 65  2  0
 64 63  1  0
 66 64  1  0
 67 76  2  0
 67 72  1  0
 68 64  1  0
 68 72  1  0
 69 68  1  0
 70 71  1  0
 70 69  1  0
 71 67  1  0
 72 73  2  0
 73 74  1  0
 75 74  2  0
 76 75  1  0
 77 51  1  0
 77 82  1  0
 77 78  1  0
 78 81  1  1
 78 79  1  0
 80 78  1  0
 82 85  1  0
 83 87  1  0
 83 82  1  0
 84 83  2  0
 87 86  1  0
 89 87  1  0
 89 90  1  0
 89 88  1  0
M  ISO  4   4 100  15 100  49 101  50 101
M  END
>  <TORSDO>  (49) 
F 20

>  <SCORE>  (49) 
-15.252

>  <name>  (49) 
48

>  <ligand_id>  (49) 
48

>  <original_smiles>  (49) 
[H]c1c([H])c([H])c2c(c1[H])C([H])([H])C([H])([H])C([H])([H])C2([H])N([H])C(=O)C1([H])N(C(=O)C([H])(N([H])C(=O)C([H])(N([H])C([H])([H])[H])C([H])([H])[H])C(C([H])([H])[H])(C([H])([H])[H])C([H])([H])[H])C([H])([H])c2c([H])c(OC([H])([H])C([H])([H])C([H])([H])[N+]([H])([H])C3([H])C([H])([H])N(C(=O)N4C([H])([H])C([H])([H])C([H])([H])C([H])(n5nc(-c6c([H])c([H])c(Oc7c([H])c([H])c(F)c([H])c7F)c([H])c6[H])c(C(=O)N([H])[H])c5N([H])[H])C4([H])[H])C3([H])C(=O)C([H])([H])[H])c([H])c([H])c2C1([H])[H]

>  <smiles>  (49) 
[H]c1c([H])c([H])c2c(c1[H])C([H])([H])C([H])([H])C([H])([H])C2([H])N([H])C(=O)C1([H])N(C(=O)C([H])(N([H])C(=O)C([H])(N([H])C([H])([H])[H])C([H])([H])[H])C(C([H])([H])[H])(C([H])([H])[H])C([H])([H])[H])C([H])([H])c2c([H])c(OC([H])([H])C([H])([H])C([H])([H])[N+]([H])([H])C3([H])C([H])([H])N(C(=O)N4C([H])([H])C([H])([H])C([H])([H])C([H])(n5nc(-c6c([H])c([H])c(Oc7c([H])c([H])c(F)c([H])c7F)c([H])c6[H])c(C(=O)N([H])[H])c5N([H])[H])C4([H])[H])C3([H])C(=O)C([H])([H])[H])c([H])c([H])c2C1([H])[H]

$$$$
49:0:0
     RDKit          3D

 86 94  0  0  1  0  0  0  0  0999 V2000
  -28.7180  -22.0460   21.2730 C   0  0  0  0  0  2  0  0  0  0  0  0
  -28.9690  -22.0030   19.2820 C   0  0  0  0  0  2  0  0  0  0  0  0
  -29.4720  -20.9480   20.3760 C   0  0  0  0  0  3  0  0  0  0  0  0
  -28.9370  -23.2770   20.2650 C   0  0  0  0  0  3  0  0  0  0  0  0
  -29.0530  -19.3320   20.3750 C   0  0  0  0  0  0  0  0  0  0  0  0
  -27.8640  -19.0110   20.4090 O   0  0  0  0  0  0  0  0  0  0  0  0
  -30.0950  -18.0360   20.3480 C   0  0  0  0  0  3  0  0  0  0  0  0
  -29.6440  -16.4220   20.6260 C   0  0  0  0  0  3  0  0  0  0  0  0
  -30.5110  -15.0250   20.3370 C   0  0  0  0  0  0  0  0  0  0  0  0
  -30.4390  -12.6660   19.3880 C   0  0  0  0  0  2  0  0  0  0  0  0
  -29.5070  -12.6350   18.1520 C   0  0  0  0  0  2  0  0  0  0  0  0
  -28.0410  -12.4160   18.5740 C   0  0  0  0  0  2  0  0  0  0  0  0
  -27.6270  -13.3290   19.7570 C   0  0  0  0  0  3  0  0  0  0  0  0
  -28.6790  -13.3280   20.8850 C   0  0  0  0  0  2  0  0  0  0  0  0
  -29.9600  -13.7430   20.3010 N   0  0  0  0  0  0  0  0  0  0  0  0
  -31.7020  -15.1160   20.0160 O   0  0  0  0  0  0  0  0  0  0  0  0
  -25.2410  -13.8980   20.4870 C   0  0  0  0  0  0  0  0  0  0  0  0
  -24.1780  -13.1170   20.8530 C   0  0  0  0  0  0  0  0  0  0  0  0
  -24.6490  -11.7690   20.8250 C   0  0  0  0  0  0  0  0  0  0  0  0
  -26.2890  -13.0240   20.2500 N   0  0  0  0  0  0  0  0  0  0  0  0
  -25.9420  -11.7380   20.5200 N   0  0  0  0  0  0  0  0  0  0  0  0
  -23.9270  -10.5040   21.0140 C   0  0  0  0  0  0  0  0  0  0  0  0
  -24.3500   -9.5450   21.9600 C   0  0  0  0  0  3  0  0  0  0  0  0
  -23.6270   -8.3460   22.1360 C   0  0  0  0  0  3  0  0  0  0  0  0
  -22.4660   -8.0960   21.3670 C   0  0  0  0  0  0  0  0  0  0  0  0
  -22.0620   -9.0450   20.4100 C   0  0  0  0  0  3  0  0  0  0  0  0
  -22.7860  -10.2350   20.2310 C   0  0  0  0  0  3  0  0  0  0  0  0
  -21.7150   -6.9490   21.4510 O   0  0  0  0  0  0  0  0  0  0  0  0
  -21.6420   -6.2210   22.6110 C   0  0  0  0  0  0  0  0  0  0  0  0
  -21.1760   -6.7870   23.8180 C   0  0  0  0  0  3  0  0  0  0  0  0
  -21.0500   -5.9850   24.9700 C   0  0  0  0  0  3  0  0  0  0  0  0
  -21.3790   -4.6180   24.9160 C   0  0  0  0  0  0  0  0  0  0  0  0
  -21.8390   -4.0510   23.7140 C   0  0  0  0  0  3  0  0  0  0  0  0
  -21.9660   -4.8500   22.5640 C   0  0  0  0  0  0  0  0  0  0  0  0
  -22.3880   -4.2940   21.4030 F   0  0  0  0  0  0  0  0  0  0  0  0
  -21.2520   -3.8450   26.0200 F   0  0  0  0  0  0  0  0  0  0  0  0
  -22.7770  -13.5890   21.1150 C   0  0  0  0  0  0  0  0  0  0  0  0
  -22.0500  -12.8950   21.9820 N   0  0  0  0  0  0  0  0  0  0  0  0
  -22.3370  -14.6090   20.5870 O   0  0  0  0  0  0  0  0  0  0  0  0
  -22.4180  -12.0690   22.4310 H   0  0  0  0  0  0  0  0  0  0  0  0
  -21.1090  -13.1920   22.2010 H   0  0  0  0  0  0  0  0  0  0  0  0
  -25.4000  -15.2690   20.3120 N   0  0  0  0  0  0  0  0  0  0  0  0
  -24.6320  -15.9220   20.4340 H   0  0  0  0  0  0  0  0  0  0  0  0
  -26.2540  -15.7190   20.0110 H   0  0  0  0  0  0  0  0  0  0  0  0
  -27.9510  -24.6460   20.0720 C   0  0  0  0  0  2  0  0  0  0  0  0
  -28.2390  -26.1730   20.2750 O   0  0  0  0  0  0  0  0  0  0  0  0
  -24.6420  -31.9070   23.2460 C   0  0  0  0  0  0  0  0  0  0  0  0
  -27.1900  -27.1710   20.2080 C   0  0  0  0  0  0  0  0  0  0  0  0
  -23.4300  -30.5140   21.6150 C   0  0  0  0  0  3  0  0  0  0  0  0
  -24.8670  -28.9330   20.1850 C   0  0  0  0  0  0  0  0  0  0  0  0
  -25.9860  -30.7680   21.4390 C   0  0  0  0  0  2  0  0  0  0  0  0
  -26.0520  -29.3740   20.7880 C   0  0  0  0  0  0  0  0  0  0  0  0
  -27.2150  -28.5100   20.7810 C   0  0  0  0  0  3  0  0  0  0  0  0
  -25.9760  -26.8370   19.5680 C   0  0  0  0  0  3  0  0  0  0  0  0
  -24.8430  -27.6790   19.5590 C   0  0  0  0  0  3  0  0  0  0  0  0
  -23.6430  -29.8350   20.2370 C   0  0  0  0  0  2  0  0  0  0  0  0
  -24.7070  -31.0850   22.1550 N   0  0  0  0  0  0  0  0  0  0  0  0
  -23.5590  -32.1970   23.7790 O   0  0  0  0  0  0  0  0  0  0  0  0
  -22.7530  -29.5100   22.5820 C   0  0  0  0  0  0  0  0  0  0  0  0
  -21.4230  -29.3420   22.4610 N   0  0  0  0  0  0  0  0  0  0  0  0
  -23.4250  -28.8850   23.4060 O   0  0  0  0  0  0  0  0  0  0  0  0
  -20.9360  -29.8980   21.7720 H   0  0  0  0  0  0  0  0  0  0  0  0
  -18.0420  -28.1480   22.9770 C   0  0  0  0  0  0  0  0  0  0  0  0
  -20.6020  -28.4090   23.2370 C   0  0  0  0  0  3  0  0  0  0  0  0
  -20.7010  -26.9750   22.6690 C   0  0  0  0  0  2  0  0  0  0  0  0
  -19.5960  -26.6480   21.6580 C   0  0  0  0  0  2  0  0  0  0  0  0
  -18.2170  -26.7970   22.3040 C   0  0  0  0  0  2  0  0  0  0  0  0
  -19.1610  -28.9120   23.3990 C   0  0  0  0  0  0  0  0  0  0  0  0
  -18.9430  -30.1760   23.9900 C   0  0  0  0  0  3  0  0  0  0  0  0
  -17.6380  -30.6760   24.1600 C   0  0  0  0  0  3  0  0  0  0  0  0
  -16.5330  -29.9100   23.7510 C   0  0  0  0  0  3  0  0  0  0  0  0
  -16.7360  -28.6480   23.1650 C   0  0  0  0  0  3  0  0  0  0  0  0
  -25.9250  -32.5410   23.8660 C   0  0  0  0  0  3  0  0  0  0  0  0
  -26.4400  -31.7700   25.1450 C   0  0  1  0  0  0  0  0  0  0  0  0
  -25.3480  -31.5390   26.2150 C   0  0  0  0  0  1  0  0  0  0  0  0
  -27.0180  -30.3900   24.7600 C   0  0  0  0  0  1  0  0  0  0  0  0
  -27.5940  -32.5630   25.8030 C   0  0  0  0  0  1  0  0  0  0  0  0
  -25.6160  -33.9400   24.2030 N   0  0  0  0  0  0  0  0  0  0  0  0
  -25.9260  -34.9960   23.4400 C   0  0  0  0  0  0  0  0  0  0  0  0
  -26.5680  -34.8950   22.3910 O   0  0  0  0  0  0  0  0  0  0  0  0
  -25.0420  -34.0920   25.0190 H   0  0  0  0  0  0  0  0  0  0  0  0
  -24.1740  -36.7810   23.1520 C   0  0  0  0  0  1  0  0  0  0  0  0
  -25.4510  -36.3850   23.9120 C   0  0  0  0  0  3  0  0  0  0  0  0
  -27.6100  -37.2870   24.6560 C   0  0  0  0  0  1  0  0  0  0  0  0
  -26.4720  -37.4430   23.7550 N   0  0  0  0  0  0  0  0  0  0  0  0
  -26.0650  -38.3620   23.9110 H   0  0  0  0  0  0  0  0  0  0  0  0
  2  4  1  0
  2  3  1  0
  3  5  1  0
  3  1  1  0
  4 45  1  0
  4  1  1  0
  5  6  2  0
  7  5  1  0
  7  8  2  0
  9  8  1  0
 10 15  1  0
 11 12  1  0
 11 10  1  0
 13 12  1  0
 13 20  1  0
 13 14  1  0
 15  9  1  0
 15 14  1  0
 16  9  2  0
 17 18  2  0
 18 37  1  0
 19 18  1  0
 19 22  1  0
 20 17  1  0
 20 21  1  0
 21 19  2  0
 22 23  1  0
 23 24  2  0
 25 28  1  0
 25 24  1  0
 26 25  2  0
 27 26  1  0
 27 22  2  0
 28 29  1  0
 29 30  1  0
 30 31  2  0
 32 31  1  0
 32 36  1  0
 33 32  2  0
 34 29  2  0
 34 33  1  0
 35 34  1  0
 37 38  1  0
 38 41  1  0
 38 40  1  0
 39 37  2  0
 42 43  1  0
 42 17  1  0
 44 42  1  0
 45 46  1  0
 47 58  2  0
 48 46  1  0
 48 53  1  0
 49 57  1  0
 49 59  1  0
 50 56  1  0
 50 52  1  0
 51 57  1  0
 52 51  1  0
 53 52  2  0
 54 48  2  0
 55 54  1  0
 55 50  2  0
 56 49  1  0
 57 47  1  0
 59 61  2  0
 60 59  1  0
 62 60  1  0
 63 72  2  0
 63 68  1  0
 64 60  1  0
 64 68  1  0
 65 64  1  0
 66 67  1  0
 66 65  1  0
 67 63  1  0
 68 69  2  0
 69 70  1  0
 71 70  2  0
 72 71  1  0
 73 47  1  0
 73 78  1  0
 73 74  1  0
 74 77  1  1
 74 75  1  0
 76 74  1  0
 78 81  1  0
 79 83  1  0
 79 78  1  0
 80 79  2  0
 83 82  1  0
 85 86  1  0
 85 83  1  0
 85 84  1  0
M  ISO  4   8 100   9 100  45 101  46 101
M  END
>  <TORSDO>  (50) 
F 20

>  <SCORE>  (50) 
-15.223

>  <name>  (50) 
49

>  <ligand_id>  (50) 
49

>  <original_smiles>  (50) 
[H]c1c([H])c([H])c2c(c1[H])C([H])([H])C([H])([H])C([H])([H])C2([H])N([H])C(=O)C1([H])N(C(=O)C([H])(N([H])C(=O)C([H])(N([H])C([H])([H])[H])C([H])([H])[H])C(C([H])([H])[H])(C([H])([H])[H])C([H])([H])[H])C([H])([H])c2c([H])c(OC([H])([H])C3([H])C([H])([H])C([H])(C(=O)C([H])([H])C([H])([H])C(=O)N4C([H])([H])C([H])([H])C([H])([H])C([H])(n5nc(-c6c([H])c([H])c(Oc7c([H])c([H])c(F)c([H])c7F)c([H])c6[H])c(C(=O)N([H])[H])c5N([H])[H])C4([H])[H])C3([H])[H])c([H])c([H])c2C1([H])[H]

>  <smiles>  (50) 
[H]c1c([H])c([H])c2c(c1[H])C([H])([H])C([H])([H])C([H])([H])C2([H])N([H])C(=O)C1([H])N(C(=O)C([H])(N([H])C(=O)C([H])(N([H])C([H])([H])[H])C([H])([H])[H])C(C([H])([H])[H])(C([H])([H])[H])C([H])([H])[H])C([H])([H])c2c([H])c(OC([H])([H])C3([H])C([H])([H])C([H])(C(=O)C([H])([H])C([H])([H])C(=O)N4C([H])([H])C([H])([H])C([H])([H])C([H])(n5nc(-c6c([H])c([H])c(Oc7c([H])c([H])c(F)c([H])c7F)c([H])c6[H])c(C(=O)N([H])[H])c5N([H])[H])C4([H])[H])C3([H])[H])c([H])c([H])c2C1([H])[H]

$$$$
50:0:0
     RDKit          3D

 89 97  0  0  1  0  0  0  0  0999 V2000
  -28.6980  -20.1760   19.3160 C   0  0  0  0  0  2  0  0  0  0  0  0
  -30.3400  -21.0020   20.1310 C   0  0  0  0  0  2  0  0  0  0  0  0
  -29.1500  -21.7350   19.3600 C   0  0  0  0  0  3  0  0  0  0  0  0
  -30.1750  -19.5430   19.4110 C   0  0  0  0  0  3  0  0  0  0  0  0
  -28.1260  -23.0920   19.6980 C   0  0  0  0  0  2  0  0  0  0  0  0
  -28.4330  -24.6480   20.3470 C   0  0  0  0  0  2  0  0  0  0  0  0
  -28.3080  -26.1330   19.8060 O   0  0  0  0  0  0  0  0  0  0  0  0
  -24.6770  -31.7830   23.0310 C   0  0  0  0  0  0  0  0  0  0  0  0
  -27.2110  -27.0770   19.9080 C   0  0  0  0  0  0  0  0  0  0  0  0
  -23.4580  -30.4110   21.3880 C   0  0  0  0  0  3  0  0  0  0  0  0
  -24.8840  -28.8420   19.9270 C   0  0  0  0  0  0  0  0  0  0  0  0
  -26.0090  -30.6700   21.1900 C   0  0  0  0  0  2  0  0  0  0  0  0
  -26.0740  -29.2780   20.5240 C   0  0  0  0  0  0  0  0  0  0  0  0
  -27.2380  -28.4160   20.4880 C   0  0  0  0  0  3  0  0  0  0  0  0
  -25.9900  -26.7400   19.2890 C   0  0  0  0  0  3  0  0  0  0  0  0
  -24.8560  -27.5870   19.2950 C   0  0  0  0  0  3  0  0  0  0  0  0
  -23.6600  -29.7450   20.0000 C   0  0  0  0  0  2  0  0  0  0  0  0
  -24.7360  -30.9780   21.9250 N   0  0  0  0  0  0  0  0  0  0  0  0
  -23.5980  -32.0570   23.5790 O   0  0  0  0  0  0  0  0  0  0  0  0
  -22.7910  -29.3930   22.3460 C   0  0  0  0  0  0  0  0  0  0  0  0
  -21.4590  -29.2290   22.2400 N   0  0  0  0  0  0  0  0  0  0  0  0
  -23.4730  -28.7500   23.1480 O   0  0  0  0  0  0  0  0  0  0  0  0
  -20.9650  -29.7930   21.5630 H   0  0  0  0  0  0  0  0  0  0  0  0
  -18.0860  -28.0200   22.7820 C   0  0  0  0  0  0  0  0  0  0  0  0
  -20.6510  -28.2800   23.0080 C   0  0  0  0  0  3  0  0  0  0  0  0
  -20.7410  -26.8570   22.4070 C   0  0  0  0  0  2  0  0  0  0  0  0
  -19.6200  -26.5450   21.4120 C   0  0  0  0  0  2  0  0  0  0  0  0
  -18.2550  -26.6770   22.0920 C   0  0  0  0  0  2  0  0  0  0  0  0
  -19.2130  -28.7780   23.2030 C   0  0  0  0  0  0  0  0  0  0  0  0
  -19.0030  -30.0300   23.8180 C   0  0  0  0  0  3  0  0  0  0  0  0
  -17.6990  -30.5240   24.0210 C   0  0  0  0  0  3  0  0  0  0  0  0
  -16.5880  -29.7640   23.6160 C   0  0  0  0  0  3  0  0  0  0  0  0
  -16.7830  -28.5140   23.0020 C   0  0  0  0  0  3  0  0  0  0  0  0
  -25.9600  -32.4130   23.6510 C   0  0  0  0  0  3  0  0  0  0  0  0
  -25.6300  -33.7840   24.0760 N   0  0  0  0  0  0  0  0  0  0  0  0
  -25.9390  -34.8930   23.3910 C   0  0  0  0  0  0  0  0  0  0  0  0
  -26.6000  -34.8720   22.3490 O   0  0  0  0  0  0  0  0  0  0  0  0
  -25.0430  -33.8730   24.8920 H   0  0  0  0  0  0  0  0  0  0  0  0
  -24.1810  -36.6830   23.1890 C   0  0  0  0  0  1  0  0  0  0  0  0
  -25.4410  -36.2410   23.9510 C   0  0  0  0  0  3  0  0  0  0  0  0
  -27.5760  -37.1050   24.8050 C   0  0  0  0  0  1  0  0  0  0  0  0
  -26.4560  -37.3160   23.8910 N   0  0  0  0  0  0  0  0  0  0  0  0
  -26.0390  -38.2180   24.1040 H   0  0  0  0  0  0  0  0  0  0  0  0
  -26.5290  -31.5850   24.8700 C   0  0  1  0  0  0  0  0  0  0  0  0
  -25.4710  -31.2680   25.9540 C   0  0  0  0  0  1  0  0  0  0  0  0
  -27.1290  -30.2440   24.3910 C   0  0  0  0  0  1  0  0  0  0  0  0
  -27.6820  -32.3680   25.5410 C   0  0  0  0  0  1  0  0  0  0  0  0
  -30.7710  -18.0540   20.0610 C   0  0  0  0  0  3  0  0  0  0  0  0
  -31.4850  -15.3360   19.5470 C   0  0  0  0  0  0  0  0  0  0  0  0
  -31.3130  -12.9040   18.7620 C   0  0  0  0  0  2  0  0  0  0  0  0
  -30.2960  -12.7390   17.6050 C   0  0  0  0  0  2  0  0  0  0  0  0
  -28.8610  -12.5830   18.1460 C   0  0  0  0  0  2  0  0  0  0  0  0
  -28.5350  -13.6130   19.2580 C   0  0  0  0  0  3  0  0  0  0  0  0
  -29.6580  -13.7080   20.3070 C   0  0  0  0  0  2  0  0  0  0  0  0
  -30.8780  -14.0760   19.5760 N   0  0  0  0  0  0  0  0  0  0  0  0
  -32.7020  -15.3500   19.3270 O   0  0  0  0  0  0  0  0  0  0  0  0
  -30.6900  -16.5380   19.5310 N   0  0  0  0  0  0  0  0  0  0  0  0
  -29.7250  -16.2780   19.3930 H   0  0  0  0  0  0  0  0  0  0  0  0
  -26.2780  -14.3330   20.2180 C   0  0  0  0  0  0  0  0  0  0  0  0
  -25.1950  -13.6220   20.6550 C   0  0  0  0  0  0  0  0  0  0  0  0
  -25.5570  -12.2430   20.5460 C   0  0  0  0  0  0  0  0  0  0  0  0
  -27.2300  -13.3910   19.8650 N   0  0  0  0  0  0  0  0  0  0  0  0
  -26.8120  -12.1270   20.1280 N   0  0  0  0  0  0  0  0  0  0  0  0
  -24.7570  -11.0290   20.7540 C   0  0  0  0  0  0  0  0  0  0  0  0
  -25.1390  -10.0390   21.6880 C   0  0  0  0  0  3  0  0  0  0  0  0
  -24.3390   -8.8940   21.8840 C   0  0  0  0  0  3  0  0  0  0  0  0
  -23.1420   -8.7280   21.1470 C   0  0  0  0  0  0  0  0  0  0  0  0
  -22.7790   -9.7030   20.2010 C   0  0  0  0  0  3  0  0  0  0  0  0
  -23.5800  -10.8400   20.0040 C   0  0  0  0  0  3  0  0  0  0  0  0
  -22.3190   -7.6340   21.2510 O   0  0  0  0  0  0  0  0  0  0  0  0
  -22.1580   -6.9630   22.4370 C   0  0  0  0  0  0  0  0  0  0  0  0
  -21.6950   -7.6140   23.6020 C   0  0  0  0  0  3  0  0  0  0  0  0
  -21.4760   -6.8740   24.7810 C   0  0  0  0  0  3  0  0  0  0  0  0
  -21.7120   -5.4860   24.7970 C   0  0  0  0  0  0  0  0  0  0  0  0
  -22.1670   -4.8360   23.6360 C   0  0  0  0  0  3  0  0  0  0  0  0
  -22.3860   -5.5730   22.4590 C   0  0  0  0  0  0  0  0  0  0  0  0
  -22.8040   -4.9370   21.3380 F   0  0  0  0  0  0  0  0  0  0  0  0
  -21.4940   -4.7750   25.9270 F   0  0  0  0  0  0  0  0  0  0  0  0
  -23.8610  -14.1860   21.0490 C   0  0  0  0  0  0  0  0  0  0  0  0
  -23.1680  -13.5320   21.9730 N   0  0  0  0  0  0  0  0  0  0  0  0
  -23.4480  -15.2430   20.5710 O   0  0  0  0  0  0  0  0  0  0  0  0
  -23.5150  -12.6750   22.3780 H   0  0  0  0  0  0  0  0  0  0  0  0
  -22.2780  -13.8950   22.2850 H   0  0  0  0  0  0  0  0  0  0  0  0
  -26.5230  -15.6940   20.0630 N   0  0  0  0  0  0  0  0  0  0  0  0
  -25.8080  -16.3880   20.2500 H   0  0  0  0  0  0  0  0  0  0  0  0
  -27.3420  -16.0850   19.6200 H   0  0  0  0  0  0  0  0  0  0  0  0
  -30.2760  -17.9950   21.5290 C   0  0  0  0  0  2  0  0  0  0  0  0
  -30.6630  -17.4020   23.9760 C   0  0  0  0  0  1  0  0  0  0  0  0
  -31.2330  -17.3520   22.5500 C   0  0  0  0  0  2  0  0  0  0  0  0
  1  3  1  0
  1  4  1  0
  3  5  1  0
  3  2  1  0
  4 48  1  0
  4  2  1  0
  5  6  1  0
  7  9  1  0
  7  6  1  0
  8 19  2  0
  9 14  1  0
 10 18  1  0
 10 20  1  0
 11 17  1  0
 11 13  1  0
 12 18  1  0
 13 12  1  0
 14 13  2  0
 15 16  1  0
 15  9  2  0
 16 11  2  0
 17 10  1  0
 18  8  1  0
 20 22  2  0
 21 20  1  0
 23 21  1  0
 24 33  2  0
 24 29  1  0
 25 21  1  0
 25 29  1  0
 26 25  1  0
 27 28  1  0
 27 26  1  0
 28 24  1  0
 29 30  2  0
 30 31  1  0
 32 31  2  0
 33 32  1  0
 34  8  1  0
 34 35  1  0
 34 44  1  0
 35 38  1  0
 36 40  1  0
 36 35  1  0
 37 36  2  0
 40 39  1  0
 42 40  1  0
 42 43  1  0
 42 41  1  0
 44 47  1  1
 44 45  1  0
 46 44  1  0
 48 87  1  0
 49 55  1  0
 50 55  1  0
 51 52  1  0
 51 50  1  0
 53 52  1  0
 53 62  1  0
 53 54  1  0
 55 54  1  0
 56 49  2  0
 57 49  1  0
 57 48  1  0
 58 57  1  0
 59 60  2  0
 60 79  1  0
 61 60  1  0
 61 64  1  0
 62 63  1  0
 62 59  1  0
 63 61  2  0
 64 65  1  0
 65 66  2  0
 67 70  1  0
 67 66  1  0
 68 67  2  0
 69 68  1  0
 69 64  2  0
 70 71  1  0
 71 76  2  0
 71 72  1  0
 72 73  2  0
 73 74  1  0
 74 78  1  0
 75 74  2  0
 76 75  1  0
 77 76  1  0
 79 80  1  0
 80 83  1  0
 80 82  1  0
 81 79  2  0
 84 59  1  0
 84 85  1  0
 86 84  1  0
 87 89  1  0
 89 88  1  0
M  ISO  4   6 101   7 101  49 100  57 100
M  END
>  <TORSDO>  (51) 
F 21

>  <SCORE>  (51) 
-11.634

>  <name>  (51) 
50

>  <ligand_id>  (51) 
50

>  <original_smiles>  (51) 
[H]c1c([H])c([H])c2c(c1[H])C([H])([H])C([H])([H])C([H])([H])C2([H])N([H])C(=O)C1([H])N(C(=O)C([H])(N([H])C(=O)C([H])(N([H])C([H])([H])[H])C([H])([H])[H])C(C([H])([H])[H])(C([H])([H])[H])C([H])([H])[H])C([H])([H])c2c([H])c(OC([H])([H])C([H])([H])C3([H])C([H])([H])C([H])(C([H])(N([H])C(=O)N4C([H])([H])C([H])([H])C([H])([H])C([H])(n5nc(-c6c([H])c([H])c(Oc7c([H])c([H])c(F)c([H])c7F)c([H])c6[H])c(C(=O)N([H])[H])c5N([H])[H])C4([H])[H])C([H])([H])C([H])([H])C([H])([H])[H])C3([H])[H])c([H])c([H])c2C1([H])[H]

>  <smiles>  (51) 
[H]c1c([H])c([H])c2c(c1[H])C([H])([H])C([H])([H])C([H])([H])C2([H])N([H])C(=O)C1([H])N(C(=O)C([H])(N([H])C(=O)C([H])(N([H])C([H])([H])[H])C([H])([H])[H])C(C([H])([H])[H])(C([H])([H])[H])C([H])([H])[H])C([H])([H])c2c([H])c(OC([H])([H])C([H])([H])C3([H])C([H])([H])C([H])(C([H])(N([H])C(=O)N4C([H])([H])C([H])([H])C([H])([H])C([H])(n5nc(-c6c([H])c([H])c(Oc7c([H])c([H])c(F)c([H])c7F)c([H])c6[H])c(C(=O)N([H])[H])c5N([H])[H])C4([H])[H])C([H])([H])C([H])([H])C([H])([H])[H])C3([H])[H])c([H])c([H])c2C1([H])[H]

$$$$
51:0:0
     RDKit          3D

 90 98  0  0  1  0  0  0  0  0999 V2000
  -28.4850  -22.1730   19.2000 C   0  0  0  0  0  3  0  0  0  0  0  0
  -29.0150  -22.3020   21.4320 C   0  0  0  0  0  3  0  0  0  0  0  0
  -28.2310  -23.6320   19.1520 C   0  0  0  0  0  3  0  0  0  0  0  0
  -28.7670  -23.7740   21.3780 C   0  0  0  0  0  3  0  0  0  0  0  0
  -28.8950  -21.3510   20.3360 C   0  0  0  0  0  0  0  0  0  0  0  0
  -28.3160  -24.5830   20.2460 C   0  0  0  0  0  0  0  0  0  0  0  0
  -28.2530  -26.1080   20.1720 O   0  0  0  0  0  0  0  0  0  0  0  0
  -24.5550  -31.9360   23.1390 C   0  0  0  0  0  0  0  0  0  0  0  0
  -27.1600  -27.1040   20.1500 C   0  0  0  0  0  0  0  0  0  0  0  0
  -23.3600  -30.5170   21.5140 C   0  0  0  0  0  3  0  0  0  0  0  0
  -24.8190  -28.9120   20.1010 C   0  0  0  0  0  0  0  0  0  0  0  0
  -25.9170  -30.7670   21.3460 C   0  0  0  0  0  2  0  0  0  0  0  0
  -26.0010  -29.3530   20.7080 C   0  0  0  0  0  0  0  0  0  0  0  0
  -27.1610  -28.4680   20.7140 C   0  0  0  0  0  3  0  0  0  0  0  0
  -25.9470  -26.7970   19.4960 C   0  0  0  0  0  3  0  0  0  0  0  0
  -24.8130  -27.6520   19.4780 C   0  0  0  0  0  3  0  0  0  0  0  0
  -23.5870  -29.8150   20.1440 C   0  0  0  0  0  2  0  0  0  0  0  0
  -24.6320  -31.1000   22.0540 N   0  0  0  0  0  0  0  0  0  0  0  0
  -23.4680  -32.2190   23.6680 O   0  0  0  0  0  0  0  0  0  0  0  0
  -22.6840  -29.5230   22.4940 C   0  0  0  0  0  0  0  0  0  0  0  0
  -21.3550  -29.3500   22.3830 N   0  0  0  0  0  0  0  0  0  0  0  0
  -23.3630  -28.9070   23.3210 O   0  0  0  0  0  0  0  0  0  0  0  0
  -20.8610  -29.8920   21.6870 H   0  0  0  0  0  0  0  0  0  0  0  0
  -17.9850  -28.1380   22.9410 C   0  0  0  0  0  0  0  0  0  0  0  0
  -20.5460  -28.4140   23.1700 C   0  0  0  0  0  3  0  0  0  0  0  0
  -20.6470  -26.9810   22.5990 C   0  0  0  0  0  2  0  0  0  0  0  0
  -19.5330  -26.6500   21.6010 C   0  0  0  0  0  2  0  0  0  0  0  0
  -18.1600  -26.7910   22.2630 C   0  0  0  0  0  2  0  0  0  0  0  0
  -19.1050  -28.9080   23.3530 C   0  0  0  0  0  0  0  0  0  0  0  0
  -18.8880  -30.1670   23.9540 C   0  0  0  0  0  3  0  0  0  0  0  0
  -17.5820  -30.6590   24.1430 C   0  0  0  0  0  3  0  0  0  0  0  0
  -16.4760  -29.8870   23.7440 C   0  0  0  0  0  3  0  0  0  0  0  0
  -16.6780  -28.6290   23.1500 C   0  0  0  0  0  3  0  0  0  0  0  0
  -25.8290  -32.5900   23.7550 C   0  0  0  0  0  3  0  0  0  0  0  0
  -26.3630  -31.8270   25.0300 C   0  0  1  0  0  0  0  0  0  0  0  0
  -25.2790  -31.5800   26.1050 C   0  0  0  0  0  1  0  0  0  0  0  0
  -26.9590  -30.4540   24.6460 C   0  0  0  0  0  1  0  0  0  0  0  0
  -27.5080  -32.6350   25.6860 C   0  0  0  0  0  1  0  0  0  0  0  0
  -25.5010  -33.9840   24.0990 N   0  0  0  0  0  0  0  0  0  0  0  0
  -25.8310  -35.0540   23.3630 C   0  0  0  0  0  0  0  0  0  0  0  0
  -26.5080  -34.9720   22.3350 O   0  0  0  0  0  0  0  0  0  0  0  0
  -24.8980  -34.1210   24.8950 H   0  0  0  0  0  0  0  0  0  0  0  0
  -24.1050  -36.8560   23.0230 C   0  0  0  0  0  1  0  0  0  0  0  0
  -25.3340  -36.4330   23.8430 C   0  0  0  0  0  3  0  0  0  0  0  0
  -27.4530  -37.3100   24.7240 C   0  0  0  0  0  1  0  0  0  0  0  0
  -26.3640  -37.4930   23.7660 N   0  0  0  0  0  0  0  0  0  0  0  0
  -25.9520  -38.4080   23.9280 H   0  0  0  0  0  0  0  0  0  0  0  0
  -28.9150  -19.6130   20.2770 C   0  0  0  0  0  2  0  0  0  0  0  0
  -29.7870  -16.8170   20.3810 C   0  0  0  0  0  0  0  0  0  0  0  0
  -29.7470  -18.2080   20.8620 C   0  0  0  0  0  0  0  0  0  0  0  0
  -30.5490  -15.4390   20.8160 C   0  0  0  0  0  0  0  0  0  0  0  0
  -30.6150  -12.9460   20.1040 C   0  0  0  0  0  2  0  0  0  0  0  0
  -29.8270  -12.6520   18.8040 C   0  0  0  0  0  2  0  0  0  0  0  0
  -28.3400  -12.3750   19.1060 C   0  0  0  0  0  2  0  0  0  0  0  0
  -27.7560  -13.3700   20.1400 C   0  0  0  0  0  3  0  0  0  0  0  0
  -28.6980  -13.6550   21.3280 C   0  0  0  0  0  2  0  0  0  0  0  0
  -29.9810  -14.1320   20.7820 N   0  0  0  0  0  0  0  0  0  0  0  0
  -31.7870  -15.3920   20.8640 O   0  0  0  0  0  0  0  0  0  0  0  0
  -25.3340  -13.9260   20.6780 C   0  0  0  0  0  0  0  0  0  0  0  0
  -24.2530  -13.1450   20.9650 C   0  0  0  0  0  0  0  0  0  0  0  0
  -24.7380  -11.8010   21.0090 C   0  0  0  0  0  0  0  0  0  0  0  0
  -26.4030  -13.0550   20.5520 N   0  0  0  0  0  0  0  0  0  0  0  0
  -26.0510  -11.7740   20.8220 N   0  0  0  0  0  0  0  0  0  0  0  0
  -24.0150  -10.5340   21.1550 C   0  0  0  0  0  0  0  0  0  0  0  0
  -24.3910   -9.5810   22.1260 C   0  0  0  0  0  3  0  0  0  0  0  0
  -23.6660   -8.3780   22.2640 C   0  0  0  0  0  3  0  0  0  0  0  0
  -22.5520   -8.1210   21.4310 C   0  0  0  0  0  0  0  0  0  0  0  0
  -22.1980   -9.0630   20.4490 C   0  0  0  0  0  3  0  0  0  0  0  0
  -22.9220  -10.2580   20.3090 C   0  0  0  0  0  3  0  0  0  0  0  0
  -21.8040   -6.9710   21.4780 O   0  0  0  0  0  0  0  0  0  0  0  0
  -21.6970   -6.2300   22.6280 C   0  0  0  0  0  0  0  0  0  0  0  0
  -21.1900   -6.7800   23.8270 C   0  0  0  0  0  3  0  0  0  0  0  0
  -21.0330   -5.9640   24.9640 C   0  0  0  0  0  3  0  0  0  0  0  0
  -21.3680   -4.5970   24.9030 C   0  0  0  0  0  0  0  0  0  0  0  0
  -21.8650   -4.0460   23.7110 C   0  0  0  0  0  3  0  0  0  0  0  0
  -22.0270   -4.8600   22.5750 C   0  0  0  0  0  0  0  0  0  0  0  0
  -22.4870   -4.3200   21.4200 F   0  0  0  0  0  0  0  0  0  0  0  0
  -21.2090   -3.8110   25.9940 F   0  0  0  0  0  0  0  0  0  0  0  0
  -22.8320  -13.6090   21.0850 C   0  0  0  0  0  0  0  0  0  0  0  0
  -22.0340  -12.9380   21.9070 N   0  0  0  0  0  0  0  0  0  0  0  0
  -22.4340  -14.6070   20.4850 O   0  0  0  0  0  0  0  0  0  0  0  0
  -22.3660  -12.1360   22.4210 H   0  0  0  0  0  0  0  0  0  0  0  0
  -21.0760  -13.2350   22.0270 H   0  0  0  0  0  0  0  0  0  0  0  0
  -25.4950  -15.2960   20.4820 N   0  0  0  0  0  0  0  0  0  0  0  0
  -24.7130  -15.9400   20.5110 H   0  0  0  0  0  0  0  0  0  0  0  0
  -26.3680  -15.7390   20.2250 H   0  0  0  0  0  0  0  0  0  0  0  0
  -29.9460  -17.2470   17.8850 C   0  0  0  0  0  1  0  0  0  0  0  0
  -29.0960  -16.6750   19.0300 C   0  0  0  0  0  2  0  0  0  0  0  0
  -30.4120  -18.5690   21.9670 O   0  0  0  0  0  0  0  0  0  0  0  0
  -30.1770  -19.4690   22.1550 H   0  0  0  0  0  0  0  0  0  0  0  0
  1  5  1  0
  3  1  2  0
  3  6  1  0
  4  2  1  0
  5  2  2  0
  6  4  2  0
  7  6  1  0
  8 19  2  0
  9  7  1  0
  9 14  1  0
 10 18  1  0
 10 20  1  0
 11 17  1  0
 11 13  1  0
 12 18  1  0
 13 14  2  0
 13 12  1  0
 15  9  2  0
 16 15  1  0
 16 11  2  0
 17 10  1  0
 18  8  1  0
 20 22  2  0
 21 20  1  0
 23 21  1  0
 24 33  2  0
 24 29  1  0
 25 21  1  0
 25 29  1  0
 26 25  1  0
 27 28  1  0
 27 26  1  0
 28 24  1  0
 29 30  2  0
 30 31  1  0
 32 31  2  0
 33 32  1  0
 34  8  1  0
 34 39  1  0
 34 35  1  0
 35 38  1  1
 35 36  1  0
 37 35  1  0
 39 42  1  0
 40 44  1  0
 40 39  1  0
 41 40  2  0
 44 43  1  0
 46 44  1  0
 46 47  1  0
 46 45  1  0
 48  5  1  0
 48 50  1  0
 49 51  1  0
 49 50  2  0
 50 89  1  0
 51 58  2  0
 52 57  1  0
 53 54  1  0
 53 52  1  0
 55 54  1  0
 55 62  1  0
 55 56  1  0
 57 51  1  0
 57 56  1  0
 59 60  2  0
 60 61  1  0
 60 79  1  0
 61 64  1  0
 62 59  1  0
 62 63  1  0
 63 61  2  0
 64 65  1  0
 65 66  2  0
 67 70  1  0
 67 66  1  0
 68 67  2  0
 69 68  1  0
 69 64  2  0
 70 71  1  0
 71 72  1  0
 72 73  2  0
 74 73  1  0
 74 78  1  0
 75 74  2  0
 76 71  2  0
 76 75  1  0
 77 76  1  0
 79 80  1  0
 80 83  1  0
 80 82  1  0
 81 79  2  0
 84 85  1  0
 84 59  1  0
 86 84  1  0
 87 88  1  0
 88 49  1  0
 89 90  1  0
M  ISO  4   6 101   7 101  49 100  51 100
M  END
>  <TORSDO>  (52) 
F 20

>  <SCORE>  (52) 
-14.467

>  <name>  (52) 
51

>  <ligand_id>  (52) 
51

>  <original_smiles>  (52) 
[H]OC(=C(C(=O)N1C([H])([H])C([H])([H])C([H])([H])C([H])(n2nc(-c3c([H])c([H])c(Oc4c([H])c([H])c(F)c([H])c4F)c([H])c3[H])c(C(=O)N([H])[H])c2N([H])[H])C1([H])[H])C([H])([H])C([H])([H])[H])C([H])([H])c1c([H])c([H])c(Oc2c([H])c([H])c3c(c2[H])C([H])([H])N(C(=O)C([H])(N([H])C(=O)C([H])(N([H])C([H])([H])[H])C([H])([H])[H])C(C([H])([H])[H])(C([H])([H])[H])C([H])([H])[H])C([H])(C(=O)N([H])C2([H])c4c([H])c([H])c([H])c([H])c4C([H])([H])C([H])([H])C2([H])[H])C3([H])[H])c([H])c1[H]

>  <smiles>  (52) 
[H]OC(=C(C(=O)N1C([H])([H])C([H])([H])C([H])([H])C([H])(n2nc(-c3c([H])c([H])c(Oc4c([H])c([H])c(F)c([H])c4F)c([H])c3[H])c(C(=O)N([H])[H])c2N([H])[H])C1([H])[H])C([H])([H])C([H])([H])[H])C([H])([H])c1c([H])c([H])c(Oc2c([H])c([H])c3c(c2[H])C([H])([H])N(C(=O)C([H])(N([H])C(=O)C([H])(N([H])C([H])([H])[H])C([H])([H])[H])C(C([H])([H])[H])(C([H])([H])[H])C([H])([H])[H])C([H])(C(=O)N([H])C2([H])c4c([H])c([H])c([H])c([H])c4C([H])([H])C([H])([H])C2([H])[H])C3([H])[H])c([H])c1[H]

$$$$
52:0:0
     RDKit          3D

 88 96  0  0  1  0  0  0  0  0999 V2000
  -30.2370  -20.7410   20.2640 C   0  0  0  0  0  2  0  0  0  0  0  0
  -28.8710  -21.2520   20.0850 C   0  0  0  0  0  3  0  0  0  0  0  0
  -29.3340  -19.5900   20.6310 C   0  0  0  0  0  3  0  0  0  0  0  0
  -28.7810  -22.9100   20.6540 C   0  0  0  0  0  3  0  0  0  0  0  0
  -27.9810  -24.3630   20.0400 C   0  0  0  0  0  3  0  0  0  0  0  0
  -28.1790  -25.9460   20.3490 O   0  0  0  0  0  0  0  0  0  0  0  0
  -24.6270  -31.8730   23.2290 C   0  0  0  0  0  0  0  0  0  0  0  0
  -27.1700  -27.0180   20.2400 C   0  0  0  0  0  0  0  0  0  0  0  0
  -23.4310  -30.4700   21.5960 C   0  0  0  0  0  3  0  0  0  0  0  0
  -24.8760  -28.8680   20.1740 C   0  0  0  0  0  0  0  0  0  0  0  0
  -25.9910  -30.6900   21.4480 C   0  0  0  0  0  2  0  0  0  0  0  0
  -26.0580  -29.2820   20.8010 C   0  0  0  0  0  0  0  0  0  0  0  0
  -27.1990  -28.3730   20.8200 C   0  0  0  0  0  3  0  0  0  0  0  0
  -25.9680  -26.7480   19.5530 C   0  0  0  0  0  3  0  0  0  0  0  0
  -24.8500  -27.6200   19.5320 C   0  0  0  0  0  3  0  0  0  0  0  0
  -23.6570  -29.7850   20.2200 C   0  0  0  0  0  2  0  0  0  0  0  0
  -24.7030  -31.0370   22.1440 N   0  0  0  0  0  0  0  0  0  0  0  0
  -23.5400  -32.1670   23.7490 O   0  0  0  0  0  0  0  0  0  0  0  0
  -22.7390  -29.4780   22.5640 C   0  0  0  0  0  0  0  0  0  0  0  0
  -21.4090  -29.3180   22.4400 N   0  0  0  0  0  0  0  0  0  0  0  0
  -23.4050  -28.8550   23.3950 O   0  0  0  0  0  0  0  0  0  0  0  0
  -20.9280  -29.8660   21.7400 H   0  0  0  0  0  0  0  0  0  0  0  0
  -18.0220  -28.1290   22.9540 C   0  0  0  0  0  0  0  0  0  0  0  0
  -20.5830  -28.3890   23.2170 C   0  0  0  0  0  3  0  0  0  0  0  0
  -20.6830  -26.9550   22.6470 C   0  0  0  0  0  2  0  0  0  0  0  0
  -19.5780  -26.6300   21.6360 C   0  0  0  0  0  2  0  0  0  0  0  0
  -18.1960  -26.7790   22.2790 C   0  0  0  0  0  2  0  0  0  0  0  0
  -19.1430  -28.8920   23.3790 C   0  0  0  0  0  0  0  0  0  0  0  0
  -18.9250  -30.1550   23.9720 C   0  0  0  0  0  3  0  0  0  0  0  0
  -17.6210  -30.6550   24.1440 C   0  0  0  0  0  3  0  0  0  0  0  0
  -16.5150  -29.8910   23.7340 C   0  0  0  0  0  3  0  0  0  0  0  0
  -16.7170  -28.6300   23.1430 C   0  0  0  0  0  3  0  0  0  0  0  0
  -25.9020  -32.5130   23.8570 C   0  0  0  0  0  3  0  0  0  0  0  0
  -25.5880  -33.9140   24.1880 N   0  0  0  0  0  0  0  0  0  0  0  0
  -25.9180  -34.9710   23.4350 C   0  0  0  0  0  0  0  0  0  0  0  0
  -26.5800  -34.8700   22.3990 O   0  0  0  0  0  0  0  0  0  0  0  0
  -24.9950  -34.0660   24.9900 H   0  0  0  0  0  0  0  0  0  0  0  0
  -24.1860  -36.7710   23.1080 C   0  0  0  0  0  1  0  0  0  0  0  0
  -25.4360  -36.3600   23.9020 C   0  0  0  0  0  3  0  0  0  0  0  0
  -27.5800  -37.2470   24.7110 C   0  0  0  0  0  1  0  0  0  0  0  0
  -26.4680  -37.4150   23.7780 N   0  0  0  0  0  0  0  0  0  0  0  0
  -26.0630  -38.3360   23.9290 H   0  0  0  0  0  0  0  0  0  0  0  0
  -26.4060  -31.7500   25.1460 C   0  0  1  0  0  0  0  0  0  0  0  0
  -25.3040  -31.5260   26.2080 C   0  0  0  0  0  1  0  0  0  0  0  0
  -26.9880  -30.3660   24.7750 C   0  0  0  0  0  1  0  0  0  0  0  0
  -27.5570  -32.5450   25.8080 C   0  0  0  0  0  1  0  0  0  0  0  0
  -30.0650  -18.0570   20.1060 C   0  0  0  0  0  0  0  0  0  0  0  0
  -30.4510  -15.1750   20.2830 C   0  0  0  0  0  0  0  0  0  0  0  0
  -30.3440  -12.7750   19.3720 C   0  0  0  0  0  2  0  0  0  0  0  0
  -29.4220  -12.6600   18.1350 C   0  0  0  0  0  2  0  0  0  0  0  0
  -27.9590  -12.4390   18.5640 C   0  0  0  0  0  2  0  0  0  0  0  0
  -27.5410  -13.3640   19.7380 C   0  0  0  0  0  3  0  0  0  0  0  0
  -28.6010  -13.4350   20.8600 C   0  0  0  0  0  2  0  0  0  0  0  0
  -29.8410  -13.9040   20.2310 N   0  0  0  0  0  0  0  0  0  0  0  0
  -31.6580  -15.1280   20.0250 O   0  0  0  0  0  0  0  0  0  0  0  0
  -29.7380  -16.4610   20.4120 N   0  0  0  0  0  4  0  0  0  0  0  0
  -28.7660  -16.3110   20.6320 H   0  0  0  0  0  0  0  0  0  0  0  0
  -25.1690  -13.9210   20.4910 C   0  0  0  0  0  0  0  0  0  0  0  0
  -24.1100  -13.1440   20.8620 C   0  0  0  0  0  0  0  0  0  0  0  0
  -24.5790  -11.7930   20.8360 C   0  0  0  0  0  0  0  0  0  0  0  0
  -26.2140  -13.0470   20.2470 N   0  0  0  0  0  0  0  0  0  0  0  0
  -25.8700  -11.7610   20.5230 N   0  0  0  0  0  0  0  0  0  0  0  0
  -23.8520  -10.5310   21.0280 C   0  0  0  0  0  0  0  0  0  0  0  0
  -24.2880   -9.5640   21.9600 C   0  0  0  0  0  3  0  0  0  0  0  0
  -23.5600   -8.3680   22.1440 C   0  0  0  0  0  3  0  0  0  0  0  0
  -22.3830   -8.1300   21.3950 C   0  0  0  0  0  0  0  0  0  0  0  0
  -21.9650   -9.0870   20.4530 C   0  0  0  0  0  3  0  0  0  0  0  0
  -22.6930  -10.2740   20.2670 C   0  0  0  0  0  3  0  0  0  0  0  0
  -21.6260   -6.9870   21.4870 O   0  0  0  0  0  0  0  0  0  0  0  0
  -21.5870   -6.2410   22.6380 C   0  0  0  0  0  0  0  0  0  0  0  0
  -21.1730   -6.7930   23.8700 C   0  0  0  0  0  3  0  0  0  0  0  0
  -21.0810   -5.9740   25.0130 C   0  0  0  0  0  3  0  0  0  0  0  0
  -21.3930   -4.6050   24.9250 C   0  0  0  0  0  0  0  0  0  0  0  0
  -21.8000   -4.0520   23.6990 C   0  0  0  0  0  3  0  0  0  0  0  0
  -21.8950   -4.8670   22.5580 C   0  0  0  0  0  0  0  0  0  0  0  0
  -22.2690   -4.3260   21.3740 F   0  0  0  0  0  0  0  0  0  0  0  0
  -21.2970   -3.8160   26.0220 F   0  0  0  0  0  0  0  0  0  0  0  0
  -22.7130  -13.6200   21.1240 C   0  0  0  0  0  0  0  0  0  0  0  0
  -21.9810  -12.9290   21.9890 N   0  0  0  0  0  0  0  0  0  0  0  0
  -22.2780  -14.6430   20.5970 O   0  0  0  0  0  0  0  0  0  0  0  0
  -22.3500  -12.1050   22.4420 H   0  0  0  0  0  0  0  0  0  0  0  0
  -21.0410  -13.2300   22.2060 H   0  0  0  0  0  0  0  0  0  0  0  0
  -25.3250  -15.2930   20.3100 N   0  0  0  0  0  0  0  0  0  0  0  0
  -24.5450  -15.9340   20.4040 H   0  0  0  0  0  0  0  0  0  0  0  0
  -26.1530  -15.7300   19.9290 H   0  0  0  0  0  0  0  0  0  0  0  0
  -31.6150  -18.1600   20.2980 C   0  0  0  0  0  2  0  0  0  0  0  0
  -32.8830  -19.1620   18.2600 C   0  0  0  0  0  1  0  0  0  0  0  0
  -32.4580  -17.9010   19.0270 C   0  0  0  0  0  2  0  0  0  0  0  0
  1  3  1  0
  2  1  1  0
  2  3  1  0
  2  4  1  0
  3 47  1  0
  5  6  1  0
  5  4  2  0
  7 18  2  0
  8  6  1  0
  8 13  1  0
  9 17  1  0
  9 19  1  0
 10 16  1  0
 10 12  1  0
 11 17  1  0
 12 13  2  0
 12 11  1  0
 14  8  2  0
 15 14  1  0
 15 10  2  0
 16  9  1  0
 17  7  1  0
 19 21  2  0
 20 19  1  0
 22 20  1  0
 23 32  2  0
 23 28  1  0
 24 20  1  0
 24 28  1  0
 25 24  1  0
 26 27  1  0
 26 25  1  0
 27 23  1  0
 28 29  2  0
 29 30  1  0
 31 30  2  0
 32 31  1  0
 33  7  1  0
 33 34  1  0
 33 43  1  0
 34 37  1  0
 35 39  1  0
 35 34  1  0
 36 35  2  0
 39 38  1  0
 41 39  1  0
 41 42  1  0
 41 40  1  0
 43 46  1  1
 43 44  1  0
 45 43  1  0
 47 86  1  0
 47 56  2  0
 48 56  1  0
 49 54  1  0
 50 51  1  0
 50 49  1  0
 52 51  1  0
 52 61  1  0
 52 53  1  0
 54 48  1  0
 54 53  1  0
 55 48  2  0
 56 57  1  0
 58 59  2  0
 59 78  1  0
 60 59  1  0
 60 63  1  0
 61 58  1  0
 61 62  1  0
 62 60  2  0
 63 64  1  0
 64 65  2  0
 66 69  1  0
 66 65  1  0
 67 66  2  0
 68 67  1  0
 68 63  2  0
 69 70  1  0
 70 71  1  0
 71 72  2  0
 73 72  1  0
 73 77  1  0
 74 73  2  0
 75 70  2  0
 75 74  1  0
 76 75  1  0
 78 79  1  0
 79 82  1  0
 79 81  1  0
 80 78  2  0
 83 84  1  0
 83 58  1  0
 85 83  1  0
 87 88  1  0
 88 86  1  0
M  ISO  4   5 101   6 101  48 100  56 100
M  END
>  <TORSDO>  (53) 
F 21

>  <SCORE>  (53) 
-14.686

>  <name>  (53) 
52

>  <ligand_id>  (53) 
52

>  <original_smiles>  (53) 
[H]c1c([H])c([H])c2c(c1[H])C([H])([H])C([H])([H])C([H])([H])C2([H])N([H])C(=O)C1([H])N(C(=O)C([H])(N([H])C(=O)C([H])(N([H])C([H])([H])[H])C([H])([H])[H])C(C([H])([H])[H])(C([H])([H])[H])C([H])([H])[H])C([H])([H])c2c([H])c(OC([H])([H])C([H])([H])C3([H])C([H])([H])C3([H])C([H])(N([H])C(=O)N3C([H])([H])C([H])([H])C([H])([H])C([H])(n4nc(-c5c([H])c([H])c(Oc6c([H])c([H])c(F)c([H])c6F)c([H])c5[H])c(C(=O)N([H])[H])c4N([H])[H])C3([H])[H])C([H])([H])C([H])([H])C([H])([H])[H])c([H])c([H])c2C1([H])[H]

>  <smiles>  (53) 
[H]c1c([H])c([H])c2c(c1[H])C([H])([H])C([H])([H])C([H])([H])C2([H])N([H])C(=O)C1([H])N(C(=O)C([H])(N([H])C(=O)C([H])(N([H])C([H])([H])[H])C([H])([H])[H])C(C([H])([H])[H])(C([H])([H])[H])C([H])([H])[H])C([H])([H])c2c([H])c(OC([H])([H])C([H])([H])C3([H])C([H])([H])C3([H])C([H])(N([H])C(=O)N3C([H])([H])C([H])([H])C([H])([H])C([H])(n4nc(-c5c([H])c([H])c(Oc6c([H])c([H])c(F)c([H])c6F)c([H])c5[H])c(C(=O)N([H])[H])c4N([H])[H])C3([H])[H])C([H])([H])C([H])([H])C([H])([H])[H])c([H])c([H])c2C1([H])[H]

$$$$
53:0:0
     RDKit          3D

 92100  0  0  1  0  0  0  0  0999 V2000
  -28.7260  -21.6400   20.1100 C   0  0  0  0  0  3  0  0  0  0  0  0
  -30.8570  -15.3220   19.7420 C   0  0  0  0  0  0  0  0  0  0  0  0
  -30.6900  -12.9340   18.8380 C   0  0  0  0  0  2  0  0  0  0  0  0
  -29.6880  -12.8160   17.6680 C   0  0  0  0  0  2  0  0  0  0  0  0
  -28.2640  -12.5740   18.2000 C   0  0  0  0  0  2  0  0  0  0  0  0
  -27.9160  -13.5090   19.3900 C   0  0  0  0  0  3  0  0  0  0  0  0
  -29.0420  -13.6100   20.4390 C   0  0  0  0  0  2  0  0  0  0  0  0
  -30.2390  -14.0590   19.7210 N   0  0  0  0  0  0  0  0  0  0  0  0
  -32.0460  -15.3100   19.3930 O   0  0  0  0  0  0  0  0  0  0  0  0
  -29.6430  -19.1580   18.7520 C   0  0  0  0  0  2  0  0  0  0  0  0
  -30.4150  -17.6960   18.7670 C   0  0  0  0  0  2  0  0  0  0  0  0
  -30.0980  -17.4870   21.0320 C   0  0  0  0  0  2  0  0  0  0  0  0
  -29.5890  -20.1000   20.0500 C   0  0  0  0  0  3  0  0  0  0  0  0
  -29.2170  -18.8730   21.0500 C   0  0  0  0  0  3  0  0  0  0  0  0
  -27.7260  -18.4680   20.9810 C   0  0  0  0  0  1  0  0  0  0  0  0
  -30.1510  -16.5980   19.8020 N   0  0  0  0  0  0  0  0  0  0  0  0
  -25.6240  -14.0530   20.3640 C   0  0  0  0  0  0  0  0  0  0  0  0
  -24.5880  -13.2660   20.7860 C   0  0  0  0  0  0  0  0  0  0  0  0
  -25.0380  -11.9160   20.6550 C   0  0  0  0  0  0  0  0  0  0  0  0
  -26.6330  -13.1820   19.9930 N   0  0  0  0  0  0  0  0  0  0  0  0
  -26.2990  -11.8880   20.2370 N   0  0  0  0  0  0  0  0  0  0  0  0
  -24.3180  -10.6500   20.8470 C   0  0  0  0  0  0  0  0  0  0  0  0
  -24.7390   -9.6980   21.8020 C   0  0  0  0  0  3  0  0  0  0  0  0
  -24.0170   -8.4990   21.9850 C   0  0  0  0  0  3  0  0  0  0  0  0
  -22.8600   -8.2420   21.2110 C   0  0  0  0  0  0  0  0  0  0  0  0
  -22.4590   -9.1810   20.2440 C   0  0  0  0  0  3  0  0  0  0  0  0
  -23.1800  -10.3720   20.0600 C   0  0  0  0  0  3  0  0  0  0  0  0
  -22.1100   -7.0930   21.3010 O   0  0  0  0  0  0  0  0  0  0  0  0
  -21.9210   -6.4480   22.4970 C   0  0  0  0  0  0  0  0  0  0  0  0
  -21.3260   -7.0880   23.6060 C   0  0  0  0  0  3  0  0  0  0  0  0
  -21.0900   -6.3670   24.7930 C   0  0  0  0  0  3  0  0  0  0  0  0
  -21.4370   -5.0050   24.8700 C   0  0  0  0  0  0  0  0  0  0  0  0
  -22.0240   -4.3630   23.7660 C   0  0  0  0  0  3  0  0  0  0  0  0
  -22.2640   -5.0820   22.5820 C   0  0  0  0  0  0  0  0  0  0  0  0
  -22.8090   -4.4540   21.5120 F   0  0  0  0  0  0  0  0  0  0  0  0
  -21.2030   -4.3090   26.0080 F   0  0  0  0  0  0  0  0  0  0  0  0
  -23.2240  -13.7400   21.1910 C   0  0  0  0  0  0  0  0  0  0  0  0
  -22.5750  -13.0240   22.1010 N   0  0  0  0  0  0  0  0  0  0  0  0
  -22.7460  -14.7760   20.7340 O   0  0  0  0  0  0  0  0  0  0  0  0
  -22.9750  -12.1830   22.4870 H   0  0  0  0  0  0  0  0  0  0  0  0
  -21.6580  -13.3160   22.4100 H   0  0  0  0  0  0  0  0  0  0  0  0
  -25.7910  -15.4270   20.2350 N   0  0  0  0  0  0  0  0  0  0  0  0
  -25.0570  -16.0960   20.4420 H   0  0  0  0  0  0  0  0  0  0  0  0
  -26.6370  -15.8610   19.8890 H   0  0  0  0  0  0  0  0  0  0  0  0
  -28.2880  -21.9090   21.5600 C   0  0  0  0  0  0  0  0  0  0  0  0
  -29.2390  -22.0340   22.4790 N   0  0  0  0  0  0  0  0  0  0  0  0
  -27.1030  -22.0610   21.8500 O   0  0  0  0  0  0  0  0  0  0  0  0
  -30.2120  -21.9190   22.2300 H   0  0  0  0  0  0  0  0  0  0  0  0
  -28.9980  -22.2440   23.4390 H   0  0  0  0  0  0  0  0  0  0  0  0
  -29.1100  -23.2450   19.5730 C   0  0  0  0  0  3  0  0  0  0  0  0
  -28.0870  -24.6480   19.6290 C   0  0  0  0  0  3  0  0  0  0  0  0
  -28.3770  -26.2160   19.5500 O   0  0  0  0  0  0  0  0  0  0  0  0
  -24.7700  -31.7120   23.0560 C   0  0  0  0  0  0  0  0  0  0  0  0
  -27.3310  -27.2370   19.6020 C   0  0  0  0  0  0  0  0  0  0  0  0
  -23.5600  -30.4460   21.3230 C   0  0  0  0  0  3  0  0  0  0  0  0
  -24.9990  -29.0070   19.7490 C   0  0  0  0  0  0  0  0  0  0  0  0
  -26.1130  -30.7370   21.1460 C   0  0  0  0  0  2  0  0  0  0  0  0
  -26.1880  -29.3990   20.3760 C   0  0  0  0  0  0  0  0  0  0  0  0
  -27.3540  -28.5340   20.2820 C   0  0  0  0  0  3  0  0  0  0  0  0
  -26.1110  -26.9730   18.9420 C   0  0  0  0  0  3  0  0  0  0  0  0
  -24.9780  -27.8110   19.0170 C   0  0  0  0  0  3  0  0  0  0  0  0
  -23.7650  -29.8880   19.8910 C   0  0  0  0  0  2  0  0  0  0  0  0
  -24.8370  -30.9850   21.8980 N   0  0  0  0  0  0  0  0  0  0  0  0
  -23.6880  -31.9410   23.6200 O   0  0  0  0  0  0  0  0  0  0  0  0
  -22.9020  -29.3590   22.2090 C   0  0  0  0  0  0  0  0  0  0  0  0
  -21.5720  -29.1930   22.0980 N   0  0  0  0  0  0  0  0  0  0  0  0
  -23.5910  -28.6650   22.9610 O   0  0  0  0  0  0  0  0  0  0  0  0
  -21.0690  -29.8080   21.4740 H   0  0  0  0  0  0  0  0  0  0  0  0
  -18.2000  -27.9540   22.5950 C   0  0  0  0  0  0  0  0  0  0  0  0
  -20.7690  -28.1860   22.7980 C   0  0  0  0  0  3  0  0  0  0  0  0
  -20.8410  -26.8160   22.0830 C   0  0  0  0  0  2  0  0  0  0  0  0
  -19.7040  -26.5970   21.0800 C   0  0  0  0  0  2  0  0  0  0  0  0
  -18.3470  -26.6800   21.7810 C   0  0  0  0  0  2  0  0  0  0  0  0
  -19.3360  -28.6700   23.0580 C   0  0  0  0  0  0  0  0  0  0  0  0
  -19.1420  -29.8660   23.7840 C   0  0  0  0  0  3  0  0  0  0  0  0
  -17.8440  -30.3440   24.0500 C   0  0  0  0  0  3  0  0  0  0  0  0
  -16.7240  -29.6240   23.6000 C   0  0  0  0  0  3  0  0  0  0  0  0
  -16.9030  -28.4310   22.8770 C   0  0  0  0  0  3  0  0  0  0  0  0
  -26.0480  -32.3110   23.7170 C   0  0  0  0  0  3  0  0  0  0  0  0
  -26.5840  -31.4450   24.9240 C   0  0  1  0  0  0  0  0  0  0  0  0
  -25.5050  -31.1170   25.9840 C   0  0  0  0  0  1  0  0  0  0  0  0
  -27.1710  -30.1050   24.4260 C   0  0  0  0  0  1  0  0  0  0  0  0
  -27.7390  -32.1910   25.6330 C   0  0  0  0  0  1  0  0  0  0  0  0
  -25.7230  -33.6740   24.1730 N   0  0  0  0  0  0  0  0  0  0  0  0
  -26.0100  -34.7960   23.4990 C   0  0  0  0  0  0  0  0  0  0  0  0
  -26.6410  -34.7940   22.4390 O   0  0  0  0  0  0  0  0  0  0  0  0
  -25.1520  -33.7460   25.0030 H   0  0  0  0  0  0  0  0  0  0  0  0
  -24.2330  -36.5760   23.3840 C   0  0  0  0  0  1  0  0  0  0  0  0
  -25.5220  -36.1330   24.0930 C   0  0  0  0  0  3  0  0  0  0  0  0
  -27.6760  -37.0040   24.8890 C   0  0  0  0  0  1  0  0  0  0  0  0
  -26.5260  -37.2160   24.0140 N   0  0  0  0  0  0  0  0  0  0  0  0
  -26.1110  -38.1120   24.2500 H   0  0  0  0  0  0  0  0  0  0  0  0
  1 50  1  0
  1 45  1  0
  2 16  1  0
  3  8  1  0
  4  5  1  0
  4  3  1  0
  6  5  1  0
  6 20  1  0
  6  7  1  0
  8  2  1  0
  8  7  1  0
  9  2  2  0
 10 11  1  0
 10 13  1  0
 11 16  1  0
 12 14  1  0
 13  1  1  0
 13 14  1  0
 14 15  1  0
 16 12  1  0
 17 18  2  0
 18 37  1  0
 19 18  1  0
 19 22  1  0
 20 21  1  0
 20 17  1  0
 21 19  2  0
 22 23  1  0
 23 24  2  0
 25 28  1  0
 25 24  1  0
 26 25  2  0
 27 26  1  0
 27 22  2  0
 28 29  1  0
 29 34  2  0
 29 30  1  0
 30 31  2  0
 31 32  1  0
 32 36  1  0
 33 32  2  0
 34 33  1  0
 35 34  1  0
 37 38  1  0
 38 41  1  0
 38 40  1  0
 39 37  2  0
 42 17  1  0
 42 43  1  0
 44 42  1  0
 45 47  2  0
 45 46  1  0
 46 49  1  0
 48 46  1  0
 50 51  2  0
 52 54  1  0
 52 51  1  0
 53 64  2  0
 54 59  1  0
 55 63  1  0
 55 65  1  0
 56 62  1  0
 56 58  1  0
 57 63  1  0
 58 57  1  0
 59 58  2  0
 60 61  1  0
 60 54  2  0
 61 56  2  0
 62 55  1  0
 63 53  1  0
 65 67  2  0
 66 65  1  0
 68 66  1  0
 69 78  2  0
 69 74  1  0
 70 66  1  0
 70 74  1  0
 71 70  1  0
 72 73  1  0
 72 71  1  0
 73 69  1  0
 74 75  2  0
 75 76  1  0
 77 76  2  0
 78 77  1  0
 79 53  1  0
 79 84  1  0
 79 80  1  0
 80 83  1  1
 80 81  1  0
 82 80  1  0
 84 87  1  0
 85 89  1  0
 85 84  1  0
 86 85  2  0
 89 88  1  0
 91 89  1  0
 91 92  1  0
 91 90  1  0
M  ISO  4   2 100  16 100  51 101  52 101
M  END
>  <TORSDO>  (54) 
F 19

>  <SCORE>  (54) 
-13.664

>  <name>  (54) 
53

>  <ligand_id>  (54) 
53

>  <original_smiles>  (54) 
[H]c1c([H])c([H])c2c(c1[H])C([H])([H])C([H])([H])C([H])([H])C2([H])N([H])C(=O)C1([H])N(C(=O)C([H])(N([H])C(=O)C([H])(N([H])C([H])([H])[H])C([H])([H])[H])C(C([H])([H])[H])(C([H])([H])[H])C([H])([H])[H])C([H])([H])c2c([H])c(OC([H])([H])C([H])([H])C([H])(C(=O)N([H])[H])C3([H])C([H])([H])C([H])([H])N(C(=O)N4C([H])([H])C([H])([H])C([H])([H])C([H])(n5nc(-c6c([H])c([H])c(Oc7c([H])c([H])c(F)c([H])c7F)c([H])c6[H])c(C(=O)N([H])[H])c5N([H])[H])C4([H])[H])C([H])([H])C3([H])C([H])([H])[H])c([H])c([H])c2C1([H])[H]

>  <smiles>  (54) 
[H]c1c([H])c([H])c2c(c1[H])C([H])([H])C([H])([H])C([H])([H])C2([H])N([H])C(=O)C1([H])N(C(=O)C([H])(N([H])C(=O)C([H])(N([H])C([H])([H])[H])C([H])([H])[H])C(C([H])([H])[H])(C([H])([H])[H])C([H])([H])[H])C([H])([H])c2c([H])c(OC([H])([H])C([H])([H])C([H])(C(=O)N([H])[H])C3([H])C([H])([H])C([H])([H])N(C(=O)N4C([H])([H])C([H])([H])C([H])([H])C([H])(n5nc(-c6c([H])c([H])c(Oc7c([H])c([H])c(F)c([H])c7F)c([H])c6[H])c(C(=O)N([H])[H])c5N([H])[H])C4([H])[H])C([H])([H])C3([H])C([H])([H])[H])c([H])c([H])c2C1([H])[H]

$$$$
54:0:0
     RDKit          3D

 90 98  0  0  1  0  0  0  0  0999 V2000
  -28.4840  -22.7520   20.5530 C   0  0  0  0  0  3  0  0  0  0  0  0
  -27.0940  -22.3080   20.7960 N   0  0  0  0  0  4  0  0  0  0  0  0
  -26.5940  -22.9830   21.3500 H   0  0  0  0  0  0  0  0  0  0  0  0
  -27.0850  -21.4370   21.2970 H   0  0  0  0  0  0  0  0  0  0  0  0
  -26.5970  -22.1860   19.9320 H   0  0  0  0  0  0  0  0  0  0  0  0
  -29.4420  -21.2870   20.1410 C   0  0  0  0  0  2  0  0  0  0  0  0
  -27.5990  -17.9560   18.9800 C   0  0  0  0  0  3  0  0  0  0  0  0
  -28.4100  -16.8240   19.2330 C   0  0  0  0  0  3  0  0  0  0  0  0
  -27.9280  -19.2670   19.3850 C   0  0  0  0  0  3  0  0  0  0  0  0
  -29.9330  -18.2880   20.3520 C   0  0  0  0  0  3  0  0  0  0  0  0
  -29.5930  -16.8200   20.0020 C   0  0  0  0  0  0  0  0  0  0  0  0
  -29.1240  -19.5780   20.0560 C   0  0  0  0  0  0  0  0  0  0  0  0
  -30.3950  -15.3330   20.1170 C   0  0  0  0  0  0  0  0  0  0  0  0
  -30.3600  -12.8670   19.3070 C   0  0  0  0  0  2  0  0  0  0  0  0
  -29.4170  -12.6300   18.0990 C   0  0  0  0  0  2  0  0  0  0  0  0
  -27.9820  -12.3260   18.5720 C   0  0  0  0  0  2  0  0  0  0  0  0
  -27.5300  -13.2950   19.6860 C   0  0  0  0  0  3  0  0  0  0  0  0
  -28.6020  -13.5330   20.7740 C   0  0  0  0  0  2  0  0  0  0  0  0
  -29.8290  -14.0230   20.1170 N   0  0  0  0  0  0  0  0  0  0  0  0
  -31.6270  -15.3070   19.9800 O   0  0  0  0  0  0  0  0  0  0  0  0
  -25.1910  -13.8880   20.4920 C   0  0  0  0  0  0  0  0  0  0  0  0
  -24.1290  -13.1200   20.8720 C   0  0  0  0  0  0  0  0  0  0  0  0
  -24.5880  -11.7670   20.8340 C   0  0  0  0  0  0  0  0  0  0  0  0
  -26.2210  -12.9990   20.2320 N   0  0  0  0  0  0  0  0  0  0  0  0
  -25.8740  -11.7200   20.5060 N   0  0  0  0  0  0  0  0  0  0  0  0
  -23.8630  -10.5090   21.0270 C   0  0  0  0  0  0  0  0  0  0  0  0
  -24.3060   -9.5380   21.9510 C   0  0  0  0  0  3  0  0  0  0  0  0
  -23.5790   -8.3430   22.1350 C   0  0  0  0  0  3  0  0  0  0  0  0
  -22.3960   -8.1120   21.3930 C   0  0  0  0  0  0  0  0  0  0  0  0
  -21.9730   -9.0720   20.4570 C   0  0  0  0  0  3  0  0  0  0  0  0
  -22.7000  -10.2580   20.2710 C   0  0  0  0  0  3  0  0  0  0  0  0
  -21.6380   -6.9690   21.4880 O   0  0  0  0  0  0  0  0  0  0  0  0
  -21.6010   -6.2270   22.6400 C   0  0  0  0  0  0  0  0  0  0  0  0
  -21.1870   -6.7810   23.8720 C   0  0  0  0  0  3  0  0  0  0  0  0
  -21.1000   -5.9650   25.0170 C   0  0  0  0  0  3  0  0  0  0  0  0
  -21.4110   -4.5950   24.9310 C   0  0  0  0  0  0  0  0  0  0  0  0
  -21.8150   -4.0390   23.7050 C   0  0  0  0  0  3  0  0  0  0  0  0
  -21.9080   -4.8530   22.5620 C   0  0  0  0  0  0  0  0  0  0  0  0
  -22.2800   -4.3090   21.3780 F   0  0  0  0  0  0  0  0  0  0  0  0
  -21.3170   -3.8080   26.0280 F   0  0  0  0  0  0  0  0  0  0  0  0
  -22.7370  -13.6030   21.1570 C   0  0  0  0  0  0  0  0  0  0  0  0
  -22.0140  -12.9090   22.0280 N   0  0  0  0  0  0  0  0  0  0  0  0
  -22.3000  -14.6320   20.6430 O   0  0  0  0  0  0  0  0  0  0  0  0
  -22.3810  -12.0760   22.4640 H   0  0  0  0  0  0  0  0  0  0  0  0
  -21.0810  -13.2140   22.2640 H   0  0  0  0  0  0  0  0  0  0  0  0
  -25.3590  -15.2590   20.3170 N   0  0  0  0  0  0  0  0  0  0  0  0
  -24.6020  -15.9170   20.4650 H   0  0  0  0  0  0  0  0  0  0  0  0
  -26.2250  -15.7070   20.0450 H   0  0  0  0  0  0  0  0  0  0  0  0
  -28.3830  -24.3970   19.8360 C   0  0  0  0  0  2  0  0  0  0  0  0
  -28.2600  -25.9510   20.3560 O   0  0  0  0  0  0  0  0  0  0  0  0
  -24.6310  -31.8630   23.2010 C   0  0  0  0  0  0  0  0  0  0  0  0
  -27.2190  -27.0030   20.2110 C   0  0  0  0  0  0  0  0  0  0  0  0
  -23.4420  -30.4520   21.5690 C   0  0  0  0  0  3  0  0  0  0  0  0
  -24.8990  -28.8460   20.1500 C   0  0  0  0  0  0  0  0  0  0  0  0
  -26.0040  -30.6780   21.4210 C   0  0  0  0  0  2  0  0  0  0  0  0
  -26.0790  -29.2680   20.7740 C   0  0  0  0  0  0  0  0  0  0  0  0
  -27.2280  -28.3630   20.7860 C   0  0  0  0  0  3  0  0  0  0  0  0
  -26.0130  -26.7250   19.5290 C   0  0  0  0  0  3  0  0  0  0  0  0
  -24.8900  -27.5950   19.5080 C   0  0  0  0  0  3  0  0  0  0  0  0
  -23.6720  -29.7570   20.1960 C   0  0  0  0  0  2  0  0  0  0  0  0
  -24.7140  -31.0250   22.1170 N   0  0  0  0  0  0  0  0  0  0  0  0
  -23.5430  -32.1530   23.7220 O   0  0  0  0  0  0  0  0  0  0  0  0
  -22.7500  -29.4620   22.5410 C   0  0  0  0  0  0  0  0  0  0  0  0
  -21.4180  -29.3030   22.4230 N   0  0  0  0  0  0  0  0  0  0  0  0
  -23.4160  -28.8360   23.3690 O   0  0  0  0  0  0  0  0  0  0  0  0
  -20.9350  -29.8590   21.7310 H   0  0  0  0  0  0  0  0  0  0  0  0
  -18.0330  -28.1120   22.9480 C   0  0  0  0  0  0  0  0  0  0  0  0
  -20.5940  -28.3710   23.1990 C   0  0  0  0  0  3  0  0  0  0  0  0
  -20.6880  -26.9370   22.6260 C   0  0  0  0  0  2  0  0  0  0  0  0
  -19.5810  -26.6160   21.6180 C   0  0  0  0  0  2  0  0  0  0  0  0
  -18.2030  -26.7630   22.2690 C   0  0  0  0  0  2  0  0  0  0  0  0
  -19.1550  -28.8730   23.3700 C   0  0  0  0  0  0  0  0  0  0  0  0
  -18.9400  -30.1340   23.9680 C   0  0  0  0  0  3  0  0  0  0  0  0
  -17.6370  -30.6340   24.1470 C   0  0  0  0  0  3  0  0  0  0  0  0
  -16.5290  -29.8710   23.7390 C   0  0  0  0  0  3  0  0  0  0  0  0
  -16.7290  -28.6120   23.1460 C   0  0  0  0  0  3  0  0  0  0  0  0
  -25.9020  -32.5100   23.8330 C   0  0  0  0  0  3  0  0  0  0  0  0
  -26.4080  -31.7510   25.1220 C   0  0  1  0  0  0  0  0  0  0  0  0
  -25.3070  -31.5260   26.1850 C   0  0  0  0  0  1  0  0  0  0  0  0
  -26.9930  -30.3690   24.7560 C   0  0  0  0  0  1  0  0  0  0  0  0
  -27.5560  -32.5510   25.7840 C   0  0  0  0  0  1  0  0  0  0  0  0
  -25.5820  -33.9110   24.1610 N   0  0  0  0  0  0  0  0  0  0  0  0
  -25.9140  -34.9700   23.4120 C   0  0  0  0  0  0  0  0  0  0  0  0
  -26.5830  -34.8710   22.3800 O   0  0  0  0  0  0  0  0  0  0  0  0
  -24.9860  -34.0590   24.9620 H   0  0  0  0  0  0  0  0  0  0  0  0
  -24.1840  -36.7680   23.0750 C   0  0  0  0  0  1  0  0  0  0  0  0
  -25.4290  -36.3580   23.8770 C   0  0  0  0  0  3  0  0  0  0  0  0
  -27.5650  -37.2450   24.7020 C   0  0  0  0  0  1  0  0  0  0  0  0
  -26.4590  -37.4130   23.7630 N   0  0  0  0  0  0  0  0  0  0  0  0
  -26.0520  -38.3330   23.9140 H   0  0  0  0  0  0  0  0  0  0  0  0
  1 49  1  0
  1  2  1  0
  2  4  1  0
  2  3  1  0
  5  2  1  0
  6  1  1  0
  7  8  2  0
  7  9  1  0
  8 11  1  0
  9 12  2  0
 11 13  1  0
 11 10  2  0
 12  6  1  0
 12 10  1  0
 13 19  1  0
 14 19  1  0
 15 16  1  0
 15 14  1  0
 17 16  1  0
 17 24  1  0
 17 18  1  0
 19 18  1  0
 20 13  2  0
 21 22  2  0
 22 41  1  0
 23 22  1  0
 23 26  1  0
 24 21  1  0
 24 25  1  0
 25 23  2  0
 26 27  1  0
 27 28  2  0
 29 32  1  0
 29 28  1  0
 30 29  2  0
 31 30  1  0
 31 26  2  0
 32 33  1  0
 33 34  1  0
 34 35  2  0
 36 35  1  0
 36 40  1  0
 37 36  2  0
 38 33  2  0
 38 37  1  0
 39 38  1  0
 41 42  1  0
 42 45  1  0
 42 44  1  0
 43 41  2  0
 46 47  1  0
 46 21  1  0
 48 46  1  0
 49 50  1  0
 51 62  2  0
 52 50  1  0
 52 57  1  0
 53 61  1  0
 53 63  1  0
 54 60  1  0
 54 56  1  0
 55 61  1  0
 56 57  2  0
 56 55  1  0
 58 52  2  0
 59 58  1  0
 59 54  2  0
 60 53  1  0
 61 51  1  0
 63 65  2  0
 64 63  1  0
 66 64  1  0
 67 76  2  0
 67 72  1  0
 68 64  1  0
 68 72  1  0
 69 68  1  0
 70 71  1  0
 70 69  1  0
 71 67  1  0
 72 73  2  0
 73 74  1  0
 75 74  2  0
 76 75  1  0
 77 51  1  0
 77 82  1  0
 77 78  1  0
 78 81  1  1
 78 79  1  0
 80 78  1  0
 82 85  1  0
 83 87  1  0
 83 82  1  0
 84 83  2  0
 87 86  1  0
 89 87  1  0
 89 90  1  0
 89 88  1  0
M  ISO  4  11 100  13 100  49 101  50 101
M  END
>  <TORSDO>  (55) 
F 20

>  <SCORE>  (55) 
-16.095

>  <name>  (55) 
54

>  <ligand_id>  (55) 
54

>  <original_smiles>  (55) 
[H]c1c([H])c([H])c2c(c1[H])C([H])([H])C([H])([H])C([H])([H])C2([H])N([H])C(=O)C1([H])N(C(=O)C([H])(N([H])C(=O)C([H])(N([H])C([H])([H])[H])C([H])([H])[H])C(C([H])([H])[H])(C([H])([H])[H])C([H])([H])[H])C([H])([H])c2c([H])c(OC([H])([H])C([H])(C([H])([H])c3c([H])c([H])c([H])c(C(=O)N4C([H])([H])C([H])([H])C([H])([H])C([H])(n5nc(-c6c([H])c([H])c(Oc7c([H])c([H])c(F)c([H])c7F)c([H])c6[H])c(C(=O)N([H])[H])c5N([H])[H])C4([H])[H])c3[H])[N+]([H])([H])[H])c([H])c([H])c2C1([H])[H]

>  <smiles>  (55) 
[H]c1c([H])c([H])c2c(c1[H])C([H])([H])C([H])([H])C([H])([H])C2([H])N([H])C(=O)C1([H])N(C(=O)C([H])(N([H])C(=O)C([H])(N([H])C([H])([H])[H])C([H])([H])[H])C(C([H])([H])[H])(C([H])([H])[H])C([H])([H])[H])C([H])([H])c2c([H])c(OC([H])([H])C([H])(C([H])([H])c3c([H])c([H])c([H])c(C(=O)N4C([H])([H])C([H])([H])C([H])([H])C([H])(n5nc(-c6c([H])c([H])c(Oc7c([H])c([H])c(F)c([H])c7F)c([H])c6[H])c(C(=O)N([H])[H])c5N([H])[H])C4([H])[H])c3[H])[N+]([H])([H])[H])c([H])c([H])c2C1([H])[H]

$$$$
55:0:0
     RDKit          3D

 89 98  0  0  1  0  0  0  0  0999 V2000
  -29.7590  -17.7720   20.4970 C   0  0  0  0  0  0  0  0  0  0  0  0
  -29.5640  -16.3450   20.4600 C   0  0  0  0  0  3  0  0  0  0  0  0
  -31.1140  -18.5300   20.5330 C   0  0  0  0  0  2  0  0  0  0  0  0
  -28.5990  -18.8910   20.6980 C   0  0  0  0  0  2  0  0  0  0  0  0
  -27.8820  -21.7430   20.5290 C   0  0  0  0  0  2  0  0  0  0  0  0
  -31.1680  -20.0630   20.0530 C   0  0  0  0  0  2  0  0  0  0  0  0
  -30.1220  -22.4980   20.4030 C   0  0  0  0  0  2  0  0  0  0  0  0
  -28.6610  -23.1170   20.1520 C   0  0  0  0  0  3  0  0  0  0  0  0
  -28.7970  -20.4540   20.1870 C   0  0  0  0  0  3  0  0  0  0  0  0
  -30.0960  -20.9670   20.6040 N   0  0  1  0  0  4  0  0  0  0  0  0
  -30.1300  -20.8520   21.6060 H   0  0  0  0  0  0  0  0  0  0  0  0
  -30.4710  -15.0670   20.3220 C   0  0  0  0  0  0  0  0  0  0  0  0
  -30.3960  -12.6870   19.4020 C   0  0  0  0  0  2  0  0  0  0  0  0
  -29.4740  -12.6250   18.1590 C   0  0  0  0  0  2  0  0  0  0  0  0
  -28.0070  -12.4050   18.5720 C   0  0  0  0  0  2  0  0  0  0  0  0
  -27.5830  -13.3320   19.7400 C   0  0  0  0  0  3  0  0  0  0  0  0
  -28.6260  -13.3520   20.8760 C   0  0  0  0  0  2  0  0  0  0  0  0
  -29.9040  -13.7830   20.2910 N   0  0  0  0  0  0  0  0  0  0  0  0
  -31.6810  -15.1130   20.0660 O   0  0  0  0  0  0  0  0  0  0  0  0
  -25.1970  -13.9130   20.4540 C   0  0  0  0  0  0  0  0  0  0  0  0
  -24.1290  -13.1410   20.8200 C   0  0  0  0  0  0  0  0  0  0  0  0
  -24.5960  -11.7900   20.8060 C   0  0  0  0  0  0  0  0  0  0  0  0
  -26.2420  -13.0330   20.2300 N   0  0  0  0  0  0  0  0  0  0  0  0
  -25.8900  -11.7520   20.5090 N   0  0  0  0  0  0  0  0  0  0  0  0
  -23.8670  -10.5290   20.9990 C   0  0  0  0  0  0  0  0  0  0  0  0
  -24.2900   -9.5670   21.9420 C   0  0  0  0  0  3  0  0  0  0  0  0
  -23.5600   -8.3720   22.1220 C   0  0  0  0  0  3  0  0  0  0  0  0
  -22.3920   -8.1310   21.3600 C   0  0  0  0  0  0  0  0  0  0  0  0
  -21.9890   -9.0820   20.4060 C   0  0  0  0  0  3  0  0  0  0  0  0
  -22.7190  -10.2680   20.2230 C   0  0  0  0  0  3  0  0  0  0  0  0
  -21.6360   -6.9880   21.4490 O   0  0  0  0  0  0  0  0  0  0  0  0
  -21.5770   -6.2520   22.6050 C   0  0  0  0  0  0  0  0  0  0  0  0
  -21.1440   -6.8150   23.8260 C   0  0  0  0  0  3  0  0  0  0  0  0
  -21.0320   -6.0050   24.9730 C   0  0  0  0  0  3  0  0  0  0  0  0
  -21.3420   -4.6350   24.9030 C   0  0  0  0  0  0  0  0  0  0  0  0
  -21.7690   -4.0700   23.6870 C   0  0  0  0  0  3  0  0  0  0  0  0
  -21.8820   -4.8770   22.5410 C   0  0  0  0  0  0  0  0  0  0  0  0
  -22.2720   -4.3250   21.3670 F   0  0  0  0  0  0  0  0  0  0  0  0
  -21.2290   -3.8540   26.0030 F   0  0  0  0  0  0  0  0  0  0  0  0
  -22.7290  -13.6200   21.0680 C   0  0  0  0  0  0  0  0  0  0  0  0
  -21.9900  -12.9330   21.9330 N   0  0  0  0  0  0  0  0  0  0  0  0
  -22.2980  -14.6390   20.5310 O   0  0  0  0  0  0  0  0  0  0  0  0
  -22.3530  -12.1090   22.3890 H   0  0  0  0  0  0  0  0  0  0  0  0
  -21.0500  -13.2360   22.1420 H   0  0  0  0  0  0  0  0  0  0  0  0
  -25.3600  -15.2820   20.2670 N   0  0  0  0  0  0  0  0  0  0  0  0
  -24.5890  -15.9330   20.3620 H   0  0  0  0  0  0  0  0  0  0  0  0
  -26.2050  -15.7190   19.9180 H   0  0  0  0  0  0  0  0  0  0  0  0
  -28.1080  -24.6470   20.7260 C   0  0  0  0  0  2  0  0  0  0  0  0
  -28.3450  -26.1520   20.3110 O   0  0  0  0  0  0  0  0  0  0  0  0
  -24.6320  -31.8900   23.2310 C   0  0  0  0  0  0  0  0  0  0  0  0
  -27.2840  -27.1440   20.2800 C   0  0  0  0  0  0  0  0  0  0  0  0
  -23.4660  -30.4730   21.5850 C   0  0  0  0  0  3  0  0  0  0  0  0
  -24.9470  -28.8920   20.1960 C   0  0  0  0  0  0  0  0  0  0  0  0
  -26.0230  -30.7490   21.4550 C   0  0  0  0  0  2  0  0  0  0  0  0
  -26.1170  -29.3480   20.8170 C   0  0  0  0  0  0  0  0  0  0  0  0
  -27.2880  -28.4930   20.8360 C   0  0  0  0  0  3  0  0  0  0  0  0
  -26.0870  -26.7980   19.6180 C   0  0  0  0  0  3  0  0  0  0  0  0
  -24.9470  -27.6310   19.5790 C   0  0  0  0  0  3  0  0  0  0  0  0
  -23.7130  -29.7850   20.2160 C   0  0  0  0  0  2  0  0  0  0  0  0
  -24.7270  -31.0610   22.1450 N   0  0  0  0  0  0  0  0  0  0  0  0
  -23.5360  -32.1700   23.7400 O   0  0  0  0  0  0  0  0  0  0  0  0
  -22.7800  -29.4700   22.5460 C   0  0  0  0  0  0  0  0  0  0  0  0
  -21.4530  -29.2970   22.4090 N   0  0  0  0  0  0  0  0  0  0  0  0
  -23.4440  -28.8490   23.3790 O   0  0  0  0  0  0  0  0  0  0  0  0
  -20.9720  -29.8490   21.7120 H   0  0  0  0  0  0  0  0  0  0  0  0
  -18.0670  -28.1030   22.9030 C   0  0  0  0  0  0  0  0  0  0  0  0
  -20.6250  -28.3610   23.1770 C   0  0  0  0  0  3  0  0  0  0  0  0
  -20.7260  -26.9290   22.6000 C   0  0  0  0  0  2  0  0  0  0  0  0
  -19.6270  -26.6090   21.5830 C   0  0  0  0  0  2  0  0  0  0  0  0
  -18.2430  -26.7550   22.2230 C   0  0  0  0  0  2  0  0  0  0  0  0
  -19.1860  -28.8630   23.3360 C   0  0  0  0  0  0  0  0  0  0  0  0
  -18.9650  -30.1240   23.9330 C   0  0  0  0  0  3  0  0  0  0  0  0
  -17.6600  -30.6240   24.1000 C   0  0  0  0  0  3  0  0  0  0  0  0
  -16.5560  -29.8610   23.6820 C   0  0  0  0  0  3  0  0  0  0  0  0
  -16.7600  -28.6030   23.0890 C   0  0  0  0  0  3  0  0  0  0  0  0
  -25.8950  -32.5410   23.8720 C   0  0  0  0  0  3  0  0  0  0  0  0
  -25.5660  -33.9390   24.1930 N   0  0  0  0  0  0  0  0  0  0  0  0
  -25.8920  -34.9960   23.4370 C   0  0  0  0  0  0  0  0  0  0  0  0
  -26.5670  -34.8970   22.4090 O   0  0  0  0  0  0  0  0  0  0  0  0
  -24.9650  -34.0890   24.9900 H   0  0  0  0  0  0  0  0  0  0  0  0
  -24.1450  -36.7740   23.0800 C   0  0  0  0  0  1  0  0  0  0  0  0
  -25.3920  -36.3820   23.8910 C   0  0  0  0  0  3  0  0  0  0  0  0
  -27.5180  -37.2950   24.7170 C   0  0  0  0  0  1  0  0  0  0  0  0
  -26.4130  -37.4460   23.7730 N   0  0  0  0  0  0  0  0  0  0  0  0
  -25.9980  -38.3620   23.9150 H   0  0  0  0  0  0  0  0  0  0  0  0
  -26.3930  -31.7850   25.1650 C   0  0  1  0  0  0  0  0  0  0  0  0
  -25.2840  -31.5500   26.2160 C   0  0  0  0  0  1  0  0  0  0  0  0
  -26.9920  -30.4070   24.8010 C   0  0  0  0  0  1  0  0  0  0  0  0
  -27.5270  -32.5920   25.8390 C   0  0  0  0  0  1  0  0  0  0  0  0
  1  3  1  0
  1  4  1  0
  2  1  2  0
  6  3  1  0
  6 10  1  0
  7 10  1  0
  8  7  1  0
  8  5  1  0
  8 48  1  0
  9  5  1  0
  9 10  1  0
  9  4  1  0
 10 11  1  1
 12  2  1  0
 13 18  1  0
 14 15  1  0
 14 13  1  0
 16 15  1  0
 16 23  1  0
 16 17  1  0
 18 12  1  0
 18 17  1  0
 19 12  2  0
 20 21  2  0
 21 40  1  0
 22 21  1  0
 22 25  1  0
 23 20  1  0
 23 24  1  0
 24 22  2  0
 25 26  1  0
 26 27  2  0
 28 31  1  0
 28 27  1  0
 29 28  2  0
 30 29  1  0
 30 25  2  0
 31 32  1  0
 32 33  1  0
 33 34  2  0
 35 34  1  0
 35 39  1  0
 36 35  2  0
 37 32  2  0
 37 36  1  0
 38 37  1  0
 40 41  1  0
 41 44  1  0
 41 43  1  0
 42 40  2  0
 45 46  1  0
 45 20  1  0
 47 45  1  0
 49 48  1  0
 50 61  2  0
 51 49  1  0
 51 56  1  0
 52 60  1  0
 52 62  1  0
 53 59  1  0
 53 55  1  0
 54 60  1  0
 55 56  2  0
 55 54  1  0
 57 51  2  0
 58 57  1  0
 58 53  2  0
 59 52  1  0
 60 50  1  0
 62 64  2  0
 63 62  1  0
 65 63  1  0
 66 75  2  0
 66 71  1  0
 67 63  1  0
 67 71  1  0
 68 67  1  0
 69 70  1  0
 69 68  1  0
 70 66  1  0
 71 72  2  0
 72 73  1  0
 74 73  2  0
 75 74  1  0
 76 50  1  0
 76 77  1  0
 76 86  1  0
 77 80  1  0
 78 82  1  0
 78 77  1  0
 79 78  2  0
 82 81  1  0
 84 82  1  0
 84 85  1  0
 84 83  1  0
 86 89  1  1
 86 87  1  0
 88 86  1  0
M  ISO  4   2 100  12 100  48 101  49 101
M  END
>  <TORSDO>  (56) 
F 17

>  <SCORE>  (56) 
-15.683

>  <name>  (56) 
55

>  <ligand_id>  (56) 
55

>  <original_smiles>  (56) 
[H]C(C(=O)N1C([H])([H])C([H])([H])C([H])([H])C([H])(n2nc(-c3c([H])c([H])c(Oc4c([H])c([H])c(F)c([H])c4F)c([H])c3[H])c(C(=O)N([H])[H])c2N([H])[H])C1([H])[H])=C1C([H])([H])C([H])([H])[N+]2([H])C([H])([H])C([H])(C([H])([H])Oc3c([H])c([H])c4c(c3[H])C([H])([H])N(C(=O)C([H])(N([H])C(=O)C([H])(N([H])C([H])([H])[H])C([H])([H])[H])C(C([H])([H])[H])(C([H])([H])[H])C([H])([H])[H])C([H])(C(=O)N([H])C3([H])c5c([H])c([H])c([H])c([H])c5C([H])([H])C([H])([H])C3([H])[H])C4([H])[H])C([H])([H])C2([H])C1([H])[H]

>  <smiles>  (56) 
[H]C(C(=O)N1C([H])([H])C([H])([H])C([H])([H])C([H])(n2nc(-c3c([H])c([H])c(Oc4c([H])c([H])c(F)c([H])c4F)c([H])c3[H])c(C(=O)N([H])[H])c2N([H])[H])C1([H])[H])=C1C([H])([H])C([H])([H])[N+]2([H])C([H])([H])C([H])(C([H])([H])Oc3c([H])c([H])c4c(c3[H])C([H])([H])N(C(=O)C([H])(N([H])C(=O)C([H])(N([H])C([H])([H])[H])C([H])([H])[H])C(C([H])([H])[H])(C([H])([H])[H])C([H])([H])[H])C([H])(C(=O)N([H])C3([H])c5c([H])c([H])c([H])c([H])c5C([H])([H])C([H])([H])C3([H])[H])C4([H])[H])C([H])([H])C2([H])C1([H])[H]

$$$$
56:0:0
     RDKit          3D

 91 99  0  0  1  0  0  0  0  0999 V2000
  -30.4330  -20.0720   21.4920 C   0  0  0  0  0  2  0  0  0  0  0  0
  -29.8930  -21.5540   21.6160 C   0  0  0  0  0  2  0  0  0  0  0  0
  -29.3100  -20.6240   19.5510 C   0  0  0  0  0  2  0  0  0  0  0  0
  -29.5670  -19.2740   20.4760 C   0  0  0  0  0  3  0  0  0  0  0  0
  -29.0760  -21.9040   20.4190 N   0  0  2  0  0  4  0  0  0  0  0  0
  -28.1170  -21.8100   20.7170 H   0  0  0  0  0  0  0  0  0  0  0  0
  -30.2970  -16.4840   20.6130 C   0  0  0  0  0  0  0  0  0  0  0  0
  -30.1380  -17.7730   19.9770 C   0  0  0  0  0  0  0  0  0  0  0  0
  -30.9110  -15.1690   19.9870 C   0  0  0  0  0  0  0  0  0  0  0  0
  -30.6680  -12.8530   18.9400 C   0  0  0  0  0  2  0  0  0  0  0  0
  -29.6560  -12.8900   17.7670 C   0  0  0  0  0  2  0  0  0  0  0  0
  -28.2110  -12.6860   18.2670 C   0  0  0  0  0  2  0  0  0  0  0  0
  -27.9090  -13.5290   19.5320 C   0  0  0  0  0  3  0  0  0  0  0  0
  -29.0390  -13.4120   20.5710 C   0  0  0  0  0  2  0  0  0  0  0  0
  -30.2820  -13.9050   19.9410 N   0  0  0  0  0  0  0  0  0  0  0  0
  -32.0300  -15.2000   19.4610 O   0  0  0  0  0  0  0  0  0  0  0  0
  -25.5990  -14.1070   20.4730 C   0  0  0  0  0  0  0  0  0  0  0  0
  -24.5470  -13.3310   20.8790 C   0  0  0  0  0  0  0  0  0  0  0  0
  -24.9790  -11.9760   20.7410 C   0  0  0  0  0  0  0  0  0  0  0  0
  -26.6020  -13.2250   20.1070 N   0  0  0  0  0  0  0  0  0  0  0  0
  -26.2430  -11.9340   20.3330 N   0  0  0  0  0  0  0  0  0  0  0  0
  -24.2410  -10.7180   20.9170 C   0  0  0  0  0  0  0  0  0  0  0  0
  -24.6530   -9.7430   21.8520 C   0  0  0  0  0  3  0  0  0  0  0  0
  -23.9130   -8.5520   22.0180 C   0  0  0  0  0  3  0  0  0  0  0  0
  -22.7460   -8.3280   21.2500 C   0  0  0  0  0  0  0  0  0  0  0  0
  -22.3520   -9.2930   20.3040 C   0  0  0  0  0  3  0  0  0  0  0  0
  -23.0930  -10.4750   20.1370 C   0  0  0  0  0  3  0  0  0  0  0  0
  -21.9790   -7.1900   21.3230 O   0  0  0  0  0  0  0  0  0  0  0  0
  -21.8040   -6.5150   22.5060 C   0  0  0  0  0  0  0  0  0  0  0  0
  -21.2590   -7.1390   23.6490 C   0  0  0  0  0  3  0  0  0  0  0  0
  -21.0340   -6.3890   24.8200 C   0  0  0  0  0  3  0  0  0  0  0  0
  -21.3430   -5.0160   24.8490 C   0  0  0  0  0  0  0  0  0  0  0  0
  -21.8820   -4.3910   23.7090 C   0  0  0  0  0  3  0  0  0  0  0  0
  -22.1080   -5.1380   22.5410 C   0  0  0  0  0  0  0  0  0  0  0  0
  -22.6040   -4.5270   21.4390 F   0  0  0  0  0  0  0  0  0  0  0  0
  -21.1210   -4.2930   25.9710 F   0  0  0  0  0  0  0  0  0  0  0  0
  -23.1830  -13.8180   21.2750 C   0  0  0  0  0  0  0  0  0  0  0  0
  -22.5110  -13.1050   22.1710 N   0  0  0  0  0  0  0  0  0  0  0  0
  -22.7260  -14.8680   20.8250 O   0  0  0  0  0  0  0  0  0  0  0  0
  -22.8950  -12.2560   22.5590 H   0  0  0  0  0  0  0  0  0  0  0  0
  -21.5990  -13.4170   22.4720 H   0  0  0  0  0  0  0  0  0  0  0  0
  -25.7790  -15.4830   20.3580 N   0  0  0  0  0  0  0  0  0  0  0  0
  -25.0440  -16.1450   20.5830 H   0  0  0  0  0  0  0  0  0  0  0  0
  -26.6110  -15.9280   19.9930 H   0  0  0  0  0  0  0  0  0  0  0  0
  -30.5520  -17.3380   23.0860 C   0  0  0  0  0  1  0  0  0  0  0  0
  -29.9660  -16.3210   22.1010 C   0  0  0  0  0  2  0  0  0  0  0  0
  -30.4750  -17.9260   18.6880 O   0  0  0  0  0  0  0  0  0  0  0  0
  -30.8580  -17.1110   18.3830 H   0  0  0  0  0  0  0  0  0  0  0  0
  -29.1960  -23.4190   19.8930 C   0  0  0  0  0  3  0  0  0  0  0  0
  -28.3200  -24.7450   20.5050 C   0  0  0  0  0  3  0  0  0  0  0  0
  -28.5130  -26.2830   20.2260 O   0  0  0  0  0  0  0  0  0  0  0  0
  -24.7170  -31.8980   23.2220 C   0  0  0  0  0  0  0  0  0  0  0  0
  -27.4220  -27.2350   20.2090 C   0  0  0  0  0  0  0  0  0  0  0  0
  -23.5590  -30.4730   21.5770 C   0  0  0  0  0  3  0  0  0  0  0  0
  -25.0530  -28.9310   20.1610 C   0  0  0  0  0  0  0  0  0  0  0  0
  -26.1080  -30.7960   21.4280 C   0  0  0  0  0  2  0  0  0  0  0  0
  -26.2180  -29.4050   20.7770 C   0  0  0  0  0  0  0  0  0  0  0  0
  -27.4040  -28.5740   20.7810 C   0  0  0  0  0  3  0  0  0  0  0  0
  -26.2300  -26.8680   19.5490 C   0  0  0  0  0  3  0  0  0  0  0  0
  -25.0730  -27.6770   19.5300 C   0  0  0  0  0  3  0  0  0  0  0  0
  -23.8040  -29.7990   20.2000 C   0  0  0  0  0  2  0  0  0  0  0  0
  -24.8140  -31.0800   22.1300 N   0  0  0  0  0  0  0  0  0  0  0  0
  -23.6220  -32.1580   23.7430 O   0  0  0  0  0  0  0  0  0  0  0  0
  -22.8980  -29.4520   22.5360 C   0  0  0  0  0  0  0  0  0  0  0  0
  -21.5790  -29.2360   22.3860 N   0  0  0  0  0  0  0  0  0  0  0  0
  -23.5770  -28.8560   23.3780 O   0  0  0  0  0  0  0  0  0  0  0  0
  -21.0880  -29.7700   21.6830 H   0  0  0  0  0  0  0  0  0  0  0  0
  -18.2330  -27.9210   22.8330 C   0  0  0  0  0  0  0  0  0  0  0  0
  -20.7750  -28.2760   23.1490 C   0  0  0  0  0  3  0  0  0  0  0  0
  -20.9380  -26.8440   22.5880 C   0  0  0  0  0  2  0  0  0  0  0  0
  -19.8690  -26.4740   21.5550 C   0  0  0  0  0  2  0  0  0  0  0  0
  -18.4700  -26.5740   22.1700 C   0  0  0  0  0  2  0  0  0  0  0  0
  -19.3150  -28.7270   23.2770 C   0  0  0  0  0  0  0  0  0  0  0  0
  -19.0380  -29.9850   23.8560 C   0  0  0  0  0  3  0  0  0  0  0  0
  -17.7130  -30.4370   23.9960 C   0  0  0  0  0  3  0  0  0  0  0  0
  -16.6450  -29.6290   23.5680 C   0  0  0  0  0  3  0  0  0  0  0  0
  -16.9060  -28.3730   22.9940 C   0  0  0  0  0  3  0  0  0  0  0  0
  -25.9760  -32.5630   23.8590 C   0  0  0  0  0  3  0  0  0  0  0  0
  -25.6330  -33.9570   24.1820 N   0  0  0  0  0  0  0  0  0  0  0  0
  -25.9470  -35.0180   23.4270 C   0  0  0  0  0  0  0  0  0  0  0  0
  -26.6230  -34.9270   22.3980 O   0  0  0  0  0  0  0  0  0  0  0  0
  -25.0310  -34.1010   24.9800 H   0  0  0  0  0  0  0  0  0  0  0  0
  -24.1780  -36.7720   23.0740 C   0  0  0  0  0  1  0  0  0  0  0  0
  -25.4330  -36.3980   23.8810 C   0  0  0  0  0  3  0  0  0  0  0  0
  -27.5510  -37.3330   24.6980 C   0  0  0  0  0  1  0  0  0  0  0  0
  -26.4410  -37.4730   23.7600 N   0  0  0  0  0  0  0  0  0  0  0  0
  -26.0150  -38.3850   23.9050 H   0  0  0  0  0  0  0  0  0  0  0  0
  -26.4890  -31.8110   25.1500 C   0  0  1  0  0  0  0  0  0  0  0  0
  -25.3810  -31.5430   26.1960 C   0  0  0  0  0  1  0  0  0  0  0  0
  -27.1220  -30.4500   24.7780 C   0  0  0  0  0  1  0  0  0  0  0  0
  -27.6020  -32.6420   25.8310 C   0  0  0  0  0  1  0  0  0  0  0  0
  1  2  1  0
  3  5  1  0
  3  4  1  0
  4  8  1  0
  4  1  1  0
  5  6  1  1
  5  2  1  0
  7 46  1  0
  8  7  2  0
  9  7  1  0
 10 15  1  0
 11 12  1  0
 11 10  1  0
 13 12  1  0
 13 20  1  0
 13 14  1  0
 15  9  1  0
 15 14  1  0
 16  9  2  0
 17 18  2  0
 18 37  1  0
 19 18  1  0
 19 22  1  0
 20 21  1  0
 20 17  1  0
 21 19  2  0
 22 23  1  0
 23 24  2  0
 25 28  1  0
 25 24  1  0
 26 25  2  0
 27 26  1  0
 27 22  2  0
 28 29  1  0
 29 34  2  0
 29 30  1  0
 30 31  2  0
 31 32  1  0
 32 36  1  0
 33 32  2  0
 34 33  1  0
 35 34  1  0
 37 38  1  0
 38 41  1  0
 38 40  1  0
 39 37  2  0
 42 17  1  0
 42 43  1  0
 44 42  1  0
 46 45  1  0
 47  8  1  0
 48 47  1  0
 49  5  1  0
 49 50  2  0
 51 50  1  0
 52 63  2  0
 53 51  1  0
 53 58  1  0
 54 62  1  0
 54 64  1  0
 55 61  1  0
 55 57  1  0
 56 62  1  0
 57 58  2  0
 57 56  1  0
 59 53  2  0
 60 59  1  0
 60 55  2  0
 61 54  1  0
 62 52  1  0
 64 66  2  0
 65 64  1  0
 67 65  1  0
 68 77  2  0
 68 73  1  0
 69 65  1  0
 69 73  1  0
 70 69  1  0
 71 72  1  0
 71 70  1  0
 72 68  1  0
 73 74  2  0
 74 75  1  0
 76 75  2  0
 77 76  1  0
 78 52  1  0
 78 79  1  0
 78 88  1  0
 79 82  1  0
 80 84  1  0
 80 79  1  0
 81 80  2  0
 84 83  1  0
 86 84  1  0
 86 87  1  0
 86 85  1  0
 88 91  1  1
 88 89  1  0
 90 88  1  0
M  ISO  4   7 100   9 100  50 101  51 101
M  END
>  <TORSDO>  (57) 
F 21

>  <SCORE>  (57) 
-13.423

>  <name>  (57) 
56

>  <ligand_id>  (57) 
56

>  <original_smiles>  (57) 
[H]OC(=C(C(=O)N1C([H])([H])C([H])([H])C([H])([H])C([H])(n2nc(-c3c([H])c([H])c(Oc4c([H])c([H])c(F)c([H])c4F)c([H])c3[H])c(C(=O)N([H])[H])c2N([H])[H])C1([H])[H])C([H])([H])C([H])([H])[H])C1([H])C([H])([H])C([H])([H])[N+]([H])(C([H])([H])C([H])([H])Oc2c([H])c([H])c3c(c2[H])C([H])([H])N(C(=O)C([H])(N([H])C(=O)C([H])(N([H])C([H])([H])[H])C([H])([H])[H])C(C([H])([H])[H])(C([H])([H])[H])C([H])([H])[H])C([H])(C(=O)N([H])C2([H])c4c([H])c([H])c([H])c([H])c4C([H])([H])C([H])([H])C2([H])[H])C3([H])[H])C1([H])[H]

>  <smiles>  (57) 
[H]OC(=C(C(=O)N1C([H])([H])C([H])([H])C([H])([H])C([H])(n2nc(-c3c([H])c([H])c(Oc4c([H])c([H])c(F)c([H])c4F)c([H])c3[H])c(C(=O)N([H])[H])c2N([H])[H])C1([H])[H])C([H])([H])C([H])([H])[H])C1([H])C([H])([H])C([H])([H])[N+]([H])(C([H])([H])C([H])([H])Oc2c([H])c([H])c3c(c2[H])C([H])([H])N(C(=O)C([H])(N([H])C(=O)C([H])(N([H])C([H])([H])[H])C([H])([H])[H])C(C([H])([H])[H])(C([H])([H])[H])C([H])([H])[H])C([H])(C(=O)N([H])C2([H])c4c([H])c([H])c([H])c([H])c4C([H])([H])C([H])([H])C2([H])[H])C3([H])[H])C1([H])[H]

$$$$
57:0:0
     RDKit          3D

 92100  0  0  1  0  0  0  0  0999 V2000
  -29.3480  -21.6410   21.8400 C   0  0  0  0  0  3  0  0  0  0  0  0
  -29.0730  -22.9720   21.7750 C   0  0  0  0  0  3  0  0  0  0  0  0
  -28.8680  -22.1340   19.6230 C   0  0  0  0  0  2  0  0  0  0  0  0
  -29.5600  -20.9480   20.4950 C   0  0  0  0  0  3  0  0  0  0  0  0
  -29.0120  -23.5700   20.3720 C   0  0  0  0  0  3  0  0  0  0  0  0
  -29.1660  -19.3320   20.3390 C   0  0  0  0  0  2  0  0  0  0  0  0
  -30.1120  -17.9850   20.6960 C   0  0  0  0  0  3  0  0  0  0  0  0
  -31.4180  -18.1340   20.0260 N   0  0  0  0  0  4  0  0  0  0  0  0
  -31.3100  -18.1890   19.0280 H   0  0  0  0  0  0  0  0  0  0  0  0
  -32.0070  -17.3450   20.2330 H   0  0  0  0  0  0  0  0  0  0  0  0
  -31.8890  -18.9640   20.3400 H   0  0  0  0  0  0  0  0  0  0  0  0
  -29.5610  -16.4080   20.4700 C   0  0  0  0  0  3  0  0  0  0  0  0
  -30.4730  -15.0220   20.5950 C   0  0  0  0  0  0  0  0  0  0  0  0
  -30.4390  -12.6810   19.6680 C   0  0  0  0  0  2  0  0  0  0  0  0
  -29.5300  -12.6470   18.4150 C   0  0  0  0  0  2  0  0  0  0  0  0
  -28.0470  -12.4540   18.7990 C   0  0  0  0  0  2  0  0  0  0  0  0
  -27.6030  -13.3300   20.0030 C   0  0  0  0  0  3  0  0  0  0  0  0
  -28.6420  -13.3160   21.1430 C   0  0  0  0  0  2  0  0  0  0  0  0
  -29.9330  -13.7390   20.5820 N   0  0  0  0  0  0  0  0  0  0  0  0
  -31.6940  -15.1220   20.4240 O   0  0  0  0  0  0  0  0  0  0  0  0
  -25.1930  -13.8790   20.6770 C   0  0  0  0  0  0  0  0  0  0  0  0
  -24.1270  -13.0900   21.0050 C   0  0  0  0  0  0  0  0  0  0  0  0
  -24.6130  -11.7460   20.9800 C   0  0  0  0  0  0  0  0  0  0  0  0
  -26.2570  -13.0160   20.4630 N   0  0  0  0  0  0  0  0  0  0  0  0
  -25.9130  -11.7280   20.7110 N   0  0  0  0  0  0  0  0  0  0  0  0
  -23.9020  -10.4740   21.1400 C   0  0  0  0  0  0  0  0  0  0  0  0
  -24.3150   -9.5150   22.0890 C   0  0  0  0  0  3  0  0  0  0  0  0
  -23.6040   -8.3060   22.2390 C   0  0  0  0  0  3  0  0  0  0  0  0
  -22.4660   -8.0470   21.4390 C   0  0  0  0  0  0  0  0  0  0  0  0
  -22.0730   -8.9970   20.4800 C   0  0  0  0  0  3  0  0  0  0  0  0
  -22.7850  -10.1980   20.3270 C   0  0  0  0  0  3  0  0  0  0  0  0
  -21.7320   -6.8870   21.4950 O   0  0  0  0  0  0  0  0  0  0  0  0
  -21.6400   -6.1500   22.6470 C   0  0  0  0  0  0  0  0  0  0  0  0
  -21.1020   -6.6910   23.8360 C   0  0  0  0  0  3  0  0  0  0  0  0
  -20.9570   -5.8760   24.9770 C   0  0  0  0  0  3  0  0  0  0  0  0
  -21.3450   -4.5230   24.9300 C   0  0  0  0  0  0  0  0  0  0  0  0
  -21.8780   -3.9840   23.7460 C   0  0  0  0  0  3  0  0  0  0  0  0
  -22.0210   -4.7940   22.6070 C   0  0  0  0  0  0  0  0  0  0  0  0
  -22.5130   -4.2650   21.4610 F   0  0  0  0  0  0  0  0  0  0  0  0
  -21.2020   -3.7380   26.0220 F   0  0  0  0  0  0  0  0  0  0  0  0
  -22.7150  -13.5480   21.2320 C   0  0  0  0  0  0  0  0  0  0  0  0
  -21.9670  -12.8370   22.0660 N   0  0  0  0  0  0  0  0  0  0  0  0
  -22.2810  -14.5710   20.7050 O   0  0  0  0  0  0  0  0  0  0  0  0
  -22.3330  -12.0140   22.5210 H   0  0  0  0  0  0  0  0  0  0  0  0
  -21.0160  -13.1220   22.2550 H   0  0  0  0  0  0  0  0  0  0  0  0
  -25.3370  -15.2540   20.5220 N   0  0  0  0  0  0  0  0  0  0  0  0
  -24.5470  -15.8870   20.5890 H   0  0  0  0  0  0  0  0  0  0  0  0
  -26.1940  -15.7100   20.2360 H   0  0  0  0  0  0  0  0  0  0  0  0
  -27.5120  -17.0050   18.9320 C   0  0  0  0  0  1  0  0  0  0  0  0
  -28.9160  -16.3860   19.0490 C   0  0  0  0  0  2  0  0  0  0  0  0
  -27.9840  -24.8490   20.0970 C   0  0  0  0  0  2  0  0  0  0  0  0
  -28.2480  -26.3440   20.3380 O   0  0  0  0  0  0  0  0  0  0  0  0
  -24.5880  -31.9410   23.3420 C   0  0  0  0  0  0  0  0  0  0  0  0
  -27.1770  -27.2950   20.2670 C   0  0  0  0  0  0  0  0  0  0  0  0
  -23.3880  -30.5540   21.6940 C   0  0  0  0  0  3  0  0  0  0  0  0
  -24.8380  -29.0060   20.2490 C   0  0  0  0  0  0  0  0  0  0  0  0
  -25.9380  -30.8330   21.5310 C   0  0  0  0  0  2  0  0  0  0  0  0
  -26.0130  -29.4540   20.8640 C   0  0  0  0  0  0  0  0  0  0  0  0
  -27.1830  -28.6120   20.8610 C   0  0  0  0  0  3  0  0  0  0  0  0
  -25.9760  -26.9390   19.6090 C   0  0  0  0  0  3  0  0  0  0  0  0
  -24.8300  -27.7610   19.6030 C   0  0  0  0  0  3  0  0  0  0  0  0
  -23.6060  -29.8910   20.3090 C   0  0  0  0  0  2  0  0  0  0  0  0
  -24.6570  -31.1280   22.2440 N   0  0  0  0  0  0  0  0  0  0  0  0
  -23.5010  -32.2240   23.8700 O   0  0  0  0  0  0  0  0  0  0  0  0
  -22.7160  -29.5360   22.6460 C   0  0  0  0  0  0  0  0  0  0  0  0
  -21.3950  -29.3380   22.4910 N   0  0  0  0  0  0  0  0  0  0  0  0
  -23.3840  -28.9260   23.4860 O   0  0  0  0  0  0  0  0  0  0  0  0
  -20.9160  -29.8800   21.7860 H   0  0  0  0  0  0  0  0  0  0  0  0
  -18.0270  -28.0790   22.9230 C   0  0  0  0  0  0  0  0  0  0  0  0
  -20.5730  -28.3940   23.2510 C   0  0  0  0  0  3  0  0  0  0  0  0
  -20.7180  -26.9590   22.6920 C   0  0  0  0  0  2  0  0  0  0  0  0
  -19.6470  -26.6050   21.6560 C   0  0  0  0  0  2  0  0  0  0  0  0
  -18.2470  -26.7280   22.2630 C   0  0  0  0  0  2  0  0  0  0  0  0
  -19.1200  -28.8680   23.3710 C   0  0  0  0  0  0  0  0  0  0  0  0
  -18.8620  -30.1300   23.9470 C   0  0  0  0  0  3  0  0  0  0  0  0
  -17.5420  -30.6050   24.0790 C   0  0  0  0  0  3  0  0  0  0  0  0
  -16.4640  -29.8140   23.6470 C   0  0  0  0  0  3  0  0  0  0  0  0
  -16.7080  -28.5530   23.0730 C   0  0  0  0  0  3  0  0  0  0  0  0
  -25.8670  -32.5680   23.9750 C   0  0  0  0  0  3  0  0  0  0  0  0
  -25.5710  -33.9770   24.2730 N   0  0  0  0  0  0  0  0  0  0  0  0
  -25.9120  -35.0100   23.4910 C   0  0  0  0  0  0  0  0  0  0  0  0
  -26.5790  -34.8800   22.4610 O   0  0  0  0  0  0  0  0  0  0  0  0
  -24.9790  -34.1550   25.0710 H   0  0  0  0  0  0  0  0  0  0  0  0
  -24.1980  -36.8150   23.1140 C   0  0  0  0  0  1  0  0  0  0  0  0
  -25.4430  -36.4130   23.9220 C   0  0  0  0  0  3  0  0  0  0  0  0
  -27.5870  -37.3010   24.7260 C   0  0  0  0  0  1  0  0  0  0  0  0
  -26.4840  -37.4550   23.7810 N   0  0  0  0  0  0  0  0  0  0  0  0
  -26.0850  -38.3810   23.9100 H   0  0  0  0  0  0  0  0  0  0  0  0
  -26.3500  -31.8170   25.2780 C   0  0  1  0  0  0  0  0  0  0  0  0
  -25.2310  -31.6120   26.3260 C   0  0  0  0  0  1  0  0  0  0  0  0
  -26.9260  -30.4230   24.9300 C   0  0  0  0  0  1  0  0  0  0  0  0
  -27.4960  -32.6150   25.9450 C   0  0  0  0  0  1  0  0  0  0  0  0
  2  1  2  0
  3  5  1  0
  3  4  1  0
  4  6  1  0
  4  1  1  0
  5 51  1  0
  5  2  1  0
  7  6  1  0
  8 10  1  0
  8 11  1  0
  8  7  1  0
  9  8  1  0
 12 50  1  0
 12 13  1  0
 12  7  1  0
 14 19  1  0
 15 16  1  0
 15 14  1  0
 17 16  1  0
 17 24  1  0
 17 18  1  0
 19 13  1  0
 19 18  1  0
 20 13  2  0
 21 22  2  0
 22 41  1  0
 23 22  1  0
 23 26  1  0
 24 21  1  0
 24 25  1  0
 25 23  2  0
 26 27  1  0
 27 28  2  0
 29 32  1  0
 29 28  1  0
 30 29  2  0
 31 30  1  0
 31 26  2  0
 32 33  1  0
 33 34  1  0
 34 35  2  0
 36 35  1  0
 36 40  1  0
 37 36  2  0
 38 33  2  0
 38 37  1  0
 39 38  1  0
 41 42  1  0
 42 45  1  0
 42 44  1  0
 43 41  2  0
 46 47  1  0
 46 21  1  0
 48 46  1  0
 49 50  1  0
 51 52  1  0
 53 64  2  0
 54 52  1  0
 54 59  1  0
 55 63  1  0
 55 65  1  0
 56 62  1  0
 56 58  1  0
 57 63  1  0
 58 57  1  0
 59 58  2  0
 60 54  2  0
 61 60  1  0
 61 56  2  0
 62 55  1  0
 63 53  1  0
 65 67  2  0
 66 65  1  0
 68 66  1  0
 69 78  2  0
 69 74  1  0
 70 66  1  0
 70 74  1  0
 71 70  1  0
 72 73  1  0
 72 71  1  0
 73 69  1  0
 74 75  2  0
 75 76  1  0
 77 76  2  0
 78 77  1  0
 79 53  1  0
 79 80  1  0
 79 89  1  0
 80 83  1  0
 81 85  1  0
 81 80  1  0
 82 81  2  0
 85 84  1  0
 87 88  1  0
 87 85  1  0
 87 86  1  0
 89 92  1  1
 89 90  1  0
 91 89  1  0
M  ISO  4  12 100  13 100  51 101  52 101
M  END
>  <TORSDO>  (58) 
F 22

>  <SCORE>  (58) 
-13.323

>  <name>  (58) 
57

>  <ligand_id>  (58) 
57

>  <original_smiles>  (58) 
[H]C1=C([H])C([H])(C([H])([H])C([H])(C([H])(C(=O)N2C([H])([H])C([H])([H])C([H])([H])C([H])(n3nc(-c4c([H])c([H])c(Oc5c([H])c([H])c(F)c([H])c5F)c([H])c4[H])c(C(=O)N([H])[H])c3N([H])[H])C2([H])[H])C([H])([H])C([H])([H])[H])[N+]([H])([H])[H])C([H])([H])C1([H])C([H])([H])Oc1c([H])c([H])c2c(c1[H])C([H])([H])N(C(=O)C([H])(N([H])C(=O)C([H])(N([H])C([H])([H])[H])C([H])([H])[H])C(C([H])([H])[H])(C([H])([H])[H])C([H])([H])[H])C([H])(C(=O)N([H])C1([H])c3c([H])c([H])c([H])c([H])c3C([H])([H])C([H])([H])C1([H])[H])C2([H])[H]

>  <smiles>  (58) 
[H]C1=C([H])C([H])(C([H])([H])C([H])(C([H])(C(=O)N2C([H])([H])C([H])([H])C([H])([H])C([H])(n3nc(-c4c([H])c([H])c(Oc5c([H])c([H])c(F)c([H])c5F)c([H])c4[H])c(C(=O)N([H])[H])c3N([H])[H])C2([H])[H])C([H])([H])C([H])([H])[H])[N+]([H])([H])[H])C([H])([H])C1([H])C([H])([H])Oc1c([H])c([H])c2c(c1[H])C([H])([H])N(C(=O)C([H])(N([H])C(=O)C([H])(N([H])C([H])([H])[H])C([H])([H])[H])C(C([H])([H])[H])(C([H])([H])[H])C([H])([H])[H])C([H])(C(=O)N([H])C1([H])c3c([H])c([H])c([H])c([H])c3C([H])([H])C([H])([H])C1([H])[H])C2([H])[H]

$$$$
58:0:0
     RDKit          3D

 88 96  0  0  1  0  0  0  0  0999 V2000
  -29.8560  -20.7210   18.6720 C   0  0  0  0  0  2  0  0  0  0  0  0
  -28.5220  -21.4820   18.6110 C   0  0  0  0  0  2  0  0  0  0  0  0
  -29.6430  -20.4780   20.1720 C   0  0  0  0  0  3  0  0  0  0  0  0
  -28.6530  -21.8380   20.1000 C   0  0  0  0  0  3  0  0  0  0  0  0
  -29.1840  -18.9170   20.4550 C   0  0  0  0  0  0  0  0  0  0  0  0
  -30.0080  -17.7700   20.3780 N   0  0  0  0  0  0  0  0  0  0  0  0
  -28.0090  -18.7530   20.7790 O   0  0  0  0  0  0  0  0  0  0  0  0
  -30.9670  -17.9300   20.0960 H   0  0  0  0  0  0  0  0  0  0  0  0
  -29.6650  -16.2730   20.7090 C   0  0  0  0  0  2  0  0  0  0  0  0
  -30.4990  -14.9200   20.2710 C   0  0  0  0  0  0  0  0  0  0  0  0
  -30.4040  -12.5770   19.3110 C   0  0  0  0  0  2  0  0  0  0  0  0
  -29.4710  -12.5960   18.0750 C   0  0  0  0  0  2  0  0  0  0  0  0
  -27.9990  -12.3920   18.4900 C   0  0  0  0  0  2  0  0  0  0  0  0
  -27.5990  -13.2870   19.6920 C   0  0  0  0  0  3  0  0  0  0  0  0
  -28.6530  -13.2490   20.8170 C   0  0  0  0  0  2  0  0  0  0  0  0
  -29.9420  -13.6450   20.2390 N   0  0  0  0  0  0  0  0  0  0  0  0
  -31.6700  -15.0370   19.8900 O   0  0  0  0  0  0  0  0  0  0  0  0
  -25.2090  -13.8550   20.4250 C   0  0  0  0  0  0  0  0  0  0  0  0
  -24.1500  -13.0730   20.7970 C   0  0  0  0  0  0  0  0  0  0  0  0
  -24.6220  -11.7260   20.7680 C   0  0  0  0  0  0  0  0  0  0  0  0
  -26.2590  -12.9830   20.1860 N   0  0  0  0  0  0  0  0  0  0  0  0
  -25.9140  -11.6970   20.4560 N   0  0  0  0  0  0  0  0  0  0  0  0
  -23.9030  -10.4590   20.9600 C   0  0  0  0  0  0  0  0  0  0  0  0
  -24.3150   -9.5140   21.9250 C   0  0  0  0  0  3  0  0  0  0  0  0
  -23.5930   -8.3140   22.1050 C   0  0  0  0  0  3  0  0  0  0  0  0
  -22.4450   -8.0510   21.3200 C   0  0  0  0  0  0  0  0  0  0  0  0
  -22.0520   -8.9860   20.3450 C   0  0  0  0  0  3  0  0  0  0  0  0
  -22.7760  -10.1760   20.1640 C   0  0  0  0  0  3  0  0  0  0  0  0
  -21.6990   -6.9010   21.4060 O   0  0  0  0  0  0  0  0  0  0  0  0
  -21.5980   -6.1930   22.5780 C   0  0  0  0  0  0  0  0  0  0  0  0
  -21.0520   -6.7630   23.7480 C   0  0  0  0  0  3  0  0  0  0  0  0
  -20.9040   -5.9800   24.9100 C   0  0  0  0  0  3  0  0  0  0  0  0
  -21.2900   -4.6270   24.9020 C   0  0  0  0  0  0  0  0  0  0  0  0
  -21.8280   -4.0560   23.7360 C   0  0  0  0  0  3  0  0  0  0  0  0
  -21.9790   -4.8370   22.5770 C   0  0  0  0  0  0  0  0  0  0  0  0
  -22.4780   -4.2750   21.4480 F   0  0  0  0  0  0  0  0  0  0  0  0
  -21.1410   -3.8720   26.0160 F   0  0  0  0  0  0  0  0  0  0  0  0
  -22.7500  -13.5430   21.0660 C   0  0  0  0  0  0  0  0  0  0  0  0
  -22.0240  -12.8420   21.9310 N   0  0  0  0  0  0  0  0  0  0  0  0
  -22.3070  -14.5660   20.5450 O   0  0  0  0  0  0  0  0  0  0  0  0
  -22.3950  -12.0160   22.3760 H   0  0  0  0  0  0  0  0  0  0  0  0
  -21.0840  -13.1380   22.1520 H   0  0  0  0  0  0  0  0  0  0  0  0
  -25.3630  -15.2260   20.2480 N   0  0  0  0  0  0  0  0  0  0  0  0
  -24.5900  -15.8730   20.3690 H   0  0  0  0  0  0  0  0  0  0  0  0
  -26.2080  -15.6820   19.9260 H   0  0  0  0  0  0  0  0  0  0  0  0
  -28.9980  -23.4460   20.4220 C   0  0  0  0  0  3  0  0  0  0  0  0
  -28.0070  -24.7260   20.0010 C   0  0  0  0  0  3  0  0  0  0  0  0
  -28.2590  -26.2330   20.2520 O   0  0  0  0  0  0  0  0  0  0  0  0
  -24.6480  -31.8620   23.2830 C   0  0  0  0  0  0  0  0  0  0  0  0
  -27.1970  -27.1990   20.1860 C   0  0  0  0  0  0  0  0  0  0  0  0
  -23.4330  -30.4870   21.6350 C   0  0  0  0  0  3  0  0  0  0  0  0
  -24.8680  -28.9290   20.1830 C   0  0  0  0  0  0  0  0  0  0  0  0
  -25.9850  -30.7540   21.4580 C   0  0  0  0  0  2  0  0  0  0  0  0
  -26.0510  -29.3720   20.7890 C   0  0  0  0  0  0  0  0  0  0  0  0
  -27.2160  -28.5230   20.7740 C   0  0  0  0  0  3  0  0  0  0  0  0
  -25.9910  -26.8520   19.5370 C   0  0  0  0  0  3  0  0  0  0  0  0
  -24.8500  -27.6820   19.5420 C   0  0  0  0  0  3  0  0  0  0  0  0
  -23.6440  -29.8260   20.2470 C   0  0  0  0  0  2  0  0  0  0  0  0
  -24.7090  -31.0540   22.1800 N   0  0  0  0  0  0  0  0  0  0  0  0
  -23.5670  -32.1450   23.8190 O   0  0  0  0  0  0  0  0  0  0  0  0
  -22.7580  -29.4710   22.5890 C   0  0  0  0  0  0  0  0  0  0  0  0
  -21.4320  -29.2930   22.4570 N   0  0  0  0  0  0  0  0  0  0  0  0
  -23.4300  -28.8440   23.4120 O   0  0  0  0  0  0  0  0  0  0  0  0
  -20.9460  -29.8520   21.7680 H   0  0  0  0  0  0  0  0  0  0  0  0
  -18.0530  -28.0840   22.9470 C   0  0  0  0  0  0  0  0  0  0  0  0
  -20.6110  -28.3500   23.2210 C   0  0  0  0  0  3  0  0  0  0  0  0
  -20.7160  -26.9200   22.6390 C   0  0  0  0  0  2  0  0  0  0  0  0
  -19.6160  -26.6010   21.6210 C   0  0  0  0  0  2  0  0  0  0  0  0
  -18.2320  -26.7400   22.2620 C   0  0  0  0  0  2  0  0  0  0  0  0
  -19.1690  -28.8480   23.3820 C   0  0  0  0  0  0  0  0  0  0  0  0
  -18.9450  -30.1050   23.9840 C   0  0  0  0  0  3  0  0  0  0  0  0
  -17.6380  -30.6010   24.1520 C   0  0  0  0  0  3  0  0  0  0  0  0
  -16.5360  -29.8350   23.7300 C   0  0  0  0  0  3  0  0  0  0  0  0
  -16.7450  -28.5790   23.1340 C   0  0  0  0  0  3  0  0  0  0  0  0
  -25.9350  -32.4820   23.9090 C   0  0  0  0  0  3  0  0  0  0  0  0
  -26.4300  -31.7160   25.1980 C   0  0  1  0  0  0  0  0  0  0  0  0
  -25.3230  -31.5000   26.2560 C   0  0  0  0  0  1  0  0  0  0  0  0
  -27.0020  -30.3290   24.8270 C   0  0  0  0  0  1  0  0  0  0  0  0
  -27.5840  -32.5040   25.8620 C   0  0  0  0  0  1  0  0  0  0  0  0
  -25.6420  -33.8890   24.2300 N   0  0  0  0  0  0  0  0  0  0  0  0
  -25.9880  -34.9340   23.4660 C   0  0  0  0  0  0  0  0  0  0  0  0
  -26.6550  -34.8150   22.4350 O   0  0  0  0  0  0  0  0  0  0  0  0
  -25.0530  -34.0560   25.0320 H   0  0  0  0  0  0  0  0  0  0  0  0
  -24.2960  -36.7580   23.0920 C   0  0  0  0  0  1  0  0  0  0  0  0
  -25.5220  -36.3330   23.9160 C   0  0  0  0  0  3  0  0  0  0  0  0
  -27.6580  -37.1900   24.7710 C   0  0  0  0  0  1  0  0  0  0  0  0
  -26.5740  -37.3680   23.8080 N   0  0  0  0  0  0  0  0  0  0  0  0
  -26.1820  -38.2950   23.9410 H   0  0  0  0  0  0  0  0  0  0  0  0
  1  3  1  0
  2  1  1  0
  2  4  1  0
  3  5  1  0
  4  3  1  0
  4 46  1  0
  5  7  2  0
  6  5  1  0
  6  9  1  0
  8  6  1  0
 10  9  1  0
 11 16  1  0
 12 13  1  0
 12 11  1  0
 14 13  1  0
 14 21  1  0
 14 15  1  0
 16 10  1  0
 16 15  1  0
 17 10  2  0
 18 19  2  0
 19 38  1  0
 20 19  1  0
 20 23  1  0
 21 18  1  0
 21 22  1  0
 22 20  2  0
 23 24  1  0
 24 25  2  0
 26 29  1  0
 26 25  1  0
 27 26  2  0
 28 27  1  0
 28 23  2  0
 29 30  1  0
 30 31  1  0
 31 32  2  0
 33 32  1  0
 33 37  1  0
 34 33  2  0
 35 30  2  0
 35 34  1  0
 36 35  1  0
 38 39  1  0
 39 42  1  0
 39 41  1  0
 40 38  2  0
 43 44  1  0
 43 18  1  0
 45 43  1  0
 47 48  1  0
 47 46  2  0
 49 60  2  0
 50 48  1  0
 50 55  1  0
 51 59  1  0
 51 61  1  0
 52 58  1  0
 52 54  1  0
 53 59  1  0
 54 53  1  0
 55 54  2  0
 56 57  1  0
 56 50  2  0
 57 52  2  0
 58 51  1  0
 59 49  1  0
 61 63  2  0
 62 61  1  0
 64 62  1  0
 65 74  2  0
 65 70  1  0
 66 62  1  0
 66 70  1  0
 67 66  1  0
 68 69  1  0
 68 67  1  0
 69 65  1  0
 70 71  2  0
 71 72  1  0
 73 72  2  0
 74 73  1  0
 75 49  1  0
 75 80  1  0
 75 76  1  0
 76 79  1  1
 76 77  1  0
 78 76  1  0
 80 83  1  0
 81 85  1  0
 81 80  1  0
 82 81  2  0
 85 84  1  0
 87 85  1  0
 87 88  1  0
 87 86  1  0
M  ISO  4   9 100  10 100  47 101  48 101
M  END
>  <TORSDO>  (59) 
F 20

>  <SCORE>  (59) 
-13.560

>  <name>  (59) 
58

>  <ligand_id>  (59) 
58

>  <original_smiles>  (59) 
[H]c1c([H])c([H])c2c(c1[H])C([H])([H])C([H])([H])C([H])([H])C2([H])N([H])C(=O)C1([H])N(C(=O)C([H])(N([H])C(=O)C([H])(N([H])C([H])([H])[H])C([H])([H])[H])C(C([H])([H])[H])(C([H])([H])[H])C([H])([H])[H])C([H])([H])c2c([H])c(OC([H])([H])C([H])([H])C3([H])C([H])([H])C([H])([H])C3([H])C(=O)N([H])C([H])([H])C(=O)N3C([H])([H])C([H])([H])C([H])([H])C([H])(n4nc(-c5c([H])c([H])c(Oc6c([H])c([H])c(F)c([H])c6F)c([H])c5[H])c(C(=O)N([H])[H])c4N([H])[H])C3([H])[H])c([H])c([H])c2C1([H])[H]

>  <smiles>  (59) 
[H]c1c([H])c([H])c2c(c1[H])C([H])([H])C([H])([H])C([H])([H])C2([H])N([H])C(=O)C1([H])N(C(=O)C([H])(N([H])C(=O)C([H])(N([H])C([H])([H])[H])C([H])([H])[H])C(C([H])([H])[H])(C([H])([H])[H])C([H])([H])[H])C([H])([H])c2c([H])c(OC([H])([H])C([H])([H])C3([H])C([H])([H])C([H])([H])C3([H])C(=O)N([H])C([H])([H])C(=O)N3C([H])([H])C([H])([H])C([H])([H])C([H])(n4nc(-c5c([H])c([H])c(Oc6c([H])c([H])c(F)c([H])c6F)c([H])c5[H])c(C(=O)N([H])[H])c4N([H])[H])C3([H])[H])c([H])c([H])c2C1([H])[H]

$$$$
59:0:0
     RDKit          3D

 91 99  0  0  1  0  0  0  0  0999 V2000
  -30.2430  -21.7350   22.3400 C   0  0  0  0  0  3  0  0  0  0  0  0
  -28.8350  -20.7450   20.6300 C   0  0  0  0  0  3  0  0  0  0  0  0
  -29.5980  -22.9810   22.1660 C   0  0  0  0  0  3  0  0  0  0  0  0
  -28.1900  -21.9920   20.4580 C   0  0  0  0  0  3  0  0  0  0  0  0
  -29.8740  -20.6020   21.5760 C   0  0  0  0  0  0  0  0  0  0  0  0
  -28.5630  -23.1270   21.2130 C   0  0  0  0  0  0  0  0  0  0  0  0
  -26.5990  -24.5070   21.9670 C   0  0  0  0  0  1  0  0  0  0  0  0
  -27.8040  -24.4530   21.0090 C   0  0  0  0  0  3  0  0  0  0  0  0
  -28.6660  -25.7520   21.1050 C   0  0  0  0  0  2  0  0  0  0  0  0
  -28.4170  -26.7440   20.0920 O   0  0  0  0  0  0  0  0  0  0  0  0
  -24.5890  -31.8980   23.2320 C   0  0  0  0  0  0  0  0  0  0  0  0
  -27.2490  -27.4660   20.1650 C   0  0  0  0  0  0  0  0  0  0  0  0
  -23.3870  -30.4950   21.5840 C   0  0  0  0  0  3  0  0  0  0  0  0
  -24.8500  -28.9630   20.1600 C   0  0  0  0  0  0  0  0  0  0  0  0
  -25.9120  -30.8630   21.3890 C   0  0  0  0  0  2  0  0  0  0  0  0
  -26.0030  -29.4900   20.7580 C   0  0  0  0  0  0  0  0  0  0  0  0
  -27.2070  -28.7460   20.7620 C   0  0  0  0  0  3  0  0  0  0  0  0
  -26.0880  -26.9630   19.5420 C   0  0  0  0  0  3  0  0  0  0  0  0
  -24.8860  -27.6970   19.5500 C   0  0  0  0  0  3  0  0  0  0  0  0
  -23.6030  -29.8170   20.2040 C   0  0  0  0  0  2  0  0  0  0  0  0
  -24.6470  -31.1000   22.1280 N   0  0  0  0  0  0  0  0  0  0  0  0
  -23.5070  -32.1660   23.7720 O   0  0  0  0  0  0  0  0  0  0  0  0
  -22.7390  -29.4700   22.5430 C   0  0  0  0  0  0  0  0  0  0  0  0
  -21.4140  -29.2880   22.4200 N   0  0  0  0  0  0  0  0  0  0  0  0
  -23.4270  -28.8410   23.3530 O   0  0  0  0  0  0  0  0  0  0  0  0
  -20.9230  -29.8450   21.7360 H   0  0  0  0  0  0  0  0  0  0  0  0
  -18.0390  -28.1070   22.9390 C   0  0  0  0  0  0  0  0  0  0  0  0
  -20.6010  -28.3460   23.1870 C   0  0  0  0  0  3  0  0  0  0  0  0
  -20.6890  -26.9210   22.5930 C   0  0  0  0  0  2  0  0  0  0  0  0
  -19.5750  -26.6170   21.5860 C   0  0  0  0  0  2  0  0  0  0  0  0
  -18.2000  -26.7640   22.2470 C   0  0  0  0  0  2  0  0  0  0  0  0
  -19.1670  -28.8580   23.3650 C   0  0  0  0  0  0  0  0  0  0  0  0
  -18.9640  -30.1170   23.9710 C   0  0  0  0  0  3  0  0  0  0  0  0
  -17.6640  -30.6250   24.1560 C   0  0  0  0  0  3  0  0  0  0  0  0
  -16.5510  -29.8710   23.7460 C   0  0  0  0  0  3  0  0  0  0  0  0
  -16.7390  -28.6150   23.1430 C   0  0  0  0  0  3  0  0  0  0  0  0
  -25.8740  -32.5310   23.8540 C   0  0  0  0  0  3  0  0  0  0  0  0
  -25.5610  -33.9260   24.1900 N   0  0  0  0  0  0  0  0  0  0  0  0
  -25.8890  -34.9820   23.4350 C   0  0  0  0  0  0  0  0  0  0  0  0
  -26.5610  -34.8860   22.4040 O   0  0  0  0  0  0  0  0  0  0  0  0
  -24.9680  -34.0750   24.9940 H   0  0  0  0  0  0  0  0  0  0  0  0
  -24.1590  -36.7710   23.0760 C   0  0  0  0  0  1  0  0  0  0  0  0
  -25.3940  -36.3670   23.8960 C   0  0  0  0  0  3  0  0  0  0  0  0
  -27.5190  -37.2500   24.7520 C   0  0  0  0  0  1  0  0  0  0  0  0
  -26.4250  -37.4220   23.7990 N   0  0  0  0  0  0  0  0  0  0  0  0
  -26.0150  -38.3400   23.9500 H   0  0  0  0  0  0  0  0  0  0  0  0
  -26.3970  -31.7530   25.1230 C   0  0  1  0  0  0  0  0  0  0  0  0
  -25.3080  -31.5000   26.1910 C   0  0  0  0  0  1  0  0  0  0  0  0
  -26.9870  -30.3830   24.7170 C   0  0  0  0  0  1  0  0  0  0  0  0
  -27.5440  -32.5500   25.7890 C   0  0  0  0  0  1  0  0  0  0  0  0
  -30.6280  -19.2790   21.7920 C   0  0  0  0  0  2  0  0  0  0  0  0
  -30.0130  -17.9740   21.2160 C   0  0  0  0  0  2  0  0  0  0  0  0
  -30.8380  -16.7190   21.6100 C   0  0  0  0  0  2  0  0  0  0  0  0
  -30.8330  -14.5000   20.4150 C   0  0  0  0  0  0  0  0  0  0  0  0
  -30.4980  -12.3710   19.2010 C   0  0  0  0  0  2  0  0  0  0  0  0
  -29.5500  -12.5830   18.0030 C   0  0  0  0  0  2  0  0  0  0  0  0
  -28.0780  -12.4450   18.4400 C   0  0  0  0  0  2  0  0  0  0  0  0
  -27.7500  -13.2760   19.7080 C   0  0  0  0  0  3  0  0  0  0  0  0
  -28.8070  -13.0420   20.8110 C   0  0  0  0  0  2  0  0  0  0  0  0
  -30.1320  -13.3450   20.2430 N   0  0  0  0  0  0  0  0  0  0  0  0
  -31.9160  -14.7090   19.8650 O   0  0  0  0  0  0  0  0  0  0  0  0
  -30.2480  -15.4350   21.1890 N   0  0  0  0  0  0  0  0  0  0  0  0
  -29.3530  -15.1880   21.5850 H   0  0  0  0  0  0  0  0  0  0  0  0
  -25.3510  -13.8880   20.4100 C   0  0  0  0  0  0  0  0  0  0  0  0
  -24.2840  -13.1180   20.7890 C   0  0  0  0  0  0  0  0  0  0  0  0
  -24.7460  -11.7660   20.7700 C   0  0  0  0  0  0  0  0  0  0  0  0
  -26.3970  -13.0040   20.1890 N   0  0  0  0  0  0  0  0  0  0  0  0
  -26.0350  -11.7230   20.4600 N   0  0  0  0  0  0  0  0  0  0  0  0
  -24.0190  -10.5050   20.9720 C   0  0  0  0  0  0  0  0  0  0  0  0
  -24.4480   -9.5470   21.9170 C   0  0  0  0  0  3  0  0  0  0  0  0
  -23.7200   -8.3510   22.1050 C   0  0  0  0  0  3  0  0  0  0  0  0
  -22.5500   -8.1060   21.3480 C   0  0  0  0  0  0  0  0  0  0  0  0
  -22.1420   -9.0530   20.3910 C   0  0  0  0  0  3  0  0  0  0  0  0
  -22.8690  -10.2390   20.2010 C   0  0  0  0  0  3  0  0  0  0  0  0
  -21.7950   -6.9620   21.4440 O   0  0  0  0  0  0  0  0  0  0  0  0
  -21.7320   -6.2370   22.6080 C   0  0  0  0  0  0  0  0  0  0  0  0
  -21.2910   -6.8110   23.8200 C   0  0  0  0  0  3  0  0  0  0  0  0
  -21.1760   -6.0130   24.9760 C   0  0  0  0  0  3  0  0  0  0  0  0
  -21.4940   -4.6430   24.9200 C   0  0  0  0  0  0  0  0  0  0  0  0
  -21.9290   -4.0690   23.7130 C   0  0  0  0  0  3  0  0  0  0  0  0
  -22.0460   -4.8640   22.5590 C   0  0  0  0  0  0  0  0  0  0  0  0
  -22.4450   -4.3020   21.3930 F   0  0  0  0  0  0  0  0  0  0  0  0
  -21.3770   -3.8740   26.0280 F   0  0  0  0  0  0  0  0  0  0  0  0
  -22.8870  -13.5980   21.0620 C   0  0  0  0  0  0  0  0  0  0  0  0
  -22.1610  -12.9100   21.9350 N   0  0  0  0  0  0  0  0  0  0  0  0
  -22.4500  -14.6200   20.5360 O   0  0  0  0  0  0  0  0  0  0  0  0
  -22.5260  -12.0820   22.3820 H   0  0  0  0  0  0  0  0  0  0  0  0
  -21.2250  -13.2150   22.1610 H   0  0  0  0  0  0  0  0  0  0  0  0
  -25.5160  -15.2580   20.2220 N   0  0  0  0  0  0  0  0  0  0  0  0
  -24.7510  -15.9150   20.3240 H   0  0  0  0  0  0  0  0  0  0  0  0
  -26.3730  -15.6940   19.9050 H   0  0  0  0  0  0  0  0  0  0  0  0
  2  5  1  0
  3  1  1  0
  4  2  2  0
  4  6  1  0
  5 51  1  0
  5  1  2  0
  6  3  2  0
  8  9  1  0
  8  6  1  0
  8  7  1  0
 10 12  1  0
 10  9  1  0
 11 22  2  0
 12 17  1  0
 13 21  1  0
 13 23  1  0
 14 20  1  0
 14 16  1  0
 15 21  1  0
 16 17  2  0
 16 15  1  0
 18 19  1  0
 18 12  2  0
 19 14  2  0
 20 13  1  0
 21 11  1  0
 23 25  2  0
 24 23  1  0
 26 24  1  0
 27 36  2  0
 27 32  1  0
 28 24  1  0
 28 32  1  0
 29 28  1  0
 30 31  1  0
 30 29  1  0
 31 27  1  0
 32 33  2  0
 33 34  1  0
 35 34  2  0
 36 35  1  0
 37 11  1  0
 37 38  1  0
 37 47  1  0
 38 41  1  0
 39 43  1  0
 39 38  1  0
 40 39  2  0
 43 42  1  0
 45 43  1  0
 45 46  1  0
 45 44  1  0
 47 50  1  1
 47 48  1  0
 49 47  1  0
 52 53  1  0
 52 51  1  0
 54 62  1  0
 55 60  1  0
 56 57  1  0
 56 55  1  0
 58 57  1  0
 58 67  1  0
 58 59  1  0
 60 54  1  0
 60 59  1  0
 61 54  2  0
 62 63  1  0
 62 53  1  0
 64 65  2  0
 65 84  1  0
 66 65  1  0
 66 69  1  0
 67 64  1  0
 67 68  1  0
 68 66  2  0
 69 70  1  0
 70 71  2  0
 72 75  1  0
 72 71  1  0
 73 72  2  0
 74 73  1  0
 74 69  2  0
 75 76  1  0
 76 77  1  0
 77 78  2  0
 79 78  1  0
 79 83  1  0
 80 79  2  0
 81 76  2  0
 81 80  1  0
 82 81  1  0
 84 85  1  0
 85 88  1  0
 85 87  1  0
 86 84  2  0
 89 90  1  0
 89 64  1  0
 91 89  1  0
M  ISO  4   9 101  10 101  54 100  62 100
M  END
>  <TORSDO>  (60) 
F 21

>  <SCORE>  (60) 
-13.661

>  <name>  (60) 
59

>  <ligand_id>  (60) 
59

>  <original_smiles>  (60) 
[H]c1c([H])c([H])c2c(c1[H])C([H])([H])C([H])([H])C([H])([H])C2([H])N([H])C(=O)C1([H])N(C(=O)C([H])(N([H])C(=O)C([H])(N([H])C([H])([H])[H])C([H])([H])[H])C(C([H])([H])[H])(C([H])([H])[H])C([H])([H])[H])C([H])([H])c2c([H])c(OC([H])([H])C([H])(c3c([H])c([H])c(C([H])([H])C([H])([H])C([H])([H])N([H])C(=O)N4C([H])([H])C([H])([H])C([H])([H])C([H])(n5nc(-c6c([H])c([H])c(Oc7c([H])c([H])c(F)c([H])c7F)c([H])c6[H])c(C(=O)N([H])[H])c5N([H])[H])C4([H])[H])c([H])c3[H])C([H])([H])[H])c([H])c([H])c2C1([H])[H]

>  <smiles>  (60) 
[H]c1c([H])c([H])c2c(c1[H])C([H])([H])C([H])([H])C([H])([H])C2([H])N([H])C(=O)C1([H])N(C(=O)C([H])(N([H])C(=O)C([H])(N([H])C([H])([H])[H])C([H])([H])[H])C(C([H])([H])[H])(C([H])([H])[H])C([H])([H])[H])C([H])([H])c2c([H])c(OC([H])([H])C([H])(c3c([H])c([H])c(C([H])([H])C([H])([H])C([H])([H])N([H])C(=O)N4C([H])([H])C([H])([H])C([H])([H])C([H])(n5nc(-c6c([H])c([H])c(Oc7c([H])c([H])c(F)c([H])c7F)c([H])c6[H])c(C(=O)N([H])[H])c5N([H])[H])C4([H])[H])c([H])c3[H])C([H])([H])[H])c([H])c([H])c2C1([H])[H]

$$$$
60:0:0
     RDKit          3D

 88 96  0  0  1  0  0  0  0  0999 V2000
  -28.5650  -21.8710   20.2110 C   0  0  0  0  0  3  0  0  0  0  0  0
  -28.9940  -23.4790   20.3530 C   0  0  0  0  0  3  0  0  0  0  0  0
  -27.9400  -24.7480   20.1480 C   0  0  0  0  0  3  0  0  0  0  0  0
  -28.2450  -26.2510   20.2830 O   0  0  0  0  0  0  0  0  0  0  0  0
  -24.6260  -31.8960   23.2570 C   0  0  0  0  0  0  0  0  0  0  0  0
  -27.1860  -27.2150   20.2140 C   0  0  0  0  0  0  0  0  0  0  0  0
  -23.4180  -30.5070   21.6180 C   0  0  0  0  0  3  0  0  0  0  0  0
  -24.8580  -28.9390   20.1900 C   0  0  0  0  0  0  0  0  0  0  0  0
  -25.9700  -30.7780   21.4440 C   0  0  0  0  0  2  0  0  0  0  0  0
  -26.0400  -29.3900   20.7930 C   0  0  0  0  0  0  0  0  0  0  0  0
  -27.2060  -28.5440   20.7880 C   0  0  0  0  0  3  0  0  0  0  0  0
  -25.9780  -26.8570   19.5740 C   0  0  0  0  0  3  0  0  0  0  0  0
  -24.8370  -27.6820   19.5690 C   0  0  0  0  0  3  0  0  0  0  0  0
  -23.6330  -29.8340   20.2370 C   0  0  0  0  0  2  0  0  0  0  0  0
  -24.6910  -31.0790   22.1630 N   0  0  0  0  0  0  0  0  0  0  0  0
  -23.5420  -32.1820   23.7880 O   0  0  0  0  0  0  0  0  0  0  0  0
  -22.7410  -29.4960   22.5780 C   0  0  0  0  0  0  0  0  0  0  0  0
  -21.4120  -29.3280   22.4500 N   0  0  0  0  0  0  0  0  0  0  0  0
  -23.4110  -28.8670   23.4000 O   0  0  0  0  0  0  0  0  0  0  0  0
  -20.9280  -29.8890   21.7640 H   0  0  0  0  0  0  0  0  0  0  0  0
  -18.0290  -28.1400   22.9500 C   0  0  0  0  0  0  0  0  0  0  0  0
  -20.5880  -28.3950   23.2210 C   0  0  0  0  0  3  0  0  0  0  0  0
  -20.6860  -26.9610   22.6500 C   0  0  0  0  0  2  0  0  0  0  0  0
  -19.5850  -26.6410   21.6350 C   0  0  0  0  0  2  0  0  0  0  0  0
  -18.2030  -26.7890   22.2750 C   0  0  0  0  0  2  0  0  0  0  0  0
  -19.1490  -28.9000   23.3800 C   0  0  0  0  0  0  0  0  0  0  0  0
  -18.9330  -30.1630   23.9720 C   0  0  0  0  0  3  0  0  0  0  0  0
  -17.6300  -30.6670   24.1390 C   0  0  0  0  0  3  0  0  0  0  0  0
  -16.5240  -29.9050   23.7250 C   0  0  0  0  0  3  0  0  0  0  0  0
  -16.7240  -28.6430   23.1370 C   0  0  0  0  0  3  0  0  0  0  0  0
  -25.9080  -32.5250   23.8800 C   0  0  0  0  0  3  0  0  0  0  0  0
  -25.6020  -33.9240   24.2140 N   0  0  0  0  0  0  0  0  0  0  0  0
  -25.9190  -34.9790   23.4510 C   0  0  0  0  0  0  0  0  0  0  0  0
  -26.5700  -34.8760   22.4090 O   0  0  0  0  0  0  0  0  0  0  0  0
  -25.0200  -34.0770   25.0250 H   0  0  0  0  0  0  0  0  0  0  0  0
  -24.1740  -36.7680   23.1450 C   0  0  0  0  0  1  0  0  0  0  0  0
  -25.4410  -36.3690   23.9190 C   0  0  0  0  0  3  0  0  0  0  0  0
  -27.5970  -37.2640   24.6790 C   0  0  0  0  0  1  0  0  0  0  0  0
  -26.4650  -37.4260   23.7710 N   0  0  0  0  0  0  0  0  0  0  0  0
  -26.0600  -38.3440   23.9330 H   0  0  0  0  0  0  0  0  0  0  0  0
  -26.4180  -31.7540   25.1600 C   0  0  1  0  0  0  0  0  0  0  0  0
  -25.3210  -31.5280   26.2270 C   0  0  0  0  0  1  0  0  0  0  0  0
  -26.9930  -30.3710   24.7760 C   0  0  0  0  0  1  0  0  0  0  0  0
  -27.5720  -32.5430   25.8220 C   0  0  0  0  0  1  0  0  0  0  0  0
  -29.6310  -20.5870   20.2880 C   0  0  0  0  0  3  0  0  0  0  0  0
  -29.1720  -19.0840   20.1990 N   0  0  0  0  0  4  0  0  0  0  0  0
  -28.5290  -18.9330   20.9580 H   0  0  0  0  0  0  0  0  0  0  0  0
  -28.6240  -19.0100   19.3570 H   0  0  0  0  0  0  0  0  0  0  0  0
  -30.1770  -16.6540   21.9700 C   0  0  0  0  0  2  0  0  0  0  0  0
  -31.0290  -17.8330   21.4660 C   0  0  0  0  0  2  0  0  0  0  0  0
  -29.7980  -16.2960   20.5220 C   0  0  0  0  0  3  0  0  0  0  0  0
  -30.1960  -17.8810   20.1770 C   0  0  0  0  0  3  0  0  0  0  0  0
  -30.6000  -14.9300   20.0480 C   0  0  0  0  0  0  0  0  0  0  0  0
  -30.4040  -12.6490   18.9780 C   0  0  0  0  0  2  0  0  0  0  0  0
  -29.3880  -12.7090   17.8110 C   0  0  0  0  0  2  0  0  0  0  0  0
  -27.9490  -12.5040   18.3210 C   0  0  0  0  0  2  0  0  0  0  0  0
  -27.6390  -13.3640   19.5740 C   0  0  0  0  0  3  0  0  0  0  0  0
  -28.7610  -13.2690   20.6280 C   0  0  0  0  0  2  0  0  0  0  0  0
  -30.0130  -13.6750   19.9790 N   0  0  0  0  0  0  0  0  0  0  0  0
  -31.7540  -15.0380   19.6190 O   0  0  0  0  0  0  0  0  0  0  0  0
  -25.3050  -13.9320   20.4650 C   0  0  0  0  0  0  0  0  0  0  0  0
  -24.2620  -13.1490   20.8750 C   0  0  0  0  0  0  0  0  0  0  0  0
  -24.7190  -11.7990   20.7770 C   0  0  0  0  0  0  0  0  0  0  0  0
  -26.3290  -13.0590   20.1390 N   0  0  0  0  0  0  0  0  0  0  0  0
  -25.9890  -11.7700   20.3920 N   0  0  0  0  0  0  0  0  0  0  0  0
  -24.0010  -10.5340   20.9720 C   0  0  0  0  0  0  0  0  0  0  0  0
  -24.4550   -9.5580   21.8870 C   0  0  0  0  0  3  0  0  0  0  0  0
  -23.7360   -8.3570   22.0700 C   0  0  0  0  0  3  0  0  0  0  0  0
  -22.5480   -8.1230   21.3380 C   0  0  0  0  0  0  0  0  0  0  0  0
  -22.1120   -9.0870   20.4100 C   0  0  0  0  0  3  0  0  0  0  0  0
  -22.8320  -10.2790   20.2260 C   0  0  0  0  0  3  0  0  0  0  0  0
  -21.7980   -6.9770   21.4320 O   0  0  0  0  0  0  0  0  0  0  0  0
  -21.7360   -6.2500   22.5940 C   0  0  0  0  0  0  0  0  0  0  0  0
  -21.2910   -6.8200   23.8070 C   0  0  0  0  0  3  0  0  0  0  0  0
  -21.1770   -6.0200   24.9610 C   0  0  0  0  0  3  0  0  0  0  0  0
  -21.4970   -4.6500   24.9030 C   0  0  0  0  0  0  0  0  0  0  0  0
  -21.9350   -4.0800   23.6950 C   0  0  0  0  0  3  0  0  0  0  0  0
  -22.0500   -4.8770   22.5440 C   0  0  0  0  0  0  0  0  0  0  0  0
  -22.4520   -4.3170   21.3760 F   0  0  0  0  0  0  0  0  0  0  0  0
  -21.3790   -3.8790   26.0090 F   0  0  0  0  0  0  0  0  0  0  0  0
  -22.8840  -13.6200   21.2390 C   0  0  0  0  0  0  0  0  0  0  0  0
  -22.2070  -12.9040   22.1290 N   0  0  0  0  0  0  0  0  0  0  0  0
  -22.4190  -14.6590   20.7700 O   0  0  0  0  0  0  0  0  0  0  0  0
  -22.5970  -12.0630   22.5300 H   0  0  0  0  0  0  0  0  0  0  0  0
  -21.2840  -13.2000   22.4170 H   0  0  0  0  0  0  0  0  0  0  0  0
  -25.4600  -15.3070   20.3160 N   0  0  0  0  0  0  0  0  0  0  0  0
  -24.6940  -15.9520   20.4730 H   0  0  0  0  0  0  0  0  0  0  0  0
  -26.2750  -15.7520   19.9100 H   0  0  0  0  0  0  0  0  0  0  0  0
  1 45  2  0
  1  2  1  0
  3  4  1  0
  3  2  2  0
  5 16  2  0
  6  4  1  0
  6 11  1  0
  7 15  1  0
  7 17  1  0
  8 14  1  0
  8 10  1  0
  9 15  1  0
 10  9  1  0
 11 10  2  0
 12  6  2  0
 13 12  1  0
 13  8  2  0
 14  7  1  0
 15  5  1  0
 17 19  2  0
 18 17  1  0
 20 18  1  0
 21 30  2  0
 21 26  1  0
 22 18  1  0
 22 26  1  0
 23 22  1  0
 24 25  1  0
 24 23  1  0
 25 21  1  0
 26 27  2  0
 27 28  1  0
 29 28  2  0
 30 29  1  0
 31  5  1  0
 31 32  1  0
 31 41  1  0
 32 35  1  0
 33 37  1  0
 33 32  1  0
 34 33  2  0
 37 36  1  0
 39 37  1  0
 39 40  1  0
 39 38  1  0
 41 44  1  1
 41 42  1  0
 43 41  1  0
 46 45  1  0
 46 47  1  0
 48 46  1  0
 50 49  1  0
 51 53  1  0
 51 49  1  0
 52 46  1  0
 52 51  1  0
 52 50  1  0
 54 59  1  0
 55 56  1  0
 55 54  1  0
 57 56  1  0
 57 64  1  0
 57 58  1  0
 59 53  1  0
 59 58  1  0
 60 53  2  0
 61 62  2  0
 62 81  1  0
 63 62  1  0
 63 66  1  0
 64 65  1  0
 64 61  1  0
 65 63  2  0
 66 67  1  0
 67 68  2  0
 69 72  1  0
 69 68  1  0
 70 69  2  0
 71 70  1  0
 71 66  2  0
 72 73  1  0
 73 74  1  0
 74 75  2  0
 76 75  1  0
 76 80  1  0
 77 76  2  0
 78 73  2  0
 78 77  1  0
 79 78  1  0
 81 82  1  0
 82 85  1  0
 82 84  1  0
 83 81  2  0
 86 61  1  0
 86 87  1  0
 88 86  1  0
M  ISO  4   3 101   4 101  51 100  53 100
M  END
>  <TORSDO>  (61) 
F 21

>  <SCORE>  (61) 
-13.336

>  <name>  (61) 
60

>  <ligand_id>  (61) 
60

>  <original_smiles>  (61) 
[H]c1c([H])c([H])c2c(c1[H])C([H])([H])C([H])([H])C([H])([H])C2([H])N([H])C(=O)C1([H])N(C(=O)C([H])(N([H])C(=O)C([H])(N([H])C([H])([H])[H])C([H])([H])[H])C(C([H])([H])[H])(C([H])([H])[H])C([H])([H])[H])C([H])([H])c2c([H])c(OC([H])([H])C([H])([H])C([H])([H])C([H])([H])[N+]([H])([H])C3([H])C([H])([H])C([H])([H])C3([H])C(=O)N3C([H])([H])C([H])([H])C([H])([H])C([H])(n4nc(-c5c([H])c([H])c(Oc6c([H])c([H])c(F)c([H])c6F)c([H])c5[H])c(C(=O)N([H])[H])c4N([H])[H])C3([H])[H])c([H])c([H])c2C1([H])[H]

>  <smiles>  (61) 
[H]c1c([H])c([H])c2c(c1[H])C([H])([H])C([H])([H])C([H])([H])C2([H])N([H])C(=O)C1([H])N(C(=O)C([H])(N([H])C(=O)C([H])(N([H])C([H])([H])[H])C([H])([H])[H])C(C([H])([H])[H])(C([H])([H])[H])C([H])([H])[H])C([H])([H])c2c([H])c(OC([H])([H])C([H])([H])C([H])([H])C([H])([H])[N+]([H])([H])C3([H])C([H])([H])C([H])([H])C3([H])C(=O)N3C([H])([H])C([H])([H])C([H])([H])C([H])(n4nc(-c5c([H])c([H])c(Oc6c([H])c([H])c(F)c([H])c6F)c([H])c5[H])c(C(=O)N([H])[H])c4N([H])[H])C3([H])[H])c([H])c([H])c2C1([H])[H]

$$$$
61:0:0
     RDKit          3D

 90 98  0  0  1  0  0  0  0  0999 V2000
  -29.2760  -22.0950   20.7090 C   0  0  0  0  0  2  0  0  0  0  0  0
  -27.5120  -22.6320   19.2020 C   0  0  0  0  0  2  0  0  0  0  0  0
  -28.6250  -23.3970   19.9490 C   0  0  0  0  0  3  0  0  0  0  0  0
  -28.7710  -20.6350   20.1630 C   0  0  0  0  0  3  0  0  0  0  0  0
  -28.0320  -21.1820   18.8970 C   0  0  0  0  0  3  0  0  0  0  0  0
  -26.9600  -20.2940   18.4050 N   0  0  0  0  0  4  0  0  0  0  0  0
  -26.2770  -20.1060   19.1160 H   0  0  0  0  0  0  0  0  0  0  0  0
  -27.3480  -19.4230   18.0890 H   0  0  0  0  0  0  0  0  0  0  0  0
  -26.4940  -20.7110   17.6190 H   0  0  0  0  0  0  0  0  0  0  0  0
  -29.7360  -19.2890   19.8570 C   0  0  0  0  0  2  0  0  0  0  0  0
  -29.9120  -17.8560   20.7080 C   0  0  0  0  0  2  0  0  0  0  0  0
  -29.5670  -16.3070   20.1750 C   0  0  0  0  0  2  0  0  0  0  0  0
  -30.4870  -14.9370   20.2730 C   0  0  0  0  0  0  0  0  0  0  0  0
  -30.4060  -12.5900   19.3600 C   0  0  0  0  0  2  0  0  0  0  0  0
  -29.4570  -12.6010   18.1350 C   0  0  0  0  0  2  0  0  0  0  0  0
  -27.9940  -12.3770   18.5680 C   0  0  0  0  0  2  0  0  0  0  0  0
  -27.5980  -13.2790   19.7630 C   0  0  0  0  0  3  0  0  0  0  0  0
  -28.6620  -13.2630   20.8800 C   0  0  0  0  0  2  0  0  0  0  0  0
  -29.9430  -13.6580   20.2830 N   0  0  0  0  0  0  0  0  0  0  0  0
  -31.7010  -15.0320   20.0530 O   0  0  0  0  0  0  0  0  0  0  0  0
  -25.2120  -13.8420   20.5100 C   0  0  0  0  0  0  0  0  0  0  0  0
  -24.1520  -13.0600   20.8790 C   0  0  0  0  0  0  0  0  0  0  0  0
  -24.6290  -11.7120   20.8510 C   0  0  0  0  0  0  0  0  0  0  0  0
  -26.2620  -12.9740   20.2680 N   0  0  0  0  0  0  0  0  0  0  0  0
  -25.9200  -11.6870   20.5400 N   0  0  0  0  0  0  0  0  0  0  0  0
  -23.9130  -10.4440   21.0470 C   0  0  0  0  0  0  0  0  0  0  0  0
  -24.3620   -9.4760   21.9700 C   0  0  0  0  0  3  0  0  0  0  0  0
  -23.6450   -8.2730   22.1540 C   0  0  0  0  0  3  0  0  0  0  0  0
  -22.4650   -8.0300   21.4100 C   0  0  0  0  0  0  0  0  0  0  0  0
  -22.0380   -8.9880   20.4740 C   0  0  0  0  0  3  0  0  0  0  0  0
  -22.7560  -10.1820   20.2890 C   0  0  0  0  0  3  0  0  0  0  0  0
  -21.7170   -6.8830   21.5030 O   0  0  0  0  0  0  0  0  0  0  0  0
  -21.6950   -6.1280   22.6490 C   0  0  0  0  0  0  0  0  0  0  0  0
  -21.3000   -6.6730   23.8900 C   0  0  0  0  0  3  0  0  0  0  0  0
  -21.2260   -5.8470   25.0290 C   0  0  0  0  0  3  0  0  0  0  0  0
  -21.5360   -4.4770   24.9290 C   0  0  0  0  0  0  0  0  0  0  0  0
  -21.9250   -3.9330   23.6910 C   0  0  0  0  0  3  0  0  0  0  0  0
  -22.0020   -4.7560   22.5550 C   0  0  0  0  0  0  0  0  0  0  0  0
  -22.3580   -4.2220   21.3610 F   0  0  0  0  0  0  0  0  0  0  0  0
  -21.4590   -3.6800   26.0200 F   0  0  0  0  0  0  0  0  0  0  0  0
  -22.7500  -13.5260   21.1490 C   0  0  0  0  0  0  0  0  0  0  0  0
  -22.0280  -12.8250   22.0150 N   0  0  0  0  0  0  0  0  0  0  0  0
  -22.3030  -14.5450   20.6240 O   0  0  0  0  0  0  0  0  0  0  0  0
  -22.4060  -11.9980   22.4560 H   0  0  0  0  0  0  0  0  0  0  0  0
  -21.0870  -13.1150   22.2400 H   0  0  0  0  0  0  0  0  0  0  0  0
  -25.3640  -15.2130   20.3320 N   0  0  0  0  0  0  0  0  0  0  0  0
  -24.5880  -15.8570   20.4340 H   0  0  0  0  0  0  0  0  0  0  0  0
  -26.2150  -15.6620   20.0160 H   0  0  0  0  0  0  0  0  0  0  0  0
  -28.1340  -24.8160   20.6970 C   0  0  0  0  0  2  0  0  0  0  0  0
  -28.2930  -26.2710   20.2140 O   0  0  0  0  0  0  0  0  0  0  0  0
  -24.6240  -31.8880   23.2360 C   0  0  0  0  0  0  0  0  0  0  0  0
  -27.2060  -27.2000   20.2260 C   0  0  0  0  0  0  0  0  0  0  0  0
  -23.4170  -30.4800   21.6120 C   0  0  0  0  0  3  0  0  0  0  0  0
  -24.8620  -28.8980   20.1930 C   0  0  0  0  0  0  0  0  0  0  0  0
  -25.9640  -30.7650   21.4200 C   0  0  0  0  0  2  0  0  0  0  0  0
  -26.0410  -29.3690   20.7860 C   0  0  0  0  0  0  0  0  0  0  0  0
  -27.2160  -28.5370   20.7830 C   0  0  0  0  0  3  0  0  0  0  0  0
  -26.0030  -26.8120   19.6030 C   0  0  0  0  0  3  0  0  0  0  0  0
  -24.8520  -27.6310   19.5870 C   0  0  0  0  0  3  0  0  0  0  0  0
  -23.6260  -29.7830   20.2400 C   0  0  0  0  0  2  0  0  0  0  0  0
  -24.6890  -31.0660   22.1460 N   0  0  0  0  0  0  0  0  0  0  0  0
  -23.5400  -32.1720   23.7710 O   0  0  0  0  0  0  0  0  0  0  0  0
  -22.7470  -29.4780   22.5840 C   0  0  0  0  0  0  0  0  0  0  0  0
  -21.4200  -29.3010   22.4630 N   0  0  0  0  0  0  0  0  0  0  0  0
  -23.4240  -28.8590   23.4090 O   0  0  0  0  0  0  0  0  0  0  0  0
  -20.9290  -29.8510   21.7720 H   0  0  0  0  0  0  0  0  0  0  0  0
  -18.0460  -28.0920   22.9680 C   0  0  0  0  0  0  0  0  0  0  0  0
  -20.6030  -28.3660   23.2400 C   0  0  0  0  0  3  0  0  0  0  0  0
  -20.7120  -26.9300   22.6720 C   0  0  0  0  0  2  0  0  0  0  0  0
  -19.6120  -26.5950   21.6600 C   0  0  0  0  0  2  0  0  0  0  0  0
  -18.2290  -26.7390   22.3010 C   0  0  0  0  0  2  0  0  0  0  0  0
  -19.1610  -28.8630   23.3930 C   0  0  0  0  0  0  0  0  0  0  0  0
  -18.9330  -30.1300   23.9740 C   0  0  0  0  0  3  0  0  0  0  0  0
  -17.6240  -30.6250   24.1350 C   0  0  0  0  0  3  0  0  0  0  0  0
  -16.5260  -29.8490   23.7280 C   0  0  0  0  0  3  0  0  0  0  0  0
  -16.7370  -28.5840   23.1510 C   0  0  0  0  0  3  0  0  0  0  0  0
  -25.9050  -32.5260   23.8550 C   0  0  0  0  0  3  0  0  0  0  0  0
  -25.5920  -33.9250   24.1890 N   0  0  0  0  0  0  0  0  0  0  0  0
  -25.9180  -34.9820   23.4320 C   0  0  0  0  0  0  0  0  0  0  0  0
  -26.5790  -34.8830   22.3960 O   0  0  0  0  0  0  0  0  0  0  0  0
  -25.0000  -34.0760   24.9920 H   0  0  0  0  0  0  0  0  0  0  0  0
  -24.1830  -36.7750   23.1020 C   0  0  0  0  0  1  0  0  0  0  0  0
  -25.4320  -36.3690   23.8970 C   0  0  0  0  0  3  0  0  0  0  0  0
  -27.5750  -37.2590   24.7040 C   0  0  0  0  0  1  0  0  0  0  0  0
  -26.4610  -37.4250   23.7750 N   0  0  0  0  0  0  0  0  0  0  0  0
  -26.0540  -38.3440   23.9280 H   0  0  0  0  0  0  0  0  0  0  0  0
  -26.4240  -31.7570   25.1320 C   0  0  1  0  0  0  0  0  0  0  0  0
  -25.3320  -31.5200   26.2010 C   0  0  0  0  0  1  0  0  0  0  0  0
  -27.0050  -30.3780   24.7410 C   0  0  0  0  0  1  0  0  0  0  0  0
  -27.5770  -32.5500   25.7890 C   0  0  0  0  0  1  0  0  0  0  0  0
  2  3  1  0
  3 49  1  0
  3  1  1  0
  4 10  1  0
  4  1  1  0
  5  6  1  0
  5  2  1  0
  5  4  1  0
  6  7  1  0
  8  6  1  0
  9  6  1  0
 10 11  1  0
 12 13  1  0
 12 11  1  0
 13 19  1  0
 14 19  1  0
 15 16  1  0
 15 14  1  0
 17 16  1  0
 17 24  1  0
 17 18  1  0
 19 18  1  0
 20 13  2  0
 21 22  2  0
 22 41  1  0
 23 22  1  0
 23 26  1  0
 24 21  1  0
 24 25  1  0
 25 23  2  0
 26 27  1  0
 27 28  2  0
 29 32  1  0
 29 28  1  0
 30 29  2  0
 31 30  1  0
 31 26  2  0
 32 33  1  0
 33 34  1  0
 34 35  2  0
 36 35  1  0
 36 40  1  0
 37 36  2  0
 38 33  2  0
 38 37  1  0
 39 38  1  0
 41 42  1  0
 42 45  1  0
 42 44  1  0
 43 41  2  0
 46 47  1  0
 46 21  1  0
 48 46  1  0
 50 52  1  0
 50 49  1  0
 51 62  2  0
 52 57  1  0
 53 61  1  0
 53 63  1  0
 54 60  1  0
 54 56  1  0
 55 61  1  0
 56 55  1  0
 57 56  2  0
 58 52  2  0
 59 58  1  0
 59 54  2  0
 60 53  1  0
 61 51  1  0
 63 65  2  0
 64 63  1  0
 66 64  1  0
 67 76  2  0
 67 72  1  0
 68 64  1  0
 68 72  1  0
 69 68  1  0
 70 71  1  0
 70 69  1  0
 71 67  1  0
 72 73  2  0
 73 74  1  0
 75 74  2  0
 76 75  1  0
 77 51  1  0
 77 78  1  0
 77 87  1  0
 78 81  1  0
 79 83  1  0
 79 78  1  0
 80 79  2  0
 83 82  1  0
 85 83  1  0
 85 86  1  0
 85 84  1  0
 87 90  1  1
 87 88  1  0
 89 87  1  0
M  ISO  4  12 100  13 100  49 101  50 101
M  END
>  <TORSDO>  (62) 
F 21

>  <SCORE>  (62) 
-13.584

>  <name>  (62) 
61

>  <ligand_id>  (62) 
61

>  <original_smiles>  (62) 
[H]c1c([H])c([H])c2c(c1[H])C([H])([H])C([H])([H])C([H])([H])C2([H])N([H])C(=O)C1([H])N(C(=O)C([H])(N([H])C(=O)C([H])(N([H])C([H])([H])[H])C([H])([H])[H])C(C([H])([H])[H])(C([H])([H])[H])C([H])([H])[H])C([H])([H])c2c([H])c(OC([H])([H])C3([H])C([H])([H])C([H])(C([H])([H])C([H])([H])C([H])([H])C(=O)N4C([H])([H])C([H])([H])C([H])([H])C([H])(n5nc(-c6c([H])c([H])c(Oc7c([H])c([H])c(F)c([H])c7F)c([H])c6[H])c(C(=O)N([H])[H])c5N([H])[H])C4([H])[H])C([H])([N+]([H])([H])[H])C3([H])[H])c([H])c([H])c2C1([H])[H]

>  <smiles>  (62) 
[H]c1c([H])c([H])c2c(c1[H])C([H])([H])C([H])([H])C([H])([H])C2([H])N([H])C(=O)C1([H])N(C(=O)C([H])(N([H])C(=O)C([H])(N([H])C([H])([H])[H])C([H])([H])[H])C(C([H])([H])[H])(C([H])([H])[H])C([H])([H])[H])C([H])([H])c2c([H])c(OC([H])([H])C3([H])C([H])([H])C([H])(C([H])([H])C([H])([H])C([H])([H])C(=O)N4C([H])([H])C([H])([H])C([H])([H])C([H])(n5nc(-c6c([H])c([H])c(Oc7c([H])c([H])c(F)c([H])c7F)c([H])c6[H])c(C(=O)N([H])[H])c5N([H])[H])C4([H])[H])C([H])([N+]([H])([H])[H])C3([H])[H])c([H])c([H])c2C1([H])[H]

$$$$
62:0:0
     RDKit          3D

 92100  0  0  1  0  0  0  0  0999 V2000
  -30.9120  -21.1590   19.5820 C   0  0  0  0  0  2  0  0  0  0  0  0
  -28.6430  -21.1720   20.0850 C   0  0  0  0  0  2  0  0  0  0  0  0
  -29.7720  -20.0590   19.4780 C   0  0  0  0  0  3  0  0  0  0  0  0
  -30.4400  -22.6390   19.9770 C   0  0  0  0  0  3  0  0  0  0  0  0
  -28.9240  -22.8220   19.7450 C   0  0  0  0  0  3  0  0  0  0  0  0
  -31.2840  -23.7290   19.2980 C   0  0  0  0  0  1  0  0  0  0  0  0
  -28.1130  -24.2910   20.3500 C   0  0  0  0  0  2  0  0  0  0  0  0
  -28.3060  -25.9030   20.2240 O   0  0  0  0  0  0  0  0  0  0  0  0
  -24.4510  -31.7090   23.1050 C   0  0  0  0  0  0  0  0  0  0  0  0
  -27.2370  -26.9240   20.1940 C   0  0  0  0  0  0  0  0  0  0  0  0
  -23.3440  -30.2590   21.4490 C   0  0  0  0  0  3  0  0  0  0  0  0
  -24.8770  -28.6960   20.0800 C   0  0  0  0  0  0  0  0  0  0  0  0
  -25.9020  -30.5600   21.3660 C   0  0  0  0  0  2  0  0  0  0  0  0
  -26.0340  -29.1520   20.7250 C   0  0  0  0  0  0  0  0  0  0  0  0
  -27.2150  -28.2880   20.7530 C   0  0  0  0  0  3  0  0  0  0  0  0
  -26.0420  -26.6000   19.5170 C   0  0  0  0  0  3  0  0  0  0  0  0
  -24.9010  -27.4380   19.4570 C   0  0  0  0  0  3  0  0  0  0  0  0
  -23.6310  -29.5770   20.0850 C   0  0  0  0  0  2  0  0  0  0  0  0
  -24.5850  -30.8700   22.0270 N   0  0  0  0  0  0  0  0  0  0  0  0
  -23.3400  -31.9710   23.5910 O   0  0  0  0  0  0  0  0  0  0  0  0
  -22.6570  -29.2510   22.4040 C   0  0  0  0  0  0  0  0  0  0  0  0
  -21.3300  -29.0740   22.2660 N   0  0  0  0  0  0  0  0  0  0  0  0
  -23.3230  -28.6300   23.2380 O   0  0  0  0  0  0  0  0  0  0  0  0
  -20.8480  -29.6260   21.5710 H   0  0  0  0  0  0  0  0  0  0  0  0
  -17.9510  -27.8440   22.7510 C   0  0  0  0  0  0  0  0  0  0  0  0
  -20.5080  -28.1240   23.0220 C   0  0  0  0  0  3  0  0  0  0  0  0
  -20.6190  -26.6970   22.4330 C   0  0  0  0  0  2  0  0  0  0  0  0
  -19.5220  -26.3800   21.4120 C   0  0  0  0  0  2  0  0  0  0  0  0
  -18.1370  -26.5070   22.0530 C   0  0  0  0  0  2  0  0  0  0  0  0
  -19.0640  -28.6110   23.1890 C   0  0  0  0  0  0  0  0  0  0  0  0
  -18.8340  -29.8630   23.8000 C   0  0  0  0  0  3  0  0  0  0  0  0
  -17.5250  -30.3500   23.9750 C   0  0  0  0  0  3  0  0  0  0  0  0
  -16.4260  -29.5810   23.5520 C   0  0  0  0  0  3  0  0  0  0  0  0
  -16.6400  -28.3310   22.9440 C   0  0  0  0  0  3  0  0  0  0  0  0
  -25.6880  -32.3910   23.7650 C   0  0  0  0  0  3  0  0  0  0  0  0
  -25.3130  -33.7760   24.0990 N   0  0  0  0  0  0  0  0  0  0  0  0
  -25.6130  -34.8520   23.3580 C   0  0  0  0  0  0  0  0  0  0  0  0
  -26.3000  -34.7850   22.3370 O   0  0  0  0  0  0  0  0  0  0  0  0
  -24.7000  -33.8970   24.8920 H   0  0  0  0  0  0  0  0  0  0  0  0
  -23.8190  -36.5850   23.0170 C   0  0  0  0  0  1  0  0  0  0  0  0
  -25.0710  -36.2170   23.8280 C   0  0  0  0  0  3  0  0  0  0  0  0
  -27.1620  -37.1800   24.6830 C   0  0  0  0  0  1  0  0  0  0  0  0
  -26.0630  -37.3090   23.7310 N   0  0  0  0  0  0  0  0  0  0  0  0
  -25.6200  -38.2120   23.8860 H   0  0  0  0  0  0  0  0  0  0  0  0
  -26.1900  -31.6390   25.0600 C   0  0  1  0  0  0  0  0  0  0  0  0
  -25.0710  -31.3580   26.0930 C   0  0  0  0  0  1  0  0  0  0  0  0
  -26.8370  -30.2830   24.6930 C   0  0  0  0  0  1  0  0  0  0  0  0
  -27.2920  -32.4740   25.7550 C   0  0  0  0  0  1  0  0  0  0  0  0
  -30.3470  -18.3910   19.8450 C   0  0  0  0  0  3  0  0  0  0  0  0
  -31.6830  -18.3080   19.2200 N   0  0  0  0  0  4  0  0  0  0  0  0
  -31.6050  -18.2300   18.2220 H   0  0  0  0  0  0  0  0  0  0  0  0
  -32.1880  -17.5040   19.5580 H   0  0  0  0  0  0  0  0  0  0  0  0
  -32.2260  -19.1270   19.4280 H   0  0  0  0  0  0  0  0  0  0  0  0
  -29.7040  -16.7530   19.6530 C   0  0  0  0  0  3  0  0  0  0  0  0
  -30.5120  -15.2000   19.5110 C   0  0  0  0  0  0  0  0  0  0  0  0
  -30.3900  -12.7730   18.6340 C   0  0  0  0  0  2  0  0  0  0  0  0
  -29.3270  -12.6210   17.5130 C   0  0  0  0  0  2  0  0  0  0  0  0
  -27.9210  -12.3850   18.0960 C   0  0  0  0  0  2  0  0  0  0  0  0
  -27.6190  -13.3320   19.2830 C   0  0  0  0  0  3  0  0  0  0  0  0
  -28.7920  -13.3770   20.2820 C   0  0  0  0  0  2  0  0  0  0  0  0
  -29.9650  -13.8870   19.5510 N   0  0  0  0  0  0  0  0  0  0  0  0
  -31.6950  -15.2030   19.1410 O   0  0  0  0  0  0  0  0  0  0  0  0
  -25.3480  -13.9200   20.3000 C   0  0  0  0  0  0  0  0  0  0  0  0
  -24.3180  -13.1530   20.7660 C   0  0  0  0  0  0  0  0  0  0  0  0
  -24.7490  -11.7970   20.6470 C   0  0  0  0  0  0  0  0  0  0  0  0
  -26.3440  -13.0340   19.9250 N   0  0  0  0  0  0  0  0  0  0  0  0
  -25.9990  -11.7490   20.1980 N   0  0  0  0  0  0  0  0  0  0  0  0
  -24.0150  -10.5460   20.8780 C   0  0  0  0  0  0  0  0  0  0  0  0
  -24.4790   -9.5780   21.7950 C   0  0  0  0  0  3  0  0  0  0  0  0
  -23.7450   -8.3940   22.0170 C   0  0  0  0  0  3  0  0  0  0  0  0
  -22.5320   -8.1700   21.3210 C   0  0  0  0  0  0  0  0  0  0  0  0
  -22.0860   -9.1290   20.3950 C   0  0  0  0  0  3  0  0  0  0  0  0
  -22.8200  -10.3050   20.1720 C   0  0  0  0  0  3  0  0  0  0  0  0
  -21.7660   -7.0370   21.4520 O   0  0  0  0  0  0  0  0  0  0  0  0
  -21.7080   -6.3400   22.6310 C   0  0  0  0  0  0  0  0  0  0  0  0
  -21.2810   -6.9440   23.8340 C   0  0  0  0  0  3  0  0  0  0  0  0
  -21.1680   -6.1740   25.0070 C   0  0  0  0  0  3  0  0  0  0  0  0
  -21.4750   -4.8000   24.9810 C   0  0  0  0  0  0  0  0  0  0  0  0
  -21.8960   -4.1950   23.7830 C   0  0  0  0  0  3  0  0  0  0  0  0
  -22.0090   -4.9630   22.6120 C   0  0  0  0  0  0  0  0  0  0  0  0
  -22.3940   -4.3700   21.4540 F   0  0  0  0  0  0  0  0  0  0  0  0
  -21.3600   -4.0560   26.1060 F   0  0  0  0  0  0  0  0  0  0  0  0
  -22.9730  -13.6530   21.2010 C   0  0  0  0  0  0  0  0  0  0  0  0
  -22.3390  -12.9640   22.1420 N   0  0  0  0  0  0  0  0  0  0  0  0
  -22.4980  -14.6920   20.7430 O   0  0  0  0  0  0  0  0  0  0  0  0
  -22.7430  -12.1240   22.5300 H   0  0  0  0  0  0  0  0  0  0  0  0
  -21.4410  -13.2820   22.4750 H   0  0  0  0  0  0  0  0  0  0  0  0
  -25.4910  -15.2910   20.1340 N   0  0  0  0  0  0  0  0  0  0  0  0
  -24.7370  -15.9320   20.3580 H   0  0  0  0  0  0  0  0  0  0  0  0
  -26.2770  -15.7470   19.6940 H   0  0  0  0  0  0  0  0  0  0  0  0
  -28.8140  -16.3510   22.0810 C   0  0  0  0  0  1  0  0  0  0  0  0
  -28.4990  -16.6800   20.6120 C   0  0  0  0  0  2  0  0  0  0  0  0
  1  4  1  0
  3  1  1  0
  3 49  1  0
  3  2  1  0
  4  6  1  0
  5  4  1  0
  5  2  1  0
  5  7  1  0
  8  7  1  0
  9 20  2  0
 10  8  1  0
 10 15  1  0
 11 19  1  0
 11 21  1  0
 12 18  1  0
 12 14  1  0
 13 19  1  0
 14 15  2  0
 14 13  1  0
 16 10  2  0
 17 16  1  0
 17 12  2  0
 18 11  1  0
 19  9  1  0
 21 23  2  0
 22 21  1  0
 24 22  1  0
 25 34  2  0
 25 30  1  0
 26 22  1  0
 26 30  1  0
 27 26  1  0
 28 29  1  0
 28 27  1  0
 29 25  1  0
 30 31  2  0
 31 32  1  0
 33 32  2  0
 34 33  1  0
 35  9  1  0
 35 36  1  0
 35 45  1  0
 36 39  1  0
 37 41  1  0
 37 36  1  0
 38 37  2  0
 41 40  1  0
 43 41  1  0
 43 44  1  0
 43 42  1  0
 45 48  1  1
 45 46  1  0
 47 45  1  0
 49 50  1  0
 50 53  1  0
 50 52  1  0
 51 50  1  0
 54 49  1  0
 54 92  1  0
 55 61  1  0
 55 54  1  0
 56 61  1  0
 57 58  1  0
 57 56  1  0
 59 58  1  0
 59 66  1  0
 59 60  1  0
 61 60  1  0
 62 55  2  0
 63 64  2  0
 64 83  1  0
 65 64  1  0
 65 68  1  0
 66 67  1  0
 66 63  1  0
 67 65  2  0
 68 69  1  0
 69 70  2  0
 71 74  1  0
 71 70  1  0
 72 71  2  0
 73 72  1  0
 73 68  2  0
 74 75  1  0
 75 76  1  0
 76 77  2  0
 78 77  1  0
 78 82  1  0
 79 78  2  0
 80 75  2  0
 80 79  1  0
 81 80  1  0
 83 84  1  0
 84 87  1  0
 84 86  1  0
 85 83  2  0
 88 63  1  0
 88 89  1  0
 90 88  1  0
 92 91  1  0
M  ISO  4   7 101   8 101  54 100  55 100
M  END
>  <TORSDO>  (63) 
F 21

>  <SCORE>  (63) 
-13.194

>  <name>  (63) 
62

>  <ligand_id>  (63) 
62

>  <original_smiles>  (63) 
[H]c1c([H])c([H])c2c(c1[H])C([H])([H])C([H])([H])C([H])([H])C2([H])N([H])C(=O)C1([H])N(C(=O)C([H])(N([H])C(=O)C([H])(N([H])C([H])([H])[H])C([H])([H])[H])C(C([H])([H])[H])(C([H])([H])[H])C([H])([H])[H])C([H])([H])c2c([H])c(OC([H])([H])C3([H])C([H])([H])C([H])(C([H])(C([H])(C(=O)N4C([H])([H])C([H])([H])C([H])([H])C([H])(n5nc(-c6c([H])c([H])c(Oc7c([H])c([H])c(F)c([H])c7F)c([H])c6[H])c(C(=O)N([H])[H])c5N([H])[H])C4([H])[H])C([H])([H])C([H])([H])[H])[N+]([H])([H])[H])C([H])([H])C3([H])C([H])([H])[H])c([H])c([H])c2C1([H])[H]

>  <smiles>  (63) 
[H]c1c([H])c([H])c2c(c1[H])C([H])([H])C([H])([H])C([H])([H])C2([H])N([H])C(=O)C1([H])N(C(=O)C([H])(N([H])C(=O)C([H])(N([H])C([H])([H])[H])C([H])([H])[H])C(C([H])([H])[H])(C([H])([H])[H])C([H])([H])[H])C([H])([H])c2c([H])c(OC([H])([H])C3([H])C([H])([H])C([H])(C([H])(C([H])(C(=O)N4C([H])([H])C([H])([H])C([H])([H])C([H])(n5nc(-c6c([H])c([H])c(Oc7c([H])c([H])c(F)c([H])c7F)c([H])c6[H])c(C(=O)N([H])[H])c5N([H])[H])C4([H])[H])C([H])([H])C([H])([H])[H])[N+]([H])([H])[H])C([H])([H])C3([H])C([H])([H])[H])c([H])c([H])c2C1([H])[H]

$$$$
63:0:0
     RDKit          3D

 87 95  0  0  1  0  0  0  0  0999 V2000
  -28.9660  -21.7560   19.7500 C   0  0  0  0  0  2  0  0  0  0  0  0
  -29.6570  -19.0070   20.0520 C   0  0  0  0  0  3  0  0  0  0  0  0
  -29.1020  -20.2630   20.4420 C   0  0  0  0  0  3  0  0  0  0  0  0
  -30.5530  -14.9410   20.0010 C   0  0  0  0  0  0  0  0  0  0  0  0
  -30.3630  -12.6480   18.9070 C   0  0  0  0  0  2  0  0  0  0  0  0
  -29.3330  -12.6810   17.7520 C   0  0  0  0  0  2  0  0  0  0  0  0
  -27.9010  -12.4650   18.2770 C   0  0  0  0  0  2  0  0  0  0  0  0
  -27.6020  -13.3230   19.5330 C   0  0  0  0  0  3  0  0  0  0  0  0
  -28.7340  -13.2240   20.5750 C   0  0  0  0  0  2  0  0  0  0  0  0
  -29.9690  -13.6750   19.9140 N   0  0  0  0  0  0  0  0  0  0  0  0
  -31.6610  -15.1000   19.4790 O   0  0  0  0  0  0  0  0  0  0  0  0
  -30.4340  -17.4700   22.0460 C   0  0  0  0  0  0  0  0  0  0  0  0
  -30.1210  -15.9730   22.0910 C   0  0  0  0  0  2  0  0  0  0  0  0
  -29.5200  -17.5710   20.8410 C   0  0  0  0  0  3  0  0  0  0  0  0
  -29.8280  -15.9950   20.6250 N   0  0  0  0  0  0  0  0  0  0  0  0
  -31.1200  -18.2500   22.7140 O   0  0  0  0  0  0  0  0  0  0  0  0
  -25.2790  -13.8990   20.4460 C   0  0  0  0  0  0  0  0  0  0  0  0
  -24.2340  -13.1210   20.8630 C   0  0  0  0  0  0  0  0  0  0  0  0
  -24.6830  -11.7680   20.7570 C   0  0  0  0  0  0  0  0  0  0  0  0
  -26.2950  -13.0210   20.1080 N   0  0  0  0  0  0  0  0  0  0  0  0
  -25.9500  -11.7320   20.3590 N   0  0  0  0  0  0  0  0  0  0  0  0
  -23.9590  -10.5050   20.9590 C   0  0  0  0  0  0  0  0  0  0  0  0
  -24.4310   -9.5170   21.8510 C   0  0  0  0  0  3  0  0  0  0  0  0
  -23.7060   -8.3210   22.0410 C   0  0  0  0  0  3  0  0  0  0  0  0
  -22.4960   -8.1050   21.3400 C   0  0  0  0  0  0  0  0  0  0  0  0
  -22.0430   -9.0820   20.4370 C   0  0  0  0  0  3  0  0  0  0  0  0
  -22.7680  -10.2690   20.2440 C   0  0  0  0  0  3  0  0  0  0  0  0
  -21.7380   -6.9620   21.4430 O   0  0  0  0  0  0  0  0  0  0  0  0
  -21.7200   -6.2120   22.5910 C   0  0  0  0  0  0  0  0  0  0  0  0
  -21.3520   -6.7640   23.8360 C   0  0  0  0  0  3  0  0  0  0  0  0
  -21.2780   -5.9410   24.9780 C   0  0  0  0  0  3  0  0  0  0  0  0
  -21.5630   -4.5670   24.8750 C   0  0  0  0  0  0  0  0  0  0  0  0
  -21.9250   -4.0130   23.6340 C   0  0  0  0  0  3  0  0  0  0  0  0
  -22.0000   -4.8330   22.4950 C   0  0  0  0  0  0  0  0  0  0  0  0
  -22.3290   -4.2910   21.2970 F   0  0  0  0  0  0  0  0  0  0  0  0
  -21.4860   -3.7740   25.9700 F   0  0  0  0  0  0  0  0  0  0  0  0
  -22.8640  -13.6000   21.2440 C   0  0  0  0  0  0  0  0  0  0  0  0
  -22.1960  -12.8900   22.1480 N   0  0  0  0  0  0  0  0  0  0  0  0
  -22.3950  -14.6360   20.7750 O   0  0  0  0  0  0  0  0  0  0  0  0
  -22.5900  -12.0510   22.5470 H   0  0  0  0  0  0  0  0  0  0  0  0
  -21.2800  -13.1920   22.4470 H   0  0  0  0  0  0  0  0  0  0  0  0
  -25.4460  -15.2740   20.3040 N   0  0  0  0  0  0  0  0  0  0  0  0
  -24.7000  -15.9340   20.4930 H   0  0  0  0  0  0  0  0  0  0  0  0
  -26.2850  -15.7150   19.9470 H   0  0  0  0  0  0  0  0  0  0  0  0
  -28.8340  -23.2580   20.5250 C   0  0  0  0  0  3  0  0  0  0  0  0
  -28.0740  -24.6360   19.8970 C   0  0  0  0  0  3  0  0  0  0  0  0
  -28.2100  -26.1350   20.3240 O   0  0  0  0  0  0  0  0  0  0  0  0
  -24.5960  -31.8790   23.2000 C   0  0  0  0  0  0  0  0  0  0  0  0
  -27.1530  -27.1170   20.2160 C   0  0  0  0  0  0  0  0  0  0  0  0
  -23.3860  -30.4640   21.5850 C   0  0  0  0  0  3  0  0  0  0  0  0
  -24.8250  -28.8700   20.1700 C   0  0  0  0  0  0  0  0  0  0  0  0
  -25.9400  -30.7200   21.4070 C   0  0  0  0  0  2  0  0  0  0  0  0
  -26.0070  -29.3180   20.7740 C   0  0  0  0  0  0  0  0  0  0  0  0
  -27.1670  -28.4560   20.7830 C   0  0  0  0  0  3  0  0  0  0  0  0
  -25.9500  -26.7790   19.5550 C   0  0  0  0  0  3  0  0  0  0  0  0
  -24.8110  -27.6140   19.5450 C   0  0  0  0  0  3  0  0  0  0  0  0
  -23.6000  -29.7690   20.2130 C   0  0  0  0  0  2  0  0  0  0  0  0
  -24.6600  -31.0430   22.1190 N   0  0  0  0  0  0  0  0  0  0  0  0
  -23.5130  -32.1740   23.7290 O   0  0  0  0  0  0  0  0  0  0  0  0
  -22.7100  -29.4720   22.5640 C   0  0  0  0  0  0  0  0  0  0  0  0
  -21.3800  -29.3030   22.4460 N   0  0  0  0  0  0  0  0  0  0  0  0
  -23.3830  -28.8540   23.3920 O   0  0  0  0  0  0  0  0  0  0  0  0
  -20.8930  -29.8530   21.7510 H   0  0  0  0  0  0  0  0  0  0  0  0
  -17.9990  -28.1130   22.9740 C   0  0  0  0  0  0  0  0  0  0  0  0
  -20.5590  -28.3790   23.2340 C   0  0  0  0  0  3  0  0  0  0  0  0
  -20.6590  -26.9370   22.6850 C   0  0  0  0  0  2  0  0  0  0  0  0
  -19.5560  -26.5980   21.6770 C   0  0  0  0  0  2  0  0  0  0  0  0
  -18.1750  -26.7520   22.3200 C   0  0  0  0  0  2  0  0  0  0  0  0
  -19.1190  -28.8820   23.3890 C   0  0  0  0  0  0  0  0  0  0  0  0
  -18.8990  -30.1540   23.9630 C   0  0  0  0  0  3  0  0  0  0  0  0
  -17.5940  -30.6550   24.1260 C   0  0  0  0  0  3  0  0  0  0  0  0
  -16.4900  -29.8830   23.7260 C   0  0  0  0  0  3  0  0  0  0  0  0
  -16.6930  -28.6140   23.1560 C   0  0  0  0  0  3  0  0  0  0  0  0
  -25.8790  -32.5210   23.8130 C   0  0  0  0  0  3  0  0  0  0  0  0
  -26.3940  -31.7670   25.1020 C   0  0  1  0  0  0  0  0  0  0  0  0
  -25.3000  -31.5530   26.1750 C   0  0  0  0  0  1  0  0  0  0  0  0
  -26.9700  -30.3800   24.7350 C   0  0  0  0  0  1  0  0  0  0  0  0
  -27.5490  -32.5680   25.7480 C   0  0  0  0  0  1  0  0  0  0  0  0
  -25.5710  -33.9240   24.1300 N   0  0  0  0  0  0  0  0  0  0  0  0
  -25.8920  -34.9710   23.3580 C   0  0  0  0  0  0  0  0  0  0  0  0
  -26.5480  -34.8570   22.3190 O   0  0  0  0  0  0  0  0  0  0  0  0
  -24.9860  -34.0870   24.9370 H   0  0  0  0  0  0  0  0  0  0  0  0
  -24.1550  -36.7610   23.0220 C   0  0  0  0  0  1  0  0  0  0  0  0
  -25.4140  -36.3650   23.8100 C   0  0  0  0  0  3  0  0  0  0  0  0
  -27.5670  -37.2630   24.5780 C   0  0  0  0  0  1  0  0  0  0  0  0
  -26.4420  -37.4180   23.6600 N   0  0  0  0  0  0  0  0  0  0  0  0
  -26.0380  -38.3390   23.8070 H   0  0  0  0  0  0  0  0  0  0  0  0
  1  3  1  0
  1 45  1  0
  2  3  2  0
  4 15  1  0
  5 10  1  0
  6  7  1  0
  6  5  1  0
  8  7  1  0
  8 20  1  0
  8  9  1  0
 10  4  1  0
 10  9  1  0
 11  4  2  0
 12 13  1  0
 12 16  2  0
 14  2  1  0
 14 12  1  0
 15 14  1  0
 15 13  1  0
 17 18  2  0
 18 37  1  0
 19 18  1  0
 19 22  1  0
 20 21  1  0
 20 17  1  0
 21 19  2  0
 22 23  1  0
 23 24  2  0
 25 28  1  0
 25 24  1  0
 26 25  2  0
 27 26  1  0
 27 22  2  0
 28 29  1  0
 29 30  1  0
 30 31  2  0
 32 31  1  0
 32 36  1  0
 33 32  2  0
 34 29  2  0
 34 33  1  0
 35 34  1  0
 37 38  1  0
 38 41  1  0
 38 40  1  0
 39 37  2  0
 42 17  1  0
 42 43  1  0
 44 42  1  0
 46 47  1  0
 46 45  2  0
 48 59  2  0
 49 47  1  0
 49 54  1  0
 50 58  1  0
 50 60  1  0
 51 57  1  0
 51 53  1  0
 52 58  1  0
 53 54  2  0
 53 52  1  0
 55 49  2  0
 56 55  1  0
 56 51  2  0
 57 50  1  0
 58 48  1  0
 60 62  2  0
 61 60  1  0
 63 61  1  0
 64 73  2  0
 64 69  1  0
 65 61  1  0
 65 69  1  0
 66 65  1  0
 67 68  1  0
 67 66  1  0
 68 64  1  0
 69 70  2  0
 70 71  1  0
 72 71  2  0
 73 72  1  0
 74 48  1  0
 74 79  1  0
 74 75  1  0
 75 78  1  1
 75 76  1  0
 77 75  1  0
 79 82  1  0
 80 84  1  0
 80 79  1  0
 81 80  2  0
 84 83  1  0
 86 87  1  0
 86 84  1  0
 86 85  1  0
M  ISO  4   4 100  15 100  46 101  47 101
M  END
>  <TORSDO>  (64) 
F 19

>  <SCORE>  (64) 
-14.857

>  <name>  (64) 
63

>  <ligand_id>  (64) 
63

>  <original_smiles>  (64) 
[H]C(=C([H])C([H])([H])C([H])([H])C([H])([H])Oc1c([H])c([H])c2c(c1[H])C([H])([H])N(C(=O)C([H])(N([H])C(=O)C([H])(N([H])C([H])([H])[H])C([H])([H])[H])C(C([H])([H])[H])(C([H])([H])[H])C([H])([H])[H])C([H])(C(=O)N([H])C1([H])c3c([H])c([H])c([H])c([H])c3C([H])([H])C([H])([H])C1([H])[H])C2([H])[H])C1([H])C(=O)C([H])([H])N1C(=O)N1C([H])([H])C([H])([H])C([H])([H])C([H])(n2nc(-c3c([H])c([H])c(Oc4c([H])c([H])c(F)c([H])c4F)c([H])c3[H])c(C(=O)N([H])[H])c2N([H])[H])C1([H])[H]

>  <smiles>  (64) 
[H]C(=C([H])C([H])([H])C([H])([H])C([H])([H])Oc1c([H])c([H])c2c(c1[H])C([H])([H])N(C(=O)C([H])(N([H])C(=O)C([H])(N([H])C([H])([H])[H])C([H])([H])[H])C(C([H])([H])[H])(C([H])([H])[H])C([H])([H])[H])C([H])(C(=O)N([H])C1([H])c3c([H])c([H])c([H])c([H])c3C([H])([H])C([H])([H])C1([H])[H])C2([H])[H])C1([H])C(=O)C([H])([H])N1C(=O)N1C([H])([H])C([H])([H])C([H])([H])C([H])(n2nc(-c3c([H])c([H])c(Oc4c([H])c([H])c(F)c([H])c4F)c([H])c3[H])c(C(=O)N([H])[H])c2N([H])[H])C1([H])[H]

$$$$
64:0:0
     RDKit          3D

 89 97  0  0  1  0  0  0  0  0999 V2000
  -29.2290  -22.1400   20.8100 C   0  0  0  0  0  2  0  0  0  0  0  0
  -28.3520  -22.6170   18.6760 C   0  0  0  0  0  2  0  0  0  0  0  0
  -28.9870  -23.4250   19.8570 C   0  0  0  0  0  3  0  0  0  0  0  0
  -29.5180  -20.8130   19.9350 C   0  0  0  0  0  3  0  0  0  0  0  0
  -28.6710  -21.1370   18.7600 N   0  0  0  0  0  4  0  0  0  0  0  0
  -29.1100  -20.8150   17.9130 H   0  0  0  0  0  0  0  0  0  0  0  0
  -27.7970  -20.6460   18.8450 H   0  0  0  0  0  0  0  0  0  0  0  0
  -27.9440  -18.8920   20.8330 C   0  0  0  0  0  1  0  0  0  0  0  0
  -29.4120  -19.2410   20.5300 C   0  0  0  0  0  3  0  0  0  0  0  0
  -30.1940  -17.8920   19.9090 C   0  0  0  0  0  3  0  0  0  0  0  0
  -30.0260  -16.3370   20.5090 C   0  0  0  0  0  3  0  0  0  0  0  0
  -30.7780  -14.9770   19.9490 C   0  0  0  0  0  0  0  0  0  0  0  0
  -30.6170  -12.6550   18.9450 C   0  0  0  0  0  2  0  0  0  0  0  0
  -29.6190  -12.7010   17.7630 C   0  0  0  0  0  2  0  0  0  0  0  0
  -28.1720  -12.5030   18.2600 C   0  0  0  0  0  2  0  0  0  0  0  0
  -27.8500  -13.3550   19.5190 C   0  0  0  0  0  3  0  0  0  0  0  0
  -28.9730  -13.2860   20.5770 C   0  0  0  0  0  2  0  0  0  0  0  0
  -30.2150  -13.7050   19.9220 N   0  0  0  0  0  0  0  0  0  0  0  0
  -31.9100  -15.0960   19.4690 O   0  0  0  0  0  0  0  0  0  0  0  0
  -25.5170  -13.9080   20.4210 C   0  0  0  0  0  0  0  0  0  0  0  0
  -24.4740  -13.1180   20.8280 C   0  0  0  0  0  0  0  0  0  0  0  0
  -24.9370  -11.7710   20.7270 C   0  0  0  0  0  0  0  0  0  0  0  0
  -26.5400  -13.0370   20.0820 N   0  0  0  0  0  0  0  0  0  0  0  0
  -26.2030  -11.7450   20.3280 N   0  0  0  0  0  0  0  0  0  0  0  0
  -24.2220  -10.5020   20.9290 C   0  0  0  0  0  0  0  0  0  0  0  0
  -24.6300   -9.5700   21.9100 C   0  0  0  0  0  3  0  0  0  0  0  0
  -23.9170   -8.3650   22.0960 C   0  0  0  0  0  3  0  0  0  0  0  0
  -22.7840   -8.0820   21.2970 C   0  0  0  0  0  0  0  0  0  0  0  0
  -22.3950   -9.0000   20.3070 C   0  0  0  0  0  3  0  0  0  0  0  0
  -23.1090  -10.1970   20.1200 C   0  0  0  0  0  3  0  0  0  0  0  0
  -22.0480   -6.9240   21.3850 O   0  0  0  0  0  0  0  0  0  0  0  0
  -21.8410   -6.2920   22.5850 C   0  0  0  0  0  0  0  0  0  0  0  0
  -21.2060   -6.9390   23.6670 C   0  0  0  0  0  3  0  0  0  0  0  0
  -20.9520   -6.2320   24.8600 C   0  0  0  0  0  3  0  0  0  0  0  0
  -21.3240   -4.8780   24.9690 C   0  0  0  0  0  0  0  0  0  0  0  0
  -21.9510   -4.2310   23.8910 C   0  0  0  0  0  3  0  0  0  0  0  0
  -22.2070   -4.9350   22.7010 C   0  0  0  0  0  0  0  0  0  0  0  0
  -22.7930   -4.3020   21.6570 F   0  0  0  0  0  0  0  0  0  0  0  0
  -21.0750   -4.1950   26.1110 F   0  0  0  0  0  0  0  0  0  0  0  0
  -23.0970  -13.5860   21.2080 C   0  0  0  0  0  0  0  0  0  0  0  0
  -22.4220  -12.8580   22.0940 N   0  0  0  0  0  0  0  0  0  0  0  0
  -22.6290  -14.6300   20.7620 O   0  0  0  0  0  0  0  0  0  0  0  0
  -22.8140  -12.0070   22.4710 H   0  0  0  0  0  0  0  0  0  0  0  0
  -21.5050  -13.1550   22.3940 H   0  0  0  0  0  0  0  0  0  0  0  0
  -25.6890  -15.2820   20.2940 N   0  0  0  0  0  0  0  0  0  0  0  0
  -24.9850  -15.9650   20.5500 H   0  0  0  0  0  0  0  0  0  0  0  0
  -26.5690  -15.7060   20.0280 H   0  0  0  0  0  0  0  0  0  0  0  0
  -28.1850  -24.8070   20.3740 C   0  0  0  0  0  2  0  0  0  0  0  0
  -28.4250  -26.2970   20.0330 O   0  0  0  0  0  0  0  0  0  0  0  0
  -24.6940  -31.8430   23.1480 C   0  0  0  0  0  0  0  0  0  0  0  0
  -27.3490  -27.2440   20.0390 C   0  0  0  0  0  0  0  0  0  0  0  0
  -23.5200  -30.4660   21.4730 C   0  0  0  0  0  3  0  0  0  0  0  0
  -24.9980  -28.9400   20.0220 C   0  0  0  0  0  0  0  0  0  0  0  0
  -26.0680  -30.7710   21.3230 C   0  0  0  0  0  2  0  0  0  0  0  0
  -26.1640  -29.3910   20.6550 C   0  0  0  0  0  0  0  0  0  0  0  0
  -27.3440  -28.5590   20.6490 C   0  0  0  0  0  3  0  0  0  0  0  0
  -26.1620  -26.8870   19.3670 C   0  0  0  0  0  3  0  0  0  0  0  0
  -25.0110  -27.7040   19.3580 C   0  0  0  0  0  3  0  0  0  0  0  0
  -23.7540  -29.8120   20.0830 C   0  0  0  0  0  2  0  0  0  0  0  0
  -24.7810  -31.0460   22.0390 N   0  0  0  0  0  0  0  0  0  0  0  0
  -23.6030  -32.1060   23.6740 O   0  0  0  0  0  0  0  0  0  0  0  0
  -22.8500  -29.4320   22.4130 C   0  0  0  0  0  0  0  0  0  0  0  0
  -21.5230  -29.2630   22.2850 N   0  0  0  0  0  0  0  0  0  0  0  0
  -23.5260  -28.7870   23.2180 O   0  0  0  0  0  0  0  0  0  0  0  0
  -21.0410  -29.8240   21.5980 H   0  0  0  0  0  0  0  0  0  0  0  0
  -18.1380  -28.1050   22.8080 C   0  0  0  0  0  0  0  0  0  0  0  0
  -20.7030  -28.3120   23.0350 C   0  0  0  0  0  3  0  0  0  0  0  0
  -20.7700  -26.9040   22.4000 C   0  0  0  0  0  2  0  0  0  0  0  0
  -19.6440  -26.6440   21.3940 C   0  0  0  0  0  2  0  0  0  0  0  0
  -18.2770  -26.7850   22.0680 C   0  0  0  0  0  2  0  0  0  0  0  0
  -19.2770  -28.8280   23.2480 C   0  0  0  0  0  0  0  0  0  0  0  0
  -19.0930  -30.0610   23.9100 C   0  0  0  0  0  3  0  0  0  0  0  0
  -17.8010  -30.5720   24.1350 C   0  0  0  0  0  3  0  0  0  0  0  0
  -16.6740  -29.8470   23.7100 C   0  0  0  0  0  3  0  0  0  0  0  0
  -16.8460  -28.6160   23.0510 C   0  0  0  0  0  3  0  0  0  0  0  0
  -25.9610  -32.4800   23.7980 C   0  0  0  0  0  3  0  0  0  0  0  0
  -26.4710  -31.6850   25.0620 C   0  0  1  0  0  0  0  0  0  0  0  0
  -25.3660  -31.4080   26.1090 C   0  0  0  0  0  1  0  0  0  0  0  0
  -27.0770  -30.3260   24.6430 C   0  0  0  0  0  1  0  0  0  0  0  0
  -27.6010  -32.4790   25.7600 C   0  0  0  0  0  1  0  0  0  0  0  0
  -25.6290  -33.8670   24.1620 N   0  0  0  0  0  0  0  0  0  0  0  0
  -25.9540  -34.9450   23.4360 C   0  0  0  0  0  0  0  0  0  0  0  0
  -26.6330  -34.8780   22.4100 O   0  0  0  0  0  0  0  0  0  0  0  0
  -25.0330  -33.9910   24.9660 H   0  0  0  0  0  0  0  0  0  0  0  0
  -24.2080  -36.7300   23.1130 C   0  0  0  0  0  1  0  0  0  0  0  0
  -25.4460  -36.3150   23.9260 C   0  0  0  0  0  3  0  0  0  0  0  0
  -27.5560  -37.2070   24.8150 C   0  0  0  0  0  1  0  0  0  0  0  0
  -26.4670  -37.3840   23.8580 N   0  0  0  0  0  0  0  0  0  0  0  0
  -26.0480  -38.2940   24.0230 H   0  0  0  0  0  0  0  0  0  0  0  0
  2  5  1  0
  2  3  1  0
  3 48  1  0
  3  1  1  0
  4  9  1  0
  4  1  1  0
  5  7  1  0
  5  4  1  0
  6  5  1  0
  9  8  1  0
 10 11  2  0
 10  9  1  0
 12 11  1  0
 13 18  1  0
 14 15  1  0
 14 13  1  0
 16 15  1  0
 16 23  1  0
 16 17  1  0
 18 12  1  0
 18 17  1  0
 19 12  2  0
 20 21  2  0
 21 40  1  0
 22 21  1  0
 22 25  1  0
 23 24  1  0
 23 20  1  0
 24 22  2  0
 25 26  1  0
 26 27  2  0
 28 31  1  0
 28 27  1  0
 29 28  2  0
 30 29  1  0
 30 25  2  0
 31 32  1  0
 32 37  2  0
 32 33  1  0
 33 34  2  0
 34 35  1  0
 35 39  1  0
 36 35  2  0
 37 36  1  0
 38 37  1  0
 40 41  1  0
 41 44  1  0
 41 43  1  0
 42 40  2  0
 45 20  1  0
 45 46  1  0
 47 45  1  0
 49 51  1  0
 49 48  1  0
 50 61  2  0
 51 56  1  0
 52 60  1  0
 52 62  1  0
 53 59  1  0
 53 55  1  0
 54 60  1  0
 55 54  1  0
 56 55  2  0
 57 51  2  0
 58 57  1  0
 58 53  2  0
 59 52  1  0
 60 50  1  0
 62 64  2  0
 63 62  1  0
 65 63  1  0
 66 75  2  0
 66 71  1  0
 67 63  1  0
 67 71  1  0
 68 67  1  0
 69 70  1  0
 69 68  1  0
 70 66  1  0
 71 72  2  0
 72 73  1  0
 74 73  2  0
 75 74  1  0
 76 50  1  0
 76 81  1  0
 76 77  1  0
 77 80  1  1
 77 78  1  0
 79 77  1  0
 81 84  1  0
 82 86  1  0
 82 81  1  0
 83 82  2  0
 86 85  1  0
 88 86  1  0
 88 89  1  0
 88 87  1  0
M  ISO  4  11 100  12 100  48 101  49 101
M  END
>  <TORSDO>  (65) 
F 20

>  <SCORE>  (65) 
-12.821

>  <name>  (65) 
64

>  <ligand_id>  (65) 
64

>  <original_smiles>  (65) 
[H]c1c([H])c([H])c2c(c1[H])C([H])([H])C([H])([H])C([H])([H])C2([H])N([H])C(=O)C1([H])N(C(=O)C([H])(N([H])C(=O)C([H])(N([H])C([H])([H])[H])C([H])([H])[H])C(C([H])([H])[H])(C([H])([H])[H])C([H])([H])[H])C([H])([H])c2c([H])c(OC([H])([H])C3([H])C([H])([H])C([H])(C([H])(C([H])([H])[H])C([H])([H])C([H])([H])C(=O)N4C([H])([H])C([H])([H])C([H])([H])C([H])(n5nc(-c6c([H])c([H])c(Oc7c([H])c([H])c(F)c([H])c7F)c([H])c6[H])c(C(=O)N([H])[H])c5N([H])[H])C4([H])[H])[N+]([H])([H])C3([H])[H])c([H])c([H])c2C1([H])[H]

>  <smiles>  (65) 
[H]c1c([H])c([H])c2c(c1[H])C([H])([H])C([H])([H])C([H])([H])C2([H])N([H])C(=O)C1([H])N(C(=O)C([H])(N([H])C(=O)C([H])(N([H])C([H])([H])[H])C([H])([H])[H])C(C([H])([H])[H])(C([H])([H])[H])C([H])([H])[H])C([H])([H])c2c([H])c(OC([H])([H])C3([H])C([H])([H])C([H])(C([H])(C([H])([H])[H])C([H])([H])C([H])([H])C(=O)N4C([H])([H])C([H])([H])C([H])([H])C([H])(n5nc(-c6c([H])c([H])c(Oc7c([H])c([H])c(F)c([H])c7F)c([H])c6[H])c(C(=O)N([H])[H])c5N([H])[H])C4([H])[H])[N+]([H])([H])C3([H])[H])c([H])c([H])c2C1([H])[H]

$$$$
65:0:0
     RDKit          3D

 90 98  0  0  1  0  0  0  0  0999 V2000
  -29.3700  -20.8950   20.7550 N   0  0  0  0  0  4  0  0  0  0  0  0
  -30.2390  -21.2080   21.1550 H   0  0  0  0  0  0  0  0  0  0  0  0
  -28.7710  -20.6780   21.5340 H   0  0  0  0  0  0  0  0  0  0  0  0
  -30.5590  -18.5170   20.9030 C   0  0  0  0  0  0  0  0  0  0  0  0
  -28.7720  -18.3330   19.8860 C   0  0  0  0  0  2  0  0  0  0  0  0
  -30.0140  -17.3390   19.9960 C   0  0  0  0  0  3  0  0  0  0  0  0
  -29.7480  -19.5780   20.0310 C   0  0  0  0  0  3  0  0  0  0  0  0
  -31.2160  -18.5760   21.9460 O   0  0  0  0  0  0  0  0  0  0  0  0
  -30.5710  -14.7880   20.3620 C   0  0  0  0  0  0  0  0  0  0  0  0
  -30.3800  -12.4990   19.3760 C   0  0  0  0  0  2  0  0  0  0  0  0
  -29.4450  -12.5670   18.1470 C   0  0  0  0  0  2  0  0  0  0  0  0
  -27.9740  -12.3940   18.5730 C   0  0  0  0  0  2  0  0  0  0  0  0
  -27.5980  -13.2810   19.7900 C   0  0  0  0  0  3  0  0  0  0  0  0
  -28.6560  -13.2000   20.9140 C   0  0  0  0  0  2  0  0  0  0  0  0
  -29.9540  -13.5550   20.3270 N   0  0  0  0  0  0  0  0  0  0  0  0
  -31.7440  -14.8930   19.9930 O   0  0  0  0  0  0  0  0  0  0  0  0
  -29.7940  -15.9240   20.5630 N   0  0  0  0  0  0  0  0  0  0  0  0
  -28.8680  -15.7400   20.9130 H   0  0  0  0  0  0  0  0  0  0  0  0
  -25.2080  -13.8700   20.5090 C   0  0  0  0  0  0  0  0  0  0  0  0
  -24.1430  -13.0950   20.8820 C   0  0  0  0  0  0  0  0  0  0  0  0
  -24.6090  -11.7450   20.8590 C   0  0  0  0  0  0  0  0  0  0  0  0
  -26.2540  -12.9910   20.2790 N   0  0  0  0  0  0  0  0  0  0  0  0
  -25.9010  -11.7080   20.5510 N   0  0  0  0  0  0  0  0  0  0  0  0
  -23.8840  -10.4820   21.0530 C   0  0  0  0  0  0  0  0  0  0  0  0
  -24.3260   -9.5110   21.9770 C   0  0  0  0  0  3  0  0  0  0  0  0
  -23.6010   -8.3140   22.1600 C   0  0  0  0  0  3  0  0  0  0  0  0
  -22.4180   -8.0800   21.4190 C   0  0  0  0  0  0  0  0  0  0  0  0
  -21.9940   -9.0410   20.4840 C   0  0  0  0  0  3  0  0  0  0  0  0
  -22.7200  -10.2290   20.2990 C   0  0  0  0  0  3  0  0  0  0  0  0
  -21.6630   -6.9360   21.5130 O   0  0  0  0  0  0  0  0  0  0  0  0
  -21.6420   -6.1790   22.6570 C   0  0  0  0  0  0  0  0  0  0  0  0
  -21.2590   -6.7230   23.9020 C   0  0  0  0  0  3  0  0  0  0  0  0
  -21.1830   -5.8930   25.0390 C   0  0  0  0  0  3  0  0  0  0  0  0
  -21.4800   -4.5200   24.9310 C   0  0  0  0  0  0  0  0  0  0  0  0
  -21.8560   -3.9770   23.6900 C   0  0  0  0  0  3  0  0  0  0  0  0
  -21.9330   -4.8040   22.5560 C   0  0  0  0  0  0  0  0  0  0  0  0
  -22.2750   -4.2700   21.3580 F   0  0  0  0  0  0  0  0  0  0  0  0
  -21.4000   -3.7220   26.0200 F   0  0  0  0  0  0  0  0  0  0  0  0
  -22.7440  -13.5720   21.1470 C   0  0  0  0  0  0  0  0  0  0  0  0
  -22.0160  -12.8800   22.0150 N   0  0  0  0  0  0  0  0  0  0  0  0
  -22.3070  -14.5940   20.6180 O   0  0  0  0  0  0  0  0  0  0  0  0
  -22.3830  -12.0550   22.4650 H   0  0  0  0  0  0  0  0  0  0  0  0
  -21.0760  -13.1810   22.2350 H   0  0  0  0  0  0  0  0  0  0  0  0
  -25.3690  -15.2400   20.3220 N   0  0  0  0  0  0  0  0  0  0  0  0
  -24.5950  -15.8870   20.4170 H   0  0  0  0  0  0  0  0  0  0  0  0
  -26.2020  -15.6740   19.9470 H   0  0  0  0  0  0  0  0  0  0  0  0
  -28.7950  -22.1110   19.9840 C   0  0  0  0  0  2  0  0  0  0  0  0
  -28.9370  -23.6350   20.5800 C   0  0  0  0  0  3  0  0  0  0  0  0
  -28.0570  -24.8650   19.9630 C   0  0  0  0  0  3  0  0  0  0  0  0
  -28.2580  -26.3340   20.2930 O   0  0  0  0  0  0  0  0  0  0  0  0
  -24.6040  -31.8900   23.2560 C   0  0  0  0  0  0  0  0  0  0  0  0
  -27.1750  -27.2530   20.2060 C   0  0  0  0  0  0  0  0  0  0  0  0
  -23.3920  -30.4950   21.6210 C   0  0  0  0  0  3  0  0  0  0  0  0
  -24.8320  -28.9330   20.1890 C   0  0  0  0  0  0  0  0  0  0  0  0
  -25.9380  -30.7810   21.4410 C   0  0  0  0  0  2  0  0  0  0  0  0
  -26.0080  -29.3960   20.7920 C   0  0  0  0  0  0  0  0  0  0  0  0
  -27.1790  -28.5680   20.7920 C   0  0  0  0  0  3  0  0  0  0  0  0
  -25.9790  -26.8760   19.5500 C   0  0  0  0  0  3  0  0  0  0  0  0
  -24.8250  -27.6820   19.5560 C   0  0  0  0  0  3  0  0  0  0  0  0
  -23.6020  -29.8200   20.2410 C   0  0  0  0  0  2  0  0  0  0  0  0
  -24.6640  -31.0740   22.1610 N   0  0  0  0  0  0  0  0  0  0  0  0
  -23.5210  -32.1740   23.7900 O   0  0  0  0  0  0  0  0  0  0  0  0
  -22.7230  -29.4840   22.5840 C   0  0  0  0  0  0  0  0  0  0  0  0
  -21.3950  -29.3130   22.4610 N   0  0  0  0  0  0  0  0  0  0  0  0
  -23.3970  -28.8580   23.4050 O   0  0  0  0  0  0  0  0  0  0  0  0
  -20.9080  -29.8700   21.7730 H   0  0  0  0  0  0  0  0  0  0  0  0
  -18.0140  -28.1170   22.9620 C   0  0  0  0  0  0  0  0  0  0  0  0
  -20.5730  -28.3810   23.2350 C   0  0  0  0  0  3  0  0  0  0  0  0
  -20.6760  -26.9450   22.6700 C   0  0  0  0  0  2  0  0  0  0  0  0
  -19.5770  -26.6150   21.6560 C   0  0  0  0  0  2  0  0  0  0  0  0
  -18.1940  -26.7640   22.2950 C   0  0  0  0  0  2  0  0  0  0  0  0
  -19.1320  -28.8820   23.3890 C   0  0  0  0  0  0  0  0  0  0  0  0
  -18.9110  -30.1480   23.9750 C   0  0  0  0  0  3  0  0  0  0  0  0
  -17.6050  -30.6500   24.1350 C   0  0  0  0  0  3  0  0  0  0  0  0
  -16.5030  -29.8820   23.7230 C   0  0  0  0  0  3  0  0  0  0  0  0
  -16.7080  -28.6170   23.1420 C   0  0  0  0  0  3  0  0  0  0  0  0
  -25.8890  -32.5200   23.8750 C   0  0  0  0  0  3  0  0  0  0  0  0
  -26.4020  -31.7510   25.1550 C   0  0  1  0  0  0  0  0  0  0  0  0
  -25.3090  -31.5250   26.2250 C   0  0  0  0  0  1  0  0  0  0  0  0
  -26.9760  -30.3680   24.7710 C   0  0  0  0  0  1  0  0  0  0  0  0
  -27.5590  -32.5410   25.8100 C   0  0  0  0  0  1  0  0  0  0  0  0
  -25.5840  -33.9200   24.2030 N   0  0  0  0  0  0  0  0  0  0  0  0
  -25.9140  -34.9720   23.4410 C   0  0  0  0  0  0  0  0  0  0  0  0
  -26.5770  -34.8640   22.4040 O   0  0  0  0  0  0  0  0  0  0  0  0
  -24.9970  -34.0790   25.0080 H   0  0  0  0  0  0  0  0  0  0  0  0
  -24.1860  -36.7690   23.1030 C   0  0  0  0  0  1  0  0  0  0  0  0
  -25.4370  -36.3630   23.8990 C   0  0  0  0  0  3  0  0  0  0  0  0
  -27.5850  -37.2460   24.6990 C   0  0  0  0  0  1  0  0  0  0  0  0
  -26.4700  -37.4140   23.7700 N   0  0  0  0  0  0  0  0  0  0  0  0
  -26.0690  -38.3360   23.9200 H   0  0  0  0  0  0  0  0  0  0  0  0
  1  2  1  0
  1  3  1  0
  4  8  2  0
  5  6  1  0
  5  7  1  0
  6 17  1  0
  6  4  1  0
  7  1  1  0
  7  4  1  0
  9 17  1  0
 10 15  1  0
 11 12  1  0
 11 10  1  0
 13 12  1  0
 13 22  1  0
 13 14  1  0
 15  9  1  0
 15 14  1  0
 16  9  2  0
 17 18  1  0
 19 20  2  0
 20 39  1  0
 21 20  1  0
 21 24  1  0
 22 19  1  0
 22 23  1  0
 23 21  2  0
 24 25  1  0
 25 26  2  0
 27 30  1  0
 27 26  1  0
 28 27  2  0
 29 28  1  0
 29 24  2  0
 30 31  1  0
 31 32  1  0
 32 33  2  0
 34 33  1  0
 34 38  1  0
 35 34  2  0
 36 31  2  0
 36 35  1  0
 37 36  1  0
 39 40  1  0
 40 43  1  0
 40 42  1  0
 41 39  2  0
 44 45  1  0
 44 19  1  0
 46 44  1  0
 47 48  1  0
 47  1  1  0
 49 50  1  0
 49 48  2  0
 51 62  2  0
 52 50  1  0
 52 57  1  0
 53 61  1  0
 53 63  1  0
 54 60  1  0
 54 56  1  0
 55 61  1  0
 56 57  2  0
 56 55  1  0
 58 59  1  0
 58 52  2  0
 59 54  2  0
 60 53  1  0
 61 51  1  0
 63 65  2  0
 64 63  1  0
 66 64  1  0
 67 76  2  0
 67 72  1  0
 68 64  1  0
 68 72  1  0
 69 68  1  0
 70 71  1  0
 70 69  1  0
 71 67  1  0
 72 73  2  0
 73 74  1  0
 75 74  2  0
 76 75  1  0
 77 51  1  0
 77 82  1  0
 77 78  1  0
 78 81  1  1
 78 79  1  0
 80 78  1  0
 82 85  1  0
 83 87  1  0
 83 82  1  0
 84 83  2  0
 87 86  1  0
 89 87  1  0
 89 90  1  0
 89 88  1  0
M  ISO  4   9 100  17 100  49 101  50 101
M  END
>  <TORSDO>  (66) 
F 20

>  <SCORE>  (66) 
-13.821

>  <name>  (66) 
65

>  <ligand_id>  (66) 
65

>  <original_smiles>  (66) 
[H]c1c([H])c([H])c2c(c1[H])C([H])([H])C([H])([H])C([H])([H])C2([H])N([H])C(=O)C1([H])N(C(=O)C([H])(N([H])C(=O)C([H])(N([H])C([H])([H])[H])C([H])([H])[H])C(C([H])([H])[H])(C([H])([H])[H])C([H])([H])[H])C([H])([H])c2c([H])c(OC([H])([H])C([H])([H])C([H])([H])[N+]([H])([H])C3([H])C(=O)C([H])(N([H])C(=O)N4C([H])([H])C([H])([H])C([H])([H])C([H])(n5nc(-c6c([H])c([H])c(Oc7c([H])c([H])c(F)c([H])c7F)c([H])c6[H])c(C(=O)N([H])[H])c5N([H])[H])C4([H])[H])C3([H])[H])c([H])c([H])c2C1([H])[H]

>  <smiles>  (66) 
[H]c1c([H])c([H])c2c(c1[H])C([H])([H])C([H])([H])C([H])([H])C2([H])N([H])C(=O)C1([H])N(C(=O)C([H])(N([H])C(=O)C([H])(N([H])C([H])([H])[H])C([H])([H])[H])C(C([H])([H])[H])(C([H])([H])[H])C([H])([H])[H])C([H])([H])c2c([H])c(OC([H])([H])C([H])([H])C([H])([H])[N+]([H])([H])C3([H])C(=O)C([H])(N([H])C(=O)N4C([H])([H])C([H])([H])C([H])([H])C([H])(n5nc(-c6c([H])c([H])c(Oc7c([H])c([H])c(F)c([H])c7F)c([H])c6[H])c(C(=O)N([H])[H])c5N([H])[H])C4([H])[H])C3([H])[H])c([H])c([H])c2C1([H])[H]

$$$$
66:0:0
     RDKit          3D

 91 99  0  0  1  0  0  0  0  0999 V2000
  -27.4640  -21.7870   20.5290 C   0  0  0  0  0  2  0  0  0  0  0  0
  -27.9930  -20.2730   20.5940 C   0  0  0  0  0  2  0  0  0  0  0  0
  -29.5830  -21.6180   19.5870 C   0  0  0  0  0  2  0  0  0  0  0  0
  -28.3900  -22.8130   19.7660 C   0  0  0  0  0  3  0  0  0  0  0  0
  -29.0690  -19.9930   19.5130 C   0  0  0  0  0  3  0  0  0  0  0  0
  -28.3000  -24.4650   20.4480 C   0  0  0  0  0  2  0  0  0  0  0  0
  -28.4340  -26.0260   20.0180 O   0  0  0  0  0  0  0  0  0  0  0  0
  -24.7500  -31.8170   23.1210 C   0  0  0  0  0  0  0  0  0  0  0  0
  -27.3780  -27.0580   20.0560 C   0  0  0  0  0  0  0  0  0  0  0  0
  -23.5730  -30.4210   21.4690 C   0  0  0  0  0  3  0  0  0  0  0  0
  -25.0420  -28.8600   20.0310 C   0  0  0  0  0  0  0  0  0  0  0  0
  -26.1330  -30.6900   21.3140 C   0  0  0  0  0  2  0  0  0  0  0  0
  -26.2250  -29.2930   20.6450 C   0  0  0  0  0  0  0  0  0  0  0  0
  -27.3930  -28.4160   20.6250 C   0  0  0  0  0  3  0  0  0  0  0  0
  -26.1610  -26.7530   19.4110 C   0  0  0  0  0  3  0  0  0  0  0  0
  -25.0320  -27.6090   19.3920 C   0  0  0  0  0  3  0  0  0  0  0  0
  -23.8070  -29.7550   20.0860 C   0  0  0  0  0  2  0  0  0  0  0  0
  -24.8400  -31.0010   22.0220 N   0  0  0  0  0  0  0  0  0  0  0  0
  -23.6580  -32.0840   23.6470 O   0  0  0  0  0  0  0  0  0  0  0  0
  -22.8990  -29.4010   22.4230 C   0  0  0  0  0  0  0  0  0  0  0  0
  -21.5700  -29.2260   22.3040 N   0  0  0  0  0  0  0  0  0  0  0  0
  -23.5780  -28.7670   23.2350 O   0  0  0  0  0  0  0  0  0  0  0  0
  -21.0770  -29.7930   21.6280 H   0  0  0  0  0  0  0  0  0  0  0  0
  -18.2020  -27.9810   22.8170 C   0  0  0  0  0  0  0  0  0  0  0  0
  -20.7600  -28.2690   23.0660 C   0  0  0  0  0  3  0  0  0  0  0  0
  -20.8710  -26.8460   22.4700 C   0  0  0  0  0  2  0  0  0  0  0  0
  -19.7650  -26.5280   21.4590 C   0  0  0  0  0  2  0  0  0  0  0  0
  -18.3870  -26.6470   22.1140 C   0  0  0  0  0  2  0  0  0  0  0  0
  -19.3150  -28.7510   23.2480 C   0  0  0  0  0  0  0  0  0  0  0  0
  -19.0840  -29.9990   23.8650 C   0  0  0  0  0  3  0  0  0  0  0  0
  -17.7740  -30.4780   24.0560 C   0  0  0  0  0  3  0  0  0  0  0  0
  -16.6770  -29.7050   23.6390 C   0  0  0  0  0  3  0  0  0  0  0  0
  -16.8910  -28.4600   23.0240 C   0  0  0  0  0  3  0  0  0  0  0  0
  -26.0130  -32.4690   23.7590 C   0  0  0  0  0  3  0  0  0  0  0  0
  -25.6720  -33.8560   24.1200 N   0  0  0  0  0  0  0  0  0  0  0  0
  -25.9740  -34.9370   23.3880 C   0  0  0  0  0  0  0  0  0  0  0  0
  -26.6320  -34.8720   22.3460 O   0  0  0  0  0  0  0  0  0  0  0  0
  -25.0850  -33.9770   24.9320 H   0  0  0  0  0  0  0  0  0  0  0  0
  -24.2050  -36.7100   23.1090 C   0  0  0  0  0  1  0  0  0  0  0  0
  -25.4680  -36.3050   23.8890 C   0  0  0  0  0  3  0  0  0  0  0  0
  -27.5980  -37.2140   24.7080 C   0  0  0  0  0  1  0  0  0  0  0  0
  -26.4770  -37.3830   23.7870 N   0  0  0  0  0  0  0  0  0  0  0  0
  -26.0550  -38.2890   23.9670 H   0  0  0  0  0  0  0  0  0  0  0  0
  -26.5390  -31.6930   25.0300 C   0  0  1  0  0  0  0  0  0  0  0  0
  -25.4440  -31.4200   26.0900 C   0  0  0  0  0  1  0  0  0  0  0  0
  -27.1510  -30.3300   24.6310 C   0  0  0  0  0  1  0  0  0  0  0  0
  -27.6720  -32.5010   25.7050 C   0  0  0  0  0  1  0  0  0  0  0  0
  -30.0180  -18.4720   19.4370 C   0  0  0  0  0  3  0  0  0  0  0  0
  -30.6410  -18.4740   18.1010 N   0  0  0  0  0  4  0  0  0  0  0  0
  -29.9620  -18.2860   17.3850 H   0  0  0  0  0  0  0  0  0  0  0  0
  -31.3650  -17.7790   18.0450 H   0  0  0  0  0  0  0  0  0  0  0  0
  -31.0580  -19.3680   17.9100 H   0  0  0  0  0  0  0  0  0  0  0  0
  -29.6940  -16.7580   19.8450 C   0  0  0  0  0  3  0  0  0  0  0  0
  -30.4560  -15.2750   19.3210 C   0  0  0  0  0  0  0  0  0  0  0  0
  -30.2970  -12.8720   18.3650 C   0  0  0  0  0  2  0  0  0  0  0  0
  -29.1770  -12.7500   17.2980 C   0  0  0  0  0  2  0  0  0  0  0  0
  -27.8110  -12.4790   17.9560 C   0  0  0  0  0  2  0  0  0  0  0  0
  -27.5710  -13.3920   19.1830 C   0  0  0  0  0  3  0  0  0  0  0  0
  -28.7930  -13.4440   20.1210 C   0  0  0  0  0  2  0  0  0  0  0  0
  -29.9260  -13.9580   19.3370 N   0  0  0  0  0  0  0  0  0  0  0  0
  -31.5740  -15.3360   18.7900 O   0  0  0  0  0  0  0  0  0  0  0  0
  -25.4080  -13.9330   20.4260 C   0  0  0  0  0  0  0  0  0  0  0  0
  -24.3970  -13.1510   20.9100 C   0  0  0  0  0  0  0  0  0  0  0  0
  -24.7830  -11.8000   20.6470 C   0  0  0  0  0  0  0  0  0  0  0  0
  -26.3430  -13.0630   19.8950 N   0  0  0  0  0  0  0  0  0  0  0  0
  -25.9890  -11.7660   20.0920 N   0  0  0  0  0  0  0  0  0  0  0  0
  -24.0430  -10.5450   20.8380 C   0  0  0  0  0  0  0  0  0  0  0  0
  -24.5490   -9.5030   21.6450 C   0  0  0  0  0  3  0  0  0  0  0  0
  -23.8070   -8.3170   21.8310 C   0  0  0  0  0  3  0  0  0  0  0  0
  -22.5450   -8.1640   21.2100 C   0  0  0  0  0  0  0  0  0  0  0  0
  -22.0550   -9.1950   20.3910 C   0  0  0  0  0  3  0  0  0  0  0  0
  -22.7970  -10.3730   20.2030 C   0  0  0  0  0  3  0  0  0  0  0  0
  -21.7660   -7.0360   21.3120 O   0  0  0  0  0  0  0  0  0  0  0  0
  -21.7660   -6.2600   22.4430 C   0  0  0  0  0  0  0  0  0  0  0  0
  -21.4480   -6.7940   23.7110 C   0  0  0  0  0  3  0  0  0  0  0  0
  -21.3920   -5.9470   24.8370 C   0  0  0  0  0  3  0  0  0  0  0  0
  -21.6460   -4.5690   24.6960 C   0  0  0  0  0  0  0  0  0  0  0  0
  -21.9590   -4.0360   23.4330 C   0  0  0  0  0  3  0  0  0  0  0  0
  -22.0160   -4.8800   22.3100 C   0  0  0  0  0  0  0  0  0  0  0  0
  -22.2970   -4.3570   21.0910 F   0  0  0  0  0  0  0  0  0  0  0  0
  -21.5860   -3.7550   25.7750 F   0  0  0  0  0  0  0  0  0  0  0  0
  -23.1010  -13.6350   21.4880 C   0  0  0  0  0  0  0  0  0  0  0  0
  -22.5260  -12.8810   22.4210 N   0  0  0  0  0  0  0  0  0  0  0  0
  -22.6130  -14.7130   21.1510 O   0  0  0  0  0  0  0  0  0  0  0  0
  -22.9380  -12.0060   22.7120 H   0  0  0  0  0  0  0  0  0  0  0  0
  -21.6630  -13.1850   22.8480 H   0  0  0  0  0  0  0  0  0  0  0  0
  -25.6000  -15.3100   20.3690 N   0  0  0  0  0  0  0  0  0  0  0  0
  -24.9160  -15.9670   20.7290 H   0  0  0  0  0  0  0  0  0  0  0  0
  -26.4060  -15.7630   19.9610 H   0  0  0  0  0  0  0  0  0  0  0  0
  -28.3230  -16.7670   22.0790 C   0  0  0  0  0  1  0  0  0  0  0  0
  -29.7020  -16.6880   21.4030 C   0  0  0  0  0  2  0  0  0  0  0  0
  1  2  1  0
  3  4  1  0
  4  6  1  0
  4  1  1  0
  5 48  1  0
  5  3  1  0
  5  2  1  0
  7  9  1  0
  7  6  1  0
  8 19  2  0
  9 14  1  0
 10 18  1  0
 10 20  1  0
 11 17  1  0
 11 13  1  0
 12 18  1  0
 13 12  1  0
 14 13  2  0
 15  9  2  0
 16 15  1  0
 16 11  2  0
 17 10  1  0
 18  8  1  0
 20 22  2  0
 21 20  1  0
 23 21  1  0
 24 33  2  0
 24 29  1  0
 25 21  1  0
 25 29  1  0
 26 25  1  0
 27 28  1  0
 27 26  1  0
 28 24  1  0
 29 30  2  0
 30 31  1  0
 32 31  2  0
 33 32  1  0
 34  8  1  0
 34 35  1  0
 34 44  1  0
 35 38  1  0
 36 40  1  0
 36 35  1  0
 37 36  2  0
 40 39  1  0
 42 40  1  0
 42 43  1  0
 42 41  1  0
 44 47  1  1
 44 45  1  0
 46 44  1  0
 48 49  1  0
 48 53  1  0
 50 49  1  0
 51 49  1  0
 52 49  1  0
 53 91  1  0
 54 60  1  0
 54 53  1  0
 55 60  1  0
 56 57  1  0
 56 55  1  0
 58 57  1  0
 58 65  1  0
 58 59  1  0
 60 59  1  0
 61 54  2  0
 62 63  2  0
 63 82  1  0
 64 67  1  0
 64 63  1  0
 65 66  1  0
 65 62  1  0
 66 64  2  0
 67 68  1  0
 68 69  2  0
 70 73  1  0
 70 69  1  0
 71 70  2  0
 72 71  1  0
 72 67  2  0
 73 74  1  0
 74 75  1  0
 75 76  2  0
 77 76  1  0
 77 81  1  0
 78 77  2  0
 79 74  2  0
 79 78  1  0
 80 79  1  0
 82 83  1  0
 83 85  1  0
 83 86  1  0
 84 82  2  0
 87 62  1  0
 87 88  1  0
 89 87  1  0
 91 90  1  0
M  ISO  4   6 101   7 101  53 100  54 100
M  END
>  <TORSDO>  (67) 
F 21

>  <SCORE>  (67) 
-10.788

>  <name>  (67) 
66

>  <ligand_id>  (67) 
66

>  <original_smiles>  (67) 
[H]c1c([H])c([H])c2c(c1[H])C([H])([H])C([H])([H])C([H])([H])C2([H])N([H])C(=O)C1([H])N(C(=O)C([H])(N([H])C(=O)C([H])(N([H])C([H])([H])[H])C([H])([H])[H])C(C([H])([H])[H])(C([H])([H])[H])C([H])([H])[H])C([H])([H])c2c([H])c(OC([H])([H])C3([H])C([H])([H])C([H])([H])C([H])(C([H])(C([H])(C(=O)N4C([H])([H])C([H])([H])C([H])([H])C([H])(n5nc(-c6c([H])c([H])c(Oc7c([H])c([H])c(F)c([H])c7F)c([H])c6[H])c(C(=O)N([H])[H])c5N([H])[H])C4([H])[H])C([H])([H])C([H])([H])[H])[N+]([H])([H])[H])C3([H])[H])c([H])c([H])c2C1([H])[H]

>  <smiles>  (67) 
[H]c1c([H])c([H])c2c(c1[H])C([H])([H])C([H])([H])C([H])([H])C2([H])N([H])C(=O)C1([H])N(C(=O)C([H])(N([H])C(=O)C([H])(N([H])C([H])([H])[H])C([H])([H])[H])C(C([H])([H])[H])(C([H])([H])[H])C([H])([H])[H])C([H])([H])c2c([H])c(OC([H])([H])C3([H])C([H])([H])C([H])([H])C([H])(C([H])(C([H])(C(=O)N4C([H])([H])C([H])([H])C([H])([H])C([H])(n5nc(-c6c([H])c([H])c(Oc7c([H])c([H])c(F)c([H])c7F)c([H])c6[H])c(C(=O)N([H])[H])c5N([H])[H])C4([H])[H])C([H])([H])C([H])([H])[H])[N+]([H])([H])[H])C3([H])[H])c([H])c([H])c2C1([H])[H]

$$$$
67:0:0
     RDKit          3D

 91 99  0  0  1  0  0  0  0  0999 V2000
  -28.7370  -21.4590   20.9390 C   0  0  0  0  0  0  0  0  0  0  0  0
  -29.7310  -21.8630   19.2330 C   0  0  0  0  0  2  0  0  0  0  0  0
  -28.6620  -22.8450   19.9960 C   0  0  0  0  0  3  0  0  0  0  0  0
  -29.1430  -20.3890   19.7280 C   0  0  0  0  0  3  0  0  0  0  0  0
  -28.6350  -21.3020   22.1590 O   0  0  0  0  0  0  0  0  0  0  0  0
  -28.6460  -24.5420   20.6410 C   0  0  0  0  0  2  0  0  0  0  0  0
  -28.5640  -26.1180   20.1560 O   0  0  0  0  0  0  0  0  0  0  0  0
  -24.5730  -31.7970   23.1880 C   0  0  0  0  0  0  0  0  0  0  0  0
  -27.4530  -27.1080   20.2000 C   0  0  0  0  0  0  0  0  0  0  0  0
  -23.4880  -30.3640   21.5030 C   0  0  0  0  0  3  0  0  0  0  0  0
  -25.0530  -28.8540   20.1020 C   0  0  0  0  0  0  0  0  0  0  0  0
  -26.0390  -30.7170   21.4150 C   0  0  0  0  0  2  0  0  0  0  0  0
  -26.2020  -29.3200   20.7540 C   0  0  0  0  0  0  0  0  0  0  0  0
  -27.3990  -28.4720   20.7700 C   0  0  0  0  0  3  0  0  0  0  0  0
  -26.2680  -26.7880   19.5000 C   0  0  0  0  0  3  0  0  0  0  0  0
  -25.1110  -27.6090   19.4510 C   0  0  0  0  0  3  0  0  0  0  0  0
  -23.7860  -29.7090   20.1270 C   0  0  0  0  0  2  0  0  0  0  0  0
  -24.7190  -30.9880   22.0900 N   0  0  0  0  0  0  0  0  0  0  0  0
  -23.4620  -32.0190   23.6920 O   0  0  0  0  0  0  0  0  0  0  0  0
  -22.8270  -29.3210   22.4410 C   0  0  0  0  0  0  0  0  0  0  0  0
  -21.5150  -29.0730   22.2690 N   0  0  0  0  0  0  0  0  0  0  0  0
  -23.5010  -28.7340   23.2910 O   0  0  0  0  0  0  0  0  0  0  0  0
  -21.0220  -29.5970   21.5600 H   0  0  0  0  0  0  0  0  0  0  0  0
  -18.1980  -27.6560   22.6650 C   0  0  0  0  0  0  0  0  0  0  0  0
  -20.7270  -28.0810   23.0090 C   0  0  0  0  0  3  0  0  0  0  0  0
  -20.9350  -26.6620   22.4270 C   0  0  0  0  0  2  0  0  0  0  0  0
  -19.8870  -26.2800   21.3780 C   0  0  0  0  0  2  0  0  0  0  0  0
  -18.4790  -26.3290   21.9800 C   0  0  0  0  0  2  0  0  0  0  0  0
  -19.2510  -28.4850   23.1330 C   0  0  0  0  0  0  0  0  0  0  0  0
  -18.9330  -29.7230   23.7340 C   0  0  0  0  0  3  0  0  0  0  0  0
  -17.5930  -30.1340   23.8700 C   0  0  0  0  0  3  0  0  0  0  0  0
  -16.5530  -29.3030   23.4160 C   0  0  0  0  0  3  0  0  0  0  0  0
  -16.8570  -28.0670   22.8210 C   0  0  0  0  0  3  0  0  0  0  0  0
  -25.7960  -32.4910   23.8590 C   0  0  0  0  0  3  0  0  0  0  0  0
  -25.4120  -33.8780   24.1770 N   0  0  0  0  0  0  0  0  0  0  0  0
  -25.7040  -34.9470   23.4220 C   0  0  0  0  0  0  0  0  0  0  0  0
  -26.3880  -34.8730   22.3990 O   0  0  0  0  0  0  0  0  0  0  0  0
  -24.8030  -34.0070   24.9710 H   0  0  0  0  0  0  0  0  0  0  0  0
  -23.8950  -36.6610   23.0620 C   0  0  0  0  0  1  0  0  0  0  0  0
  -25.1540  -36.3150   23.8740 C   0  0  0  0  0  3  0  0  0  0  0  0
  -27.2390  -37.3140   24.7050 C   0  0  0  0  0  1  0  0  0  0  0  0
  -26.1370  -37.4160   23.7520 N   0  0  0  0  0  0  0  0  0  0  0  0
  -25.6880  -38.3180   23.8820 H   0  0  0  0  0  0  0  0  0  0  0  0
  -26.2930  -31.7510   25.1630 C   0  0  1  0  0  0  0  0  0  0  0  0
  -25.1660  -31.4690   26.1860 C   0  0  0  0  0  1  0  0  0  0  0  0
  -26.9550  -30.3990   24.8150 C   0  0  0  0  0  1  0  0  0  0  0  0
  -27.3780  -32.6020   25.8670 C   0  0  0  0  0  1  0  0  0  0  0  0
  -30.0070  -18.7870   19.7530 C   0  0  0  0  0  3  0  0  0  0  0  0
  -30.9000  -18.7900   18.5790 N   0  0  0  0  0  4  0  0  0  0  0  0
  -31.4000  -19.6580   18.5090 H   0  0  0  0  0  0  0  0  0  0  0  0
  -30.3790  -18.6690   17.7280 H   0  0  0  0  0  0  0  0  0  0  0  0
  -31.5810  -18.0530   18.6450 H   0  0  0  0  0  0  0  0  0  0  0  0
  -29.5460  -17.0540   20.0600 C   0  0  0  0  0  3  0  0  0  0  0  0
  -30.2240  -15.4510   19.6010 C   0  0  0  0  0  0  0  0  0  0  0  0
  -30.2440  -12.9550   18.7810 C   0  0  0  0  0  2  0  0  0  0  0  0
  -29.2330  -12.6710   17.6340 C   0  0  0  0  0  2  0  0  0  0  0  0
  -27.8330  -12.3580   18.1950 C   0  0  0  0  0  2  0  0  0  0  0  0
  -27.4520  -13.3250   19.3440 C   0  0  0  0  0  3  0  0  0  0  0  0
  -28.5910  -13.4990   20.3690 C   0  0  0  0  0  2  0  0  0  0  0  0
  -29.7340  -14.0960   19.6470 N   0  0  0  0  0  0  0  0  0  0  0  0
  -31.3690  -15.4560   19.1140 O   0  0  0  0  0  0  0  0  0  0  0  0
  -25.1700  -13.8240   20.3610 C   0  0  0  0  0  0  0  0  0  0  0  0
  -24.1650  -13.0300   20.8230 C   0  0  0  0  0  0  0  0  0  0  0  0
  -24.6380  -11.6880   20.6980 C   0  0  0  0  0  0  0  0  0  0  0  0
  -26.1900  -12.9740   19.9790 N   0  0  0  0  0  0  0  0  0  0  0  0
  -25.8890  -11.6770   20.2440 N   0  0  0  0  0  0  0  0  0  0  0  0
  -23.9430  -10.4170   20.9280 C   0  0  0  0  0  0  0  0  0  0  0  0
  -24.4180   -9.4760   21.8690 C   0  0  0  0  0  3  0  0  0  0  0  0
  -23.7200   -8.2680   22.0840 C   0  0  0  0  0  3  0  0  0  0  0  0
  -22.5340   -7.9950   21.3590 C   0  0  0  0  0  0  0  0  0  0  0  0
  -22.0790   -8.9270   20.4090 C   0  0  0  0  0  3  0  0  0  0  0  0
  -22.7790  -10.1250   20.1900 C   0  0  0  0  0  3  0  0  0  0  0  0
  -21.8000   -6.8400   21.4870 O   0  0  0  0  0  0  0  0  0  0  0  0
  -21.6920   -6.1870   22.6880 C   0  0  0  0  0  0  0  0  0  0  0  0
  -21.1440   -6.8110   23.8300 C   0  0  0  0  0  3  0  0  0  0  0  0
  -20.9870   -6.0800   25.0240 C   0  0  0  0  0  3  0  0  0  0  0  0
  -21.3650   -4.7240   25.0770 C   0  0  0  0  0  0  0  0  0  0  0  0
  -21.9040   -4.1000   23.9380 C   0  0  0  0  0  3  0  0  0  0  0  0
  -22.0650   -4.8290   22.7470 C   0  0  0  0  0  0  0  0  0  0  0  0
  -22.5650   -4.2180   21.6470 F   0  0  0  0  0  0  0  0  0  0  0  0
  -21.2100   -4.0200   26.2200 F   0  0  0  0  0  0  0  0  0  0  0  0
  -22.8050  -13.4890   21.2660 C   0  0  0  0  0  0  0  0  0  0  0  0
  -22.1950  -12.7710   22.2000 N   0  0  0  0  0  0  0  0  0  0  0  0
  -22.3050  -14.5250   20.8280 O   0  0  0  0  0  0  0  0  0  0  0  0
  -22.6170  -11.9350   22.5750 H   0  0  0  0  0  0  0  0  0  0  0  0
  -21.2940  -13.0650   22.5520 H   0  0  0  0  0  0  0  0  0  0  0  0
  -25.2860  -15.1980   20.2090 N   0  0  0  0  0  0  0  0  0  0  0  0
  -24.5230  -15.8300   20.4240 H   0  0  0  0  0  0  0  0  0  0  0  0
  -26.1330  -15.6830   19.9420 H   0  0  0  0  0  0  0  0  0  0  0  0
  -26.9760  -17.6610   20.0270 C   0  0  0  0  0  1  0  0  0  0  0  0
  -28.1700  -17.0560   20.7850 C   0  0  0  0  0  2  0  0  0  0  0  0
  1  5  2  0
  2  4  1  0
  2  3  1  0
  3  6  1  0
  3  1  1  0
  4 48  1  0
  4  1  1  0
  7  9  1  0
  7  6  1  0
  8 19  2  0
  9 14  1  0
 10 18  1  0
 10 20  1  0
 11 17  1  0
 11 13  1  0
 12 18  1  0
 13 14  2  0
 13 12  1  0
 15  9  2  0
 16 15  1  0
 16 11  2  0
 17 10  1  0
 18  8  1  0
 20 22  2  0
 21 20  1  0
 23 21  1  0
 24 33  2  0
 24 29  1  0
 25 21  1  0
 25 29  1  0
 26 25  1  0
 27 28  1  0
 27 26  1  0
 28 24  1  0
 29 30  2  0
 30 31  1  0
 32 31  2  0
 33 32  1  0
 34  8  1  0
 34 35  1  0
 34 44  1  0
 35 38  1  0
 36 40  1  0
 36 35  1  0
 37 36  2  0
 40 39  1  0
 42 40  1  0
 42 43  1  0
 42 41  1  0
 44 47  1  1
 44 45  1  0
 46 44  1  0
 48 49  1  0
 48 53  1  0
 49 52  1  0
 50 49  1  0
 51 49  1  0
 53 91  1  0
 54 60  1  0
 54 53  1  0
 55 60  1  0
 56 57  1  0
 56 55  1  0
 58 57  1  0
 58 65  1  0
 58 59  1  0
 60 59  1  0
 61 54  2  0
 62 63  2  0
 63 82  1  0
 64 63  1  0
 64 67  1  0
 65 66  1  0
 65 62  1  0
 66 64  2  0
 67 68  1  0
 68 69  2  0
 70 73  1  0
 70 69  1  0
 71 70  2  0
 72 71  1  0
 72 67  2  0
 73 74  1  0
 74 79  2  0
 74 75  1  0
 75 76  2  0
 76 77  1  0
 77 81  1  0
 78 77  2  0
 79 78  1  0
 80 79  1  0
 82 83  1  0
 83 86  1  0
 83 85  1  0
 84 82  2  0
 87 62  1  0
 87 88  1  0
 89 87  1  0
 90 91  1  0
M  ISO  4   6 101   7 101  53 100  54 100
M  END
>  <TORSDO>  (68) 
F 21

>  <SCORE>  (68) 
-15.650

>  <name>  (68) 
67

>  <ligand_id>  (68) 
67

>  <original_smiles>  (68) 
[H]c1c([H])c([H])c2c(c1[H])C([H])([H])C([H])([H])C([H])([H])C2([H])N([H])C(=O)C1([H])N(C(=O)C([H])(N([H])C(=O)C([H])(N([H])C([H])([H])[H])C([H])([H])[H])C(C([H])([H])[H])(C([H])([H])[H])C([H])([H])[H])C([H])([H])c2c([H])c(OC([H])([H])C3([H])C(=O)C([H])(C([H])(C([H])(C(=O)N4C([H])([H])C([H])([H])C([H])([H])C([H])(n5nc(-c6c([H])c([H])c(Oc7c([H])c([H])c(F)c([H])c7F)c([H])c6[H])c(C(=O)N([H])[H])c5N([H])[H])C4([H])[H])C([H])([H])C([H])([H])[H])[N+]([H])([H])[H])C3([H])[H])c([H])c([H])c2C1([H])[H]

>  <smiles>  (68) 
[H]c1c([H])c([H])c2c(c1[H])C([H])([H])C([H])([H])C([H])([H])C2([H])N([H])C(=O)C1([H])N(C(=O)C([H])(N([H])C(=O)C([H])(N([H])C([H])([H])[H])C([H])([H])[H])C(C([H])([H])[H])(C([H])([H])[H])C([H])([H])[H])C([H])([H])c2c([H])c(OC([H])([H])C3([H])C(=O)C([H])(C([H])(C([H])(C(=O)N4C([H])([H])C([H])([H])C([H])([H])C([H])(n5nc(-c6c([H])c([H])c(Oc7c([H])c([H])c(F)c([H])c7F)c([H])c6[H])c(C(=O)N([H])[H])c5N([H])[H])C4([H])[H])C([H])([H])C([H])([H])[H])[N+]([H])([H])[H])C3([H])[H])c([H])c([H])c2C1([H])[H]

$$$$
68:0:0
     RDKit          3D

 92100  0  0  1  0  0  0  0  0999 V2000
  -29.1330  -22.8830   20.1230 C   0  0  0  0  0  2  0  0  0  0  0  0
  -27.5810  -21.5600   21.4330 C   0  0  0  0  0  2  0  0  0  0  0  0
  -28.6120  -21.3940   20.2990 C   0  0  0  0  0  3  0  0  0  0  0  0
  -27.9710  -23.8900   20.4840 C   0  0  0  0  0  3  0  0  0  0  0  0
  -27.3230  -23.0840   21.6570 C   0  0  0  0  0  3  0  0  0  0  0  0
  -25.8860  -23.3670   21.8740 N   0  0  0  0  0  4  0  0  0  0  0  0
  -25.3420  -23.1630   21.0530 H   0  0  0  0  0  0  0  0  0  0  0  0
  -25.7330  -24.3280   22.1260 H   0  0  0  0  0  0  0  0  0  0  0  0
  -25.5250  -22.8040   22.6280 H   0  0  0  0  0  0  0  0  0  0  0  0
  -29.6610  -20.2110   20.5030 C   0  0  0  0  0  0  0  0  0  0  0  0
  -30.8670  -20.4720   20.4870 O   0  0  0  0  0  0  0  0  0  0  0  0
  -29.2100  -18.7030   20.7190 C   0  0  0  0  0  3  0  0  0  0  0  0
  -30.2350  -17.5070   20.3760 C   0  0  0  0  0  3  0  0  0  0  0  0
  -29.9000  -16.0140   20.8720 C   0  0  0  0  0  2  0  0  0  0  0  0
  -30.6600  -14.7640   20.2360 C   0  0  0  0  0  0  0  0  0  0  0  0
  -30.4510  -12.5420   19.1010 C   0  0  0  0  0  2  0  0  0  0  0  0
  -29.4710  -12.6540   17.9100 C   0  0  0  0  0  2  0  0  0  0  0  0
  -28.0090  -12.4890   18.3670 C   0  0  0  0  0  2  0  0  0  0  0  0
  -27.6790  -13.3460   19.6180 C   0  0  0  0  0  3  0  0  0  0  0  0
  -28.7570  -13.1720   20.7110 C   0  0  0  0  0  2  0  0  0  0  0  0
  -30.0510  -13.5370   20.1190 N   0  0  0  0  0  0  0  0  0  0  0  0
  -31.7900  -14.9330   19.7680 O   0  0  0  0  0  0  0  0  0  0  0  0
  -25.2970  -13.9520   20.3640 C   0  0  0  0  0  0  0  0  0  0  0  0
  -24.2350  -13.1820   20.7550 C   0  0  0  0  0  0  0  0  0  0  0  0
  -24.6990  -11.8310   20.7290 C   0  0  0  0  0  0  0  0  0  0  0  0
  -26.3380  -13.0710   20.1230 N   0  0  0  0  0  0  0  0  0  0  0  0
  -25.9850  -11.7900   20.4040 N   0  0  0  0  0  0  0  0  0  0  0  0
  -23.9790  -10.5690   20.9420 C   0  0  0  0  0  0  0  0  0  0  0  0
  -24.4240   -9.6110   21.8790 C   0  0  0  0  0  3  0  0  0  0  0  0
  -23.7020   -8.4150   22.0790 C   0  0  0  0  0  3  0  0  0  0  0  0
  -22.5220   -8.1660   21.3390 C   0  0  0  0  0  0  0  0  0  0  0  0
  -22.0970   -9.1110   20.3880 C   0  0  0  0  0  3  0  0  0  0  0  0
  -22.8190  -10.2980   20.1860 C   0  0  0  0  0  3  0  0  0  0  0  0
  -21.7710   -7.0190   21.4470 O   0  0  0  0  0  0  0  0  0  0  0  0
  -21.7350   -6.2880   22.6070 C   0  0  0  0  0  0  0  0  0  0  0  0
  -21.3150   -6.8530   23.8310 C   0  0  0  0  0  3  0  0  0  0  0  0
  -21.2260   -6.0480   24.9840 C   0  0  0  0  0  3  0  0  0  0  0  0
  -21.5530   -4.6800   24.9150 C   0  0  0  0  0  0  0  0  0  0  0  0
  -21.9660   -4.1150   23.6960 C   0  0  0  0  0  3  0  0  0  0  0  0
  -22.0570   -4.9170   22.5460 C   0  0  0  0  0  0  0  0  0  0  0  0
  -22.4350   -4.3650   21.3680 F   0  0  0  0  0  0  0  0  0  0  0  0
  -21.4610   -3.9040   26.0200 F   0  0  0  0  0  0  0  0  0  0  0  0
  -22.8420  -13.6570   21.0450 C   0  0  0  0  0  0  0  0  0  0  0  0
  -22.1310  -12.9660   21.9290 N   0  0  0  0  0  0  0  0  0  0  0  0
  -22.3930  -14.6770   20.5230 O   0  0  0  0  0  0  0  0  0  0  0  0
  -22.5100  -12.1390   22.3660 H   0  0  0  0  0  0  0  0  0  0  0  0
  -21.1940  -13.2590   22.1630 H   0  0  0  0  0  0  0  0  0  0  0  0
  -25.4620  -15.3210   20.1690 N   0  0  0  0  0  0  0  0  0  0  0  0
  -24.7020  -15.9830   20.2760 H   0  0  0  0  0  0  0  0  0  0  0  0
  -26.3150  -15.7480   19.8320 H   0  0  0  0  0  0  0  0  0  0  0  0
  -28.3280  -25.4060   20.9020 C   0  0  0  0  0  2  0  0  0  0  0  0
  -28.2850  -26.5740   19.9980 O   0  0  0  0  0  0  0  0  0  0  0  0
  -24.5820  -31.9050   23.1690 C   0  0  0  0  0  0  0  0  0  0  0  0
  -27.1700  -27.4140   20.0390 C   0  0  0  0  0  0  0  0  0  0  0  0
  -23.3690  -30.5340   21.5130 C   0  0  0  0  0  3  0  0  0  0  0  0
  -24.8110  -29.0110   20.0490 C   0  0  0  0  0  0  0  0  0  0  0  0
  -25.9010  -30.8740   21.3000 C   0  0  0  0  0  2  0  0  0  0  0  0
  -25.9800  -29.5020   20.6460 C   0  0  0  0  0  0  0  0  0  0  0  0
  -27.1720  -28.7150   20.6310 C   0  0  0  0  0  3  0  0  0  0  0  0
  -25.9870  -26.9700   19.4210 C   0  0  0  0  0  3  0  0  0  0  0  0
  -24.8150  -27.7530   19.4240 C   0  0  0  0  0  3  0  0  0  0  0  0
  -23.5690  -29.8790   20.1200 C   0  0  0  0  0  2  0  0  0  0  0  0
  -24.6380  -31.1220   22.0530 N   0  0  0  0  0  0  0  0  0  0  0  0
  -23.5030  -32.1660   23.7200 O   0  0  0  0  0  0  0  0  0  0  0  0
  -22.7150  -29.5020   22.4610 C   0  0  0  0  0  0  0  0  0  0  0  0
  -21.3880  -29.3260   22.3480 N   0  0  0  0  0  0  0  0  0  0  0  0
  -23.4060  -28.8530   23.2550 O   0  0  0  0  0  0  0  0  0  0  0  0
  -20.8880  -29.8970   21.6800 H   0  0  0  0  0  0  0  0  0  0  0  0
  -18.0150  -28.1490   22.8840 C   0  0  0  0  0  0  0  0  0  0  0  0
  -20.5790  -28.3750   23.1070 C   0  0  0  0  0  3  0  0  0  0  0  0
  -20.6580  -26.9590   22.4870 C   0  0  0  0  0  2  0  0  0  0  0  0
  -19.5320  -26.6830   21.4850 C   0  0  0  0  0  2  0  0  0  0  0  0
  -18.1650  -26.8210   22.1620 C   0  0  0  0  0  2  0  0  0  0  0  0
  -19.1480  -28.8880   23.3130 C   0  0  0  0  0  0  0  0  0  0  0  0
  -18.9530  -30.1370   23.9400 C   0  0  0  0  0  3  0  0  0  0  0  0
  -17.6530  -30.6440   24.1460 C   0  0  0  0  0  3  0  0  0  0  0  0
  -16.5350  -29.8990   23.7340 C   0  0  0  0  0  3  0  0  0  0  0  0
  -16.7170  -28.6560   23.1060 C   0  0  0  0  0  3  0  0  0  0  0  0
  -25.8660  -32.5280   23.7980 C   0  0  0  0  0  3  0  0  0  0  0  0
  -25.5600  -33.9230   24.1470 N   0  0  0  0  0  0  0  0  0  0  0  0
  -25.8950  -34.9840   23.4020 C   0  0  0  0  0  0  0  0  0  0  0  0
  -26.5610  -34.8940   22.3690 O   0  0  0  0  0  0  0  0  0  0  0  0
  -24.9640  -34.0710   24.9500 H   0  0  0  0  0  0  0  0  0  0  0  0
  -24.1660  -36.7750   23.0820 C   0  0  0  0  0  1  0  0  0  0  0  0
  -25.4120  -36.3660   23.8810 C   0  0  0  0  0  3  0  0  0  0  0  0
  -27.5530  -37.2360   24.7070 C   0  0  0  0  0  1  0  0  0  0  0  0
  -26.4460  -37.4180   23.7750 N   0  0  0  0  0  0  0  0  0  0  0  0
  -26.0380  -38.3350   23.9430 H   0  0  0  0  0  0  0  0  0  0  0  0
  -26.3870  -31.7390   25.0610 C   0  0  1  0  0  0  0  0  0  0  0  0
  -25.2990  -31.4880   26.1300 C   0  0  0  0  0  1  0  0  0  0  0  0
  -26.9660  -30.3700   24.6400 C   0  0  0  0  0  1  0  0  0  0  0  0
  -27.5370  -32.5250   25.7330 C   0  0  0  0  0  1  0  0  0  0  0  0
  1  3  1  0
  1  4  1  0
  2  5  1  0
  3 10  1  0
  3  2  1  0
  4 51  1  0
  4  5  1  0
  5  6  1  0
  6  8  1  0
  6  9  1  0
  7  6  1  0
 10 12  1  0
 11 10  2  0
 13 12  2  0
 13 14  1  0
 15 14  1  0
 16 21  1  0
 17 18  1  0
 17 16  1  0
 19 18  1  0
 19 26  1  0
 19 20  1  0
 21 15  1  0
 21 20  1  0
 22 15  2  0
 23 24  2  0
 24 43  1  0
 25 24  1  0
 25 28  1  0
 26 23  1  0
 26 27  1  0
 27 25  2  0
 28 29  1  0
 29 30  2  0
 31 34  1  0
 31 30  1  0
 32 31  2  0
 33 32  1  0
 33 28  2  0
 34 35  1  0
 35 36  1  0
 36 37  2  0
 38 37  1  0
 38 42  1  0
 39 38  2  0
 40 35  2  0
 40 39  1  0
 41 40  1  0
 43 44  1  0
 44 47  1  0
 44 46  1  0
 45 43  2  0
 48 49  1  0
 48 23  1  0
 50 48  1  0
 52 54  1  0
 52 51  1  0
 53 64  2  0
 54 59  1  0
 55 63  1  0
 55 65  1  0
 56 62  1  0
 56 58  1  0
 57 63  1  0
 58 57  1  0
 59 58  2  0
 60 61  1  0
 60 54  2  0
 61 56  2  0
 62 55  1  0
 63 53  1  0
 65 67  2  0
 66 65  1  0
 68 66  1  0
 69 78  2  0
 69 74  1  0
 70 66  1  0
 70 74  1  0
 71 70  1  0
 72 73  1  0
 72 71  1  0
 73 69  1  0
 74 75  2  0
 75 76  1  0
 77 76  2  0
 78 77  1  0
 79 53  1  0
 79 80  1  0
 79 89  1  0
 80 83  1  0
 81 85  1  0
 81 80  1  0
 82 81  2  0
 85 84  1  0
 87 85  1  0
 87 88  1  0
 87 86  1  0
 89 92  1  1
 89 90  1  0
 91 89  1  0
M  ISO  4  14 100  15 100  51 101  52 101
M  END
>  <TORSDO>  (69) 
F 22

>  <SCORE>  (69) 
-13.133

>  <name>  (69) 
68

>  <ligand_id>  (69) 
68

>  <original_smiles>  (69) 
[H]c1c([H])c([H])c2c(c1[H])C([H])([H])C([H])([H])C([H])([H])C2([H])N([H])C(=O)C1([H])N(C(=O)C([H])(N([H])C(=O)C([H])(N([H])C([H])([H])[H])C([H])([H])[H])C(C([H])([H])[H])(C([H])([H])[H])C([H])([H])[H])C([H])([H])c2c([H])c(OC([H])([H])C3([H])C([H])([H])C([H])(C(=O)C([H])([H])C([H])([H])C([H])([H])C(=O)N4C([H])([H])C([H])([H])C([H])([H])C([H])(n5nc(-c6c([H])c([H])c(Oc7c([H])c([H])c(F)c([H])c7F)c([H])c6[H])c(C(=O)N([H])[H])c5N([H])[H])C4([H])[H])C([H])([H])C3([H])[N+]([H])([H])[H])c([H])c([H])c2C1([H])[H]

>  <smiles>  (69) 
[H]c1c([H])c([H])c2c(c1[H])C([H])([H])C([H])([H])C([H])([H])C2([H])N([H])C(=O)C1([H])N(C(=O)C([H])(N([H])C(=O)C([H])(N([H])C([H])([H])[H])C([H])([H])[H])C(C([H])([H])[H])(C([H])([H])[H])C([H])([H])[H])C([H])([H])c2c([H])c(OC([H])([H])C3([H])C([H])([H])C([H])(C(=O)C([H])([H])C([H])([H])C([H])([H])C(=O)N4C([H])([H])C([H])([H])C([H])([H])C([H])(n5nc(-c6c([H])c([H])c(Oc7c([H])c([H])c(F)c([H])c7F)c([H])c6[H])c(C(=O)N([H])[H])c5N([H])[H])C4([H])[H])C([H])([H])C3([H])[N+]([H])([H])[H])c([H])c([H])c2C1([H])[H]

$$$$
69:0:0
     RDKit          3D

 94103  0  0  1  0  0  0  0  0999 V2000
  -30.8160  -22.0860   17.3240 C   0  0  0  0  0  2  0  0  0  0  0  0
  -30.3270  -23.3200   18.0610 C   0  0  0  0  0  2  0  0  0  0  0  0
  -30.4200  -20.8820   18.1760 C   0  0  0  0  0  3  0  0  0  0  0  0
  -29.5730  -21.4110   19.3590 C   0  0  0  0  0  3  0  0  0  0  0  0
  -29.7630  -19.7620   17.3410 C   0  0  0  0  0  1  0  0  0  0  0  0
  -29.8170  -22.9190   19.3970 N   0  0  2  0  0  4  0  0  0  0  0  0
  -30.6190  -23.0300   20.0020 H   0  0  0  0  0  0  0  0  0  0  0  0
  -29.7830  -20.6650   20.7550 C   0  0  0  0  0  2  0  0  0  0  0  0
  -31.7080  -18.6420   20.4240 C   0  0  0  0  0  2  0  0  0  0  0  0
  -30.4370  -17.8100   20.4940 C   0  0  0  0  0  3  0  0  0  0  0  0
  -30.4930  -19.2690   21.0730 C   0  0  0  0  0  3  0  0  0  0  0  0
  -30.9090  -14.5320   20.2300 C   0  0  0  0  0  0  0  0  0  0  0  0
  -30.6130  -12.4110   18.9470 C   0  0  0  0  0  2  0  0  0  0  0  0
  -29.6030  -12.6810   17.8080 C   0  0  0  0  0  2  0  0  0  0  0  0
  -28.1510  -12.5180   18.3080 C   0  0  0  0  0  2  0  0  0  0  0  0
  -27.8930  -13.2830   19.6350 C   0  0  0  0  0  3  0  0  0  0  0  0
  -28.9970  -12.9480   20.6620 C   0  0  0  0  0  2  0  0  0  0  0  0
  -30.2940  -13.3190   20.0630 N   0  0  0  0  0  0  0  0  0  0  0  0
  -31.9470  -14.8320   19.6250 O   0  0  0  0  0  0  0  0  0  0  0  0
  -30.3980  -16.6420   21.4930 C   0  0  0  0  0  0  0  0  0  0  0  0
  -30.2730  -15.3410   21.1150 N   0  0  0  0  0  0  0  0  0  0  0  0
  -30.3170  -16.8890   22.7000 O   0  0  0  0  0  0  0  0  0  0  0  0
  -29.6930  -14.8040   21.7380 H   0  0  0  0  0  0  0  0  0  0  0  0
  -25.5410  -13.9110   20.4780 C   0  0  0  0  0  0  0  0  0  0  0  0
  -24.4800  -13.1460   20.8790 C   0  0  0  0  0  0  0  0  0  0  0  0
  -24.9120  -11.7880   20.7820 C   0  0  0  0  0  0  0  0  0  0  0  0
  -26.5590  -13.0190   20.1660 N   0  0  0  0  0  0  0  0  0  0  0  0
  -26.1850  -11.7370   20.4050 N   0  0  0  0  0  0  0  0  0  0  0  0
  -24.1750  -10.5320   20.9720 C   0  0  0  0  0  0  0  0  0  0  0  0
  -24.6050   -9.5570   21.8990 C   0  0  0  0  0  3  0  0  0  0  0  0
  -23.8710   -8.3650   22.0770 C   0  0  0  0  0  3  0  0  0  0  0  0
  -22.6920   -8.1400   21.3290 C   0  0  0  0  0  0  0  0  0  0  0  0
  -22.2820   -9.1020   20.3900 C   0  0  0  0  0  3  0  0  0  0  0  0
  -23.0170  -10.2850   20.2090 C   0  0  0  0  0  3  0  0  0  0  0  0
  -21.9310   -7.0010   21.4160 O   0  0  0  0  0  0  0  0  0  0  0  0
  -21.8280   -6.2930   22.5860 C   0  0  0  0  0  0  0  0  0  0  0  0
  -21.3360   -6.8790   23.7730 C   0  0  0  0  0  3  0  0  0  0  0  0
  -21.1810   -6.0960   24.9340 C   0  0  0  0  0  3  0  0  0  0  0  0
  -21.5070   -4.7270   24.9090 C   0  0  0  0  0  0  0  0  0  0  0  0
  -21.9910   -4.1390   23.7260 C   0  0  0  0  0  3  0  0  0  0  0  0
  -22.1480   -4.9200   22.5670 C   0  0  0  0  0  0  0  0  0  0  0  0
  -22.5950   -4.3450   21.4250 F   0  0  0  0  0  0  0  0  0  0  0  0
  -21.3500   -3.9710   26.0210 F   0  0  0  0  0  0  0  0  0  0  0  0
  -23.1060  -13.6380   21.2370 C   0  0  0  0  0  0  0  0  0  0  0  0
  -22.4100  -12.9280   22.1190 N   0  0  0  0  0  0  0  0  0  0  0  0
  -22.6590  -14.6850   20.7700 O   0  0  0  0  0  0  0  0  0  0  0  0
  -22.7880  -12.0850   22.5270 H   0  0  0  0  0  0  0  0  0  0  0  0
  -21.4870  -13.2350   22.3930 H   0  0  0  0  0  0  0  0  0  0  0  0
  -25.7280  -15.2830   20.3310 N   0  0  0  0  0  0  0  0  0  0  0  0
  -24.9900  -15.9580   20.4990 H   0  0  0  0  0  0  0  0  0  0  0  0
  -26.5780  -15.7040   19.9790 H   0  0  0  0  0  0  0  0  0  0  0  0
  -28.7540  -23.8780   19.9390 C   0  0  0  0  0  2  0  0  0  0  0  0
  -28.8460  -25.4020   19.4510 C   0  0  0  0  0  2  0  0  0  0  0  0
  -28.4840  -26.5280   20.3160 O   0  0  0  0  0  0  0  0  0  0  0  0
  -24.5990  -31.8220   23.1500 C   0  0  0  0  0  0  0  0  0  0  0  0
  -27.3200  -27.2840   20.1840 C   0  0  0  0  0  0  0  0  0  0  0  0
  -23.4270  -30.3900   21.5050 C   0  0  0  0  0  3  0  0  0  0  0  0
  -24.9160  -28.8230   20.1240 C   0  0  0  0  0  0  0  0  0  0  0  0
  -25.9590  -30.7320   21.3590 C   0  0  0  0  0  2  0  0  0  0  0  0
  -26.0600  -29.3480   20.7340 C   0  0  0  0  0  0  0  0  0  0  0  0
  -27.2530  -28.5830   20.7690 C   0  0  0  0  0  3  0  0  0  0  0  0
  -26.1560  -26.7940   19.5510 C   0  0  0  0  0  3  0  0  0  0  0  0
  -24.9630  -27.5480   19.5310 C   0  0  0  0  0  3  0  0  0  0  0  0
  -23.6680  -29.6840   20.1380 C   0  0  0  0  0  2  0  0  0  0  0  0
  -24.6770  -31.0010   22.0610 N   0  0  0  0  0  0  0  0  0  0  0  0
  -23.5090  -32.0980   23.6700 O   0  0  0  0  0  0  0  0  0  0  0  0
  -22.7570  -29.3880   22.4710 C   0  0  0  0  0  0  0  0  0  0  0  0
  -21.4350  -29.2040   22.3290 N   0  0  0  0  0  0  0  0  0  0  0  0
  -23.4280  -28.7770   23.3080 O   0  0  0  0  0  0  0  0  0  0  0  0
  -20.9540  -29.7390   21.6180 H   0  0  0  0  0  0  0  0  0  0  0  0
  -18.0580  -28.0020   22.7930 C   0  0  0  0  0  0  0  0  0  0  0  0
  -20.6100  -28.2770   23.1050 C   0  0  0  0  0  3  0  0  0  0  0  0
  -20.7290  -26.8350   22.5590 C   0  0  0  0  0  2  0  0  0  0  0  0
  -19.6500  -26.4940   21.5270 C   0  0  0  0  0  2  0  0  0  0  0  0
  -18.2520  -26.6470   22.1340 C   0  0  0  0  0  2  0  0  0  0  0  0
  -19.1660  -28.7760   23.2320 C   0  0  0  0  0  0  0  0  0  0  0  0
  -18.9300  -30.0460   23.8010 C   0  0  0  0  0  3  0  0  0  0  0  0
  -17.6200  -30.5430   23.9380 C   0  0  0  0  0  3  0  0  0  0  0  0
  -16.5270  -29.7680   23.5140 C   0  0  0  0  0  3  0  0  0  0  0  0
  -16.7470  -28.4980   22.9490 C   0  0  0  0  0  3  0  0  0  0  0  0
  -25.8730  -32.4700   23.7800 C   0  0  0  0  0  3  0  0  0  0  0  0
  -26.3990  -31.7000   25.0510 C   0  0  1  0  0  0  0  0  0  0  0  0
  -25.3080  -31.4450   26.1150 C   0  0  0  0  0  1  0  0  0  0  0  0
  -27.0020  -30.3330   24.6540 C   0  0  0  0  0  1  0  0  0  0  0  0
  -27.5400  -32.5050   25.7170 C   0  0  0  0  0  1  0  0  0  0  0  0
  -25.5450  -33.8600   24.1250 N   0  0  0  0  0  0  0  0  0  0  0  0
  -25.8650  -34.9260   23.3810 C   0  0  0  0  0  0  0  0  0  0  0  0
  -26.5370  -34.8450   22.3490 O   0  0  0  0  0  0  0  0  0  0  0  0
  -24.9730  -33.9990   24.9440 H   0  0  0  0  0  0  0  0  0  0  0  0
  -24.1190  -36.6960   23.0220 C   0  0  0  0  0  1  0  0  0  0  0  0
  -25.3530  -36.3040   23.8510 C   0  0  0  0  0  3  0  0  0  0  0  0
  -27.4620  -37.1970   24.7300 C   0  0  0  0  0  1  0  0  0  0  0  0
  -26.3760  -37.3700   23.7690 N   0  0  0  0  0  0  0  0  0  0  0  0
  -25.9590  -38.2840   23.9250 H   0  0  0  0  0  0  0  0  0  0  0  0
  1  2  1  0
  1  3  1  0
  2  6  1  0
  3  5  1  0
  3  4  1  0
  4  6  1  0
  4  8  1  0
  6 52  1  0
  6  7  1  1
  9 10  1  0
  9 11  1  0
 10 11  1  0
 10 20  1  0
 11  8  1  0
 12 21  1  0
 13 18  1  0
 14 15  1  0
 14 13  1  0
 16 15  1  0
 16 27  1  0
 16 17  1  0
 18 12  1  0
 18 17  1  0
 19 12  2  0
 20 22  2  0
 21 20  1  0
 21 23  1  0
 24 25  2  0
 25 44  1  0
 26 25  1  0
 26 29  1  0
 27 28  1  0
 27 24  1  0
 28 26  2  0
 29 30  1  0
 30 31  2  0
 32 35  1  0
 32 31  1  0
 33 32  2  0
 34 33  1  0
 34 29  2  0
 35 36  1  0
 36 37  1  0
 37 38  2  0
 39 38  1  0
 39 43  1  0
 40 39  2  0
 41 36  2  0
 41 40  1  0
 42 41  1  0
 44 45  1  0
 45 48  1  0
 45 47  1  0
 46 44  2  0
 49 24  1  0
 49 50  1  0
 51 49  1  0
 53 52  1  0
 53 54  1  0
 55 66  2  0
 56 54  1  0
 56 61  1  0
 57 65  1  0
 57 67  1  0
 58 64  1  0
 58 60  1  0
 59 65  1  0
 60 61  2  0
 60 59  1  0
 62 56  2  0
 63 62  1  0
 63 58  2  0
 64 57  1  0
 65 55  1  0
 67 69  2  0
 68 67  1  0
 70 68  1  0
 71 80  2  0
 71 76  1  0
 72 68  1  0
 72 76  1  0
 73 72  1  0
 74 75  1  0
 74 73  1  0
 75 71  1  0
 76 77  2  0
 77 78  1  0
 79 78  2  0
 80 79  1  0
 81 55  1  0
 81 86  1  0
 81 82  1  0
 82 85  1  1
 82 83  1  0
 84 82  1  0
 86 89  1  0
 87 91  1  0
 87 86  1  0
 88 87  2  0
 91 90  1  0
 93 91  1  0
 93 94  1  0
 93 92  1  0
M  ISO  4  12 100  21 100  53 101  54 101
M  END
>  <TORSDO>  (70) 
F 20

>  <SCORE>  (70) 
-14.015

>  <name>  (70) 
69

>  <ligand_id>  (70) 
69

>  <original_smiles>  (70) 
[H]c1c([H])c([H])c2c(c1[H])C([H])([H])C([H])([H])C([H])([H])C2([H])N([H])C(=O)C1([H])N(C(=O)C([H])(N([H])C(=O)C([H])(N([H])C([H])([H])[H])C([H])([H])[H])C(C([H])([H])[H])(C([H])([H])[H])C([H])([H])[H])C([H])([H])c2c([H])c(OC([H])([H])C([H])([H])[N+]3([H])C([H])([H])C([H])([H])C([H])(C([H])([H])[H])C3([H])C([H])([H])C3([H])C([H])([H])C3([H])C(=O)N([H])C(=O)N3C([H])([H])C([H])([H])C([H])([H])C([H])(n4nc(-c5c([H])c([H])c(Oc6c([H])c([H])c(F)c([H])c6F)c([H])c5[H])c(C(=O)N([H])[H])c4N([H])[H])C3([H])[H])c([H])c([H])c2C1([H])[H]

>  <smiles>  (70) 
[H]c1c([H])c([H])c2c(c1[H])C([H])([H])C([H])([H])C([H])([H])C2([H])N([H])C(=O)C1([H])N(C(=O)C([H])(N([H])C(=O)C([H])(N([H])C([H])([H])[H])C([H])([H])[H])C(C([H])([H])[H])(C([H])([H])[H])C([H])([H])[H])C([H])([H])c2c([H])c(OC([H])([H])C([H])([H])[N+]3([H])C([H])([H])C([H])([H])C([H])(C([H])([H])[H])C3([H])C([H])([H])C3([H])C([H])([H])C3([H])C(=O)N([H])C(=O)N3C([H])([H])C([H])([H])C([H])([H])C([H])(n4nc(-c5c([H])c([H])c(Oc6c([H])c([H])c(F)c([H])c6F)c([H])c5[H])c(C(=O)N([H])[H])c4N([H])[H])C3([H])[H])c([H])c([H])c2C1([H])[H]

$$$$
70:0:0
     RDKit          3D

 92100  0  0  1  0  0  0  0  0999 V2000
  -30.3450  -22.0420   21.2600 C   0  0  0  0  0  2  0  0  0  0  0  0
  -30.1220  -20.5280   21.5340 C   0  0  0  0  0  2  0  0  0  0  0  0
  -28.6950  -21.9190   19.3990 C   0  0  0  0  0  2  0  0  0  0  0  0
  -29.1080  -22.7470   20.6470 C   0  0  0  0  0  3  0  0  0  0  0  0
  -29.6450  -19.7310   20.2850 C   0  0  0  0  0  3  0  0  0  0  0  0
  -28.4790  -20.4710   19.7120 N   0  0  0  0  0  4  0  0  0  0  0  0
  -28.1900  -20.0180   18.8590 H   0  0  0  0  0  0  0  0  0  0  0  0
  -27.7070  -20.4080   20.3540 H   0  0  0  0  0  0  0  0  0  0  0  0
  -29.3740  -24.2870   20.4100 C   0  0  0  0  0  3  0  0  0  0  0  0
  -28.1680  -25.1880   19.9920 C   0  0  0  0  0  3  0  0  0  0  0  0
  -28.3440  -26.6220   20.2040 O   0  0  0  0  0  0  0  0  0  0  0  0
  -24.6050  -31.9440   23.2560 C   0  0  0  0  0  0  0  0  0  0  0  0
  -27.2020  -27.4230   20.1720 C   0  0  0  0  0  0  0  0  0  0  0  0
  -23.3920  -30.5490   21.6190 C   0  0  0  0  0  3  0  0  0  0  0  0
  -24.8320  -29.0010   20.1870 C   0  0  0  0  0  0  0  0  0  0  0  0
  -25.9260  -30.8680   21.4260 C   0  0  0  0  0  2  0  0  0  0  0  0
  -25.9990  -29.4940   20.7810 C   0  0  0  0  0  0  0  0  0  0  0  0
  -27.1870  -28.7130   20.7700 C   0  0  0  0  0  3  0  0  0  0  0  0
  -26.0110  -26.9700   19.5550 C   0  0  0  0  0  3  0  0  0  0  0  0
  -24.8370  -27.7410   19.5690 C   0  0  0  0  0  3  0  0  0  0  0  0
  -23.5960  -29.8730   20.2380 C   0  0  0  0  0  2  0  0  0  0  0  0
  -24.6600  -31.1370   22.1580 N   0  0  0  0  0  0  0  0  0  0  0  0
  -23.5250  -32.2260   23.7950 O   0  0  0  0  0  0  0  0  0  0  0  0
  -22.7290  -29.5330   22.5790 C   0  0  0  0  0  0  0  0  0  0  0  0
  -21.4020  -29.3610   22.4540 N   0  0  0  0  0  0  0  0  0  0  0  0
  -23.4070  -28.8990   23.3940 O   0  0  0  0  0  0  0  0  0  0  0  0
  -20.9170  -29.9260   21.7710 H   0  0  0  0  0  0  0  0  0  0  0  0
  -18.0180  -28.1950   22.9550 C   0  0  0  0  0  0  0  0  0  0  0  0
  -20.5770  -28.4290   23.2230 C   0  0  0  0  0  3  0  0  0  0  0  0
  -20.6670  -26.9990   22.6430 C   0  0  0  0  0  2  0  0  0  0  0  0
  -19.5590  -26.6880   21.6310 C   0  0  0  0  0  2  0  0  0  0  0  0
  -18.1790  -26.8450   22.2790 C   0  0  0  0  0  2  0  0  0  0  0  0
  -19.1450  -28.9460   23.3850 C   0  0  0  0  0  0  0  0  0  0  0  0
  -18.9390  -30.2100   23.9770 C   0  0  0  0  0  3  0  0  0  0  0  0
  -17.6390  -30.7240   24.1460 C   0  0  0  0  0  3  0  0  0  0  0  0
  -16.5270  -29.9700   23.7330 C   0  0  0  0  0  3  0  0  0  0  0  0
  -16.7180  -28.7090   23.1430 C   0  0  0  0  0  3  0  0  0  0  0  0
  -25.8940  -32.5660   23.8760 C   0  0  0  0  0  3  0  0  0  0  0  0
  -26.4110  -31.7880   25.1470 C   0  0  1  0  0  0  0  0  0  0  0  0
  -25.3200  -31.5510   26.2170 C   0  0  0  0  0  1  0  0  0  0  0  0
  -26.9880  -30.4100   24.7470 C   0  0  0  0  0  1  0  0  0  0  0  0
  -27.5660  -32.5750   25.8100 C   0  0  0  0  0  1  0  0  0  0  0  0
  -25.5950  -33.9650   24.2100 N   0  0  0  0  0  0  0  0  0  0  0  0
  -25.9160  -35.0160   23.4450 C   0  0  0  0  0  0  0  0  0  0  0  0
  -26.5710  -34.9100   22.4040 O   0  0  0  0  0  0  0  0  0  0  0  0
  -25.0100  -34.1220   25.0180 H   0  0  0  0  0  0  0  0  0  0  0  0
  -24.1800  -36.8080   23.1220 C   0  0  0  0  0  1  0  0  0  0  0  0
  -25.4380  -36.4060   23.9090 C   0  0  0  0  0  3  0  0  0  0  0  0
  -27.5880  -37.2950   24.6930 C   0  0  0  0  0  1  0  0  0  0  0  0
  -26.4680  -37.4580   23.7710 N   0  0  0  0  0  0  0  0  0  0  0  0
  -26.0650  -38.3800   23.9200 H   0  0  0  0  0  0  0  0  0  0  0  0
  -29.2840  -18.2000   20.5410 C   0  0  0  0  0  2  0  0  0  0  0  0
  -31.2430  -17.3260   22.0030 C   0  0  0  0  0  1  0  0  0  0  0  0
  -30.4210  -17.1110   20.7180 C   0  0  0  0  0  3  0  0  0  0  0  0
  -30.6010  -14.6000   20.2900 C   0  0  0  0  0  0  0  0  0  0  0  0
  -30.2760  -12.4180   19.1770 C   0  0  0  0  0  2  0  0  0  0  0  0
  -29.3170  -12.5960   17.9820 C   0  0  0  0  0  2  0  0  0  0  0  0
  -27.8500  -12.4600   18.4350 C   0  0  0  0  0  2  0  0  0  0  0  0
  -27.5280  -13.3000   19.6990 C   0  0  0  0  0  3  0  0  0  0  0  0
  -28.6070  -13.1250   20.7920 C   0  0  0  0  0  2  0  0  0  0  0  0
  -29.9120  -13.4250   20.1890 N   0  0  0  0  0  0  0  0  0  0  0  0
  -31.7530  -14.7150   19.8680 O   0  0  0  0  0  0  0  0  0  0  0  0
  -29.9130  -15.6990   20.7000 N   0  0  0  0  0  0  0  0  0  0  0  0
  -28.9550  -15.5420   20.9810 H   0  0  0  0  0  0  0  0  0  0  0  0
  -25.1440  -13.8940   20.4530 C   0  0  0  0  0  0  0  0  0  0  0  0
  -24.0810  -13.1210   20.8350 C   0  0  0  0  0  0  0  0  0  0  0  0
  -24.5440  -11.7700   20.7970 C   0  0  0  0  0  0  0  0  0  0  0  0
  -26.1850  -13.0160   20.2040 N   0  0  0  0  0  0  0  0  0  0  0  0
  -25.8300  -11.7320   20.4700 N   0  0  0  0  0  0  0  0  0  0  0  0
  -23.8200  -10.5070   20.9960 C   0  0  0  0  0  0  0  0  0  0  0  0
  -24.2570   -9.5430   21.9310 C   0  0  0  0  0  3  0  0  0  0  0  0
  -23.5330   -8.3460   22.1190 C   0  0  0  0  0  3  0  0  0  0  0  0
  -22.3580   -8.1040   21.3690 C   0  0  0  0  0  0  0  0  0  0  0  0
  -21.9400   -9.0570   20.4230 C   0  0  0  0  0  3  0  0  0  0  0  0
  -22.6640  -10.2460   20.2360 C   0  0  0  0  0  3  0  0  0  0  0  0
  -21.6050   -6.9580   21.4630 O   0  0  0  0  0  0  0  0  0  0  0  0
  -21.5530   -6.2230   22.6210 C   0  0  0  0  0  0  0  0  0  0  0  0
  -21.1170   -6.7840   23.8420 C   0  0  0  0  0  3  0  0  0  0  0  0
  -21.0170   -5.9760   24.9920 C   0  0  0  0  0  3  0  0  0  0  0  0
  -21.3420   -4.6080   24.9210 C   0  0  0  0  0  0  0  0  0  0  0  0
  -21.7700   -4.0470   23.7060 C   0  0  0  0  0  3  0  0  0  0  0  0
  -21.8750   -4.8530   22.5590 C   0  0  0  0  0  0  0  0  0  0  0  0
  -22.2690   -4.3030   21.3850 F   0  0  0  0  0  0  0  0  0  0  0  0
  -21.2360   -3.8290   26.0230 F   0  0  0  0  0  0  0  0  0  0  0  0
  -22.6870  -13.5980   21.1250 C   0  0  0  0  0  0  0  0  0  0  0  0
  -21.9690  -12.8990   21.9940 N   0  0  0  0  0  0  0  0  0  0  0  0
  -22.2470  -14.6280   20.6160 O   0  0  0  0  0  0  0  0  0  0  0  0
  -22.3450  -12.0710   22.4330 H   0  0  0  0  0  0  0  0  0  0  0  0
  -21.0310  -13.1980   22.2240 H   0  0  0  0  0  0  0  0  0  0  0  0
  -25.3050  -15.2650   20.2740 N   0  0  0  0  0  0  0  0  0  0  0  0
  -24.5350  -15.9130   20.3980 H   0  0  0  0  0  0  0  0  0  0  0  0
  -26.1370  -15.7060   19.9060 H   0  0  0  0  0  0  0  0  0  0  0  0
  1  2  1  0
  3  6  1  0
  3  4  1  0
  4  9  1  0
  4  1  1  0
  5 52  1  0
  5  2  1  0
  6  5  1  0
  6  8  1  0
  7  6  1  0
 10 11  1  0
 10  9  2  0
 12 23  2  0
 13 11  1  0
 13 18  1  0
 14 22  1  0
 14 24  1  0
 15 21  1  0
 15 17  1  0
 16 22  1  0
 17 16  1  0
 18 17  2  0
 19 20  1  0
 19 13  2  0
 20 15  2  0
 21 14  1  0
 22 12  1  0
 24 26  2  0
 25 24  1  0
 27 25  1  0
 28 37  2  0
 28 33  1  0
 29 25  1  0
 29 33  1  0
 30 29  1  0
 31 32  1  0
 31 30  1  0
 32 28  1  0
 33 34  2  0
 34 35  1  0
 36 35  2  0
 37 36  1  0
 38 12  1  0
 38 43  1  0
 38 39  1  0
 39 42  1  1
 39 40  1  0
 41 39  1  0
 43 46  1  0
 44 48  1  0
 44 43  1  0
 45 44  2  0
 48 47  1  0
 50 48  1  0
 50 51  1  0
 50 49  1  0
 52 54  1  0
 54 53  1  0
 55 63  1  0
 56 61  1  0
 57 58  1  0
 57 56  1  0
 59 58  1  0
 59 68  1  0
 59 60  1  0
 61 55  1  0
 61 60  1  0
 62 55  2  0
 63 54  1  0
 63 64  1  0
 65 66  2  0
 66 85  1  0
 67 66  1  0
 67 70  1  0
 68 65  1  0
 68 69  1  0
 69 67  2  0
 70 71  1  0
 71 72  2  0
 73 76  1  0
 73 72  1  0
 74 73  2  0
 75 74  1  0
 75 70  2  0
 76 77  1  0
 77 78  1  0
 78 79  2  0
 80 79  1  0
 80 84  1  0
 81 80  2  0
 82 77  2  0
 82 81  1  0
 83 82  1  0
 85 86  1  0
 86 89  1  0
 86 88  1  0
 87 85  2  0
 90 91  1  0
 90 65  1  0
 92 90  1  0
M  ISO  4  10 101  11 101  55 100  63 100
M  END
>  <TORSDO>  (71) 
F 20

>  <SCORE>  (71) 
-13.778

>  <name>  (71) 
70

>  <ligand_id>  (71) 
70

>  <original_smiles>  (71) 
[H]c1c([H])c([H])c2c(c1[H])C([H])([H])C([H])([H])C([H])([H])C2([H])N([H])C(=O)C1([H])N(C(=O)C([H])(N([H])C(=O)C([H])(N([H])C([H])([H])[H])C([H])([H])[H])C(C([H])([H])[H])(C([H])([H])[H])C([H])([H])[H])C([H])([H])c2c([H])c(OC([H])([H])C([H])([H])C3([H])C([H])([H])C([H])([H])C([H])(C([H])([H])C([H])(N([H])C(=O)N4C([H])([H])C([H])([H])C([H])([H])C([H])(n5nc(-c6c([H])c([H])c(Oc7c([H])c([H])c(F)c([H])c7F)c([H])c6[H])c(C(=O)N([H])[H])c5N([H])[H])C4([H])[H])C([H])([H])[H])[N+]([H])([H])C3([H])[H])c([H])c([H])c2C1([H])[H]

>  <smiles>  (71) 
[H]c1c([H])c([H])c2c(c1[H])C([H])([H])C([H])([H])C([H])([H])C2([H])N([H])C(=O)C1([H])N(C(=O)C([H])(N([H])C(=O)C([H])(N([H])C([H])([H])[H])C([H])([H])[H])C(C([H])([H])[H])(C([H])([H])[H])C([H])([H])[H])C([H])([H])c2c([H])c(OC([H])([H])C([H])([H])C3([H])C([H])([H])C([H])([H])C([H])(C([H])([H])C([H])(N([H])C(=O)N4C([H])([H])C([H])([H])C([H])([H])C([H])(n5nc(-c6c([H])c([H])c(Oc7c([H])c([H])c(F)c([H])c7F)c([H])c6[H])c(C(=O)N([H])[H])c5N([H])[H])C4([H])[H])C([H])([H])[H])[N+]([H])([H])C3([H])[H])c([H])c([H])c2C1([H])[H]

$$$$
71:0:0
     RDKit          3D

 89 99  0  0  1  0  0  0  0  0999 V2000
  -28.7310  -20.3910   18.9600 C   0  0  0  0  0  2  0  0  0  0  0  0
  -28.9810  -19.7340   20.3470 C   0  0  0  0  0  3  0  0  0  0  0  0
  -29.0660  -22.8990   20.2550 C   0  0  0  0  0  3  0  0  0  0  0  0
  -29.3510  -21.8560   19.0740 C   0  0  2  0  0  0  0  0  0  0  0  0
  -29.4230  -21.3010   20.8710 C   0  0  1  0  0  0  0  0  0  0  0  0
  -30.5050  -21.5290   19.9130 N   0  0  0  0  0  4  0  0  0  0  0  0
  -31.0830  -22.3260   20.1260 H   0  0  0  0  0  0  0  0  0  0  0  0
  -31.0290  -20.7180   19.6340 H   0  0  0  0  0  0  0  0  0  0  0  0
  -29.9540  -18.2090   20.4660 C   0  0  0  0  0  2  0  0  0  0  0  0
  -30.3790  -15.3080   20.3020 C   0  0  0  0  0  0  0  0  0  0  0  0
  -30.3520  -12.8760   19.4020 C   0  0  0  0  0  2  0  0  0  0  0  0
  -29.4170  -12.6740   18.1840 C   0  0  0  0  0  2  0  0  0  0  0  0
  -27.9750  -12.3950   18.6430 C   0  0  0  0  0  2  0  0  0  0  0  0
  -27.5320  -13.3480   19.7820 C   0  0  0  0  0  3  0  0  0  0  0  0
  -28.5960  -13.4940   20.8910 C   0  0  0  0  0  2  0  0  0  0  0  0
  -29.8120  -14.0070   20.2410 N   0  0  0  0  0  0  0  0  0  0  0  0
  -31.5980  -15.3150   20.0820 O   0  0  0  0  0  0  0  0  0  0  0  0
  -29.6190  -16.5760   20.4100 N   0  0  0  0  0  0  0  0  0  0  0  0
  -28.6310  -16.3910   20.5070 H   0  0  0  0  0  0  0  0  0  0  0  0
  -25.1690  -13.8790   20.5730 C   0  0  0  0  0  0  0  0  0  0  0  0
  -24.1180  -13.0900   20.9500 C   0  0  0  0  0  0  0  0  0  0  0  0
  -24.5980  -11.7440   20.9020 C   0  0  0  0  0  0  0  0  0  0  0  0
  -26.2150  -13.0150   20.3080 N   0  0  0  0  0  0  0  0  0  0  0  0
  -25.8850  -11.7250   20.5740 N   0  0  0  0  0  0  0  0  0  0  0  0
  -23.8830  -10.4740   21.0880 C   0  0  0  0  0  0  0  0  0  0  0  0
  -24.3200   -9.5090   22.0220 C   0  0  0  0  0  3  0  0  0  0  0  0
  -23.6030   -8.3060   22.1980 C   0  0  0  0  0  3  0  0  0  0  0  0
  -22.4340   -8.0590   21.4400 C   0  0  0  0  0  0  0  0  0  0  0  0
  -22.0160   -9.0130   20.4950 C   0  0  0  0  0  3  0  0  0  0  0  0
  -22.7340  -10.2060   20.3160 C   0  0  0  0  0  3  0  0  0  0  0  0
  -21.6880   -6.9080   21.5260 O   0  0  0  0  0  0  0  0  0  0  0  0
  -21.6250   -6.1770   22.6850 C   0  0  0  0  0  0  0  0  0  0  0  0
  -21.1380   -6.7290   23.8890 C   0  0  0  0  0  3  0  0  0  0  0  0
  -21.0240   -5.9220   25.0390 C   0  0  0  0  0  3  0  0  0  0  0  0
  -21.3870   -4.5630   24.9840 C   0  0  0  0  0  0  0  0  0  0  0  0
  -21.8660   -4.0100   23.7840 C   0  0  0  0  0  3  0  0  0  0  0  0
  -21.9810   -4.8140   22.6370 C   0  0  0  0  0  0  0  0  0  0  0  0
  -22.4240   -4.2700   21.4770 F   0  0  0  0  0  0  0  0  0  0  0  0
  -21.2700   -3.7850   26.0860 F   0  0  0  0  0  0  0  0  0  0  0  0
  -22.7200  -13.5530   21.2370 C   0  0  0  0  0  0  0  0  0  0  0  0
  -22.0070  -12.8470   22.1060 N   0  0  0  0  0  0  0  0  0  0  0  0
  -22.2690  -14.5760   20.7230 O   0  0  0  0  0  0  0  0  0  0  0  0
  -22.3850  -12.0190   22.5430 H   0  0  0  0  0  0  0  0  0  0  0  0
  -21.0690  -13.1400   22.3410 H   0  0  0  0  0  0  0  0  0  0  0  0
  -25.3130  -15.2540   20.4040 N   0  0  0  0  0  0  0  0  0  0  0  0
  -24.5350  -15.8930   20.5270 H   0  0  0  0  0  0  0  0  0  0  0  0
  -26.1380  -15.7030   20.0290 H   0  0  0  0  0  0  0  0  0  0  0  0
  -27.9340  -24.2870   20.3200 C   0  0  0  0  0  2  0  0  0  0  0  0
  -28.1720  -25.9200   20.3100 O   0  0  0  0  0  0  0  0  0  0  0  0
  -24.6230  -31.8990   23.2580 C   0  0  0  0  0  0  0  0  0  0  0  0
  -27.1520  -27.0050   20.2650 C   0  0  0  0  0  0  0  0  0  0  0  0
  -23.4210  -30.5050   21.6250 C   0  0  0  0  0  3  0  0  0  0  0  0
  -24.8590  -28.8870   20.2110 C   0  0  0  0  0  0  0  0  0  0  0  0
  -25.9870  -30.7050   21.4750 C   0  0  0  0  0  2  0  0  0  0  0  0
  -26.0500  -29.2930   20.8270 C   0  0  0  0  0  0  0  0  0  0  0  0
  -27.1920  -28.3740   20.8250 C   0  0  0  0  0  3  0  0  0  0  0  0
  -25.9290  -26.7460   19.6040 C   0  0  0  0  0  3  0  0  0  0  0  0
  -24.8230  -27.6330   19.5800 C   0  0  0  0  0  3  0  0  0  0  0  0
  -23.6460  -29.8140   20.2520 C   0  0  0  0  0  2  0  0  0  0  0  0
  -24.6980  -31.0630   22.1740 N   0  0  0  0  0  0  0  0  0  0  0  0
  -23.5350  -32.1970   23.7790 O   0  0  0  0  0  0  0  0  0  0  0  0
  -22.7220  -29.5160   22.5950 C   0  0  0  0  0  0  0  0  0  0  0  0
  -21.3920  -29.3510   22.4650 N   0  0  0  0  0  0  0  0  0  0  0  0
  -23.3820  -28.8960   23.4320 O   0  0  0  0  0  0  0  0  0  0  0  0
  -20.9110  -29.9020   21.7670 H   0  0  0  0  0  0  0  0  0  0  0  0
  -18.0060  -28.1480   22.9640 C   0  0  0  0  0  0  0  0  0  0  0  0
  -20.5640  -28.4200   23.2390 C   0  0  0  0  0  3  0  0  0  0  0  0
  -20.6700  -26.9830   22.6780 C   0  0  0  0  0  2  0  0  0  0  0  0
  -19.5740  -26.6500   21.6600 C   0  0  0  0  0  2  0  0  0  0  0  0
  -18.1890  -26.7950   22.2960 C   0  0  0  0  0  2  0  0  0  0  0  0
  -19.1200  -28.9170   23.3920 C   0  0  0  0  0  0  0  0  0  0  0  0
  -18.8930  -30.1810   23.9800 C   0  0  0  0  0  3  0  0  0  0  0  0
  -17.5840  -30.6760   24.1400 C   0  0  0  0  0  3  0  0  0  0  0  0
  -16.4860  -29.9050   23.7260 C   0  0  0  0  0  3  0  0  0  0  0  0
  -16.6960  -28.6420   23.1440 C   0  0  0  0  0  3  0  0  0  0  0  0
  -25.8970  -32.5370   23.8890 C   0  0  0  0  0  3  0  0  0  0  0  0
  -25.5890  -33.9410   24.2130 N   0  0  0  0  0  0  0  0  0  0  0  0
  -25.9130  -34.9940   23.4510 C   0  0  0  0  0  0  0  0  0  0  0  0
  -26.5660  -34.8860   22.4100 O   0  0  0  0  0  0  0  0  0  0  0  0
  -25.0060  -34.0990   25.0220 H   0  0  0  0  0  0  0  0  0  0  0  0
  -24.1830  -36.7970   23.1330 C   0  0  0  0  0  1  0  0  0  0  0  0
  -25.4420  -36.3880   23.9160 C   0  0  0  0  0  3  0  0  0  0  0  0
  -27.5940  -37.2780   24.6990 C   0  0  0  0  0  1  0  0  0  0  0  0
  -26.4750  -37.4380   23.7740 N   0  0  0  0  0  0  0  0  0  0  0  0
  -26.0740  -38.3600   23.9180 H   0  0  0  0  0  0  0  0  0  0  0  0
  -26.3940  -31.7790   25.1830 C   0  0  1  0  0  0  0  0  0  0  0  0
  -25.2880  -31.5630   26.2430 C   0  0  0  0  0  1  0  0  0  0  0  0
  -26.9700  -30.3910   24.8220 C   0  0  0  0  0  1  0  0  0  0  0  0
  -27.5440  -32.5730   25.8460 C   0  0  0  0  0  1  0  0  0  0  0  0
  1  2  1  0
  2  9  1  0
  5  2  1  6
  3 48  1  0
  3  5  1  0
  4  1  1  1
  4  6  1  0
  4  3  1  0
  4  5  1  0
  5  6  1  0
  6  7  1  0
  8  6  1  0
 10 18  1  0
 11 16  1  0
 12 13  1  0
 12 11  1  0
 14 13  1  0
 14 23  1  0
 14 15  1  0
 16 10  1  0
 16 15  1  0
 17 10  2  0
 18  9  1  0
 18 19  1  0
 20 21  2  0
 21 40  1  0
 22 21  1  0
 22 25  1  0
 23 20  1  0
 23 24  1  0
 24 22  2  0
 25 26  1  0
 26 27  2  0
 28 31  1  0
 28 27  1  0
 29 28  2  0
 30 29  1  0
 30 25  2  0
 31 32  1  0
 32 33  1  0
 33 34  2  0
 35 34  1  0
 35 39  1  0
 36 35  2  0
 37 32  2  0
 37 36  1  0
 38 37  1  0
 40 41  1  0
 41 44  1  0
 41 43  1  0
 42 40  2  0
 45 46  1  0
 45 20  1  0
 47 45  1  0
 49 48  1  0
 50 61  2  0
 51 49  1  0
 51 56  1  0
 52 60  1  0
 52 62  1  0
 53 59  1  0
 53 55  1  0
 54 60  1  0
 55 54  1  0
 56 55  2  0
 57 51  2  0
 58 57  1  0
 58 53  2  0
 59 52  1  0
 60 50  1  0
 62 64  2  0
 63 62  1  0
 65 63  1  0
 66 75  2  0
 66 71  1  0
 67 63  1  0
 67 71  1  0
 68 67  1  0
 69 70  1  0
 69 68  1  0
 70 66  1  0
 71 72  2  0
 72 73  1  0
 74 73  2  0
 75 74  1  0
 76 50  1  0
 76 77  1  0
 76 86  1  0
 77 80  1  0
 78 82  1  0
 78 77  1  0
 79 78  2  0
 82 81  1  0
 84 82  1  0
 84 85  1  0
 84 83  1  0
 86 89  1  1
 86 87  1  0
 88 86  1  0
M  ISO  4  10 100  18 100  48 101  49 101
M  END
>  <TORSDO>  (72) 
F 18

>  <SCORE>  (72) 
-16.342

>  <name>  (72) 
71

>  <ligand_id>  (72) 
71

>  <original_smiles>  (72) 
[H]c1c([H])c([H])c2c(c1[H])C([H])([H])C([H])([H])C([H])([H])C2([H])N([H])C(=O)C1([H])N(C(=O)C([H])(N([H])C(=O)C([H])(N([H])C([H])([H])[H])C([H])([H])[H])C(C([H])([H])[H])(C([H])([H])[H])C([H])([H])[H])C([H])([H])c2c([H])c(OC([H])([H])C3([H])C4([H])C([H])([H])C([H])(C([H])([H])N([H])C(=O)N5C([H])([H])C([H])([H])C([H])([H])C([H])(n6nc(-c7c([H])c([H])c(Oc8c([H])c([H])c(F)c([H])c8F)c([H])c7[H])c(C(=O)N([H])[H])c6N([H])[H])C5([H])[H])C3([H])[N+]4([H])[H])c([H])c([H])c2C1([H])[H]

>  <smiles>  (72) 
[H]c1c([H])c([H])c2c(c1[H])C([H])([H])C([H])([H])C([H])([H])C2([H])N([H])C(=O)C1([H])N(C(=O)C([H])(N([H])C(=O)C([H])(N([H])C([H])([H])[H])C([H])([H])[H])C(C([H])([H])[H])(C([H])([H])[H])C([H])([H])[H])C([H])([H])c2c([H])c(OC([H])([H])C3([H])C4([H])C([H])([H])C([H])(C([H])([H])N([H])C(=O)N5C([H])([H])C([H])([H])C([H])([H])C([H])(n6nc(-c7c([H])c([H])c(Oc8c([H])c([H])c(F)c([H])c8F)c([H])c7[H])c(C(=O)N([H])[H])c6N([H])[H])C5([H])[H])C3([H])[N+]4([H])[H])c([H])c([H])c2C1([H])[H]

$$$$
72:0:0
     RDKit          3D

 90 98  0  0  1  0  0  0  0  0999 V2000
  -29.7350  -21.3350   18.6020 C   0  0  0  0  0  3  0  0  0  0  0  0
  -30.3380  -21.0960   20.9550 C   0  0  0  0  0  3  0  0  0  0  0  0
  -29.5670  -22.7190   18.7870 C   0  0  0  0  0  3  0  0  0  0  0  0
  -30.1600  -22.4800   21.1410 C   0  0  0  0  0  3  0  0  0  0  0  0
  -30.1460  -20.5270   19.6800 C   0  0  0  0  0  0  0  0  0  0  0  0
  -29.7970  -23.3000   20.0530 C   0  0  0  0  0  0  0  0  0  0  0  0
  -30.5210  -19.0810   19.4390 C   0  0  0  0  0  2  0  0  0  0  0  0
  -29.7860  -18.0280   20.2940 C   0  0  0  0  0  2  0  0  0  0  0  0
  -30.7090  -16.8090   20.3960 C   0  0  0  0  0  2  0  0  0  0  0  0
  -30.7400  -14.3980   20.4800 C   0  0  0  0  0  0  0  0  0  0  0  0
  -30.3420  -12.2650   19.3600 C   0  0  0  0  0  2  0  0  0  0  0  0
  -29.4290  -12.5220   18.1460 C   0  0  0  0  0  2  0  0  0  0  0  0
  -27.9500  -12.4160   18.5650 C   0  0  0  0  0  2  0  0  0  0  0  0
  -27.6160  -13.2500   19.8320 C   0  0  0  0  0  3  0  0  0  0  0  0
  -28.6670  -13.0370   20.9480 C   0  0  0  0  0  2  0  0  0  0  0  0
  -29.9970  -13.2700   20.3740 N   0  0  0  0  0  0  0  0  0  0  0  0
  -31.9110  -14.4620   20.0990 O   0  0  0  0  0  0  0  0  0  0  0  0
  -30.0800  -15.5330   20.7500 N   0  0  0  0  0  0  0  0  0  0  0  0
  -29.1030  -15.4980   20.9970 H   0  0  0  0  0  0  0  0  0  0  0  0
  -25.2120  -13.8540   20.5220 C   0  0  0  0  0  0  0  0  0  0  0  0
  -24.1420  -13.0820   20.8870 C   0  0  0  0  0  0  0  0  0  0  0  0
  -24.6050  -11.7310   20.8700 C   0  0  0  0  0  0  0  0  0  0  0  0
  -26.2610  -12.9750   20.3060 N   0  0  0  0  0  0  0  0  0  0  0  0
  -25.8990  -11.6930   20.5730 N   0  0  0  0  0  0  0  0  0  0  0  0
  -23.8790  -10.4690   21.0600 C   0  0  0  0  0  0  0  0  0  0  0  0
  -24.3140   -9.4980   21.9870 C   0  0  0  0  0  3  0  0  0  0  0  0
  -23.5880   -8.3010   22.1670 C   0  0  0  0  0  3  0  0  0  0  0  0
  -22.4110   -8.0660   21.4170 C   0  0  0  0  0  0  0  0  0  0  0  0
  -21.9950   -9.0260   20.4770 C   0  0  0  0  0  3  0  0  0  0  0  0
  -22.7220  -10.2140   20.2960 C   0  0  0  0  0  3  0  0  0  0  0  0
  -21.6550   -6.9210   21.5050 O   0  0  0  0  0  0  0  0  0  0  0  0
  -21.6220   -6.1670   22.6500 C   0  0  0  0  0  0  0  0  0  0  0  0
  -21.2280   -6.7130   23.8910 C   0  0  0  0  0  3  0  0  0  0  0  0
  -21.1420   -5.8870   25.0300 C   0  0  0  0  0  3  0  0  0  0  0  0
  -21.4410   -4.5160   24.9280 C   0  0  0  0  0  0  0  0  0  0  0  0
  -21.8310   -3.9690   23.6930 C   0  0  0  0  0  3  0  0  0  0  0  0
  -21.9180   -4.7920   22.5570 C   0  0  0  0  0  0  0  0  0  0  0  0
  -22.2740   -4.2550   21.3650 F   0  0  0  0  0  0  0  0  0  0  0  0
  -21.3520   -3.7200   26.0190 F   0  0  0  0  0  0  0  0  0  0  0  0
  -22.7420  -13.5590   21.1450 C   0  0  0  0  0  0  0  0  0  0  0  0
  -22.0080  -12.8680   22.0090 N   0  0  0  0  0  0  0  0  0  0  0  0
  -22.3080  -14.5820   20.6150 O   0  0  0  0  0  0  0  0  0  0  0  0
  -22.3750  -12.0430   22.4580 H   0  0  0  0  0  0  0  0  0  0  0  0
  -21.0690  -13.1680   22.2290 H   0  0  0  0  0  0  0  0  0  0  0  0
  -25.3740  -15.2240   20.3370 N   0  0  0  0  0  0  0  0  0  0  0  0
  -24.5990  -15.8730   20.4190 H   0  0  0  0  0  0  0  0  0  0  0  0
  -26.2190  -15.6590   19.9930 H   0  0  0  0  0  0  0  0  0  0  0  0
  -29.7110  -24.8030   20.2350 C   0  0  0  0  0  2  0  0  0  0  0  0
  -28.3440  -25.3820   19.8660 C   0  0  0  0  0  2  0  0  0  0  0  0
  -28.3840  -26.7800   20.1210 O   0  0  0  0  0  0  0  0  0  0  0  0
  -24.5790  -31.8820   23.2330 C   0  0  0  0  0  0  0  0  0  0  0  0
  -27.1900  -27.4600   20.1210 C   0  0  0  0  0  0  0  0  0  0  0  0
  -23.3560  -30.4820   21.6000 C   0  0  0  0  0  3  0  0  0  0  0  0
  -24.7920  -28.9470   20.1630 C   0  0  0  0  0  0  0  0  0  0  0  0
  -25.8780  -30.8460   21.3780 C   0  0  0  0  0  2  0  0  0  0  0  0
  -25.9540  -29.4770   20.7390 C   0  0  0  0  0  0  0  0  0  0  0  0
  -27.1550  -28.7390   20.7140 C   0  0  0  0  0  3  0  0  0  0  0  0
  -26.0070  -26.9370   19.5470 C   0  0  0  0  0  3  0  0  0  0  0  0
  -24.8110  -27.6760   19.5700 C   0  0  0  0  0  3  0  0  0  0  0  0
  -23.5510  -29.8040   20.2190 C   0  0  0  0  0  2  0  0  0  0  0  0
  -24.6230  -31.0850   22.1280 N   0  0  0  0  0  0  0  0  0  0  0  0
  -23.5030  -32.1540   23.7830 O   0  0  0  0  0  0  0  0  0  0  0  0
  -22.7140  -29.4590   22.5640 C   0  0  0  0  0  0  0  0  0  0  0  0
  -21.3900  -29.2780   22.4440 N   0  0  0  0  0  0  0  0  0  0  0  0
  -23.4030  -28.8310   23.3720 O   0  0  0  0  0  0  0  0  0  0  0  0
  -20.8960  -29.8340   21.7600 H   0  0  0  0  0  0  0  0  0  0  0  0
  -18.0170  -28.0880   22.9520 C   0  0  0  0  0  0  0  0  0  0  0  0
  -20.5750  -28.3410   23.2180 C   0  0  0  0  0  3  0  0  0  0  0  0
  -20.6750  -26.9100   22.6410 C   0  0  0  0  0  2  0  0  0  0  0  0
  -19.5680  -26.5880   21.6320 C   0  0  0  0  0  2  0  0  0  0  0  0
  -18.1890  -26.7360   22.2800 C   0  0  0  0  0  2  0  0  0  0  0  0
  -19.1370  -28.8490   23.3790 C   0  0  0  0  0  0  0  0  0  0  0  0
  -18.9230  -30.1140   23.9660 C   0  0  0  0  0  3  0  0  0  0  0  0
  -17.6190  -30.6180   24.1330 C   0  0  0  0  0  3  0  0  0  0  0  0
  -16.5120  -29.8540   23.7240 C   0  0  0  0  0  3  0  0  0  0  0  0
  -16.7130  -28.5900   23.1400 C   0  0  0  0  0  3  0  0  0  0  0  0
  -25.8720  -32.5080   23.8420 C   0  0  0  0  0  3  0  0  0  0  0  0
  -25.5690  -33.9040   24.1800 N   0  0  0  0  0  0  0  0  0  0  0  0
  -25.8970  -34.9580   23.4200 C   0  0  0  0  0  0  0  0  0  0  0  0
  -26.5580  -34.8560   22.3820 O   0  0  0  0  0  0  0  0  0  0  0  0
  -24.9840  -34.0590   24.9870 H   0  0  0  0  0  0  0  0  0  0  0  0
  -24.1680  -36.7510   23.0820 C   0  0  0  0  0  1  0  0  0  0  0  0
  -25.4140  -36.3450   23.8840 C   0  0  0  0  0  3  0  0  0  0  0  0
  -27.5560  -37.2220   24.7010 C   0  0  0  0  0  1  0  0  0  0  0  0
  -26.4470  -37.3980   23.7680 N   0  0  0  0  0  0  0  0  0  0  0  0
  -26.0430  -38.3160   23.9250 H   0  0  0  0  0  0  0  0  0  0  0  0
  -26.4040  -31.7290   25.1060 C   0  0  1  0  0  0  0  0  0  0  0  0
  -25.3240  -31.4860   26.1860 C   0  0  0  0  0  1  0  0  0  0  0  0
  -26.9790  -30.3540   24.6940 C   0  0  0  0  0  1  0  0  0  0  0  0
  -27.5650  -32.5180   25.7570 C   0  0  0  0  0  1  0  0  0  0  0  0
  1  3  2  0
  1  5  1  0
  2  4  1  0
  3  6  1  0
  5  2  2  0
  6 48  1  0
  6  4  2  0
  7  5  1  0
  7  8  1  0
  8  9  1  0
  9 18  1  0
 10 18  1  0
 11 16  1  0
 12 13  1  0
 12 11  1  0
 14 13  1  0
 14 23  1  0
 14 15  1  0
 16 10  1  0
 16 15  1  0
 17 10  2  0
 18 19  1  0
 20 21  2  0
 21 40  1  0
 22 21  1  0
 22 25  1  0
 23 20  1  0
 23 24  1  0
 24 22  2  0
 25 26  1  0
 26 27  2  0
 28 31  1  0
 28 27  1  0
 29 28  2  0
 30 29  1  0
 30 25  2  0
 31 32  1  0
 32 33  1  0
 33 34  2  0
 35 34  1  0
 35 39  1  0
 36 35  2  0
 37 32  2  0
 37 36  1  0
 38 37  1  0
 40 41  1  0
 41 44  1  0
 41 43  1  0
 42 40  2  0
 45 46  1  0
 45 20  1  0
 47 45  1  0
 49 50  1  0
 49 48  1  0
 51 62  2  0
 52 50  1  0
 52 57  1  0
 53 61  1  0
 53 63  1  0
 54 60  1  0
 54 56  1  0
 55 61  1  0
 56 55  1  0
 57 56  2  0
 58 59  1  0
 58 52  2  0
 59 54  2  0
 60 53  1  0
 61 51  1  0
 63 65  2  0
 64 63  1  0
 66 64  1  0
 67 76  2  0
 67 72  1  0
 68 64  1  0
 68 72  1  0
 69 68  1  0
 70 71  1  0
 70 69  1  0
 71 67  1  0
 72 73  2  0
 73 74  1  0
 75 74  2  0
 76 75  1  0
 77 51  1  0
 77 78  1  0
 77 87  1  0
 78 81  1  0
 79 83  1  0
 79 78  1  0
 80 79  2  0
 83 82  1  0
 85 83  1  0
 85 86  1  0
 85 84  1  0
 87 90  1  1
 87 88  1  0
 89 87  1  0
M  ISO  4  10 100  18 100  49 101  50 101
M  END
>  <TORSDO>  (73) 
F 21

>  <SCORE>  (73) 
-13.383

>  <name>  (73) 
72

>  <ligand_id>  (73) 
72

>  <original_smiles>  (73) 
[H]c1c([H])c([H])c2c(c1[H])C([H])([H])C([H])([H])C([H])([H])C2([H])N([H])C(=O)C1([H])N(C(=O)C([H])(N([H])C(=O)C([H])(N([H])C([H])([H])[H])C([H])([H])[H])C(C([H])([H])[H])(C([H])([H])[H])C([H])([H])[H])C([H])([H])c2c([H])c(OC([H])([H])C([H])([H])c3c([H])c([H])c(C([H])([H])C([H])([H])C([H])([H])N([H])C(=O)N4C([H])([H])C([H])([H])C([H])([H])C([H])(n5nc(-c6c([H])c([H])c(Oc7c([H])c([H])c(F)c([H])c7F)c([H])c6[H])c(C(=O)N([H])[H])c5N([H])[H])C4([H])[H])c([H])c3[H])c([H])c([H])c2C1([H])[H]

>  <smiles>  (73) 
[H]c1c([H])c([H])c2c(c1[H])C([H])([H])C([H])([H])C([H])([H])C2([H])N([H])C(=O)C1([H])N(C(=O)C([H])(N([H])C(=O)C([H])(N([H])C([H])([H])[H])C([H])([H])[H])C(C([H])([H])[H])(C([H])([H])[H])C([H])([H])[H])C([H])([H])c2c([H])c(OC([H])([H])C([H])([H])c3c([H])c([H])c(C([H])([H])C([H])([H])C([H])([H])N([H])C(=O)N4C([H])([H])C([H])([H])C([H])([H])C([H])(n5nc(-c6c([H])c([H])c(Oc7c([H])c([H])c(F)c([H])c7F)c([H])c6[H])c(C(=O)N([H])[H])c5N([H])[H])C4([H])[H])c([H])c3[H])c([H])c([H])c2C1([H])[H]

$$$$
73:0:0
     RDKit          3D

 88 96  0  0  1  0  0  0  0  0999 V2000
  -29.5350  -21.4420   20.0560 C   0  0  0  0  0  0  0  0  0  0  0  0
  -30.6030  -21.7390   19.5130 O   0  0  0  0  0  0  0  0  0  0  0  0
  -29.2310  -19.7230   20.0990 C   0  0  0  0  0  2  0  0  0  0  0  0
  -30.6130  -15.3450   20.0490 C   0  0  0  0  0  0  0  0  0  0  0  0
  -30.3620  -12.9710   19.0570 C   0  0  0  0  0  2  0  0  0  0  0  0
  -29.3820  -12.7660   17.8790 C   0  0  0  0  0  2  0  0  0  0  0  0
  -27.9390  -12.5390   18.3620 C   0  0  0  0  0  2  0  0  0  0  0  0
  -27.5580  -13.4450   19.5630 C   0  0  0  0  0  3  0  0  0  0  0  0
  -28.6900  -13.6220   20.6070 C   0  0  0  0  0  2  0  0  0  0  0  0
  -29.8740  -14.1350   19.8800 N   0  0  0  0  0  0  0  0  0  0  0  0
  -31.8320  -15.1320   20.0090 O   0  0  0  0  0  0  0  0  0  0  0  0
  -32.0670  -18.0710   18.9300 C   0  0  0  0  0  2  0  0  0  0  0  0
  -30.8500  -17.1870   18.5280 C   0  0  0  0  0  2  0  0  0  0  0  0
  -31.7100  -18.6640   20.2940 C   0  0  0  0  0  3  0  0  0  0  0  0
  -30.2200  -18.2660   20.4610 C   0  0  0  0  0  3  0  0  0  0  0  0
  -32.6740  -18.2620   21.4450 C   0  0  0  0  0  1  0  0  0  0  0  0
  -30.1470  -16.7430   19.7680 N   0  0  0  0  0  0  0  0  0  0  0  0
  -25.2120  -13.9340   20.4590 C   0  0  0  0  0  0  0  0  0  0  0  0
  -24.1810  -13.1330   20.8540 C   0  0  0  0  0  0  0  0  0  0  0  0
  -24.6660  -11.7870   20.7730 C   0  0  0  0  0  0  0  0  0  0  0  0
  -26.2610  -13.0860   20.1450 N   0  0  0  0  0  0  0  0  0  0  0  0
  -25.9450  -11.7870   20.4000 N   0  0  0  0  0  0  0  0  0  0  0  0
  -23.9600  -10.5160   20.9750 C   0  0  0  0  0  0  0  0  0  0  0  0
  -24.4140   -9.5540   21.9020 C   0  0  0  0  0  3  0  0  0  0  0  0
  -23.7100   -8.3460   22.0920 C   0  0  0  0  0  3  0  0  0  0  0  0
  -22.5290   -8.0890   21.3570 C   0  0  0  0  0  0  0  0  0  0  0  0
  -22.0890   -9.0380   20.4170 C   0  0  0  0  0  3  0  0  0  0  0  0
  -22.7970  -10.2370   20.2260 C   0  0  0  0  0  3  0  0  0  0  0  0
  -21.7920   -6.9320   21.4590 O   0  0  0  0  0  0  0  0  0  0  0  0
  -21.7500   -6.2020   22.6220 C   0  0  0  0  0  0  0  0  0  0  0  0
  -21.2950   -6.7600   23.8370 C   0  0  0  0  0  3  0  0  0  0  0  0
  -21.2030   -5.9560   24.9900 C   0  0  0  0  0  3  0  0  0  0  0  0
  -21.5570   -4.5950   24.9310 C   0  0  0  0  0  0  0  0  0  0  0  0
  -22.0030   -4.0340   23.7220 C   0  0  0  0  0  3  0  0  0  0  0  0
  -22.1010   -4.8360   22.5710 C   0  0  0  0  0  0  0  0  0  0  0  0
  -22.5140   -4.2870   21.4030 F   0  0  0  0  0  0  0  0  0  0  0  0
  -21.4640   -3.8210   26.0380 F   0  0  0  0  0  0  0  0  0  0  0  0
  -22.7860  -13.5790   21.1890 C   0  0  0  0  0  0  0  0  0  0  0  0
  -22.0910  -12.8620   22.0610 N   0  0  0  0  0  0  0  0  0  0  0  0
  -22.3170  -14.6070   20.7000 O   0  0  0  0  0  0  0  0  0  0  0  0
  -22.4700  -12.0290   22.4880 H   0  0  0  0  0  0  0  0  0  0  0  0
  -21.1560  -13.1590   22.3130 H   0  0  0  0  0  0  0  0  0  0  0  0
  -25.3450  -15.3140   20.3080 N   0  0  0  0  0  0  0  0  0  0  0  0
  -24.5710  -15.9430   20.4930 H   0  0  0  0  0  0  0  0  0  0  0  0
  -26.1700  -15.7880   19.9590 H   0  0  0  0  0  0  0  0  0  0  0  0
  -28.6450  -22.8390   20.5860 C   0  0  0  0  0  2  0  0  0  0  0  0
  -28.3880  -24.4660   19.8740 C   0  0  0  0  0  2  0  0  0  0  0  0
  -28.2310  -26.0190   20.3890 O   0  0  0  0  0  0  0  0  0  0  0  0
  -24.5890  -31.9160   23.2360 C   0  0  0  0  0  0  0  0  0  0  0  0
  -27.1870  -27.0720   20.2350 C   0  0  0  0  0  0  0  0  0  0  0  0
  -23.3960  -30.5250   21.5770 C   0  0  0  0  0  3  0  0  0  0  0  0
  -24.8660  -28.9260   20.1560 C   0  0  0  0  0  0  0  0  0  0  0  0
  -25.9590  -30.7440   21.4470 C   0  0  0  0  0  2  0  0  0  0  0  0
  -26.0390  -29.3360   20.8010 C   0  0  0  0  0  0  0  0  0  0  0  0
  -27.1860  -28.4270   20.8280 C   0  0  0  0  0  3  0  0  0  0  0  0
  -25.9920  -26.8130   19.5190 C   0  0  0  0  0  3  0  0  0  0  0  0
  -24.8660  -27.6840   19.4930 C   0  0  0  0  0  3  0  0  0  0  0  0
  -23.6480  -29.8510   20.1950 C   0  0  0  0  0  2  0  0  0  0  0  0
  -24.6650  -31.0890   22.1430 N   0  0  0  0  0  0  0  0  0  0  0  0
  -23.5030  -32.1990   23.7630 O   0  0  0  0  0  0  0  0  0  0  0  0
  -22.7000  -29.5280   22.5390 C   0  0  0  0  0  0  0  0  0  0  0  0
  -21.3710  -29.3500   22.3980 N   0  0  0  0  0  0  0  0  0  0  0  0
  -23.3560  -28.9290   23.3920 O   0  0  0  0  0  0  0  0  0  0  0  0
  -20.9060  -29.8560   21.6580 H   0  0  0  0  0  0  0  0  0  0  0  0
  -17.9750  -28.1800   22.9290 C   0  0  0  0  0  0  0  0  0  0  0  0
  -20.5390  -28.4270   23.1800 C   0  0  0  0  0  3  0  0  0  0  0  0
  -20.6140  -26.9880   22.6170 C   0  0  0  0  0  2  0  0  0  0  0  0
  -19.5020  -26.6570   21.6210 C   0  0  0  0  0  2  0  0  0  0  0  0
  -18.1350  -26.8170   22.2800 C   0  0  0  0  0  2  0  0  0  0  0  0
  -19.1000  -28.9370   23.3480 C   0  0  0  0  0  0  0  0  0  0  0  0
  -18.8940  -30.1970   23.9480 C   0  0  0  0  0  3  0  0  0  0  0  0
  -17.5920  -30.6950   24.1450 C   0  0  0  0  0  3  0  0  0  0  0  0
  -16.4800  -29.9440   23.7230 C   0  0  0  0  0  3  0  0  0  0  0  0
  -16.6700  -28.6940   23.1080 C   0  0  0  0  0  3  0  0  0  0  0  0
  -25.8650  -32.5570   23.8690 C   0  0  0  0  0  3  0  0  0  0  0  0
  -26.3630  -31.8000   25.1620 C   0  0  1  0  0  0  0  0  0  0  0  0
  -25.2640  -31.5780   26.2250 C   0  0  0  0  0  1  0  0  0  0  0  0
  -26.9350  -30.4120   24.8000 C   0  0  0  0  0  1  0  0  0  0  0  0
  -27.5160  -32.5910   25.8250 C   0  0  0  0  0  1  0  0  0  0  0  0
  -25.5620  -33.9630   24.1880 N   0  0  0  0  0  0  0  0  0  0  0  0
  -25.9010  -35.0160   23.4280 C   0  0  0  0  0  0  0  0  0  0  0  0
  -26.5670  -34.9020   22.3960 O   0  0  0  0  0  0  0  0  0  0  0  0
  -24.9890  -34.1270   25.0020 H   0  0  0  0  0  0  0  0  0  0  0  0
  -24.1900  -36.8300   23.0730 C   0  0  0  0  0  1  0  0  0  0  0  0
  -25.4290  -36.4120   23.8840 C   0  0  0  0  0  3  0  0  0  0  0  0
  -27.5690  -37.2890   24.7120 C   0  0  0  0  0  1  0  0  0  0  0  0
  -26.4700  -37.4580   23.7670 N   0  0  0  0  0  0  0  0  0  0  0  0
  -26.0660  -38.3800   23.9110 H   0  0  0  0  0  0  0  0  0  0  0  0
  1  3  1  0
  1 46  1  0
  2  1  2  0
  5 10  1  0
  6  7  1  0
  6  5  1  0
  8  7  1  0
  8 21  1  0
  8  9  1  0
 10  4  1  0
 10  9  1  0
 11  4  2  0
 12 14  1  0
 13 12  1  0
 13 17  1  0
 14 15  1  0
 14 16  1  0
 15  3  1  0
 17  4  1  0
 17 15  1  0
 18 19  2  0
 19 38  1  0
 20 19  1  0
 20 23  1  0
 21 22  1  0
 21 18  1  0
 22 20  2  0
 23 24  1  0
 24 25  2  0
 26 29  1  0
 26 25  1  0
 27 26  2  0
 28 27  1  0
 28 23  2  0
 29 30  1  0
 30 31  1  0
 31 32  2  0
 33 32  1  0
 33 37  1  0
 34 33  2  0
 35 30  2  0
 35 34  1  0
 36 35  1  0
 38 39  1  0
 39 42  1  0
 39 41  1  0
 40 38  2  0
 43 18  1  0
 43 44  1  0
 45 43  1  0
 47 48  1  0
 47 46  1  0
 49 60  2  0
 50 48  1  0
 50 55  1  0
 51 59  1  0
 51 61  1  0
 52 58  1  0
 52 54  1  0
 53 59  1  0
 54 55  2  0
 54 53  1  0
 56 50  2  0
 57 56  1  0
 57 52  2  0
 58 51  1  0
 59 49  1  0
 61 63  2  0
 62 61  1  0
 64 62  1  0
 65 74  2  0
 65 70  1  0
 66 62  1  0
 66 70  1  0
 67 66  1  0
 68 69  1  0
 68 67  1  0
 69 65  1  0
 70 71  2  0
 71 72  1  0
 73 72  2  0
 74 73  1  0
 75 49  1  0
 75 80  1  0
 75 76  1  0
 76 79  1  1
 76 77  1  0
 78 76  1  0
 80 83  1  0
 81 85  1  0
 81 80  1  0
 82 81  2  0
 85 84  1  0
 87 85  1  0
 87 88  1  0
 87 86  1  0
M  ISO  4   4 100  17 100  47 101  48 101
M  END
>  <TORSDO>  (74) 
F 19

>  <SCORE>  (74) 
-15.768

>  <name>  (74) 
73

>  <ligand_id>  (74) 
73

>  <original_smiles>  (74) 
[H]c1c([H])c([H])c2c(c1[H])C([H])([H])C([H])([H])C([H])([H])C2([H])N([H])C(=O)C1([H])N(C(=O)C([H])(N([H])C(=O)C([H])(N([H])C([H])([H])[H])C([H])([H])[H])C(C([H])([H])[H])(C([H])([H])[H])C([H])([H])[H])C([H])([H])c2c([H])c(OC([H])([H])C([H])([H])C(=O)C([H])([H])C3([H])N(C(=O)N4C([H])([H])C([H])([H])C([H])([H])C([H])(n5nc(-c6c([H])c([H])c(Oc7c([H])c([H])c(F)c([H])c7F)c([H])c6[H])c(C(=O)N([H])[H])c5N([H])[H])C4([H])[H])C([H])([H])C([H])([H])C3([H])C([H])([H])[H])c([H])c([H])c2C1([H])[H]

>  <smiles>  (74) 
[H]c1c([H])c([H])c2c(c1[H])C([H])([H])C([H])([H])C([H])([H])C2([H])N([H])C(=O)C1([H])N(C(=O)C([H])(N([H])C(=O)C([H])(N([H])C([H])([H])[H])C([H])([H])[H])C(C([H])([H])[H])(C([H])([H])[H])C([H])([H])[H])C([H])([H])c2c([H])c(OC([H])([H])C([H])([H])C(=O)C([H])([H])C3([H])N(C(=O)N4C([H])([H])C([H])([H])C([H])([H])C([H])(n5nc(-c6c([H])c([H])c(Oc7c([H])c([H])c(F)c([H])c7F)c([H])c6[H])c(C(=O)N([H])[H])c5N([H])[H])C4([H])[H])C([H])([H])C([H])([H])C3([H])C([H])([H])[H])c([H])c([H])c2C1([H])[H]

$$$$
74:0:0
     RDKit          3D

 89 97  0  0  1  0  0  0  0  0999 V2000
  -28.8640  -21.3090   20.6080 C   0  0  0  0  0  0  0  0  0  0  0  0
  -28.3290  -21.1780   21.7100 O   0  0  0  0  0  0  0  0  0  0  0  0
  -30.4680  -15.4310   20.1780 C   0  0  0  0  0  0  0  0  0  0  0  0
  -30.4340  -12.9990   19.2840 C   0  0  0  0  0  2  0  0  0  0  0  0
  -29.4860  -12.7720   18.0800 C   0  0  0  0  0  2  0  0  0  0  0  0
  -28.0510  -12.4830   18.5590 C   0  0  0  0  0  2  0  0  0  0  0  0
  -27.6070  -13.4400   19.6910 C   0  0  0  0  0  3  0  0  0  0  0  0
  -28.6840  -13.6220   20.7810 C   0  0  0  0  0  2  0  0  0  0  0  0
  -29.8880  -14.1340   20.1030 N   0  0  0  0  0  0  0  0  0  0  0  0
  -31.7060  -15.4100   20.1090 O   0  0  0  0  0  0  0  0  0  0  0  0
  -28.8230  -18.0250   18.1560 C   0  0  0  0  0  0  0  0  0  0  0  0
  -28.6900  -16.7770   19.0450 C   0  0  0  0  0  2  0  0  0  0  0  0
  -29.8760  -18.2640   20.6730 C   0  0  0  0  0  2  0  0  0  0  0  0
  -28.4060  -19.3810   18.7710 C   0  0  0  0  0  3  0  0  0  0  0  0
  -29.3950  -19.8010   19.9000 C   0  0  0  0  0  3  0  0  0  0  0  0
  -28.1980  -20.4500   17.6730 C   0  0  0  0  0  1  0  0  0  0  0  0
  -29.7130  -16.7150   20.1080 N   0  0  0  0  0  0  0  0  0  0  0  0
  -29.2740  -17.9360   17.0100 O   0  0  0  0  0  0  0  0  0  0  0  0
  -25.2530  -13.9880   20.5010 C   0  0  0  0  0  0  0  0  0  0  0  0
  -24.2000  -13.2020   20.8730 C   0  0  0  0  0  0  0  0  0  0  0  0
  -24.6760  -11.8560   20.8220 C   0  0  0  0  0  0  0  0  0  0  0  0
  -26.2950  -13.1180   20.2310 N   0  0  0  0  0  0  0  0  0  0  0  0
  -25.9630  -11.8310   20.4940 N   0  0  0  0  0  0  0  0  0  0  0  0
  -23.9610  -10.5880   21.0070 C   0  0  0  0  0  0  0  0  0  0  0  0
  -24.4020   -9.6210   21.9380 C   0  0  0  0  0  3  0  0  0  0  0  0
  -23.6840   -8.4180   22.1120 C   0  0  0  0  0  3  0  0  0  0  0  0
  -22.5120   -8.1750   21.3570 C   0  0  0  0  0  0  0  0  0  0  0  0
  -22.0920   -9.1310   20.4160 C   0  0  0  0  0  3  0  0  0  0  0  0
  -22.8100  -10.3250   20.2390 C   0  0  0  0  0  3  0  0  0  0  0  0
  -21.7660   -7.0250   21.4420 O   0  0  0  0  0  0  0  0  0  0  0  0
  -21.7120   -6.2860   22.5970 C   0  0  0  0  0  0  0  0  0  0  0  0
  -21.2610   -6.8400   23.8150 C   0  0  0  0  0  3  0  0  0  0  0  0
  -21.1560   -6.0260   24.9610 C   0  0  0  0  0  3  0  0  0  0  0  0
  -21.4930   -4.6610   24.8900 C   0  0  0  0  0  0  0  0  0  0  0  0
  -21.9390   -4.1080   23.6770 C   0  0  0  0  0  3  0  0  0  0  0  0
  -22.0460   -4.9180   22.5320 C   0  0  0  0  0  0  0  0  0  0  0  0
  -22.4550   -4.3760   21.3610 F   0  0  0  0  0  0  0  0  0  0  0  0
  -21.3840   -3.8780   25.9880 F   0  0  0  0  0  0  0  0  0  0  0  0
  -22.8040  -13.6690   21.1610 C   0  0  0  0  0  0  0  0  0  0  0  0
  -22.0850  -12.9580   22.0210 N   0  0  0  0  0  0  0  0  0  0  0  0
  -22.3600  -14.7010   20.6590 O   0  0  0  0  0  0  0  0  0  0  0  0
  -22.4590  -12.1240   22.4500 H   0  0  0  0  0  0  0  0  0  0  0  0
  -21.1480  -13.2530   22.2580 H   0  0  0  0  0  0  0  0  0  0  0  0
  -25.4020  -15.3620   20.3420 N   0  0  0  0  0  0  0  0  0  0  0  0
  -24.6320  -16.0060   20.4950 H   0  0  0  0  0  0  0  0  0  0  0  0
  -26.2560  -15.8220   20.0640 H   0  0  0  0  0  0  0  0  0  0  0  0
  -28.9530  -22.9620   20.0540 C   0  0  0  0  0  3  0  0  0  0  0  0
  -28.0280  -24.4390   20.4750 C   0  0  0  0  0  3  0  0  0  0  0  0
  -28.2480  -26.0580   20.2980 O   0  0  0  0  0  0  0  0  0  0  0  0
  -24.6160  -31.9800   23.2520 C   0  0  0  0  0  0  0  0  0  0  0  0
  -27.2080  -27.1200   20.2750 C   0  0  0  0  0  0  0  0  0  0  0  0
  -23.4310  -30.5660   21.6220 C   0  0  0  0  0  3  0  0  0  0  0  0
  -24.8900  -28.9630   20.2160 C   0  0  0  0  0  0  0  0  0  0  0  0
  -25.9940  -30.8000   21.4730 C   0  0  0  0  0  2  0  0  0  0  0  0
  -26.0750  -29.3880   20.8300 C   0  0  0  0  0  0  0  0  0  0  0  0
  -27.2310  -28.4890   20.8300 C   0  0  0  0  0  3  0  0  0  0  0  0
  -25.9900  -26.8370   19.6190 C   0  0  0  0  0  3  0  0  0  0  0  0
  -24.8700  -27.7070   19.5910 C   0  0  0  0  0  3  0  0  0  0  0  0
  -23.6660  -29.8750   20.2520 C   0  0  0  0  0  2  0  0  0  0  0  0
  -24.7020  -31.1420   22.1700 N   0  0  0  0  0  0  0  0  0  0  0  0
  -23.5250  -32.2670   23.7720 O   0  0  0  0  0  0  0  0  0  0  0  0
  -22.7430  -29.5720   22.5940 C   0  0  0  0  0  0  0  0  0  0  0  0
  -21.4140  -29.3960   22.4660 N   0  0  0  0  0  0  0  0  0  0  0  0
  -23.4110  -28.9590   23.4300 O   0  0  0  0  0  0  0  0  0  0  0  0
  -20.9280  -29.9420   21.7680 H   0  0  0  0  0  0  0  0  0  0  0  0
  -18.0410  -28.1630   22.9710 C   0  0  0  0  0  0  0  0  0  0  0  0
  -20.5970  -28.4590   23.2430 C   0  0  0  0  0  3  0  0  0  0  0  0
  -20.7160  -27.0210   22.6850 C   0  0  0  0  0  2  0  0  0  0  0  0
  -19.6210  -26.6760   21.6690 C   0  0  0  0  0  2  0  0  0  0  0  0
  -18.2360  -26.8110   22.3060 C   0  0  0  0  0  2  0  0  0  0  0  0
  -19.1490  -28.9440   23.3970 C   0  0  0  0  0  0  0  0  0  0  0  0
  -18.9110  -30.2060   23.9820 C   0  0  0  0  0  3  0  0  0  0  0  0
  -17.5980  -30.6890   24.1440 C   0  0  0  0  0  3  0  0  0  0  0  0
  -16.5060  -29.9070   23.7310 C   0  0  0  0  0  3  0  0  0  0  0  0
  -16.7270  -28.6460   23.1520 C   0  0  0  0  0  3  0  0  0  0  0  0
  -25.8830  -32.6340   23.8820 C   0  0  0  0  0  3  0  0  0  0  0  0
  -25.5620  -34.0370   24.1920 N   0  0  0  0  0  0  0  0  0  0  0  0
  -25.9040  -35.0890   23.4350 C   0  0  0  0  0  0  0  0  0  0  0  0
  -26.5830  -34.9790   22.4120 O   0  0  0  0  0  0  0  0  0  0  0  0
  -24.9570  -34.1960   24.9840 H   0  0  0  0  0  0  0  0  0  0  0  0
  -24.1850  -36.8920   23.0550 C   0  0  0  0  0  1  0  0  0  0  0  0
  -25.4150  -36.4830   23.8810 C   0  0  0  0  0  3  0  0  0  0  0  0
  -27.5410  -37.3710   24.7350 C   0  0  0  0  0  1  0  0  0  0  0  0
  -26.4520  -37.5330   23.7750 N   0  0  0  0  0  0  0  0  0  0  0  0
  -26.0460  -38.4550   23.9100 H   0  0  0  0  0  0  0  0  0  0  0  0
  -26.3830  -31.8910   25.1820 C   0  0  1  0  0  0  0  0  0  0  0  0
  -25.2750  -31.6740   26.2400 C   0  0  0  0  0  1  0  0  0  0  0  0
  -26.9730  -30.5050   24.8350 C   0  0  0  0  0  1  0  0  0  0  0  0
  -27.5240  -32.6990   25.8440 C   0  0  0  0  0  1  0  0  0  0  0  0
  1  2  2  0
  4  9  1  0
  5  6  1  0
  5  4  1  0
  7  6  1  0
  7 22  1  0
  7  8  1  0
  9  3  1  0
  9  8  1  0
 10  3  2  0
 11 14  1  0
 11 12  1  0
 12 17  1  0
 14 16  1  0
 14 15  1  0
 15  1  1  0
 15 13  1  0
 17  3  1  0
 17 13  1  0
 18 11  2  0
 19 20  2  0
 20 39  1  0
 21 20  1  0
 21 24  1  0
 22 23  1  0
 22 19  1  0
 23 21  2  0
 24 25  1  0
 25 26  2  0
 27 30  1  0
 27 26  1  0
 28 27  2  0
 29 28  1  0
 29 24  2  0
 30 31  1  0
 31 32  1  0
 32 33  2  0
 34 33  1  0
 34 38  1  0
 35 34  2  0
 36 31  2  0
 36 35  1  0
 37 36  1  0
 39 40  1  0
 40 43  1  0
 40 42  1  0
 41 39  2  0
 44 45  1  0
 44 19  1  0
 46 44  1  0
 47 48  2  0
 47  1  1  0
 49 48  1  0
 50 61  2  0
 51 49  1  0
 51 56  1  0
 52 60  1  0
 52 62  1  0
 53 59  1  0
 53 55  1  0
 54 60  1  0
 55 54  1  0
 56 55  2  0
 57 51  2  0
 58 57  1  0
 58 53  2  0
 59 52  1  0
 60 50  1  0
 62 64  2  0
 63 62  1  0
 65 63  1  0
 66 75  2  0
 66 71  1  0
 67 63  1  0
 67 71  1  0
 68 67  1  0
 69 70  1  0
 69 68  1  0
 70 66  1  0
 71 72  2  0
 72 73  1  0
 74 73  2  0
 75 74  1  0
 76 50  1  0
 76 77  1  0
 76 86  1  0
 77 80  1  0
 78 82  1  0
 78 77  1  0
 79 78  2  0
 82 81  1  0
 84 82  1  0
 84 85  1  0
 84 83  1  0
 86 89  1  1
 86 87  1  0
 88 86  1  0
M  ISO  4   3 100  17 100  48 101  49 101
M  END
>  <TORSDO>  (75) 
F 18

>  <SCORE>  (75) 
-16.052

>  <name>  (75) 
74

>  <ligand_id>  (75) 
74

>  <original_smiles>  (75) 
[H]c1c([H])c([H])c2c(c1[H])C([H])([H])C([H])([H])C([H])([H])C2([H])N([H])C(=O)C1([H])N(C(=O)C([H])(N([H])C(=O)C([H])(N([H])C([H])([H])[H])C([H])([H])[H])C(C([H])([H])[H])(C([H])([H])[H])C([H])([H])[H])C([H])([H])c2c([H])c(OC([H])([H])C([H])([H])C(=O)C3([H])C([H])([H])N(C(=O)N4C([H])([H])C([H])([H])C([H])([H])C([H])(n5nc(-c6c([H])c([H])c(Oc7c([H])c([H])c(F)c([H])c7F)c([H])c6[H])c(C(=O)N([H])[H])c5N([H])[H])C4([H])[H])C([H])([H])C(=O)C3([H])C([H])([H])[H])c([H])c([H])c2C1([H])[H]

>  <smiles>  (75) 
[H]c1c([H])c([H])c2c(c1[H])C([H])([H])C([H])([H])C([H])([H])C2([H])N([H])C(=O)C1([H])N(C(=O)C([H])(N([H])C(=O)C([H])(N([H])C([H])([H])[H])C([H])([H])[H])C(C([H])([H])[H])(C([H])([H])[H])C([H])([H])[H])C([H])([H])c2c([H])c(OC([H])([H])C([H])([H])C(=O)C3([H])C([H])([H])N(C(=O)N4C([H])([H])C([H])([H])C([H])([H])C([H])(n5nc(-c6c([H])c([H])c(Oc7c([H])c([H])c(F)c([H])c7F)c([H])c6[H])c(C(=O)N([H])[H])c5N([H])[H])C4([H])[H])C([H])([H])C(=O)C3([H])C([H])([H])[H])c([H])c([H])c2C1([H])[H]

$$$$
75:0:0
     RDKit          3D

 88 96  0  0  1  0  0  0  0  0999 V2000
  -27.5680  -22.9110   20.7270 C   0  0  0  0  0  2  0  0  0  0  0  0
  -28.7340  -22.3530   19.9480 C   0  0  0  0  0  3  0  0  0  0  0  0
  -28.7250  -23.8550   20.4780 C   0  0  0  0  0  3  0  0  0  0  0  0
  -29.5220  -21.0990   20.5150 C   0  0  0  0  0  3  0  0  0  0  0  0
  -29.0050  -19.6260   20.1330 C   0  0  0  0  0  3  0  0  0  0  0  0
  -29.7240  -18.3380   20.7230 C   0  0  0  0  0  0  0  0  0  0  0  0
  -30.4480  -18.4350   21.7160 O   0  0  0  0  0  0  0  0  0  0  0  0
  -29.4780  -16.9040   20.0990 C   0  0  0  0  0  2  0  0  0  0  0  0
  -30.6760  -14.6470   20.4040 C   0  0  0  0  0  0  0  0  0  0  0  0
  -30.4040  -12.4280   19.3010 C   0  0  0  0  0  2  0  0  0  0  0  0
  -29.4540  -12.5480   18.0900 C   0  0  0  0  0  2  0  0  0  0  0  0
  -27.9850  -12.4110   18.5310 C   0  0  0  0  0  2  0  0  0  0  0  0
  -27.6430  -13.2790   19.7690 C   0  0  0  0  0  3  0  0  0  0  0  0
  -28.7020  -13.1390   20.8860 C   0  0  0  0  0  2  0  0  0  0  0  0
  -30.0080  -13.4570   20.2920 N   0  0  0  0  0  0  0  0  0  0  0  0
  -31.8240  -14.7720   19.9790 O   0  0  0  0  0  0  0  0  0  0  0  0
  -30.0120  -15.7380   20.8960 N   0  0  0  0  0  0  0  0  0  0  0  0
  -30.5650  -16.1350   21.6460 H   0  0  0  0  0  0  0  0  0  0  0  0
  -25.2460  -13.8850   20.4480 C   0  0  0  0  0  0  0  0  0  0  0  0
  -24.1730  -13.1170   20.8150 C   0  0  0  0  0  0  0  0  0  0  0  0
  -24.6340  -11.7650   20.8050 C   0  0  0  0  0  0  0  0  0  0  0  0
  -26.2910  -13.0000   20.2450 N   0  0  0  0  0  0  0  0  0  0  0  0
  -25.9300  -11.7190   20.5220 N   0  0  0  0  0  0  0  0  0  0  0  0
  -23.9010  -10.5070   21.0020 C   0  0  0  0  0  0  0  0  0  0  0  0
  -24.3210   -9.5450   21.9470 C   0  0  0  0  0  3  0  0  0  0  0  0
  -23.5900   -8.3500   22.1300 C   0  0  0  0  0  3  0  0  0  0  0  0
  -22.4230   -8.1100   21.3670 C   0  0  0  0  0  0  0  0  0  0  0  0
  -22.0210   -9.0590   20.4080 C   0  0  0  0  0  3  0  0  0  0  0  0
  -22.7550  -10.2450   20.2260 C   0  0  0  0  0  3  0  0  0  0  0  0
  -21.6650   -6.9660   21.4560 O   0  0  0  0  0  0  0  0  0  0  0  0
  -21.6020   -6.2330   22.6150 C   0  0  0  0  0  0  0  0  0  0  0  0
  -21.1710   -6.8020   23.8340 C   0  0  0  0  0  3  0  0  0  0  0  0
  -21.0570   -5.9970   24.9840 C   0  0  0  0  0  3  0  0  0  0  0  0
  -21.3620   -4.6240   24.9180 C   0  0  0  0  0  0  0  0  0  0  0  0
  -21.7890   -4.0560   23.7050 C   0  0  0  0  0  3  0  0  0  0  0  0
  -21.9070   -4.8570   22.5560 C   0  0  0  0  0  0  0  0  0  0  0  0
  -22.2940   -4.3030   21.3830 F   0  0  0  0  0  0  0  0  0  0  0  0
  -21.2460   -3.8490   26.0200 F   0  0  0  0  0  0  0  0  0  0  0  0
  -22.7750  -13.6010   21.0590 C   0  0  0  0  0  0  0  0  0  0  0  0
  -22.0300  -12.9210   21.9260 N   0  0  0  0  0  0  0  0  0  0  0  0
  -22.3500  -14.6240   20.5260 O   0  0  0  0  0  0  0  0  0  0  0  0
  -22.3740  -12.0840   22.3710 H   0  0  0  0  0  0  0  0  0  0  0  0
  -21.1000  -13.2490   22.1470 H   0  0  0  0  0  0  0  0  0  0  0  0
  -25.4180  -15.2490   20.2480 N   0  0  0  0  0  0  0  0  0  0  0  0
  -24.6510  -15.9100   20.3280 H   0  0  0  0  0  0  0  0  0  0  0  0
  -26.2620  -15.6660   19.8750 H   0  0  0  0  0  0  0  0  0  0  0  0
  -28.4830  -25.1600   19.6050 C   0  0  0  0  0  2  0  0  0  0  0  0
  -28.3600  -26.5080   20.2260 O   0  0  0  0  0  0  0  0  0  0  0  0
  -24.5960  -31.8810   23.2330 C   0  0  0  0  0  0  0  0  0  0  0  0
  -27.2070  -27.3160   20.1600 C   0  0  0  0  0  0  0  0  0  0  0  0
  -23.3850  -30.4850   21.5940 C   0  0  0  0  0  3  0  0  0  0  0  0
  -24.8320  -28.9360   20.1550 C   0  0  0  0  0  0  0  0  0  0  0  0
  -25.9260  -30.7970   21.4090 C   0  0  0  0  0  2  0  0  0  0  0  0
  -26.0010  -29.4200   20.7560 C   0  0  0  0  0  0  0  0  0  0  0  0
  -27.1830  -28.6200   20.7530 C   0  0  0  0  0  3  0  0  0  0  0  0
  -26.0090  -26.8840   19.5420 C   0  0  0  0  0  3  0  0  0  0  0  0
  -24.8440  -27.6750   19.5380 C   0  0  0  0  0  3  0  0  0  0  0  0
  -23.5960  -29.8140   20.2100 C   0  0  0  0  0  2  0  0  0  0  0  0
  -24.6540  -31.0710   22.1350 N   0  0  0  0  0  0  0  0  0  0  0  0
  -23.5160  -32.1600   23.7710 O   0  0  0  0  0  0  0  0  0  0  0  0
  -22.7250  -29.4670   22.5550 C   0  0  0  0  0  0  0  0  0  0  0  0
  -21.4000  -29.2900   22.4360 N   0  0  0  0  0  0  0  0  0  0  0  0
  -23.4070  -28.8410   23.3730 O   0  0  0  0  0  0  0  0  0  0  0  0
  -20.9050  -29.8450   21.7520 H   0  0  0  0  0  0  0  0  0  0  0  0
  -18.0270  -28.0900   22.9480 C   0  0  0  0  0  0  0  0  0  0  0  0
  -20.5870  -28.3550   23.2140 C   0  0  0  0  0  3  0  0  0  0  0  0
  -20.6900  -26.9210   22.6410 C   0  0  0  0  0  2  0  0  0  0  0  0
  -19.5860  -26.5940   21.6300 C   0  0  0  0  0  2  0  0  0  0  0  0
  -18.2050  -26.7400   22.2750 C   0  0  0  0  0  2  0  0  0  0  0  0
  -19.1450  -28.8540   23.3760 C   0  0  0  0  0  0  0  0  0  0  0  0
  -18.9240  -30.1170   23.9670 C   0  0  0  0  0  3  0  0  0  0  0  0
  -17.6190  -30.6160   24.1330 C   0  0  0  0  0  3  0  0  0  0  0  0
  -16.5150  -29.8490   23.7200 C   0  0  0  0  0  3  0  0  0  0  0  0
  -16.7200  -28.5880   23.1320 C   0  0  0  0  0  3  0  0  0  0  0  0
  -25.8830  -32.5090   23.8480 C   0  0  0  0  0  3  0  0  0  0  0  0
  -25.5790  -33.9070   24.1850 N   0  0  0  0  0  0  0  0  0  0  0  0
  -25.9050  -34.9620   23.4250 C   0  0  0  0  0  0  0  0  0  0  0  0
  -26.5650  -34.8600   22.3880 O   0  0  0  0  0  0  0  0  0  0  0  0
  -24.9960  -34.0620   24.9940 H   0  0  0  0  0  0  0  0  0  0  0  0
  -24.1750  -36.7560   23.0860 C   0  0  0  0  0  1  0  0  0  0  0  0
  -25.4210  -36.3490   23.8890 C   0  0  0  0  0  3  0  0  0  0  0  0
  -27.5580  -37.2330   24.7100 C   0  0  0  0  0  1  0  0  0  0  0  0
  -26.4530  -37.4010   23.7710 N   0  0  0  0  0  0  0  0  0  0  0  0
  -26.0470  -38.3220   23.9210 H   0  0  0  0  0  0  0  0  0  0  0  0
  -26.4060  -31.7330   25.1190 C   0  0  1  0  0  0  0  0  0  0  0  0
  -25.3160  -31.4900   26.1860 C   0  0  0  0  0  1  0  0  0  0  0  0
  -26.9870  -30.3550   24.7240 C   0  0  0  0  0  1  0  0  0  0  0  0
  -27.5670  -32.5210   25.7730 C   0  0  0  0  0  1  0  0  0  0  0  0
  2  3  1  0
  2  4  1  0
  2  1  1  0
  3 47  1  0
  3  1  1  0
  5  4  2  0
  5  6  1  0
  6  7  2  0
  8  6  1  0
  8 17  1  0
  9 17  1  0
 10 15  1  0
 11 12  1  0
 11 10  1  0
 13 12  1  0
 13 22  1  0
 13 14  1  0
 15  9  1  0
 15 14  1  0
 16  9  2  0
 17 18  1  0
 19 20  2  0
 20 39  1  0
 21 20  1  0
 21 24  1  0
 22 19  1  0
 22 23  1  0
 23 21  2  0
 24 25  1  0
 25 26  2  0
 27 30  1  0
 27 26  1  0
 28 27  2  0
 29 28  1  0
 29 24  2  0
 30 31  1  0
 31 32  1  0
 32 33  2  0
 34 33  1  0
 34 38  1  0
 35 34  2  0
 36 31  2  0
 36 35  1  0
 37 36  1  0
 39 40  1  0
 40 43  1  0
 40 42  1  0
 41 39  2  0
 44 45  1  0
 44 19  1  0
 46 44  1  0
 47 48  1  0
 49 60  2  0
 50 48  1  0
 50 55  1  0
 51 59  1  0
 51 61  1  0
 52 58  1  0
 52 54  1  0
 53 59  1  0
 54 53  1  0
 55 54  2  0
 56 50  2  0
 57 56  1  0
 57 52  2  0
 58 51  1  0
 59 49  1  0
 61 63  2  0
 62 61  1  0
 64 62  1  0
 65 74  2  0
 65 70  1  0
 66 62  1  0
 66 70  1  0
 67 66  1  0
 68 69  1  0
 68 67  1  0
 69 65  1  0
 70 71  2  0
 71 72  1  0
 73 72  2  0
 74 73  1  0
 75 49  1  0
 75 76  1  0
 75 85  1  0
 76 79  1  0
 77 81  1  0
 77 76  1  0
 78 77  2  0
 81 80  1  0
 83 81  1  0
 83 84  1  0
 83 82  1  0
 85 88  1  1
 85 86  1  0
 87 85  1  0
M  ISO  4   9 100  17 100  47 101  48 101
M  END
>  <TORSDO>  (76) 
F 21

>  <SCORE>  (76) 
-13.347

>  <name>  (76) 
75

>  <ligand_id>  (76) 
75

>  <original_smiles>  (76) 
[H]c1c([H])c([H])c2c(c1[H])C([H])([H])C([H])([H])C([H])([H])C2([H])N([H])C(=O)C1([H])N(C(=O)C([H])(N([H])C(=O)C([H])(N([H])C([H])([H])[H])C([H])([H])[H])C(C([H])([H])[H])(C([H])([H])[H])C([H])([H])[H])C([H])([H])c2c([H])c(OC([H])([H])C3([H])C([H])([H])C3([H])C([H])([H])C([H])([H])C(=O)C([H])([H])N([H])C(=O)N3C([H])([H])C([H])([H])C([H])([H])C([H])(n4nc(-c5c([H])c([H])c(Oc6c([H])c([H])c(F)c([H])c6F)c([H])c5[H])c(C(=O)N([H])[H])c4N([H])[H])C3([H])[H])c([H])c([H])c2C1([H])[H]

>  <smiles>  (76) 
[H]c1c([H])c([H])c2c(c1[H])C([H])([H])C([H])([H])C([H])([H])C2([H])N([H])C(=O)C1([H])N(C(=O)C([H])(N([H])C(=O)C([H])(N([H])C([H])([H])[H])C([H])([H])[H])C(C([H])([H])[H])(C([H])([H])[H])C([H])([H])[H])C([H])([H])c2c([H])c(OC([H])([H])C3([H])C([H])([H])C3([H])C([H])([H])C([H])([H])C(=O)C([H])([H])N([H])C(=O)N3C([H])([H])C([H])([H])C([H])([H])C([H])(n4nc(-c5c([H])c([H])c(Oc6c([H])c([H])c(F)c([H])c6F)c([H])c5[H])c(C(=O)N([H])[H])c4N([H])[H])C3([H])[H])c([H])c([H])c2C1([H])[H]

$$$$
76:0:0
     RDKit          3D

 88 96  0  0  1  0  0  0  0  0999 V2000
  -30.3260  -15.6710   20.2980 C   0  0  0  0  0  0  0  0  0  0  0  0
  -30.4060  -13.1120   19.5460 C   0  0  0  0  0  2  0  0  0  0  0  0
  -29.5540  -12.6450   18.3320 C   0  0  0  0  0  2  0  0  0  0  0  0
  -28.1260  -12.3010   18.7760 C   0  0  0  0  0  2  0  0  0  0  0  0
  -27.5800  -13.3440   19.7770 C   0  0  0  0  0  3  0  0  0  0  0  0
  -28.5780  -13.7190   20.9000 C   0  0  0  0  0  2  0  0  0  0  0  0
  -29.7600  -14.3210   20.2380 N   0  0  0  0  0  0  0  0  0  0  0  0
  -31.5610  -15.5480   20.1870 O   0  0  0  0  0  0  0  0  0  0  0  0
  -27.9500  -19.1430   20.5430 C   0  0  0  0  0  2  0  0  0  0  0  0
  -28.2320  -17.5220   20.4020 C   0  0  0  0  0  2  0  0  0  0  0  0
  -30.1570  -18.7130   20.1770 C   0  0  0  0  0  3  0  0  0  0  0  0
  -29.0270  -20.1310   19.9510 C   0  0  0  0  0  3  0  0  0  0  0  0
  -29.6720  -17.1030   20.3020 N   0  0  0  0  0  0  0  0  0  0  0  0
  -25.2050  -13.8960   20.4770 C   0  0  0  0  0  0  0  0  0  0  0  0
  -24.1330  -13.1260   20.8320 C   0  0  0  0  0  0  0  0  0  0  0  0
  -24.6000  -11.7760   20.8380 C   0  0  0  0  0  0  0  0  0  0  0  0
  -26.2510  -13.0170   20.2750 N   0  0  0  0  0  0  0  0  0  0  0  0
  -25.9010  -11.7350   20.5590 N   0  0  0  0  0  0  0  0  0  0  0  0
  -23.8630  -10.5190   21.0300 C   0  0  0  0  0  0  0  0  0  0  0  0
  -24.2800   -9.5530   21.9720 C   0  0  0  0  0  3  0  0  0  0  0  0
  -23.5390   -8.3650   22.1570 C   0  0  0  0  0  3  0  0  0  0  0  0
  -22.3670   -8.1330   21.3970 C   0  0  0  0  0  0  0  0  0  0  0  0
  -21.9690   -9.0880   20.4450 C   0  0  0  0  0  3  0  0  0  0  0  0
  -22.7100  -10.2670   20.2590 C   0  0  0  0  0  3  0  0  0  0  0  0
  -21.6010   -6.9950   21.4890 O   0  0  0  0  0  0  0  0  0  0  0  0
  -21.5590   -6.2460   22.6390 C   0  0  0  0  0  0  0  0  0  0  0  0
  -21.1780   -6.8050   23.8790 C   0  0  0  0  0  3  0  0  0  0  0  0
  -21.0820   -5.9850   25.0200 C   0  0  0  0  0  3  0  0  0  0  0  0
  -21.3550   -4.6080   24.9250 C   0  0  0  0  0  0  0  0  0  0  0  0
  -21.7270   -4.0470   23.6900 C   0  0  0  0  0  3  0  0  0  0  0  0
  -21.8270   -4.8650   22.5500 C   0  0  0  0  0  0  0  0  0  0  0  0
  -22.1650   -4.3170   21.3570 F   0  0  0  0  0  0  0  0  0  0  0  0
  -21.2550   -3.8180   26.0190 F   0  0  0  0  0  0  0  0  0  0  0  0
  -22.7330  -13.6130   21.0490 C   0  0  0  0  0  0  0  0  0  0  0  0
  -21.9780  -12.9430   21.9130 N   0  0  0  0  0  0  0  0  0  0  0  0
  -22.3170  -14.6250   20.4880 O   0  0  0  0  0  0  0  0  0  0  0  0
  -22.3310  -12.1280   22.3940 H   0  0  0  0  0  0  0  0  0  0  0  0
  -21.0340  -13.2520   22.0990 H   0  0  0  0  0  0  0  0  0  0  0  0
  -25.3770  -15.2600   20.2750 N   0  0  0  0  0  0  0  0  0  0  0  0
  -24.6110  -15.9210   20.3380 H   0  0  0  0  0  0  0  0  0  0  0  0
  -26.2340  -15.6770   19.9390 H   0  0  0  0  0  0  0  0  0  0  0  0
  -31.2390  -18.7600   19.0880 C   0  0  0  0  0  0  0  0  0  0  0  0
  -30.9760  -18.5060   17.9080 O   0  0  0  0  0  0  0  0  0  0  0  0
  -33.4970  -19.7220   18.3550 C   0  0  0  0  0  1  0  0  0  0  0  0
  -32.6740  -19.0980   19.4990 C   0  0  0  0  0  2  0  0  0  0  0  0
  -29.0280  -22.0680   20.2650 C   0  0  0  0  0  3  0  0  0  0  0  0
  -28.1160  -23.7540   19.8640 C   0  0  0  0  0  3  0  0  0  0  0  0
  -28.2320  -25.5060   20.0830 O   0  0  0  0  0  0  0  0  0  0  0  0
  -24.7160  -31.7820   23.0330 C   0  0  0  0  0  0  0  0  0  0  0  0
  -27.2470  -26.7110   20.0170 C   0  0  0  0  0  0  0  0  0  0  0  0
  -23.5210  -30.3740   21.4120 C   0  0  0  0  0  3  0  0  0  0  0  0
  -24.9650  -28.7310   19.9850 C   0  0  0  0  0  0  0  0  0  0  0  0
  -26.0970  -30.5320   21.2620 C   0  0  0  0  0  2  0  0  0  0  0  0
  -26.1630  -29.0960   20.6090 C   0  0  0  0  0  0  0  0  0  0  0  0
  -27.2860  -28.1130   20.5910 C   0  0  0  0  0  3  0  0  0  0  0  0
  -26.0120  -26.5580   19.3360 C   0  0  0  0  0  3  0  0  0  0  0  0
  -24.9260  -27.4880   19.3270 C   0  0  0  0  0  3  0  0  0  0  0  0
  -23.7530  -29.6760   20.0400 C   0  0  0  0  0  2  0  0  0  0  0  0
  -24.8030  -30.9280   21.9580 N   0  0  0  0  0  0  0  0  0  0  0  0
  -23.6250  -32.0750   23.5530 O   0  0  0  0  0  0  0  0  0  0  0  0
  -22.8180  -29.3930   22.3900 C   0  0  0  0  0  0  0  0  0  0  0  0
  -21.4800  -29.2550   22.2970 N   0  0  0  0  0  0  0  0  0  0  0  0
  -23.4870  -28.7560   23.2060 O   0  0  0  0  0  0  0  0  0  0  0  0
  -20.9890  -29.8270   21.6250 H   0  0  0  0  0  0  0  0  0  0  0  0
  -18.0910  -28.0820   22.8940 C   0  0  0  0  0  0  0  0  0  0  0  0
  -20.6620  -28.3200   23.0790 C   0  0  0  0  0  3  0  0  0  0  0  0
  -20.7290  -26.8930   22.4890 C   0  0  0  0  0  2  0  0  0  0  0  0
  -19.5940  -26.5940   21.5030 C   0  0  0  0  0  2  0  0  0  0  0  0
  -18.2340  -26.7440   22.1910 C   0  0  0  0  0  2  0  0  0  0  0  0
  -19.2310  -28.8300   23.2970 C   0  0  0  0  0  0  0  0  0  0  0  0
  -19.0410  -30.0810   23.9230 C   0  0  0  0  0  3  0  0  0  0  0  0
  -17.7460  -30.5850   24.1470 C   0  0  0  0  0  3  0  0  0  0  0  0
  -16.6210  -29.8370   23.7580 C   0  0  0  0  0  3  0  0  0  0  0  0
  -16.7970  -28.5880   23.1360 C   0  0  0  0  0  3  0  0  0  0  0  0
  -25.9800  -32.4430   23.6620 C   0  0  0  0  0  3  0  0  0  0  0  0
  -26.5280  -31.6540   24.9180 C   0  0  1  0  0  0  0  0  0  0  0  0
  -25.4570  -31.3840   26.0020 C   0  0  0  0  0  1  0  0  0  0  0  0
  -27.1200  -30.2910   24.5010 C   0  0  0  0  0  1  0  0  0  0  0  0
  -27.6830  -32.4500   25.5690 C   0  0  0  0  0  1  0  0  0  0  0  0
  -25.6340  -33.8250   24.0530 N   0  0  0  0  0  0  0  0  0  0  0  0
  -25.9270  -34.9240   23.3450 C   0  0  0  0  0  0  0  0  0  0  0  0
  -26.5760  -34.8800   22.2960 O   0  0  0  0  0  0  0  0  0  0  0  0
  -25.0540  -33.9260   24.8760 H   0  0  0  0  0  0  0  0  0  0  0  0
  -24.1540  -36.7020   23.1300 C   0  0  0  0  0  1  0  0  0  0  0  0
  -25.4300  -36.2830   23.8800 C   0  0  0  0  0  3  0  0  0  0  0  0
  -27.5740  -37.1750   24.6840 C   0  0  0  0  0  1  0  0  0  0  0  0
  -26.4380  -37.3630   23.7870 N   0  0  0  0  0  0  0  0  0  0  0  0
  -26.0170  -38.2660   23.9950 H   0  0  0  0  0  0  0  0  0  0  0  0
  1 13  1  0
  2  7  1  0
  3  4  1  0
  3  2  1  0
  5  4  1  0
  5 17  1  0
  5  6  1  0
  7  1  1  0
  7  6  1  0
  8  1  2  0
 10  9  1  0
 11 42  1  0
 11 13  1  0
 12 11  1  0
 12 46  1  0
 12  9  1  0
 13 10  1  0
 14 15  2  0
 15 16  1  0
 15 34  1  0
 16 19  1  0
 17 14  1  0
 17 18  1  0
 18 16  2  0
 19 20  1  0
 20 21  2  0
 22 25  1  0
 22 21  1  0
 23 22  2  0
 24 23  1  0
 24 19  2  0
 25 26  1  0
 26 27  1  0
 27 28  2  0
 29 28  1  0
 29 33  1  0
 30 29  2  0
 31 26  2  0
 31 30  1  0
 32 31  1  0
 34 35  1  0
 35 38  1  0
 35 37  1  0
 36 34  2  0
 39 40  1  0
 39 14  1  0
 41 39  1  0
 42 45  1  0
 43 42  2  0
 44 45  1  0
 47 48  1  0
 47 46  2  0
 49 60  2  0
 50 48  1  0
 50 55  1  0
 51 59  1  0
 51 61  1  0
 52 58  1  0
 52 54  1  0
 53 59  1  0
 54 53  1  0
 55 54  2  0
 56 50  2  0
 57 56  1  0
 57 52  2  0
 58 51  1  0
 59 49  1  0
 61 63  2  0
 62 61  1  0
 64 62  1  0
 65 74  2  0
 65 70  1  0
 66 62  1  0
 66 70  1  0
 67 66  1  0
 68 69  1  0
 68 67  1  0
 69 65  1  0
 70 71  2  0
 71 72  1  0
 73 72  2  0
 74 73  1  0
 75 49  1  0
 75 80  1  0
 75 76  1  0
 76 79  1  1
 76 77  1  0
 78 76  1  0
 80 83  1  0
 81 85  1  0
 81 80  1  0
 82 81  2  0
 85 84  1  0
 87 85  1  0
 87 88  1  0
 87 86  1  0
M  ISO  4   1 100  13 100  47 101  48 101
M  END
>  <TORSDO>  (77) 
F 19

>  <SCORE>  (77) 
-15.539

>  <name>  (77) 
76

>  <ligand_id>  (77) 
76

>  <original_smiles>  (77) 
[H]c1c([H])c([H])c2c(c1[H])C([H])([H])C([H])([H])C([H])([H])C2([H])N([H])C(=O)C1([H])N(C(=O)C([H])(N([H])C(=O)C([H])(N([H])C([H])([H])[H])C([H])([H])[H])C(C([H])([H])[H])(C([H])([H])[H])C([H])([H])[H])C([H])([H])c2c([H])c(OC([H])([H])C([H])([H])C3([H])C([H])(C(=O)C([H])([H])C([H])([H])[H])N(C(=O)N4C([H])([H])C([H])([H])C([H])([H])C([H])(n5nc(-c6c([H])c([H])c(Oc7c([H])c([H])c(F)c([H])c7F)c([H])c6[H])c(C(=O)N([H])[H])c5N([H])[H])C4([H])[H])C([H])([H])C3([H])[H])c([H])c([H])c2C1([H])[H]

>  <smiles>  (77) 
[H]c1c([H])c([H])c2c(c1[H])C([H])([H])C([H])([H])C([H])([H])C2([H])N([H])C(=O)C1([H])N(C(=O)C([H])(N([H])C(=O)C([H])(N([H])C([H])([H])[H])C([H])([H])[H])C(C([H])([H])[H])(C([H])([H])[H])C([H])([H])[H])C([H])([H])c2c([H])c(OC([H])([H])C([H])([H])C3([H])C([H])(C(=O)C([H])([H])C([H])([H])[H])N(C(=O)N4C([H])([H])C([H])([H])C([H])([H])C([H])(n5nc(-c6c([H])c([H])c(Oc7c([H])c([H])c(F)c([H])c7F)c([H])c6[H])c(C(=O)N([H])[H])c5N([H])[H])C4([H])[H])C([H])([H])C3([H])[H])c([H])c([H])c2C1([H])[H]

$$$$
77:0:0
     RDKit          3D

 90 98  0  0  1  0  0  0  0  0999 V2000
  -28.3910  -21.9050   19.7630 C   0  0  0  0  0  2  0  0  0  0  0  0
  -28.9250  -23.3840   20.1230 C   0  0  0  0  0  3  0  0  0  0  0  0
  -29.4430  -20.7760   20.2430 C   0  0  0  0  0  3  0  0  0  0  0  0
  -29.5680  -22.9520   21.4750 C   0  0  0  0  0  3  0  0  0  0  0  0
  -30.6770  -23.9100   21.9400 C   0  0  0  0  0  1  0  0  0  0  0  0
  -30.0500  -21.5150   21.3880 N   0  0  0  0  0  4  0  0  0  0  0  0
  -31.0510  -21.4990   21.2680 H   0  0  0  0  0  0  0  0  0  0  0  0
  -29.8430  -21.0450   22.2540 H   0  0  0  0  0  0  0  0  0  0  0  0
  -27.7710  -18.8350   19.7310 C   0  0  0  0  0  1  0  0  0  0  0  0
  -29.0440  -19.1640   20.5330 C   0  0  0  0  0  3  0  0  0  0  0  0
  -30.0730  -17.8510   20.3580 C   0  0  0  0  0  3  0  0  0  0  0  0
  -29.6610  -16.2740   20.7520 C   0  0  0  0  0  3  0  0  0  0  0  0
  -30.5000  -14.9080   20.3800 C   0  0  0  0  0  0  0  0  0  0  0  0
  -30.3760  -12.5880   19.3740 C   0  0  0  0  0  2  0  0  0  0  0  0
  -29.4310  -12.6170   18.1500 C   0  0  0  0  0  2  0  0  0  0  0  0
  -27.9650  -12.4120   18.5800 C   0  0  0  0  0  2  0  0  0  0  0  0
  -27.5770  -13.3050   19.7860 C   0  0  0  0  0  3  0  0  0  0  0  0
  -28.6370  -13.2520   20.9070 C   0  0  0  0  0  2  0  0  0  0  0  0
  -29.9270  -13.6440   20.3210 N   0  0  0  0  0  0  0  0  0  0  0  0
  -31.6790  -15.0130   20.0210 O   0  0  0  0  0  0  0  0  0  0  0  0
  -25.1920  -13.8880   20.5200 C   0  0  0  0  0  0  0  0  0  0  0  0
  -24.1270  -13.1120   20.8910 C   0  0  0  0  0  0  0  0  0  0  0  0
  -24.5940  -11.7620   20.8650 C   0  0  0  0  0  0  0  0  0  0  0  0
  -26.2370  -13.0110   20.2820 N   0  0  0  0  0  0  0  0  0  0  0  0
  -25.8860  -11.7280   20.5560 N   0  0  0  0  0  0  0  0  0  0  0  0
  -23.8700  -10.4990   21.0570 C   0  0  0  0  0  0  0  0  0  0  0  0
  -24.3120   -9.5270   21.9810 C   0  0  0  0  0  3  0  0  0  0  0  0
  -23.5850   -8.3300   22.1620 C   0  0  0  0  0  3  0  0  0  0  0  0
  -22.4020   -8.0970   21.4200 C   0  0  0  0  0  0  0  0  0  0  0  0
  -21.9810   -9.0580   20.4850 C   0  0  0  0  0  3  0  0  0  0  0  0
  -22.7080  -10.2470   20.3020 C   0  0  0  0  0  3  0  0  0  0  0  0
  -21.6460   -6.9530   21.5110 O   0  0  0  0  0  0  0  0  0  0  0  0
  -21.6190   -6.1990   22.6560 C   0  0  0  0  0  0  0  0  0  0  0  0
  -21.2330   -6.7450   23.9000 C   0  0  0  0  0  3  0  0  0  0  0  0
  -21.1510   -5.9190   25.0380 C   0  0  0  0  0  3  0  0  0  0  0  0
  -21.4470   -4.5460   24.9340 C   0  0  0  0  0  0  0  0  0  0  0  0
  -21.8260   -3.9990   23.6960 C   0  0  0  0  0  3  0  0  0  0  0  0
  -21.9100   -4.8240   22.5590 C   0  0  0  0  0  0  0  0  0  0  0  0
  -22.2550   -4.2880   21.3640 F   0  0  0  0  0  0  0  0  0  0  0  0
  -21.3610   -3.7480   26.0240 F   0  0  0  0  0  0  0  0  0  0  0  0
  -22.7290  -13.5870   21.1570 C   0  0  0  0  0  0  0  0  0  0  0  0
  -22.0030  -12.8960   22.0290 N   0  0  0  0  0  0  0  0  0  0  0  0
  -22.2900  -14.6080   20.6290 O   0  0  0  0  0  0  0  0  0  0  0  0
  -22.3720  -12.0710   22.4770 H   0  0  0  0  0  0  0  0  0  0  0  0
  -21.0650  -13.1980   22.2520 H   0  0  0  0  0  0  0  0  0  0  0  0
  -25.3540  -15.2590   20.3410 N   0  0  0  0  0  0  0  0  0  0  0  0
  -24.5870  -15.9120   20.4550 H   0  0  0  0  0  0  0  0  0  0  0  0
  -26.2020  -15.6980   20.0080 H   0  0  0  0  0  0  0  0  0  0  0  0
  -27.9080  -24.7120   20.0630 C   0  0  0  0  0  2  0  0  0  0  0  0
  -28.2130  -26.2240   20.1520 O   0  0  0  0  0  0  0  0  0  0  0  0
  -24.5970  -31.8620   23.1890 C   0  0  0  0  0  0  0  0  0  0  0  0
  -27.1440  -27.1850   20.1100 C   0  0  0  0  0  0  0  0  0  0  0  0
  -23.3740  -30.4680   21.5660 C   0  0  0  0  0  3  0  0  0  0  0  0
  -24.8050  -28.9040   20.1200 C   0  0  0  0  0  0  0  0  0  0  0  0
  -25.9240  -30.7450   21.3640 C   0  0  0  0  0  2  0  0  0  0  0  0
  -25.9920  -29.3580   20.7080 C   0  0  0  0  0  0  0  0  0  0  0  0
  -27.1630  -28.5150   20.6860 C   0  0  0  0  0  3  0  0  0  0  0  0
  -25.9240  -26.8260   19.4910 C   0  0  0  0  0  3  0  0  0  0  0  0
  -24.7810  -27.6500   19.4980 C   0  0  0  0  0  3  0  0  0  0  0  0
  -23.5760  -29.7960   20.1840 C   0  0  0  0  0  2  0  0  0  0  0  0
  -24.6520  -31.0450   22.0940 N   0  0  0  0  0  0  0  0  0  0  0  0
  -23.5180  -32.1440   23.7330 O   0  0  0  0  0  0  0  0  0  0  0  0
  -22.7130  -29.4560   22.5350 C   0  0  0  0  0  0  0  0  0  0  0  0
  -21.3830  -29.2820   22.4230 N   0  0  0  0  0  0  0  0  0  0  0  0
  -23.3960  -28.8310   23.3500 O   0  0  0  0  0  0  0  0  0  0  0  0
  -20.8890  -29.8360   21.7370 H   0  0  0  0  0  0  0  0  0  0  0  0
  -18.0120  -28.0740   22.9600 C   0  0  0  0  0  0  0  0  0  0  0  0
  -20.5720  -28.3470   23.2050 C   0  0  0  0  0  3  0  0  0  0  0  0
  -20.6750  -26.9130   22.6360 C   0  0  0  0  0  2  0  0  0  0  0  0
  -19.5650  -26.5810   21.6330 C   0  0  0  0  0  2  0  0  0  0  0  0
  -18.1880  -26.7230   22.2870 C   0  0  0  0  0  2  0  0  0  0  0  0
  -19.1310  -28.8430   23.3760 C   0  0  0  0  0  0  0  0  0  0  0  0
  -18.9100  -30.1070   23.9670 C   0  0  0  0  0  3  0  0  0  0  0  0
  -17.6050  -30.6010   24.1440 C   0  0  0  0  0  3  0  0  0  0  0  0
  -16.5000  -29.8300   23.7420 C   0  0  0  0  0  3  0  0  0  0  0  0
  -16.7050  -28.5680   23.1560 C   0  0  0  0  0  3  0  0  0  0  0  0
  -25.8830  -32.4970   23.7980 C   0  0  0  0  0  3  0  0  0  0  0  0
  -26.4240  -31.7150   25.0580 C   0  0  1  0  0  0  0  0  0  0  0  0
  -25.3500  -31.4630   26.1420 C   0  0  0  0  0  1  0  0  0  0  0  0
  -27.0050  -30.3420   24.6470 C   0  0  0  0  0  1  0  0  0  0  0  0
  -27.5830  -32.5070   25.7080 C   0  0  0  0  0  1  0  0  0  0  0  0
  -25.5690  -33.8890   24.1540 N   0  0  0  0  0  0  0  0  0  0  0  0
  -25.8750  -34.9580   23.4060 C   0  0  0  0  0  0  0  0  0  0  0  0
  -26.5200  -34.8750   22.3580 O   0  0  0  0  0  0  0  0  0  0  0  0
  -24.9950  -34.0260   24.9740 H   0  0  0  0  0  0  0  0  0  0  0  0
  -24.1210  -36.7400   23.1300 C   0  0  0  0  0  1  0  0  0  0  0  0
  -25.3900  -36.3360   23.8980 C   0  0  0  0  0  3  0  0  0  0  0  0
  -27.5430  -37.2250   24.6750 C   0  0  0  0  0  1  0  0  0  0  0  0
  -26.4090  -37.4000   23.7710 N   0  0  0  0  0  0  0  0  0  0  0  0
  -26.0000  -38.3140   23.9510 H   0  0  0  0  0  0  0  0  0  0  0  0
  1  2  1  0
  1  3  1  0
  2 49  1  0
  2  4  1  0
  3 10  1  0
  3  6  1  0
  4  5  1  0
  6  4  1  0
  6  8  1  0
  7  6  1  0
 10  9  1  0
 11 10  1  0
 11 12  2  0
 13 12  1  0
 14 19  1  0
 15 16  1  0
 15 14  1  0
 17 16  1  0
 17 24  1  0
 17 18  1  0
 19 13  1  0
 19 18  1  0
 20 13  2  0
 21 22  2  0
 22 41  1  0
 23 22  1  0
 23 26  1  0
 24 21  1  0
 24 25  1  0
 25 23  2  0
 26 27  1  0
 27 28  2  0
 29 32  1  0
 29 28  1  0
 30 29  2  0
 31 30  1  0
 31 26  2  0
 32 33  1  0
 33 34  1  0
 34 35  2  0
 36 35  1  0
 36 40  1  0
 37 36  2  0
 38 33  2  0
 38 37  1  0
 39 38  1  0
 41 42  1  0
 42 45  1  0
 42 44  1  0
 43 41  2  0
 46 47  1  0
 46 21  1  0
 48 46  1  0
 49 50  1  0
 51 62  2  0
 52 50  1  0
 52 57  1  0
 53 61  1  0
 53 63  1  0
 54 60  1  0
 54 56  1  0
 55 61  1  0
 56 55  1  0
 57 56  2  0
 58 59  1  0
 58 52  2  0
 59 54  2  0
 60 53  1  0
 61 51  1  0
 63 65  2  0
 64 63  1  0
 66 64  1  0
 67 76  2  0
 67 72  1  0
 68 64  1  0
 68 72  1  0
 69 68  1  0
 70 71  1  0
 70 69  1  0
 71 67  1  0
 72 73  2  0
 73 74  1  0
 75 74  2  0
 76 75  1  0
 77 51  1  0
 77 82  1  0
 77 78  1  0
 78 81  1  1
 78 79  1  0
 80 78  1  0
 82 85  1  0
 83 87  1  0
 83 82  1  0
 84 83  2  0
 87 86  1  0
 89 87  1  0
 89 90  1  0
 89 88  1  0
M  ISO  4  12 100  13 100  49 101  50 101
M  END
>  <TORSDO>  (78) 
F 20

>  <SCORE>  (78) 
-13.669

>  <name>  (78) 
77

>  <ligand_id>  (78) 
77

>  <original_smiles>  (78) 
[H]c1c([H])c([H])c2c(c1[H])C([H])([H])C([H])([H])C([H])([H])C2([H])N([H])C(=O)C1([H])N(C(=O)C([H])(N([H])C(=O)C([H])(N([H])C([H])([H])[H])C([H])([H])[H])C(C([H])([H])[H])(C([H])([H])[H])C([H])([H])[H])C([H])([H])c2c([H])c(OC([H])([H])C3([H])C([H])([H])C([H])(C([H])(C([H])([H])[H])C([H])([H])C([H])([H])C(=O)N4C([H])([H])C([H])([H])C([H])([H])C([H])(n5nc(-c6c([H])c([H])c(Oc7c([H])c([H])c(F)c([H])c7F)c([H])c6[H])c(C(=O)N([H])[H])c5N([H])[H])C4([H])[H])[N+]([H])([H])C3([H])C([H])([H])[H])c([H])c([H])c2C1([H])[H]

>  <smiles>  (78) 
[H]c1c([H])c([H])c2c(c1[H])C([H])([H])C([H])([H])C([H])([H])C2([H])N([H])C(=O)C1([H])N(C(=O)C([H])(N([H])C(=O)C([H])(N([H])C([H])([H])[H])C([H])([H])[H])C(C([H])([H])[H])(C([H])([H])[H])C([H])([H])[H])C([H])([H])c2c([H])c(OC([H])([H])C3([H])C([H])([H])C([H])(C([H])(C([H])([H])[H])C([H])([H])C([H])([H])C(=O)N4C([H])([H])C([H])([H])C([H])([H])C([H])(n5nc(-c6c([H])c([H])c(Oc7c([H])c([H])c(F)c([H])c7F)c([H])c6[H])c(C(=O)N([H])[H])c5N([H])[H])C4([H])[H])[N+]([H])([H])C3([H])C([H])([H])[H])c([H])c([H])c2C1([H])[H]

$$$$
78:0:0
     RDKit          3D

 90 98  0  0  1  0  0  0  0  0999 V2000
  -29.6110  -20.5650   20.9720 C   0  0  0  0  0  2  0  0  0  0  0  0
  -28.6980  -19.5770   19.0590 C   0  0  0  0  0  2  0  0  0  0  0  0
  -29.1830  -19.0780   20.4600 C   0  0  0  0  0  3  0  0  0  0  0  0
  -28.6320  -21.7130   20.3730 C   0  0  0  0  0  3  0  0  0  0  0  0
  -28.3660  -21.0620   19.0590 N   0  0  0  0  0  4  0  0  0  0  0  0
  -27.4020  -21.1970   18.7980 H   0  0  0  0  0  0  0  0  0  0  0  0
  -28.9310  -21.4970   18.3480 H   0  0  0  0  0  0  0  0  0  0  0  0
  -31.0320  -17.8760   21.8400 C   0  0  0  0  0  1  0  0  0  0  0  0
  -30.2000  -17.7180   20.5540 C   0  0  0  0  0  3  0  0  0  0  0  0
  -30.5140  -14.9940   20.3190 C   0  0  0  0  0  0  0  0  0  0  0  0
  -30.3730  -12.6490   19.3700 C   0  0  0  0  0  2  0  0  0  0  0  0
  -29.4270  -12.6030   18.1490 C   0  0  0  0  0  2  0  0  0  0  0  0
  -27.9700  -12.3860   18.6000 C   0  0  0  0  0  2  0  0  0  0  0  0
  -27.5740  -13.3110   19.7820 C   0  0  0  0  0  3  0  0  0  0  0  0
  -28.6430  -13.3320   20.8950 C   0  0  0  0  0  2  0  0  0  0  0  0
  -29.9030  -13.7430   20.2670 N   0  0  0  0  0  0  0  0  0  0  0  0
  -31.7150  -15.0430   20.0330 O   0  0  0  0  0  0  0  0  0  0  0  0
  -29.7630  -16.1940   20.4930 N   0  0  0  0  0  0  0  0  0  0  0  0
  -28.7780  -16.0340   20.6420 H   0  0  0  0  0  0  0  0  0  0  0  0
  -25.2040  -13.8750   20.5620 C   0  0  0  0  0  0  0  0  0  0  0  0
  -24.1460  -13.0930   20.9360 C   0  0  0  0  0  0  0  0  0  0  0  0
  -24.6140  -11.7440   20.8830 C   0  0  0  0  0  0  0  0  0  0  0  0
  -26.2450  -13.0030   20.2970 N   0  0  0  0  0  0  0  0  0  0  0  0
  -25.9010  -11.7150   20.5560 N   0  0  0  0  0  0  0  0  0  0  0  0
  -23.8910  -10.4780   21.0650 C   0  0  0  0  0  0  0  0  0  0  0  0
  -24.3270   -9.5050   21.9900 C   0  0  0  0  0  3  0  0  0  0  0  0
  -23.6020   -8.3040   22.1620 C   0  0  0  0  0  3  0  0  0  0  0  0
  -22.4290   -8.0690   21.4070 C   0  0  0  0  0  0  0  0  0  0  0  0
  -22.0130   -9.0320   20.4690 C   0  0  0  0  0  3  0  0  0  0  0  0
  -22.7380  -10.2230   20.2960 C   0  0  0  0  0  3  0  0  0  0  0  0
  -21.6760   -6.9230   21.4870 O   0  0  0  0  0  0  0  0  0  0  0  0
  -21.6190   -6.1800   22.6390 C   0  0  0  0  0  0  0  0  0  0  0  0
  -21.1590   -6.7260   23.8570 C   0  0  0  0  0  3  0  0  0  0  0  0
  -21.0510   -5.9080   24.9990 C   0  0  0  0  0  3  0  0  0  0  0  0
  -21.3920   -4.5450   24.9240 C   0  0  0  0  0  0  0  0  0  0  0  0
  -21.8460   -3.9980   23.7110 C   0  0  0  0  0  3  0  0  0  0  0  0
  -21.9550   -4.8130   22.5710 C   0  0  0  0  0  0  0  0  0  0  0  0
  -22.3720   -4.2760   21.4000 F   0  0  0  0  0  0  0  0  0  0  0  0
  -21.2820   -3.7570   26.0190 F   0  0  0  0  0  0  0  0  0  0  0  0
  -22.7520  -13.5640   21.2260 C   0  0  0  0  0  0  0  0  0  0  0  0
  -22.0350  -12.8580   22.0930 N   0  0  0  0  0  0  0  0  0  0  0  0
  -22.3070  -14.5940   20.7200 O   0  0  0  0  0  0  0  0  0  0  0  0
  -22.4080  -12.0250   22.5220 H   0  0  0  0  0  0  0  0  0  0  0  0
  -21.0990  -13.1550   22.3290 H   0  0  0  0  0  0  0  0  0  0  0  0
  -25.3600  -15.2480   20.3960 N   0  0  0  0  0  0  0  0  0  0  0  0
  -24.5870  -15.8940   20.5170 H   0  0  0  0  0  0  0  0  0  0  0  0
  -26.1890  -15.6900   20.0220 H   0  0  0  0  0  0  0  0  0  0  0  0
  -28.9820  -23.3790   20.3730 C   0  0  0  0  0  3  0  0  0  0  0  0
  -27.9310  -24.6760   20.1130 C   0  0  0  0  0  3  0  0  0  0  0  0
  -28.2170  -26.2030   20.2640 O   0  0  0  0  0  0  0  0  0  0  0  0
  -24.6210  -31.9120   23.2460 C   0  0  0  0  0  0  0  0  0  0  0  0
  -27.1640  -27.1900   20.2040 C   0  0  0  0  0  0  0  0  0  0  0  0
  -23.4090  -30.5220   21.6120 C   0  0  0  0  0  3  0  0  0  0  0  0
  -24.8440  -28.9440   20.1800 C   0  0  0  0  0  0  0  0  0  0  0  0
  -25.9630  -30.7790   21.4340 C   0  0  0  0  0  2  0  0  0  0  0  0
  -26.0270  -29.3860   20.7820 C   0  0  0  0  0  0  0  0  0  0  0  0
  -27.1900  -28.5270   20.7750 C   0  0  0  0  0  3  0  0  0  0  0  0
  -25.9510  -26.8490   19.5650 C   0  0  0  0  0  3  0  0  0  0  0  0
  -24.8170  -27.6890   19.5560 C   0  0  0  0  0  3  0  0  0  0  0  0
  -23.6200  -29.8460   20.2320 C   0  0  0  0  0  2  0  0  0  0  0  0
  -24.6850  -31.0930   22.1520 N   0  0  0  0  0  0  0  0  0  0  0  0
  -23.5380  -32.2010   23.7790 O   0  0  0  0  0  0  0  0  0  0  0  0
  -22.7300  -29.5180   22.5760 C   0  0  0  0  0  0  0  0  0  0  0  0
  -21.4010  -29.3480   22.4500 N   0  0  0  0  0  0  0  0  0  0  0  0
  -23.4010  -28.8920   23.4010 O   0  0  0  0  0  0  0  0  0  0  0  0
  -20.9160  -29.9030   21.7590 H   0  0  0  0  0  0  0  0  0  0  0  0
  -18.0170  -28.1660   22.9650 C   0  0  0  0  0  0  0  0  0  0  0  0
  -20.5780  -28.4150   23.2240 C   0  0  0  0  0  3  0  0  0  0  0  0
  -20.6710  -26.9820   22.6490 C   0  0  0  0  0  2  0  0  0  0  0  0
  -19.5640  -26.6660   21.6370 C   0  0  0  0  0  2  0  0  0  0  0  0
  -18.1850  -26.8170   22.2860 C   0  0  0  0  0  2  0  0  0  0  0  0
  -19.1410  -28.9230   23.3910 C   0  0  0  0  0  0  0  0  0  0  0  0
  -18.9280  -30.1840   23.9880 C   0  0  0  0  0  3  0  0  0  0  0  0
  -17.6250  -30.6900   24.1610 C   0  0  0  0  0  3  0  0  0  0  0  0
  -16.5170  -29.9300   23.7500 C   0  0  0  0  0  3  0  0  0  0  0  0
  -16.7130  -28.6700   23.1580 C   0  0  0  0  0  3  0  0  0  0  0  0
  -25.9040  -32.5420   23.8680 C   0  0  0  0  0  3  0  0  0  0  0  0
  -26.4160  -31.7690   25.1460 C   0  0  1  0  0  0  0  0  0  0  0  0
  -25.3210  -31.5360   26.2130 C   0  0  0  0  0  1  0  0  0  0  0  0
  -26.9940  -30.3890   24.7580 C   0  0  0  0  0  1  0  0  0  0  0  0
  -27.5690  -32.5590   25.8090 C   0  0  0  0  0  1  0  0  0  0  0  0
  -25.5980  -33.9420   24.2050 N   0  0  0  0  0  0  0  0  0  0  0  0
  -25.9130  -34.9980   23.4440 C   0  0  0  0  0  0  0  0  0  0  0  0
  -26.5580  -34.8970   22.3960 O   0  0  0  0  0  0  0  0  0  0  0  0
  -25.0240  -34.0940   25.0210 H   0  0  0  0  0  0  0  0  0  0  0  0
  -24.1680  -36.7880   23.1490 C   0  0  0  0  0  1  0  0  0  0  0  0
  -25.4370  -36.3870   23.9170 C   0  0  0  0  0  3  0  0  0  0  0  0
  -27.5950  -37.2830   24.6760 C   0  0  0  0  0  1  0  0  0  0  0  0
  -26.4620  -37.4430   23.7670 N   0  0  0  0  0  0  0  0  0  0  0  0
  -26.0580  -38.3620   23.9240 H   0  0  0  0  0  0  0  0  0  0  0  0
  2  5  1  0
  2  3  1  0
  3  9  1  0
  3  1  1  0
  4 48  1  0
  4  1  1  0
  5  4  1  0
  6  5  1  0
  7  5  1  0
  9  8  1  0
 10 18  1  0
 11 16  1  0
 12 13  1  0
 12 11  1  0
 14 13  1  0
 14 23  1  0
 14 15  1  0
 16 10  1  0
 16 15  1  0
 17 10  2  0
 18  9  1  0
 18 19  1  0
 20 21  2  0
 21 40  1  0
 22 21  1  0
 22 25  1  0
 23 24  1  0
 23 20  1  0
 24 22  2  0
 25 26  1  0
 26 27  2  0
 28 31  1  0
 28 27  1  0
 29 28  2  0
 30 29  1  0
 30 25  2  0
 31 32  1  0
 32 33  1  0
 33 34  2  0
 35 34  1  0
 35 39  1  0
 36 35  2  0
 37 32  2  0
 37 36  1  0
 38 37  1  0
 40 41  1  0
 41 44  1  0
 41 43  1  0
 42 40  2  0
 45 46  1  0
 45 20  1  0
 47 45  1  0
 49 50  1  0
 49 48  2  0
 51 62  2  0
 52 50  1  0
 52 57  1  0
 53 61  1  0
 53 63  1  0
 54 60  1  0
 54 56  1  0
 55 61  1  0
 56 55  1  0
 57 56  2  0
 58 52  2  0
 59 58  1  0
 59 54  2  0
 60 53  1  0
 61 51  1  0
 63 65  2  0
 64 63  1  0
 66 64  1  0
 67 76  2  0
 67 72  1  0
 68 64  1  0
 68 72  1  0
 69 68  1  0
 70 71  1  0
 70 69  1  0
 71 67  1  0
 72 73  2  0
 73 74  1  0
 75 74  2  0
 76 75  1  0
 77 51  1  0
 77 82  1  0
 77 78  1  0
 78 81  1  1
 78 79  1  0
 80 78  1  0
 82 85  1  0
 83 87  1  0
 83 82  1  0
 84 83  2  0
 87 86  1  0
 89 87  1  0
 89 90  1  0
 89 88  1  0
M  ISO  4  10 100  18 100  49 101  50 101
M  END
>  <TORSDO>  (79) 
F 19

>  <SCORE>  (79) 
-15.281

>  <name>  (79) 
78

>  <ligand_id>  (79) 
78

>  <original_smiles>  (79) 
[H]c1c([H])c([H])c2c(c1[H])C([H])([H])C([H])([H])C([H])([H])C2([H])N([H])C(=O)C1([H])N(C(=O)C([H])(N([H])C(=O)C([H])(N([H])C([H])([H])[H])C([H])([H])[H])C(C([H])([H])[H])(C([H])([H])[H])C([H])([H])[H])C([H])([H])c2c([H])c(OC([H])([H])C([H])([H])C3([H])C([H])([H])C([H])(C([H])(N([H])C(=O)N4C([H])([H])C([H])([H])C([H])([H])C([H])(n5nc(-c6c([H])c([H])c(Oc7c([H])c([H])c(F)c([H])c7F)c([H])c6[H])c(C(=O)N([H])[H])c5N([H])[H])C4([H])[H])C([H])([H])[H])C([H])([H])[N+]3([H])[H])c([H])c([H])c2C1([H])[H]

>  <smiles>  (79) 
[H]c1c([H])c([H])c2c(c1[H])C([H])([H])C([H])([H])C([H])([H])C2([H])N([H])C(=O)C1([H])N(C(=O)C([H])(N([H])C(=O)C([H])(N([H])C([H])([H])[H])C([H])([H])[H])C(C([H])([H])[H])(C([H])([H])[H])C([H])([H])[H])C([H])([H])c2c([H])c(OC([H])([H])C([H])([H])C3([H])C([H])([H])C([H])(C([H])(N([H])C(=O)N4C([H])([H])C([H])([H])C([H])([H])C([H])(n5nc(-c6c([H])c([H])c(Oc7c([H])c([H])c(F)c([H])c7F)c([H])c6[H])c(C(=O)N([H])[H])c5N([H])[H])C4([H])[H])C([H])([H])[H])C([H])([H])[N+]3([H])[H])c([H])c([H])c2C1([H])[H]

$$$$
79:0:0
     RDKit          3D

 92100  0  0  1  0  0  0  0  0999 V2000
  -30.9110  -22.8730   20.1720 C   0  0  0  0  0  2  0  0  0  0  0  0
  -30.8490  -24.3920   20.4180 C   0  0  0  0  0  2  0  0  0  0  0  0
  -30.0650  -22.2820   21.3110 C   0  0  0  0  0  3  0  0  0  0  0  0
  -29.4490  -24.6320   21.0260 C   0  0  0  0  0  3  0  0  0  0  0  0
  -29.0040  -23.2980   21.5350 N   0  0  0  0  0  4  0  0  0  0  0  0
  -28.7090  -23.3300   22.4970 H   0  0  0  0  0  0  0  0  0  0  0  0
  -28.2200  -22.9740   20.9910 H   0  0  0  0  0  0  0  0  0  0  0  0
  -29.4070  -20.8930   20.9820 C   0  0  0  0  0  0  0  0  0  0  0  0
  -28.1870  -20.7850   20.8250 O   0  0  0  0  0  0  0  0  0  0  0  0
  -30.3120  -19.6320   20.8190 C   0  0  0  0  0  2  0  0  0  0  0  0
  -29.6670  -18.2090   21.0220 C   0  0  0  0  0  2  0  0  0  0  0  0
  -30.6480  -17.0120   20.7310 C   0  0  0  0  0  2  0  0  0  0  0  0
  -30.7270  -14.5180   20.4620 C   0  0  0  0  0  0  0  0  0  0  0  0
  -30.3410  -12.3360   19.3630 C   0  0  0  0  0  2  0  0  0  0  0  0
  -29.4160  -12.5350   18.1410 C   0  0  0  0  0  2  0  0  0  0  0  0
  -27.9480  -12.3910   18.5750 C   0  0  0  0  0  2  0  0  0  0  0  0
  -27.6100  -13.2590   19.8160 C   0  0  0  0  0  3  0  0  0  0  0  0
  -28.6700  -13.0990   20.9360 C   0  0  0  0  0  2  0  0  0  0  0  0
  -29.9930  -13.3700   20.3590 N   0  0  0  0  0  0  0  0  0  0  0  0
  -31.8570  -14.6130   19.9860 O   0  0  0  0  0  0  0  0  0  0  0  0
  -30.1120  -15.6320   20.9310 N   0  0  0  0  0  0  0  0  0  0  0  0
  -29.2120  -15.5230   21.3700 H   0  0  0  0  0  0  0  0  0  0  0  0
  -25.2170  -13.8620   20.5150 C   0  0  0  0  0  0  0  0  0  0  0  0
  -24.1450  -13.0920   20.8830 C   0  0  0  0  0  0  0  0  0  0  0  0
  -24.6050  -11.7390   20.8680 C   0  0  0  0  0  0  0  0  0  0  0  0
  -26.2600  -12.9800   20.2970 N   0  0  0  0  0  0  0  0  0  0  0  0
  -25.8980  -11.6980   20.5710 N   0  0  0  0  0  0  0  0  0  0  0  0
  -23.8750  -10.4760   21.0600 C   0  0  0  0  0  0  0  0  0  0  0  0
  -24.3180   -9.5050   21.9860 C   0  0  0  0  0  3  0  0  0  0  0  0
  -23.5940   -8.3060   22.1660 C   0  0  0  0  0  3  0  0  0  0  0  0
  -22.4130   -8.0740   21.4190 C   0  0  0  0  0  0  0  0  0  0  0  0
  -21.9940   -9.0320   20.4790 C   0  0  0  0  0  3  0  0  0  0  0  0
  -22.7180  -10.2220   20.2970 C   0  0  0  0  0  3  0  0  0  0  0  0
  -21.6570   -6.9310   21.5100 O   0  0  0  0  0  0  0  0  0  0  0  0
  -21.6290   -6.1760   22.6550 C   0  0  0  0  0  0  0  0  0  0  0  0
  -21.2410   -6.7220   23.8990 C   0  0  0  0  0  3  0  0  0  0  0  0
  -21.1620   -5.8960   25.0380 C   0  0  0  0  0  3  0  0  0  0  0  0
  -21.4530   -4.5220   24.9330 C   0  0  0  0  0  0  0  0  0  0  0  0
  -21.8350   -3.9750   23.6960 C   0  0  0  0  0  3  0  0  0  0  0  0
  -21.9160   -4.7990   22.5590 C   0  0  0  0  0  0  0  0  0  0  0  0
  -22.2630   -4.2640   21.3630 F   0  0  0  0  0  0  0  0  0  0  0  0
  -21.3680   -3.7230   26.0240 F   0  0  0  0  0  0  0  0  0  0  0  0
  -22.7470  -13.5730   21.1420 C   0  0  0  0  0  0  0  0  0  0  0  0
  -22.0030  -12.8900   22.0080 N   0  0  0  0  0  0  0  0  0  0  0  0
  -22.3120  -14.5900   20.6070 O   0  0  0  0  0  0  0  0  0  0  0  0
  -22.3650  -12.0710   22.4770 H   0  0  0  0  0  0  0  0  0  0  0  0
  -21.0620  -13.1970   22.2050 H   0  0  0  0  0  0  0  0  0  0  0  0
  -25.3850  -15.2280   20.3260 N   0  0  0  0  0  0  0  0  0  0  0  0
  -24.6290  -15.9000   20.4000 H   0  0  0  0  0  0  0  0  0  0  0  0
  -26.2510  -15.6460   20.0080 H   0  0  0  0  0  0  0  0  0  0  0  0
  -28.4180  -25.2980   20.0610 C   0  0  0  0  0  2  0  0  0  0  0  0
  -28.4460  -26.7360   20.1630 O   0  0  0  0  0  0  0  0  0  0  0  0
  -24.5980  -31.8800   23.2300 C   0  0  0  0  0  0  0  0  0  0  0  0
  -27.2510  -27.4410   20.1410 C   0  0  0  0  0  0  0  0  0  0  0  0
  -23.3840  -30.4740   21.5930 C   0  0  0  0  0  3  0  0  0  0  0  0
  -24.8390  -28.9380   20.1600 C   0  0  0  0  0  0  0  0  0  0  0  0
  -25.9030  -30.8430   21.3770 C   0  0  0  0  0  2  0  0  0  0  0  0
  -25.9950  -29.4690   20.7450 C   0  0  0  0  0  0  0  0  0  0  0  0
  -27.1990  -28.7280   20.7330 C   0  0  0  0  0  3  0  0  0  0  0  0
  -26.0770  -26.9350   19.5320 C   0  0  0  0  0  3  0  0  0  0  0  0
  -24.8750  -27.6720   19.5500 C   0  0  0  0  0  3  0  0  0  0  0  0
  -23.5870  -29.7890   20.2130 C   0  0  0  0  0  2  0  0  0  0  0  0
  -24.6460  -31.0800   22.1270 N   0  0  0  0  0  0  0  0  0  0  0  0
  -23.5230  -32.1490   23.7790 O   0  0  0  0  0  0  0  0  0  0  0  0
  -22.7410  -29.4560   22.5600 C   0  0  0  0  0  0  0  0  0  0  0  0
  -21.4150  -29.2730   22.4400 N   0  0  0  0  0  0  0  0  0  0  0  0
  -23.4280  -28.8280   23.3700 O   0  0  0  0  0  0  0  0  0  0  0  0
  -20.9220  -29.8280   21.7560 H   0  0  0  0  0  0  0  0  0  0  0  0
  -18.0450  -28.0760   22.9530 C   0  0  0  0  0  0  0  0  0  0  0  0
  -20.6040  -28.3350   23.2160 C   0  0  0  0  0  3  0  0  0  0  0  0
  -20.7050  -26.9040   22.6390 C   0  0  0  0  0  2  0  0  0  0  0  0
  -19.5990  -26.5810   21.6300 C   0  0  0  0  0  2  0  0  0  0  0  0
  -18.2200  -26.7260   22.2770 C   0  0  0  0  0  2  0  0  0  0  0  0
  -19.1640  -28.8400   23.3770 C   0  0  0  0  0  0  0  0  0  0  0  0
  -18.9480  -30.1070   23.9630 C   0  0  0  0  0  3  0  0  0  0  0  0
  -17.6430  -30.6060   24.1340 C   0  0  0  0  0  3  0  0  0  0  0  0
  -16.5380  -29.8390   23.7260 C   0  0  0  0  0  3  0  0  0  0  0  0
  -16.7410  -28.5760   23.1410 C   0  0  0  0  0  3  0  0  0  0  0  0
  -25.8900  -32.5110   23.8410 C   0  0  0  0  0  3  0  0  0  0  0  0
  -25.5850  -33.9070   24.1850 N   0  0  0  0  0  0  0  0  0  0  0  0
  -25.8930  -34.9630   23.4230 C   0  0  0  0  0  0  0  0  0  0  0  0
  -26.5380  -34.8690   22.3750 O   0  0  0  0  0  0  0  0  0  0  0  0
  -25.0240  -34.0560   25.0110 H   0  0  0  0  0  0  0  0  0  0  0  0
  -24.1400  -36.7360   23.1080 C   0  0  0  0  0  1  0  0  0  0  0  0
  -25.4010  -36.3450   23.8930 C   0  0  0  0  0  3  0  0  0  0  0  0
  -27.5460  -37.2430   24.6760 C   0  0  0  0  0  1  0  0  0  0  0  0
  -26.4190  -37.4070   23.7610 N   0  0  0  0  0  0  0  0  0  0  0  0
  -26.0070  -38.3220   23.9310 H   0  0  0  0  0  0  0  0  0  0  0  0
  -26.4330  -31.7310   25.1010 C   0  0  1  0  0  0  0  0  0  0  0  0
  -25.3610  -31.4740   26.1840 C   0  0  0  0  0  1  0  0  0  0  0  0
  -27.0180  -30.3620   24.6810 C   0  0  0  0  0  1  0  0  0  0  0  0
  -27.5900  -32.5230   25.7520 C   0  0  0  0  0  1  0  0  0  0  0  0
  1  2  1  0
  1  3  1  0
  2  4  1  0
  3  8  1  0
  3  5  1  0
  4 51  1  0
  4  5  1  0
  5  6  1  0
  7  5  1  0
  9  8  2  0
 10  8  1  0
 10 11  1  0
 12 21  1  0
 12 11  1  0
 13 21  1  0
 14 19  1  0
 15 16  1  0
 15 14  1  0
 17 16  1  0
 17 26  1  0
 17 18  1  0
 19 13  1  0
 19 18  1  0
 20 13  2  0
 21 22  1  0
 23 24  2  0
 24 43  1  0
 25 24  1  0
 25 28  1  0
 26 23  1  0
 26 27  1  0
 27 25  2  0
 28 29  1  0
 29 30  2  0
 31 34  1  0
 31 30  1  0
 32 31  2  0
 33 32  1  0
 33 28  2  0
 34 35  1  0
 35 36  1  0
 36 37  2  0
 38 37  1  0
 38 42  1  0
 39 38  2  0
 40 35  2  0
 40 39  1  0
 41 40  1  0
 43 44  1  0
 44 47  1  0
 44 46  1  0
 45 43  2  0
 48 49  1  0
 48 23  1  0
 50 48  1  0
 51 52  1  0
 53 64  2  0
 54 52  1  0
 54 59  1  0
 55 63  1  0
 55 65  1  0
 56 62  1  0
 56 58  1  0
 57 63  1  0
 58 57  1  0
 59 58  2  0
 60 61  1  0
 60 54  2  0
 61 56  2  0
 62 55  1  0
 63 53  1  0
 65 67  2  0
 66 65  1  0
 68 66  1  0
 69 78  2  0
 69 74  1  0
 70 66  1  0
 70 74  1  0
 71 70  1  0
 72 73  1  0
 72 71  1  0
 73 69  1  0
 74 75  2  0
 75 76  1  0
 77 76  2  0
 78 77  1  0
 79 53  1  0
 79 80  1  0
 79 89  1  0
 80 83  1  0
 81 85  1  0
 81 80  1  0
 82 81  2  0
 85 84  1  0
 87 85  1  0
 87 88  1  0
 87 86  1  0
 89 92  1  1
 89 90  1  0
 91 89  1  0
M  ISO  4  13 100  21 100  51 101  52 101
M  END
>  <TORSDO>  (80) 
F 21

>  <SCORE>  (80) 
-13.494

>  <name>  (80) 
79

>  <ligand_id>  (80) 
79

>  <original_smiles>  (80) 
[H]c1c([H])c([H])c2c(c1[H])C([H])([H])C([H])([H])C([H])([H])C2([H])N([H])C(=O)C1([H])N(C(=O)C([H])(N([H])C(=O)C([H])(N([H])C([H])([H])[H])C([H])([H])[H])C(C([H])([H])[H])(C([H])([H])[H])C([H])([H])[H])C([H])([H])c2c([H])c(OC([H])([H])C3([H])C([H])([H])C([H])([H])C([H])(C(=O)C([H])([H])C([H])([H])C([H])([H])N([H])C(=O)N4C([H])([H])C([H])([H])C([H])([H])C([H])(n5nc(-c6c([H])c([H])c(Oc7c([H])c([H])c(F)c([H])c7F)c([H])c6[H])c(C(=O)N([H])[H])c5N([H])[H])C4([H])[H])[N+]3([H])[H])c([H])c([H])c2C1([H])[H]

>  <smiles>  (80) 
[H]c1c([H])c([H])c2c(c1[H])C([H])([H])C([H])([H])C([H])([H])C2([H])N([H])C(=O)C1([H])N(C(=O)C([H])(N([H])C(=O)C([H])(N([H])C([H])([H])[H])C([H])([H])[H])C(C([H])([H])[H])(C([H])([H])[H])C([H])([H])[H])C([H])([H])c2c([H])c(OC([H])([H])C3([H])C([H])([H])C([H])([H])C([H])(C(=O)C([H])([H])C([H])([H])C([H])([H])N([H])C(=O)N4C([H])([H])C([H])([H])C([H])([H])C([H])(n5nc(-c6c([H])c([H])c(Oc7c([H])c([H])c(F)c([H])c7F)c([H])c6[H])c(C(=O)N([H])[H])c5N([H])[H])C4([H])[H])[N+]3([H])[H])c([H])c([H])c2C1([H])[H]

$$$$
80:0:0
     RDKit          3D

 88 97  0  0  1  0  0  0  0  0999 V2000
  -29.8350  -21.5220   19.8900 C   0  0  0  0  0  3  0  0  0  0  0  0
  -28.0520  -21.0190   20.5010 C   0  0  0  0  0  3  0  0  0  0  0  0
  -28.7190  -22.5500   20.5510 C   0  0  0  0  0  3  0  0  0  0  0  0
  -29.3890  -20.0310   20.5080 C   0  0  0  0  0  3  0  0  0  0  0  0
  -27.9990  -24.1780   20.0540 C   0  0  0  0  0  2  0  0  0  0  0  0
  -28.1840  -25.8180   20.3540 O   0  0  0  0  0  0  0  0  0  0  0  0
  -24.5760  -31.8680   23.1830 C   0  0  0  0  0  0  0  0  0  0  0  0
  -27.1860  -26.9400   20.2410 C   0  0  0  0  0  0  0  0  0  0  0  0
  -23.4130  -30.4600   21.5360 C   0  0  0  0  0  3  0  0  0  0  0  0
  -24.8880  -28.8440   20.1410 C   0  0  0  0  0  0  0  0  0  0  0  0
  -25.9810  -30.6650   21.4310 C   0  0  0  0  0  2  0  0  0  0  0  0
  -26.0650  -29.2470   20.7840 C   0  0  0  0  0  0  0  0  0  0  0  0
  -27.2050  -28.3150   20.8100 C   0  0  0  0  0  3  0  0  0  0  0  0
  -25.9810  -26.7050   19.5390 C   0  0  0  0  0  3  0  0  0  0  0  0
  -24.8740  -27.5970   19.4980 C   0  0  0  0  0  3  0  0  0  0  0  0
  -23.6670  -29.7670   20.1660 C   0  0  0  0  0  2  0  0  0  0  0  0
  -24.6790  -31.0260   22.1040 N   0  0  0  0  0  0  0  0  0  0  0  0
  -23.4780  -32.1600   23.6850 O   0  0  0  0  0  0  0  0  0  0  0  0
  -22.7030  -29.4710   22.4980 C   0  0  0  0  0  0  0  0  0  0  0  0
  -21.3700  -29.3260   22.3750 N   0  0  0  0  0  0  0  0  0  0  0  0
  -23.3590  -28.8330   23.3250 O   0  0  0  0  0  0  0  0  0  0  0  0
  -20.8930  -29.8890   21.6850 H   0  0  0  0  0  0  0  0  0  0  0  0
  -17.9680  -28.1760   22.9040 C   0  0  0  0  0  0  0  0  0  0  0  0
  -20.5360  -28.3950   23.1430 C   0  0  0  0  0  3  0  0  0  0  0  0
  -20.6040  -26.9690   22.5480 C   0  0  0  0  0  2  0  0  0  0  0  0
  -19.4860  -26.6800   21.5420 C   0  0  0  0  0  2  0  0  0  0  0  0
  -18.1140  -26.8370   22.2030 C   0  0  0  0  0  2  0  0  0  0  0  0
  -19.1040  -28.9160   23.3310 C   0  0  0  0  0  0  0  0  0  0  0  0
  -18.9100  -30.1690   23.9500 C   0  0  0  0  0  3  0  0  0  0  0  0
  -17.6150  -30.6840   24.1450 C   0  0  0  0  0  3  0  0  0  0  0  0
  -16.4940  -29.9440   23.7310 C   0  0  0  0  0  3  0  0  0  0  0  0
  -16.6720  -28.6910   23.1160 C   0  0  0  0  0  3  0  0  0  0  0  0
  -25.8340  -32.5200   23.8330 C   0  0  0  0  0  3  0  0  0  0  0  0
  -26.3150  -31.7690   25.1380 C   0  0  1  0  0  0  0  0  0  0  0  0
  -25.1930  -31.5480   26.1790 C   0  0  0  0  0  1  0  0  0  0  0  0
  -26.9090  -30.3860   24.7910 C   0  0  0  0  0  1  0  0  0  0  0  0
  -27.4470  -32.5740   25.8170 C   0  0  0  0  0  1  0  0  0  0  0  0
  -25.5080  -33.9220   24.1500 N   0  0  0  0  0  0  0  0  0  0  0  0
  -25.8620  -34.9810   23.4080 C   0  0  0  0  0  0  0  0  0  0  0  0
  -26.5580  -34.8790   22.3940 O   0  0  0  0  0  0  0  0  0  0  0  0
  -24.8900  -34.0750   24.9340 H   0  0  0  0  0  0  0  0  0  0  0  0
  -24.1560  -36.7920   23.0140 C   0  0  0  0  0  1  0  0  0  0  0  0
  -25.3690  -36.3720   23.8590 C   0  0  0  0  0  3  0  0  0  0  0  0
  -27.4800  -37.2480   24.7600 C   0  0  0  0  0  1  0  0  0  0  0  0
  -26.4100  -37.4210   23.7810 N   0  0  0  0  0  0  0  0  0  0  0  0
  -26.0040  -38.3430   23.9140 H   0  0  0  0  0  0  0  0  0  0  0  0
  -29.7430  -18.3430   19.8380 C   0  0  0  0  0  0  0  0  0  0  0  0
  -30.4930  -15.4340   20.2360 C   0  0  0  0  0  0  0  0  0  0  0  0
  -30.4910  -12.9690   19.3720 C   0  0  0  0  0  2  0  0  0  0  0  0
  -29.5820  -12.7500   18.1350 C   0  0  0  0  0  2  0  0  0  0  0  0
  -28.1350  -12.4610   18.5640 C   0  0  0  0  0  2  0  0  0  0  0  0
  -27.6720  -13.4150   19.6930 C   0  0  0  0  0  3  0  0  0  0  0  0
  -28.7110  -13.5810   20.8230 C   0  0  0  0  0  2  0  0  0  0  0  0
  -29.9380  -14.1120   20.2040 N   0  0  0  0  0  0  0  0  0  0  0  0
  -31.7010  -15.4150   19.9530 O   0  0  0  0  0  0  0  0  0  0  0  0
  -29.7370  -16.7270   20.3860 N   0  0  0  0  0  4  0  0  0  0  0  0
  -28.8230  -16.5090   20.7550 H   0  0  0  0  0  0  0  0  0  0  0  0
  -25.2930  -13.9510   20.4230 C   0  0  0  0  0  0  0  0  0  0  0  0
  -24.2360  -13.1680   20.7930 C   0  0  0  0  0  0  0  0  0  0  0  0
  -24.7160  -11.8210   20.7770 C   0  0  0  0  0  0  0  0  0  0  0  0
  -26.3450  -13.0850   20.1940 N   0  0  0  0  0  0  0  0  0  0  0  0
  -26.0100  -11.7970   20.4740 N   0  0  0  0  0  0  0  0  0  0  0  0
  -23.9970  -10.5550   20.9750 C   0  0  0  0  0  0  0  0  0  0  0  0
  -24.4230   -9.6020   21.9260 C   0  0  0  0  0  3  0  0  0  0  0  0
  -23.7000   -8.4030   22.1110 C   0  0  0  0  0  3  0  0  0  0  0  0
  -22.5390   -8.1480   21.3450 C   0  0  0  0  0  0  0  0  0  0  0  0
  -22.1320   -9.0890   20.3840 C   0  0  0  0  0  3  0  0  0  0  0  0
  -22.8540  -10.2800   20.1970 C   0  0  0  0  0  3  0  0  0  0  0  0
  -21.7880   -7.0000   21.4380 O   0  0  0  0  0  0  0  0  0  0  0  0
  -21.7220   -6.2770   22.6010 C   0  0  0  0  0  0  0  0  0  0  0  0
  -21.2570   -6.8450   23.8070 C   0  0  0  0  0  3  0  0  0  0  0  0
  -21.1400   -6.0460   24.9620 C   0  0  0  0  0  3  0  0  0  0  0  0
  -21.4780   -4.6800   24.9130 C   0  0  0  0  0  0  0  0  0  0  0  0
  -21.9360   -4.1110   23.7110 C   0  0  0  0  0  3  0  0  0  0  0  0
  -22.0540   -4.9070   22.5580 C   0  0  0  0  0  0  0  0  0  0  0  0
  -22.4760   -4.3480   21.3980 F   0  0  0  0  0  0  0  0  0  0  0  0
  -21.3590   -3.9110   26.0200 F   0  0  0  0  0  0  0  0  0  0  0  0
  -22.8330  -13.6360   21.0450 C   0  0  0  0  0  0  0  0  0  0  0  0
  -22.1020  -12.9430   21.9110 N   0  0  0  0  0  0  0  0  0  0  0  0
  -22.3930  -14.6520   20.5080 O   0  0  0  0  0  0  0  0  0  0  0  0
  -22.4710  -12.1230   22.3680 H   0  0  0  0  0  0  0  0  0  0  0  0
  -21.1590  -13.2380   22.1220 H   0  0  0  0  0  0  0  0  0  0  0  0
  -25.4430  -15.3220   20.2330 N   0  0  0  0  0  0  0  0  0  0  0  0
  -24.6680  -15.9680   20.3360 H   0  0  0  0  0  0  0  0  0  0  0  0
  -26.2760  -15.7600   19.8610 H   0  0  0  0  0  0  0  0  0  0  0  0
  -30.9470  -18.4760   18.8760 C   0  0  0  0  0  2  0  0  0  0  0  0
  -31.9380  -17.9360   16.5700 C   0  0  0  0  0  1  0  0  0  0  0  0
  -30.7510  -17.7570   17.5230 C   0  0  0  0  0  2  0  0  0  0  0  0
  1  2  1  0
  1  4  1  0
  1  3  1  0
  2  4  1  0
  2  3  1  0
  5  6  1  0
  5  3  1  0
  7 18  2  0
  7 33  1  0
  8  6  1  0
  8 13  1  0
  9 17  1  0
  9 19  1  0
 10 16  1  0
 10 12  1  0
 11 17  1  0
 12 13  2  0
 12 11  1  0
 14  8  2  0
 15 14  1  0
 15 10  2  0
 16  9  1  0
 17  7  1  0
 19 21  2  0
 20 19  1  0
 20 24  1  0
 22 20  1  0
 23 32  2  0
 23 28  1  0
 24 28  1  0
 25 24  1  0
 26 27  1  0
 26 25  1  0
 27 23  1  0
 28 29  2  0
 29 30  1  0
 31 30  2  0
 32 31  1  0
 33 38  1  0
 33 34  1  0
 34 37  1  1
 34 35  1  0
 36 34  1  0
 38 41  1  0
 39 43  1  0
 39 38  1  0
 40 39  2  0
 42 43  1  0
 45 43  1  0
 45 46  1  0
 45 44  1  0
 47 56  2  0
 47  4  1  0
 48 56  1  0
 49 54  1  0
 50 51  1  0
 50 49  1  0
 51 52  1  0
 52 61  1  0
 52 53  1  0
 54 48  1  0
 54 53  1  0
 55 48  2  0
 56 57  1  0
 58 59  2  0
 59 78  1  0
 60 59  1  0
 60 63  1  0
 61 58  1  0
 61 62  1  0
 62 60  2  0
 63 64  1  0
 64 65  2  0
 66 69  1  0
 66 65  1  0
 67 66  2  0
 68 67  1  0
 68 63  2  0
 69 70  1  0
 70 71  1  0
 71 72  2  0
 73 72  1  0
 73 77  1  0
 74 73  2  0
 75 70  2  0
 75 74  1  0
 76 75  1  0
 78 79  1  0
 79 82  1  0
 79 81  1  0
 80 78  2  0
 83 84  1  0
 83 58  1  0
 85 83  1  0
 86 47  1  0
 87 88  1  0
 88 86  1  0
M  ISO  4   5 101   6 101  48 100  56 100
M  END
>  <TORSDO>  (81) 
F 20

>  <SCORE>  (81) 
-15.742

>  <name>  (81) 
80

>  <ligand_id>  (81) 
80

>  <original_smiles>  (81) 
[H]c1c([H])c([H])c2c(c1[H])C([H])([H])C([H])([H])C([H])([H])C2([H])N([H])C(=O)C1([H])N(C(=O)C([H])(N([H])C(=O)C([H])(N([H])C([H])([H])[H])C([H])([H])[H])C(C([H])([H])[H])(C([H])([H])[H])C([H])([H])[H])C([H])([H])c2c([H])c(OC([H])([H])C3([H])C([H])([H])C([H])(C([H])(N([H])C(=O)N4C([H])([H])C([H])([H])C([H])([H])C([H])(n5nc(-c6c([H])c([H])c(Oc7c([H])c([H])c(F)c([H])c7F)c([H])c6[H])c(C(=O)N([H])[H])c5N([H])[H])C4([H])[H])C([H])([H])C([H])([H])C([H])([H])[H])C3([H])[H])c([H])c([H])c2C1([H])[H]

>  <smiles>  (81) 
[H]c1c([H])c([H])c2c(c1[H])C([H])([H])C([H])([H])C([H])([H])C2([H])N([H])C(=O)C1([H])N(C(=O)C([H])(N([H])C(=O)C([H])(N([H])C([H])([H])[H])C([H])([H])[H])C(C([H])([H])[H])(C([H])([H])[H])C([H])([H])[H])C([H])([H])c2c([H])c(OC([H])([H])C3([H])C([H])([H])C([H])(C([H])(N([H])C(=O)N4C([H])([H])C([H])([H])C([H])([H])C([H])(n5nc(-c6c([H])c([H])c(Oc7c([H])c([H])c(F)c([H])c7F)c([H])c6[H])c(C(=O)N([H])[H])c5N([H])[H])C4([H])[H])C([H])([H])C([H])([H])C([H])([H])[H])C3([H])[H])c([H])c([H])c2C1([H])[H]

$$$$
81:0:0
     RDKit          3D

 91 99  0  0  1  0  0  0  0  0999 V2000
  -30.8240  -18.9780   19.7000 C   0  0  0  0  0  2  0  0  0  0  0  0
  -30.6310  -20.5000   20.1630 C   0  0  0  0  0  2  0  0  0  0  0  0
  -28.6050  -19.9260   21.2700 C   0  0  0  0  0  2  0  0  0  0  0  0
  -30.1130  -17.8170   20.5190 C   0  0  0  0  0  3  0  0  0  0  0  0
  -28.6670  -18.4240   20.7690 C   0  0  0  0  0  3  0  0  0  0  0  0
  -27.6950  -18.2740   19.5800 C   0  0  0  0  0  1  0  0  0  0  0  0
  -29.2070  -20.9530   20.3490 N   0  0  1  0  0  4  0  0  0  0  0  0
  -28.7360  -20.8560   19.4620 H   0  0  0  0  0  0  0  0  0  0  0  0
  -28.9490  -22.4160   20.8260 C   0  0  0  0  0  2  0  0  0  0  0  0
  -28.6880  -23.6740   19.8200 C   0  0  0  0  0  3  0  0  0  0  0  0
  -28.1120  -25.0690   20.4480 C   0  0  0  0  0  3  0  0  0  0  0  0
  -28.1630  -26.4130   19.7700 O   0  0  0  0  0  0  0  0  0  0  0  0
  -24.5250  -31.7410   23.1420 C   0  0  0  0  0  0  0  0  0  0  0  0
  -27.0520  -27.2830   19.8440 C   0  0  0  0  0  0  0  0  0  0  0  0
  -23.2790  -30.4240   21.4650 C   0  0  0  0  0  3  0  0  0  0  0  0
  -24.6950  -28.9240   19.9430 C   0  0  0  0  0  0  0  0  0  0  0  0
  -25.8170  -30.7370   21.2390 C   0  0  0  0  0  2  0  0  0  0  0  0
  -25.8800  -29.3820   20.5340 C   0  0  0  0  0  0  0  0  0  0  0  0
  -27.0630  -28.5760   20.4680 C   0  0  0  0  0  3  0  0  0  0  0  0
  -25.8430  -26.8850   19.2360 C   0  0  0  0  0  3  0  0  0  0  0  0
  -24.6810  -27.6840   19.2820 C   0  0  0  0  0  3  0  0  0  0  0  0
  -23.4630  -29.8040   20.0530 C   0  0  0  0  0  2  0  0  0  0  0  0
  -24.5610  -30.9830   22.0060 N   0  0  0  0  0  0  0  0  0  0  0  0
  -23.4560  -31.9970   23.7140 O   0  0  0  0  0  0  0  0  0  0  0  0
  -22.6300  -29.3710   22.3950 C   0  0  0  0  0  0  0  0  0  0  0  0
  -21.3000  -29.2050   22.2890 N   0  0  0  0  0  0  0  0  0  0  0  0
  -23.3210  -28.7080   23.1730 O   0  0  0  0  0  0  0  0  0  0  0  0
  -20.7990  -29.7920   21.6360 H   0  0  0  0  0  0  0  0  0  0  0  0
  -17.9310  -27.9910   22.8040 C   0  0  0  0  0  0  0  0  0  0  0  0
  -20.4950  -28.2340   23.0320 C   0  0  0  0  0  3  0  0  0  0  0  0
  -20.5820  -26.8300   22.3880 C   0  0  0  0  0  2  0  0  0  0  0  0
  -19.4580  -26.5560   21.3840 C   0  0  0  0  0  2  0  0  0  0  0  0
  -18.0910  -26.6740   22.0630 C   0  0  0  0  0  2  0  0  0  0  0  0
  -19.0600  -28.7310   23.2460 C   0  0  0  0  0  0  0  0  0  0  0  0
  -18.8570  -29.9650   23.9000 C   0  0  0  0  0  3  0  0  0  0  0  0
  -17.5580  -30.4600   24.1140 C   0  0  0  0  0  3  0  0  0  0  0  0
  -16.4430  -29.7170   23.6900 C   0  0  0  0  0  3  0  0  0  0  0  0
  -16.6310  -28.4840   23.0410 C   0  0  0  0  0  3  0  0  0  0  0  0
  -25.8240  -32.3400   23.7660 C   0  0  0  0  0  3  0  0  0  0  0  0
  -25.5410  -33.7360   24.1310 N   0  0  0  0  0  0  0  0  0  0  0  0
  -25.8930  -34.8020   23.3990 C   0  0  0  0  0  0  0  0  0  0  0  0
  -26.5590  -34.7110   22.3640 O   0  0  0  0  0  0  0  0  0  0  0  0
  -24.9500  -33.8820   24.9370 H   0  0  0  0  0  0  0  0  0  0  0  0
  -24.2290  -36.6580   23.0660 C   0  0  0  0  0  1  0  0  0  0  0  0
  -25.4360  -36.1880   23.8930 C   0  0  0  0  0  3  0  0  0  0  0  0
  -27.5660  -36.9870   24.8170 C   0  0  0  0  0  1  0  0  0  0  0  0
  -26.5020  -37.2120   23.8440 N   0  0  0  0  0  0  0  0  0  0  0  0
  -26.1180  -38.1390   24.0030 H   0  0  0  0  0  0  0  0  0  0  0  0
  -26.3390  -31.5330   25.0210 C   0  0  1  0  0  0  0  0  0  0  0  0
  -25.2520  -31.2930   26.0940 C   0  0  0  0  0  1  0  0  0  0  0  0
  -26.8930  -30.1530   24.5960 C   0  0  0  0  0  1  0  0  0  0  0  0
  -27.5100  -32.2920   25.6880 C   0  0  0  0  0  1  0  0  0  0  0  0
  -30.1080  -16.2600   19.9320 C   0  0  0  0  0  3  0  0  0  0  0  0
  -30.9860  -14.9780   20.4380 C   0  0  0  0  0  0  0  0  0  0  0  0
  -30.9400  -12.5740   19.7600 C   0  0  0  0  0  2  0  0  0  0  0  0
  -30.0980  -12.4540   18.4670 C   0  0  0  0  0  2  0  0  0  0  0  0
  -28.5940  -12.3190   18.7880 C   0  0  0  0  0  2  0  0  0  0  0  0
  -28.1050  -13.3220   19.8670 C   0  0  0  0  0  3  0  0  0  0  0  0
  -29.0800  -13.4050   21.0590 C   0  0  0  0  0  2  0  0  0  0  0  0
  -30.4190  -13.7210   20.5400 N   0  0  0  0  0  0  0  0  0  0  0  0
  -32.2160  -15.0650   20.3950 O   0  0  0  0  0  0  0  0  0  0  0  0
  -25.6930  -13.9590   20.4590 C   0  0  0  0  0  0  0  0  0  0  0  0
  -24.5950  -13.2090   20.7680 C   0  0  0  0  0  0  0  0  0  0  0  0
  -25.0380  -11.8510   20.7810 C   0  0  0  0  0  0  0  0  0  0  0  0
  -26.7340  -13.0610   20.2900 N   0  0  0  0  0  0  0  0  0  0  0  0
  -26.3430  -11.7880   20.5510 N   0  0  0  0  0  0  0  0  0  0  0  0
  -24.2810  -10.6030   20.9370 C   0  0  0  0  0  0  0  0  0  0  0  0
  -24.6330   -9.6460   21.9150 C   0  0  0  0  0  3  0  0  0  0  0  0
  -23.8780   -8.4620   22.0590 C   0  0  0  0  0  3  0  0  0  0  0  0
  -22.7590   -8.2270   21.2230 C   0  0  0  0  0  0  0  0  0  0  0  0
  -22.4280   -9.1730   20.2360 C   0  0  0  0  0  3  0  0  0  0  0  0
  -23.1850  -10.3480   20.0900 C   0  0  0  0  0  3  0  0  0  0  0  0
  -21.9840   -7.0940   21.2750 O   0  0  0  0  0  0  0  0  0  0  0  0
  -21.8340   -6.3780   22.4350 C   0  0  0  0  0  0  0  0  0  0  0  0
  -21.2750   -6.9500   23.5980 C   0  0  0  0  0  3  0  0  0  0  0  0
  -21.0720   -6.1580   24.7450 C   0  0  0  0  0  3  0  0  0  0  0  0
  -21.4200   -4.7930   24.7290 C   0  0  0  0  0  0  0  0  0  0  0  0
  -21.9740   -4.2210   23.5700 C   0  0  0  0  0  3  0  0  0  0  0  0
  -22.1770   -5.0100   22.4250 C   0  0  0  0  0  0  0  0  0  0  0  0
  -22.6900   -4.4480   21.3040 F   0  0  0  0  0  0  0  0  0  0  0  0
  -21.2210   -4.0310   25.8290 F   0  0  0  0  0  0  0  0  0  0  0  0
  -23.1920  -13.7120   20.9480 C   0  0  0  0  0  0  0  0  0  0  0  0
  -22.4040  -13.0440   21.7820 N   0  0  0  0  0  0  0  0  0  0  0  0
  -22.8000  -14.7330   20.3830 O   0  0  0  0  0  0  0  0  0  0  0  0
  -22.7340  -12.2190   22.2610 H   0  0  0  0  0  0  0  0  0  0  0  0
  -21.4580  -13.3610   21.9450 H   0  0  0  0  0  0  0  0  0  0  0  0
  -25.8870  -15.3260   20.2810 N   0  0  0  0  0  0  0  0  0  0  0  0
  -25.1250  -15.9920   20.3470 H   0  0  0  0  0  0  0  0  0  0  0  0
  -26.7650  -15.7540   20.0220 H   0  0  0  0  0  0  0  0  0  0  0  0
  -31.5240  -16.3730   17.6850 C   0  0  0  0  0  1  0  0  0  0  0  0
  -30.1430  -16.2880   18.3670 C   0  0  0  0  0  2  0  0  0  0  0  0
  1  2  1  0
  1  4  1  0
  2  7  1  0
  4 53  1  0
  4  5  1  0
  5  6  1  0
  5  3  1  0
  7  9  1  0
  7  3  1  0
  7  8  1  6
 10 11  2  0
 10  9  1  0
 12 14  1  0
 12 11  1  0
 13 24  2  0
 14 19  1  0
 15 23  1  0
 15 25  1  0
 16 22  1  0
 16 18  1  0
 17 23  1  0
 18 17  1  0
 19 18  2  0
 20 21  1  0
 20 14  2  0
 21 16  2  0
 22 15  1  0
 23 13  1  0
 25 27  2  0
 26 25  1  0
 28 26  1  0
 29 38  2  0
 29 34  1  0
 30 26  1  0
 30 34  1  0
 31 30  1  0
 32 33  1  0
 32 31  1  0
 33 29  1  0
 34 35  2  0
 35 36  1  0
 37 36  2  0
 38 37  1  0
 39 13  1  0
 39 40  1  0
 39 49  1  0
 40 43  1  0
 41 45  1  0
 41 40  1  0
 42 41  2  0
 45 44  1  0
 47 45  1  0
 47 48  1  0
 47 46  1  0
 49 52  1  1
 49 50  1  0
 51 49  1  0
 53 91  1  0
 53 54  1  0
 54 60  1  0
 55 60  1  0
 56 57  1  0
 56 55  1  0
 58 57  1  0
 58 65  1  0
 58 59  1  0
 60 59  1  0
 61 54  2  0
 62 63  2  0
 63 64  1  0
 63 82  1  0
 64 67  1  0
 65 62  1  0
 65 66  1  0
 66 64  2  0
 67 68  1  0
 68 69  2  0
 70 73  1  0
 70 69  1  0
 71 70  2  0
 72 71  1  0
 72 67  2  0
 73 74  1  0
 74 75  1  0
 75 76  2  0
 77 76  1  0
 77 81  1  0
 78 77  2  0
 79 74  2  0
 79 78  1  0
 80 79  1  0
 82 83  1  0
 83 86  1  0
 83 85  1  0
 84 82  2  0
 87 88  1  0
 87 62  1  0
 89 87  1  0
 90 91  1  0
M  ISO  4  11 101  12 101  53 100  54 100
M  END
>  <TORSDO>  (82) 
F 21

>  <SCORE>  (82) 
-11.981

>  <name>  (82) 
81

>  <ligand_id>  (82) 
81

>  <original_smiles>  (82) 
[H]c1c([H])c([H])c2c(c1[H])C([H])([H])C([H])([H])C([H])([H])C2([H])N([H])C(=O)C1([H])N(C(=O)C([H])(N([H])C(=O)C([H])(N([H])C([H])([H])[H])C([H])([H])[H])C(C([H])([H])[H])(C([H])([H])[H])C([H])([H])[H])C([H])([H])c2c([H])c(OC([H])([H])C([H])([H])C([H])([H])[N+]3([H])C([H])([H])C([H])([H])C([H])(C([H])(C(=O)N4C([H])([H])C([H])([H])C([H])([H])C([H])(n5nc(-c6c([H])c([H])c(Oc7c([H])c([H])c(F)c([H])c7F)c([H])c6[H])c(C(=O)N([H])[H])c5N([H])[H])C4([H])[H])C([H])([H])C([H])([H])[H])C([H])(C([H])([H])[H])C3([H])[H])c([H])c([H])c2C1([H])[H]

>  <smiles>  (82) 
[H]c1c([H])c([H])c2c(c1[H])C([H])([H])C([H])([H])C([H])([H])C2([H])N([H])C(=O)C1([H])N(C(=O)C([H])(N([H])C(=O)C([H])(N([H])C([H])([H])[H])C([H])([H])[H])C(C([H])([H])[H])(C([H])([H])[H])C([H])([H])[H])C([H])([H])c2c([H])c(OC([H])([H])C([H])([H])C([H])([H])[N+]3([H])C([H])([H])C([H])([H])C([H])(C([H])(C(=O)N4C([H])([H])C([H])([H])C([H])([H])C([H])(n5nc(-c6c([H])c([H])c(Oc7c([H])c([H])c(F)c([H])c7F)c([H])c6[H])c(C(=O)N([H])[H])c5N([H])[H])C4([H])[H])C([H])([H])C([H])([H])[H])C([H])(C([H])([H])[H])C3([H])[H])c([H])c([H])c2C1([H])[H]

$$$$
82:0:0
     RDKit          3D

 88 96  0  0  1  0  0  0  0  0999 V2000
  -29.0400  -21.1420   19.6500 C   0  0  0  0  0  0  0  0  0  0  0  0
  -29.0010  -21.2250   18.4210 O   0  0  0  0  0  0  0  0  0  0  0  0
  -30.5930  -15.3640   19.6340 C   0  0  0  0  0  0  0  0  0  0  0  0
  -30.4190  -12.9490   18.6930 C   0  0  0  0  0  2  0  0  0  0  0  0
  -29.3570  -12.7770   17.5790 C   0  0  0  0  0  2  0  0  0  0  0  0
  -27.9790  -12.4800   18.1910 C   0  0  0  0  0  2  0  0  0  0  0  0
  -27.6720  -13.4050   19.3950 C   0  0  0  0  0  3  0  0  0  0  0  0
  -28.8520  -13.5420   20.3830 C   0  0  0  0  0  2  0  0  0  0  0  0
  -29.9900  -14.0700   19.6150 N   0  0  0  0  0  0  0  0  0  0  0  0
  -31.7560  -15.3290   19.2010 O   0  0  0  0  0  0  0  0  0  0  0  0
  -30.6290  -19.0790   20.8850 C   0  0  0  0  0  2  0  0  0  0  0  0
  -29.3500  -17.9830   19.3630 C   0  0  0  0  0  2  0  0  0  0  0  0
  -29.3060  -19.4890   20.2120 C   0  0  0  0  0  3  0  0  0  0  0  0
  -30.6780  -17.4830   21.1250 C   0  0  0  0  0  3  0  0  0  0  0  0
  -29.9920  -16.6730   20.0590 N   0  0  0  0  0  0  0  0  0  0  0  0
  -25.4410  -13.9140   20.5140 C   0  0  0  0  0  0  0  0  0  0  0  0
  -24.4260  -13.1170   20.9600 C   0  0  0  0  0  0  0  0  0  0  0  0
  -24.8600  -11.7700   20.7600 C   0  0  0  0  0  0  0  0  0  0  0  0
  -26.4240  -13.0540   20.0600 N   0  0  0  0  0  0  0  0  0  0  0  0
  -26.0970  -11.7530   20.2730 N   0  0  0  0  0  0  0  0  0  0  0  0
  -24.1410  -10.5020   20.9470 C   0  0  0  0  0  0  0  0  0  0  0  0
  -24.6120   -9.5070   21.8310 C   0  0  0  0  0  3  0  0  0  0  0  0
  -23.8900   -8.3070   22.0110 C   0  0  0  0  0  3  0  0  0  0  0  0
  -22.6810   -8.0940   21.3060 C   0  0  0  0  0  0  0  0  0  0  0  0
  -22.2270   -9.0790   20.4110 C   0  0  0  0  0  3  0  0  0  0  0  0
  -22.9510  -10.2690   20.2280 C   0  0  0  0  0  3  0  0  0  0  0  0
  -21.9260   -6.9500   21.3980 O   0  0  0  0  0  0  0  0  0  0  0  0
  -21.8380   -6.2370   22.5670 C   0  0  0  0  0  0  0  0  0  0  0  0
  -21.3620   -6.8190   23.7620 C   0  0  0  0  0  3  0  0  0  0  0  0
  -21.2230   -6.0320   24.9220 C   0  0  0  0  0  3  0  0  0  0  0  0
  -21.5490   -4.6630   24.8890 C   0  0  0  0  0  0  0  0  0  0  0  0
  -22.0190   -4.0800   23.6990 C   0  0  0  0  0  3  0  0  0  0  0  0
  -22.1590   -4.8640   22.5410 C   0  0  0  0  0  0  0  0  0  0  0  0
  -22.5920   -4.2930   21.3900 F   0  0  0  0  0  0  0  0  0  0  0  0
  -21.4090   -3.9050   26.0010 F   0  0  0  0  0  0  0  0  0  0  0  0
  -23.0860  -13.5820   21.4530 C   0  0  0  0  0  0  0  0  0  0  0  0
  -22.4830  -12.8440   22.3770 N   0  0  0  0  0  0  0  0  0  0  0  0
  -22.5910  -14.6350   21.0520 O   0  0  0  0  0  0  0  0  0  0  0  0
  -22.9010  -11.9920   22.7200 H   0  0  0  0  0  0  0  0  0  0  0  0
  -21.5910  -13.1370   22.7500 H   0  0  0  0  0  0  0  0  0  0  0  0
  -25.6050  -15.2940   20.4270 N   0  0  0  0  0  0  0  0  0  0  0  0
  -24.8760  -15.9420   20.7050 H   0  0  0  0  0  0  0  0  0  0  0  0
  -26.4220  -15.7550   20.0480 H   0  0  0  0  0  0  0  0  0  0  0  0
  -30.8560  -17.6520   23.6980 C   0  0  0  0  0  1  0  0  0  0  0  0
  -30.0750  -17.1020   22.4960 C   0  0  0  0  0  2  0  0  0  0  0  0
  -28.8040  -22.6890   20.4490 C   0  0  0  0  0  2  0  0  0  0  0  0
  -28.0750  -24.2680   19.9300 C   0  0  0  0  0  2  0  0  0  0  0  0
  -28.1780  -25.8590   20.3870 O   0  0  0  0  0  0  0  0  0  0  0  0
  -24.5990  -31.8530   23.2540 C   0  0  0  0  0  0  0  0  0  0  0  0
  -27.1730  -26.9590   20.2730 C   0  0  0  0  0  0  0  0  0  0  0  0
  -23.4180  -30.4510   21.6120 C   0  0  0  0  0  3  0  0  0  0  0  0
  -24.8770  -28.8430   20.2000 C   0  0  0  0  0  0  0  0  0  0  0  0
  -25.9850  -30.6590   21.4850 C   0  0  0  0  0  2  0  0  0  0  0  0
  -26.0580  -29.2470   20.8320 C   0  0  0  0  0  0  0  0  0  0  0  0
  -27.1980  -28.3250   20.8470 C   0  0  0  0  0  3  0  0  0  0  0  0
  -25.9670  -26.7120   19.5810 C   0  0  0  0  0  3  0  0  0  0  0  0
  -24.8570  -27.5970   19.5520 C   0  0  0  0  0  3  0  0  0  0  0  0
  -23.6560  -29.7630   20.2390 C   0  0  0  0  0  2  0  0  0  0  0  0
  -24.6890  -31.0150   22.1700 N   0  0  0  0  0  0  0  0  0  0  0  0
  -23.5060  -32.1460   23.7640 O   0  0  0  0  0  0  0  0  0  0  0  0
  -22.7160  -29.4580   22.5770 C   0  0  0  0  0  0  0  0  0  0  0  0
  -21.3890  -29.2870   22.4370 N   0  0  0  0  0  0  0  0  0  0  0  0
  -23.3750  -28.8420   23.4190 O   0  0  0  0  0  0  0  0  0  0  0  0
  -20.9120  -29.8350   21.7350 H   0  0  0  0  0  0  0  0  0  0  0  0
  -18.0070  -28.0600   22.9090 C   0  0  0  0  0  0  0  0  0  0  0  0
  -20.5600  -28.3520   23.2070 C   0  0  0  0  0  3  0  0  0  0  0  0
  -20.6820  -26.9140   22.6490 C   0  0  0  0  0  2  0  0  0  0  0  0
  -19.5970  -26.5720   21.6220 C   0  0  0  0  0  2  0  0  0  0  0  0
  -18.2050  -26.7080   22.2450 C   0  0  0  0  0  2  0  0  0  0  0  0
  -19.1120  -28.8390   23.3460 C   0  0  0  0  0  0  0  0  0  0  0  0
  -18.8710  -30.1020   23.9290 C   0  0  0  0  0  3  0  0  0  0  0  0
  -17.5580  -30.5870   24.0790 C   0  0  0  0  0  3  0  0  0  0  0  0
  -16.4680  -29.8070   23.6550 C   0  0  0  0  0  3  0  0  0  0  0  0
  -16.6930  -28.5450   23.0770 C   0  0  0  0  0  3  0  0  0  0  0  0
  -25.8660  -32.4980   23.8930 C   0  0  0  0  0  3  0  0  0  0  0  0
  -26.3400  -31.7590   25.2060 C   0  0  1  0  0  0  0  0  0  0  0  0
  -25.2160  -31.5580   26.2500 C   0  0  0  0  0  1  0  0  0  0  0  0
  -26.9250  -30.3680   24.8770 C   0  0  0  0  0  1  0  0  0  0  0  0
  -27.4790  -32.5640   25.8750 C   0  0  0  0  0  1  0  0  0  0  0  0
  -25.5540  -33.9080   24.1900 N   0  0  0  0  0  0  0  0  0  0  0  0
  -25.8970  -34.9500   23.4210 C   0  0  0  0  0  0  0  0  0  0  0  0
  -26.5700  -34.8240   22.3950 O   0  0  0  0  0  0  0  0  0  0  0  0
  -24.9520  -34.0780   24.9820 H   0  0  0  0  0  0  0  0  0  0  0  0
  -24.1750  -36.7500   23.0480 C   0  0  0  0  0  1  0  0  0  0  0  0
  -25.4210  -36.3520   23.8560 C   0  0  0  0  0  3  0  0  0  0  0  0
  -27.5640  -37.2460   24.6530 C   0  0  0  0  0  1  0  0  0  0  0  0
  -26.4570  -37.3970   23.7140 N   0  0  0  0  0  0  0  0  0  0  0  0
  -26.0560  -38.3220   23.8420 H   0  0  0  0  0  0  0  0  0  0  0  0
  1 46  1  0
  2  1  2  0
  3 15  1  0
  4  9  1  0
  5  6  1  0
  5  4  1  0
  7  6  1  0
  7 19  1  0
  7  8  1  0
  9  3  1  0
  9  8  1  0
 10  3  2  0
 11 14  1  0
 12 15  1  0
 12 13  1  0
 13  1  1  0
 13 11  1  0
 14 45  1  0
 15 14  1  0
 16 17  2  0
 17 36  1  0
 18 21  1  0
 18 17  1  0
 19 20  1  0
 19 16  1  0
 20 18  2  0
 21 22  1  0
 22 23  2  0
 24 27  1  0
 24 23  1  0
 25 24  2  0
 26 25  1  0
 26 21  2  0
 27 28  1  0
 28 29  1  0
 29 30  2  0
 31 30  1  0
 31 35  1  0
 32 31  2  0
 33 28  2  0
 33 32  1  0
 34 33  1  0
 36 37  1  0
 37 39  1  0
 37 40  1  0
 38 36  2  0
 41 16  1  0
 41 42  1  0
 43 41  1  0
 45 44  1  0
 47 48  1  0
 47 46  1  0
 49 60  2  0
 50 48  1  0
 50 55  1  0
 51 59  1  0
 51 61  1  0
 52 58  1  0
 52 54  1  0
 53 59  1  0
 54 55  2  0
 54 53  1  0
 56 50  2  0
 57 56  1  0
 57 52  2  0
 58 51  1  0
 59 49  1  0
 61 63  2  0
 62 61  1  0
 64 62  1  0
 65 74  2  0
 65 70  1  0
 66 62  1  0
 66 70  1  0
 67 66  1  0
 68 69  1  0
 68 67  1  0
 69 65  1  0
 70 71  2  0
 71 72  1  0
 73 72  2  0
 74 73  1  0
 75 49  1  0
 75 80  1  0
 75 76  1  0
 76 79  1  1
 76 77  1  0
 78 76  1  0
 80 83  1  0
 81 85  1  0
 81 80  1  0
 82 81  2  0
 85 84  1  0
 87 88  1  0
 87 85  1  0
 87 86  1  0
M  ISO  4   3 100  15 100  47 101  48 101
M  END
>  <TORSDO>  (83) 
F 19

>  <SCORE>  (83) 
-14.346

>  <name>  (83) 
82

>  <ligand_id>  (83) 
82

>  <original_smiles>  (83) 
[H]c1c([H])c([H])c2c(c1[H])C([H])([H])C([H])([H])C([H])([H])C2([H])N([H])C(=O)C1([H])N(C(=O)C([H])(N([H])C(=O)C([H])(N([H])C([H])([H])[H])C([H])([H])[H])C(C([H])([H])[H])(C([H])([H])[H])C([H])([H])[H])C([H])([H])c2c([H])c(OC([H])([H])C([H])([H])C(=O)C3([H])C([H])([H])N(C(=O)N4C([H])([H])C([H])([H])C([H])([H])C([H])(n5nc(-c6c([H])c([H])c(Oc7c([H])c([H])c(F)c([H])c7F)c([H])c6[H])c(C(=O)N([H])[H])c5N([H])[H])C4([H])[H])C([H])(C([H])([H])C([H])([H])[H])C3([H])[H])c([H])c([H])c2C1([H])[H]

>  <smiles>  (83) 
[H]c1c([H])c([H])c2c(c1[H])C([H])([H])C([H])([H])C([H])([H])C2([H])N([H])C(=O)C1([H])N(C(=O)C([H])(N([H])C(=O)C([H])(N([H])C([H])([H])[H])C([H])([H])[H])C(C([H])([H])[H])(C([H])([H])[H])C([H])([H])[H])C([H])([H])c2c([H])c(OC([H])([H])C([H])([H])C(=O)C3([H])C([H])([H])N(C(=O)N4C([H])([H])C([H])([H])C([H])([H])C([H])(n5nc(-c6c([H])c([H])c(Oc7c([H])c([H])c(F)c([H])c7F)c([H])c6[H])c(C(=O)N([H])[H])c5N([H])[H])C4([H])[H])C([H])(C([H])([H])C([H])([H])[H])C3([H])[H])c([H])c([H])c2C1([H])[H]

$$$$
83:0:0
     RDKit          3D

 85 93  0  0  1  0  0  0  0  0999 V2000
  -28.8740  -22.1500   20.4190 C   0  0  0  0  0  0  0  0  0  0  0  0
  -29.7360  -22.3670   21.2770 O   0  0  0  0  0  0  0  0  0  0  0  0
  -30.2920  -15.7910   20.1180 C   0  0  0  0  0  0  0  0  0  0  0  0
  -30.3970  -13.2310   19.2990 C   0  0  0  0  0  2  0  0  0  0  0  0
  -29.5160  -12.8120   18.0870 C   0  0  0  0  0  2  0  0  0  0  0  0
  -28.0960  -12.4410   18.5460 C   0  0  0  0  0  2  0  0  0  0  0  0
  -27.5810  -13.4300   19.6210 C   0  0  0  0  0  3  0  0  0  0  0  0
  -28.6170  -13.7620   20.7220 C   0  0  0  0  0  2  0  0  0  0  0  0
  -29.7580  -14.4200   20.0400 N   0  0  0  0  0  0  0  0  0  0  0  0
  -31.5270  -15.6790   19.9570 O   0  0  0  0  0  0  0  0  0  0  0  0
  -27.8110  -19.2490   20.4570 C   0  0  0  0  0  2  0  0  0  0  0  0
  -28.1540  -17.6350   20.2460 C   0  0  0  0  0  2  0  0  0  0  0  0
  -30.0140  -18.8760   20.1650 C   0  0  0  0  0  2  0  0  0  0  0  0
  -28.8860  -20.3040   19.9500 C   0  0  0  0  0  3  0  0  0  0  0  0
  -29.6070  -17.2240   20.1750 N   0  0  0  0  0  0  0  0  0  0  0  0
  -25.2330  -13.9230   20.4330 C   0  0  0  0  0  0  0  0  0  0  0  0
  -24.1900  -13.1310   20.8120 C   0  0  0  0  0  0  0  0  0  0  0  0
  -24.6750  -11.7860   20.7660 C   0  0  0  0  0  0  0  0  0  0  0  0
  -26.2820  -13.0670   20.1630 N   0  0  0  0  0  0  0  0  0  0  0  0
  -25.9660  -11.7740   20.4360 N   0  0  0  0  0  0  0  0  0  0  0  0
  -23.9650  -10.5150   20.9570 C   0  0  0  0  0  0  0  0  0  0  0  0
  -24.3920   -9.5610   21.9050 C   0  0  0  0  0  3  0  0  0  0  0  0
  -23.6720   -8.3610   22.0900 C   0  0  0  0  0  3  0  0  0  0  0  0
  -22.5110   -8.1030   21.3260 C   0  0  0  0  0  0  0  0  0  0  0  0
  -22.0980   -9.0500   20.3710 C   0  0  0  0  0  3  0  0  0  0  0  0
  -22.8180  -10.2410   20.1840 C   0  0  0  0  0  3  0  0  0  0  0  0
  -21.7630   -6.9530   21.4180 O   0  0  0  0  0  0  0  0  0  0  0  0
  -21.6840   -6.2380   22.5860 C   0  0  0  0  0  0  0  0  0  0  0  0
  -21.1700   -6.8050   23.7740 C   0  0  0  0  0  3  0  0  0  0  0  0
  -21.0450   -6.0130   24.9330 C   0  0  0  0  0  3  0  0  0  0  0  0
  -21.4220   -4.6560   24.9050 C   0  0  0  0  0  0  0  0  0  0  0  0
  -21.9250   -4.0890   23.7210 C   0  0  0  0  0  3  0  0  0  0  0  0
  -22.0540   -4.8790   22.5650 C   0  0  0  0  0  0  0  0  0  0  0  0
  -22.5240   -4.3230   21.4210 F   0  0  0  0  0  0  0  0  0  0  0  0
  -21.2890   -3.8920   26.0140 F   0  0  0  0  0  0  0  0  0  0  0  0
  -22.7900  -13.5920   21.0890 C   0  0  0  0  0  0  0  0  0  0  0  0
  -22.0810  -12.9050   21.9760 N   0  0  0  0  0  0  0  0  0  0  0  0
  -22.3360  -14.6050   20.5540 O   0  0  0  0  0  0  0  0  0  0  0  0
  -22.4640  -12.0900   22.4340 H   0  0  0  0  0  0  0  0  0  0  0  0
  -21.1420  -13.2000   22.2000 H   0  0  0  0  0  0  0  0  0  0  0  0
  -25.3680  -15.2970   20.2600 N   0  0  0  0  0  0  0  0  0  0  0  0
  -24.5810  -15.9250   20.3840 H   0  0  0  0  0  0  0  0  0  0  0  0
  -26.1920  -15.7620   19.9020 H   0  0  0  0  0  0  0  0  0  0  0  0
  -27.9580  -23.7510   19.9870 C   0  0  0  0  0  2  0  0  0  0  0  0
  -28.1390  -25.4960   20.3280 O   0  0  0  0  0  0  0  0  0  0  0  0
  -24.6780  -31.8520   23.2530 C   0  0  0  0  0  0  0  0  0  0  0  0
  -27.1920  -26.7440   20.2480 C   0  0  0  0  0  0  0  0  0  0  0  0
  -23.4900  -30.4630   21.6110 C   0  0  0  0  0  3  0  0  0  0  0  0
  -24.9360  -28.8120   20.1910 C   0  0  0  0  0  0  0  0  0  0  0  0
  -26.0720  -30.5840   21.4990 C   0  0  0  0  0  2  0  0  0  0  0  0
  -26.1300  -29.1520   20.8340 C   0  0  0  0  0  0  0  0  0  0  0  0
  -27.2410  -28.1460   20.8330 C   0  0  0  0  0  3  0  0  0  0  0  0
  -25.9670  -26.6290   19.5390 C   0  0  0  0  0  3  0  0  0  0  0  0
  -24.8950  -27.5770   19.5200 C   0  0  0  0  0  3  0  0  0  0  0  0
  -23.7330  -29.7710   20.2370 C   0  0  0  0  0  2  0  0  0  0  0  0
  -24.7720  -31.0000   22.1730 N   0  0  0  0  0  0  0  0  0  0  0  0
  -23.5840  -32.1530   23.7620 O   0  0  0  0  0  0  0  0  0  0  0  0
  -22.7700  -29.4850   22.5770 C   0  0  0  0  0  0  0  0  0  0  0  0
  -21.4390  -29.3240   22.4430 N   0  0  0  0  0  0  0  0  0  0  0  0
  -23.4230  -28.8630   23.4170 O   0  0  0  0  0  0  0  0  0  0  0  0
  -20.9600  -29.8720   21.7430 H   0  0  0  0  0  0  0  0  0  0  0  0
  -18.0570  -28.0930   22.9420 C   0  0  0  0  0  0  0  0  0  0  0  0
  -20.6120  -28.3860   23.2160 C   0  0  0  0  0  3  0  0  0  0  0  0
  -20.7290  -26.9510   22.6520 C   0  0  0  0  0  2  0  0  0  0  0  0
  -19.6400  -26.6140   21.6300 C   0  0  0  0  0  2  0  0  0  0  0  0
  -18.2510  -26.7450   22.2640 C   0  0  0  0  0  2  0  0  0  0  0  0
  -19.1640  -28.8690   23.3740 C   0  0  0  0  0  0  0  0  0  0  0  0
  -18.9260  -30.1240   23.9740 C   0  0  0  0  0  3  0  0  0  0  0  0
  -17.6160  -30.6060   24.1430 C   0  0  0  0  0  3  0  0  0  0  0  0
  -16.5210  -29.8290   23.7230 C   0  0  0  0  0  3  0  0  0  0  0  0
  -16.7420  -28.5740   23.1280 C   0  0  0  0  0  3  0  0  0  0  0  0
  -25.9380  -32.5040   23.8970 C   0  0  0  0  0  3  0  0  0  0  0  0
  -25.6230  -33.9130   24.2090 N   0  0  0  0  0  0  0  0  0  0  0  0
  -25.9550  -34.9660   23.4500 C   0  0  0  0  0  0  0  0  0  0  0  0
  -26.6130  -34.8560   22.4140 O   0  0  0  0  0  0  0  0  0  0  0  0
  -25.0310  -34.0720   25.0110 H   0  0  0  0  0  0  0  0  0  0  0  0
  -24.2270  -36.7760   23.1290 C   0  0  0  0  0  1  0  0  0  0  0  0
  -25.4870  -36.3660   23.9100 C   0  0  0  0  0  3  0  0  0  0  0  0
  -27.6390  -37.2620   24.6830 C   0  0  0  0  0  1  0  0  0  0  0  0
  -26.5190  -37.4150   23.7580 N   0  0  0  0  0  0  0  0  0  0  0  0
  -26.1200  -38.3390   23.8990 H   0  0  0  0  0  0  0  0  0  0  0  0
  -26.4130  -31.7630   25.2090 C   0  0  1  0  0  0  0  0  0  0  0  0
  -25.2900  -31.5670   26.2550 C   0  0  0  0  0  1  0  0  0  0  0  0
  -26.9900  -30.3680   24.8840 C   0  0  0  0  0  1  0  0  0  0  0  0
  -27.5560  -32.5620   25.8790 C   0  0  0  0  0  1  0  0  0  0  0  0
  1  2  2  0
  3 15  1  0
  4  9  1  0
  5  6  1  0
  5  4  1  0
  7  6  1  0
  7 19  1  0
  7  8  1  0
  9  3  1  0
  9  8  1  0
 10  3  2  0
 12 11  1  0
 13 15  1  0
 14 13  1  0
 14  1  1  0
 14 11  1  0
 15 12  1  0
 16 17  2  0
 17 36  1  0
 18 17  1  0
 18 21  1  0
 19 16  1  0
 19 20  1  0
 20 18  2  0
 21 22  1  0
 22 23  2  0
 24 27  1  0
 24 23  1  0
 25 24  2  0
 26 25  1  0
 26 21  2  0
 27 28  1  0
 28 29  1  0
 29 30  2  0
 31 30  1  0
 31 35  1  0
 32 31  2  0
 33 28  2  0
 33 32  1  0
 34 33  1  0
 36 37  1  0
 37 40  1  0
 37 39  1  0
 38 36  2  0
 41 42  1  0
 41 16  1  0
 43 41  1  0
 44 45  1  0
 44  1  1  0
 46 57  2  0
 47 45  1  0
 47 52  1  0
 48 56  1  0
 48 58  1  0
 49 55  1  0
 49 51  1  0
 50 56  1  0
 51 50  1  0
 52 51  2  0
 53 47  2  0
 54 53  1  0
 54 49  2  0
 55 48  1  0
 56 46  1  0
 58 60  2  0
 59 58  1  0
 61 59  1  0
 62 71  2  0
 62 67  1  0
 63 59  1  0
 63 67  1  0
 64 63  1  0
 65 66  1  0
 65 64  1  0
 66 62  1  0
 67 68  2  0
 68 69  1  0
 70 69  2  0
 71 70  1  0
 72 46  1  0
 72 73  1  0
 72 82  1  0
 73 76  1  0
 74 78  1  0
 74 73  1  0
 75 74  2  0
 78 77  1  0
 80 81  1  0
 80 78  1  0
 80 79  1  0
 82 85  1  1
 82 83  1  0
 84 82  1  0
M  ISO  4   3 100  15 100  44 101  45 101
M  END
>  <TORSDO>  (84) 
F 17

>  <SCORE>  (84) 
-16.382

>  <name>  (84) 
83

>  <ligand_id>  (84) 
83

>  <original_smiles>  (84) 
[H]c1c([H])c([H])c2c(c1[H])C([H])([H])C([H])([H])C([H])([H])C2([H])N([H])C(=O)C1([H])N(C(=O)C([H])(N([H])C(=O)C([H])(N([H])C([H])([H])[H])C([H])([H])[H])C(C([H])([H])[H])(C([H])([H])[H])C([H])([H])[H])C([H])([H])c2c([H])c(OC([H])([H])C(=O)C3([H])C([H])([H])N(C(=O)N4C([H])([H])C([H])([H])C([H])([H])C([H])(n5nc(-c6c([H])c([H])c(Oc7c([H])c([H])c(F)c([H])c7F)c([H])c6[H])c(C(=O)N([H])[H])c5N([H])[H])C4([H])[H])C([H])([H])C3([H])[H])c([H])c([H])c2C1([H])[H]

>  <smiles>  (84) 
[H]c1c([H])c([H])c2c(c1[H])C([H])([H])C([H])([H])C([H])([H])C2([H])N([H])C(=O)C1([H])N(C(=O)C([H])(N([H])C(=O)C([H])(N([H])C([H])([H])[H])C([H])([H])[H])C(C([H])([H])[H])(C([H])([H])[H])C([H])([H])[H])C([H])([H])c2c([H])c(OC([H])([H])C(=O)C3([H])C([H])([H])N(C(=O)N4C([H])([H])C([H])([H])C([H])([H])C([H])(n5nc(-c6c([H])c([H])c(Oc7c([H])c([H])c(F)c([H])c7F)c([H])c6[H])c(C(=O)N([H])[H])c5N([H])[H])C4([H])[H])C([H])([H])C3([H])[H])c([H])c([H])c2C1([H])[H]

$$$$
84:0:0
     RDKit          3D

 91 99  0  0  1  0  0  0  0  0999 V2000
  -30.0530  -23.7480   19.2520 C   0  0  0  0  0  0  0  0  0  0  0  0
  -30.6510  -22.3510   19.2240 C   0  0  0  0  0  2  0  0  0  0  0  0
  -28.5790  -22.2250   20.4570 C   0  0  0  0  0  2  0  0  0  0  0  0
  -28.6550  -23.7250   19.8460 C   0  0  0  0  0  3  0  0  0  0  0  0
  -30.0100  -21.5350   20.3700 C   0  0  0  0  0  3  0  0  0  0  0  0
  -30.6510  -24.7740   18.8140 N   0  0  0  0  0  0  0  0  0  0  0  0
  -31.5740  -24.5520   18.4550 H   0  0  0  0  0  0  0  0  0  0  0  0
  -29.7860  -18.7560   20.4700 C   0  0  0  0  0  3  0  0  0  0  0  0
  -30.4450  -19.9790   20.3820 C   0  0  0  0  0  0  0  0  0  0  0  0
  -31.9730  -19.9390   20.2750 C   0  0  0  0  0  1  0  0  0  0  0  0
  -30.5480  -17.3420   20.4760 C   0  0  0  0  0  2  0  0  0  0  0  0
  -30.6450  -14.7720   20.3600 C   0  0  0  0  0  0  0  0  0  0  0  0
  -30.4150  -12.5110   19.3350 C   0  0  0  0  0  2  0  0  0  0  0  0
  -29.4790  -12.5940   18.1100 C   0  0  0  0  0  2  0  0  0  0  0  0
  -28.0110  -12.4200   18.5440 C   0  0  0  0  0  2  0  0  0  0  0  0
  -27.6380  -13.3000   19.7680 C   0  0  0  0  0  3  0  0  0  0  0  0
  -28.6990  -13.2160   20.8850 C   0  0  0  0  0  2  0  0  0  0  0  0
  -29.9890  -13.5650   20.2840 N   0  0  0  0  0  0  0  0  0  0  0  0
  -31.8400  -14.8320   20.0590 O   0  0  0  0  0  0  0  0  0  0  0  0
  -29.9290  -15.9470   20.5490 N   0  0  0  0  0  0  0  0  0  0  0  0
  -28.9400  -15.8690   20.7310 H   0  0  0  0  0  0  0  0  0  0  0  0
  -25.2470  -13.8740   20.4940 C   0  0  0  0  0  0  0  0  0  0  0  0
  -24.1860  -13.0930   20.8600 C   0  0  0  0  0  0  0  0  0  0  0  0
  -24.6580  -11.7450   20.8290 C   0  0  0  0  0  0  0  0  0  0  0  0
  -26.2970  -13.0020   20.2590 N   0  0  0  0  0  0  0  0  0  0  0  0
  -25.9490  -11.7160   20.5240 N   0  0  0  0  0  0  0  0  0  0  0  0
  -23.9380  -10.4770   21.0140 C   0  0  0  0  0  0  0  0  0  0  0  0
  -24.3560   -9.5230   21.9660 C   0  0  0  0  0  3  0  0  0  0  0  0
  -23.6360   -8.3210   22.1390 C   0  0  0  0  0  3  0  0  0  0  0  0
  -22.4840   -8.0650   21.3580 C   0  0  0  0  0  0  0  0  0  0  0  0
  -22.0850   -9.0080   20.3940 C   0  0  0  0  0  3  0  0  0  0  0  0
  -22.8060  -10.2010   20.2200 C   0  0  0  0  0  3  0  0  0  0  0  0
  -21.7370   -6.9150   21.4390 O   0  0  0  0  0  0  0  0  0  0  0  0
  -21.6420   -6.1980   22.6050 C   0  0  0  0  0  0  0  0  0  0  0  0
  -21.1240   -6.7680   23.7890 C   0  0  0  0  0  3  0  0  0  0  0  0
  -20.9800   -5.9760   24.9460 C   0  0  0  0  0  3  0  0  0  0  0  0
  -21.3430   -4.6160   24.9200 C   0  0  0  0  0  0  0  0  0  0  0  0
  -21.8550   -4.0460   23.7400 C   0  0  0  0  0  3  0  0  0  0  0  0
  -22.0020   -4.8360   22.5860 C   0  0  0  0  0  0  0  0  0  0  0  0
  -22.4740   -4.2760   21.4450 F   0  0  0  0  0  0  0  0  0  0  0  0
  -21.1990   -3.8530   26.0280 F   0  0  0  0  0  0  0  0  0  0  0  0
  -22.7850  -13.5600   21.1270 C   0  0  0  0  0  0  0  0  0  0  0  0
  -22.0550  -12.8500   21.9790 N   0  0  0  0  0  0  0  0  0  0  0  0
  -22.3470  -14.5910   20.6170 O   0  0  0  0  0  0  0  0  0  0  0  0
  -22.4240  -12.0160   22.4120 H   0  0  0  0  0  0  0  0  0  0  0  0
  -21.1140  -13.1430   22.2010 H   0  0  0  0  0  0  0  0  0  0  0  0
  -25.4030  -15.2460   20.3190 N   0  0  0  0  0  0  0  0  0  0  0  0
  -24.6270  -15.8920   20.4230 H   0  0  0  0  0  0  0  0  0  0  0  0
  -26.2440  -15.6910   19.9760 H   0  0  0  0  0  0  0  0  0  0  0  0
  -28.2510  -25.0420   20.7120 C   0  0  0  0  0  2  0  0  0  0  0  0
  -28.3650  -26.4550   20.2060 O   0  0  0  0  0  0  0  0  0  0  0  0
  -24.6080  -31.8860   23.2370 C   0  0  0  0  0  0  0  0  0  0  0  0
  -27.2430  -27.3070   20.2090 C   0  0  0  0  0  0  0  0  0  0  0  0
  -23.4160  -30.4800   21.5940 C   0  0  0  0  0  3  0  0  0  0  0  0
  -24.8760  -28.9250   20.1790 C   0  0  0  0  0  0  0  0  0  0  0  0
  -25.9550  -30.8070   21.4150 C   0  0  0  0  0  2  0  0  0  0  0  0
  -26.0430  -29.4220   20.7740 C   0  0  0  0  0  0  0  0  0  0  0  0
  -27.2320  -28.6270   20.7710 C   0  0  0  0  0  3  0  0  0  0  0  0
  -26.0530  -26.8650   19.5950 C   0  0  0  0  0  3  0  0  0  0  0  0
  -24.8850  -27.6550   19.5770 C   0  0  0  0  0  3  0  0  0  0  0  0
  -23.6380  -29.8010   20.2170 C   0  0  0  0  0  2  0  0  0  0  0  0
  -24.6790  -31.0760   22.1400 N   0  0  0  0  0  0  0  0  0  0  0  0
  -23.5200  -32.1580   23.7690 O   0  0  0  0  0  0  0  0  0  0  0  0
  -22.7520  -29.4650   22.5550 C   0  0  0  0  0  0  0  0  0  0  0  0
  -21.4270  -29.2810   22.4240 N   0  0  0  0  0  0  0  0  0  0  0  0
  -23.4300  -28.8430   23.3770 O   0  0  0  0  0  0  0  0  0  0  0  0
  -20.9390  -29.8350   21.7350 H   0  0  0  0  0  0  0  0  0  0  0  0
  -18.0510  -28.0810   22.9250 C   0  0  0  0  0  0  0  0  0  0  0  0
  -20.6090  -28.3410   23.1930 C   0  0  0  0  0  3  0  0  0  0  0  0
  -20.7110  -26.9120   22.6110 C   0  0  0  0  0  2  0  0  0  0  0  0
  -19.6090  -26.5910   21.5990 C   0  0  0  0  0  2  0  0  0  0  0  0
  -18.2270  -26.7350   22.2440 C   0  0  0  0  0  2  0  0  0  0  0  0
  -19.1690  -28.8420   23.3560 C   0  0  0  0  0  0  0  0  0  0  0  0
  -18.9500  -30.1020   23.9540 C   0  0  0  0  0  3  0  0  0  0  0  0
  -17.6450  -30.6010   24.1240 C   0  0  0  0  0  3  0  0  0  0  0  0
  -16.5400  -29.8380   23.7090 C   0  0  0  0  0  3  0  0  0  0  0  0
  -16.7440  -28.5790   23.1150 C   0  0  0  0  0  3  0  0  0  0  0  0
  -25.8830  -32.5260   23.8660 C   0  0  0  0  0  3  0  0  0  0  0  0
  -26.3900  -31.7670   25.1530 C   0  0  1  0  0  0  0  0  0  0  0  0
  -25.2880  -31.5380   26.2150 C   0  0  0  0  0  1  0  0  0  0  0  0
  -26.9770  -30.3880   24.7770 C   0  0  0  0  0  1  0  0  0  0  0  0
  -27.5330  -32.5710   25.8200 C   0  0  0  0  0  1  0  0  0  0  0  0
  -25.5720  -33.9270   24.1830 N   0  0  0  0  0  0  0  0  0  0  0  0
  -25.9070  -34.9750   23.4190 C   0  0  0  0  0  0  0  0  0  0  0  0
  -26.5820  -34.8640   22.3920 O   0  0  0  0  0  0  0  0  0  0  0  0
  -24.9780  -34.0900   24.9840 H   0  0  0  0  0  0  0  0  0  0  0  0
  -24.1900  -36.7700   23.0340 C   0  0  0  0  0  1  0  0  0  0  0  0
  -25.4180  -36.3670   23.8650 C   0  0  0  0  0  3  0  0  0  0  0  0
  -27.5400  -37.2500   24.7290 C   0  0  0  0  0  1  0  0  0  0  0  0
  -26.4550  -37.4160   23.7650 N   0  0  0  0  0  0  0  0  0  0  0  0
  -26.0490  -38.3380   23.9010 H   0  0  0  0  0  0  0  0  0  0  0  0
  1  4  1  0
  2  1  1  0
  2  5  1  0
  4  3  1  0
  4 50  1  0
  5  9  1  0
  5  3  1  0
  6  1  2  0
  7  6  1  0
  8 11  1  0
  9  8  2  0
 10  9  1  0
 11 20  1  0
 12 20  1  0
 13 18  1  0
 14 15  1  0
 14 13  1  0
 16 15  1  0
 16 25  1  0
 16 17  1  0
 18 12  1  0
 18 17  1  0
 19 12  2  0
 20 21  1  0
 22 23  2  0
 23 42  1  0
 24 23  1  0
 24 27  1  0
 25 22  1  0
 25 26  1  0
 26 24  2  0
 27 28  1  0
 28 29  2  0
 30 33  1  0
 30 29  1  0
 31 30  2  0
 32 31  1  0
 32 27  2  0
 33 34  1  0
 34 35  1  0
 35 36  2  0
 37 36  1  0
 37 41  1  0
 38 37  2  0
 39 34  2  0
 39 38  1  0
 40 39  1  0
 42 43  1  0
 43 46  1  0
 43 45  1  0
 44 42  2  0
 47 48  1  0
 47 22  1  0
 49 47  1  0
 51 53  1  0
 51 50  1  0
 52 63  2  0
 53 58  1  0
 54 62  1  0
 54 64  1  0
 55 61  1  0
 55 57  1  0
 56 62  1  0
 57 56  1  0
 58 57  2  0
 59 53  2  0
 60 59  1  0
 60 55  2  0
 61 54  1  0
 62 52  1  0
 64 66  2  0
 65 64  1  0
 67 65  1  0
 68 77  2  0
 68 73  1  0
 69 65  1  0
 69 73  1  0
 70 69  1  0
 71 72  1  0
 71 70  1  0
 72 68  1  0
 73 74  2  0
 74 75  1  0
 76 75  2  0
 77 76  1  0
 78 52  1  0
 78 83  1  0
 78 79  1  0
 79 82  1  1
 79 80  1  0
 81 79  1  0
 83 86  1  0
 84 88  1  0
 84 83  1  0
 85 84  2  0
 88 87  1  0
 90 88  1  0
 90 91  1  0
 90 89  1  0
M  ISO  4  12 100  20 100  50 101  51 101
M  END
>  <TORSDO>  (85) 
F 19

>  <SCORE>  (85) 
-14.120

>  <name>  (85) 
84

>  <ligand_id>  (85) 
84

>  <original_smiles>  (85) 
[H]N=C1C([H])([H])C([H])(C(=C([H])C([H])([H])N([H])C(=O)N2C([H])([H])C([H])([H])C([H])([H])C([H])(n3nc(-c4c([H])c([H])c(Oc5c([H])c([H])c(F)c([H])c5F)c([H])c4[H])c(C(=O)N([H])[H])c3N([H])[H])C2([H])[H])C([H])([H])[H])C([H])([H])C1([H])C([H])([H])Oc1c([H])c([H])c2c(c1[H])C([H])([H])N(C(=O)C([H])(N([H])C(=O)C([H])(N([H])C([H])([H])[H])C([H])([H])[H])C(C([H])([H])[H])(C([H])([H])[H])C([H])([H])[H])C([H])(C(=O)N([H])C1([H])c3c([H])c([H])c([H])c([H])c3C([H])([H])C([H])([H])C1([H])[H])C2([H])[H]

>  <smiles>  (85) 
[H]N=C1C([H])([H])C([H])(C(=C([H])C([H])([H])N([H])C(=O)N2C([H])([H])C([H])([H])C([H])([H])C([H])(n3nc(-c4c([H])c([H])c(Oc5c([H])c([H])c(F)c([H])c5F)c([H])c4[H])c(C(=O)N([H])[H])c3N([H])[H])C2([H])[H])C([H])([H])[H])C([H])([H])C1([H])C([H])([H])Oc1c([H])c([H])c2c(c1[H])C([H])([H])N(C(=O)C([H])(N([H])C(=O)C([H])(N([H])C([H])([H])[H])C([H])([H])[H])C(C([H])([H])[H])(C([H])([H])[H])C([H])([H])[H])C([H])(C(=O)N([H])C1([H])c3c([H])c([H])c([H])c([H])c3C([H])([H])C([H])([H])C1([H])[H])C2([H])[H]

$$$$
85:0:0
     RDKit          3D

 88 96  0  0  1  0  0  0  0  0999 V2000
  -28.5340  -21.0870   21.5060 C   0  0  0  0  0  2  0  0  0  0  0  0
  -28.6670  -19.5240   21.3080 C   0  0  0  0  0  2  0  0  0  0  0  0
  -29.7620  -20.6800   19.5410 C   0  0  0  0  0  2  0  0  0  0  0  0
  -28.7530  -21.8220   20.1540 C   0  0  0  0  0  3  0  0  0  0  0  0
  -29.8110  -19.2250   20.3140 C   0  0  0  0  0  3  0  0  0  0  0  0
  -30.6680  -17.8030   18.2320 C   0  0  0  0  0  1  0  0  0  0  0  0
  -29.8530  -17.7190   19.5340 C   0  0  0  0  0  0  0  0  0  0  0  0
  -30.8260  -15.1410   19.9110 C   0  0  0  0  0  0  0  0  0  0  0  0
  -30.7040  -12.7880   18.9970 C   0  0  0  0  0  2  0  0  0  0  0  0
  -29.7420  -12.7900   17.7880 C   0  0  0  0  0  2  0  0  0  0  0  0
  -28.2900  -12.5650   18.2580 C   0  0  0  0  0  2  0  0  0  0  0  0
  -27.9170  -13.4780   19.4590 C   0  0  0  0  0  3  0  0  0  0  0  0
  -28.9990  -13.4690   20.5590 C   0  0  0  0  0  2  0  0  0  0  0  0
  -30.2620  -13.8680   19.9270 N   0  0  0  0  0  0  0  0  0  0  0  0
  -31.9820  -15.2420   19.4930 O   0  0  0  0  0  0  0  0  0  0  0  0
  -30.0160  -16.2790   20.1750 N   0  0  0  0  0  4  0  0  0  0  0  0
  -29.1780  -16.0080   20.6710 H   0  0  0  0  0  0  0  0  0  0  0  0
  -25.5550  -14.0420   20.2710 C   0  0  0  0  0  0  0  0  0  0  0  0
  -24.5060  -13.2620   20.6740 C   0  0  0  0  0  0  0  0  0  0  0  0
  -24.9760  -11.9140   20.6250 C   0  0  0  0  0  0  0  0  0  0  0  0
  -26.5930  -13.1710   19.9920 N   0  0  0  0  0  0  0  0  0  0  0  0
  -26.2550  -11.8840   20.2690 N   0  0  0  0  0  0  0  0  0  0  0  0
  -24.2640  -10.6460   20.8380 C   0  0  0  0  0  0  0  0  0  0  0  0
  -24.6750   -9.7210   21.8230 C   0  0  0  0  0  3  0  0  0  0  0  0
  -23.9580   -8.5210   22.0180 C   0  0  0  0  0  3  0  0  0  0  0  0
  -22.8190   -8.2370   21.2300 C   0  0  0  0  0  0  0  0  0  0  0  0
  -22.4300   -9.1510   20.2360 C   0  0  0  0  0  3  0  0  0  0  0  0
  -23.1460  -10.3420   20.0380 C   0  0  0  0  0  3  0  0  0  0  0  0
  -22.0780   -7.0870   21.3330 O   0  0  0  0  0  0  0  0  0  0  0  0
  -21.9180   -6.4360   22.5300 C   0  0  0  0  0  0  0  0  0  0  0  0
  -21.3160   -7.0620   23.6460 C   0  0  0  0  0  3  0  0  0  0  0  0
  -21.1130   -6.3340   24.8350 C   0  0  0  0  0  3  0  0  0  0  0  0
  -21.4980   -4.9820   24.9090 C   0  0  0  0  0  0  0  0  0  0  0  0
  -22.0900   -4.3570   23.8000 C   0  0  0  0  0  3  0  0  0  0  0  0
  -22.2970   -5.0820   22.6120 C   0  0  0  0  0  0  0  0  0  0  0  0
  -22.8500   -4.4660   21.5370 F   0  0  0  0  0  0  0  0  0  0  0  0
  -21.2930   -4.2820   26.0490 F   0  0  0  0  0  0  0  0  0  0  0  0
  -23.1170  -13.7350   20.9930 C   0  0  0  0  0  0  0  0  0  0  0  0
  -22.4230  -13.0470   21.8940 N   0  0  0  0  0  0  0  0  0  0  0  0
  -22.6560  -14.7560   20.4820 O   0  0  0  0  0  0  0  0  0  0  0  0
  -22.8110  -12.2310   22.3400 H   0  0  0  0  0  0  0  0  0  0  0  0
  -21.4950  -13.3520   22.1490 H   0  0  0  0  0  0  0  0  0  0  0  0
  -25.7060  -15.4120   20.0910 N   0  0  0  0  0  0  0  0  0  0  0  0
  -24.9330  -16.0530   20.2310 H   0  0  0  0  0  0  0  0  0  0  0  0
  -26.5250  -15.8650   19.7070 H   0  0  0  0  0  0  0  0  0  0  0  0
  -29.0780  -23.4940   20.2100 C   0  0  0  0  0  3  0  0  0  0  0  0
  -28.0420  -24.7830   19.8550 C   0  0  0  0  0  3  0  0  0  0  0  0
  -28.3140  -26.3130   20.0270 O   0  0  0  0  0  0  0  0  0  0  0  0
  -24.6360  -31.8730   23.1330 C   0  0  0  0  0  0  0  0  0  0  0  0
  -27.2520  -27.2830   19.9760 C   0  0  0  0  0  0  0  0  0  0  0  0
  -23.4390  -30.4900   21.4790 C   0  0  0  0  0  3  0  0  0  0  0  0
  -24.8980  -28.9830   19.9960 C   0  0  0  0  0  0  0  0  0  0  0  0
  -25.9830  -30.8170   21.2850 C   0  0  0  0  0  2  0  0  0  0  0  0
  -26.0760  -29.4440   20.5960 C   0  0  0  0  0  0  0  0  0  0  0  0
  -27.2550  -28.6110   20.5630 C   0  0  0  0  0  3  0  0  0  0  0  0
  -26.0450  -26.9280   19.3320 C   0  0  0  0  0  3  0  0  0  0  0  0
  -24.8930  -27.7400   19.3470 C   0  0  0  0  0  3  0  0  0  0  0  0
  -23.6540  -29.8470   20.0830 C   0  0  0  0  0  2  0  0  0  0  0  0
  -24.7050  -31.0820   22.0190 N   0  0  0  0  0  0  0  0  0  0  0  0
  -23.5540  -32.1210   23.6880 O   0  0  0  0  0  0  0  0  0  0  0  0
  -22.7950  -29.4490   22.4310 C   0  0  0  0  0  0  0  0  0  0  0  0
  -21.4770  -29.2200   22.2950 N   0  0  0  0  0  0  0  0  0  0  0  0
  -23.4880  -28.8440   23.2530 O   0  0  0  0  0  0  0  0  0  0  0  0
  -20.9730  -29.7610   21.6090 H   0  0  0  0  0  0  0  0  0  0  0  0
  -18.1470  -27.8680   22.7670 C   0  0  0  0  0  0  0  0  0  0  0  0
  -20.6910  -28.2470   23.0580 C   0  0  0  0  0  3  0  0  0  0  0  0
  -20.8620  -26.8230   22.4820 C   0  0  0  0  0  2  0  0  0  0  0  0
  -19.7860  -26.4520   21.4550 C   0  0  0  0  0  2  0  0  0  0  0  0
  -18.3930  -26.5320   22.0870 C   0  0  0  0  0  2  0  0  0  0  0  0
  -19.2270  -28.6790   23.2080 C   0  0  0  0  0  0  0  0  0  0  0  0
  -18.9440  -29.9260   23.8080 C   0  0  0  0  0  3  0  0  0  0  0  0
  -17.6170  -30.3660   23.9650 C   0  0  0  0  0  3  0  0  0  0  0  0
  -16.5520  -29.5530   23.5410 C   0  0  0  0  0  3  0  0  0  0  0  0
  -16.8180  -28.3050   22.9470 C   0  0  0  0  0  3  0  0  0  0  0  0
  -25.9100  -32.5240   23.7530 C   0  0  0  0  0  3  0  0  0  0  0  0
  -26.4480  -31.7540   25.0230 C   0  0  1  0  0  0  0  0  0  0  0  0
  -25.3620  -31.4730   26.0880 C   0  0  0  0  0  1  0  0  0  0  0  0
  -27.0690  -30.3960   24.6230 C   0  0  0  0  0  1  0  0  0  0  0  0
  -27.5730  -32.5740   25.6940 C   0  0  0  0  0  1  0  0  0  0  0  0
  -25.5830  -33.9160   24.1040 N   0  0  0  0  0  0  0  0  0  0  0  0
  -25.8930  -34.9850   23.3580 C   0  0  0  0  0  0  0  0  0  0  0  0
  -26.5580  -34.9050   22.3220 O   0  0  0  0  0  0  0  0  0  0  0  0
  -24.9970  -34.0490   24.9150 H   0  0  0  0  0  0  0  0  0  0  0  0
  -24.1510  -36.7680   23.0360 C   0  0  0  0  0  1  0  0  0  0  0  0
  -25.3920  -36.3610   23.8430 C   0  0  0  0  0  3  0  0  0  0  0  0
  -27.5090  -37.2560   24.7070 C   0  0  0  0  0  1  0  0  0  0  0  0
  -26.4160  -37.4260   23.7540 N   0  0  0  0  0  0  0  0  0  0  0  0
  -25.9980  -38.3380   23.9130 H   0  0  0  0  0  0  0  0  0  0  0  0
  2  1  1  0
  3  4  1  0
  3  5  1  0
  4 46  1  0
  4  1  1  0
  5  7  1  0
  5  2  1  0
  6  7  1  0
  7 16  2  0
  8 14  1  0
  8 16  1  0
  9 14  1  0
 10 11  1  0
 10  9  1  0
 12 11  1  0
 12 21  1  0
 12 13  1  0
 14 13  1  0
 15  8  2  0
 16 17  1  0
 18 19  2  0
 19 38  1  0
 20 19  1  0
 20 23  1  0
 21 22  1  0
 21 18  1  0
 22 20  2  0
 23 24  1  0
 24 25  2  0
 26 29  1  0
 26 25  1  0
 27 26  2  0
 28 27  1  0
 28 23  2  0
 29 30  1  0
 30 35  2  0
 30 31  1  0
 31 32  2  0
 32 33  1  0
 33 37  1  0
 34 33  2  0
 35 34  1  0
 36 35  1  0
 38 39  1  0
 39 42  1  0
 39 41  1  0
 40 38  2  0
 43 44  1  0
 43 18  1  0
 45 43  1  0
 47 48  1  0
 47 46  2  0
 49 60  2  0
 50 48  1  0
 50 55  1  0
 51 59  1  0
 51 61  1  0
 52 58  1  0
 52 54  1  0
 53 59  1  0
 54 53  1  0
 55 54  2  0
 56 57  1  0
 56 50  2  0
 57 52  2  0
 58 51  1  0
 59 49  1  0
 61 63  2  0
 62 61  1  0
 64 62  1  0
 65 74  2  0
 65 70  1  0
 66 62  1  0
 66 70  1  0
 67 66  1  0
 68 69  1  0
 68 67  1  0
 69 65  1  0
 70 71  2  0
 71 72  1  0
 73 72  2  0
 74 73  1  0
 75 49  1  0
 75 80  1  0
 75 76  1  0
 76 79  1  1
 76 77  1  0
 78 76  1  0
 80 83  1  0
 81 85  1  0
 81 80  1  0
 82 81  2  0
 85 84  1  0
 87 85  1  0
 87 88  1  0
 87 86  1  0
M  ISO  4   8 100  16 100  47 101  48 101
M  END
>  <TORSDO>  (86) 
F 19

>  <SCORE>  (86) 
-13.832

>  <name>  (86) 
85

>  <ligand_id>  (86) 
85

>  <original_smiles>  (86) 
[H]c1c([H])c([H])c2c(c1[H])C([H])([H])C([H])([H])C([H])([H])C2([H])N([H])C(=O)C1([H])N(C(=O)C([H])(N([H])C(=O)C([H])(N([H])C([H])([H])[H])C([H])([H])[H])C(C([H])([H])[H])(C([H])([H])[H])C([H])([H])[H])C([H])([H])c2c([H])c(OC([H])([H])C([H])([H])C3([H])C([H])([H])C([H])([H])C([H])(C([H])(N([H])C(=O)N4C([H])([H])C([H])([H])C([H])([H])C([H])(n5nc(-c6c([H])c([H])c(Oc7c([H])c([H])c(F)c([H])c7F)c([H])c6[H])c(C(=O)N([H])[H])c5N([H])[H])C4([H])[H])C([H])([H])[H])C3([H])[H])c([H])c([H])c2C1([H])[H]

>  <smiles>  (86) 
[H]c1c([H])c([H])c2c(c1[H])C([H])([H])C([H])([H])C([H])([H])C2([H])N([H])C(=O)C1([H])N(C(=O)C([H])(N([H])C(=O)C([H])(N([H])C([H])([H])[H])C([H])([H])[H])C(C([H])([H])[H])(C([H])([H])[H])C([H])([H])[H])C([H])([H])c2c([H])c(OC([H])([H])C([H])([H])C3([H])C([H])([H])C([H])([H])C([H])(C([H])(N([H])C(=O)N4C([H])([H])C([H])([H])C([H])([H])C([H])(n5nc(-c6c([H])c([H])c(Oc7c([H])c([H])c(F)c([H])c7F)c([H])c6[H])c(C(=O)N([H])[H])c5N([H])[H])C4([H])[H])C([H])([H])[H])C3([H])[H])c([H])c([H])c2C1([H])[H]

$$$$
86:0:0
     RDKit          3D

 91 99  0  0  1  0  0  0  0  0999 V2000
  -30.0590  -22.9520   19.4540 C   0  0  0  0  0  2  0  0  0  0  0  0
  -30.4180  -21.4070   19.5180 C   0  0  0  0  0  2  0  0  0  0  0  0
  -28.1320  -21.7320   19.9860 C   0  0  0  0  0  2  0  0  0  0  0  0
  -28.7080  -23.2500   20.1620 C   0  0  0  0  0  3  0  0  0  0  0  0
  -29.2740  -20.5770   20.1650 C   0  0  0  0  0  3  0  0  0  0  0  0
  -27.6490  -18.5470   19.7490 C   0  0  0  0  0  1  0  0  0  0  0  0
  -29.1350  -18.9410   19.7070 C   0  0  0  0  0  3  0  0  0  0  0  0
  -30.0410  -17.6510   20.3270 C   0  0  0  0  0  3  0  0  0  0  0  0
  -30.3890  -14.9480   19.8290 C   0  0  0  0  0  0  0  0  0  0  0  0
  -30.1570  -12.6360   18.8180 C   0  0  0  0  0  2  0  0  0  0  0  0
  -29.1170  -12.6330   17.6750 C   0  0  0  0  0  2  0  0  0  0  0  0
  -27.6970  -12.4160   18.2300 C   0  0  0  0  0  2  0  0  0  0  0  0
  -27.4020  -13.3130   19.4600 C   0  0  0  0  0  3  0  0  0  0  0  0
  -28.5510  -13.2840   20.4900 C   0  0  0  0  0  2  0  0  0  0  0  0
  -29.7670  -13.7030   19.7820 N   0  0  0  0  0  0  0  0  0  0  0  0
  -31.5620  -15.0100   19.4500 O   0  0  0  0  0  0  0  0  0  0  0  0
  -29.6520  -16.1270   20.1250 N   0  0  0  0  0  0  0  0  0  0  0  0
  -28.6850  -15.9330   20.3340 H   0  0  0  0  0  0  0  0  0  0  0  0
  -25.0980  -13.8830   20.4180 C   0  0  0  0  0  0  0  0  0  0  0  0
  -24.0630  -13.1020   20.8570 C   0  0  0  0  0  0  0  0  0  0  0  0
  -24.5160  -11.7510   20.7500 C   0  0  0  0  0  0  0  0  0  0  0  0
  -26.1110  -13.0070   20.0650 N   0  0  0  0  0  0  0  0  0  0  0  0
  -25.7750  -11.7180   20.3290 N   0  0  0  0  0  0  0  0  0  0  0  0
  -23.7990  -10.4870   20.9640 C   0  0  0  0  0  0  0  0  0  0  0  0
  -24.2880   -9.5030   21.8520 C   0  0  0  0  0  3  0  0  0  0  0  0
  -23.5700   -8.3050   22.0580 C   0  0  0  0  0  3  0  0  0  0  0  0
  -22.3480   -8.0830   21.3770 C   0  0  0  0  0  0  0  0  0  0  0  0
  -21.8790   -9.0560   20.4790 C   0  0  0  0  0  3  0  0  0  0  0  0
  -22.5970  -10.2460   20.2700 C   0  0  0  0  0  3  0  0  0  0  0  0
  -21.5960   -6.9400   21.4950 O   0  0  0  0  0  0  0  0  0  0  0  0
  -21.6120   -6.1830   22.6400 C   0  0  0  0  0  0  0  0  0  0  0  0
  -21.2640   -6.7240   23.8960 C   0  0  0  0  0  3  0  0  0  0  0  0
  -21.2270   -5.8930   25.0340 C   0  0  0  0  0  3  0  0  0  0  0  0
  -21.5270   -4.5230   24.9170 C   0  0  0  0  0  0  0  0  0  0  0  0
  -21.8670   -3.9820   23.6660 C   0  0  0  0  0  3  0  0  0  0  0  0
  -21.9070   -4.8080   22.5300 C   0  0  0  0  0  0  0  0  0  0  0  0
  -22.2150   -4.2770   21.3230 F   0  0  0  0  0  0  0  0  0  0  0  0
  -21.4830   -3.7250   26.0080 F   0  0  0  0  0  0  0  0  0  0  0  0
  -22.6980  -13.5780   21.2570 C   0  0  0  0  0  0  0  0  0  0  0  0
  -22.0410  -12.8640   22.1640 N   0  0  0  0  0  0  0  0  0  0  0  0
  -22.2250  -14.6180   20.8000 O   0  0  0  0  0  0  0  0  0  0  0  0
  -22.4390  -12.0200   22.5520 H   0  0  0  0  0  0  0  0  0  0  0  0
  -21.1290  -13.1630   22.4740 H   0  0  0  0  0  0  0  0  0  0  0  0
  -25.2530  -15.2570   20.2620 N   0  0  0  0  0  0  0  0  0  0  0  0
  -24.5000  -15.9070   20.4560 H   0  0  0  0  0  0  0  0  0  0  0  0
  -26.0510  -15.6970   19.8260 H   0  0  0  0  0  0  0  0  0  0  0  0
  -30.2290  -17.9180   21.8450 C   0  0  0  0  0  2  0  0  0  0  0  0
  -31.2020  -17.2590   24.1170 C   0  0  0  0  0  1  0  0  0  0  0  0
  -31.0370  -16.8750   22.6400 C   0  0  0  0  0  2  0  0  0  0  0  0
  -27.8490  -24.6440   19.7290 C   0  0  0  0  0  2  0  0  0  0  0  0
  -28.1250  -26.1520   20.0110 O   0  0  0  0  0  0  0  0  0  0  0  0
  -24.5090  -31.8010   23.0810 C   0  0  0  0  0  0  0  0  0  0  0  0
  -27.0680  -27.1350   19.9640 C   0  0  0  0  0  0  0  0  0  0  0  0
  -23.2930  -30.4170   21.4430 C   0  0  0  0  0  3  0  0  0  0  0  0
  -24.7280  -28.8650   19.9830 C   0  0  0  0  0  0  0  0  0  0  0  0
  -25.8420  -30.6980   21.2470 C   0  0  0  0  0  2  0  0  0  0  0  0
  -25.9150  -29.3130   20.5790 C   0  0  0  0  0  0  0  0  0  0  0  0
  -27.0850  -28.4630   20.5530 C   0  0  0  0  0  3  0  0  0  0  0  0
  -25.8510  -26.7910   19.3310 C   0  0  0  0  0  3  0  0  0  0  0  0
  -24.7090  -27.6160   19.3450 C   0  0  0  0  0  3  0  0  0  0  0  0
  -23.4980  -29.7550   20.0550 C   0  0  0  0  0  2  0  0  0  0  0  0
  -24.5670  -30.9940   21.9780 N   0  0  0  0  0  0  0  0  0  0  0  0
  -23.4300  -32.0740   23.6290 O   0  0  0  0  0  0  0  0  0  0  0  0
  -22.6320  -29.3970   22.4060 C   0  0  0  0  0  0  0  0  0  0  0  0
  -21.3000  -29.2360   22.3120 N   0  0  0  0  0  0  0  0  0  0  0  0
  -23.3210  -28.7520   23.2010 O   0  0  0  0  0  0  0  0  0  0  0  0
  -20.8000  -29.8090   21.6470 H   0  0  0  0  0  0  0  0  0  0  0  0
  -17.9230  -28.0670   22.9000 C   0  0  0  0  0  0  0  0  0  0  0  0
  -20.4930  -28.2920   23.0900 C   0  0  0  0  0  3  0  0  0  0  0  0
  -20.5570  -26.8710   22.4810 C   0  0  0  0  0  2  0  0  0  0  0  0
  -19.4190  -26.5870   21.4960 C   0  0  0  0  0  2  0  0  0  0  0  0
  -18.0600  -26.7330   22.1870 C   0  0  0  0  0  2  0  0  0  0  0  0
  -19.0650  -28.8050   23.3100 C   0  0  0  0  0  0  0  0  0  0  0  0
  -18.8790  -30.0550   23.9400 C   0  0  0  0  0  3  0  0  0  0  0  0
  -17.5860  -30.5680   24.1620 C   0  0  0  0  0  3  0  0  0  0  0  0
  -16.4590  -29.8250   23.7650 C   0  0  0  0  0  3  0  0  0  0  0  0
  -16.6290  -28.5760   23.1430 C   0  0  0  0  0  3  0  0  0  0  0  0
  -25.7910  -32.4380   23.6960 C   0  0  0  0  0  3  0  0  0  0  0  0
  -25.4760  -33.8290   24.0560 N   0  0  0  0  0  0  0  0  0  0  0  0
  -25.7900  -34.8990   23.3140 C   0  0  0  0  0  0  0  0  0  0  0  0
  -26.4430  -34.8190   22.2710 O   0  0  0  0  0  0  0  0  0  0  0  0
  -24.8940  -33.9620   24.8700 H   0  0  0  0  0  0  0  0  0  0  0  0
  -24.0440  -36.6870   23.0290 C   0  0  0  0  0  1  0  0  0  0  0  0
  -25.3040  -36.2770   23.8070 C   0  0  0  0  0  3  0  0  0  0  0  0
  -27.4480  -37.1620   24.6100 C   0  0  0  0  0  1  0  0  0  0  0  0
  -26.3260  -37.3400   23.6920 N   0  0  0  0  0  0  0  0  0  0  0  0
  -25.9180  -38.2540   23.8660 H   0  0  0  0  0  0  0  0  0  0  0  0
  -26.3250  -31.6550   24.9590 C   0  0  1  0  0  0  0  0  0  0  0  0
  -25.2490  -31.4040   26.0400 C   0  0  0  0  0  1  0  0  0  0  0  0
  -26.9080  -30.2840   24.5480 C   0  0  0  0  0  1  0  0  0  0  0  0
  -27.4820  -32.4470   25.6140 C   0  0  0  0  0  1  0  0  0  0  0  0
  1  2  1  0
  1  4  1  0
  2  5  1  0
  3  4  1  0
  3  5  1  0
  4 50  1  0
  5  7  1  0
  7  6  1  0
  7  8  1  0
  8 47  1  0
  9 17  1  0
 10 15  1  0
 11 12  1  0
 11 10  1  0
 13 12  1  0
 13 22  1  0
 13 14  1  0
 15  9  1  0
 15 14  1  0
 16  9  2  0
 17  8  1  0
 17 18  1  0
 19 20  2  0
 20 39  1  0
 21 20  1  0
 21 24  1  0
 22 23  1  0
 22 19  1  0
 23 21  2  0
 24 25  1  0
 25 26  2  0
 27 30  1  0
 27 26  1  0
 28 27  2  0
 29 28  1  0
 29 24  2  0
 30 31  1  0
 31 32  1  0
 32 33  2  0
 34 33  1  0
 34 38  1  0
 35 34  2  0
 36 31  2  0
 36 35  1  0
 37 36  1  0
 39 40  1  0
 40 43  1  0
 40 42  1  0
 41 39  2  0
 44 19  1  0
 44 45  1  0
 46 44  1  0
 47 49  1  0
 49 48  1  0
 50 51  1  0
 52 63  2  0
 53 51  1  0
 53 58  1  0
 54 62  1  0
 54 64  1  0
 55 61  1  0
 55 57  1  0
 56 62  1  0
 57 56  1  0
 58 57  2  0
 59 60  1  0
 59 53  2  0
 60 55  2  0
 61 54  1  0
 62 52  1  0
 64 66  2  0
 65 64  1  0
 67 65  1  0
 68 77  2  0
 68 73  1  0
 69 65  1  0
 69 73  1  0
 70 69  1  0
 71 72  1  0
 71 70  1  0
 72 68  1  0
 73 74  2  0
 74 75  1  0
 76 75  2  0
 77 76  1  0
 78 52  1  0
 78 79  1  0
 78 88  1  0
 79 82  1  0
 80 84  1  0
 80 79  1  0
 81 80  2  0
 84 83  1  0
 86 84  1  0
 86 87  1  0
 86 85  1  0
 88 91  1  1
 88 89  1  0
 90 88  1  0
M  ISO  4   9 100  17 100  50 101  51 101
M  END
>  <TORSDO>  (87) 
F 21

>  <SCORE>  (87) 
-12.031

>  <name>  (87) 
86

>  <ligand_id>  (87) 
86

>  <original_smiles>  (87) 
[H]c1c([H])c([H])c2c(c1[H])C([H])([H])C([H])([H])C([H])([H])C2([H])N([H])C(=O)C1([H])N(C(=O)C([H])(N([H])C(=O)C([H])(N([H])C([H])([H])[H])C([H])([H])[H])C(C([H])([H])[H])(C([H])([H])[H])C([H])([H])[H])C([H])([H])c2c([H])c(OC([H])([H])C3([H])C([H])([H])C([H])([H])C([H])(C([H])(C([H])([H])[H])C([H])(N([H])C(=O)N4C([H])([H])C([H])([H])C([H])([H])C([H])(n5nc(-c6c([H])c([H])c(Oc7c([H])c([H])c(F)c([H])c7F)c([H])c6[H])c(C(=O)N([H])[H])c5N([H])[H])C4([H])[H])C([H])([H])C([H])([H])C([H])([H])[H])C3([H])[H])c([H])c([H])c2C1([H])[H]

>  <smiles>  (87) 
[H]c1c([H])c([H])c2c(c1[H])C([H])([H])C([H])([H])C([H])([H])C2([H])N([H])C(=O)C1([H])N(C(=O)C([H])(N([H])C(=O)C([H])(N([H])C([H])([H])[H])C([H])([H])[H])C(C([H])([H])[H])(C([H])([H])[H])C([H])([H])[H])C([H])([H])c2c([H])c(OC([H])([H])C3([H])C([H])([H])C([H])([H])C([H])(C([H])(C([H])([H])[H])C([H])(N([H])C(=O)N4C([H])([H])C([H])([H])C([H])([H])C([H])(n5nc(-c6c([H])c([H])c(Oc7c([H])c([H])c(F)c([H])c7F)c([H])c6[H])c(C(=O)N([H])[H])c5N([H])[H])C4([H])[H])C([H])([H])C([H])([H])C([H])([H])[H])C3([H])[H])c([H])c([H])c2C1([H])[H]

$$$$
87:0:0
     RDKit          3D

 91 99  0  0  1  0  0  0  0  0999 V2000
  -28.4900  -22.4450   20.4780 N   0  0  0  0  0  4  0  0  0  0  0  0
  -29.2010  -22.4470   21.1890 H   0  0  0  0  0  0  0  0  0  0  0  0
  -27.6100  -22.3640   20.9640 H   0  0  0  0  0  0  0  0  0  0  0  0
  -30.0520  -19.6430   18.3740 C   0  0  0  0  0  2  0  0  0  0  0  0
  -29.8070  -21.1390   18.6700 C   0  0  0  0  0  2  0  0  0  0  0  0
  -28.8440  -19.7730   20.4440 C   0  0  0  0  0  2  0  0  0  0  0  0
  -29.9430  -18.8890   19.7160 C   0  0  0  0  0  3  0  0  0  0  0  0
  -28.6430  -21.1580   19.6650 C   0  0  0  0  0  3  0  0  0  0  0  0
  -29.8270  -17.2900   19.4880 C   0  0  0  0  0  2  0  0  0  0  0  0
  -31.2530  -16.7040   21.5320 C   0  0  0  0  0  1  0  0  0  0  0  0
  -28.8650  -16.0890   21.4940 C   0  0  0  0  0  1  0  0  0  0  0  0
  -30.1290  -16.1670   20.6090 C   0  0  1  0  0  0  0  0  0  0  0  0
  -30.6810  -14.7490   20.0200 C   0  0  0  0  0  0  0  0  0  0  0  0
  -30.4040  -12.5170   18.9290 C   0  0  0  0  0  2  0  0  0  0  0  0
  -29.3840  -12.6240   17.7720 C   0  0  0  0  0  2  0  0  0  0  0  0
  -27.9390  -12.4600   18.2820 C   0  0  0  0  0  2  0  0  0  0  0  0
  -27.6630  -13.3020   19.5570 C   0  0  0  0  0  3  0  0  0  0  0  0
  -28.7880  -13.0940   20.5950 C   0  0  0  0  0  2  0  0  0  0  0  0
  -30.0420  -13.5230   19.9610 N   0  0  0  0  0  0  0  0  0  0  0  0
  -31.8010  -14.8150   19.5000 O   0  0  0  0  0  0  0  0  0  0  0  0
  -25.3120  -13.9170   20.3880 C   0  0  0  0  0  0  0  0  0  0  0  0
  -24.2590  -13.1500   20.8050 C   0  0  0  0  0  0  0  0  0  0  0  0
  -24.7060  -11.7970   20.7390 C   0  0  0  0  0  0  0  0  0  0  0  0
  -26.3400  -13.0290   20.1050 N   0  0  0  0  0  0  0  0  0  0  0  0
  -25.9810  -11.7480   20.3680 N   0  0  0  0  0  0  0  0  0  0  0  0
  -23.9810  -10.5380   20.9510 C   0  0  0  0  0  0  0  0  0  0  0  0
  -24.4350   -9.5700   21.8730 C   0  0  0  0  0  3  0  0  0  0  0  0
  -23.7070   -8.3780   22.0740 C   0  0  0  0  0  3  0  0  0  0  0  0
  -22.5140   -8.1430   21.3500 C   0  0  0  0  0  0  0  0  0  0  0  0
  -22.0800   -9.0990   20.4160 C   0  0  0  0  0  3  0  0  0  0  0  0
  -22.8070  -10.2830   20.2120 C   0  0  0  0  0  3  0  0  0  0  0  0
  -21.7570   -7.0020   21.4600 O   0  0  0  0  0  0  0  0  0  0  0  0
  -21.7080   -6.2810   22.6260 C   0  0  0  0  0  0  0  0  0  0  0  0
  -21.2960   -6.8620   23.8470 C   0  0  0  0  0  3  0  0  0  0  0  0
  -21.1930   -6.0670   25.0060 C   0  0  0  0  0  3  0  0  0  0  0  0
  -21.4960   -4.6930   24.9480 C   0  0  0  0  0  0  0  0  0  0  0  0
  -21.9030   -4.1130   23.7330 C   0  0  0  0  0  3  0  0  0  0  0  0
  -22.0060   -4.9030   22.5760 C   0  0  0  0  0  0  0  0  0  0  0  0
  -22.3780   -4.3340   21.4050 F   0  0  0  0  0  0  0  0  0  0  0  0
  -21.3910   -3.9290   26.0610 F   0  0  0  0  0  0  0  0  0  0  0  0
  -22.8830  -13.6350   21.1540 C   0  0  0  0  0  0  0  0  0  0  0  0
  -22.1980  -12.9350   22.0530 N   0  0  0  0  0  0  0  0  0  0  0  0
  -22.4250  -14.6710   20.6710 O   0  0  0  0  0  0  0  0  0  0  0  0
  -22.5820  -12.0960   22.4600 H   0  0  0  0  0  0  0  0  0  0  0  0
  -21.2780  -13.2430   22.3370 H   0  0  0  0  0  0  0  0  0  0  0  0
  -25.4700  -15.2860   20.2050 N   0  0  0  0  0  0  0  0  0  0  0  0
  -24.7210  -15.9470   20.3800 H   0  0  0  0  0  0  0  0  0  0  0  0
  -26.3030  -15.7230   19.8360 H   0  0  0  0  0  0  0  0  0  0  0  0
  -28.4970  -23.8150   19.7880 C   0  0  0  0  0  3  0  0  0  0  0  0
  -28.1590  -25.0810   20.7160 C   0  0  0  0  0  3  0  0  0  0  0  0
  -28.3560  -26.4750   20.2370 O   0  0  0  0  0  0  0  0  0  0  0  0
  -24.6360  -31.9050   23.2400 C   0  0  0  0  0  0  0  0  0  0  0  0
  -27.2440  -27.3260   20.2250 C   0  0  0  0  0  0  0  0  0  0  0  0
  -23.4300  -30.4880   21.6160 C   0  0  0  0  0  3  0  0  0  0  0  0
  -24.8790  -28.9220   20.2060 C   0  0  0  0  0  0  0  0  0  0  0  0
  -25.9640  -30.8180   21.4170 C   0  0  0  0  0  2  0  0  0  0  0  0
  -26.0470  -29.4290   20.7900 C   0  0  0  0  0  0  0  0  0  0  0  0
  -27.2390  -28.6420   20.7840 C   0  0  0  0  0  3  0  0  0  0  0  0
  -26.0560  -26.8680   19.6200 C   0  0  0  0  0  3  0  0  0  0  0  0
  -24.8830  -27.6470   19.6130 C   0  0  0  0  0  3  0  0  0  0  0  0
  -23.6420  -29.7970   20.2450 C   0  0  0  0  0  2  0  0  0  0  0  0
  -24.6960  -31.0880   22.1500 N   0  0  0  0  0  0  0  0  0  0  0  0
  -23.5530  -32.1860   23.7770 O   0  0  0  0  0  0  0  0  0  0  0  0
  -22.7740  -29.4790   22.5880 C   0  0  0  0  0  0  0  0  0  0  0  0
  -21.4470  -29.2930   22.4620 N   0  0  0  0  0  0  0  0  0  0  0  0
  -23.4560  -28.8700   23.4170 O   0  0  0  0  0  0  0  0  0  0  0  0
  -20.9560  -29.8460   21.7720 H   0  0  0  0  0  0  0  0  0  0  0  0
  -18.0770  -28.0700   22.9600 C   0  0  0  0  0  0  0  0  0  0  0  0
  -20.6320  -28.3590   23.2400 C   0  0  0  0  0  3  0  0  0  0  0  0
  -20.7510  -26.9180   22.6910 C   0  0  0  0  0  2  0  0  0  0  0  0
  -19.6610  -26.5670   21.6740 C   0  0  0  0  0  2  0  0  0  0  0  0
  -18.2730  -26.7120   22.3080 C   0  0  0  0  0  2  0  0  0  0  0  0
  -19.1880  -28.8500   23.3820 C   0  0  0  0  0  0  0  0  0  0  0  0
  -18.9560  -30.1210   23.9520 C   0  0  0  0  0  3  0  0  0  0  0  0
  -17.6450  -30.6140   24.1020 C   0  0  0  0  0  3  0  0  0  0  0  0
  -16.5500  -29.8310   23.6960 C   0  0  0  0  0  3  0  0  0  0  0  0
  -16.7670  -28.5620   23.1310 C   0  0  0  0  0  3  0  0  0  0  0  0
  -25.9210  -32.5470   23.8520 C   0  0  0  0  0  3  0  0  0  0  0  0
  -25.6050  -33.9470   24.1690 N   0  0  0  0  0  0  0  0  0  0  0  0
  -25.9280  -34.9960   23.4010 C   0  0  0  0  0  0  0  0  0  0  0  0
  -26.5930  -34.8890   22.3670 O   0  0  0  0  0  0  0  0  0  0  0  0
  -25.0180  -34.1030   24.9760 H   0  0  0  0  0  0  0  0  0  0  0  0
  -24.1920  -36.7800   23.0470 C   0  0  0  0  0  1  0  0  0  0  0  0
  -25.4400  -36.3860   23.8510 C   0  0  0  0  0  3  0  0  0  0  0  0
  -27.5800  -37.2900   24.6570 C   0  0  0  0  0  1  0  0  0  0  0  0
  -26.4680  -37.4430   23.7210 N   0  0  0  0  0  0  0  0  0  0  0  0
  -26.0580  -38.3610   23.8680 H   0  0  0  0  0  0  0  0  0  0  0  0
  -26.4430  -31.7920   25.1330 C   0  0  1  0  0  0  0  0  0  0  0  0
  -25.3540  -31.5580   26.2060 C   0  0  0  0  0  1  0  0  0  0  0  0
  -27.0310  -30.4140   24.7520 C   0  0  0  0  0  1  0  0  0  0  0  0
  -27.5910  -32.5970   25.7870 C   0  0  0  0  0  1  0  0  0  0  0  0
  1  3  1  0
  1  2  1  0
  4  5  1  0
  4  7  1  0
  5  8  1  0
  7  9  1  0
  7  6  1  0
  8  6  1  0
  8  1  1  0
  9 12  1  0
 12 11  1  1
 12 10  1  0
 13 12  1  0
 14 19  1  0
 15 16  1  0
 15 14  1  0
 17 16  1  0
 17 24  1  0
 17 18  1  0
 19 13  1  0
 19 18  1  0
 20 13  2  0
 21 22  2  0
 22 41  1  0
 23 22  1  0
 23 26  1  0
 24 25  1  0
 24 21  1  0
 25 23  2  0
 26 27  1  0
 27 28  2  0
 29 32  1  0
 29 28  1  0
 30 29  2  0
 31 30  1  0
 31 26  2  0
 32 33  1  0
 33 34  1  0
 34 35  2  0
 36 35  1  0
 36 40  1  0
 37 36  2  0
 38 33  2  0
 38 37  1  0
 39 38  1  0
 41 42  1  0
 42 45  1  0
 42 44  1  0
 43 41  2  0
 46 47  1  0
 46 21  1  0
 48 46  1  0
 49  1  1  0
 49 50  2  0
 51 50  1  0
 52 63  2  0
 53 51  1  0
 53 58  1  0
 54 62  1  0
 54 64  1  0
 55 61  1  0
 55 57  1  0
 56 62  1  0
 57 56  1  0
 58 57  2  0
 59 53  2  0
 60 59  1  0
 60 55  2  0
 61 54  1  0
 62 52  1  0
 64 66  2  0
 65 64  1  0
 67 65  1  0
 68 77  2  0
 68 73  1  0
 69 65  1  0
 69 73  1  0
 70 69  1  0
 71 72  1  0
 71 70  1  0
 72 68  1  0
 73 74  2  0
 74 75  1  0
 76 75  2  0
 77 76  1  0
 78 52  1  0
 78 79  1  0
 78 88  1  0
 79 82  1  0
 80 84  1  0
 80 79  1  0
 81 80  2  0
 84 83  1  0
 86 84  1  0
 86 87  1  0
 86 85  1  0
 88 91  1  1
 88 89  1  0
 90 88  1  0
M  ISO  4  12 100  13 100  50 101  51 101
M  END
>  <TORSDO>  (88) 
F 21

>  <SCORE>  (88) 
-12.930

>  <name>  (88) 
87

>  <ligand_id>  (88) 
87

>  <original_smiles>  (88) 
[H]c1c([H])c([H])c2c(c1[H])C([H])([H])C([H])([H])C([H])([H])C2([H])N([H])C(=O)C1([H])N(C(=O)C([H])(N([H])C(=O)C([H])(N([H])C([H])([H])[H])C([H])([H])[H])C(C([H])([H])[H])(C([H])([H])[H])C([H])([H])[H])C([H])([H])c2c([H])c(OC([H])([H])C([H])([H])[N+]([H])([H])C3([H])C([H])([H])C([H])([H])C([H])(C([H])([H])C(C(=O)N4C([H])([H])C([H])([H])C([H])([H])C([H])(n5nc(-c6c([H])c([H])c(Oc7c([H])c([H])c(F)c([H])c7F)c([H])c6[H])c(C(=O)N([H])[H])c5N([H])[H])C4([H])[H])(C([H])([H])[H])C([H])([H])[H])C3([H])[H])c([H])c([H])c2C1([H])[H]

>  <smiles>  (88) 
[H]c1c([H])c([H])c2c(c1[H])C([H])([H])C([H])([H])C([H])([H])C2([H])N([H])C(=O)C1([H])N(C(=O)C([H])(N([H])C(=O)C([H])(N([H])C([H])([H])[H])C([H])([H])[H])C(C([H])([H])[H])(C([H])([H])[H])C([H])([H])[H])C([H])([H])c2c([H])c(OC([H])([H])C([H])([H])[N+]([H])([H])C3([H])C([H])([H])C([H])([H])C([H])(C([H])([H])C(C(=O)N4C([H])([H])C([H])([H])C([H])([H])C([H])(n5nc(-c6c([H])c([H])c(Oc7c([H])c([H])c(F)c([H])c7F)c([H])c6[H])c(C(=O)N([H])[H])c5N([H])[H])C4([H])[H])(C([H])([H])[H])C([H])([H])[H])C3([H])[H])c([H])c([H])c2C1([H])[H]

$$$$
88:0:0
     RDKit          3D

 87 95  0  0  1  0  0  0  0  0999 V2000
  -28.4920  -21.3850   21.5450 C   0  0  0  0  0  2  0  0  0  0  0  0
  -28.8300  -19.8430   21.5830 C   0  0  0  0  0  2  0  0  0  0  0  0
  -29.8070  -20.8260   19.6610 C   0  0  0  0  0  2  0  0  0  0  0  0
  -28.8080  -21.9990   20.1560 C   0  0  0  0  0  3  0  0  0  0  0  0
  -29.3550  -19.3680   20.2050 C   0  0  0  0  0  3  0  0  0  0  0  0
  -31.6510  -18.2840   20.8610 C   0  0  0  0  0  1  0  0  0  0  0  0
  -30.3250  -18.0010   20.1260 C   0  0  0  0  0  3  0  0  0  0  0  0
  -29.8280  -16.4450   20.4900 C   0  0  0  0  0  2  0  0  0  0  0  0
  -30.6290  -15.0560   20.0950 C   0  0  0  0  0  0  0  0  0  0  0  0
  -30.4660  -12.7430   19.0890 C   0  0  0  0  0  2  0  0  0  0  0  0
  -29.4780  -12.7410   17.8960 C   0  0  0  0  0  2  0  0  0  0  0  0
  -28.0340  -12.5260   18.3840 C   0  0  0  0  0  2  0  0  0  0  0  0
  -27.6760  -13.4340   19.5880 C   0  0  0  0  0  3  0  0  0  0  0  0
  -28.7740  -13.4030   20.6740 C   0  0  0  0  0  2  0  0  0  0  0  0
  -30.0390  -13.7980   20.0460 N   0  0  0  0  0  0  0  0  0  0  0  0
  -31.7960  -15.1400   19.7010 O   0  0  0  0  0  0  0  0  0  0  0  0
  -25.3220  -14.0010   20.4270 C   0  0  0  0  0  0  0  0  0  0  0  0
  -24.2700  -13.2200   20.8200 C   0  0  0  0  0  0  0  0  0  0  0  0
  -24.7320  -11.8690   20.7420 C   0  0  0  0  0  0  0  0  0  0  0  0
  -26.3550  -13.1280   20.1310 N   0  0  0  0  0  0  0  0  0  0  0  0
  -26.0110  -11.8400   20.3860 N   0  0  0  0  0  0  0  0  0  0  0  0
  -24.0110  -10.6030   20.9330 C   0  0  0  0  0  0  0  0  0  0  0  0
  -24.4310   -9.6500   21.8890 C   0  0  0  0  0  3  0  0  0  0  0  0
  -23.7090   -8.4490   22.0650 C   0  0  0  0  0  3  0  0  0  0  0  0
  -22.5570   -8.1910   21.2870 C   0  0  0  0  0  0  0  0  0  0  0  0
  -22.1570   -9.1330   20.3230 C   0  0  0  0  0  3  0  0  0  0  0  0
  -22.8770  -10.3250   20.1440 C   0  0  0  0  0  3  0  0  0  0  0  0
  -21.8100   -7.0410   21.3720 O   0  0  0  0  0  0  0  0  0  0  0  0
  -21.6760   -6.3550   22.5530 C   0  0  0  0  0  0  0  0  0  0  0  0
  -21.1340   -6.9600   23.7070 C   0  0  0  0  0  3  0  0  0  0  0  0
  -20.9500   -6.1990   24.8790 C   0  0  0  0  0  3  0  0  0  0  0  0
  -21.3000   -4.8350   24.8970 C   0  0  0  0  0  0  0  0  0  0  0  0
  -21.8340   -4.2300   23.7450 C   0  0  0  0  0  3  0  0  0  0  0  0
  -22.0190   -4.9880   22.5760 C   0  0  0  0  0  0  0  0  0  0  0  0
  -22.5150   -4.3950   21.4630 F   0  0  0  0  0  0  0  0  0  0  0  0
  -21.1160   -4.1010   26.0190 F   0  0  0  0  0  0  0  0  0  0  0  0
  -22.8830  -13.6900   21.1500 C   0  0  0  0  0  0  0  0  0  0  0  0
  -22.1850  -12.9760   22.0250 N   0  0  0  0  0  0  0  0  0  0  0  0
  -22.4280  -14.7260   20.6660 O   0  0  0  0  0  0  0  0  0  0  0  0
  -22.5650  -12.1360   22.4350 H   0  0  0  0  0  0  0  0  0  0  0  0
  -21.2570  -13.2740   22.2870 H   0  0  0  0  0  0  0  0  0  0  0  0
  -25.4840  -15.3750   20.2730 N   0  0  0  0  0  0  0  0  0  0  0  0
  -24.7340  -16.0370   20.4410 H   0  0  0  0  0  0  0  0  0  0  0  0
  -26.3250  -15.8130   19.9190 H   0  0  0  0  0  0  0  0  0  0  0  0
  -29.1630  -23.6350   20.1240 C   0  0  0  0  0  3  0  0  0  0  0  0
  -28.0330  -24.8560   20.0550 C   0  0  0  0  0  3  0  0  0  0  0  0
  -28.2830  -26.3770   20.1360 O   0  0  0  0  0  0  0  0  0  0  0  0
  -24.6120  -31.9230   23.2690 C   0  0  0  0  0  0  0  0  0  0  0  0
  -27.1930  -27.3140   20.1170 C   0  0  0  0  0  0  0  0  0  0  0  0
  -23.3960  -30.5440   21.6250 C   0  0  0  0  0  3  0  0  0  0  0  0
  -24.8350  -29.0040   20.1600 C   0  0  0  0  0  0  0  0  0  0  0  0
  -25.9400  -30.8490   21.4170 C   0  0  0  0  0  2  0  0  0  0  0  0
  -26.0200  -29.4660   20.7500 C   0  0  0  0  0  0  0  0  0  0  0  0
  -27.1980  -28.6360   20.7130 C   0  0  0  0  0  3  0  0  0  0  0  0
  -25.9790  -26.9470   19.4950 C   0  0  0  0  0  3  0  0  0  0  0  0
  -24.8250  -27.7560   19.5230 C   0  0  0  0  0  3  0  0  0  0  0  0
  -23.6000  -29.8840   20.2370 C   0  0  0  0  0  2  0  0  0  0  0  0
  -24.6710  -31.1250   22.1610 N   0  0  0  0  0  0  0  0  0  0  0  0
  -23.5330  -32.1920   23.8180 O   0  0  0  0  0  0  0  0  0  0  0  0
  -22.7370  -29.5200   22.5820 C   0  0  0  0  0  0  0  0  0  0  0  0
  -21.4130  -29.3260   22.4540 N   0  0  0  0  0  0  0  0  0  0  0  0
  -23.4210  -28.9020   23.4010 O   0  0  0  0  0  0  0  0  0  0  0  0
  -20.9160  -29.8830   21.7730 H   0  0  0  0  0  0  0  0  0  0  0  0
  -18.0570  -28.0430   22.9330 C   0  0  0  0  0  0  0  0  0  0  0  0
  -20.6080  -28.3680   23.2170 C   0  0  0  0  0  3  0  0  0  0  0  0
  -20.7480  -26.9390   22.6430 C   0  0  0  0  0  2  0  0  0  0  0  0
  -19.6610  -26.5900   21.6210 C   0  0  0  0  0  2  0  0  0  0  0  0
  -18.2710  -26.6990   22.2570 C   0  0  0  0  0  2  0  0  0  0  0  0
  -19.1550  -28.8330   23.3690 C   0  0  0  0  0  0  0  0  0  0  0  0
  -18.9010  -30.0870   23.9640 C   0  0  0  0  0  3  0  0  0  0  0  0
  -17.5830  -30.5560   24.1200 C   0  0  0  0  0  3  0  0  0  0  0  0
  -16.5010  -29.7640   23.6990 C   0  0  0  0  0  3  0  0  0  0  0  0
  -16.7390  -28.5090   23.1120 C   0  0  0  0  0  3  0  0  0  0  0  0
  -25.8960  -32.5560   23.8890 C   0  0  0  0  0  3  0  0  0  0  0  0
  -26.4200  -31.7770   25.1580 C   0  0  1  0  0  0  0  0  0  0  0  0
  -25.3330  -31.5240   26.2290 C   0  0  0  0  0  1  0  0  0  0  0  0
  -27.0100  -30.4060   24.7520 C   0  0  0  0  0  1  0  0  0  0  0  0
  -27.5740  -32.5700   25.8180 C   0  0  0  0  0  1  0  0  0  0  0  0
  -25.5870  -33.9510   24.2350 N   0  0  0  0  0  0  0  0  0  0  0  0
  -25.8920  -35.0110   23.4720 C   0  0  0  0  0  0  0  0  0  0  0  0
  -26.5270  -34.9140   22.4180 O   0  0  0  0  0  0  0  0  0  0  0  0
  -25.0120  -34.1000   25.0520 H   0  0  0  0  0  0  0  0  0  0  0  0
  -24.1320  -36.7910   23.2030 C   0  0  0  0  0  1  0  0  0  0  0  0
  -25.4160  -36.3970   23.9520 C   0  0  0  0  0  3  0  0  0  0  0  0
  -27.5800  -37.3020   24.6790 C   0  0  0  0  0  1  0  0  0  0  0  0
  -26.4320  -37.4580   23.7880 N   0  0  0  0  0  0  0  0  0  0  0  0
  -26.0280  -38.3750   23.9490 H   0  0  0  0  0  0  0  0  0  0  0  0
  1  2  1  0
  3  4  1  0
  3  5  1  0
  4 45  1  0
  4  1  1  0
  5  7  1  0
  5  2  1  0
  7  8  1  0
  7  6  1  0
  9  8  1  0
 10 15  1  0
 11 12  1  0
 11 10  1  0
 13 12  1  0
 13 20  1  0
 13 14  1  0
 15  9  1  0
 15 14  1  0
 16  9  2  0
 17 18  2  0
 18 37  1  0
 19 18  1  0
 19 22  1  0
 20 21  1  0
 20 17  1  0
 21 19  2  0
 22 23  1  0
 23 24  2  0
 25 28  1  0
 25 24  1  0
 26 25  2  0
 27 26  1  0
 27 22  2  0
 28 29  1  0
 29 34  2  0
 29 30  1  0
 30 31  2  0
 31 32  1  0
 32 36  1  0
 33 32  2  0
 34 33  1  0
 35 34  1  0
 37 38  1  0
 38 41  1  0
 38 40  1  0
 39 37  2  0
 42 17  1  0
 42 43  1  0
 44 42  1  0
 46 45  2  0
 46 47  1  0
 48 59  2  0
 49 47  1  0
 49 54  1  0
 50 58  1  0
 50 60  1  0
 51 57  1  0
 51 53  1  0
 52 58  1  0
 53 52  1  0
 54 53  2  0
 55 56  1  0
 55 49  2  0
 56 51  2  0
 57 50  1  0
 58 48  1  0
 60 62  2  0
 61 60  1  0
 63 61  1  0
 64 73  2  0
 64 69  1  0
 65 61  1  0
 65 69  1  0
 66 65  1  0
 67 68  1  0
 67 66  1  0
 68 64  1  0
 69 70  2  0
 70 71  1  0
 72 71  2  0
 73 72  1  0
 74 48  1  0
 74 79  1  0
 74 75  1  0
 75 78  1  1
 75 76  1  0
 77 75  1  0
 79 82  1  0
 80 84  1  0
 80 79  1  0
 81 80  2  0
 84 83  1  0
 86 87  1  0
 86 84  1  0
 86 85  1  0
M  ISO  4   8 100   9 100  46 101  47 101
M  END
>  <TORSDO>  (89) 
F 20

>  <SCORE>  (89) 
-12.891

>  <name>  (89) 
88

>  <ligand_id>  (89) 
88

>  <original_smiles>  (89) 
[H]c1c([H])c([H])c2c(c1[H])C([H])([H])C([H])([H])C([H])([H])C2([H])N([H])C(=O)C1([H])N(C(=O)C([H])(N([H])C(=O)C([H])(N([H])C([H])([H])[H])C([H])([H])[H])C(C([H])([H])[H])(C([H])([H])[H])C([H])([H])[H])C([H])([H])c2c([H])c(OC([H])([H])C([H])([H])C3([H])C([H])([H])C([H])([H])C([H])(C([H])(C([H])([H])[H])C([H])([H])C(=O)N4C([H])([H])C([H])([H])C([H])([H])C([H])(n5nc(-c6c([H])c([H])c(Oc7c([H])c([H])c(F)c([H])c7F)c([H])c6[H])c(C(=O)N([H])[H])c5N([H])[H])C4([H])[H])C3([H])[H])c([H])c([H])c2C1([H])[H]

>  <smiles>  (89) 
[H]c1c([H])c([H])c2c(c1[H])C([H])([H])C([H])([H])C([H])([H])C2([H])N([H])C(=O)C1([H])N(C(=O)C([H])(N([H])C(=O)C([H])(N([H])C([H])([H])[H])C([H])([H])[H])C(C([H])([H])[H])(C([H])([H])[H])C([H])([H])[H])C([H])([H])c2c([H])c(OC([H])([H])C([H])([H])C3([H])C([H])([H])C([H])([H])C([H])(C([H])(C([H])([H])[H])C([H])([H])C(=O)N4C([H])([H])C([H])([H])C([H])([H])C([H])(n5nc(-c6c([H])c([H])c(Oc7c([H])c([H])c(F)c([H])c7F)c([H])c6[H])c(C(=O)N([H])[H])c5N([H])[H])C4([H])[H])C3([H])[H])c([H])c([H])c2C1([H])[H]

$$$$
89:0:0
     RDKit          3D

 91 99  0  0  1  0  0  0  0  0999 V2000
  -30.2620  -23.0880   19.8320 C   0  0  0  0  0  2  0  0  0  0  0  0
  -30.6070  -21.5910   20.1590 C   0  0  0  0  0  2  0  0  0  0  0  0
  -28.9050  -23.3730   20.5160 C   0  0  0  0  0  3  0  0  0  0  0  0
  -29.2770  -20.8170   20.0560 C   0  0  0  0  0  3  0  0  0  0  0  0
  -28.3000  -21.9380   20.5000 N   0  0  0  0  0  4  0  0  0  0  0  0
  -27.4980  -21.9050   19.8900 H   0  0  0  0  0  0  0  0  0  0  0  0
  -27.9690  -21.7280   21.4290 H   0  0  0  0  0  0  0  0  0  0  0  0
  -28.0020  -24.7130   20.0400 C   0  0  0  0  0  2  0  0  0  0  0  0
  -28.2640  -26.2250   20.2840 O   0  0  0  0  0  0  0  0  0  0  0  0
  -24.6250  -31.8850   23.2510 C   0  0  0  0  0  0  0  0  0  0  0  0
  -27.2040  -27.1980   20.2020 C   0  0  0  0  0  0  0  0  0  0  0  0
  -23.4230  -30.4950   21.6090 C   0  0  0  0  0  3  0  0  0  0  0  0
  -24.8700  -28.9290   20.1770 C   0  0  0  0  0  0  0  0  0  0  0  0
  -25.9750  -30.7650   21.4410 C   0  0  0  0  0  2  0  0  0  0  0  0
  -26.0480  -29.3780   20.7860 C   0  0  0  0  0  0  0  0  0  0  0  0
  -27.2160  -28.5270   20.7850 C   0  0  0  0  0  3  0  0  0  0  0  0
  -26.0010  -26.8520   19.5470 C   0  0  0  0  0  3  0  0  0  0  0  0
  -24.8580  -27.6780   19.5420 C   0  0  0  0  0  3  0  0  0  0  0  0
  -23.6410  -29.8220   20.2280 C   0  0  0  0  0  2  0  0  0  0  0  0
  -24.6950  -31.0700   22.1550 N   0  0  0  0  0  0  0  0  0  0  0  0
  -23.5390  -32.1680   23.7810 O   0  0  0  0  0  0  0  0  0  0  0  0
  -22.7460  -29.4840   22.5670 C   0  0  0  0  0  0  0  0  0  0  0  0
  -21.4190  -29.3080   22.4360 N   0  0  0  0  0  0  0  0  0  0  0  0
  -23.4180  -28.8580   23.3930 O   0  0  0  0  0  0  0  0  0  0  0  0
  -20.9340  -29.8640   21.7460 H   0  0  0  0  0  0  0  0  0  0  0  0
  -18.0380  -28.1090   22.9350 C   0  0  0  0  0  0  0  0  0  0  0  0
  -20.5970  -28.3700   23.2050 C   0  0  0  0  0  3  0  0  0  0  0  0
  -20.6980  -26.9380   22.6280 C   0  0  0  0  0  2  0  0  0  0  0  0
  -19.5980  -26.6170   21.6120 C   0  0  0  0  0  2  0  0  0  0  0  0
  -18.2150  -26.7610   22.2550 C   0  0  0  0  0  2  0  0  0  0  0  0
  -19.1560  -28.8710   23.3670 C   0  0  0  0  0  0  0  0  0  0  0  0
  -18.9360  -30.1300   23.9640 C   0  0  0  0  0  3  0  0  0  0  0  0
  -17.6310  -30.6300   24.1320 C   0  0  0  0  0  3  0  0  0  0  0  0
  -16.5270  -29.8650   23.7160 C   0  0  0  0  0  3  0  0  0  0  0  0
  -16.7320  -28.6060   23.1240 C   0  0  0  0  0  3  0  0  0  0  0  0
  -25.9030  -32.5180   23.8790 C   0  0  0  0  0  3  0  0  0  0  0  0
  -25.5990  -33.9220   24.1970 N   0  0  0  0  0  0  0  0  0  0  0  0
  -25.9420  -34.9690   23.4370 C   0  0  0  0  0  0  0  0  0  0  0  0
  -26.6150  -34.8570   22.4090 O   0  0  0  0  0  0  0  0  0  0  0  0
  -24.9990  -34.0830   24.9930 H   0  0  0  0  0  0  0  0  0  0  0  0
  -24.2330  -36.7810   23.0620 C   0  0  0  0  0  1  0  0  0  0  0  0
  -25.4640  -36.3640   23.8860 C   0  0  0  0  0  3  0  0  0  0  0  0
  -27.5940  -37.2370   24.7390 C   0  0  0  0  0  1  0  0  0  0  0  0
  -26.5070  -37.4080   23.7790 N   0  0  0  0  0  0  0  0  0  0  0  0
  -26.1070  -38.3320   23.9160 H   0  0  0  0  0  0  0  0  0  0  0  0
  -26.4020  -31.7580   25.1690 C   0  0  1  0  0  0  0  0  0  0  0  0
  -25.2970  -31.5390   26.2300 C   0  0  0  0  0  1  0  0  0  0  0  0
  -26.9810  -30.3720   24.8020 C   0  0  0  0  0  1  0  0  0  0  0  0
  -27.5520  -32.5520   25.8330 C   0  0  0  0  0  1  0  0  0  0  0  0
  -29.1780  -19.2570   20.7020 C   0  0  0  0  0  3  0  0  0  0  0  0
  -27.7950  -18.8320   20.5430 N   0  0  0  0  0  0  0  0  0  0  0  0
  -27.5270  -18.8660   19.5640 H   0  0  0  0  0  0  0  0  0  0  0  0
  -27.1560  -19.4620   21.0130 H   0  0  0  0  0  0  0  0  0  0  0  0
  -30.0330  -17.8950   20.2140 C   0  0  0  0  0  3  0  0  0  0  0  0
  -29.7390  -16.3380   20.7770 C   0  0  0  0  0  3  0  0  0  0  0  0
  -30.5460  -14.9560   20.3610 C   0  0  0  0  0  0  0  0  0  0  0  0
  -30.4240  -12.6240   19.3710 C   0  0  0  0  0  2  0  0  0  0  0  0
  -29.4840  -12.6390   18.1430 C   0  0  0  0  0  2  0  0  0  0  0  0
  -28.0170  -12.4360   18.5720 C   0  0  0  0  0  2  0  0  0  0  0  0
  -27.6270  -13.3350   19.7750 C   0  0  0  0  0  3  0  0  0  0  0  0
  -28.6870  -13.2930   20.8970 C   0  0  0  0  0  2  0  0  0  0  0  0
  -29.9720  -13.6890   20.3090 N   0  0  0  0  0  0  0  0  0  0  0  0
  -31.7220  -15.0490   19.9890 O   0  0  0  0  0  0  0  0  0  0  0  0
  -25.2450  -13.9180   20.5140 C   0  0  0  0  0  0  0  0  0  0  0  0
  -24.1800  -13.1430   20.8810 C   0  0  0  0  0  0  0  0  0  0  0  0
  -24.6420  -11.7920   20.8450 C   0  0  0  0  0  0  0  0  0  0  0  0
  -26.2880  -13.0390   20.2710 N   0  0  0  0  0  0  0  0  0  0  0  0
  -25.9330  -11.7550   20.5360 N   0  0  0  0  0  0  0  0  0  0  0  0
  -23.9140  -10.5300   21.0330 C   0  0  0  0  0  0  0  0  0  0  0  0
  -24.3360   -9.5650   21.9740 C   0  0  0  0  0  3  0  0  0  0  0  0
  -23.6060   -8.3690   22.1480 C   0  0  0  0  0  3  0  0  0  0  0  0
  -22.4410   -8.1290   21.3820 C   0  0  0  0  0  0  0  0  0  0  0  0
  -22.0380   -9.0840   20.4310 C   0  0  0  0  0  3  0  0  0  0  0  0
  -22.7680  -10.2700   20.2540 C   0  0  0  0  0  3  0  0  0  0  0  0
  -21.6840   -6.9850   21.4660 O   0  0  0  0  0  0  0  0  0  0  0  0
  -21.6110   -6.2530   22.6240 C   0  0  0  0  0  0  0  0  0  0  0  0
  -21.1430   -6.8140   23.8320 C   0  0  0  0  0  3  0  0  0  0  0  0
  -21.0200   -6.0070   24.9810 C   0  0  0  0  0  3  0  0  0  0  0  0
  -21.3540   -4.6420   24.9220 C   0  0  0  0  0  0  0  0  0  0  0  0
  -21.8170   -4.0800   23.7190 C   0  0  0  0  0  3  0  0  0  0  0  0
  -21.9420   -4.8840   22.5720 C   0  0  0  0  0  0  0  0  0  0  0  0
  -22.3670   -4.3330   21.4100 F   0  0  0  0  0  0  0  0  0  0  0  0
  -21.2290   -3.8640   26.0240 F   0  0  0  0  0  0  0  0  0  0  0  0
  -22.7830  -13.6210   21.1540 C   0  0  0  0  0  0  0  0  0  0  0  0
  -22.0510  -12.9180   22.0100 N   0  0  0  0  0  0  0  0  0  0  0  0
  -22.3500  -14.6540   20.6430 O   0  0  0  0  0  0  0  0  0  0  0  0
  -22.4150  -12.0830   22.4450 H   0  0  0  0  0  0  0  0  0  0  0  0
  -21.1140  -13.2210   22.2360 H   0  0  0  0  0  0  0  0  0  0  0  0
  -25.4110  -15.2900   20.3450 N   0  0  0  0  0  0  0  0  0  0  0  0
  -24.6510  -15.9470   20.4830 H   0  0  0  0  0  0  0  0  0  0  0  0
  -26.2760  -15.7410   20.0750 H   0  0  0  0  0  0  0  0  0  0  0  0
  1  2  1  0
  1  3  1  0
  3  8  1  0
  4  2  1  0
  4  5  1  0
  4 50  1  0
  5  3  1  0
  5  7  1  0
  6  5  1  0
  8  9  1  0
 10 21  2  0
 11  9  1  0
 11 16  1  0
 12 20  1  0
 12 22  1  0
 13 19  1  0
 13 15  1  0
 14 20  1  0
 15 14  1  0
 16 15  2  0
 17 11  2  0
 18 17  1  0
 18 13  2  0
 19 12  1  0
 20 10  1  0
 22 24  2  0
 23 22  1  0
 25 23  1  0
 26 35  2  0
 26 31  1  0
 27 23  1  0
 27 31  1  0
 28 27  1  0
 29 30  1  0
 29 28  1  0
 30 26  1  0
 31 32  2  0
 32 33  1  0
 34 33  2  0
 35 34  1  0
 36 10  1  0
 36 37  1  0
 36 46  1  0
 37 40  1  0
 38 42  1  0
 38 37  1  0
 39 38  2  0
 42 41  1  0
 44 42  1  0
 44 45  1  0
 44 43  1  0
 46 49  1  1
 46 47  1  0
 48 46  1  0
 50 54  1  0
 51 50  1  0
 51 53  1  0
 52 51  1  0
 54 55  2  0
 56 55  1  0
 57 62  1  0
 58 59  1  0
 58 57  1  0
 60 59  1  0
 60 67  1  0
 60 61  1  0
 62 56  1  0
 62 61  1  0
 63 56  2  0
 64 65  2  0
 65 84  1  0
 66 65  1  0
 66 69  1  0
 67 64  1  0
 67 68  1  0
 68 66  2  0
 69 70  1  0
 70 71  2  0
 72 75  1  0
 72 71  1  0
 73 72  2  0
 74 73  1  0
 74 69  2  0
 75 76  1  0
 76 77  1  0
 77 78  2  0
 79 78  1  0
 79 83  1  0
 80 79  2  0
 81 76  2  0
 81 80  1  0
 82 81  1  0
 84 85  1  0
 85 88  1  0
 85 87  1  0
 86 84  2  0
 89 90  1  0
 89 64  1  0
 91 89  1  0
M  ISO  4   8 101   9 101  55 100  56 100
M  END
>  <TORSDO>  (90) 
F 21

>  <SCORE>  (90) 
-13.705

>  <name>  (90) 
89

>  <ligand_id>  (90) 
89

>  <original_smiles>  (90) 
[H]c1c([H])c([H])c2c(c1[H])C([H])([H])C([H])([H])C([H])([H])C2([H])N([H])C(=O)C1([H])N(C(=O)C([H])(N([H])C(=O)C([H])(N([H])C([H])([H])[H])C([H])([H])[H])C(C([H])([H])[H])(C([H])([H])[H])C([H])([H])[H])C([H])([H])c2c([H])c(OC([H])([H])C3([H])C([H])([H])C([H])([H])C([H])(C([H])(N([H])[H])C([H])([H])C([H])([H])C(=O)N4C([H])([H])C([H])([H])C([H])([H])C([H])(n5nc(-c6c([H])c([H])c(Oc7c([H])c([H])c(F)c([H])c7F)c([H])c6[H])c(C(=O)N([H])[H])c5N([H])[H])C4([H])[H])[N+]3([H])[H])c([H])c([H])c2C1([H])[H]

>  <smiles>  (90) 
[H]c1c([H])c([H])c2c(c1[H])C([H])([H])C([H])([H])C([H])([H])C2([H])N([H])C(=O)C1([H])N(C(=O)C([H])(N([H])C(=O)C([H])(N([H])C([H])([H])[H])C([H])([H])[H])C(C([H])([H])[H])(C([H])([H])[H])C([H])([H])[H])C([H])([H])c2c([H])c(OC([H])([H])C3([H])C([H])([H])C([H])([H])C([H])(C([H])(N([H])[H])C([H])([H])C([H])([H])C(=O)N4C([H])([H])C([H])([H])C([H])([H])C([H])(n5nc(-c6c([H])c([H])c(Oc7c([H])c([H])c(F)c([H])c7F)c([H])c6[H])c(C(=O)N([H])[H])c5N([H])[H])C4([H])[H])[N+]3([H])[H])c([H])c([H])c2C1([H])[H]

$$$$
90:0:0
     RDKit          3D

 89 97  0  0  1  0  0  0  0  0999 V2000
  -28.7470  -22.8500   18.8420 C   0  0  0  0  0  2  0  0  0  0  0  0
  -28.4880  -24.3810   18.6440 C   0  0  0  0  0  2  0  0  0  0  0  0
  -28.8980  -23.9720   20.9640 C   0  0  0  0  0  2  0  0  0  0  0  0
  -28.5270  -22.5680   20.3360 C   0  0  0  0  0  3  0  0  0  0  0  0
  -28.1700  -25.0070   20.0260 C   0  0  0  0  0  3  0  0  0  0  0  0
  -29.2870  -21.3020   22.4590 C   0  0  0  0  0  1  0  0  0  0  0  0
  -28.8760  -21.1280   20.9870 C   0  0  0  0  0  3  0  0  0  0  0  0
  -29.7250  -19.9840   20.2650 C   0  0  0  0  0  2  0  0  0  0  0  0
  -29.4610  -18.4640   20.7330 C   0  0  0  0  0  3  0  0  0  0  0  0
  -30.4110  -17.2800   20.2320 C   0  0  0  0  0  3  0  0  0  0  0  0
  -30.7450  -14.7200   20.2850 C   0  0  0  0  0  0  0  0  0  0  0  0
  -30.4680  -12.4690   19.2680 C   0  0  0  0  0  2  0  0  0  0  0  0
  -29.5380  -12.6070   18.0410 C   0  0  0  0  0  2  0  0  0  0  0  0
  -28.0650  -12.4600   18.4710 C   0  0  0  0  0  2  0  0  0  0  0  0
  -27.7130  -13.3440   19.6990 C   0  0  0  0  0  3  0  0  0  0  0  0
  -28.7690  -13.2210   20.8210 C   0  0  0  0  0  2  0  0  0  0  0  0
  -30.0820  -13.5210   20.2320 N   0  0  0  0  0  0  0  0  0  0  0  0
  -31.9190  -14.8160   19.9180 O   0  0  0  0  0  0  0  0  0  0  0  0
  -30.0070  -15.8510   20.5280 N   0  0  0  0  0  0  0  0  0  0  0  0
  -29.0430  -15.6990   20.7870 H   0  0  0  0  0  0  0  0  0  0  0  0
  -25.3200  -13.9720   20.3950 C   0  0  0  0  0  0  0  0  0  0  0  0
  -24.2480  -13.2110   20.7730 C   0  0  0  0  0  0  0  0  0  0  0  0
  -24.7020  -11.8550   20.7680 C   0  0  0  0  0  0  0  0  0  0  0  0
  -26.3630  -13.0810   20.1840 N   0  0  0  0  0  0  0  0  0  0  0  0
  -25.9940  -11.8050   20.4660 N   0  0  0  0  0  0  0  0  0  0  0  0
  -23.9660  -10.6010   20.9720 C   0  0  0  0  0  0  0  0  0  0  0  0
  -24.3910   -9.6410   21.9180 C   0  0  0  0  0  3  0  0  0  0  0  0
  -23.6540   -8.4530   22.1130 C   0  0  0  0  0  3  0  0  0  0  0  0
  -22.4790   -8.2160   21.3600 C   0  0  0  0  0  0  0  0  0  0  0  0
  -22.0740   -9.1630   20.4020 C   0  0  0  0  0  3  0  0  0  0  0  0
  -22.8110  -10.3440   20.2070 C   0  0  0  0  0  3  0  0  0  0  0  0
  -21.7180   -7.0770   21.4600 O   0  0  0  0  0  0  0  0  0  0  0  0
  -21.6640   -6.3450   22.6210 C   0  0  0  0  0  0  0  0  0  0  0  0
  -21.2520   -6.9190   23.8430 C   0  0  0  0  0  3  0  0  0  0  0  0
  -21.1390   -6.1160   24.9970 C   0  0  0  0  0  3  0  0  0  0  0  0
  -21.4370   -4.7420   24.9270 C   0  0  0  0  0  0  0  0  0  0  0  0
  -21.8410   -4.1660   23.7100 C   0  0  0  0  0  3  0  0  0  0  0  0
  -21.9530   -4.9680   22.5590 C   0  0  0  0  0  0  0  0  0  0  0  0
  -22.3230   -4.4050   21.3820 F   0  0  0  0  0  0  0  0  0  0  0  0
  -21.3260   -3.9670   26.0320 F   0  0  0  0  0  0  0  0  0  0  0  0
  -22.8530  -13.7040   21.0260 C   0  0  0  0  0  0  0  0  0  0  0  0
  -22.1140  -13.0350   21.9040 N   0  0  0  0  0  0  0  0  0  0  0  0
  -22.4250  -14.7210   20.4820 O   0  0  0  0  0  0  0  0  0  0  0  0
  -22.4710  -12.2190   22.3740 H   0  0  0  0  0  0  0  0  0  0  0  0
  -21.1780  -13.3540   22.1110 H   0  0  0  0  0  0  0  0  0  0  0  0
  -25.4920  -15.3380   20.1920 N   0  0  0  0  0  0  0  0  0  0  0  0
  -24.7270  -15.9960   20.2920 H   0  0  0  0  0  0  0  0  0  0  0  0
  -26.3350  -15.7710   19.8330 H   0  0  0  0  0  0  0  0  0  0  0  0
  -28.3780  -26.4870   20.1130 O   0  0  0  0  0  0  0  0  0  0  0  0
  -24.5770  -31.8590   23.1020 C   0  0  0  0  0  0  0  0  0  0  0  0
  -27.2630  -27.3460   20.0210 C   0  0  0  0  0  0  0  0  0  0  0  0
  -23.3980  -30.4490   21.4510 C   0  0  0  0  0  3  0  0  0  0  0  0
  -24.8770  -28.9360   20.0120 C   0  0  0  0  0  0  0  0  0  0  0  0
  -25.9320  -30.8080   21.2720 C   0  0  0  0  0  2  0  0  0  0  0  0
  -26.0360  -29.4340   20.6190 C   0  0  0  0  0  0  0  0  0  0  0  0
  -27.2300  -28.6510   20.6150 C   0  0  0  0  0  3  0  0  0  0  0  0
  -26.0870  -26.9290   19.3520 C   0  0  0  0  0  3  0  0  0  0  0  0
  -24.9060  -27.6930   19.3650 C   0  0  0  0  0  3  0  0  0  0  0  0
  -23.6210  -29.7850   20.0690 C   0  0  0  0  0  2  0  0  0  0  0  0
  -24.6550  -31.0540   22.0010 N   0  0  0  0  0  0  0  0  0  0  0  0
  -23.4870  -32.1190   23.6350 O   0  0  0  0  0  0  0  0  0  0  0  0
  -22.7500  -29.4190   22.4070 C   0  0  0  0  0  0  0  0  0  0  0  0
  -21.4270  -29.2190   22.2720 N   0  0  0  0  0  0  0  0  0  0  0  0
  -23.4360  -28.8010   23.2260 O   0  0  0  0  0  0  0  0  0  0  0  0
  -20.9340  -29.7710   21.5840 H   0  0  0  0  0  0  0  0  0  0  0  0
  -18.0720  -27.9520   22.7410 C   0  0  0  0  0  0  0  0  0  0  0  0
  -20.6200  -28.2640   23.0360 C   0  0  0  0  0  3  0  0  0  0  0  0
  -20.7580  -26.8360   22.4620 C   0  0  0  0  0  2  0  0  0  0  0  0
  -19.6740  -26.4910   21.4360 C   0  0  0  0  0  2  0  0  0  0  0  0
  -18.2840  -26.6070   22.0670 C   0  0  0  0  0  2  0  0  0  0  0  0
  -19.1700  -28.7380   23.1800 C   0  0  0  0  0  0  0  0  0  0  0  0
  -18.9180  -29.9970   23.7710 C   0  0  0  0  0  3  0  0  0  0  0  0
  -17.6020  -30.4710   23.9210 C   0  0  0  0  0  3  0  0  0  0  0  0
  -16.5180  -29.6830   23.4980 C   0  0  0  0  0  3  0  0  0  0  0  0
  -16.7540  -28.4240   22.9180 C   0  0  0  0  0  3  0  0  0  0  0  0
  -25.8490  -32.5080   23.7280 C   0  0  0  0  0  3  0  0  0  0  0  0
  -26.3870  -31.7250   24.9880 C   0  0  1  0  0  0  0  0  0  0  0  0
  -25.3060  -31.4420   26.0580 C   0  0  0  0  0  1  0  0  0  0  0  0
  -26.9930  -30.3670   24.5660 C   0  0  0  0  0  1  0  0  0  0  0  0
  -27.5260  -32.5270   25.6600 C   0  0  0  0  0  1  0  0  0  0  0  0
  -25.5110  -33.8950   24.0900 N   0  0  0  0  0  0  0  0  0  0  0  0
  -25.8230  -34.9690   23.3550 C   0  0  0  0  0  0  0  0  0  0  0  0
  -26.4950  -34.9000   22.3220 O   0  0  0  0  0  0  0  0  0  0  0  0
  -24.9150  -34.0200   24.8950 H   0  0  0  0  0  0  0  0  0  0  0  0
  -24.0590  -36.7320   23.0310 C   0  0  0  0  0  1  0  0  0  0  0  0
  -25.3060  -36.3370   23.8400 C   0  0  0  0  0  3  0  0  0  0  0  0
  -27.4200  -37.2430   24.6990 C   0  0  0  0  0  1  0  0  0  0  0  0
  -26.3180  -37.4130   23.7570 N   0  0  0  0  0  0  0  0  0  0  0  0
  -25.8930  -38.3200   23.9260 H   0  0  0  0  0  0  0  0  0  0  0  0
  1  4  1  0
  2  1  1  0
  2  5  1  0
  4  3  1  0
  4  7  1  0
  5 49  1  0
  5  3  1  0
  7  6  1  0
  8  9  1  0
  8  7  1  0
 10 19  1  0
 10  9  2  0
 11 19  1  0
 12 17  1  0
 13 14  1  0
 13 12  1  0
 15 14  1  0
 15 24  1  0
 15 16  1  0
 17 11  1  0
 17 16  1  0
 18 11  2  0
 19 20  1  0
 21 22  2  0
 22 41  1  0
 23 22  1  0
 23 26  1  0
 24 21  1  0
 24 25  1  0
 25 23  2  0
 26 27  1  0
 27 28  2  0
 29 32  1  0
 29 28  1  0
 30 29  2  0
 31 30  1  0
 31 26  2  0
 32 33  1  0
 33 34  1  0
 34 35  2  0
 36 35  1  0
 36 40  1  0
 37 36  2  0
 38 33  2  0
 38 37  1  0
 39 38  1  0
 41 42  1  0
 42 45  1  0
 42 44  1  0
 43 41  2  0
 46 47  1  0
 46 21  1  0
 48 46  1  0
 50 61  2  0
 51 49  1  0
 51 56  1  0
 52 60  1  0
 52 62  1  0
 53 59  1  0
 53 55  1  0
 54 60  1  0
 55 54  1  0
 56 55  2  0
 57 58  1  0
 57 51  2  0
 58 53  2  0
 59 52  1  0
 60 50  1  0
 62 64  2  0
 63 62  1  0
 65 63  1  0
 66 75  2  0
 66 71  1  0
 67 63  1  0
 67 71  1  0
 68 67  1  0
 69 70  1  0
 69 68  1  0
 70 66  1  0
 71 72  2  0
 72 73  1  0
 74 73  2  0
 75 74  1  0
 76 50  1  0
 76 81  1  0
 76 77  1  0
 77 80  1  1
 77 78  1  0
 79 77  1  0
 81 84  1  0
 82 86  1  0
 82 81  1  0
 83 82  2  0
 86 85  1  0
 88 86  1  0
 88 89  1  0
 88 87  1  0
M  ISO  4   5 101  11 100  19 100  49 101
M  END
>  <TORSDO>  (91) 
F 20

>  <SCORE>  (91) 
-13.548

>  <name>  (91) 
90

>  <ligand_id>  (91) 
90

>  <original_smiles>  (91) 
[H]c1c([H])c([H])c2c(c1[H])C([H])([H])C([H])([H])C([H])([H])C2([H])N([H])C(=O)C1([H])N(C(=O)C([H])(N([H])C(=O)C([H])(N([H])C([H])([H])[H])C([H])([H])[H])C(C([H])([H])[H])(C([H])([H])[H])C([H])([H])[H])C([H])([H])c2c([H])c(OC3([H])C([H])([H])C([H])([H])C([H])(C([H])(C([H])([H])[H])C([H])([H])C([H])([H])C([H])([H])N([H])C(=O)N4C([H])([H])C([H])([H])C([H])([H])C([H])(n5nc(-c6c([H])c([H])c(Oc7c([H])c([H])c(F)c([H])c7F)c([H])c6[H])c(C(=O)N([H])[H])c5N([H])[H])C4([H])[H])C3([H])[H])c([H])c([H])c2C1([H])[H]

>  <smiles>  (91) 
[H]c1c([H])c([H])c2c(c1[H])C([H])([H])C([H])([H])C([H])([H])C2([H])N([H])C(=O)C1([H])N(C(=O)C([H])(N([H])C(=O)C([H])(N([H])C([H])([H])[H])C([H])([H])[H])C(C([H])([H])[H])(C([H])([H])[H])C([H])([H])[H])C([H])([H])c2c([H])c(OC3([H])C([H])([H])C([H])([H])C([H])(C([H])(C([H])([H])[H])C([H])([H])C([H])([H])C([H])([H])N([H])C(=O)N4C([H])([H])C([H])([H])C([H])([H])C([H])(n5nc(-c6c([H])c([H])c(Oc7c([H])c([H])c(F)c([H])c7F)c([H])c6[H])c(C(=O)N([H])[H])c5N([H])[H])C4([H])[H])C3([H])[H])c([H])c([H])c2C1([H])[H]

$$$$
91:0:0
     RDKit          3D

 89 88  0  0  1  0  0  0  0  0999 V2000
  -24.6950  -26.8400   18.8230 C   0  0  0  0  0  1  0  0  0  0  0  0
  -26.2540  -28.6300   18.9690 C   0  0  0  0  0  1  0  0  0  0  0  0
  -28.3310  -26.1700   21.2590 C   0  0  0  0  0 15  0  0  0  0  0  0
  -25.3210  -24.9930   19.9030 C   0  0  0  0  0  1  0  0  0  0  0  0
  -27.1030  -24.4710   20.7600 C   0  0  0  0  0 15  0  0  0  0  0  0
  -28.0070  -28.1930   20.2890 C   0  0  0  0  0  1  0  0  0  0  0  0
  -24.9320  -23.4980   19.5970 C   0  0  0  0  0  2  0  0  0  0  0  0
  -25.8590  -22.1870   20.1570 C   0  0  0  0  0  2  0  0  0  0  0  0
  -27.4440  -22.1040   20.6950 C   0  0  0  0  0  1  0  0  0  0  0  0
  -29.2970  -28.7480   19.8710 C   0  0  0  0  0  2  0  0  0  0  0  0
  -29.4470  -27.8820   18.6100 C   0  0  0  0  0  2  0  0  0  0  0  0
  -28.7490  -26.5850   18.7160 O   0  0  0  0  0  0  0  0  0  0  0  0
  -24.6820  -31.5230   23.2540 C   0  0  0  0  0  0  0  0  0  0  0  0
  -27.1240  -26.4980   19.0020 C   0  0  0  0  0  2  0  0  0  0  0  0
  -23.6360  -29.9370   21.5590 C   0  0  0  0  0  3  0  0  0  0  0  0
  -25.4940  -27.5810   20.5540 C   0  0  0  0  0  3  0  0  0  0  0  0
  -26.0130  -29.9330   21.6650 C   0  0  0  0  0  1  0  0  0  0  0  0
  -25.9630  -28.2440   21.6640 C   0  0  0  0  0  1  0  0  0  0  0  0
  -26.0640  -27.0070   20.8460 C   0  0  0  0  0  1  0  0  0  0  0  0
  -26.7490  -25.9310   17.7710 C   0  0  0  0  0  1  0  0  0  0  0  0
  -26.6610  -26.7520   18.7830 C   0  0  1  0  0  0  0  0  0  0  0  0
  -24.0660  -28.7400   20.5200 C   0  0  0  0  0  2  0  0  0  0  0  0
  -24.7920  -30.5900   22.2150 N   0  0  0  0  0  0  0  0  0  0  0  0
  -23.5830  -31.8890   23.7020 O   0  0  0  0  0  0  0  0  0  0  0  0
  -22.7110  -29.2770   22.5640 C   0  0  0  0  0  0  0  0  0  0  0  0
  -21.3910  -29.2450   22.3290 N   0  0  0  0  0  0  0  0  0  0  0  0
  -23.2370  -28.6620   23.4870 O   0  0  0  0  0  0  0  0  0  0  0  0
  -21.0140  -29.7650   21.5470 H   0  0  0  0  0  0  0  0  0  0  0  0
  -17.9420  -28.1470   22.7030 C   0  0  0  0  0  0  0  0  0  0  0  0
  -20.4980  -28.2930   22.9930 C   0  0  0  0  0  3  0  0  0  0  0  0
  -20.5440  -26.9150   22.2880 C   0  0  0  0  0  2  0  0  0  0  0  0
  -19.4460  -26.7420   21.2330 C   0  0  0  0  0  2  0  0  0  0  0  0
  -18.0700  -26.8700   21.8890 C   0  0  0  0  0  2  0  0  0  0  0  0
  -19.0830  -28.8310   23.1960 C   0  0  0  0  0  0  0  0  0  0  0  0
  -18.9120  -30.0270   23.9220 C   0  0  0  0  0  3  0  0  0  0  0  0
  -17.6250  -30.5480   24.1500 C   0  0  0  0  0  3  0  0  0  0  0  0
  -16.4950  -29.8660   23.6640 C   0  0  0  0  0  3  0  0  0  0  0  0
  -16.6550  -28.6630   22.9520 C   0  0  0  0  0  3  0  0  0  0  0  0
  -25.9290  -32.1450   23.9620 C   0  0  0  0  0  3  0  0  0  0  0  0
  -26.3070  -31.3880   25.3000 C   0  0  1  0  0  0  0  0  0  0  0  0
  -25.1140  -31.2310   26.2740 C   0  0  0  0  0  1  0  0  0  0  0  0
  -26.8440  -29.9700   25.0170 C   0  0  0  0  0  1  0  0  0  0  0  0
  -27.4490  -32.1360   26.0250 C   0  0  0  0  0  1  0  0  0  0  0  0
  -25.6700  -33.5750   24.2820 N   0  0  0  0  0  0  0  0  0  0  0  0
  -26.1390  -34.6350   23.6030 C   0  0  0  0  0  0  0  0  0  0  0  0
  -26.8580  -34.5120   22.6080 O   0  0  0  0  0  0  0  0  0  0  0  0
  -25.0080  -33.7470   25.0270 H   0  0  0  0  0  0  0  0  0  0  0  0
  -24.5240  -36.5430   23.2810 C   0  0  0  0  0  1  0  0  0  0  0  0
  -25.7380  -36.0500   24.0860 C   0  0  0  0  0  3  0  0  0  0  0  0
  -27.9190  -36.8040   24.9340 C   0  0  0  0  0  1  0  0  0  0  0  0
  -26.8280  -37.0510   23.9970 N   0  0  0  0  0  0  0  0  0  0  0  0
  -26.4690  -37.9850   24.1720 H   0  0  0  0  0  0  0  0  0  0  0  0
  -28.3560  -19.5680   20.2400 C   0  0  0  0  0 15  0  0  0  0  0  0
  -29.3770  -17.2440   20.2780 C   0  0  0  0  0  2  0  0  0  0  0  0
  -30.1570  -14.3100   19.5040 C   0  0  0  0  0  2  0  0  0  0  0  0
  -29.5890  -13.2040   18.4520 C   0  0  0  0  0  2  0  0  0  0  0  0
  -28.3360  -12.4810   18.9350 C   0  0  0  0  0  2  0  0  0  0  0  0
  -27.5640  -13.5030   19.7660 C   0  0  0  0  0  3  0  0  0  0  0  0
  -28.3770  -14.4190   20.7860 C   0  0  0  0  0  2  0  0  0  0  0  0
  -29.2180  -15.5600   20.1280 N   0  0  0  0  0  0  0  0  0  0  0  0
  -30.6490  -16.9880   20.2400 O   0  0  0  0  0  1  0  0  0  0  0  0
  -25.2140  -13.8230   20.5180 C   0  0  0  0  0  0  0  0  0  0  0  0
  -24.1900  -13.0010   20.8720 C   0  0  0  0  0  0  0  0  0  0  0  0
  -24.7080  -11.6680   20.8300 C   0  0  0  0  0  0  0  0  0  0  0  0
  -26.2990  -13.0120   20.2940 N   0  0  0  0  0  0  0  0  0  0  0  0
  -26.0120  -11.6940   20.5230 N   0  0  0  0  0  0  0  0  0  0  0  0
  -23.9930  -10.3900   21.0050 C   0  0  0  0  0  0  0  0  0  0  0  0
  -24.3930   -9.4340   21.9660 C   0  0  0  0  0  3  0  0  0  0  0  0
  -23.6640   -8.2360   22.1380 C   0  0  0  0  0  3  0  0  0  0  0  0
  -22.5170   -7.9820   21.3510 C   0  0  0  0  0  0  0  0  0  0  0  0
  -22.1310   -8.9250   20.3820 C   0  0  0  0  0  3  0  0  0  0  0  0
  -22.8600  -10.1140   20.2090 C   0  0  0  0  0  3  0  0  0  0  0  0
  -21.7600   -6.8360   21.4320 O   0  0  0  0  0  0  0  0  0  0  0  0
  -21.6580   -6.1180   22.5980 C   0  0  0  0  0  0  0  0  0  0  0  0
  -21.1440   -6.6920   23.7810 C   0  0  0  0  0  3  0  0  0  0  0  0
  -20.9900   -5.9030   24.9390 C   0  0  0  0  0  3  0  0  0  0  0  0
  -21.3380   -4.5390   24.9130 C   0  0  0  0  0  0  0  0  0  0  0  0
  -21.8440   -3.9630   23.7340 C   0  0  0  0  0  3  0  0  0  0  0  0
  -22.0010   -4.7510   22.5790 C   0  0  0  0  0  0  0  0  0  0  0  0
  -22.4680   -4.1870   21.4400 F   0  0  0  0  0  0  0  0  0  0  0  0
  -21.1850   -3.7780   26.0210 F   0  0  0  0  0  0  0  0  0  0  0  0
  -22.7820  -13.4460   21.1170 C   0  0  0  0  0  0  0  0  0  0  0  0
  -22.0560  -12.7440   21.9780 N   0  0  0  0  0  0  0  0  0  0  0  0
  -22.3400  -14.4640   20.5860 O   0  0  0  0  0  0  0  0  0  0  0  0
  -22.4280  -11.9200   22.4270 H   0  0  0  0  0  0  0  0  0  0  0  0
  -21.1120  -13.0320   22.1920 H   0  0  0  0  0  0  0  0  0  0  0  0
  -25.3110  -15.2000   20.3250 N   0  0  0  0  0  0  0  0  0  0  0  0
  -24.4990  -15.8070   20.3960 H   0  0  0  0  0  0  0  0  0  0  0  0
  -26.1350  -15.6680   19.9710 H   0  0  0  0  0  0  0  0  0  0  0  0
  7  4  1  0
  7  8  1  0
  8  9  1  0
 10  6  1  0
 11 12  1  0
 11 10  1  0
 12 14  1  0
 13 24  2  0
 15 22  1  0
 15 23  1  0
 15 25  1  0
 16 19  1  0
 16 18  1  0
 17 23  1  0
 21 20  1  6
 21  1  1  0
 21  2  1  0
 21 14  1  0
 22 16  1  0
 23 13  1  0
 25 27  2  0
 26 25  1  0
 28 26  1  0
 29 38  2  0
 29 34  1  0
 30 26  1  0
 30 34  1  0
 31 30  1  0
 32 33  1  0
 32 31  1  0
 33 29  1  0
 34 35  2  0
 35 36  1  0
 37 36  2  0
 38 37  1  0
 39 13  1  0
 39 44  1  0
 39 40  1  0
 40 43  1  1
 40 41  1  0
 42 40  1  0
 44 47  1  0
 45 49  1  0
 45 44  1  0
 46 45  2  0
 49 48  1  0
 51 49  1  0
 51 52  1  0
 51 50  1  0
 55 60  1  0
 56 57  1  0
 56 55  1  0
 58 57  1  0
 58 65  1  0
 58 59  1  0
 60 54  1  0
 60 59  1  0
 61 54  1  0
 62 63  2  0
 63 82  1  0
 64 63  1  0
 64 67  1  0
 65 62  1  0
 65 66  1  0
 66 64  2  0
 67 68  1  0
 68 69  2  0
 70 73  1  0
 70 69  1  0
 71 70  2  0
 72 71  1  0
 72 67  2  0
 73 74  1  0
 74 75  1  0
 75 76  2  0
 77 76  1  0
 77 81  1  0
 78 77  2  0
 79 74  2  0
 79 78  1  0
 80 79  1  0
 82 83  1  0
 83 86  1  0
 83 85  1  0
 84 82  2  0
 87 88  1  0
 87 62  1  0
 89 87  1  0
M  ISO  4  11 101  12 101  53 100  54 100
M  END
>  <TORSDO>  (92) 
F 19

>  <SCORE>  (92) 
-12.697

>  <name>  (92) 
91

>  <ligand_id>  (92) 
91

>  <original_smiles>  (92) 
[H]c1c([H])c([H])c2c(c1[H])C([H])([H])C([H])([H])C([H])([H])C2([H])N([H])C(=O)C1([H])N(C(=O)C([H])(N([H])C(=O)C([H])(N([H])C([H])([H])[H])C([H])([H])[H])C(C([H])([H])[H])(C([H])([H])[H])C([H])([H])[H])C([H])([H])c2c([H])c(OC([H])([H])C([H])([H])c3c([H])c([H])c4c(c3[H])C([H])(C([H])([H])C(=O)N3C([H])([H])C([H])([H])C([H])([H])C([H])(n5nc(-c6c([H])c([H])c(Oc7c([H])c([H])c(F)c([H])c7F)c([H])c6[H])c(C(=O)N([H])[H])c5N([H])[H])C3([H])[H])C([H])([H])C4([H])[H])c([H])c([H])c2C1([H])[H]

>  <smiles>  (92) 
[H]c1c([H])c([H])c2c(c1[H])C([H])([H])C([H])([H])C([H])([H])C2([H])N([H])C(=O)C1([H])N(C(=O)C([H])(N([H])C(=O)C([H])(N([H])C([H])([H])[H])C([H])([H])[H])C(C([H])([H])[H])(C([H])([H])[H])C([H])([H])[H])C([H])([H])c2c([H])c(OC([H])([H])C([H])([H])c3c([H])c([H])c4c(c3[H])C([H])(C([H])([H])C(=O)N3C([H])([H])C([H])([H])C([H])([H])C([H])(n5nc(-c6c([H])c([H])c(Oc7c([H])c([H])c(F)c([H])c7F)c([H])c6[H])c(C(=O)N([H])[H])c5N([H])[H])C3([H])[H])C([H])([H])C4([H])[H])c([H])c([H])c2C1([H])[H]

$$$$
92:0:0
     RDKit          3D

 92100  0  0  1  0  0  0  0  0999 V2000
  -28.1330  -24.0550   19.7410 C   0  0  0  0  0  3  0  0  0  0  0  0
  -30.2140  -24.7160   18.3110 C   0  0  0  0  0  2  0  0  0  0  0  0
  -30.2380  -25.8890   17.3190 C   0  0  0  0  0  2  0  0  0  0  0  0
  -28.0200  -24.9750   17.2260 C   0  0  0  0  0  2  0  0  0  0  0  0
  -28.7660  -24.1660   18.3140 C   0  0  0  0  0  3  0  0  0  0  0  0
  -29.1250  -25.5470   16.3220 C   0  0  0  0  0  3  0  0  0  0  0  0
  -28.6970  -26.6920   15.4940 N   0  0  0  0  0  4  0  0  0  0  0  0
  -28.3280  -27.4450   16.0470 H   0  0  0  0  0  0  0  0  0  0  0  0
  -27.9900  -26.4040   14.8390 H   0  0  0  0  0  0  0  0  0  0  0  0
  -29.4720  -27.0470   14.9580 H   0  0  0  0  0  0  0  0  0  0  0  0
  -28.8480  -22.4980   20.4110 C   0  0  0  0  0  0  0  0  0  0  0  0
  -29.5780  -22.6880   21.3860 O   0  0  0  0  0  0  0  0  0  0  0  0
  -28.7290  -20.7180   19.9750 C   0  0  0  0  0  3  0  0  0  0  0  0
  -29.6410  -19.0800   20.3300 C   0  0  0  0  0  3  0  0  0  0  0  0
  -29.3530  -17.2020   20.2020 C   0  0  0  0  0  2  0  0  0  0  0  0
  -30.2540  -15.5930   20.1420 C   0  0  0  0  0  0  0  0  0  0  0  0
  -30.3580  -13.0770   19.3100 C   0  0  0  0  0  2  0  0  0  0  0  0
  -29.4240  -12.7560   18.1070 C   0  0  0  0  0  2  0  0  0  0  0  0
  -27.9930  -12.4350   18.5730 C   0  0  0  0  0  2  0  0  0  0  0  0
  -27.5340  -13.3940   19.6910 C   0  0  0  0  0  3  0  0  0  0  0  0
  -28.5970  -13.6230   20.7830 C   0  0  0  0  0  2  0  0  0  0  0  0
  -29.7800  -14.2220   20.1290 N   0  0  0  0  0  0  0  0  0  0  0  0
  -31.4800  -15.5810   19.9200 O   0  0  0  0  0  0  0  0  0  0  0  0
  -25.1920  -13.9110   20.5280 C   0  0  0  0  0  0  0  0  0  0  0  0
  -24.1440  -13.1220   20.9090 C   0  0  0  0  0  0  0  0  0  0  0  0
  -24.6160  -11.7740   20.8390 C   0  0  0  0  0  0  0  0  0  0  0  0
  -26.2300  -13.0460   20.2390 N   0  0  0  0  0  0  0  0  0  0  0  0
  -25.8990  -11.7520   20.4900 N   0  0  0  0  0  0  0  0  0  0  0  0
  -23.8960  -10.5060   21.0270 C   0  0  0  0  0  0  0  0  0  0  0  0
  -24.3420   -9.5350   21.9490 C   0  0  0  0  0  3  0  0  0  0  0  0
  -23.6250   -8.3310   22.1250 C   0  0  0  0  0  3  0  0  0  0  0  0
  -22.4460   -8.0920   21.3790 C   0  0  0  0  0  0  0  0  0  0  0  0
  -22.0190   -9.0510   20.4450 C   0  0  0  0  0  3  0  0  0  0  0  0
  -22.7370  -10.2460   20.2710 C   0  0  0  0  0  3  0  0  0  0  0  0
  -21.6980   -6.9440   21.4650 O   0  0  0  0  0  0  0  0  0  0  0  0
  -21.6410   -6.2060   22.6190 C   0  0  0  0  0  0  0  0  0  0  0  0
  -21.1590   -6.7500   23.8300 C   0  0  0  0  0  3  0  0  0  0  0  0
  -21.0580   -5.9350   24.9750 C   0  0  0  0  0  3  0  0  0  0  0  0
  -21.4210   -4.5770   24.9100 C   0  0  0  0  0  0  0  0  0  0  0  0
  -21.8900   -4.0320   23.7030 C   0  0  0  0  0  3  0  0  0  0  0  0
  -21.9970   -4.8420   22.5600 C   0  0  0  0  0  0  0  0  0  0  0  0
  -22.4330   -4.3070   21.3950 F   0  0  0  0  0  0  0  0  0  0  0  0
  -21.3130   -3.7930   26.0090 F   0  0  0  0  0  0  0  0  0  0  0  0
  -22.7550  -13.5870   21.2240 C   0  0  0  0  0  0  0  0  0  0  0  0
  -22.0480  -12.8670   22.0890 N   0  0  0  0  0  0  0  0  0  0  0  0
  -22.3020  -14.6240   20.7360 O   0  0  0  0  0  0  0  0  0  0  0  0
  -22.4300  -12.0280   22.5040 H   0  0  0  0  0  0  0  0  0  0  0  0
  -21.1170  -13.1620   22.3450 H   0  0  0  0  0  0  0  0  0  0  0  0
  -25.3500  -15.2860   20.3760 N   0  0  0  0  0  0  0  0  0  0  0  0
  -24.5930  -15.9450   20.5300 H   0  0  0  0  0  0  0  0  0  0  0  0
  -26.1950  -15.7250   20.0340 H   0  0  0  0  0  0  0  0  0  0  0  0
  -28.1640  -25.6920   20.2910 O   0  0  0  0  0  0  0  0  0  0  0  0
  -24.6190  -31.8540   23.2390 C   0  0  0  0  0  0  0  0  0  0  0  0
  -27.1740  -26.8630   20.2120 C   0  0  0  0  0  0  0  0  0  0  0  0
  -23.4320  -30.4590   21.6010 C   0  0  0  0  0  3  0  0  0  0  0  0
  -24.8820  -28.8340   20.1800 C   0  0  0  0  0  0  0  0  0  0  0  0
  -26.0110  -30.6300   21.4730 C   0  0  0  0  0  2  0  0  0  0  0  0
  -26.0780  -29.2130   20.8020 C   0  0  0  0  0  0  0  0  0  0  0  0
  -27.2110  -28.2530   20.7850 C   0  0  0  0  0  3  0  0  0  0  0  0
  -25.9260  -26.6660   19.5670 C   0  0  0  0  0  3  0  0  0  0  0  0
  -24.8380  -27.5850   19.5450 C   0  0  0  0  0  3  0  0  0  0  0  0
  -23.6670  -29.7700   20.2280 C   0  0  0  0  0  2  0  0  0  0  0  0
  -24.7100  -31.0080   22.1560 N   0  0  0  0  0  0  0  0  0  0  0  0
  -23.5260  -32.1480   23.7550 O   0  0  0  0  0  0  0  0  0  0  0  0
  -22.7230  -29.4720   22.5670 C   0  0  0  0  0  0  0  0  0  0  0  0
  -21.3960  -29.3000   22.4290 N   0  0  0  0  0  0  0  0  0  0  0  0
  -23.3800  -28.8580   23.4110 O   0  0  0  0  0  0  0  0  0  0  0  0
  -20.9160  -29.8420   21.7240 H   0  0  0  0  0  0  0  0  0  0  0  0
  -18.0160  -28.0580   22.9120 C   0  0  0  0  0  0  0  0  0  0  0  0
  -20.5700  -28.3610   23.1990 C   0  0  0  0  0  3  0  0  0  0  0  0
  -20.6950  -26.9240   22.6400 C   0  0  0  0  0  2  0  0  0  0  0  0
  -19.6090  -26.5810   21.6140 C   0  0  0  0  0  2  0  0  0  0  0  0
  -18.2170  -26.7100   22.2400 C   0  0  0  0  0  2  0  0  0  0  0  0
  -19.1190  -28.8420   23.3460 C   0  0  0  0  0  0  0  0  0  0  0  0
  -18.8730  -30.1010   23.9360 C   0  0  0  0  0  3  0  0  0  0  0  0
  -17.5590  -30.5790   24.0900 C   0  0  0  0  0  3  0  0  0  0  0  0
  -16.4700  -29.7920   23.6730 C   0  0  0  0  0  3  0  0  0  0  0  0
  -16.7000  -28.5340   23.0900 C   0  0  0  0  0  3  0  0  0  0  0  0
  -25.8850  -32.5030   23.8790 C   0  0  0  0  0  3  0  0  0  0  0  0
  -25.5660  -33.9070   24.1980 N   0  0  0  0  0  0  0  0  0  0  0  0
  -25.8990  -34.9640   23.4440 C   0  0  0  0  0  0  0  0  0  0  0  0
  -26.5670  -34.8580   22.4120 O   0  0  0  0  0  0  0  0  0  0  0  0
  -24.9740  -34.0610   25.0000 H   0  0  0  0  0  0  0  0  0  0  0  0
  -24.1790  -36.7680   23.0980 C   0  0  0  0  0  1  0  0  0  0  0  0
  -25.4220  -36.3570   23.9040 C   0  0  0  0  0  3  0  0  0  0  0  0
  -27.5560  -37.2420   24.7340 C   0  0  0  0  0  1  0  0  0  0  0  0
  -26.4570  -37.4070   23.7860 N   0  0  0  0  0  0  0  0  0  0  0  0
  -26.0540  -38.3280   23.9290 H   0  0  0  0  0  0  0  0  0  0  0  0
  -26.3710  -31.7550   25.1820 C   0  0  1  0  0  0  0  0  0  0  0  0
  -25.2590  -31.5390   26.2360 C   0  0  0  0  0  1  0  0  0  0  0  0
  -26.9570  -30.3660   24.8410 C   0  0  0  0  0  1  0  0  0  0  0  0
  -27.5150  -32.5560   25.8490 C   0  0  0  0  0  1  0  0  0  0  0  0
  1 52  1  0
  1 11  1  0
  2  5  1  0
  3  2  1  0
  4  5  1  0
  5  1  1  0
  6  7  1  0
  6  4  1  0
  6  3  1  0
  7  8  1  0
  9  7  1  0
 10  7  1  0
 11 12  2  0
 13 14  2  0
 13 11  1  0
 15 14  1  0
 16 15  1  0
 17 22  1  0
 18 19  1  0
 18 17  1  0
 20 19  1  0
 20 27  1  0
 20 21  1  0
 22 16  1  0
 22 21  1  0
 23 16  2  0
 24 25  2  0
 25 44  1  0
 26 25  1  0
 26 29  1  0
 27 28  1  0
 27 24  1  0
 28 26  2  0
 29 30  1  0
 30 31  2  0
 32 35  1  0
 32 31  1  0
 33 32  2  0
 34 33  1  0
 34 29  2  0
 35 36  1  0
 36 37  1  0
 37 38  2  0
 39 38  1  0
 39 43  1  0
 40 39  2  0
 41 36  2  0
 41 40  1  0
 42 41  1  0
 44 45  1  0
 45 48  1  0
 45 47  1  0
 46 44  2  0
 49 24  1  0
 49 50  1  0
 51 49  1  0
 53 64  2  0
 54 52  1  0
 54 59  1  0
 55 63  1  0
 55 65  1  0
 56 62  1  0
 56 58  1  0
 57 63  1  0
 58 57  1  0
 59 58  2  0
 60 54  2  0
 61 60  1  0
 61 56  2  0
 62 55  1  0
 63 53  1  0
 65 67  2  0
 66 65  1  0
 68 66  1  0
 69 78  2  0
 69 74  1  0
 70 66  1  0
 70 74  1  0
 71 70  1  0
 72 73  1  0
 72 71  1  0
 73 69  1  0
 74 75  2  0
 75 76  1  0
 77 76  2  0
 78 77  1  0
 79 53  1  0
 79 80  1  0
 79 89  1  0
 80 83  1  0
 81 85  1  0
 81 80  1  0
 82 81  2  0
 85 84  1  0
 87 85  1  0
 87 88  1  0
 87 86  1  0
 89 92  1  1
 89 90  1  0
 91 89  1  0
M  ISO  4   1 101  15 100  16 100  52 101
M  END
>  <TORSDO>  (93) 
F 22

>  <SCORE>  (93) 
-16.043

>  <name>  (93) 
92

>  <ligand_id>  (93) 
92

>  <original_smiles>  (93) 
[H]c1c([H])c([H])c2c(c1[H])C([H])([H])C([H])([H])C([H])([H])C2([H])N([H])C(=O)C1([H])N(C(=O)C([H])(N([H])C(=O)C([H])(N([H])C([H])([H])[H])C([H])([H])[H])C(C([H])([H])[H])(C([H])([H])[H])C([H])([H])[H])C([H])([H])c2c([H])c(OC([H])(C(=O)C([H])([H])C([H])([H])C([H])([H])C(=O)N3C([H])([H])C([H])([H])C([H])([H])C([H])(n4nc(-c5c([H])c([H])c(Oc6c([H])c([H])c(F)c([H])c6F)c([H])c5[H])c(C(=O)N([H])[H])c4N([H])[H])C3([H])[H])C3([H])C([H])([H])C([H])([H])C([H])([N+]([H])([H])[H])C3([H])[H])c([H])c([H])c2C1([H])[H]

>  <smiles>  (93) 
[H]c1c([H])c([H])c2c(c1[H])C([H])([H])C([H])([H])C([H])([H])C2([H])N([H])C(=O)C1([H])N(C(=O)C([H])(N([H])C(=O)C([H])(N([H])C([H])([H])[H])C([H])([H])[H])C(C([H])([H])[H])(C([H])([H])[H])C([H])([H])[H])C([H])([H])c2c([H])c(OC([H])(C(=O)C([H])([H])C([H])([H])C([H])([H])C(=O)N3C([H])([H])C([H])([H])C([H])([H])C([H])(n4nc(-c5c([H])c([H])c(Oc6c([H])c([H])c(F)c([H])c6F)c([H])c5[H])c(C(=O)N([H])[H])c4N([H])[H])C3([H])[H])C3([H])C([H])([H])C([H])([H])C([H])([N+]([H])([H])[H])C3([H])[H])c([H])c([H])c2C1([H])[H]

$$$$
93:0:0
     RDKit          3D

 95103  0  0  1  0  0  0  0  0999 V2000
  -28.8290  -21.9320   20.8130 C   0  0  0  0  0  3  0  0  0  0  0  0
  -29.2590  -22.0550   22.2220 N   0  0  0  0  0  4  0  0  0  0  0  0
  -30.2330  -22.3010   22.2610 H   0  0  0  0  0  0  0  0  0  0  0  0
  -29.1270  -21.1910   22.7130 H   0  0  0  0  0  0  0  0  0  0  0  0
  -28.7410  -22.7630   22.7100 H   0  0  0  0  0  0  0  0  0  0  0  0
  -28.9760  -23.4940   20.1820 C   0  0  0  0  0  0  0  0  0  0  0  0
  -29.9090  -23.7440   19.4110 O   0  0  0  0  0  0  0  0  0  0  0  0
  -27.9680  -24.7480   20.5640 C   0  0  0  0  0  2  0  0  0  0  0  0
  -28.2630  -26.2350   20.2250 O   0  0  0  0  0  0  0  0  0  0  0  0
  -24.6120  -31.8920   23.2300 C   0  0  0  0  0  0  0  0  0  0  0  0
  -27.1890  -27.1930   20.2000 C   0  0  0  0  0  0  0  0  0  0  0  0
  -23.4010  -30.4880   21.6030 C   0  0  0  0  0  3  0  0  0  0  0  0
  -24.8430  -28.9080   20.1820 C   0  0  0  0  0  0  0  0  0  0  0  0
  -25.9530  -30.7620   21.4200 C   0  0  0  0  0  2  0  0  0  0  0  0
  -26.0260  -29.3690   20.7760 C   0  0  0  0  0  0  0  0  0  0  0  0
  -27.2020  -28.5290   20.7650 C   0  0  0  0  0  3  0  0  0  0  0  0
  -25.9790  -26.8290   19.5700 C   0  0  0  0  0  3  0  0  0  0  0  0
  -24.8330  -27.6490   19.5620 C   0  0  0  0  0  3  0  0  0  0  0  0
  -23.6130  -29.8010   20.2280 C   0  0  0  0  0  2  0  0  0  0  0  0
  -24.6740  -31.0700   22.1380 N   0  0  0  0  0  0  0  0  0  0  0  0
  -23.5290  -32.1770   23.7650 O   0  0  0  0  0  0  0  0  0  0  0  0
  -22.7290  -29.4850   22.5730 C   0  0  0  0  0  0  0  0  0  0  0  0
  -21.4020  -29.3060   22.4490 N   0  0  0  0  0  0  0  0  0  0  0  0
  -23.4050  -28.8680   23.3990 O   0  0  0  0  0  0  0  0  0  0  0  0
  -20.9110  -29.8520   21.7540 H   0  0  0  0  0  0  0  0  0  0  0  0
  -18.0290  -28.0840   22.9590 C   0  0  0  0  0  0  0  0  0  0  0  0
  -20.5870  -28.3720   23.2310 C   0  0  0  0  0  3  0  0  0  0  0  0
  -20.7030  -26.9340   22.6740 C   0  0  0  0  0  2  0  0  0  0  0  0
  -19.6060  -26.5880   21.6610 C   0  0  0  0  0  2  0  0  0  0  0  0
  -18.2210  -26.7290   22.2970 C   0  0  0  0  0  2  0  0  0  0  0  0
  -19.1410  -28.8610   23.3820 C   0  0  0  0  0  0  0  0  0  0  0  0
  -18.9090  -30.1280   23.9570 C   0  0  0  0  0  3  0  0  0  0  0  0
  -17.5980  -30.6180   24.1170 C   0  0  0  0  0  3  0  0  0  0  0  0
  -16.5020  -29.8370   23.7100 C   0  0  0  0  0  3  0  0  0  0  0  0
  -16.7190  -28.5730   23.1350 C   0  0  0  0  0  3  0  0  0  0  0  0
  -25.8930  -32.5290   23.8460 C   0  0  0  0  0  3  0  0  0  0  0  0
  -25.5820  -33.9280   24.1770 N   0  0  0  0  0  0  0  0  0  0  0  0
  -25.9090  -34.9830   23.4180 C   0  0  0  0  0  0  0  0  0  0  0  0
  -26.5690  -34.8820   22.3810 O   0  0  0  0  0  0  0  0  0  0  0  0
  -24.9980  -34.0820   24.9850 H   0  0  0  0  0  0  0  0  0  0  0  0
  -24.1760  -36.7770   23.0840 C   0  0  0  0  0  1  0  0  0  0  0  0
  -25.4250  -36.3700   23.8830 C   0  0  0  0  0  3  0  0  0  0  0  0
  -27.5660  -37.2540   24.6940 C   0  0  0  0  0  1  0  0  0  0  0  0
  -26.4560  -37.4250   23.7620 N   0  0  0  0  0  0  0  0  0  0  0  0
  -26.0510  -38.3450   23.9150 H   0  0  0  0  0  0  0  0  0  0  0  0
  -26.4140  -31.7660   25.1260 C   0  0  1  0  0  0  0  0  0  0  0  0
  -25.3220  -31.5390   26.1970 C   0  0  0  0  0  1  0  0  0  0  0  0
  -26.9930  -30.3840   24.7430 C   0  0  0  0  0  1  0  0  0  0  0  0
  -27.5680  -32.5640   25.7770 C   0  0  0  0  0  1  0  0  0  0  0  0
  -29.5680  -20.5590   20.1640 C   0  0  0  0  0  3  0  0  0  0  0  0
  -29.3270  -18.9680   20.6770 C   0  0  0  0  0  3  0  0  0  0  0  0
  -30.5170  -14.9210   20.3560 C   0  0  0  0  0  0  0  0  0  0  0  0
  -30.3340  -12.6060   19.3850 C   0  0  0  0  0  2  0  0  0  0  0  0
  -29.4020  -12.5780   18.1500 C   0  0  0  0  0  2  0  0  0  0  0  0
  -27.9330  -12.4050   18.5790 C   0  0  0  0  0  2  0  0  0  0  0  0
  -27.5390  -13.3130   19.7760 C   0  0  0  0  0  3  0  0  0  0  0  0
  -28.5970  -13.3080   20.9010 C   0  0  0  0  0  2  0  0  0  0  0  0
  -29.8720  -13.6940   20.2860 N   0  0  0  0  0  0  0  0  0  0  0  0
  -31.7350  -14.9440   20.1380 O   0  0  0  0  0  0  0  0  0  0  0  0
  -29.2880  -16.4190   18.8750 C   0  0  0  0  0  2  0  0  0  0  0  0
  -30.4060  -17.4560   18.6950 C   0  0  0  0  0  3  0  0  0  0  0  0
  -30.2730  -17.6670   20.2020 C   0  0  0  0  0  3  0  0  0  0  0  0
  -29.7950  -16.1490   20.2410 N   0  0  0  0  0  0  0  0  0  0  0  0
  -25.1620  -13.9000   20.5090 C   0  0  0  0  0  0  0  0  0  0  0  0
  -24.0940  -13.1280   20.8750 C   0  0  0  0  0  0  0  0  0  0  0  0
  -24.5550  -11.7770   20.8560 C   0  0  0  0  0  0  0  0  0  0  0  0
  -26.2020  -13.0190   20.2740 N   0  0  0  0  0  0  0  0  0  0  0  0
  -25.8480  -11.7380   20.5510 N   0  0  0  0  0  0  0  0  0  0  0  0
  -23.8290  -10.5170   21.0510 C   0  0  0  0  0  0  0  0  0  0  0  0
  -24.2650   -9.5470   21.9800 C   0  0  0  0  0  3  0  0  0  0  0  0
  -23.5400   -8.3510   22.1600 C   0  0  0  0  0  3  0  0  0  0  0  0
  -22.3640   -8.1160   21.4130 C   0  0  0  0  0  0  0  0  0  0  0  0
  -21.9440   -9.0730   20.4730 C   0  0  0  0  0  3  0  0  0  0  0  0
  -22.6690  -10.2620   20.2910 C   0  0  0  0  0  3  0  0  0  0  0  0
  -21.6040   -6.9740   21.5050 O   0  0  0  0  0  0  0  0  0  0  0  0
  -21.5690   -6.2230   22.6530 C   0  0  0  0  0  0  0  0  0  0  0  0
  -21.1690   -6.7720   23.8910 C   0  0  0  0  0  3  0  0  0  0  0  0
  -21.0810   -5.9460   25.0300 C   0  0  0  0  0  3  0  0  0  0  0  0
  -21.3880   -4.5750   24.9330 C   0  0  0  0  0  0  0  0  0  0  0  0
  -21.7810   -4.0280   23.6990 C   0  0  0  0  0  3  0  0  0  0  0  0
  -21.8710   -4.8500   22.5620 C   0  0  0  0  0  0  0  0  0  0  0  0
  -22.2310   -4.3140   21.3710 F   0  0  0  0  0  0  0  0  0  0  0  0
  -21.2980   -3.7800   26.0250 F   0  0  0  0  0  0  0  0  0  0  0  0
  -22.6960  -13.6090   21.1390 C   0  0  0  0  0  0  0  0  0  0  0  0
  -21.9620  -12.9220   22.0080 N   0  0  0  0  0  0  0  0  0  0  0  0
  -22.2610  -14.6280   20.6030 O   0  0  0  0  0  0  0  0  0  0  0  0
  -22.3200  -12.0920   22.4570 H   0  0  0  0  0  0  0  0  0  0  0  0
  -21.0280  -13.2340   22.2300 H   0  0  0  0  0  0  0  0  0  0  0  0
  -25.3360  -15.2710   20.3270 N   0  0  0  0  0  0  0  0  0  0  0  0
  -24.5810  -15.9350   20.4490 H   0  0  0  0  0  0  0  0  0  0  0  0
  -26.2060  -15.7080   20.0520 H   0  0  0  0  0  0  0  0  0  0  0  0
  -31.7170  -16.9120   18.2470 N   0  0  0  0  0  4  0  0  0  0  0  0
  -31.9500  -16.0830   18.7860 H   0  0  0  0  0  0  0  0  0  0  0  0
  -32.4500  -17.5830   18.3950 H   0  0  0  0  0  0  0  0  0  0  0  0
  -31.7090  -16.6780   17.2710 H   0  0  0  0  0  0  0  0  0  0  0  0
  1 50  1  0
  1  2  1  0
  2  3  1  0
  2  5  1  0
  2  4  1  0
  6  8  1  0
  6  1  1  0
  7  6  2  0
  9  8  1  0
 10 21  2  0
 11  9  1  0
 11 16  1  0
 12 20  1  0
 12 22  1  0
 13 19  1  0
 13 15  1  0
 14 20  1  0
 15 14  1  0
 16 15  2  0
 17 11  2  0
 18 17  1  0
 18 13  2  0
 19 12  1  0
 20 10  1  0
 22 24  2  0
 23 22  1  0
 25 23  1  0
 26 35  2  0
 26 31  1  0
 27 23  1  0
 27 31  1  0
 28 27  1  0
 29 30  1  0
 29 28  1  0
 30 26  1  0
 31 32  2  0
 32 33  1  0
 34 33  2  0
 35 34  1  0
 36 10  1  0
 36 37  1  0
 36 46  1  0
 37 40  1  0
 38 42  1  0
 38 37  1  0
 39 38  2  0
 42 41  1  0
 44 42  1  0
 44 45  1  0
 44 43  1  0
 46 49  1  1
 46 47  1  0
 48 46  1  0
 50 51  2  0
 53 58  1  0
 54 55  1  0
 54 53  1  0
 56 55  1  0
 56 67  1  0
 56 57  1  0
 58 52  1  0
 58 57  1  0
 59 52  2  0
 60 63  1  0
 61 92  1  0
 61 60  1  0
 61 62  1  0
 62 63  1  0
 62 51  1  0
 63 52  1  0
 64 65  2  0
 65 84  1  0
 66 65  1  0
 66 69  1  0
 67 64  1  0
 67 68  1  0
 68 66  2  0
 69 70  1  0
 70 71  2  0
 72 75  1  0
 72 71  1  0
 73 72  2  0
 74 73  1  0
 74 69  2  0
 75 76  1  0
 76 77  1  0
 77 78  2  0
 79 78  1  0
 79 83  1  0
 80 79  2  0
 81 76  2  0
 81 80  1  0
 82 81  1  0
 84 85  1  0
 85 88  1  0
 85 87  1  0
 86 84  2  0
 89 90  1  0
 89 64  1  0
 91 89  1  0
 92 94  1  0
 92 93  1  0
 95 92  1  0
M  ISO  4   8 101   9 101  52 100  63 100
M  END
>  <TORSDO>  (94) 
F 22

>  <SCORE>  (94) 
-13.325

>  <name>  (94) 
93

>  <ligand_id>  (94) 
93

>  <original_smiles>  (94) 
[H]c1c([H])c([H])c2c(c1[H])C([H])([H])C([H])([H])C([H])([H])C2([H])N([H])C(=O)C1([H])N(C(=O)C([H])(N([H])C(=O)C([H])(N([H])C([H])([H])[H])C([H])([H])[H])C(C([H])([H])[H])(C([H])([H])[H])C([H])([H])[H])C([H])([H])c2c([H])c(OC([H])([H])C(=O)C([H])(C([H])([H])C([H])([H])C3([H])N(C(=O)N4C([H])([H])C([H])([H])C([H])([H])C([H])(n5nc(-c6c([H])c([H])c(Oc7c([H])c([H])c(F)c([H])c7F)c([H])c6[H])c(C(=O)N([H])[H])c5N([H])[H])C4([H])[H])C([H])([H])C3([H])[N+]([H])([H])[H])[N+]([H])([H])[H])c([H])c([H])c2C1([H])[H]

>  <smiles>  (94) 
[H]c1c([H])c([H])c2c(c1[H])C([H])([H])C([H])([H])C([H])([H])C2([H])N([H])C(=O)C1([H])N(C(=O)C([H])(N([H])C(=O)C([H])(N([H])C([H])([H])[H])C([H])([H])[H])C(C([H])([H])[H])(C([H])([H])[H])C([H])([H])[H])C([H])([H])c2c([H])c(OC([H])([H])C(=O)C([H])(C([H])([H])C([H])([H])C3([H])N(C(=O)N4C([H])([H])C([H])([H])C([H])([H])C([H])(n5nc(-c6c([H])c([H])c(Oc7c([H])c([H])c(F)c([H])c7F)c([H])c6[H])c(C(=O)N([H])[H])c5N([H])[H])C4([H])[H])C([H])([H])C3([H])[N+]([H])([H])[H])[N+]([H])([H])[H])c([H])c([H])c2C1([H])[H]

$$$$
94:0:0
     RDKit          3D

 90 98  0  0  1  0  0  0  0  0999 V2000
  -29.1600  -20.3840   21.4780 C   0  0  0  0  0  2  0  0  0  0  0  0
  -31.1180  -19.2190   20.4310 C   0  0  0  0  0  2  0  0  0  0  0  0
  -28.9080  -20.4960   19.9700 C   0  0  0  0  0  3  0  0  0  0  0  0
  -29.8870  -18.9020   19.5620 C   0  0  0  0  0  3  0  0  0  0  0  0
  -30.6720  -20.1050   21.6210 C   0  0  0  0  0  3  0  0  0  0  0  0
  -30.5180  -15.8290   19.7490 C   0  0  0  0  0  0  0  0  0  0  0  0
  -30.6730  -13.2420   19.1550 C   0  0  0  0  0  2  0  0  0  0  0  0
  -29.7650  -12.7290   18.0040 C   0  0  0  0  0  2  0  0  0  0  0  0
  -28.3530  -12.3990   18.5160 C   0  0  0  0  0  2  0  0  0  0  0  0
  -27.8440  -13.4650   19.5170 C   0  0  0  0  0  3  0  0  0  0  0  0
  -28.8930  -13.8910   20.5670 C   0  0  0  0  0  2  0  0  0  0  0  0
  -30.0340  -14.4610   19.8210 N   0  0  0  0  0  0  0  0  0  0  0  0
  -31.7480  -15.8040   19.5560 O   0  0  0  0  0  0  0  0  0  0  0  0
  -29.7140  -17.1520   19.7120 N   0  0  0  0  0  0  0  0  0  0  0  0
  -28.7340  -16.9200   19.7850 H   0  0  0  0  0  0  0  0  0  0  0  0
  -25.5460  -14.0020   20.4560 C   0  0  0  0  0  0  0  0  0  0  0  0
  -24.4980  -13.2240   20.8590 C   0  0  0  0  0  0  0  0  0  0  0  0
  -24.9410  -11.8700   20.7420 C   0  0  0  0  0  0  0  0  0  0  0  0
  -26.5560  -13.1280   20.1050 N   0  0  0  0  0  0  0  0  0  0  0  0
  -26.2120  -11.8350   20.3470 N   0  0  0  0  0  0  0  0  0  0  0  0
  -24.2030  -10.6120   20.9240 C   0  0  0  0  0  0  0  0  0  0  0  0
  -24.6040   -9.6470   21.8750 C   0  0  0  0  0  3  0  0  0  0  0  0
  -23.8600   -8.4590   22.0500 C   0  0  0  0  0  3  0  0  0  0  0  0
  -22.7030   -8.2240   21.2710 C   0  0  0  0  0  0  0  0  0  0  0  0
  -22.3190   -9.1770   20.3120 C   0  0  0  0  0  3  0  0  0  0  0  0
  -23.0620  -10.3560   20.1350 C   0  0  0  0  0  3  0  0  0  0  0  0
  -21.9380   -7.0850   21.3510 O   0  0  0  0  0  0  0  0  0  0  0  0
  -21.7750   -6.4080   22.5340 C   0  0  0  0  0  0  0  0  0  0  0  0
  -21.1720   -7.0100   23.6590 C   0  0  0  0  0  3  0  0  0  0  0  0
  -20.9590   -6.2570   24.8310 C   0  0  0  0  0  3  0  0  0  0  0  0
  -21.3420   -4.9040   24.8790 C   0  0  0  0  0  0  0  0  0  0  0  0
  -21.9390   -4.3010   23.7590 C   0  0  0  0  0  3  0  0  0  0  0  0
  -22.1520   -5.0510   22.5870 C   0  0  0  0  0  0  0  0  0  0  0  0
  -22.7080   -4.4590   21.5020 F   0  0  0  0  0  0  0  0  0  0  0  0
  -21.1330   -4.1790   26.0020 F   0  0  0  0  0  0  0  0  0  0  0  0
  -23.1280  -13.7110   21.2300 C   0  0  0  0  0  0  0  0  0  0  0  0
  -22.4410  -13.0000   22.1170 N   0  0  0  0  0  0  0  0  0  0  0  0
  -22.6770  -14.7580   20.7660 O   0  0  0  0  0  0  0  0  0  0  0  0
  -22.8220  -12.1540   22.5160 H   0  0  0  0  0  0  0  0  0  0  0  0
  -21.5220  -13.3060   22.4020 H   0  0  0  0  0  0  0  0  0  0  0  0
  -25.7130  -15.3780   20.3310 N   0  0  0  0  0  0  0  0  0  0  0  0
  -24.9570  -16.0250   20.5260 H   0  0  0  0  0  0  0  0  0  0  0  0
  -26.5260  -15.8300   19.9350 H   0  0  0  0  0  0  0  0  0  0  0  0
  -31.0330  -19.5410   22.9370 N   0  0  0  0  0  4  0  0  0  0  0  0
  -30.4810  -18.7300   23.1520 H   0  0  0  0  0  0  0  0  0  0  0  0
  -30.8920  -20.2210   23.6620 H   0  0  0  0  0  0  0  0  0  0  0  0
  -32.0030  -19.2800   22.9500 H   0  0  0  0  0  0  0  0  0  0  0  0
  -28.9850  -22.3930   19.6280 C   0  0  0  0  0  3  0  0  0  0  0  0
  -27.9750  -24.0150   19.8720 C   0  0  0  0  0  3  0  0  0  0  0  0
  -28.1320  -25.7550   19.8110 O   0  0  0  0  0  0  0  0  0  0  0  0
  -24.6090  -31.8120   23.0900 C   0  0  0  0  0  0  0  0  0  0  0  0
  -27.1210  -26.9200   19.8430 C   0  0  0  0  0  0  0  0  0  0  0  0
  -23.3830  -30.4340   21.4650 C   0  0  0  0  0  3  0  0  0  0  0  0
  -24.8020  -28.8730   19.9400 C   0  0  0  0  0  0  0  0  0  0  0  0
  -25.9470  -30.6590   21.2300 C   0  0  0  0  0  2  0  0  0  0  0  0
  -26.0160  -29.2490   20.5300 C   0  0  0  0  0  0  0  0  0  0  0  0
  -27.1590  -28.3010   20.4490 C   0  0  0  0  0  3  0  0  0  0  0  0
  -25.8670  -26.7430   19.2080 C   0  0  0  0  0  3  0  0  0  0  0  0
  -24.7640  -27.6470   19.2530 C   0  0  0  0  0  3  0  0  0  0  0  0
  -23.5750  -29.7880   20.0630 C   0  0  0  0  0  2  0  0  0  0  0  0
  -24.6720  -30.9990   21.9800 N   0  0  0  0  0  0  0  0  0  0  0  0
  -23.5330  -32.0650   23.6570 O   0  0  0  0  0  0  0  0  0  0  0  0
  -22.7380  -29.4070   22.4340 C   0  0  0  0  0  0  0  0  0  0  0  0
  -21.4250  -29.1410   22.2900 N   0  0  0  0  0  0  0  0  0  0  0  0
  -23.4300  -28.8480   23.2870 O   0  0  0  0  0  0  0  0  0  0  0  0
  -20.9140  -29.6430   21.5760 H   0  0  0  0  0  0  0  0  0  0  0  0
  -18.1640  -27.5900   22.6930 C   0  0  0  0  0  0  0  0  0  0  0  0
  -20.6650  -28.1490   23.0600 C   0  0  0  0  0  3  0  0  0  0  0  0
  -20.9480  -26.7160   22.5490 C   0  0  0  0  0  2  0  0  0  0  0  0
  -19.9400  -26.2380   21.4990 C   0  0  0  0  0  2  0  0  0  0  0  0
  -18.5210  -26.2500   22.0730 C   0  0  0  0  0  2  0  0  0  0  0  0
  -19.1690  -28.4880   23.1410 C   0  0  0  0  0  0  0  0  0  0  0  0
  -18.7810  -29.7310   23.6850 C   0  0  0  0  0  3  0  0  0  0  0  0
  -17.4220  -30.0850   23.7770 C   0  0  0  0  0  3  0  0  0  0  0  0
  -16.4300  -29.1880   23.3410 C   0  0  0  0  0  3  0  0  0  0  0  0
  -16.8020  -27.9410   22.8080 C   0  0  0  0  0  3  0  0  0  0  0  0
  -25.8840  -32.4750   23.6970 C   0  0  0  0  0  3  0  0  0  0  0  0
  -26.4340  -31.7070   24.9620 C   0  0  1  0  0  0  0  0  0  0  0  0
  -25.3590  -31.4190   26.0380 C   0  0  0  0  0  1  0  0  0  0  0  0
  -27.0560  -30.3540   24.5580 C   0  0  0  0  0  1  0  0  0  0  0  0
  -27.5670  -32.5270   25.6190 C   0  0  0  0  0  1  0  0  0  0  0  0
  -25.5490  -33.8660   24.0610 N   0  0  0  0  0  0  0  0  0  0  0  0
  -25.8560  -34.9480   23.3350 C   0  0  0  0  0  0  0  0  0  0  0  0
  -26.5040  -34.8820   22.2870 O   0  0  0  0  0  0  0  0  0  0  0  0
  -24.9630  -33.9870   24.8740 H   0  0  0  0  0  0  0  0  0  0  0  0
  -24.1060  -36.7420   23.0710 C   0  0  0  0  0  1  0  0  0  0  0  0
  -25.3670  -36.3210   23.8440 C   0  0  0  0  0  3  0  0  0  0  0  0
  -27.5010  -37.2140   24.6670 C   0  0  0  0  0  1  0  0  0  0  0  0
  -26.3880  -37.3870   23.7380 N   0  0  0  0  0  0  0  0  0  0  0  0
  -25.9770  -38.3030   23.9040 H   0  0  0  0  0  0  0  0  0  0  0  0
  1  5  1  0
  2  5  1  0
  3 48  1  0
  3  1  1  0
  4 14  1  0
  4  3  1  0
  4  2  1  0
  5 44  1  0
  6 12  1  0
  7 12  1  0
  8  9  1  0
  8  7  1  0
 10  9  1  0
 10 19  1  0
 10 11  1  0
 12 11  1  0
 13  6  2  0
 14  6  1  0
 14 15  1  0
 16 17  2  0
 17 36  1  0
 18 17  1  0
 18 21  1  0
 19 20  1  0
 19 16  1  0
 20 18  2  0
 21 22  1  0
 22 23  2  0
 24 27  1  0
 24 23  1  0
 25 24  2  0
 26 25  1  0
 26 21  2  0
 27 28  1  0
 28 33  2  0
 28 29  1  0
 29 30  2  0
 30 31  1  0
 31 35  1  0
 32 31  2  0
 33 32  1  0
 34 33  1  0
 36 37  1  0
 37 40  1  0
 37 39  1  0
 38 36  2  0
 41 16  1  0
 41 42  1  0
 43 41  1  0
 44 47  1  0
 44 45  1  0
 44 46  1  0
 48 49  2  0
 50 52  1  0
 50 49  1  0
 51 62  2  0
 52 57  1  0
 53 61  1  0
 53 63  1  0
 54 60  1  0
 54 56  1  0
 55 61  1  0
 56 55  1  0
 57 56  2  0
 58 59  1  0
 58 52  2  0
 59 54  2  0
 60 53  1  0
 61 51  1  0
 63 65  2  0
 64 63  1  0
 66 64  1  0
 67 76  2  0
 67 72  1  0
 68 64  1  0
 68 72  1  0
 69 68  1  0
 70 71  1  0
 70 69  1  0
 71 67  1  0
 72 73  2  0
 73 74  1  0
 75 74  2  0
 76 75  1  0
 77 51  1  0
 77 82  1  0
 77 78  1  0
 78 81  1  1
 78 79  1  0
 80 78  1  0
 82 85  1  0
 83 87  1  0
 83 82  1  0
 84 83  2  0
 87 86  1  0
 89 87  1  0
 89 90  1  0
 89 88  1  0
M  ISO  4   6 100  14 100  49 101  50 101
M  END
>  <TORSDO>  (95) 
F 19

>  <SCORE>  (95) 
-15.820

>  <name>  (95) 
94

>  <ligand_id>  (95) 
94

>  <original_smiles>  (95) 
[H]c1c([H])c([H])c2c(c1[H])C([H])([H])C([H])([H])C([H])([H])C2([H])N([H])C(=O)C1([H])N(C(=O)C([H])(N([H])C(=O)C([H])(N([H])C([H])([H])[H])C([H])([H])[H])C(C([H])([H])[H])(C([H])([H])[H])C([H])([H])[H])C([H])([H])c2c([H])c(OC([H])([H])C([H])([H])C3([H])C([H])([H])C([H])([N+]([H])([H])[H])C([H])([H])C3([H])N([H])C(=O)N3C([H])([H])C([H])([H])C([H])([H])C([H])(n4nc(-c5c([H])c([H])c(Oc6c([H])c([H])c(F)c([H])c6F)c([H])c5[H])c(C(=O)N([H])[H])c4N([H])[H])C3([H])[H])c([H])c([H])c2C1([H])[H]

>  <smiles>  (95) 
[H]c1c([H])c([H])c2c(c1[H])C([H])([H])C([H])([H])C([H])([H])C2([H])N([H])C(=O)C1([H])N(C(=O)C([H])(N([H])C(=O)C([H])(N([H])C([H])([H])[H])C([H])([H])[H])C(C([H])([H])[H])(C([H])([H])[H])C([H])([H])[H])C([H])([H])c2c([H])c(OC([H])([H])C([H])([H])C3([H])C([H])([H])C([H])([N+]([H])([H])[H])C([H])([H])C3([H])N([H])C(=O)N3C([H])([H])C([H])([H])C([H])([H])C([H])(n4nc(-c5c([H])c([H])c(Oc6c([H])c([H])c(F)c([H])c6F)c([H])c5[H])c(C(=O)N([H])[H])c4N([H])[H])C3([H])[H])c([H])c([H])c2C1([H])[H]

$$$$
95:0:0
     RDKit          3D

 90 98  0  0  1  0  0  0  0  0999 V2000
  -26.6300  -22.2340   20.5830 C   0  0  0  0  0  3  0  0  0  0  0  0
  -27.0330  -23.5750   20.3650 C   0  0  0  0  0  3  0  0  0  0  0  0
  -27.5570  -21.1660   20.5580 C   0  0  0  0  0  3  0  0  0  0  0  0
  -29.3060  -22.7740   20.0870 C   0  0  0  0  0  3  0  0  0  0  0  0
  -28.3880  -23.8910   20.1080 C   0  0  0  0  0  0  0  0  0  0  0  0
  -28.9370  -21.3840   20.2990 C   0  0  0  0  0  0  0  0  0  0  0  0
  -30.9890  -20.3170   19.0960 C   0  0  0  0  0  1  0  0  0  0  0  0
  -29.9870  -20.1670   20.2700 C   0  0  0  0  0  3  0  0  0  0  0  0
  -29.4760  -18.6300   20.3340 C   0  0  0  0  0  3  0  0  0  0  0  0
  -30.5420  -17.4320   20.5450 C   0  0  0  0  0  3  0  0  0  0  0  0
  -30.8010  -14.8620   20.4360 C   0  0  0  0  0  0  0  0  0  0  0  0
  -30.5780  -12.6230   19.3960 C   0  0  0  0  0  2  0  0  0  0  0  0
  -29.6630  -12.7660   18.1580 C   0  0  0  0  0  2  0  0  0  0  0  0
  -28.1860  -12.5760   18.5550 C   0  0  0  0  0  2  0  0  0  0  0  0
  -27.7960  -13.4370   19.7820 C   0  0  0  0  0  3  0  0  0  0  0  0
  -28.8350  -13.3270   20.9240 C   0  0  0  0  0  2  0  0  0  0  0  0
  -30.1560  -13.6550   20.3680 N   0  0  0  0  0  0  0  0  0  0  0  0
  -31.9750  -14.9630   20.0730 O   0  0  0  0  0  0  0  0  0  0  0  0
  -30.0670  -15.9960   20.7030 N   0  0  0  0  0  0  0  0  0  0  0  0
  -29.1280  -15.8390   21.0390 H   0  0  0  0  0  0  0  0  0  0  0  0
  -25.4020  -14.0140   20.5180 C   0  0  0  0  0  0  0  0  0  0  0  0
  -24.3320  -13.2380   20.8690 C   0  0  0  0  0  0  0  0  0  0  0  0
  -24.8010  -11.8840   20.8280 C   0  0  0  0  0  0  0  0  0  0  0  0
  -26.4460  -13.1380   20.2590 N   0  0  0  0  0  0  0  0  0  0  0  0
  -26.0920  -11.8510   20.5170 N   0  0  0  0  0  0  0  0  0  0  0  0
  -24.0810  -10.6140   21.0080 C   0  0  0  0  0  0  0  0  0  0  0  0
  -24.4990   -9.6490   21.9530 C   0  0  0  0  0  3  0  0  0  0  0  0
  -23.7740   -8.4480   22.1220 C   0  0  0  0  0  3  0  0  0  0  0  0
  -22.6140   -8.2040   21.3470 C   0  0  0  0  0  0  0  0  0  0  0  0
  -22.2160   -9.1570   20.3910 C   0  0  0  0  0  3  0  0  0  0  0  0
  -22.9420  -10.3460   20.2190 C   0  0  0  0  0  3  0  0  0  0  0  0
  -21.8630   -7.0550   21.4220 O   0  0  0  0  0  0  0  0  0  0  0  0
  -21.7790   -6.3250   22.5810 C   0  0  0  0  0  0  0  0  0  0  0  0
  -21.2800   -6.8820   23.7790 C   0  0  0  0  0  3  0  0  0  0  0  0
  -21.1480   -6.0780   24.9310 C   0  0  0  0  0  3  0  0  0  0  0  0
  -21.4980   -4.7170   24.8840 C   0  0  0  0  0  0  0  0  0  0  0  0
  -21.9910   -4.1570   23.6900 C   0  0  0  0  0  3  0  0  0  0  0  0
  -22.1280   -4.9580   22.5450 C   0  0  0  0  0  0  0  0  0  0  0  0
  -22.5830   -4.4100   21.3930 F   0  0  0  0  0  0  0  0  0  0  0  0
  -21.3670   -3.9440   25.9870 F   0  0  0  0  0  0  0  0  0  0  0  0
  -22.9240  -13.7040   21.1310 C   0  0  0  0  0  0  0  0  0  0  0  0
  -22.1790  -13.0080   21.9830 N   0  0  0  0  0  0  0  0  0  0  0  0
  -22.4920  -14.7340   20.6120 O   0  0  0  0  0  0  0  0  0  0  0  0
  -22.5330  -12.1820   22.4420 H   0  0  0  0  0  0  0  0  0  0  0  0
  -21.2380  -13.3080   22.2010 H   0  0  0  0  0  0  0  0  0  0  0  0
  -25.5910  -15.3870   20.3760 N   0  0  0  0  0  0  0  0  0  0  0  0
  -24.8960  -16.0870   20.6120 H   0  0  0  0  0  0  0  0  0  0  0  0
  -26.4980  -15.7840   20.1750 H   0  0  0  0  0  0  0  0  0  0  0  0
  -28.8240  -25.3620   19.6660 C   0  0  0  0  0  2  0  0  0  0  0  0
  -28.4960  -26.6200   20.3980 O   0  0  0  0  0  0  0  0  0  0  0  0
  -24.6280  -31.9620   23.2720 C   0  0  0  0  0  0  0  0  0  0  0  0
  -27.3640  -27.4410   20.2300 C   0  0  0  0  0  0  0  0  0  0  0  0
  -23.4630  -30.5350   21.6210 C   0  0  0  0  0  3  0  0  0  0  0  0
  -24.9620  -29.0100   20.1800 C   0  0  0  0  0  0  0  0  0  0  0  0
  -25.9870  -30.9010   21.4480 C   0  0  0  0  0  2  0  0  0  0  0  0
  -26.1010  -29.5160   20.8150 C   0  0  0  0  0  0  0  0  0  0  0  0
  -27.3000  -28.7350   20.8440 C   0  0  0  0  0  3  0  0  0  0  0  0
  -26.2270  -27.0160   19.5190 C   0  0  0  0  0  3  0  0  0  0  0  0
  -25.0350  -27.7740   19.5040 C   0  0  0  0  0  3  0  0  0  0  0  0
  -23.6880  -29.8360   20.2450 C   0  0  0  0  0  2  0  0  0  0  0  0
  -24.7130  -31.1500   22.1740 N   0  0  0  0  0  0  0  0  0  0  0  0
  -23.5370  -32.2180   23.7990 O   0  0  0  0  0  0  0  0  0  0  0  0
  -22.8070  -29.5210   22.5880 C   0  0  0  0  0  0  0  0  0  0  0  0
  -21.4810  -29.3320   22.4560 N   0  0  0  0  0  0  0  0  0  0  0  0
  -23.4870  -28.9030   23.4090 O   0  0  0  0  0  0  0  0  0  0  0  0
  -20.9890  -29.8910   21.7730 H   0  0  0  0  0  0  0  0  0  0  0  0
  -18.1050  -28.1140   22.9340 C   0  0  0  0  0  0  0  0  0  0  0  0
  -20.6670  -28.3760   23.2110 C   0  0  0  0  0  3  0  0  0  0  0  0
  -20.7680  -26.9550   22.6110 C   0  0  0  0  0  2  0  0  0  0  0  0
  -19.6630  -26.6450   21.5940 C   0  0  0  0  0  2  0  0  0  0  0  0
  -18.2840  -26.7740   22.2430 C   0  0  0  0  0  2  0  0  0  0  0  0
  -19.2220  -28.8740   23.3720 C   0  0  0  0  0  0  0  0  0  0  0  0
  -18.9970  -30.1290   23.9750 C   0  0  0  0  0  3  0  0  0  0  0  0
  -17.6880  -30.6220   24.1470 C   0  0  0  0  0  3  0  0  0  0  0  0
  -16.5880  -29.8590   23.7240 C   0  0  0  0  0  3  0  0  0  0  0  0
  -16.7960  -28.6060   23.1220 C   0  0  0  0  0  3  0  0  0  0  0  0
  -25.8930  -32.6120   23.9150 C   0  0  0  0  0  3  0  0  0  0  0  0
  -26.3910  -31.8570   25.2080 C   0  0  1  0  0  0  0  0  0  0  0  0
  -25.2840  -31.6160   26.2570 C   0  0  0  0  0  1  0  0  0  0  0  0
  -26.9940  -30.4850   24.8340 C   0  0  0  0  0  1  0  0  0  0  0  0
  -27.5190  -32.6650   25.8890 C   0  0  0  0  0  1  0  0  0  0  0  0
  -25.5710  -34.0120   24.2320 N   0  0  0  0  0  0  0  0  0  0  0  0
  -25.9060  -35.0630   23.4730 C   0  0  0  0  0  0  0  0  0  0  0  0
  -26.5900  -34.9590   22.4510 O   0  0  0  0  0  0  0  0  0  0  0  0
  -24.9730  -34.1710   25.0300 H   0  0  0  0  0  0  0  0  0  0  0  0
  -24.1710  -36.8380   23.0720 C   0  0  0  0  0  1  0  0  0  0  0  0
  -25.3980  -36.4490   23.9140 C   0  0  0  0  0  3  0  0  0  0  0  0
  -27.5090  -37.3530   24.7830 C   0  0  0  0  0  1  0  0  0  0  0  0
  -26.4240  -37.5120   23.8160 N   0  0  0  0  0  0  0  0  0  0  0  0
  -26.0050  -38.4290   23.9550 H   0  0  0  0  0  0  0  0  0  0  0  0
  2  1  2  0
  3  1  1  0
  4  5  2  0
  4  6  1  0
  5  2  1  0
  6  3  2  0
  8  7  1  0
  8  6  1  0
  8  9  1  0
  9 10  2  0
 10 19  1  0
 11 19  1  0
 12 17  1  0
 13 14  1  0
 13 12  1  0
 15 14  1  0
 15 24  1  0
 15 16  1  0
 17 11  1  0
 17 16  1  0
 18 11  2  0
 19 20  1  0
 21 22  2  0
 22 41  1  0
 23 22  1  0
 23 26  1  0
 24 25  1  0
 24 21  1  0
 25 23  2  0
 26 27  1  0
 27 28  2  0
 29 32  1  0
 29 28  1  0
 30 29  2  0
 31 30  1  0
 31 26  2  0
 32 33  1  0
 33 34  1  0
 34 35  2  0
 36 35  1  0
 36 40  1  0
 37 36  2  0
 38 33  2  0
 38 37  1  0
 39 38  1  0
 41 42  1  0
 42 45  1  0
 42 44  1  0
 43 41  2  0
 46 21  1  0
 46 47  1  0
 48 46  1  0
 49  5  1  0
 49 50  1  0
 51 62  2  0
 52 50  1  0
 52 57  1  0
 53 61  1  0
 53 63  1  0
 54 60  1  0
 54 56  1  0
 55 61  1  0
 56 57  2  0
 56 55  1  0
 58 52  2  0
 59 58  1  0
 59 54  2  0
 60 53  1  0
 61 51  1  0
 63 65  2  0
 64 63  1  0
 66 64  1  0
 67 76  2  0
 67 72  1  0
 68 64  1  0
 68 72  1  0
 69 68  1  0
 70 71  1  0
 70 69  1  0
 71 67  1  0
 72 73  2  0
 73 74  1  0
 75 74  2  0
 76 75  1  0
 77 51  1  0
 77 82  1  0
 77 78  1  0
 78 81  1  1
 78 79  1  0
 80 78  1  0
 82 85  1  0
 83 87  1  0
 83 82  1  0
 84 83  2  0
 87 86  1  0
 89 87  1  0
 89 90  1  0
 89 88  1  0
M  ISO  4  11 100  19 100  49 101  50 101
M  END
>  <TORSDO>  (96) 
F 20

>  <SCORE>  (96) 
-13.261

>  <name>  (96) 
95

>  <ligand_id>  (96) 
95

>  <original_smiles>  (96) 
[H]c1c([H])c([H])c2c(c1[H])C([H])([H])C([H])([H])C([H])([H])C2([H])N([H])C(=O)C1([H])N(C(=O)C([H])(N([H])C(=O)C([H])(N([H])C([H])([H])[H])C([H])([H])[H])C(C([H])([H])[H])(C([H])([H])[H])C([H])([H])[H])C([H])([H])c2c([H])c(OC([H])([H])c3c([H])c([H])c([H])c(C([H])(C([H])([H])[H])C([H])([H])C([H])([H])N([H])C(=O)N4C([H])([H])C([H])([H])C([H])([H])C([H])(n5nc(-c6c([H])c([H])c(Oc7c([H])c([H])c(F)c([H])c7F)c([H])c6[H])c(C(=O)N([H])[H])c5N([H])[H])C4([H])[H])c3[H])c([H])c([H])c2C1([H])[H]

>  <smiles>  (96) 
[H]c1c([H])c([H])c2c(c1[H])C([H])([H])C([H])([H])C([H])([H])C2([H])N([H])C(=O)C1([H])N(C(=O)C([H])(N([H])C(=O)C([H])(N([H])C([H])([H])[H])C([H])([H])[H])C(C([H])([H])[H])(C([H])([H])[H])C([H])([H])[H])C([H])([H])c2c([H])c(OC([H])([H])c3c([H])c([H])c([H])c(C([H])(C([H])([H])[H])C([H])([H])C([H])([H])N([H])C(=O)N4C([H])([H])C([H])([H])C([H])([H])C([H])(n5nc(-c6c([H])c([H])c(Oc7c([H])c([H])c(F)c([H])c7F)c([H])c6[H])c(C(=O)N([H])[H])c5N([H])[H])C4([H])[H])c3[H])c([H])c([H])c2C1([H])[H]

$$$$
96:0:0
     RDKit          3D

 89 97  0  0  1  0  0  0  0  0999 V2000
  -28.9900  -21.3700   22.4750 C   0  0  0  0  0  3  0  0  0  0  0  0
  -29.3410  -20.1760   21.8140 C   0  0  0  0  0  3  0  0  0  0  0  0
  -28.9470  -22.6020   21.7940 C   0  0  0  0  0  3  0  0  0  0  0  0
  -29.6290  -21.4490   19.7630 C   0  0  0  0  0  3  0  0  0  0  0  0
  -29.6770  -20.1670   20.4450 C   0  0  0  0  0  0  0  0  0  0  0  0
  -29.2600  -22.6920   20.4190 C   0  0  0  0  0  0  0  0  0  0  0  0
  -29.9210  -18.7590   19.7550 C   0  0  0  0  0  2  0  0  0  0  0  0
  -30.8170  -17.6230   20.4690 C   0  0  0  0  0  2  0  0  0  0  0  0
  -31.2320  -15.0490   20.0470 C   0  0  0  0  0  0  0  0  0  0  0  0
  -31.0030  -12.7620   19.0790 C   0  0  0  0  0  2  0  0  0  0  0  0
  -30.0370  -12.8160   17.8740 C   0  0  0  0  0  2  0  0  0  0  0  0
  -28.5740  -12.6710   18.3390 C   0  0  0  0  0  2  0  0  0  0  0  0
  -28.2350  -13.6010   19.5340 C   0  0  0  0  0  3  0  0  0  0  0  0
  -29.3100  -13.5130   20.6380 C   0  0  0  0  0  2  0  0  0  0  0  0
  -30.6000  -13.8310   20.0160 N   0  0  0  0  0  0  0  0  0  0  0  0
  -32.4100  -15.1590   19.6990 O   0  0  0  0  0  0  0  0  0  0  0  0
  -30.4490  -16.1570   20.2950 N   0  0  0  0  0  0  0  0  0  0  0  0
  -29.4860  -15.9360   20.4980 H   0  0  0  0  0  0  0  0  0  0  0  0
  -25.8870  -14.2570   20.3380 C   0  0  0  0  0  0  0  0  0  0  0  0
  -24.8070  -13.5070   20.7210 C   0  0  0  0  0  0  0  0  0  0  0  0
  -25.2270  -12.1430   20.6500 C   0  0  0  0  0  0  0  0  0  0  0  0
  -26.8960  -13.3490   20.0550 N   0  0  0  0  0  0  0  0  0  0  0  0
  -26.5070  -12.0720   20.3050 N   0  0  0  0  0  0  0  0  0  0  0  0
  -24.4670  -10.8990   20.8320 C   0  0  0  0  0  0  0  0  0  0  0  0
  -24.8310   -9.9490   21.8100 C   0  0  0  0  0  3  0  0  0  0  0  0
  -24.0750   -8.7690   21.9780 C   0  0  0  0  0  3  0  0  0  0  0  0
  -22.9400   -8.5320   21.1650 C   0  0  0  0  0  0  0  0  0  0  0  0
  -22.5960   -9.4710   20.1770 C   0  0  0  0  0  3  0  0  0  0  0  0
  -23.3530  -10.6420   20.0080 C   0  0  0  0  0  3  0  0  0  0  0  0
  -22.1610   -7.4030   21.2410 O   0  0  0  0  0  0  0  0  0  0  0  0
  -21.9510   -6.7510   22.4290 C   0  0  0  0  0  0  0  0  0  0  0  0
  -21.3350   -7.3880   23.5290 C   0  0  0  0  0  3  0  0  0  0  0  0
  -21.0760   -6.6600   24.7070 C   0  0  0  0  0  3  0  0  0  0  0  0
  -21.4200   -5.2970   24.7860 C   0  0  0  0  0  0  0  0  0  0  0  0
  -22.0270   -4.6600   23.6890 C   0  0  0  0  0  3  0  0  0  0  0  0
  -22.2890   -5.3850   22.5130 C   0  0  0  0  0  0  0  0  0  0  0  0
  -22.8550   -4.7610   21.4510 F   0  0  0  0  0  0  0  0  0  0  0  0
  -21.1630   -4.5960   25.9140 F   0  0  0  0  0  0  0  0  0  0  0  0
  -23.4330  -14.0200   21.0410 C   0  0  0  0  0  0  0  0  0  0  0  0
  -22.7130  -13.3340   21.9220 N   0  0  0  0  0  0  0  0  0  0  0  0
  -23.0090  -15.0640   20.5470 O   0  0  0  0  0  0  0  0  0  0  0  0
  -23.0690  -12.4880   22.3410 H   0  0  0  0  0  0  0  0  0  0  0  0
  -21.7930  -13.6610   22.1820 H   0  0  0  0  0  0  0  0  0  0  0  0
  -26.0900  -15.6240   20.1830 N   0  0  0  0  0  0  0  0  0  0  0  0
  -25.3460  -16.3000   20.3190 H   0  0  0  0  0  0  0  0  0  0  0  0
  -26.9310  -16.0380   19.8030 H   0  0  0  0  0  0  0  0  0  0  0  0
  -29.2200  -24.1140   19.7090 C   0  0  0  0  0  3  0  0  0  0  0  0
  -28.4940  -25.3640   20.4220 C   0  0  0  0  0  3  0  0  0  0  0  0
  -28.6070  -26.7490   19.8860 O   0  0  0  0  0  0  0  0  0  0  0  0
  -24.6860  -31.8540   23.2090 C   0  0  0  0  0  0  0  0  0  0  0  0
  -27.4660  -27.5650   19.9210 C   0  0  0  0  0  0  0  0  0  0  0  0
  -23.5390  -30.5100   21.4860 C   0  0  0  0  0  3  0  0  0  0  0  0
  -25.0480  -29.0900   19.9840 C   0  0  0  0  0  0  0  0  0  0  0  0
  -26.0660  -30.9280   21.3320 C   0  0  0  0  0  2  0  0  0  0  0  0
  -26.1980  -29.5890   20.6110 C   0  0  0  0  0  0  0  0  0  0  0  0
  -27.4120  -28.8390   20.5680 C   0  0  0  0  0  3  0  0  0  0  0  0
  -26.2970  -27.1210   19.2690 C   0  0  0  0  0  3  0  0  0  0  0  0
  -25.1000  -27.8640   19.3020 C   0  0  0  0  0  3  0  0  0  0  0  0
  -23.7810  -29.9180   20.0720 C   0  0  0  0  0  2  0  0  0  0  0  0
  -24.7820  -31.1110   22.0680 N   0  0  0  0  0  0  0  0  0  0  0  0
  -23.5920  -32.0630   23.7530 O   0  0  0  0  0  0  0  0  0  0  0  0
  -22.9080  -29.4190   22.3850 C   0  0  0  0  0  0  0  0  0  0  0  0
  -21.5870  -29.2110   22.2460 N   0  0  0  0  0  0  0  0  0  0  0  0
  -23.6060  -28.7660   23.1650 O   0  0  0  0  0  0  0  0  0  0  0  0
  -21.0830  -29.7880   21.5880 H   0  0  0  0  0  0  0  0  0  0  0  0
  -18.2440  -27.9090   22.6980 C   0  0  0  0  0  0  0  0  0  0  0  0
  -20.7990  -28.2070   22.9620 C   0  0  0  0  0  3  0  0  0  0  0  0
  -20.9280  -26.8210   22.2900 C   0  0  0  0  0  2  0  0  0  0  0  0
  -19.8220  -26.5420   21.2680 C   0  0  0  0  0  2  0  0  0  0  0  0
  -18.4440  -26.6120   21.9320 C   0  0  0  0  0  2  0  0  0  0  0  0
  -19.3500  -28.6660   23.1690 C   0  0  0  0  0  0  0  0  0  0  0  0
  -19.1100  -29.8800   23.8470 C   0  0  0  0  0  3  0  0  0  0  0  0
  -17.7960  -30.3390   24.0610 C   0  0  0  0  0  3  0  0  0  0  0  0
  -16.7040  -29.5780   23.6080 C   0  0  0  0  0  3  0  0  0  0  0  0
  -16.9300  -28.3660   22.9310 C   0  0  0  0  0  3  0  0  0  0  0  0
  -25.9450  -32.4950   23.8730 C   0  0  0  0  0  3  0  0  0  0  0  0
  -26.4460  -31.7060   25.1440 C   0  0  1  0  0  0  0  0  0  0  0  0
  -25.3260  -31.4010   26.1670 C   0  0  0  0  0  1  0  0  0  0  0  0
  -27.0880  -30.3610   24.7350 C   0  0  0  0  0  1  0  0  0  0  0  0
  -27.5440  -32.5210   25.8650 C   0  0  0  0  0  1  0  0  0  0  0  0
  -25.6030  -33.8810   24.2250 N   0  0  0  0  0  0  0  0  0  0  0  0
  -25.9250  -34.9550   23.4930 C   0  0  0  0  0  0  0  0  0  0  0  0
  -26.6110  -34.8860   22.4680 O   0  0  0  0  0  0  0  0  0  0  0  0
  -24.9970  -34.0070   25.0220 H   0  0  0  0  0  0  0  0  0  0  0  0
  -24.1610  -36.7180   23.1610 C   0  0  0  0  0  1  0  0  0  0  0  0
  -25.4060  -36.3260   23.9720 C   0  0  0  0  0  3  0  0  0  0  0  0
  -27.5110  -37.2460   24.8380 C   0  0  0  0  0  1  0  0  0  0  0  0
  -26.4170  -37.4020   23.8840 N   0  0  0  0  0  0  0  0  0  0  0  0
  -25.9890  -38.3110   24.0380 H   0  0  0  0  0  0  0  0  0  0  0  0
  2  1  1  0
  3  1  2  0
  4  6  2  0
  4  5  1  0
  5  2  2  0
  6  3  1  0
  7  5  1  0
  7  8  1  0
  9 17  1  0
 10 15  1  0
 11 12  1  0
 11 10  1  0
 13 12  1  0
 13 22  1  0
 13 14  1  0
 15  9  1  0
 15 14  1  0
 16  9  2  0
 17  8  1  0
 17 18  1  0
 19 20  2  0
 20 39  1  0
 21 20  1  0
 21 24  1  0
 22 23  1  0
 22 19  1  0
 23 21  2  0
 24 25  1  0
 25 26  2  0
 27 30  1  0
 27 26  1  0
 28 27  2  0
 29 28  1  0
 29 24  2  0
 30 31  1  0
 31 36  2  0
 31 32  1  0
 32 33  2  0
 33 34  1  0
 34 38  1  0
 35 34  2  0
 36 35  1  0
 37 36  1  0
 39 40  1  0
 40 43  1  0
 40 42  1  0
 41 39  2  0
 44 45  1  0
 44 19  1  0
 46 44  1  0
 47  6  1  0
 47 48  2  0
 49 51  1  0
 49 48  1  0
 50 61  2  0
 51 56  1  0
 52 60  1  0
 52 62  1  0
 53 59  1  0
 53 55  1  0
 54 60  1  0
 55 54  1  0
 56 55  2  0
 57 58  1  0
 57 51  2  0
 58 53  2  0
 59 52  1  0
 60 50  1  0
 62 64  2  0
 63 62  1  0
 65 63  1  0
 66 75  2  0
 66 71  1  0
 67 63  1  0
 67 71  1  0
 68 67  1  0
 69 70  1  0
 69 68  1  0
 70 66  1  0
 71 72  2  0
 72 73  1  0
 74 73  2  0
 75 74  1  0
 76 50  1  0
 76 81  1  0
 76 77  1  0
 77 80  1  1
 77 78  1  0
 79 77  1  0
 81 84  1  0
 82 86  1  0
 82 81  1  0
 83 82  2  0
 86 85  1  0
 88 86  1  0
 88 89  1  0
 88 87  1  0
M  ISO  4   9 100  17 100  48 101  49 101
M  END
>  <TORSDO>  (97) 
F 20

>  <SCORE>  (97) 
-12.146

>  <name>  (97) 
96

>  <ligand_id>  (97) 
96

>  <original_smiles>  (97) 
[H]c1c([H])c(C([H])([H])C([H])([H])Oc2c([H])c([H])c3c(c2[H])C([H])([H])N(C(=O)C([H])(N([H])C(=O)C([H])(N([H])C([H])([H])[H])C([H])([H])[H])C(C([H])([H])[H])(C([H])([H])[H])C([H])([H])[H])C([H])(C(=O)N([H])C2([H])c4c([H])c([H])c([H])c([H])c4C([H])([H])C([H])([H])C2([H])[H])C3([H])[H])c([H])c(C([H])([H])C([H])([H])N([H])C(=O)N2C([H])([H])C([H])([H])C([H])([H])C([H])(n3nc(-c4c([H])c([H])c(Oc5c([H])c([H])c(F)c([H])c5F)c([H])c4[H])c(C(=O)N([H])[H])c3N([H])[H])C2([H])[H])c1[H]

>  <smiles>  (97) 
[H]c1c([H])c(C([H])([H])C([H])([H])Oc2c([H])c([H])c3c(c2[H])C([H])([H])N(C(=O)C([H])(N([H])C(=O)C([H])(N([H])C([H])([H])[H])C([H])([H])[H])C(C([H])([H])[H])(C([H])([H])[H])C([H])([H])[H])C([H])(C(=O)N([H])C2([H])c4c([H])c([H])c([H])c([H])c4C([H])([H])C([H])([H])C2([H])[H])C3([H])[H])c([H])c(C([H])([H])C([H])([H])N([H])C(=O)N2C([H])([H])C([H])([H])C([H])([H])C([H])(n3nc(-c4c([H])c([H])c(Oc5c([H])c([H])c(F)c([H])c5F)c([H])c4[H])c(C(=O)N([H])[H])c3N([H])[H])C2([H])[H])c1[H]

$$$$
97:0:0
     RDKit          3D

 91100  0  0  1  0  0  0  0  0999 V2000
  -29.7690  -25.2770   17.3760 C   0  0  0  0  0  3  0  0  0  0  0  0
  -28.4210  -25.3630   17.3730 C   0  0  0  0  0  3  0  0  0  0  0  0
  -30.4150  -24.0970   18.0310 C   0  0  0  0  0  0  0  0  0  0  0  0
  -28.2670  -22.9490   17.5390 C   0  0  0  0  0  2  0  0  0  0  0  0
  -27.6150  -24.2680   18.0440 C   0  0  0  0  0  3  0  0  0  0  0  0
  -29.5200  -22.8780   18.4220 C   0  0  0  0  0  3  0  0  0  0  0  0
  -28.8750  -22.9000   19.8330 C   0  0  0  0  0  3  0  0  0  0  0  0
  -27.8430  -24.3330   19.6200 C   0  0  0  0  0  3  0  0  0  0  0  0
  -31.6250  -24.0450   18.2550 O   0  0  0  0  0  0  0  0  0  0  0  0
  -28.1030  -25.9040   20.0400 O   0  0  0  0  0  0  0  0  0  0  0  0
  -24.6660  -31.8820   23.1990 C   0  0  0  0  0  0  0  0  0  0  0  0
  -27.1170  -27.0070   20.0730 C   0  0  0  0  0  0  0  0  0  0  0  0
  -23.4480  -30.4920   21.5840 C   0  0  0  0  0  3  0  0  0  0  0  0
  -24.8500  -28.8990   20.1320 C   0  0  0  0  0  0  0  0  0  0  0  0
  -26.0180  -30.6900   21.4030 C   0  0  0  0  0  2  0  0  0  0  0  0
  -26.0640  -29.2890   20.7190 C   0  0  0  0  0  0  0  0  0  0  0  0
  -27.1980  -28.3610   20.6600 C   0  0  0  0  0  3  0  0  0  0  0  0
  -25.8550  -26.7450   19.5130 C   0  0  0  0  0  3  0  0  0  0  0  0
  -24.7730  -27.6480   19.5090 C   0  0  0  0  0  3  0  0  0  0  0  0
  -23.6440  -29.8310   20.1990 C   0  0  0  0  0  2  0  0  0  0  0  0
  -24.7360  -31.0440   22.1160 N   0  0  0  0  0  0  0  0  0  0  0  0
  -23.5800  -32.1770   23.7260 O   0  0  0  0  0  0  0  0  0  0  0  0
  -22.7660  -29.4910   22.5520 C   0  0  0  0  0  0  0  0  0  0  0  0
  -21.4370  -29.3210   22.4360 N   0  0  0  0  0  0  0  0  0  0  0  0
  -23.4390  -28.8740   23.3810 O   0  0  0  0  0  0  0  0  0  0  0  0
  -20.9460  -29.8770   21.7500 H   0  0  0  0  0  0  0  0  0  0  0  0
  -18.0670  -28.0750   22.9510 C   0  0  0  0  0  0  0  0  0  0  0  0
  -20.6230  -28.3810   23.2130 C   0  0  0  0  0  3  0  0  0  0  0  0
  -20.7440  -26.9420   22.6590 C   0  0  0  0  0  2  0  0  0  0  0  0
  -19.6470  -26.5890   21.6480 C   0  0  0  0  0  2  0  0  0  0  0  0
  -18.2630  -26.7220   22.2870 C   0  0  0  0  0  2  0  0  0  0  0  0
  -19.1740  -28.8590   23.3720 C   0  0  0  0  0  0  0  0  0  0  0  0
  -18.9330  -30.1210   23.9530 C   0  0  0  0  0  3  0  0  0  0  0  0
  -17.6200  -30.6020   24.1140 C   0  0  0  0  0  3  0  0  0  0  0  0
  -16.5290  -29.8160   23.7100 C   0  0  0  0  0  3  0  0  0  0  0  0
  -16.7530  -28.5550   23.1350 C   0  0  0  0  0  3  0  0  0  0  0  0
  -25.9410  -32.5300   23.8220 C   0  0  0  0  0  3  0  0  0  0  0  0
  -26.4620  -31.7610   25.0980 C   0  0  1  0  0  0  0  0  0  0  0  0
  -25.3750  -31.5240   26.1750 C   0  0  0  0  0  1  0  0  0  0  0  0
  -27.0410  -30.3820   24.7140 C   0  0  0  0  0  1  0  0  0  0  0  0
  -27.6250  -32.5510   25.7440 C   0  0  0  0  0  1  0  0  0  0  0  0
  -25.6190  -33.9280   24.1710 N   0  0  0  0  0  0  0  0  0  0  0  0
  -25.9330  -34.9950   23.4250 C   0  0  0  0  0  0  0  0  0  0  0  0
  -26.5910  -34.9070   22.3860 O   0  0  0  0  0  0  0  0  0  0  0  0
  -25.0460  -34.0780   24.9890 H   0  0  0  0  0  0  0  0  0  0  0  0
  -24.2080  -36.7980   23.1100 C   0  0  0  0  0  1  0  0  0  0  0  0
  -25.4530  -36.3800   23.9080 C   0  0  0  0  0  3  0  0  0  0  0  0
  -27.5960  -37.2470   24.7320 C   0  0  0  0  0  1  0  0  0  0  0  0
  -26.4840  -37.4350   23.8030 N   0  0  0  0  0  0  0  0  0  0  0  0
  -26.0820  -38.3540   23.9680 H   0  0  0  0  0  0  0  0  0  0  0  0
  -28.4530  -21.1780   20.0850 C   0  0  0  0  0  2  0  0  0  0  0  0
  -29.2850  -19.7000   20.6140 C   0  0  0  0  0  2  0  0  0  0  0  0
  -29.4370  -18.0720   19.9130 C   0  0  0  0  0  2  0  0  0  0  0  0
  -30.3560  -15.2930   20.3040 C   0  0  0  0  0  0  0  0  0  0  0  0
  -30.3470  -12.8630   19.4330 C   0  0  0  0  0  2  0  0  0  0  0  0
  -29.4310  -12.6860   18.1930 C   0  0  0  0  0  2  0  0  0  0  0  0
  -27.9860  -12.3980   18.6220 C   0  0  0  0  0  2  0  0  0  0  0  0
  -27.5240  -13.3650   19.7370 C   0  0  0  0  0  3  0  0  0  0  0  0
  -28.5510  -13.5120   20.8850 C   0  0  0  0  0  2  0  0  0  0  0  0
  -29.8090  -13.9870   20.2860 N   0  0  0  0  0  0  0  0  0  0  0  0
  -31.5510  -15.3290   19.9650 O   0  0  0  0  0  0  0  0  0  0  0  0
  -29.5750  -16.5250   20.5150 N   0  0  0  0  0  0  0  0  0  0  0  0
  -28.7020  -16.2690   20.9580 H   0  0  0  0  0  0  0  0  0  0  0  0
  -25.1400  -13.9260   20.4370 C   0  0  0  0  0  0  0  0  0  0  0  0
  -24.0740  -13.1480   20.8060 C   0  0  0  0  0  0  0  0  0  0  0  0
  -24.5480  -11.8030   20.8030 C   0  0  0  0  0  0  0  0  0  0  0  0
  -26.1870  -13.0510   20.2250 N   0  0  0  0  0  0  0  0  0  0  0  0
  -25.8440  -11.7690   20.5150 N   0  0  0  0  0  0  0  0  0  0  0  0
  -23.8220  -10.5400   21.0010 C   0  0  0  0  0  0  0  0  0  0  0  0
  -24.2470   -9.5870   21.9510 C   0  0  0  0  0  3  0  0  0  0  0  0
  -23.5230   -8.3860   22.1340 C   0  0  0  0  0  3  0  0  0  0  0  0
  -22.3570   -8.1380   21.3680 C   0  0  0  0  0  0  0  0  0  0  0  0
  -21.9570   -9.0790   20.4030 C   0  0  0  0  0  3  0  0  0  0  0  0
  -22.6820  -10.2680   20.2180 C   0  0  0  0  0  3  0  0  0  0  0  0
  -21.6040   -6.9920   21.4620 O   0  0  0  0  0  0  0  0  0  0  0  0
  -21.5440   -6.2610   22.6230 C   0  0  0  0  0  0  0  0  0  0  0  0
  -21.1070   -6.8320   23.8390 C   0  0  0  0  0  3  0  0  0  0  0  0
  -20.9940   -6.0310   24.9910 C   0  0  0  0  0  3  0  0  0  0  0  0
  -21.3100   -4.6580   24.9300 C   0  0  0  0  0  0  0  0  0  0  0  0
  -21.7370   -4.0870   23.7190 C   0  0  0  0  0  3  0  0  0  0  0  0
  -21.8540   -4.8870   22.5690 C   0  0  0  0  0  0  0  0  0  0  0  0
  -22.2480   -4.3300   21.3980 F   0  0  0  0  0  0  0  0  0  0  0  0
  -21.1940   -3.8830   26.0330 F   0  0  0  0  0  0  0  0  0  0  0  0
  -22.6730  -13.6250   21.0440 C   0  0  0  0  0  0  0  0  0  0  0  0
  -21.9330  -12.9310   21.9070 N   0  0  0  0  0  0  0  0  0  0  0  0
  -22.2440  -14.6410   20.5050 O   0  0  0  0  0  0  0  0  0  0  0  0
  -22.2930  -12.1040   22.3600 H   0  0  0  0  0  0  0  0  0  0  0  0
  -20.9930  -13.2300   22.1160 H   0  0  0  0  0  0  0  0  0  0  0  0
  -25.3040  -15.2920   20.2330 N   0  0  0  0  0  0  0  0  0  0  0  0
  -24.5290  -15.9470   20.2670 H   0  0  0  0  0  0  0  0  0  0  0  0
  -26.1480  -15.7020   19.8520 H   0  0  0  0  0  0  0  0  0  0  0  0
  1  3  1  0
  2  1  2  0
  3  9  2  0
  3  6  1  0
  4  5  1  0
  5  2  1  0
  5  8  1  0
  6  4  1  0
  6  7  1  0
  7 51  1  0
  8  7  1  0
  8 10  1  0
 10 12  1  0
 11 22  2  0
 12 17  1  0
 13 21  1  0
 13 23  1  0
 14 20  1  0
 14 16  1  0
 15 21  1  0
 16 15  1  0
 17 16  2  0
 18 12  2  0
 19 18  1  0
 19 14  2  0
 20 13  1  0
 21 11  1  0
 23 25  2  0
 24 23  1  0
 26 24  1  0
 27 36  2  0
 27 32  1  0
 28 24  1  0
 28 32  1  0
 29 28  1  0
 30 31  1  0
 30 29  1  0
 31 27  1  0
 32 33  2  0
 33 34  1  0
 35 34  2  0
 36 35  1  0
 37 11  1  0
 37 42  1  0
 37 38  1  0
 38 41  1  1
 38 39  1  0
 40 38  1  0
 42 45  1  0
 43 47  1  0
 43 42  1  0
 44 43  2  0
 47 46  1  0
 49 47  1  0
 49 50  1  0
 49 48  1  0
 51 52  1  0
 53 62  1  0
 53 52  1  0
 54 62  1  0
 55 60  1  0
 56 57  1  0
 56 55  1  0
 58 57  1  0
 58 67  1  0
 58 59  1  0
 60 54  1  0
 60 59  1  0
 61 54  2  0
 62 63  1  0
 64 65  2  0
 65 84  1  0
 66 65  1  0
 66 69  1  0
 67 64  1  0
 67 68  1  0
 68 66  2  0
 69 70  1  0
 70 71  2  0
 72 75  1  0
 72 71  1  0
 73 72  2  0
 74 73  1  0
 74 69  2  0
 75 76  1  0
 76 77  1  0
 77 78  2  0
 79 78  1  0
 79 83  1  0
 80 79  2  0
 81 76  2  0
 81 80  1  0
 82 81  1  0
 84 85  1  0
 85 88  1  0
 85 87  1  0
 86 84  2  0
 89 90  1  0
 89 64  1  0
 91 89  1  0
M  ISO  4   8 101  10 101  54 100  62 100
M  END
>  <TORSDO>  (98) 
F 19

>  <SCORE>  (98) 
-15.358

>  <name>  (98) 
97

>  <ligand_id>  (98) 
97

>  <original_smiles>  (98) 
[H]C1=C([H])C2([H])C([H])([H])C([H])(C1=O)C([H])(C([H])([H])C([H])([H])C([H])([H])N([H])C(=O)N1C([H])([H])C([H])([H])C([H])([H])C([H])(n3nc(-c4c([H])c([H])c(Oc5c([H])c([H])c(F)c([H])c5F)c([H])c4[H])c(C(=O)N([H])[H])c3N([H])[H])C1([H])[H])C2([H])Oc1c([H])c([H])c2c(c1[H])C([H])([H])N(C(=O)C([H])(N([H])C(=O)C([H])(N([H])C([H])([H])[H])C([H])([H])[H])C(C([H])([H])[H])(C([H])([H])[H])C([H])([H])[H])C([H])(C(=O)N([H])C1([H])c3c([H])c([H])c([H])c([H])c3C([H])([H])C([H])([H])C1([H])[H])C2([H])[H]

>  <smiles>  (98) 
[H]C1=C([H])C2([H])C([H])([H])C([H])(C1=O)C([H])(C([H])([H])C([H])([H])C([H])([H])N([H])C(=O)N1C([H])([H])C([H])([H])C([H])([H])C([H])(n3nc(-c4c([H])c([H])c(Oc5c([H])c([H])c(F)c([H])c5F)c([H])c4[H])c(C(=O)N([H])[H])c3N([H])[H])C1([H])[H])C2([H])Oc1c([H])c([H])c2c(c1[H])C([H])([H])N(C(=O)C([H])(N([H])C(=O)C([H])(N([H])C([H])([H])[H])C([H])([H])[H])C(C([H])([H])[H])(C([H])([H])[H])C([H])([H])[H])C([H])(C(=O)N([H])C1([H])c3c([H])c([H])c([H])c([H])c3C([H])([H])C([H])([H])C1([H])[H])C2([H])[H]

$$$$
98:0:0
     RDKit          3D

 91101  0  0  1  0  0  0  0  0999 V2000
  -29.7590  -19.3950   18.7780 C   0  0  0  0  0  2  0  0  0  0  0  0
  -30.6570  -19.5220   21.8230 C   0  0  0  0  0  2  0  0  0  0  0  0
  -29.8940  -17.8450   18.7940 C   0  0  0  0  0  2  0  0  0  0  0  0
  -30.1440  -20.9840   21.8690 C   0  0  0  0  0  2  0  0  0  0  0  0
  -28.0440  -22.2460   20.9110 C   0  0  0  0  0  2  0  0  0  0  0  0
  -29.6550  -22.5340   19.7270 C   0  0  0  0  0  2  0  0  0  0  0  0
  -29.6320  -18.6730   21.0500 C   0  0  0  0  0  3  0  0  0  0  0  0
  -29.0510  -19.7870   20.0870 C   0  0  0  0  0  3  0  0  0  0  0  0
  -28.8300  -23.5720   20.5860 C   0  0  0  0  0  3  0  0  0  0  0  0
  -30.2590  -17.4270   20.2350 C   0  0  0  0  0  3  0  0  0  0  0  0
  -29.2680  -21.2920   20.6390 C   0  0  1  0  0  0  0  0  0  0  0  0
  -30.6420  -14.8120   20.3370 C   0  0  0  0  0  0  0  0  0  0  0  0
  -30.4370  -12.5210   19.3540 C   0  0  0  0  0  2  0  0  0  0  0  0
  -29.4960  -12.5770   18.1290 C   0  0  0  0  0  2  0  0  0  0  0  0
  -28.0290  -12.4030   18.5670 C   0  0  0  0  0  2  0  0  0  0  0  0
  -27.6580  -13.2970   19.7800 C   0  0  0  0  0  3  0  0  0  0  0  0
  -28.7220  -13.2320   20.8970 C   0  0  0  0  0  2  0  0  0  0  0  0
  -30.0110  -13.5870   20.2940 N   0  0  0  0  0  0  0  0  0  0  0  0
  -31.8230  -14.8960   19.9910 O   0  0  0  0  0  0  0  0  0  0  0  0
  -29.8880  -15.9650   20.5470 N   0  0  0  0  0  0  0  0  0  0  0  0
  -28.9310  -15.8040   20.8180 H   0  0  0  0  0  0  0  0  0  0  0  0
  -25.2750  -13.8810   20.5230 C   0  0  0  0  0  0  0  0  0  0  0  0
  -24.2120  -13.1040   20.8970 C   0  0  0  0  0  0  0  0  0  0  0  0
  -24.6770  -11.7540   20.8600 C   0  0  0  0  0  0  0  0  0  0  0  0
  -26.3180  -13.0030   20.2780 N   0  0  0  0  0  0  0  0  0  0  0  0
  -25.9660  -11.7190   20.5460 N   0  0  0  0  0  0  0  0  0  0  0  0
  -23.9520  -10.4900   21.0530 C   0  0  0  0  0  0  0  0  0  0  0  0
  -24.3890   -9.5230   21.9830 C   0  0  0  0  0  3  0  0  0  0  0  0
  -23.6660   -8.3240   22.1630 C   0  0  0  0  0  3  0  0  0  0  0  0
  -22.4900   -8.0860   21.4110 C   0  0  0  0  0  0  0  0  0  0  0  0
  -22.0710   -9.0410   20.4700 C   0  0  0  0  0  3  0  0  0  0  0  0
  -22.7970  -10.2320   20.2880 C   0  0  0  0  0  3  0  0  0  0  0  0
  -21.7370   -6.9390   21.5010 O   0  0  0  0  0  0  0  0  0  0  0  0
  -21.6880   -6.1980   22.6550 C   0  0  0  0  0  0  0  0  0  0  0  0
  -21.2330   -6.7470   23.8740 C   0  0  0  0  0  3  0  0  0  0  0  0
  -21.1340   -5.9320   25.0180 C   0  0  0  0  0  3  0  0  0  0  0  0
  -21.4770   -4.5680   24.9450 C   0  0  0  0  0  0  0  0  0  0  0  0
  -21.9240   -4.0190   23.7300 C   0  0  0  0  0  3  0  0  0  0  0  0
  -22.0260   -4.8320   22.5870 C   0  0  0  0  0  0  0  0  0  0  0  0
  -22.4370   -4.2930   21.4140 F   0  0  0  0  0  0  0  0  0  0  0  0
  -21.3740   -3.7820   26.0420 F   0  0  0  0  0  0  0  0  0  0  0  0
  -22.8150  -13.5790   21.1750 C   0  0  0  0  0  0  0  0  0  0  0  0
  -22.0940  -12.8820   22.0460 N   0  0  0  0  0  0  0  0  0  0  0  0
  -22.3730  -14.6020   20.6550 O   0  0  0  0  0  0  0  0  0  0  0  0
  -22.4670  -12.0540   22.4870 H   0  0  0  0  0  0  0  0  0  0  0  0
  -21.1570  -13.1810   22.2750 H   0  0  0  0  0  0  0  0  0  0  0  0
  -25.4360  -15.2510   20.3440 N   0  0  0  0  0  0  0  0  0  0  0  0
  -24.6660  -15.9040   20.4470 H   0  0  0  0  0  0  0  0  0  0  0  0
  -26.2760  -15.6870   19.9840 H   0  0  0  0  0  0  0  0  0  0  0  0
  -28.0310  -24.8780   20.0270 C   0  0  0  0  0  2  0  0  0  0  0  0
  -28.3160  -26.3410   20.3170 O   0  0  0  0  0  0  0  0  0  0  0  0
  -24.6490  -31.8900   23.2960 C   0  0  0  0  0  0  0  0  0  0  0  0
  -27.2490  -27.2820   20.2280 C   0  0  0  0  0  0  0  0  0  0  0  0
  -23.4550  -30.5090   21.6400 C   0  0  0  0  0  3  0  0  0  0  0  0
  -24.9090  -28.9670   20.2040 C   0  0  0  0  0  0  0  0  0  0  0  0
  -26.0030  -30.8000   21.4830 C   0  0  0  0  0  2  0  0  0  0  0  0
  -26.0790  -29.4210   20.8230 C   0  0  0  0  0  0  0  0  0  0  0  0
  -27.2510  -28.5900   20.8280 C   0  0  0  0  0  3  0  0  0  0  0  0
  -26.0610  -26.9210   19.5500 C   0  0  0  0  0  3  0  0  0  0  0  0
  -24.9070  -27.7260   19.5540 C   0  0  0  0  0  3  0  0  0  0  0  0
  -23.6770  -29.8500   20.2540 C   0  0  0  0  0  2  0  0  0  0  0  0
  -24.7220  -31.0840   22.1950 N   0  0  0  0  0  0  0  0  0  0  0  0
  -23.5620  -32.1660   23.8230 O   0  0  0  0  0  0  0  0  0  0  0  0
  -22.7800  -29.4860   22.5880 C   0  0  0  0  0  0  0  0  0  0  0  0
  -21.4550  -29.3060   22.4470 N   0  0  0  0  0  0  0  0  0  0  0  0
  -23.4520  -28.8590   23.4110 O   0  0  0  0  0  0  0  0  0  0  0  0
  -20.9710  -29.8620   21.7550 H   0  0  0  0  0  0  0  0  0  0  0  0
  -18.0740  -28.1030   22.9190 C   0  0  0  0  0  0  0  0  0  0  0  0
  -20.6310  -28.3640   23.2060 C   0  0  0  0  0  3  0  0  0  0  0  0
  -20.7380  -26.9350   22.6250 C   0  0  0  0  0  2  0  0  0  0  0  0
  -19.6440  -26.6180   21.5990 C   0  0  0  0  0  2  0  0  0  0  0  0
  -18.2570  -26.7590   22.2330 C   0  0  0  0  0  2  0  0  0  0  0  0
  -19.1890  -28.8630   23.3600 C   0  0  0  0  0  0  0  0  0  0  0  0
  -18.9640  -30.1230   23.9590 C   0  0  0  0  0  3  0  0  0  0  0  0
  -17.6580  -30.6200   24.1200 C   0  0  0  0  0  3  0  0  0  0  0  0
  -16.5560  -29.8580   23.6920 C   0  0  0  0  0  3  0  0  0  0  0  0
  -16.7660  -28.6000   23.0990 C   0  0  0  0  0  3  0  0  0  0  0  0
  -25.9270  -32.5180   23.9310 C   0  0  0  0  0  3  0  0  0  0  0  0
  -25.6230  -33.9210   24.2500 N   0  0  0  0  0  0  0  0  0  0  0  0
  -25.9460  -34.9650   23.4780 C   0  0  0  0  0  0  0  0  0  0  0  0
  -26.6020  -34.8520   22.4380 O   0  0  0  0  0  0  0  0  0  0  0  0
  -25.0430  -34.0840   25.0610 H   0  0  0  0  0  0  0  0  0  0  0  0
  -24.2060  -36.7490   23.1410 C   0  0  0  0  0  1  0  0  0  0  0  0
  -25.4680  -36.3600   23.9260 C   0  0  0  0  0  3  0  0  0  0  0  0
  -27.6200  -37.2630   24.6910 C   0  0  0  0  0  1  0  0  0  0  0  0
  -26.4950  -37.4140   23.7710 N   0  0  0  0  0  0  0  0  0  0  0  0
  -26.0920  -38.3350   23.9150 H   0  0  0  0  0  0  0  0  0  0  0  0
  -26.4180  -31.7530   25.2210 C   0  0  1  0  0  0  0  0  0  0  0  0
  -25.3100  -31.5330   26.2770 C   0  0  0  0  0  1  0  0  0  0  0  0
  -26.9960  -30.3670   24.8490 C   0  0  0  0  0  1  0  0  0  0  0  0
  -27.5670  -32.5430   25.8910 C   0  0  0  0  0  1  0  0  0  0  0  0
  1  3  1  0
  2  4  1  0
  3 10  1  0
  6  9  1  0
  7  2  1  0
  8  1  1  0
  8 11  1  0
  8  7  1  0
  9 50  1  0
  9  5  1  0
 10 20  1  0
 10  7  1  0
 11  6  1  6
 11  5  1  0
 11  4  1  0
 12 20  1  0
 13 18  1  0
 14 15  1  0
 14 13  1  0
 16 15  1  0
 16 25  1  0
 16 17  1  0
 18 12  1  0
 18 17  1  0
 19 12  2  0
 20 21  1  0
 22 23  2  0
 23 42  1  0
 24 23  1  0
 24 27  1  0
 25 22  1  0
 25 26  1  0
 26 24  2  0
 27 28  1  0
 28 29  2  0
 30 33  1  0
 30 29  1  0
 31 30  2  0
 32 31  1  0
 32 27  2  0
 33 34  1  0
 34 35  1  0
 35 36  2  0
 37 36  1  0
 37 41  1  0
 38 37  2  0
 39 34  2  0
 39 38  1  0
 40 39  1  0
 42 43  1  0
 43 46  1  0
 43 45  1  0
 44 42  2  0
 47 48  1  0
 47 22  1  0
 49 47  1  0
 50 51  1  0
 52 63  2  0
 53 51  1  0
 53 58  1  0
 54 62  1  0
 54 64  1  0
 55 61  1  0
 55 57  1  0
 56 62  1  0
 57 58  2  0
 57 56  1  0
 59 60  1  0
 59 53  2  0
 60 55  2  0
 61 54  1  0
 62 52  1  0
 64 66  2  0
 65 64  1  0
 67 65  1  0
 68 77  2  0
 68 73  1  0
 69 65  1  0
 69 73  1  0
 70 69  1  0
 71 72  1  0
 71 70  1  0
 72 68  1  0
 73 74  2  0
 74 75  1  0
 76 75  2  0
 77 76  1  0
 78 52  1  0
 78 79  1  0
 78 88  1  0
 79 82  1  0
 80 84  1  0
 80 79  1  0
 81 80  2  0
 84 83  1  0
 86 87  1  0
 86 84  1  0
 86 85  1  0
 88 91  1  1
 88 89  1  0
 90 88  1  0
M  ISO  4  12 100  20 100  50 101  51 101
M  END
>  <TORSDO>  (99) 
F 17

>  <SCORE>  (99) 
-15.134

>  <name>  (99) 
98

>  <ligand_id>  (99) 
98

>  <original_smiles>  (99) 
[H]c1c([H])c([H])c2c(c1[H])C([H])([H])C([H])([H])C([H])([H])C2([H])N([H])C(=O)C1([H])N(C(=O)C([H])(N([H])C(=O)C([H])(N([H])C([H])([H])[H])C([H])([H])[H])C(C([H])([H])[H])(C([H])([H])[H])C([H])([H])[H])C([H])([H])c2c([H])c(OC([H])([H])C3([H])C([H])([H])C4(C([H])([H])C([H])([H])C5([H])C([H])(N([H])C(=O)N6C([H])([H])C([H])([H])C([H])([H])C([H])(n7nc(-c8c([H])c([H])c(Oc9c([H])c([H])c(F)c([H])c9F)c([H])c8[H])c(C(=O)N([H])[H])c7N([H])[H])C6([H])[H])C([H])([H])C([H])([H])C54[H])C3([H])[H])c([H])c([H])c2C1([H])[H]

>  <smiles>  (99) 
[H]c1c([H])c([H])c2c(c1[H])C([H])([H])C([H])([H])C([H])([H])C2([H])N([H])C(=O)C1([H])N(C(=O)C([H])(N([H])C(=O)C([H])(N([H])C([H])([H])[H])C([H])([H])[H])C(C([H])([H])[H])(C([H])([H])[H])C([H])([H])[H])C([H])([H])c2c([H])c(OC([H])([H])C3([H])C([H])([H])C4(C([H])([H])C([H])([H])C5([H])C([H])(N([H])C(=O)N6C([H])([H])C([H])([H])C([H])([H])C([H])(n7nc(-c8c([H])c([H])c(Oc9c([H])c([H])c(F)c([H])c9F)c([H])c8[H])c(C(=O)N([H])[H])c7N([H])[H])C6([H])[H])C([H])([H])C([H])([H])C54[H])C3([H])[H])c([H])c([H])c2C1([H])[H]

$$$$
