0:0:0
     RDKit          3D

 93101  0  0  1  0  0  0  0  0999 V2000
  -29.6850  -20.6540   20.4340 C   0  0  0  0  0  3  0  0  0  0  0  0
  -29.2090  -19.0440   20.4990 C   0  0  0  0  0  3  0  0  0  0  0  0
  -30.5230  -14.9920   20.3020 C   0  0  0  0  0  0  0  0  0  0  0  0
  -30.3260  -12.6490   19.3870 C   0  0  0  0  0  2  0  0  0  0  0  0
  -29.3920  -12.6050   18.1570 C   0  0  0  0  0  2  0  0  0  0  0  0
  -27.9340  -12.4070   18.6020 C   0  0  0  0  0  2  0  0  0  0  0  0
  -27.5290  -13.3460   19.7670 C   0  0  0  0  0  3  0  0  0  0  0  0
  -28.5920  -13.3890   20.8840 C   0  0  0  0  0  2  0  0  0  0  0  0
  -29.8620  -13.7660   20.2550 N   0  0  0  0  0  0  0  0  0  0  0  0
  -31.7450  -14.9630   20.1370 O   0  0  0  0  0  0  0  0  0  0  0  0
  -30.6940  -17.5780   18.8160 C   0  0  0  0  0  2  0  0  0  0  0  0
  -29.5690  -16.5540   18.7230 C   0  0  0  0  0  2  0  0  0  0  0  0
  -30.2600  -17.7570   20.2650 C   0  0  2  0  0  0  0  0  0  0  0  0
  -29.8110  -16.2280   20.1500 N   0  0  0  0  0  0  0  0  0  0  0  0
  -25.1530  -13.9120   20.5200 C   0  0  0  0  0  0  0  0  0  0  0  0
  -24.0930  -13.1320   20.8870 C   0  0  0  0  0  0  0  0  0  0  0  0
  -24.5600  -11.7810   20.8500 C   0  0  0  0  0  0  0  0  0  0  0  0
  -26.1980  -13.0400   20.2770 N   0  0  0  0  0  0  0  0  0  0  0  0
  -25.8520  -11.7540   20.5460 N   0  0  0  0  0  0  0  0  0  0  0  0
  -23.8340  -10.5150   21.0360 C   0  0  0  0  0  0  0  0  0  0  0  0
  -24.2590   -9.5510   21.9780 C   0  0  0  0  0  3  0  0  0  0  0  0
  -23.5360   -8.3520   22.1530 C   0  0  0  0  0  3  0  0  0  0  0  0
  -22.3720   -8.1070   21.3840 C   0  0  0  0  0  0  0  0  0  0  0  0
  -21.9660   -9.0570   20.4300 C   0  0  0  0  0  3  0  0  0  0  0  0
  -22.6900  -10.2480   20.2550 C   0  0  0  0  0  3  0  0  0  0  0  0
  -21.6210   -6.9580   21.4680 O   0  0  0  0  0  0  0  0  0  0  0  0
  -21.5550   -6.2250   22.6260 C   0  0  0  0  0  0  0  0  0  0  0  0
  -21.0730   -6.7780   23.8330 C   0  0  0  0  0  3  0  0  0  0  0  0
  -20.9580   -5.9710   24.9810 C   0  0  0  0  0  3  0  0  0  0  0  0
  -21.3070   -4.6080   24.9220 C   0  0  0  0  0  0  0  0  0  0  0  0
  -21.7740   -4.0510   23.7180 C   0  0  0  0  0  3  0  0  0  0  0  0
  -21.8950   -4.8580   22.5730 C   0  0  0  0  0  0  0  0  0  0  0  0
  -22.3280   -4.3120   21.4100 F   0  0  0  0  0  0  0  0  0  0  0  0
  -21.1840   -3.8280   26.0220 F   0  0  0  0  0  0  0  0  0  0  0  0
  -22.6920  -13.5960   21.1600 C   0  0  0  0  0  0  0  0  0  0  0  0
  -21.9680  -12.8920   22.0240 N   0  0  0  0  0  0  0  0  0  0  0  0
  -22.2460  -14.6190   20.6430 O   0  0  0  0  0  0  0  0  0  0  0  0
  -22.3390  -12.0610   22.4630 H   0  0  0  0  0  0  0  0  0  0  0  0
  -21.0260  -13.1830   22.2430 H   0  0  0  0  0  0  0  0  0  0  0  0
  -25.3230  -15.2840   20.3420 N   0  0  0  0  0  0  0  0  0  0  0  0
  -24.5720  -15.9580   20.4610 H   0  0  0  0  0  0  0  0  0  0  0  0
  -26.2000  -15.7140   20.0680 H   0  0  0  0  0  0  0  0  0  0  0  0
  -31.4450  -17.8980   21.2340 C   0  0  0  0  0  0  0  0  0  0  0  0
  -32.5230  -18.5380   20.7960 N   0  0  0  0  0  0  0  0  0  0  0  0
  -31.3950  -17.4210   22.3650 O   0  0  0  0  0  0  0  0  0  0  0  0
  -32.5310  -18.9050   19.8520 H   0  0  0  0  0  0  0  0  0  0  0  0
  -33.3370  -18.6510   21.3830 H   0  0  0  0  0  0  0  0  0  0  0  0
  -28.6630  -21.9800   20.3710 C   0  0  0  0  0  2  0  0  0  0  0  0
  -30.1940  -23.8160   19.3580 C   0  0  0  0  0  1  0  0  0  0  0  0
  -29.7200  -23.8370   21.8200 C   0  0  0  0  0  1  0  0  0  0  0  0
  -29.1090  -23.5950   20.4290 C   0  0  2  0  0  0  0  0  0  0  0  0
  -27.9860  -24.8130   20.1880 C   0  0  0  0  0  2  0  0  0  0  0  0
  -28.2420  -26.3280   20.2950 O   0  0  0  0  0  0  0  0  0  0  0  0
  -24.6070  -31.9590   23.2630 C   0  0  0  0  0  0  0  0  0  0  0  0
  -27.1670  -27.2750   20.2270 C   0  0  0  0  0  0  0  0  0  0  0  0
  -23.3920  -30.5690   21.6290 C   0  0  0  0  0  3  0  0  0  0  0  0
  -24.8290  -28.9960   20.1970 C   0  0  0  0  0  0  0  0  0  0  0  0
  -25.9450  -30.8410   21.4490 C   0  0  0  0  0  2  0  0  0  0  0  0
  -26.0120  -29.4540   20.7940 C   0  0  0  0  0  0  0  0  0  0  0  0
  -27.1840  -28.6160   20.7750 C   0  0  0  0  0  3  0  0  0  0  0  0
  -25.9510  -26.9030   19.6050 C   0  0  0  0  0  3  0  0  0  0  0  0
  -24.8120  -27.7340   19.5850 C   0  0  0  0  0  3  0  0  0  0  0  0
  -23.6030  -29.8920   20.2500 C   0  0  0  0  0  2  0  0  0  0  0  0
  -24.6680  -31.1430   22.1680 N   0  0  0  0  0  0  0  0  0  0  0  0
  -23.5250  -32.2470   23.7970 O   0  0  0  0  0  0  0  0  0  0  0  0
  -22.7150  -29.5630   22.5930 C   0  0  0  0  0  0  0  0  0  0  0  0
  -21.3860  -29.3960   22.4660 N   0  0  0  0  0  0  0  0  0  0  0  0
  -23.3860  -28.9400   23.4180 O   0  0  0  0  0  0  0  0  0  0  0  0
  -20.9070  -29.9470   21.7670 H   0  0  0  0  0  0  0  0  0  0  0  0
  -17.9970  -28.2160   22.9650 C   0  0  0  0  0  0  0  0  0  0  0  0
  -20.5570  -28.4650   23.2360 C   0  0  0  0  0  3  0  0  0  0  0  0
  -20.6520  -27.0310   22.6640 C   0  0  0  0  0  2  0  0  0  0  0  0
  -19.5500  -26.7110   21.6510 C   0  0  0  0  0  2  0  0  0  0  0  0
  -18.1670  -26.8650   22.2910 C   0  0  0  0  0  2  0  0  0  0  0  0
  -19.1180  -28.9750   23.3930 C   0  0  0  0  0  0  0  0  0  0  0  0
  -18.9020  -30.2390   23.9840 C   0  0  0  0  0  3  0  0  0  0  0  0
  -17.5980  -30.7450   24.1450 C   0  0  0  0  0  3  0  0  0  0  0  0
  -16.4920  -29.9820   23.7320 C   0  0  0  0  0  3  0  0  0  0  0  0
  -16.6920  -28.7180   23.1480 C   0  0  0  0  0  3  0  0  0  0  0  0
  -25.8930  -32.5860   23.8880 C   0  0  0  0  0  3  0  0  0  0  0  0
  -25.5880  -33.9860   24.2240 N   0  0  0  0  0  0  0  0  0  0  0  0
  -25.9000  -35.0400   23.4600 C   0  0  0  0  0  0  0  0  0  0  0  0
  -26.5390  -34.9350   22.4090 O   0  0  0  0  0  0  0  0  0  0  0  0
  -25.0160  -34.1400   25.0420 H   0  0  0  0  0  0  0  0  0  0  0  0
  -24.1540  -36.8270   23.1720 C   0  0  0  0  0  1  0  0  0  0  0  0
  -25.4300  -36.4290   23.9330 C   0  0  0  0  0  3  0  0  0  0  0  0
  -27.5910  -37.3240   24.6770 C   0  0  0  0  0  1  0  0  0  0  0  0
  -26.4540  -37.4850   23.7740 N   0  0  0  0  0  0  0  0  0  0  0  0
  -26.0510  -38.4040   23.9320 H   0  0  0  0  0  0  0  0  0  0  0  0
  -26.4000  -31.8110   25.1650 C   0  0  1  0  0  0  0  0  0  0  0  0
  -25.3040  -31.5760   26.2300 C   0  0  0  0  0  1  0  0  0  0  0  0
  -26.9760  -30.4320   24.7730 C   0  0  0  0  0  1  0  0  0  0  0  0
  -27.5540  -32.6000   25.8270 C   0  0  0  0  0  1  0  0  0  0  0  0
  1  2  2  0
  4  9  1  0
  5  6  1  0
  5  4  1  0
  7  6  1  0
  7 18  1  0
  7  8  1  0
  9  3  1  0
  9  8  1  0
 10  3  2  0
 11 13  1  0
 12 11  1  0
 12 14  1  0
 13  2  1  6
 13 43  1  0
 14 13  1  0
 14  3  1  0
 15 16  2  0
 16 35  1  0
 17 16  1  0
 17 20  1  0
 18 15  1  0
 18 19  1  0
 19 17  2  0
 20 21  1  0
 21 22  2  0
 23 26  1  0
 23 22  1  0
 24 23  2  0
 25 24  1  0
 25 20  2  0
 26 27  1  0
 27 28  1  0
 28 29  2  0
 30 29  1  0
 30 34  1  0
 31 30  2  0
 32 27  2  0
 32 31  1  0
 33 32  1  0
 35 36  1  0
 36 39  1  0
 36 38  1  0
 37 35  2  0
 40 41  1  0
 40 15  1  0
 42 40  1  0
 43 45  2  0
 44 43  1  0
 44 47  1  0
 46 44  1  0
 48 51  1  0
 48  1  1  0
 51 49  1  6
 51 50  1  0
 52 53  1  0
 52 51  1  0
 54 65  2  0
 55 53  1  0
 55 60  1  0
 56 64  1  0
 56 66  1  0
 57 63  1  0
 57 59  1  0
 58 64  1  0
 59 58  1  0
 60 59  2  0
 61 55  2  0
 62 61  1  0
 62 57  2  0
 63 56  1  0
 64 54  1  0
 66 68  2  0
 67 66  1  0
 69 67  1  0
 70 79  2  0
 70 75  1  0
 71 67  1  0
 71 75  1  0
 72 71  1  0
 73 74  1  0
 73 72  1  0
 74 70  1  0
 75 76  2  0
 76 77  1  0
 78 77  2  0
 79 78  1  0
 80 54  1  0
 80 81  1  0
 80 90  1  0
 81 84  1  0
 82 86  1  0
 82 81  1  0
 83 82  2  0
 86 85  1  0
 88 89  1  0
 88 86  1  0
 88 87  1  0
 90 93  1  1
 90 91  1  0
 92 90  1  0
M  ISO  4   3 100  14 100  52 101  53 101
M  END
>  <TORSDO>  (1) 
F 21

>  <SCORE>  (1) 
-13.291

>  <name>  (1) 
0

>  <ligand_id>  (1) 
0

>  <original_smiles>  (1) 
[H]c1c([H])c([H])c2c(c1[H])C([H])([H])C([H])([H])C([H])([H])C2([H])N([H])C(=O)C1([H])N(C(=O)C([H])(N([H])C(=O)C([H])(N([H])C([H])([H])[H])C([H])([H])[H])C(C([H])([H])[H])(C([H])([H])[H])C([H])([H])[H])C([H])([H])c2c([H])c(OC([H])([H])C(C([H])([H])[H])(C([H])([H])[H])C([H])([H])C([H])([H])C([H])([H])C3(C(=O)N([H])[H])N(C(=O)N4C([H])([H])C([H])([H])C([H])([H])C([H])(n5nc(-c6c([H])c([H])c(Oc7c([H])c([H])c(F)c([H])c7F)c([H])c6[H])c(C(=O)N([H])[H])c5N([H])[H])C4([H])[H])C([H])([H])C3([H])[H])c([H])c([H])c2C1([H])[H]

>  <smiles>  (1) 
[H]c1c([H])c([H])c2c(c1[H])C([H])([H])C([H])([H])C([H])([H])C2([H])N([H])C(=O)C1([H])N(C(=O)C([H])(N([H])C(=O)C([H])(N([H])C([H])([H])[H])C([H])([H])[H])C(C([H])([H])[H])(C([H])([H])[H])C([H])([H])[H])C([H])([H])c2c([H])c(OC([H])([H])C(C([H])([H])[H])(C([H])([H])[H])C([H])([H])C([H])([H])C([H])([H])C3(C(=O)N([H])[H])N(C(=O)N4C([H])([H])C([H])([H])C([H])([H])C([H])(n5nc(-c6c([H])c([H])c(Oc7c([H])c([H])c(F)c([H])c7F)c([H])c6[H])c(C(=O)N([H])[H])c5N([H])[H])C4([H])[H])C([H])([H])C3([H])[H])c([H])c([H])c2C1([H])[H]

$$$$
1:0:0
     RDKit          3D

 93104  0  0  1  0  0  0  0  0999 V2000
  -29.3380  -20.0390   18.6800 C   0  0  0  0  0  2  0  0  0  0  0  0
  -31.5960  -19.2190   19.1650 C   0  0  0  0  0  2  0  0  0  0  0  0
  -30.7430  -20.5030   19.0730 C   0  0  1  0  0  0  0  0  0  0  0  0
  -29.5300  -19.4440   20.0840 C   0  0  2  0  0  0  0  0  0  0  0  0
  -30.6450  -18.3300   19.9930 C   0  0  0  0  0  3  0  0  0  0  0  0
  -30.0750  -20.9070   20.4370 C   0  0  1  0  0  0  0  0  0  0  0  0
  -30.9920  -20.9420   21.6750 C   0  0  0  0  0  1  0  0  0  0  0  0
  -30.2080  -16.9200   19.3490 C   0  0  0  0  0  2  0  0  0  0  0  0
  -30.9650  -14.4880   19.4350 C   0  0  0  0  0  0  0  0  0  0  0  0
  -30.4160  -12.3890   18.1920 C   0  0  0  0  0  2  0  0  0  0  0  0
  -29.3180  -12.6850   17.1440 C   0  0  0  0  0  2  0  0  0  0  0  0
  -27.9080  -12.6110   17.7670 C   0  0  0  0  0  2  0  0  0  0  0  0
  -27.8160  -13.3650   19.1210 C   0  0  0  0  0  3  0  0  0  0  0  0
  -28.9940  -12.9550   20.0260 C   0  0  0  0  0  2  0  0  0  0  0  0
  -30.2330  -13.3240   19.3250 N   0  0  0  0  0  0  0  0  0  0  0  0
  -31.9940  -14.6230   18.7620 O   0  0  0  0  0  0  0  0  0  0  0  0
  -30.3920  -15.5860   20.0650 N   0  0  0  0  0  0  0  0  0  0  0  0
  -25.5810  -14.1070   20.1470 C   0  0  0  0  0  0  0  0  0  0  0  0
  -24.5210  -13.3980   20.6410 C   0  0  0  0  0  0  0  0  0  0  0  0
  -24.8710  -12.0200   20.5090 C   0  0  0  0  0  0  0  0  0  0  0  0
  -26.5220  -13.1640   19.7630 N   0  0  0  0  0  0  0  0  0  0  0  0
  -26.1020  -11.9010   20.0290 N   0  0  0  0  0  0  0  0  0  0  0  0
  -24.0810  -10.8080   20.7600 C   0  0  0  0  0  0  0  0  0  0  0  0
  -24.5230   -9.8100   21.6560 C   0  0  0  0  0  3  0  0  0  0  0  0
  -23.7380   -8.6620   21.8940 C   0  0  0  0  0  3  0  0  0  0  0  0
  -22.4940   -8.5070   21.2360 C   0  0  0  0  0  0  0  0  0  0  0  0
  -22.0700   -9.4930   20.3280 C   0  0  0  0  0  3  0  0  0  0  0  0
  -22.8550  -10.6320   20.0890 C   0  0  0  0  0  3  0  0  0  0  0  0
  -21.6750   -7.4140   21.3860 O   0  0  0  0  0  0  0  0  0  0  0  0
  -21.6360   -6.6990   22.5560 C   0  0  0  0  0  0  0  0  0  0  0  0
  -21.3120   -7.3060   23.7890 C   0  0  0  0  0  3  0  0  0  0  0  0
  -21.2170   -6.5210   24.9560 C   0  0  0  0  0  3  0  0  0  0  0  0
  -21.4360   -5.1320   24.8900 C   0  0  0  0  0  0  0  0  0  0  0  0
  -21.7540   -4.5260   23.6610 C   0  0  0  0  0  3  0  0  0  0  0  0
  -21.8500   -5.3070   22.4960 C   0  0  0  0  0  0  0  0  0  0  0  0
  -22.1360   -4.7160   21.3110 F   0  0  0  0  0  0  0  0  0  0  0  0
  -21.3330   -4.3760   26.0080 F   0  0  0  0  0  0  0  0  0  0  0  0
  -23.2160  -13.9650   21.1220 C   0  0  0  0  0  0  0  0  0  0  0  0
  -22.5870  -13.3110   22.0900 N   0  0  0  0  0  0  0  0  0  0  0  0
  -22.7750  -15.0240   20.6780 O   0  0  0  0  0  0  0  0  0  0  0  0
  -22.9620  -12.4520   22.4670 H   0  0  0  0  0  0  0  0  0  0  0  0
  -21.7200  -13.6730   22.4590 H   0  0  0  0  0  0  0  0  0  0  0  0
  -25.8130  -15.4690   19.9760 N   0  0  0  0  0  0  0  0  0  0  0  0
  -25.1200  -16.1710   20.2070 H   0  0  0  0  0  0  0  0  0  0  0  0
  -26.6610  -15.8580   19.5860 H   0  0  0  0  0  0  0  0  0  0  0  0
  -29.8240  -16.7990   22.3390 C   0  0  0  0  0  2  0  0  0  0  0  0
  -28.9340  -15.6130   22.2020 C   0  0  0  0  0  2  0  0  0  0  0  0
  -30.2960  -15.5950   21.5190 C   0  0  0  0  0  3  0  0  0  0  0  0
  -29.0830  -22.1960   20.5970 C   0  0  0  0  0  2  0  0  0  0  0  0
  -30.4150  -24.2020   21.6750 C   0  0  0  0  0  1  0  0  0  0  0  0
  -29.5610  -23.7330   20.4870 C   0  0  0  0  0  3  0  0  0  0  0  0
  -28.3560  -24.7660   20.2810 C   0  0  0  0  0  2  0  0  0  0  0  0
  -28.5610  -26.2400   20.3230 O   0  0  0  0  0  0  0  0  0  0  0  0
  -24.5660  -31.6270   23.0270 C   0  0  0  0  0  0  0  0  0  0  0  0
  -27.4180  -27.0540   20.2110 C   0  0  0  0  0  0  0  0  0  0  0  0
  -23.4600  -30.1340   21.4030 C   0  0  0  0  0  3  0  0  0  0  0  0
  -25.0020  -28.5880   20.0770 C   0  0  0  0  0  0  0  0  0  0  0  0
  -25.9940  -30.5300   21.2850 C   0  0  0  0  0  2  0  0  0  0  0  0
  -26.1390  -29.1350   20.6870 C   0  0  0  0  0  0  0  0  0  0  0  0
  -27.3500  -28.3810   20.7410 C   0  0  0  0  0  3  0  0  0  0  0  0
  -26.2530  -26.5630   19.5740 C   0  0  0  0  0  3  0  0  0  0  0  0
  -25.0630  -27.3070   19.5110 C   0  0  0  0  0  3  0  0  0  0  0  0
  -23.7370  -29.4200   20.0560 C   0  0  0  0  0  2  0  0  0  0  0  0
  -24.6900  -30.7830   21.9610 N   0  0  0  0  0  0  0  0  0  0  0  0
  -23.4580  -31.8860   23.5170 O   0  0  0  0  0  0  0  0  0  0  0  0
  -22.7990  -29.1290   22.3770 C   0  0  0  0  0  0  0  0  0  0  0  0
  -21.4750  -28.9420   22.2480 N   0  0  0  0  0  0  0  0  0  0  0  0
  -23.4790  -28.5200   23.2070 O   0  0  0  0  0  0  0  0  0  0  0  0
  -20.9880  -29.4850   21.5500 H   0  0  0  0  0  0  0  0  0  0  0  0
  -18.0930  -27.7850   22.8030 C   0  0  0  0  0  0  0  0  0  0  0  0
  -20.6580  -28.0150   23.0330 C   0  0  0  0  0  3  0  0  0  0  0  0
  -20.7340  -26.5810   22.4580 C   0  0  0  0  0  2  0  0  0  0  0  0
  -19.6120  -26.2710   21.4610 C   0  0  0  0  0  2  0  0  0  0  0  0
  -18.2410  -26.4330   22.1250 C   0  0  0  0  0  2  0  0  0  0  0  0
  -19.2270  -28.5340   23.2140 C   0  0  0  0  0  0  0  0  0  0  0  0
  -19.0310  -29.7990   23.8090 C   0  0  0  0  0  3  0  0  0  0  0  0
  -17.7340  -30.3160   23.9940 C   0  0  0  0  0  3  0  0  0  0  0  0
  -16.6150  -29.5630   23.5970 C   0  0  0  0  0  3  0  0  0  0  0  0
  -16.7950  -28.2990   23.0080 C   0  0  0  0  0  3  0  0  0  0  0  0
  -25.8070  -32.3230   23.6670 C   0  0  0  0  0  3  0  0  0  0  0  0
  -25.4060  -33.6840   24.0450 N   0  0  0  0  0  0  0  0  0  0  0  0
  -25.6680  -34.7830   23.3250 C   0  0  0  0  0  0  0  0  0  0  0  0
  -26.3410  -34.7610   22.2910 O   0  0  0  0  0  0  0  0  0  0  0  0
  -24.8050  -33.7710   24.8510 H   0  0  0  0  0  0  0  0  0  0  0  0
  -23.8170  -36.4640   23.0390 C   0  0  0  0  0  1  0  0  0  0  0  0
  -25.0910  -36.1200   23.8300 C   0  0  0  0  0  3  0  0  0  0  0  0
  -27.1660  -37.1200   24.6780 C   0  0  0  0  0  1  0  0  0  0  0  0
  -26.0500  -37.2430   23.7460 N   0  0  0  0  0  0  0  0  0  0  0  0
  -25.5840  -38.1290   23.9230 H   0  0  0  0  0  0  0  0  0  0  0  0
  -26.3790  -31.5450   24.9150 C   0  0  1  0  0  0  0  0  0  0  0  0
  -25.3080  -31.1910   25.9730 C   0  0  0  0  0  1  0  0  0  0  0  0
  -27.0590  -30.2280   24.4760 C   0  0  0  0  0  1  0  0  0  0  0  0
  -27.4740  -32.3950   25.6030 C   0  0  0  0  0  1  0  0  0  0  0  0
  2  5  1  0
  3  1  1  6
  3  2  1  0
  3  4  1  0
  3  6  1  0
  4  1  1  6
  4  6  1  0
  5  8  1  0
  5  4  1  0
  6 49  1  0
  6  7  1  1
  8 17  1  0
  9 17  1  0
 10 15  1  0
 11 12  1  0
 11 10  1  0
 13 12  1  0
 13 21  1  0
 13 14  1  0
 15  9  1  0
 15 14  1  0
 16  9  2  0
 17 48  1  0
 18 19  2  0
 19 38  1  0
 20 19  1  0
 20 23  1  0
 21 22  1  0
 21 18  1  0
 22 20  2  0
 23 24  1  0
 24 25  2  0
 26 29  1  0
 26 25  1  0
 27 26  2  0
 28 27  1  0
 28 23  2  0
 29 30  1  0
 30 31  1  0
 31 32  2  0
 33 32  1  0
 33 37  1  0
 34 33  2  0
 35 30  2  0
 35 34  1  0
 36 35  1  0
 38 39  1  0
 39 42  1  0
 39 41  1  0
 40 38  2  0
 43 18  1  0
 43 44  1  0
 45 43  1  0
 47 46  1  0
 48 47  1  0
 48 46  1  0
 51 49  1  0
 51 50  1  0
 52 53  1  0
 52 51  1  0
 54 65  2  0
 55 53  1  0
 55 60  1  0
 56 64  1  0
 56 66  1  0
 57 59  1  0
 58 64  1  0
 59 60  2  0
 59 58  1  0
 61 55  2  0
 62 61  1  0
 62 57  2  0
 63 57  1  0
 63 56  1  0
 64 54  1  0
 66 68  2  0
 67 66  1  0
 69 67  1  0
 70 79  2  0
 70 75  1  0
 71 67  1  0
 71 75  1  0
 72 71  1  0
 73 74  1  0
 73 72  1  0
 74 70  1  0
 75 76  2  0
 76 77  1  0
 78 77  2  0
 79 78  1  0
 80 54  1  0
 80 81  1  0
 80 90  1  0
 81 84  1  0
 82 86  1  0
 82 81  1  0
 83 82  2  0
 86 85  1  0
 88 86  1  0
 88 89  1  0
 88 87  1  0
 90 93  1  1
 90 91  1  0
 92 90  1  0
M  ISO  4   9 100  17 100  52 101  53 101
M  END
>  <TORSDO>  (2) 
F 21

>  <SCORE>  (2) 
-9.658

>  <name>  (2) 
1

>  <ligand_id>  (2) 
1

>  <original_smiles>  (2) 
[H]c1c([H])c([H])c2c(c1[H])C([H])([H])C([H])([H])C([H])([H])C2([H])N([H])C(=O)C1([H])N(C(=O)C([H])(N([H])C(=O)C([H])(N([H])C([H])([H])[H])C([H])([H])[H])C(C([H])([H])[H])(C([H])([H])[H])C([H])([H])[H])C([H])([H])c2c([H])c(OC([H])([H])C([H])(C([H])([H])[H])C([H])([H])C3(C([H])([H])[H])C4([H])C([H])([H])C([H])(C([H])([H])N(C(=O)N5C([H])([H])C([H])([H])C([H])([H])C([H])(n6nc(-c7c([H])c([H])c(Oc8c([H])c([H])c(F)c([H])c8F)c([H])c7[H])c(C(=O)N([H])[H])c6N([H])[H])C5([H])[H])C5([H])C([H])([H])C5([H])[H])C3([H])C4([H])[H])c([H])c([H])c2C1([H])[H]

>  <smiles>  (2) 
[H]c1c([H])c([H])c2c(c1[H])C([H])([H])C([H])([H])C([H])([H])C2([H])N([H])C(=O)C1([H])N(C(=O)C([H])(N([H])C(=O)C([H])(N([H])C([H])([H])[H])C([H])([H])[H])C(C([H])([H])[H])(C([H])([H])[H])C([H])([H])[H])C([H])([H])c2c([H])c(OC([H])([H])C([H])(C([H])([H])[H])C([H])([H])C3(C([H])([H])[H])C4([H])C([H])([H])C([H])(C([H])([H])N(C(=O)N5C([H])([H])C([H])([H])C([H])([H])C([H])(n6nc(-c7c([H])c([H])c(Oc8c([H])c([H])c(F)c([H])c8F)c([H])c7[H])c(C(=O)N([H])[H])c6N([H])[H])C5([H])[H])C5([H])C([H])([H])C5([H])[H])C3([H])C4([H])[H])c([H])c([H])c2C1([H])[H]

$$$$
2:0:0
     RDKit          3D

 93101  0  0  1  0  0  0  0  0999 V2000
  -28.9650  -19.3850   20.6730 N   0  0  0  0  0  4  0  0  0  0  0  0
  -28.9360  -19.3150   21.6820 H   0  0  0  0  0  0  0  0  0  0  0  0
  -28.0090  -19.3820   20.3560 H   0  0  0  0  0  0  0  0  0  0  0  0
  -30.6400  -14.7880   20.0830 C   0  0  0  0  0  0  0  0  0  0  0  0
  -30.3330  -12.5510   19.0120 C   0  0  0  0  0  2  0  0  0  0  0  0
  -29.3390  -12.6280   17.8340 C   0  0  0  0  0  2  0  0  0  0  0  0
  -27.9000  -12.4260   18.3390 C   0  0  0  0  0  2  0  0  0  0  0  0
  -27.5760  -13.2890   19.5860 C   0  0  0  0  0  3  0  0  0  0  0  0
  -28.6920  -13.2300   20.6520 C   0  0  0  0  0  2  0  0  0  0  0  0
  -29.9470  -13.5980   19.9890 N   0  0  0  0  0  0  0  0  0  0  0  0
  -31.8200  -14.8170   19.7260 O   0  0  0  0  0  0  0  0  0  0  0  0
  -28.7860  -16.7200   20.2300 C   0  0  0  0  0  2  0  0  0  0  0  0
  -30.7140  -17.2730   20.8830 C   0  0  0  0  0  3  0  0  0  0  0  0
  -29.5910  -18.0660   20.1340 C   0  0  0  0  0  3  0  0  0  0  0  0
  -30.0510  -15.9780   20.5130 N   0  0  0  0  0  0  0  0  0  0  0  0
  -25.2210  -13.8390   20.4300 C   0  0  0  0  0  0  0  0  0  0  0  0
  -24.1820  -13.0470   20.8340 C   0  0  0  0  0  0  0  0  0  0  0  0
  -24.6600  -11.7020   20.7650 C   0  0  0  0  0  0  0  0  0  0  0  0
  -26.2620  -12.9760   20.1370 N   0  0  0  0  0  0  0  0  0  0  0  0
  -25.9380  -11.6850   20.4040 N   0  0  0  0  0  0  0  0  0  0  0  0
  -23.9570  -10.4280   20.9660 C   0  0  0  0  0  0  0  0  0  0  0  0
  -24.3970   -9.4840   21.9190 C   0  0  0  0  0  3  0  0  0  0  0  0
  -23.6920   -8.2770   22.1090 C   0  0  0  0  0  3  0  0  0  0  0  0
  -22.5330   -8.0040   21.3440 C   0  0  0  0  0  0  0  0  0  0  0  0
  -22.1110   -8.9370   20.3810 C   0  0  0  0  0  3  0  0  0  0  0  0
  -22.8170  -10.1360   20.1900 C   0  0  0  0  0  3  0  0  0  0  0  0
  -21.8000   -6.8450   21.4430 O   0  0  0  0  0  0  0  0  0  0  0  0
  -21.7140   -6.1450   22.6180 C   0  0  0  0  0  0  0  0  0  0  0  0
  -21.1900   -6.7250   23.7940 C   0  0  0  0  0  3  0  0  0  0  0  0
  -21.0550   -5.9480   24.9620 C   0  0  0  0  0  3  0  0  0  0  0  0
  -21.4360   -4.5930   24.9570 C   0  0  0  0  0  0  0  0  0  0  0  0
  -21.9530   -4.0120   23.7840 C   0  0  0  0  0  3  0  0  0  0  0  0
  -22.0890   -4.7860   22.6190 C   0  0  0  0  0  0  0  0  0  0  0  0
  -22.5670   -4.2160   21.4860 F   0  0  0  0  0  0  0  0  0  0  0  0
  -21.3000   -3.8450   26.0760 F   0  0  0  0  0  0  0  0  0  0  0  0
  -22.7910  -13.5030   21.1650 C   0  0  0  0  0  0  0  0  0  0  0  0
  -22.1050  -12.7820   22.0450 N   0  0  0  0  0  0  0  0  0  0  0  0
  -22.3230  -14.5340   20.6840 O   0  0  0  0  0  0  0  0  0  0  0  0
  -22.4970  -11.9470   22.4560 H   0  0  0  0  0  0  0  0  0  0  0  0
  -21.1760  -13.0680   22.3140 H   0  0  0  0  0  0  0  0  0  0  0  0
  -25.3590  -15.2150   20.2620 N   0  0  0  0  0  0  0  0  0  0  0  0
  -24.5860  -15.8560   20.4020 H   0  0  0  0  0  0  0  0  0  0  0  0
  -26.1850  -15.6630   19.8890 H   0  0  0  0  0  0  0  0  0  0  0  0
  -30.8350  -17.4430   22.4020 C   0  0  0  0  0  0  0  0  0  0  0  0
  -31.4140  -16.4580   23.0770 N   0  0  0  0  0  0  0  0  0  0  0  0
  -30.3890  -18.4400   22.9660 O   0  0  0  0  0  0  0  0  0  0  0  0
  -31.7860  -15.6560   22.5880 H   0  0  0  0  0  0  0  0  0  0  0  0
  -31.5300  -16.5190   24.0780 H   0  0  0  0  0  0  0  0  0  0  0  0
  -29.4950  -20.7910   20.3140 C   0  0  0  0  0  3  0  0  0  0  0  0
  -28.5300  -22.0890   20.5670 C   0  0  0  0  0  3  0  0  0  0  0  0
  -29.0410  -23.6380   20.4430 C   0  0  0  0  0  3  0  0  0  0  0  0
  -27.9550  -24.8480   20.4370 C   0  0  0  0  0  3  0  0  0  0  0  0
  -28.2840  -26.3260   20.3310 O   0  0  0  0  0  0  0  0  0  0  0  0
  -24.6160  -31.9240   23.2150 C   0  0  0  0  0  0  0  0  0  0  0  0
  -27.2120  -27.2540   20.2480 C   0  0  0  0  0  0  0  0  0  0  0  0
  -23.4210  -30.5080   21.5900 C   0  0  0  0  0  3  0  0  0  0  0  0
  -24.8760  -28.9380   20.1850 C   0  0  0  0  0  0  0  0  0  0  0  0
  -25.9710  -30.7960   21.4300 C   0  0  0  0  0  2  0  0  0  0  0  0
  -26.0480  -29.4070   20.7930 C   0  0  0  0  0  0  0  0  0  0  0  0
  -27.2200  -28.5790   20.8120 C   0  0  0  0  0  3  0  0  0  0  0  0
  -26.0180  -26.8740   19.5900 C   0  0  0  0  0  3  0  0  0  0  0  0
  -24.8690  -27.6820   19.5680 C   0  0  0  0  0  3  0  0  0  0  0  0
  -23.6460  -29.8240   20.2170 C   0  0  0  0  0  2  0  0  0  0  0  0
  -24.6870  -31.0940   22.1330 N   0  0  0  0  0  0  0  0  0  0  0  0
  -23.5290  -32.2160   23.7360 O   0  0  0  0  0  0  0  0  0  0  0  0
  -22.7480  -29.5050   22.5560 C   0  0  0  0  0  0  0  0  0  0  0  0
  -21.4200  -29.3310   22.4250 N   0  0  0  0  0  0  0  0  0  0  0  0
  -23.4170  -28.8870   23.3880 O   0  0  0  0  0  0  0  0  0  0  0  0
  -20.9380  -29.8800   21.7260 H   0  0  0  0  0  0  0  0  0  0  0  0
  -18.0280  -28.1730   22.9450 C   0  0  0  0  0  0  0  0  0  0  0  0
  -20.5920  -28.4080   23.2030 C   0  0  0  0  0  3  0  0  0  0  0  0
  -20.6750  -26.9710   22.6370 C   0  0  0  0  0  2  0  0  0  0  0  0
  -19.5670  -26.6540   21.6290 C   0  0  0  0  0  2  0  0  0  0  0  0
  -18.1880  -26.8190   22.2750 C   0  0  0  0  0  2  0  0  0  0  0  0
  -19.1570  -28.9260   23.3640 C   0  0  0  0  0  0  0  0  0  0  0  0
  -18.9520  -30.1950   23.9500 C   0  0  0  0  0  3  0  0  0  0  0  0
  -17.6530  -30.7100   24.1190 C   0  0  0  0  0  3  0  0  0  0  0  0
  -16.5400  -29.9550   23.7120 C   0  0  0  0  0  3  0  0  0  0  0  0
  -16.7270  -28.6870   23.1330 C   0  0  0  0  0  3  0  0  0  0  0  0
  -25.8950  -32.5630   23.8360 C   0  0  0  0  0  3  0  0  0  0  0  0
  -25.5810  -33.9600   24.1610 N   0  0  0  0  0  0  0  0  0  0  0  0
  -25.9180  -35.0140   23.4070 C   0  0  0  0  0  0  0  0  0  0  0  0
  -26.5960  -34.9120   22.3790 O   0  0  0  0  0  0  0  0  0  0  0  0
  -24.9780  -34.1150   24.9560 H   0  0  0  0  0  0  0  0  0  0  0  0
  -24.2010  -36.8140   23.0290 C   0  0  0  0  0  1  0  0  0  0  0  0
  -25.4270  -36.4030   23.8600 C   0  0  0  0  0  3  0  0  0  0  0  0
  -27.5470  -37.2770   24.7360 C   0  0  0  0  0  1  0  0  0  0  0  0
  -26.4640  -37.4530   23.7700 N   0  0  0  0  0  0  0  0  0  0  0  0
  -26.0590  -38.3730   23.9150 H   0  0  0  0  0  0  0  0  0  0  0  0
  -26.4100  -31.8000   25.1190 C   0  0  1  0  0  0  0  0  0  0  0  0
  -25.3120  -31.5570   26.1820 C   0  0  0  0  0  1  0  0  0  0  0  0
  -27.0040  -30.4260   24.7360 C   0  0  0  0  0  1  0  0  0  0  0  0
  -27.5550  -32.6030   25.7800 C   0  0  0  0  0  1  0  0  0  0  0  0
  1  2  1  0
  3  1  1  0
  4 15  1  0
  5 10  1  0
  6  7  1  0
  6  5  1  0
  8  7  1  0
  8 19  1  0
  8  9  1  0
 10  4  1  0
 10  9  1  0
 11  4  2  0
 12 15  1  0
 13 44  1  0
 14 12  1  0
 14  1  1  0
 14 13  1  0
 15 13  1  0
 16 17  2  0
 17 36  1  0
 18 17  1  0
 18 21  1  0
 19 20  1  0
 19 16  1  0
 20 18  2  0
 21 22  1  0
 22 23  2  0
 24 27  1  0
 24 23  1  0
 25 24  2  0
 26 25  1  0
 26 21  2  0
 27 28  1  0
 28 33  2  0
 28 29  1  0
 29 30  2  0
 31 30  1  0
 31 35  1  0
 32 31  2  0
 33 32  1  0
 34 33  1  0
 36 37  1  0
 37 40  1  0
 37 39  1  0
 38 36  2  0
 41 42  1  0
 41 16  1  0
 43 41  1  0
 44 46  2  0
 44 45  1  0
 45 48  1  0
 47 45  1  0
 49 50  2  0
 49  1  1  0
 51 50  1  0
 52 51  2  0
 53 52  1  0
 54 65  2  0
 55 53  1  0
 55 60  1  0
 56 64  1  0
 56 66  1  0
 57 63  1  0
 57 59  1  0
 58 64  1  0
 59 60  2  0
 59 58  1  0
 61 55  2  0
 62 61  1  0
 62 57  2  0
 63 56  1  0
 64 54  1  0
 66 68  2  0
 67 66  1  0
 69 67  1  0
 70 79  2  0
 70 75  1  0
 71 67  1  0
 71 75  1  0
 72 71  1  0
 73 74  1  0
 73 72  1  0
 74 70  1  0
 75 76  2  0
 76 77  1  0
 78 77  2  0
 79 78  1  0
 80 54  1  0
 80 81  1  0
 80 90  1  0
 81 84  1  0
 82 86  1  0
 82 81  1  0
 83 82  2  0
 86 85  1  0
 88 86  1  0
 88 89  1  0
 88 87  1  0
 90 93  1  1
 90 91  1  0
 92 90  1  0
M  ISO  4   4 100  15 100  52 101  53 101
M  END
>  <TORSDO>  (3) 
F 21

>  <SCORE>  (3) 
-12.595

>  <name>  (3) 
2

>  <ligand_id>  (3) 
2

>  <original_smiles>  (3) 
[H]c1c([H])c([H])c2c(c1[H])C([H])([H])C([H])([H])C([H])([H])C2([H])N([H])C(=O)C1([H])N(C(=O)C([H])(N([H])C(=O)C([H])(N([H])C([H])([H])[H])C([H])([H])[H])C(C([H])([H])[H])(C([H])([H])[H])C([H])([H])[H])C([H])([H])c2c([H])c(OC([H])([H])C([H])([H])C([H])([H])C([H])([H])[N+]([H])([H])C3([H])C([H])([H])N(C(=O)N4C([H])([H])C([H])([H])C([H])([H])C([H])(n5nc(-c6c([H])c([H])c(Oc7c([H])c([H])c(F)c([H])c7F)c([H])c6[H])c(C(=O)N([H])[H])c5N([H])[H])C4([H])[H])C3([H])C(=O)N([H])[H])c([H])c([H])c2C1([H])[H]

>  <smiles>  (3) 
[H]c1c([H])c([H])c2c(c1[H])C([H])([H])C([H])([H])C([H])([H])C2([H])N([H])C(=O)C1([H])N(C(=O)C([H])(N([H])C(=O)C([H])(N([H])C([H])([H])[H])C([H])([H])[H])C(C([H])([H])[H])(C([H])([H])[H])C([H])([H])[H])C([H])([H])c2c([H])c(OC([H])([H])C([H])([H])C([H])([H])C([H])([H])[N+]([H])([H])C3([H])C([H])([H])N(C(=O)N4C([H])([H])C([H])([H])C([H])([H])C([H])(n5nc(-c6c([H])c([H])c(Oc7c([H])c([H])c(F)c([H])c7F)c([H])c6[H])c(C(=O)N([H])[H])c5N([H])[H])C4([H])[H])C3([H])C(=O)N([H])[H])c([H])c([H])c2C1([H])[H]

$$$$
3:0:0
     RDKit          3D

 93101  0  0  1  0  0  0  0  0999 V2000
  -30.7580  -22.5490   20.6430 C   0  0  0  0  0  2  0  0  0  0  0  0
  -30.0450  -23.6780   21.4130 C   0  0  0  0  0  3  0  0  0  0  0  0
  -29.4550  -22.0960   19.9620 C   0  0  0  0  0  3  0  0  0  0  0  0
  -28.8430  -23.5970   20.4550 C   0  0  0  0  0  3  0  0  0  0  0  0
  -29.7480  -23.4300   22.9050 C   0  0  0  0  0  0  0  0  0  0  0  0
  -29.1430  -24.3940   23.5850 N   0  0  0  0  0  0  0  0  0  0  0  0
  -30.0990  -22.4010   23.4760 O   0  0  0  0  0  0  0  0  0  0  0  0
  -28.8570  -25.2520   23.1350 H   0  0  0  0  0  0  0  0  0  0  0  0
  -28.9680  -24.2790   24.5740 H   0  0  0  0  0  0  0  0  0  0  0  0
  -28.5900  -20.2610   21.7660 C   0  0  0  0  0  1  0  0  0  0  0  0
  -28.9690  -20.5080   20.2900 C   0  0  0  0  0  3  0  0  0  0  0  0
  -29.7490  -19.1380   19.6880 C   0  0  0  0  0  2  0  0  0  0  0  0
  -30.1810  -17.7400   20.5220 C   0  0  0  0  0  2  0  0  0  0  0  0
  -30.7350  -15.0930   19.9560 C   0  0  0  0  0  0  0  0  0  0  0  0
  -30.5710  -12.7780   18.9530 C   0  0  0  0  0  2  0  0  0  0  0  0
  -29.5770  -12.7670   17.7680 C   0  0  0  0  0  2  0  0  0  0  0  0
  -28.1320  -12.5700   18.2660 C   0  0  0  0  0  2  0  0  0  0  0  0
  -27.7840  -13.4900   19.4600 C   0  0  0  0  0  3  0  0  0  0  0  0
  -28.8810  -13.4380   20.5420 C   0  0  0  0  0  2  0  0  0  0  0  0
  -30.1360  -13.8430   19.8930 N   0  0  0  0  0  0  0  0  0  0  0  0
  -31.9370  -15.1840   19.6850 O   0  0  0  0  0  0  0  0  0  0  0  0
  -29.9260  -16.2420   20.1270 N   0  0  0  0  0  0  0  0  0  0  0  0
  -28.9570  -15.9850   20.2300 H   0  0  0  0  0  0  0  0  0  0  0  0
  -25.4330  -14.0790   20.2860 C   0  0  0  0  0  0  0  0  0  0  0  0
  -24.3810  -13.3020   20.6900 C   0  0  0  0  0  0  0  0  0  0  0  0
  -24.8420  -11.9500   20.6440 C   0  0  0  0  0  0  0  0  0  0  0  0
  -26.4620  -13.1990   20.0080 N   0  0  0  0  0  0  0  0  0  0  0  0
  -26.1220  -11.9150   20.2940 N   0  0  0  0  0  0  0  0  0  0  0  0
  -24.1230  -10.6850   20.8540 C   0  0  0  0  0  0  0  0  0  0  0  0
  -24.5430   -9.7470   21.8230 C   0  0  0  0  0  3  0  0  0  0  0  0
  -23.8220   -8.5490   22.0180 C   0  0  0  0  0  3  0  0  0  0  0  0
  -22.6680   -8.2790   21.2430 C   0  0  0  0  0  0  0  0  0  0  0  0
  -22.2690   -9.2070   20.2630 C   0  0  0  0  0  3  0  0  0  0  0  0
  -22.9910  -10.3940   20.0660 C   0  0  0  0  0  3  0  0  0  0  0  0
  -21.9210   -7.1310   21.3470 O   0  0  0  0  0  0  0  0  0  0  0  0
  -21.8070   -6.4510   22.5350 C   0  0  0  0  0  0  0  0  0  0  0  0
  -21.2670   -7.0560   23.6900 C   0  0  0  0  0  3  0  0  0  0  0  0
  -21.1130   -6.3030   24.8720 C   0  0  0  0  0  3  0  0  0  0  0  0
  -21.4770   -4.9440   24.8930 C   0  0  0  0  0  0  0  0  0  0  0  0
  -22.0010   -4.3350   23.7410 C   0  0  0  0  0  3  0  0  0  0  0  0
  -22.1630   -5.0890   22.5620 C   0  0  0  0  0  0  0  0  0  0  0  0
  -22.6540   -4.4940   21.4500 F   0  0  0  0  0  0  0  0  0  0  0  0
  -21.3150   -4.2160   26.0240 F   0  0  0  0  0  0  0  0  0  0  0  0
  -22.9920  -13.7760   21.0080 C   0  0  0  0  0  0  0  0  0  0  0  0
  -22.2960  -13.0750   21.8970 N   0  0  0  0  0  0  0  0  0  0  0  0
  -22.5330  -14.8020   20.5070 O   0  0  0  0  0  0  0  0  0  0  0  0
  -22.6750  -12.2340   22.3110 H   0  0  0  0  0  0  0  0  0  0  0  0
  -21.3700  -13.3740   22.1730 H   0  0  0  0  0  0  0  0  0  0  0  0
  -25.6040  -15.4490   20.0990 N   0  0  0  0  0  0  0  0  0  0  0  0
  -24.8650  -16.1320   20.2240 H   0  0  0  0  0  0  0  0  0  0  0  0
  -26.4520  -15.8500   19.7180 H   0  0  0  0  0  0  0  0  0  0  0  0
  -28.6480  -25.0080   19.5880 C   0  0  0  0  0  2  0  0  0  0  0  0
  -28.5250  -26.4480   20.1520 O   0  0  0  0  0  0  0  0  0  0  0  0
  -24.5870  -31.8440   23.1780 C   0  0  0  0  0  0  0  0  0  0  0  0
  -27.3950  -27.3290   20.0650 C   0  0  0  0  0  0  0  0  0  0  0  0
  -23.4610  -30.4190   21.5140 C   0  0  0  0  0  3  0  0  0  0  0  0
  -24.9840  -28.9510   20.0550 C   0  0  0  0  0  0  0  0  0  0  0  0
  -26.0010  -30.8170   21.3610 C   0  0  0  0  0  2  0  0  0  0  0  0
  -26.1350  -29.4470   20.6750 C   0  0  0  0  0  0  0  0  0  0  0  0
  -27.3380  -28.6520   20.6580 C   0  0  0  0  0  3  0  0  0  0  0  0
  -26.2080  -26.9230   19.4140 C   0  0  0  0  0  3  0  0  0  0  0  0
  -25.0360  -27.7100   19.4020 C   0  0  0  0  0  3  0  0  0  0  0  0
  -23.7150  -29.7840   20.1190 C   0  0  0  0  0  2  0  0  0  0  0  0
  -24.7010  -31.0470   22.0730 N   0  0  0  0  0  0  0  0  0  0  0  0
  -23.4870  -32.0710   23.7040 O   0  0  0  0  0  0  0  0  0  0  0  0
  -22.8300  -29.3640   22.4540 C   0  0  0  0  0  0  0  0  0  0  0  0
  -21.5130  -29.1220   22.3080 N   0  0  0  0  0  0  0  0  0  0  0  0
  -23.5250  -28.7670   23.2830 O   0  0  0  0  0  0  0  0  0  0  0  0
  -21.0110  -29.6720   21.6260 H   0  0  0  0  0  0  0  0  0  0  0  0
  -18.1900  -27.7270   22.7110 C   0  0  0  0  0  0  0  0  0  0  0  0
  -20.7220  -28.1350   23.0490 C   0  0  0  0  0  3  0  0  0  0  0  0
  -20.9250  -26.7130   22.4700 C   0  0  0  0  0  2  0  0  0  0  0  0
  -19.8690  -26.3320   21.4290 C   0  0  0  0  0  2  0  0  0  0  0  0
  -18.4620  -26.3900   22.0340 C   0  0  0  0  0  2  0  0  0  0  0  0
  -19.2510  -28.5520   23.1690 C   0  0  0  0  0  0  0  0  0  0  0  0
  -18.9460  -29.7960   23.7570 C   0  0  0  0  0  3  0  0  0  0  0  0
  -17.6100  -30.2140   23.9040 C   0  0  0  0  0  3  0  0  0  0  0  0
  -16.5620  -29.3830   23.4670 C   0  0  0  0  0  3  0  0  0  0  0  0
  -16.8520  -28.1450   22.8690 C   0  0  0  0  0  3  0  0  0  0  0  0
  -25.8300  -32.5310   23.8240 C   0  0  0  0  0  3  0  0  0  0  0  0
  -25.4750  -33.9290   24.1170 N   0  0  0  0  0  0  0  0  0  0  0  0
  -25.7890  -34.9780   23.3480 C   0  0  0  0  0  0  0  0  0  0  0  0
  -26.4770  -34.8760   22.3290 O   0  0  0  0  0  0  0  0  0  0  0  0
  -24.8730  -34.0800   24.9130 H   0  0  0  0  0  0  0  0  0  0  0  0
  -24.0120  -36.7150   22.9530 C   0  0  0  0  0  1  0  0  0  0  0  0
  -25.2580  -36.3600   23.7770 C   0  0  0  0  0  3  0  0  0  0  0  0
  -27.3500  -37.3300   24.6120 C   0  0  0  0  0  1  0  0  0  0  0  0
  -26.2560  -37.4420   23.6490 N   0  0  0  0  0  0  0  0  0  0  0  0
  -25.8240  -38.3490   23.7790 H   0  0  0  0  0  0  0  0  0  0  0  0
  -26.3230  -31.8080   25.1380 C   0  0  1  0  0  0  0  0  0  0  0  0
  -25.2020  -31.5690   26.1780 C   0  0  0  0  0  1  0  0  0  0  0  0
  -26.9620  -30.4400   24.8010 C   0  0  0  0  0  1  0  0  0  0  0  0
  -27.4280  -32.6550   25.8140 C   0  0  0  0  0  1  0  0  0  0  0  0
  1  2  1  0
  2  5  1  0
  3 11  1  0
  3  4  1  0
  3  1  1  0
  4 52  1  0
  4  2  1  0
  5  7  2  0
  5  6  1  0
  6  9  1  0
  8  6  1  0
 11 10  1  0
 12 11  1  0
 12 13  1  0
 14 22  1  0
 15 20  1  0
 16 17  1  0
 16 15  1  0
 18 17  1  0
 18 27  1  0
 18 19  1  0
 20 14  1  0
 20 19  1  0
 21 14  2  0
 22 23  1  0
 22 13  1  0
 24 25  2  0
 25 44  1  0
 26 25  1  0
 26 29  1  0
 27 24  1  0
 27 28  1  0
 28 26  2  0
 29 30  1  0
 30 31  2  0
 32 35  1  0
 32 31  1  0
 33 32  2  0
 34 33  1  0
 34 29  2  0
 35 36  1  0
 36 41  2  0
 36 37  1  0
 37 38  2  0
 38 39  1  0
 39 43  1  0
 40 39  2  0
 41 40  1  0
 42 41  1  0
 44 45  1  0
 45 48  1  0
 45 47  1  0
 46 44  2  0
 49 50  1  0
 49 24  1  0
 51 49  1  0
 52 53  1  0
 54 65  2  0
 55 53  1  0
 55 60  1  0
 56 64  1  0
 56 66  1  0
 57 63  1  0
 57 59  1  0
 58 64  1  0
 59 58  1  0
 60 59  2  0
 61 55  2  0
 62 61  1  0
 62 57  2  0
 63 56  1  0
 64 54  1  0
 66 68  2  0
 67 66  1  0
 69 67  1  0
 70 79  2  0
 70 75  1  0
 71 67  1  0
 71 75  1  0
 72 71  1  0
 73 74  1  0
 73 72  1  0
 74 70  1  0
 75 76  2  0
 76 77  1  0
 78 77  2  0
 79 78  1  0
 80 54  1  0
 80 81  1  0
 80 90  1  0
 81 84  1  0
 82 86  1  0
 82 81  1  0
 83 82  2  0
 86 85  1  0
 88 86  1  0
 88 89  1  0
 88 87  1  0
 90 93  1  1
 90 91  1  0
 92 90  1  0
M  ISO  4  14 100  22 100  52 101  53 101
M  END
>  <TORSDO>  (4) 
F 21

>  <SCORE>  (4) 
-12.505

>  <name>  (4) 
3

>  <ligand_id>  (4) 
3

>  <original_smiles>  (4) 
[H]c1c([H])c([H])c2c(c1[H])C([H])([H])C([H])([H])C([H])([H])C2([H])N([H])C(=O)C1([H])N(C(=O)C([H])(N([H])C(=O)C([H])(N([H])C([H])([H])[H])C([H])([H])[H])C(C([H])([H])[H])(C([H])([H])[H])C([H])([H])[H])C([H])([H])c2c([H])c(OC([H])([H])C3([H])C([H])(C(=O)N([H])[H])C([H])([H])C3([H])C([H])(C([H])([H])[H])C([H])([H])C([H])([H])N([H])C(=O)N3C([H])([H])C([H])([H])C([H])([H])C([H])(n4nc(-c5c([H])c([H])c(Oc6c([H])c([H])c(F)c([H])c6F)c([H])c5[H])c(C(=O)N([H])[H])c4N([H])[H])C3([H])[H])c([H])c([H])c2C1([H])[H]

>  <smiles>  (4) 
[H]c1c([H])c([H])c2c(c1[H])C([H])([H])C([H])([H])C([H])([H])C2([H])N([H])C(=O)C1([H])N(C(=O)C([H])(N([H])C(=O)C([H])(N([H])C([H])([H])[H])C([H])([H])[H])C(C([H])([H])[H])(C([H])([H])[H])C([H])([H])[H])C([H])([H])c2c([H])c(OC([H])([H])C3([H])C([H])(C(=O)N([H])[H])C([H])([H])C3([H])C([H])(C([H])([H])[H])C([H])([H])C([H])([H])N([H])C(=O)N3C([H])([H])C([H])([H])C([H])([H])C([H])(n4nc(-c5c([H])c([H])c(Oc6c([H])c([H])c(F)c([H])c6F)c([H])c5[H])c(C(=O)N([H])[H])c4N([H])[H])C3([H])[H])c([H])c([H])c2C1([H])[H]

$$$$
4:0:0
     RDKit          3D

 92101  0  0  1  0  0  0  0  0999 V2000
  -29.5040  -21.5560   20.5900 C   0  0  0  0  0  3  0  0  0  0  0  0
  -28.1930  -22.4830   20.3210 C   0  0  0  0  0  3  0  0  0  0  0  0
  -28.7650  -20.1190   20.2790 C   0  0  0  0  0  3  0  0  0  0  0  0
  -27.9430  -21.1860   19.4650 N   0  0  0  0  0  4  0  0  0  0  0  0
  -28.3320  -21.3020   18.5450 H   0  0  0  0  0  0  0  0  0  0  0  0
  -26.9670  -20.9550   19.3850 H   0  0  0  0  0  0  0  0  0  0  0  0
  -31.2590  -22.7600   22.1440 C   0  0  0  0  0  2  0  0  0  0  0  0
  -30.1910  -21.7120   21.9320 C   0  0  0  0  0  3  0  0  0  0  0  0
  -31.6250  -21.2910   22.1510 C   0  0  0  0  0  3  0  0  0  0  0  0
  -33.5280  -20.7360   23.7270 C   0  0  0  0  0  1  0  0  0  0  0  0
  -32.0310  -20.5960   23.4330 C   0  0  0  0  0  2  0  0  0  0  0  0
  -30.9370  -18.8060   19.3710 C   0  0  0  0  0  1  0  0  0  0  0  0
  -29.4490  -18.5460   19.6410 C   0  0  0  0  0  3  0  0  0  0  0  0
  -29.3680  -16.8200   20.2230 C   0  0  0  0  0  2  0  0  0  0  0  0
  -30.1670  -15.2880   19.8010 C   0  0  0  0  0  0  0  0  0  0  0  0
  -30.1610  -12.8310   18.9170 C   0  0  0  0  0  2  0  0  0  0  0  0
  -29.1400  -12.6130   17.7690 C   0  0  0  0  0  2  0  0  0  0  0  0
  -27.7430  -12.2940   18.3300 C   0  0  0  0  0  2  0  0  0  0  0  0
  -27.3690  -13.2360   19.5000 C   0  0  0  0  0  3  0  0  0  0  0  0
  -28.5070  -13.4020   20.5290 C   0  0  0  0  0  2  0  0  0  0  0  0
  -29.6720  -13.9470   19.8140 N   0  0  0  0  0  0  0  0  0  0  0  0
  -31.3350  -15.3200   19.3830 O   0  0  0  0  0  0  0  0  0  0  0  0
  -25.0840  -13.7290   20.5170 C   0  0  0  0  0  0  0  0  0  0  0  0
  -24.0700  -12.9240   20.9530 C   0  0  0  0  0  0  0  0  0  0  0  0
  -24.5410  -11.5820   20.8100 C   0  0  0  0  0  0  0  0  0  0  0  0
  -26.1020  -12.8790   20.1240 N   0  0  0  0  0  0  0  0  0  0  0  0
  -25.7950  -11.5770   20.3680 N   0  0  0  0  0  0  0  0  0  0  0  0
  -23.8440  -10.3040   21.0110 C   0  0  0  0  0  0  0  0  0  0  0  0
  -24.3350   -9.3260   21.9050 C   0  0  0  0  0  3  0  0  0  0  0  0
  -23.6340   -8.1160   22.0960 C   0  0  0  0  0  3  0  0  0  0  0  0
  -22.4270   -7.8750   21.3970 C   0  0  0  0  0  0  0  0  0  0  0  0
  -21.9560   -8.8420   20.4910 C   0  0  0  0  0  3  0  0  0  0  0  0
  -22.6570  -10.0430   20.2970 C   0  0  0  0  0  3  0  0  0  0  0  0
  -21.6940   -6.7170   21.5000 O   0  0  0  0  0  0  0  0  0  0  0  0
  -21.6930   -5.9650   22.6470 C   0  0  0  0  0  0  0  0  0  0  0  0
  -21.2390   -6.4840   23.8790 C   0  0  0  0  0  3  0  0  0  0  0  0
  -21.1910   -5.6550   25.0170 C   0  0  0  0  0  3  0  0  0  0  0  0
  -21.5860   -4.3080   24.9260 C   0  0  0  0  0  0  0  0  0  0  0  0
  -22.0340   -3.7870   23.6990 C   0  0  0  0  0  3  0  0  0  0  0  0
  -22.0840   -4.6130   22.5620 C   0  0  0  0  0  0  0  0  0  0  0  0
  -22.4960   -4.1010   21.3770 F   0  0  0  0  0  0  0  0  0  0  0  0
  -21.5340   -3.5090   26.0170 F   0  0  0  0  0  0  0  0  0  0  0  0
  -22.7040  -13.3720   21.3830 C   0  0  0  0  0  0  0  0  0  0  0  0
  -22.0680  -12.6260   22.2780 N   0  0  0  0  0  0  0  0  0  0  0  0
  -22.2140  -14.4190   20.9610 O   0  0  0  0  0  0  0  0  0  0  0  0
  -22.4810  -11.7790   22.6390 H   0  0  0  0  0  0  0  0  0  0  0  0
  -21.1560  -12.9050   22.6080 H   0  0  0  0  0  0  0  0  0  0  0  0
  -25.2210  -15.1090   20.3930 N   0  0  0  0  0  0  0  0  0  0  0  0
  -24.4660  -15.7490   20.6180 H   0  0  0  0  0  0  0  0  0  0  0  0
  -26.0310  -15.5730   20.0030 H   0  0  0  0  0  0  0  0  0  0  0  0
  -27.8940  -24.1850   19.7270 C   0  0  0  0  0  2  0  0  0  0  0  0
  -27.9250  -25.7600   20.2720 O   0  0  0  0  0  0  0  0  0  0  0  0
  -24.5840  -31.8750   23.1810 C   0  0  0  0  0  0  0  0  0  0  0  0
  -26.9530  -26.8960   20.1520 C   0  0  0  0  0  0  0  0  0  0  0  0
  -23.3330  -30.5160   21.5540 C   0  0  0  0  0  3  0  0  0  0  0  0
  -24.7170  -28.8640   20.1180 C   0  0  0  0  0  0  0  0  0  0  0  0
  -25.9030  -30.6380   21.3890 C   0  0  0  0  0  2  0  0  0  0  0  0
  -25.9200  -29.2250   20.7350 C   0  0  0  0  0  0  0  0  0  0  0  0
  -27.0270  -28.2600   20.7330 C   0  0  0  0  0  3  0  0  0  0  0  0
  -25.7290  -26.6990   19.4710 C   0  0  0  0  0  3  0  0  0  0  0  0
  -24.6490  -27.6220   19.4640 C   0  0  0  0  0  3  0  0  0  0  0  0
  -23.5280  -29.8250   20.1750 C   0  0  0  0  0  2  0  0  0  0  0  0
  -24.6290  -31.0370   22.0950 N   0  0  0  0  0  0  0  0  0  0  0  0
  -23.5080  -32.2020   23.7100 O   0  0  0  0  0  0  0  0  0  0  0  0
  -22.6120  -29.5470   22.5280 C   0  0  0  0  0  0  0  0  0  0  0  0
  -21.2800  -29.4100   22.4010 N   0  0  0  0  0  0  0  0  0  0  0  0
  -23.2620  -28.9170   23.3670 O   0  0  0  0  0  0  0  0  0  0  0  0
  -20.8090  -29.9680   21.7030 H   0  0  0  0  0  0  0  0  0  0  0  0
  -17.8730  -28.2680   22.9070 C   0  0  0  0  0  0  0  0  0  0  0  0
  -20.4350  -28.4960   23.1800 C   0  0  0  0  0  3  0  0  0  0  0  0
  -20.5160  -27.0550   22.6250 C   0  0  0  0  0  2  0  0  0  0  0  0
  -19.4140  -26.7370   21.6090 C   0  0  0  0  0  2  0  0  0  0  0  0
  -18.0310  -26.9100   22.2440 C   0  0  0  0  0  2  0  0  0  0  0  0
  -19.0010  -29.0200   23.3320 C   0  0  0  0  0  0  0  0  0  0  0  0
  -18.7960  -30.2890   23.9150 C   0  0  0  0  0  3  0  0  0  0  0  0
  -17.4960  -30.8070   24.0740 C   0  0  0  0  0  3  0  0  0  0  0  0
  -16.3830  -30.0540   23.6620 C   0  0  0  0  0  3  0  0  0  0  0  0
  -16.5730  -28.7850   23.0860 C   0  0  0  0  0  3  0  0  0  0  0  0
  -25.8790  -32.4800   23.8030 C   0  0  0  0  0  3  0  0  0  0  0  0
  -25.6120  -33.8920   24.1290 N   0  0  0  0  0  0  0  0  0  0  0  0
  -25.9650  -34.9360   23.3680 C   0  0  0  0  0  0  0  0  0  0  0  0
  -26.6130  -34.8110   22.3260 O   0  0  0  0  0  0  0  0  0  0  0  0
  -25.0360  -34.0650   24.9400 H   0  0  0  0  0  0  0  0  0  0  0  0
  -24.2920  -36.7930   23.0510 C   0  0  0  0  0  1  0  0  0  0  0  0
  -25.5350  -36.3420   23.8350 C   0  0  0  0  0  3  0  0  0  0  0  0
  -27.7060  -37.1710   24.6320 C   0  0  0  0  0  1  0  0  0  0  0  0
  -26.6000  -37.3620   23.6990 N   0  0  0  0  0  0  0  0  0  0  0  0
  -26.2240  -38.2960   23.8390 H   0  0  0  0  0  0  0  0  0  0  0  0
  -26.3620  -31.7100   25.0940 C   0  0  1  0  0  0  0  0  0  0  0  0
  -25.2570  -31.5210   26.1600 C   0  0  0  0  0  1  0  0  0  0  0  0
  -26.9050  -30.3090   24.7330 C   0  0  0  0  0  1  0  0  0  0  0  0
  -27.5340  -32.4770   25.7540 C   0  0  0  0  0  1  0  0  0  0  0  0
  1  8  1  0
  2 51  1  0
  2  1  1  0
  3 13  1  0
  3  1  1  0
  4  3  1  0
  4  2  1  0
  5  4  1  0
  6  4  1  0
  7  9  1  0
  8  7  1  0
  8  9  1  0
  9 11  1  0
 11 10  1  0
 13 12  1  0
 13 14  1  0
 15 21  1  0
 15 14  1  0
 16 21  1  0
 17 18  1  0
 17 16  1  0
 19 18  1  0
 19 26  1  0
 19 20  1  0
 21 20  1  0
 22 15  2  0
 23 24  2  0
 24 43  1  0
 25 24  1  0
 25 28  1  0
 26 27  1  0
 26 23  1  0
 27 25  2  0
 28 29  1  0
 29 30  2  0
 31 34  1  0
 31 30  1  0
 32 31  2  0
 33 32  1  0
 33 28  2  0
 34 35  1  0
 35 36  1  0
 36 37  2  0
 38 37  1  0
 38 42  1  0
 39 38  2  0
 40 35  2  0
 40 39  1  0
 41 40  1  0
 43 44  1  0
 44 47  1  0
 44 46  1  0
 45 43  2  0
 48 23  1  0
 48 49  1  0
 50 48  1  0
 51 52  1  0
 53 64  2  0
 54 52  1  0
 54 59  1  0
 55 63  1  0
 55 65  1  0
 56 62  1  0
 56 58  1  0
 57 63  1  0
 58 57  1  0
 59 58  2  0
 60 54  2  0
 61 60  1  0
 61 56  2  0
 62 55  1  0
 63 53  1  0
 65 67  2  0
 66 65  1  0
 68 66  1  0
 69 78  2  0
 69 74  1  0
 70 66  1  0
 70 74  1  0
 71 70  1  0
 72 73  1  0
 72 71  1  0
 73 69  1  0
 74 75  2  0
 75 76  1  0
 77 76  2  0
 78 77  1  0
 79 53  1  0
 79 80  1  0
 79 89  1  0
 80 83  1  0
 81 85  1  0
 81 80  1  0
 82 81  2  0
 85 84  1  0
 87 85  1  0
 87 88  1  0
 87 86  1  0
 89 92  1  1
 89 90  1  0
 91 89  1  0
M  ISO  4  14 100  15 100  51 101  52 101
M  END
>  <TORSDO>  (5) 
F 21

>  <SCORE>  (5) 
-14.925

>  <name>  (5) 
4

>  <ligand_id>  (5) 
4

>  <original_smiles>  (5) 
[H]c1c([H])c([H])c2c(c1[H])C([H])([H])C([H])([H])C([H])([H])C2([H])N([H])C(=O)C1([H])N(C(=O)C([H])(N([H])C(=O)C([H])(N([H])C([H])([H])[H])C([H])([H])[H])C(C([H])([H])[H])(C([H])([H])[H])C([H])([H])[H])C([H])([H])c2c([H])c(OC([H])([H])C3([H])C([H])(C4([H])C([H])([H])C4([H])C([H])([H])C([H])([H])[H])C([H])(C([H])(C([H])([H])[H])C([H])([H])C(=O)N4C([H])([H])C([H])([H])C([H])([H])C([H])(n5nc(-c6c([H])c([H])c(Oc7c([H])c([H])c(F)c([H])c7F)c([H])c6[H])c(C(=O)N([H])[H])c5N([H])[H])C4([H])[H])[N+]3([H])[H])c([H])c([H])c2C1([H])[H]

>  <smiles>  (5) 
[H]c1c([H])c([H])c2c(c1[H])C([H])([H])C([H])([H])C([H])([H])C2([H])N([H])C(=O)C1([H])N(C(=O)C([H])(N([H])C(=O)C([H])(N([H])C([H])([H])[H])C([H])([H])[H])C(C([H])([H])[H])(C([H])([H])[H])C([H])([H])[H])C([H])([H])c2c([H])c(OC([H])([H])C3([H])C([H])(C4([H])C([H])([H])C4([H])C([H])([H])C([H])([H])[H])C([H])(C([H])(C([H])([H])[H])C([H])([H])C(=O)N4C([H])([H])C([H])([H])C([H])([H])C([H])(n5nc(-c6c([H])c([H])c(Oc7c([H])c([H])c(F)c([H])c7F)c([H])c6[H])c(C(=O)N([H])[H])c5N([H])[H])C4([H])[H])[N+]3([H])[H])c([H])c([H])c2C1([H])[H]

$$$$
5:0:0
     RDKit          3D

 92100  0  0  1  0  0  0  0  0999 V2000
  -28.9820  -21.8680   19.4290 C   0  0  0  0  0  3  0  0  0  0  0  0
  -29.9770  -22.0710   21.6140 C   0  0  0  0  0  3  0  0  0  0  0  0
  -28.4560  -23.1910   19.5400 C   0  0  0  0  0  3  0  0  0  0  0  0
  -29.4520  -23.3900   21.7220 C   0  0  0  0  0  3  0  0  0  0  0  0
  -29.7510  -21.2720   20.4670 C   0  0  0  0  0  0  0  0  0  0  0  0
  -28.6820  -23.9880   20.6910 C   0  0  0  0  0  0  0  0  0  0  0  0
  -30.4930  -19.9060   20.2670 C   0  0  0  0  0  2  0  0  0  0  0  0
  -29.9010  -18.5180   20.7170 C   0  0  0  0  0  0  0  0  0  0  0  0
  -28.9150  -18.4650   21.4580 O   0  0  0  0  0  0  0  0  0  0  0  0
  -30.6210  -17.2140   20.1700 C   0  0  0  0  0  3  0  0  0  0  0  0
  -31.0340  -14.7550   20.7320 C   0  0  0  0  0  0  0  0  0  0  0  0
  -30.8010  -12.5200   19.7040 C   0  0  0  0  0  2  0  0  0  0  0  0
  -29.9420  -12.6570   18.4290 C   0  0  0  0  0  2  0  0  0  0  0  0
  -28.4440  -12.5360   18.7670 C   0  0  0  0  0  2  0  0  0  0  0  0
  -28.0260  -13.4200   19.9720 C   0  0  0  0  0  3  0  0  0  0  0  0
  -29.0130  -13.2830   21.1550 C   0  0  0  0  0  2  0  0  0  0  0  0
  -30.3630  -13.5660   20.6490 N   0  0  0  0  0  0  0  0  0  0  0  0
  -32.2360  -14.8300   20.4710 O   0  0  0  0  0  0  0  0  0  0  0  0
  -30.2770  -15.8900   20.8030 N   0  0  0  0  0  0  0  0  0  0  0  0
  -29.3130  -15.7730   21.0760 H   0  0  0  0  0  0  0  0  0  0  0  0
  -25.5960  -14.0490   20.5160 C   0  0  0  0  0  0  0  0  0  0  0  0
  -24.5020  -13.2920   20.8350 C   0  0  0  0  0  0  0  0  0  0  0  0
  -24.9550  -11.9380   20.8710 C   0  0  0  0  0  0  0  0  0  0  0  0
  -26.6470  -13.1580   20.3770 N   0  0  0  0  0  0  0  0  0  0  0  0
  -26.2640  -11.8840   20.6530 N   0  0  0  0  0  0  0  0  0  0  0  0
  -24.2080  -10.6850   21.0470 C   0  0  0  0  0  0  0  0  0  0  0  0
  -24.5780   -9.7340   22.0230 C   0  0  0  0  0  3  0  0  0  0  0  0
  -23.8330   -8.5470   22.1860 C   0  0  0  0  0  3  0  0  0  0  0  0
  -22.7040   -8.3000   21.3690 C   0  0  0  0  0  0  0  0  0  0  0  0
  -22.3540   -9.2390   20.3820 C   0  0  0  0  0  3  0  0  0  0  0  0
  -23.1000  -10.4180   20.2180 C   0  0  0  0  0  3  0  0  0  0  0  0
  -21.9360   -7.1620   21.4370 O   0  0  0  0  0  0  0  0  0  0  0  0
  -21.8140   -6.4460   22.5990 C   0  0  0  0  0  0  0  0  0  0  0  0
  -21.3090   -7.0290   23.7840 C   0  0  0  0  0  3  0  0  0  0  0  0
  -21.1330   -6.2380   24.9370 C   0  0  0  0  0  3  0  0  0  0  0  0
  -21.4510   -4.8680   24.9080 C   0  0  0  0  0  0  0  0  0  0  0  0
  -21.9480   -4.2850   23.7280 C   0  0  0  0  0  3  0  0  0  0  0  0
  -22.1250   -5.0720   22.5770 C   0  0  0  0  0  0  0  0  0  0  0  0
  -22.5840   -4.5010   21.4370 F   0  0  0  0  0  0  0  0  0  0  0  0
  -21.2760   -4.1060   26.0130 F   0  0  0  0  0  0  0  0  0  0  0  0
  -23.0930  -13.7830   21.0000 C   0  0  0  0  0  0  0  0  0  0  0  0
  -22.3090  -13.1240   21.8450 N   0  0  0  0  0  0  0  0  0  0  0  0
  -22.6930  -14.7890   20.4140 O   0  0  0  0  0  0  0  0  0  0  0  0
  -22.6450  -12.3120   22.3430 H   0  0  0  0  0  0  0  0  0  0  0  0
  -21.3610  -13.4370   21.9990 H   0  0  0  0  0  0  0  0  0  0  0  0
  -25.7790  -15.4130   20.3110 N   0  0  0  0  0  0  0  0  0  0  0  0
  -25.0080  -16.0710   20.3450 H   0  0  0  0  0  0  0  0  0  0  0  0
  -26.6460  -15.8410   20.0100 H   0  0  0  0  0  0  0  0  0  0  0  0
  -31.7030  -16.6070   17.8840 C   0  0  0  0  0  1  0  0  0  0  0  0
  -30.4540  -17.1000   18.6290 C   0  0  0  0  0  2  0  0  0  0  0  0
  -27.9530  -25.3490   20.9460 C   0  0  0  0  0  2  0  0  0  0  0  0
  -28.1840  -26.5260   20.0980 O   0  0  0  0  0  0  0  0  0  0  0  0
  -24.5590  -31.9010   23.2290 C   0  0  0  0  0  0  0  0  0  0  0  0
  -27.0990  -27.4010   20.0770 C   0  0  0  0  0  0  0  0  0  0  0  0
  -23.3160  -30.5190   21.6010 C   0  0  0  0  0  3  0  0  0  0  0  0
  -24.7350  -28.9860   20.1280 C   0  0  0  0  0  0  0  0  0  0  0  0
  -25.8480  -30.8490   21.3620 C   0  0  0  0  0  2  0  0  0  0  0  0
  -25.9150  -29.4790   20.7030 C   0  0  0  0  0  0  0  0  0  0  0  0
  -27.1040  -28.6960   20.6710 C   0  0  0  0  0  3  0  0  0  0  0  0
  -25.9050  -26.9560   19.4720 C   0  0  0  0  0  3  0  0  0  0  0  0
  -24.7300  -27.7290   19.5030 C   0  0  0  0  0  3  0  0  0  0  0  0
  -23.4970  -29.8550   20.2110 C   0  0  0  0  0  2  0  0  0  0  0  0
  -24.5940  -31.1050   22.1210 N   0  0  0  0  0  0  0  0  0  0  0  0
  -23.4880  -32.1740   23.7900 O   0  0  0  0  0  0  0  0  0  0  0  0
  -22.6740  -29.4960   22.5670 C   0  0  0  0  0  0  0  0  0  0  0  0
  -21.3480  -29.3110   22.4560 N   0  0  0  0  0  0  0  0  0  0  0  0
  -23.3680  -28.8700   23.3730 O   0  0  0  0  0  0  0  0  0  0  0  0
  -20.8480  -29.8660   21.7760 H   0  0  0  0  0  0  0  0  0  0  0  0
  -17.9870  -28.0770   22.9720 C   0  0  0  0  0  0  0  0  0  0  0  0
  -20.5430  -28.3670   23.2340 C   0  0  0  0  0  3  0  0  0  0  0  0
  -20.6610  -26.9350   22.6650 C   0  0  0  0  0  2  0  0  0  0  0  0
  -19.5600  -26.5930   21.6570 C   0  0  0  0  0  2  0  0  0  0  0  0
  -18.1780  -26.7270   22.3040 C   0  0  0  0  0  2  0  0  0  0  0  0
  -19.0980  -28.8550   23.3960 C   0  0  0  0  0  0  0  0  0  0  0  0
  -18.8670  -30.1180   23.9810 C   0  0  0  0  0  3  0  0  0  0  0  0
  -17.5570  -30.6040   24.1480 C   0  0  0  0  0  3  0  0  0  0  0  0
  -16.4600  -29.8240   23.7410 C   0  0  0  0  0  3  0  0  0  0  0  0
  -16.6770  -28.5620   23.1600 C   0  0  0  0  0  3  0  0  0  0  0  0
  -25.8570  -32.5250   23.8280 C   0  0  0  0  0  3  0  0  0  0  0  0
  -25.5620  -33.9230   24.1690 N   0  0  0  0  0  0  0  0  0  0  0  0
  -25.9010  -34.9780   23.4150 C   0  0  0  0  0  0  0  0  0  0  0  0
  -26.5670  -34.8750   22.3820 O   0  0  0  0  0  0  0  0  0  0  0  0
  -24.9720  -34.0780   24.9740 H   0  0  0  0  0  0  0  0  0  0  0  0
  -24.2000  -36.7980   23.0660 C   0  0  0  0  0  1  0  0  0  0  0  0
  -25.4290  -36.3680   23.8830 C   0  0  0  0  0  3  0  0  0  0  0  0
  -27.5660  -37.2160   24.7450 C   0  0  0  0  0  1  0  0  0  0  0  0
  -26.4760  -37.4080   23.7910 N   0  0  0  0  0  0  0  0  0  0  0  0
  -26.0810  -38.3320   23.9420 H   0  0  0  0  0  0  0  0  0  0  0  0
  -26.3930  -31.7460   25.0920 C   0  0  1  0  0  0  0  0  0  0  0  0
  -25.3200  -31.5090   26.1800 C   0  0  0  0  0  1  0  0  0  0  0  0
  -26.9620  -30.3670   24.6840 C   0  0  0  0  0  1  0  0  0  0  0  0
  -27.5620  -32.5320   25.7350 C   0  0  0  0  0  1  0  0  0  0  0  0
  1  3  2  0
  1  5  1  0
  2  4  1  0
  3  6  1  0
  5  2  2  0
  6 51  1  0
  6  4  2  0
  7  5  1  0
  7  8  1  0
  8  9  2  0
 10 50  1  0
 10  8  1  0
 10 19  1  0
 11 19  1  0
 12 17  1  0
 13 14  1  0
 13 12  1  0
 15 14  1  0
 15 24  1  0
 15 16  1  0
 17 11  1  0
 17 16  1  0
 18 11  2  0
 19 20  1  0
 21 22  2  0
 22 23  1  0
 22 41  1  0
 23 26  1  0
 24 21  1  0
 24 25  1  0
 25 23  2  0
 26 27  1  0
 27 28  2  0
 29 32  1  0
 29 28  1  0
 30 29  2  0
 31 30  1  0
 31 26  2  0
 32 33  1  0
 33 34  1  0
 34 35  2  0
 36 35  1  0
 36 40  1  0
 37 36  2  0
 38 33  2  0
 38 37  1  0
 39 38  1  0
 41 42  1  0
 42 45  1  0
 42 44  1  0
 43 41  2  0
 46 47  1  0
 46 21  1  0
 48 46  1  0
 49 50  1  0
 52 51  1  0
 53 64  2  0
 54 52  1  0
 54 59  1  0
 55 63  1  0
 55 65  1  0
 56 62  1  0
 56 58  1  0
 57 63  1  0
 58 57  1  0
 59 58  2  0
 60 61  1  0
 60 54  2  0
 61 56  2  0
 62 55  1  0
 63 53  1  0
 65 67  2  0
 66 65  1  0
 68 66  1  0
 69 78  2  0
 69 74  1  0
 70 66  1  0
 70 74  1  0
 71 70  1  0
 72 73  1  0
 72 71  1  0
 73 69  1  0
 74 75  2  0
 75 76  1  0
 77 76  2  0
 78 77  1  0
 79 53  1  0
 79 80  1  0
 79 89  1  0
 80 83  1  0
 81 85  1  0
 81 80  1  0
 82 81  2  0
 85 84  1  0
 87 85  1  0
 87 88  1  0
 87 86  1  0
 89 92  1  1
 89 90  1  0
 91 89  1  0
M  ISO  4  11 100  19 100  51 101  52 101
M  END
>  <TORSDO>  (6) 
F 21

>  <SCORE>  (6) 
-12.834

>  <name>  (6) 
5

>  <ligand_id>  (6) 
5

>  <original_smiles>  (6) 
[H]c1c([H])c([H])c2c(c1[H])C([H])([H])C([H])([H])C([H])([H])C2([H])N([H])C(=O)C1([H])N(C(=O)C([H])(N([H])C(=O)C([H])(N([H])C([H])([H])[H])C([H])([H])[H])C(C([H])([H])[H])(C([H])([H])[H])C([H])([H])[H])C([H])([H])c2c([H])c(OC([H])([H])c3c([H])c([H])c(C([H])([H])C(=O)C([H])(N([H])C(=O)N4C([H])([H])C([H])([H])C([H])([H])C([H])(n5nc(-c6c([H])c([H])c(Oc7c([H])c([H])c(F)c([H])c7F)c([H])c6[H])c(C(=O)N([H])[H])c5N([H])[H])C4([H])[H])C([H])([H])C([H])([H])[H])c([H])c3[H])c([H])c([H])c2C1([H])[H]

>  <smiles>  (6) 
[H]c1c([H])c([H])c2c(c1[H])C([H])([H])C([H])([H])C([H])([H])C2([H])N([H])C(=O)C1([H])N(C(=O)C([H])(N([H])C(=O)C([H])(N([H])C([H])([H])[H])C([H])([H])[H])C(C([H])([H])[H])(C([H])([H])[H])C([H])([H])[H])C([H])([H])c2c([H])c(OC([H])([H])c3c([H])c([H])c(C([H])([H])C(=O)C([H])(N([H])C(=O)N4C([H])([H])C([H])([H])C([H])([H])C([H])(n5nc(-c6c([H])c([H])c(Oc7c([H])c([H])c(F)c([H])c7F)c([H])c6[H])c(C(=O)N([H])[H])c5N([H])[H])C4([H])[H])C([H])([H])C([H])([H])[H])c([H])c3[H])c([H])c([H])c2C1([H])[H]

$$$$
6:0:0
     RDKit          3D

 89 97  0  0  1  0  0  0  0  0999 V2000
  -28.5960  -19.6950   20.5550 C   0  0  0  0  0  0  0  0  0  0  0  0
  -28.3040  -21.2270   20.6780 C   0  0  0  0  0  2  0  0  0  0  0  0
  -30.1540  -20.8520   19.2450 C   0  0  0  0  0  2  0  0  0  0  0  0
  -29.6290  -19.3160   19.4750 C   0  0  0  0  0  3  0  0  0  0  0  0
  -29.0170  -21.9950   19.5320 C   0  0  0  0  0  3  0  0  0  0  0  0
  -28.0330  -18.8580   21.2630 O   0  0  0  0  0  0  0  0  0  0  0  0
  -31.6520  -18.2990   20.8240 C   0  0  0  0  0  1  0  0  0  0  0  0
  -30.6490  -17.9740   19.7000 C   0  0  0  0  0  3  0  0  0  0  0  0
  -30.9570  -15.2470   19.7540 C   0  0  0  0  0  0  0  0  0  0  0  0
  -30.7790  -12.8460   18.9740 C   0  0  0  0  0  2  0  0  0  0  0  0
  -29.7990  -12.7340   17.7850 C   0  0  0  0  0  2  0  0  0  0  0  0
  -28.3540  -12.5570   18.2880 C   0  0  0  0  0  2  0  0  0  0  0  0
  -27.9940  -13.5530   19.4210 C   0  0  0  0  0  3  0  0  0  0  0  0
  -29.0950  -13.6430   20.5000 C   0  0  0  0  0  2  0  0  0  0  0  0
  -30.3410  -13.9990   19.8120 N   0  0  0  0  0  0  0  0  0  0  0  0
  -32.1480  -15.2730   19.4250 O   0  0  0  0  0  0  0  0  0  0  0  0
  -30.2150  -16.4560   19.8590 N   0  0  0  0  0  0  0  0  0  0  0  0
  -29.2360  -16.3130   20.0580 H   0  0  0  0  0  0  0  0  0  0  0  0
  -25.6860  -14.1820   20.3310 C   0  0  0  0  0  0  0  0  0  0  0  0
  -24.6180  -13.4310   20.7360 C   0  0  0  0  0  0  0  0  0  0  0  0
  -25.0310  -12.0660   20.6260 C   0  0  0  0  0  0  0  0  0  0  0  0
  -26.6810  -13.2800   19.9940 N   0  0  0  0  0  0  0  0  0  0  0  0
  -26.2990  -12.0000   20.2370 N   0  0  0  0  0  0  0  0  0  0  0  0
  -24.2710  -10.8230   20.8110 C   0  0  0  0  0  0  0  0  0  0  0  0
  -24.6430   -9.8630   21.7790 C   0  0  0  0  0  3  0  0  0  0  0  0
  -23.8820   -8.6870   21.9500 C   0  0  0  0  0  3  0  0  0  0  0  0
  -22.7350   -8.4610   21.1540 C   0  0  0  0  0  0  0  0  0  0  0  0
  -22.3810   -9.4080   20.1770 C   0  0  0  0  0  3  0  0  0  0  0  0
  -23.1420  -10.5760   20.0040 C   0  0  0  0  0  3  0  0  0  0  0  0
  -21.9510   -7.3350   21.2330 O   0  0  0  0  0  0  0  0  0  0  0  0
  -21.7310   -6.6950   22.4260 C   0  0  0  0  0  0  0  0  0  0  0  0
  -21.0850   -7.3340   23.5070 C   0  0  0  0  0  3  0  0  0  0  0  0
  -20.8150   -6.6170   24.6900 C   0  0  0  0  0  3  0  0  0  0  0  0
  -21.1820   -5.2620   24.7910 C   0  0  0  0  0  0  0  0  0  0  0  0
  -21.8210   -4.6220   23.7150 C   0  0  0  0  0  3  0  0  0  0  0  0
  -22.0910   -5.3360   22.5340 C   0  0  0  0  0  0  0  0  0  0  0  0
  -22.6870   -4.7090   21.4920 F   0  0  0  0  0  0  0  0  0  0  0  0
  -20.9170   -4.5700   25.9240 F   0  0  0  0  0  0  0  0  0  0  0  0
  -23.2580  -13.9440   21.1060 C   0  0  0  0  0  0  0  0  0  0  0  0
  -22.5600  -13.2510   21.9990 N   0  0  0  0  0  0  0  0  0  0  0  0
  -22.8270  -14.9990   20.6390 O   0  0  0  0  0  0  0  0  0  0  0  0
  -22.9220  -12.3980   22.3970 H   0  0  0  0  0  0  0  0  0  0  0  0
  -21.6510  -13.5840   22.2880 H   0  0  0  0  0  0  0  0  0  0  0  0
  -25.8860  -15.5530   20.1960 N   0  0  0  0  0  0  0  0  0  0  0  0
  -25.1490  -16.2240   20.3850 H   0  0  0  0  0  0  0  0  0  0  0  0
  -26.7180  -15.9820   19.8130 H   0  0  0  0  0  0  0  0  0  0  0  0
  -29.3220  -23.6430   19.7800 C   0  0  0  0  0  3  0  0  0  0  0  0
  -28.2320  -24.9160   19.6180 C   0  0  0  0  0  3  0  0  0  0  0  0
  -28.4550  -26.4280   19.9230 O   0  0  0  0  0  0  0  0  0  0  0  0
  -24.6560  -31.7770   23.2870 C   0  0  0  0  0  0  0  0  0  0  0  0
  -27.3630  -27.3710   19.9320 C   0  0  0  0  0  0  0  0  0  0  0  0
  -23.4900  -30.4590   21.5600 C   0  0  0  0  0  3  0  0  0  0  0  0
  -24.9780  -29.0340   20.0280 C   0  0  0  0  0  0  0  0  0  0  0  0
  -26.0340  -30.8190   21.4040 C   0  0  0  0  0  2  0  0  0  0  0  0
  -26.1470  -29.4780   20.6580 C   0  0  0  0  0  0  0  0  0  0  0  0
  -27.3410  -28.6660   20.5910 C   0  0  0  0  0  3  0  0  0  0  0  0
  -26.1600  -27.0260   19.2760 C   0  0  0  0  0  3  0  0  0  0  0  0
  -24.9960  -27.8220   19.3230 C   0  0  0  0  0  3  0  0  0  0  0  0
  -23.7240  -29.8870   20.1380 C   0  0  0  0  0  2  0  0  0  0  0  0
  -24.7470  -31.0360   22.1410 N   0  0  0  0  0  0  0  0  0  0  0  0
  -23.5640  -31.9910   23.8360 O   0  0  0  0  0  0  0  0  0  0  0  0
  -22.8490  -29.3680   22.4530 C   0  0  0  0  0  0  0  0  0  0  0  0
  -21.5380  -29.1250   22.2810 N   0  0  0  0  0  0  0  0  0  0  0  0
  -23.5360  -28.7440   23.2670 O   0  0  0  0  0  0  0  0  0  0  0  0
  -21.0350  -29.6860   21.6080 H   0  0  0  0  0  0  0  0  0  0  0  0
  -18.2230  -27.7050   22.6290 C   0  0  0  0  0  0  0  0  0  0  0  0
  -20.7530  -28.1050   22.9840 C   0  0  0  0  0  3  0  0  0  0  0  0
  -20.9560  -26.7090   22.3510 C   0  0  0  0  0  2  0  0  0  0  0  0
  -19.9040  -26.3690   21.2900 C   0  0  0  0  0  2  0  0  0  0  0  0
  -18.4980  -26.4010   21.8980 C   0  0  0  0  0  2  0  0  0  0  0  0
  -19.2800  -28.5120   23.1250 C   0  0  0  0  0  0  0  0  0  0  0  0
  -18.9670  -29.7280   23.7680 C   0  0  0  0  0  3  0  0  0  0  0  0
  -17.6290  -30.1410   23.9180 C   0  0  0  0  0  3  0  0  0  0  0  0
  -16.5870  -29.3310   23.4370 C   0  0  0  0  0  3  0  0  0  0  0  0
  -16.8840  -28.1140   22.7990 C   0  0  0  0  0  3  0  0  0  0  0  0
  -25.9170  -32.4090   23.9510 C   0  0  0  0  0  3  0  0  0  0  0  0
  -26.3960  -31.6300   25.2370 C   0  0  1  0  0  0  0  0  0  0  0  0
  -25.2710  -31.3780   26.2680 C   0  0  0  0  0  1  0  0  0  0  0  0
  -27.0000  -30.2580   24.8570 C   0  0  0  0  0  1  0  0  0  0  0  0
  -27.5180  -32.4260   25.9440 C   0  0  0  0  0  1  0  0  0  0  0  0
  -25.5940  -33.8050   24.2880 N   0  0  0  0  0  0  0  0  0  0  0  0
  -25.8920  -34.8640   23.5240 C   0  0  0  0  0  0  0  0  0  0  0  0
  -26.5370  -34.7710   22.4760 O   0  0  0  0  0  0  0  0  0  0  0  0
  -25.0220  -33.9510   25.1060 H   0  0  0  0  0  0  0  0  0  0  0  0
  -24.1170  -36.6240   23.2450 C   0  0  0  0  0  1  0  0  0  0  0  0
  -25.4030  -36.2460   23.9980 C   0  0  0  0  0  3  0  0  0  0  0  0
  -27.5440  -37.1910   24.7380 C   0  0  0  0  0  1  0  0  0  0  0  0
  -26.4070  -37.3180   23.8310 N   0  0  0  0  0  0  0  0  0  0  0  0
  -25.9860  -38.2320   23.9770 H   0  0  0  0  0  0  0  0  0  0  0  0
  1  2  1  0
  1  6  2  0
  3  4  1  0
  3  5  1  0
  4  8  1  0
  4  1  1  0
  5 47  1  0
  5  2  1  0
  8 17  1  0
  8  7  1  0
  9 15  1  0
  9 17  1  0
 10 15  1  0
 11 12  1  0
 11 10  1  0
 13 12  1  0
 13 22  1  0
 13 14  1  0
 15 14  1  0
 16  9  2  0
 17 18  1  0
 19 20  2  0
 20 39  1  0
 21 20  1  0
 21 24  1  0
 22 23  1  0
 22 19  1  0
 23 21  2  0
 24 25  1  0
 25 26  2  0
 27 30  1  0
 27 26  1  0
 28 27  2  0
 29 28  1  0
 29 24  2  0
 30 31  1  0
 31 36  2  0
 31 32  1  0
 32 33  2  0
 33 34  1  0
 34 38  1  0
 35 34  2  0
 36 35  1  0
 37 36  1  0
 39 40  1  0
 40 43  1  0
 40 42  1  0
 41 39  2  0
 44 19  1  0
 44 45  1  0
 46 44  1  0
 48 47  2  0
 48 49  1  0
 49 51  1  0
 50 61  2  0
 51 56  1  0
 52 60  1  0
 52 62  1  0
 53 59  1  0
 53 55  1  0
 54 60  1  0
 55 54  1  0
 56 55  2  0
 57 58  1  0
 57 51  2  0
 58 53  2  0
 59 52  1  0
 60 50  1  0
 62 64  2  0
 63 62  1  0
 65 63  1  0
 66 75  2  0
 66 71  1  0
 67 63  1  0
 67 71  1  0
 68 67  1  0
 69 70  1  0
 69 68  1  0
 70 66  1  0
 71 72  2  0
 72 73  1  0
 74 73  2  0
 75 74  1  0
 76 50  1  0
 76 81  1  0
 76 77  1  0
 77 80  1  1
 77 78  1  0
 79 77  1  0
 81 84  1  0
 82 86  1  0
 82 81  1  0
 83 82  2  0
 86 85  1  0
 88 89  1  0
 88 86  1  0
 88 87  1  0
M  ISO  4   9 100  17 100  48 101  49 101
M  END
>  <TORSDO>  (7) 
F 19

>  <SCORE>  (7) 
-13.338

>  <name>  (7) 
6

>  <ligand_id>  (7) 
6

>  <original_smiles>  (7) 
[H]c1c([H])c([H])c2c(c1[H])C([H])([H])C([H])([H])C([H])([H])C2([H])N([H])C(=O)C1([H])N(C(=O)C([H])(N([H])C(=O)C([H])(N([H])C([H])([H])[H])C([H])([H])[H])C(C([H])([H])[H])(C([H])([H])[H])C([H])([H])[H])C([H])([H])c2c([H])c(OC([H])([H])C([H])([H])C3([H])C([H])([H])C(=O)C([H])(C([H])(N([H])C(=O)N4C([H])([H])C([H])([H])C([H])([H])C([H])(n5nc(-c6c([H])c([H])c(Oc7c([H])c([H])c(F)c([H])c7F)c([H])c6[H])c(C(=O)N([H])[H])c5N([H])[H])C4([H])[H])C([H])([H])[H])C3([H])[H])c([H])c([H])c2C1([H])[H]

>  <smiles>  (7) 
[H]c1c([H])c([H])c2c(c1[H])C([H])([H])C([H])([H])C([H])([H])C2([H])N([H])C(=O)C1([H])N(C(=O)C([H])(N([H])C(=O)C([H])(N([H])C([H])([H])[H])C([H])([H])[H])C(C([H])([H])[H])(C([H])([H])[H])C([H])([H])[H])C([H])([H])c2c([H])c(OC([H])([H])C([H])([H])C3([H])C([H])([H])C(=O)C([H])(C([H])(N([H])C(=O)N4C([H])([H])C([H])([H])C([H])([H])C([H])(n5nc(-c6c([H])c([H])c(Oc7c([H])c([H])c(F)c([H])c7F)c([H])c6[H])c(C(=O)N([H])[H])c5N([H])[H])C4([H])[H])C([H])([H])[H])C3([H])[H])c([H])c([H])c2C1([H])[H]

$$$$
7:0:0
     RDKit          3D

 88 96  0  0  1  0  0  0  0  0999 V2000
  -28.8390  -21.0540   20.0750 C   0  0  0  0  0  0  0  0  0  0  0  0
  -29.4570  -21.1390   19.0110 O   0  0  0  0  0  0  0  0  0  0  0  0
  -28.5600  -19.6200   20.7080 C   0  0  0  0  0  2  0  0  0  0  0  0
  -30.7570  -14.7000   20.3210 C   0  0  0  0  0  0  0  0  0  0  0  0
  -30.3280  -12.4850   19.2910 C   0  0  0  0  0  2  0  0  0  0  0  0
  -29.4020  -12.5640   18.0670 C   0  0  0  0  0  2  0  0  0  0  0  0
  -27.9430  -12.4060   18.5210 C   0  0  0  0  0  2  0  0  0  0  0  0
  -27.5850  -13.3150   19.7290 C   0  0  0  0  0  3  0  0  0  0  0  0
  -28.6600  -13.3030   20.8370 C   0  0  0  0  0  2  0  0  0  0  0  0
  -29.9410  -13.6000   20.1920 N   0  0  0  0  0  0  0  0  0  0  0  0
  -31.9570  -14.5290   20.0970 O   0  0  0  0  0  0  0  0  0  0  0  0
  -30.8410  -18.4500   20.3480 C   0  0  0  0  0  2  0  0  0  0  0  0
  -31.3750  -17.0530   20.0480 C   0  0  0  0  0  2  0  0  0  0  0  0
  -29.0860  -16.8330   20.5890 C   0  0  0  0  0  2  0  0  0  0  0  0
  -29.3470  -18.3470   20.1240 C   0  0  0  0  0  3  0  0  0  0  0  0
  -30.3330  -16.0350   20.3240 N   0  0  0  0  0  0  0  0  0  0  0  0
  -25.2120  -13.8930   20.4940 C   0  0  0  0  0  0  0  0  0  0  0  0
  -24.1510  -13.1150   20.8660 C   0  0  0  0  0  0  0  0  0  0  0  0
  -24.6170  -11.7640   20.8290 C   0  0  0  0  0  0  0  0  0  0  0  0
  -26.2550  -13.0180   20.2460 N   0  0  0  0  0  0  0  0  0  0  0  0
  -25.9070  -11.7320   20.5150 N   0  0  0  0  0  0  0  0  0  0  0  0
  -23.8930  -10.4990   21.0150 C   0  0  0  0  0  0  0  0  0  0  0  0
  -24.3140   -9.5390   21.9620 C   0  0  0  0  0  3  0  0  0  0  0  0
  -23.5890   -8.3420   22.1380 C   0  0  0  0  0  3  0  0  0  0  0  0
  -22.4270   -8.0950   21.3680 C   0  0  0  0  0  0  0  0  0  0  0  0
  -22.0250   -9.0440   20.4120 C   0  0  0  0  0  3  0  0  0  0  0  0
  -22.7520  -10.2330   20.2330 C   0  0  0  0  0  3  0  0  0  0  0  0
  -21.6740   -6.9490   21.4530 O   0  0  0  0  0  0  0  0  0  0  0  0
  -21.5920   -6.2250   22.6160 C   0  0  0  0  0  0  0  0  0  0  0  0
  -21.0960   -6.7910   23.8110 C   0  0  0  0  0  3  0  0  0  0  0  0
  -20.9640   -5.9920   24.9650 C   0  0  0  0  0  3  0  0  0  0  0  0
  -21.3180   -4.6300   24.9240 C   0  0  0  0  0  0  0  0  0  0  0  0
  -21.8070   -4.0650   23.7330 C   0  0  0  0  0  3  0  0  0  0  0  0
  -21.9400   -4.8600   22.5820 C   0  0  0  0  0  0  0  0  0  0  0  0
  -22.3920   -4.3060   21.4320 F   0  0  0  0  0  0  0  0  0  0  0  0
  -21.1840   -3.8620   26.0300 F   0  0  0  0  0  0  0  0  0  0  0  0
  -22.7540  -13.5890   21.1420 C   0  0  0  0  0  0  0  0  0  0  0  0
  -22.0270  -12.8850   22.0030 N   0  0  0  0  0  0  0  0  0  0  0  0
  -22.3170  -14.6180   20.6300 O   0  0  0  0  0  0  0  0  0  0  0  0
  -22.3960  -12.0530   22.4390 H   0  0  0  0  0  0  0  0  0  0  0  0
  -21.0900  -13.1840   22.2300 H   0  0  0  0  0  0  0  0  0  0  0  0
  -25.3720  -15.2630   20.3200 N   0  0  0  0  0  0  0  0  0  0  0  0
  -24.6040  -15.9160   20.4390 H   0  0  0  0  0  0  0  0  0  0  0  0
  -26.2200  -15.7060   19.9920 H   0  0  0  0  0  0  0  0  0  0  0  0
  -28.3220  -22.3820   20.7660 C   0  0  0  0  0  2  0  0  0  0  0  0
  -28.6180  -23.8050   20.0780 C   0  0  0  0  0  3  0  0  0  0  0  0
  -28.0820  -25.1170   20.8160 C   0  0  0  0  0  3  0  0  0  0  0  0
  -28.3380  -26.4760   20.2680 O   0  0  0  0  0  0  0  0  0  0  0  0
  -24.5920  -31.8940   23.2370 C   0  0  0  0  0  0  0  0  0  0  0  0
  -27.2440  -27.3490   20.2180 C   0  0  0  0  0  0  0  0  0  0  0  0
  -23.4130  -30.4920   21.5830 C   0  0  0  0  0  3  0  0  0  0  0  0
  -24.8840  -28.9510   20.1700 C   0  0  0  0  0  0  0  0  0  0  0  0
  -25.9510  -30.8240   21.4270 C   0  0  0  0  0  2  0  0  0  0  0  0
  -26.0450  -29.4460   20.7810 C   0  0  0  0  0  0  0  0  0  0  0  0
  -27.2330  -28.6570   20.7930 C   0  0  0  0  0  3  0  0  0  0  0  0
  -26.0700  -26.9100   19.5720 C   0  0  0  0  0  3  0  0  0  0  0  0
  -24.8990  -27.6900   19.5540 C   0  0  0  0  0  3  0  0  0  0  0  0
  -23.6440  -29.8200   20.2040 C   0  0  0  0  0  2  0  0  0  0  0  0
  -24.6700  -31.0880   22.1390 N   0  0  0  0  0  0  0  0  0  0  0  0
  -23.5010  -32.1660   23.7610 O   0  0  0  0  0  0  0  0  0  0  0  0
  -22.7450  -29.4710   22.5350 C   0  0  0  0  0  0  0  0  0  0  0  0
  -21.4210  -29.2900   22.3950 N   0  0  0  0  0  0  0  0  0  0  0  0
  -23.4190  -28.8440   23.3570 O   0  0  0  0  0  0  0  0  0  0  0  0
  -20.9370  -29.8490   21.7070 H   0  0  0  0  0  0  0  0  0  0  0  0
  -18.0400  -28.0960   22.8720 C   0  0  0  0  0  0  0  0  0  0  0  0
  -20.5970  -28.3490   23.1570 C   0  0  0  0  0  3  0  0  0  0  0  0
  -20.6990  -26.9210   22.5740 C   0  0  0  0  0  2  0  0  0  0  0  0
  -19.6020  -26.6060   21.5520 C   0  0  0  0  0  2  0  0  0  0  0  0
  -18.2170  -26.7500   22.1890 C   0  0  0  0  0  2  0  0  0  0  0  0
  -19.1570  -28.8530   23.3120 C   0  0  0  0  0  0  0  0  0  0  0  0
  -18.9370  -30.1130   23.9100 C   0  0  0  0  0  3  0  0  0  0  0  0
  -17.6320  -30.6170   24.0720 C   0  0  0  0  0  3  0  0  0  0  0  0
  -16.5290  -29.8560   23.6470 C   0  0  0  0  0  3  0  0  0  0  0  0
  -16.7330  -28.5970   23.0530 C   0  0  0  0  0  3  0  0  0  0  0  0
  -25.8650  -32.5320   23.8750 C   0  0  0  0  0  3  0  0  0  0  0  0
  -26.3660  -31.7660   25.1610 C   0  0  1  0  0  0  0  0  0  0  0  0
  -25.2590  -31.5270   26.2130 C   0  0  0  0  0  1  0  0  0  0  0  0
  -26.9600  -30.3890   24.7810 C   0  0  0  0  0  1  0  0  0  0  0  0
  -27.5030  -32.5670   25.8370 C   0  0  0  0  0  1  0  0  0  0  0  0
  -25.5470  -33.9300   24.1970 N   0  0  0  0  0  0  0  0  0  0  0  0
  -25.8830  -34.9820   23.4400 C   0  0  0  0  0  0  0  0  0  0  0  0
  -26.5640  -34.8780   22.4160 O   0  0  0  0  0  0  0  0  0  0  0  0
  -24.9440  -34.0840   24.9940 H   0  0  0  0  0  0  0  0  0  0  0  0
  -24.1610  -36.7740   23.0550 C   0  0  0  0  0  1  0  0  0  0  0  0
  -25.3880  -36.3710   23.8890 C   0  0  0  0  0  3  0  0  0  0  0  0
  -27.5030  -37.2590   24.7630 C   0  0  0  0  0  1  0  0  0  0  0  0
  -26.4220  -37.4240   23.7950 N   0  0  0  0  0  0  0  0  0  0  0  0
  -26.0120  -38.3450   23.9300 H   0  0  0  0  0  0  0  0  0  0  0  0
  1  3  1  0
  1 45  1  0
  2  1  2  0
  4 16  1  0
  5 10  1  0
  6  7  1  0
  6  5  1  0
  8  7  1  0
  8 20  1  0
  8  9  1  0
 10  4  1  0
 10  9  1  0
 11  4  2  0
 13 16  1  0
 13 12  1  0
 15 12  1  0
 15 14  1  0
 15  3  1  0
 16 14  1  0
 17 18  2  0
 18 37  1  0
 19 18  1  0
 19 22  1  0
 20 17  1  0
 20 21  1  0
 21 19  2  0
 22 23  1  0
 23 24  2  0
 25 28  1  0
 25 24  1  0
 26 25  2  0
 27 26  1  0
 27 22  2  0
 28 29  1  0
 29 30  1  0
 30 31  2  0
 32 31  1  0
 32 36  1  0
 33 32  2  0
 34 29  2  0
 34 33  1  0
 35 34  1  0
 37 38  1  0
 38 41  1  0
 38 40  1  0
 39 37  2  0
 42 43  1  0
 42 17  1  0
 44 42  1  0
 46 45  1  0
 46 47  2  0
 48 47  1  0
 49 60  2  0
 50 48  1  0
 50 55  1  0
 51 59  1  0
 51 61  1  0
 52 58  1  0
 52 54  1  0
 53 59  1  0
 54 55  2  0
 54 53  1  0
 56 50  2  0
 57 56  1  0
 57 52  2  0
 58 51  1  0
 59 49  1  0
 61 63  2  0
 62 61  1  0
 64 62  1  0
 65 74  2  0
 65 70  1  0
 66 62  1  0
 66 70  1  0
 67 66  1  0
 68 69  1  0
 68 67  1  0
 69 65  1  0
 70 71  2  0
 71 72  1  0
 73 72  2  0
 74 73  1  0
 75 49  1  0
 75 80  1  0
 75 76  1  0
 76 79  1  1
 76 77  1  0
 78 76  1  0
 80 83  1  0
 81 85  1  0
 81 80  1  0
 82 81  2  0
 85 84  1  0
 87 85  1  0
 87 88  1  0
 87 86  1  0
M  ISO  4   4 100  16 100  47 101  48 101
M  END
>  <TORSDO>  (8) 
F 20

>  <SCORE>  (8) 
-13.825

>  <name>  (8) 
7

>  <ligand_id>  (8) 
7

>  <original_smiles>  (8) 
[H]c1c([H])c([H])c2c(c1[H])C([H])([H])C([H])([H])C([H])([H])C2([H])N([H])C(=O)C1([H])N(C(=O)C([H])(N([H])C(=O)C([H])(N([H])C([H])([H])[H])C([H])([H])[H])C(C([H])([H])[H])(C([H])([H])[H])C([H])([H])[H])C([H])([H])c2c([H])c(OC([H])([H])C([H])([H])C([H])([H])C(=O)C([H])([H])C3([H])C([H])([H])N(C(=O)N4C([H])([H])C([H])([H])C([H])([H])C([H])(n5nc(-c6c([H])c([H])c(Oc7c([H])c([H])c(F)c([H])c7F)c([H])c6[H])c(C(=O)N([H])[H])c5N([H])[H])C4([H])[H])C([H])([H])C3([H])[H])c([H])c([H])c2C1([H])[H]

>  <smiles>  (8) 
[H]c1c([H])c([H])c2c(c1[H])C([H])([H])C([H])([H])C([H])([H])C2([H])N([H])C(=O)C1([H])N(C(=O)C([H])(N([H])C(=O)C([H])(N([H])C([H])([H])[H])C([H])([H])[H])C(C([H])([H])[H])(C([H])([H])[H])C([H])([H])[H])C([H])([H])c2c([H])c(OC([H])([H])C([H])([H])C([H])([H])C(=O)C([H])([H])C3([H])C([H])([H])N(C(=O)N4C([H])([H])C([H])([H])C([H])([H])C([H])(n5nc(-c6c([H])c([H])c(Oc7c([H])c([H])c(F)c([H])c7F)c([H])c6[H])c(C(=O)N([H])[H])c5N([H])[H])C4([H])[H])C([H])([H])C3([H])[H])c([H])c([H])c2C1([H])[H]

$$$$
8:0:0
     RDKit          3D

 93101  0  0  1  0  0  0  0  0999 V2000
  -28.7470  -22.5750   22.3310 C   0  0  0  0  0  2  0  0  0  0  0  0
  -28.7380  -22.4040   20.8030 C   0  0  0  0  0  3  0  0  0  0  0  0
  -29.0630  -23.9830   20.6650 C   0  0  0  0  0  3  0  0  0  0  0  0
  -29.0890  -24.0620   22.2060 C   0  0  0  0  0  3  0  0  0  0  0  0
  -30.3910  -24.4520   22.7900 N   0  0  0  0  0  4  0  0  0  0  0  0
  -31.1550  -23.9210   22.4120 H   0  0  0  0  0  0  0  0  0  0  0  0
  -30.3850  -24.3220   23.7870 H   0  0  0  0  0  0  0  0  0  0  0  0
  -30.5770  -25.4240   22.6190 H   0  0  0  0  0  0  0  0  0  0  0  0
  -31.0700  -21.2500   20.5490 C   0  0  0  0  0  1  0  0  0  0  0  0
  -29.5670  -21.1540   20.2430 C   0  0  0  0  0  3  0  0  0  0  0  0
  -28.9640  -19.7190   20.6510 C   0  0  0  0  0  2  0  0  0  0  0  0
  -29.8130  -18.3980   21.0040 C   0  0  0  0  0  2  0  0  0  0  0  0
  -29.9340  -17.1800   19.9860 C   0  0  0  0  0  2  0  0  0  0  0  0
  -30.6260  -14.6820   20.2120 C   0  0  0  0  0  0  0  0  0  0  0  0
  -30.3780  -12.4460   19.1630 C   0  0  0  0  0  2  0  0  0  0  0  0
  -29.4210  -12.5920   17.9580 C   0  0  0  0  0  2  0  0  0  0  0  0
  -27.9540  -12.4410   18.4040 C   0  0  0  0  0  2  0  0  0  0  0  0
  -27.6180  -13.2990   19.6520 C   0  0  0  0  0  3  0  0  0  0  0  0
  -28.6910  -13.1380   20.7550 C   0  0  0  0  0  2  0  0  0  0  0  0
  -29.9970  -13.4660   20.1630 N   0  0  0  0  0  0  0  0  0  0  0  0
  -31.7720  -14.8260   19.7780 O   0  0  0  0  0  0  0  0  0  0  0  0
  -29.8520  -15.7690   20.5290 N   0  0  0  0  0  0  0  0  0  0  0  0
  -28.9550  -15.5260   20.9270 H   0  0  0  0  0  0  0  0  0  0  0  0
  -25.2370  -13.9080   20.3990 C   0  0  0  0  0  0  0  0  0  0  0  0
  -24.1720  -13.1390   20.7870 C   0  0  0  0  0  0  0  0  0  0  0  0
  -24.6310  -11.7860   20.7570 C   0  0  0  0  0  0  0  0  0  0  0  0
  -26.2760  -13.0230   20.1560 N   0  0  0  0  0  0  0  0  0  0  0  0
  -25.9160  -11.7430   20.4300 N   0  0  0  0  0  0  0  0  0  0  0  0
  -23.9030  -10.5260   20.9650 C   0  0  0  0  0  0  0  0  0  0  0  0
  -24.3460   -9.5640   21.8990 C   0  0  0  0  0  3  0  0  0  0  0  0
  -23.6220   -8.3680   22.0940 C   0  0  0  0  0  3  0  0  0  0  0  0
  -22.4390   -8.1280   21.3550 C   0  0  0  0  0  0  0  0  0  0  0  0
  -22.0140   -9.0790   20.4090 C   0  0  0  0  0  3  0  0  0  0  0  0
  -22.7400  -10.2660   20.2130 C   0  0  0  0  0  3  0  0  0  0  0  0
  -21.6850   -6.9840   21.4600 O   0  0  0  0  0  0  0  0  0  0  0  0
  -21.6490   -6.2480   22.6160 C   0  0  0  0  0  0  0  0  0  0  0  0
  -21.2450   -6.8120   23.8460 C   0  0  0  0  0  3  0  0  0  0  0  0
  -21.1570   -6.0030   24.9970 C   0  0  0  0  0  3  0  0  0  0  0  0
  -21.4610   -4.6310   24.9180 C   0  0  0  0  0  0  0  0  0  0  0  0
  -21.8570   -4.0660   23.6930 C   0  0  0  0  0  3  0  0  0  0  0  0
  -21.9460   -4.8720   22.5450 C   0  0  0  0  0  0  0  0  0  0  0  0
  -22.3090   -4.3180   21.3620 F   0  0  0  0  0  0  0  0  0  0  0  0
  -21.3680   -3.8520   26.0210 F   0  0  0  0  0  0  0  0  0  0  0  0
  -22.7800  -13.6200   21.0760 C   0  0  0  0  0  0  0  0  0  0  0  0
  -22.0630  -12.9300   21.9580 N   0  0  0  0  0  0  0  0  0  0  0  0
  -22.3350  -14.6420   20.5540 O   0  0  0  0  0  0  0  0  0  0  0  0
  -22.4350  -12.1040   22.4020 H   0  0  0  0  0  0  0  0  0  0  0  0
  -21.1290  -13.2340   22.1900 H   0  0  0  0  0  0  0  0  0  0  0  0
  -25.4010  -15.2770   20.2090 N   0  0  0  0  0  0  0  0  0  0  0  0
  -24.6360  -15.9350   20.3100 H   0  0  0  0  0  0  0  0  0  0  0  0
  -26.2420  -15.7050   19.8390 H   0  0  0  0  0  0  0  0  0  0  0  0
  -28.0640  -25.0230   19.9970 C   0  0  0  0  0  2  0  0  0  0  0  0
  -28.2770  -26.4840   20.1910 O   0  0  0  0  0  0  0  0  0  0  0  0
  -24.5920  -31.9010   23.2210 C   0  0  0  0  0  0  0  0  0  0  0  0
  -27.1640  -27.3450   20.1270 C   0  0  0  0  0  0  0  0  0  0  0  0
  -23.3680  -30.5110   21.5890 C   0  0  0  0  0  3  0  0  0  0  0  0
  -24.8010  -28.9650   20.1390 C   0  0  0  0  0  0  0  0  0  0  0  0
  -25.9060  -30.8240   21.3820 C   0  0  0  0  0  2  0  0  0  0  0  0
  -25.9760  -29.4470   20.7290 C   0  0  0  0  0  0  0  0  0  0  0  0
  -27.1580  -28.6470   20.7170 C   0  0  0  0  0  3  0  0  0  0  0  0
  -25.9690  -26.9270   19.4930 C   0  0  0  0  0  3  0  0  0  0  0  0
  -24.8010  -27.7110   19.5120 C   0  0  0  0  0  3  0  0  0  0  0  0
  -23.5670  -29.8410   20.2030 C   0  0  0  0  0  2  0  0  0  0  0  0
  -24.6400  -31.0960   22.1200 N   0  0  0  0  0  0  0  0  0  0  0  0
  -23.5140  -32.1780   23.7680 O   0  0  0  0  0  0  0  0  0  0  0  0
  -22.7140  -29.4910   22.5510 C   0  0  0  0  0  0  0  0  0  0  0  0
  -21.3870  -29.3150   22.4350 N   0  0  0  0  0  0  0  0  0  0  0  0
  -23.4000  -28.8620   23.3610 O   0  0  0  0  0  0  0  0  0  0  0  0
  -20.8930  -29.8740   21.7530 H   0  0  0  0  0  0  0  0  0  0  0  0
  -18.0140  -28.1170   22.9550 C   0  0  0  0  0  0  0  0  0  0  0  0
  -20.5730  -28.3780   23.2120 C   0  0  0  0  0  3  0  0  0  0  0  0
  -20.6730  -26.9460   22.6370 C   0  0  0  0  0  2  0  0  0  0  0  0
  -19.5660  -26.6220   21.6290 C   0  0  0  0  0  2  0  0  0  0  0  0
  -18.1880  -26.7680   22.2780 C   0  0  0  0  0  2  0  0  0  0  0  0
  -19.1340  -28.8800   23.3790 C   0  0  0  0  0  0  0  0  0  0  0  0
  -18.9170  -30.1430   23.9710 C   0  0  0  0  0  3  0  0  0  0  0  0
  -17.6130  -30.6450   24.1420 C   0  0  0  0  0  3  0  0  0  0  0  0
  -16.5070  -29.8780   23.7340 C   0  0  0  0  0  3  0  0  0  0  0  0
  -16.7090  -28.6170   23.1470 C   0  0  0  0  0  3  0  0  0  0  0  0
  -25.8830  -32.5270   23.8310 C   0  0  0  0  0  3  0  0  0  0  0  0
  -25.5800  -33.9240   24.1720 N   0  0  0  0  0  0  0  0  0  0  0  0
  -25.9080  -34.9810   23.4170 C   0  0  0  0  0  0  0  0  0  0  0  0
  -26.5700  -34.8820   22.3800 O   0  0  0  0  0  0  0  0  0  0  0  0
  -24.9880  -34.0750   24.9760 H   0  0  0  0  0  0  0  0  0  0  0  0
  -24.1850  -36.7840   23.0850 C   0  0  0  0  0  1  0  0  0  0  0  0
  -25.4290  -36.3690   23.8860 C   0  0  0  0  0  3  0  0  0  0  0  0
  -27.5720  -37.2400   24.7090 C   0  0  0  0  0  1  0  0  0  0  0  0
  -26.4650  -37.4190   23.7730 N   0  0  0  0  0  0  0  0  0  0  0  0
  -26.0640  -38.3390   23.9310 H   0  0  0  0  0  0  0  0  0  0  0  0
  -26.4110  -31.7480   25.0980 C   0  0  1  0  0  0  0  0  0  0  0  0
  -25.3310  -31.5100   26.1780 C   0  0  0  0  0  1  0  0  0  0  0  0
  -26.9850  -30.3700   24.6950 C   0  0  0  0  0  1  0  0  0  0  0  0
  -27.5710  -32.5370   25.7490 C   0  0  0  0  0  1  0  0  0  0  0  0
  2 10  1  0
  2  1  1  0
  3 52  1  0
  3  2  1  0
  3  4  1  0
  4  1  1  0
  4  5  1  0
  5  7  1  0
  6  5  1  0
  8  5  1  0
 10  9  1  0
 10 11  1  0
 11 12  1  0
 13 22  1  0
 13 12  1  0
 14 22  1  0
 15 20  1  0
 16 17  1  0
 16 15  1  0
 18 17  1  0
 18 27  1  0
 18 19  1  0
 20 14  1  0
 20 19  1  0
 21 14  2  0
 22 23  1  0
 24 25  2  0
 25 44  1  0
 26 25  1  0
 26 29  1  0
 27 24  1  0
 27 28  1  0
 28 26  2  0
 29 30  1  0
 30 31  2  0
 32 35  1  0
 32 31  1  0
 33 32  2  0
 34 33  1  0
 34 29  2  0
 35 36  1  0
 36 37  1  0
 37 38  2  0
 39 38  1  0
 39 43  1  0
 40 39  2  0
 41 36  2  0
 41 40  1  0
 42 41  1  0
 44 45  1  0
 45 48  1  0
 45 47  1  0
 46 44  2  0
 49 50  1  0
 49 24  1  0
 51 49  1  0
 52 53  1  0
 54 65  2  0
 55 53  1  0
 55 60  1  0
 56 64  1  0
 56 66  1  0
 57 63  1  0
 57 59  1  0
 58 64  1  0
 59 58  1  0
 60 59  2  0
 61 62  1  0
 61 55  2  0
 62 57  2  0
 63 56  1  0
 64 54  1  0
 66 68  2  0
 67 66  1  0
 69 67  1  0
 70 79  2  0
 70 75  1  0
 71 67  1  0
 71 75  1  0
 72 71  1  0
 73 74  1  0
 73 72  1  0
 74 70  1  0
 75 76  2  0
 76 77  1  0
 78 77  2  0
 79 78  1  0
 80 54  1  0
 80 81  1  0
 80 90  1  0
 81 84  1  0
 82 86  1  0
 82 81  1  0
 83 82  2  0
 86 85  1  0
 88 86  1  0
 88 89  1  0
 88 87  1  0
 90 93  1  1
 90 91  1  0
 92 90  1  0
M  ISO  4  14 100  22 100  52 101  53 101
M  END
>  <TORSDO>  (9) 
F 22

>  <SCORE>  (9) 
-13.144

>  <name>  (9) 
8

>  <ligand_id>  (9) 
8

>  <original_smiles>  (9) 
[H]c1c([H])c([H])c2c(c1[H])C([H])([H])C([H])([H])C([H])([H])C2([H])N([H])C(=O)C1([H])N(C(=O)C([H])(N([H])C(=O)C([H])(N([H])C([H])([H])[H])C([H])([H])[H])C(C([H])([H])[H])(C([H])([H])[H])C([H])([H])[H])C([H])([H])c2c([H])c(OC([H])([H])C3([H])C([H])(C([H])(C([H])([H])[H])C([H])([H])C([H])([H])C([H])([H])N([H])C(=O)N4C([H])([H])C([H])([H])C([H])([H])C([H])(n5nc(-c6c([H])c([H])c(Oc7c([H])c([H])c(F)c([H])c7F)c([H])c6[H])c(C(=O)N([H])[H])c5N([H])[H])C4([H])[H])C([H])([H])C3([H])[N+]([H])([H])[H])c([H])c([H])c2C1([H])[H]

>  <smiles>  (9) 
[H]c1c([H])c([H])c2c(c1[H])C([H])([H])C([H])([H])C([H])([H])C2([H])N([H])C(=O)C1([H])N(C(=O)C([H])(N([H])C(=O)C([H])(N([H])C([H])([H])[H])C([H])([H])[H])C(C([H])([H])[H])(C([H])([H])[H])C([H])([H])[H])C([H])([H])c2c([H])c(OC([H])([H])C3([H])C([H])(C([H])(C([H])([H])[H])C([H])([H])C([H])([H])C([H])([H])N([H])C(=O)N4C([H])([H])C([H])([H])C([H])([H])C([H])(n5nc(-c6c([H])c([H])c(Oc7c([H])c([H])c(F)c([H])c7F)c([H])c6[H])c(C(=O)N([H])[H])c5N([H])[H])C4([H])[H])C([H])([H])C3([H])[N+]([H])([H])[H])c([H])c([H])c2C1([H])[H]

$$$$
9:0:0
     RDKit          3D

 94102  0  0  1  0  0  0  0  0999 V2000
  -30.1020  -20.4440   19.7270 C   0  0  0  0  0  2  0  0  0  0  0  0
  -29.0990  -19.4970   20.3610 C   0  0  0  0  0  3  0  0  0  0  0  0
  -28.6400  -20.5650   19.3600 C   0  0  0  0  0  3  0  0  0  0  0  0
  -29.0040  -17.9970   19.9990 C   0  0  0  0  0  2  0  0  0  0  0  0
  -30.2730  -17.1080   20.2210 C   0  0  0  0  0  3  0  0  0  0  0  0
  -30.6930  -14.5510   19.9440 C   0  0  0  0  0  0  0  0  0  0  0  0
  -30.3590  -12.3060   18.9820 C   0  0  0  0  0  2  0  0  0  0  0  0
  -29.3820  -12.4420   17.7960 C   0  0  0  0  0  2  0  0  0  0  0  0
  -27.9210  -12.3390   18.2770 C   0  0  0  0  0  2  0  0  0  0  0  0
  -27.6250  -13.2420   19.5060 C   0  0  0  0  0  3  0  0  0  0  0  0
  -28.7240  -13.1070   20.5810 C   0  0  0  0  0  2  0  0  0  0  0  0
  -30.0170  -13.3700   19.9360 N   0  0  0  0  0  0  0  0  0  0  0  0
  -31.8600  -14.6200   19.5640 O   0  0  0  0  0  0  0  0  0  0  0  0
  -29.9360  -15.6500   20.1840 N   0  0  0  0  0  0  0  0  0  0  0  0
  -28.9760  -15.4370   20.4060 H   0  0  0  0  0  0  0  0  0  0  0  0
  -25.2890  -13.9000   20.3570 C   0  0  0  0  0  0  0  0  0  0  0  0
  -24.2210  -13.1530   20.7750 C   0  0  0  0  0  0  0  0  0  0  0  0
  -24.6440  -11.7890   20.7050 C   0  0  0  0  0  0  0  0  0  0  0  0
  -26.2950  -12.9930   20.0570 N   0  0  0  0  0  0  0  0  0  0  0  0
  -25.9150  -11.7180   20.3260 N   0  0  0  0  0  0  0  0  0  0  0  0
  -23.8930  -10.5440   20.9200 C   0  0  0  0  0  0  0  0  0  0  0  0
  -24.3300   -9.5730   21.8470 C   0  0  0  0  0  3  0  0  0  0  0  0
  -23.5830   -8.3930   22.0540 C   0  0  0  0  0  3  0  0  0  0  0  0
  -22.3870   -8.1740   21.3310 C   0  0  0  0  0  0  0  0  0  0  0  0
  -21.9690   -9.1350   20.3920 C   0  0  0  0  0  3  0  0  0  0  0  0
  -22.7150  -10.3060   20.1840 C   0  0  0  0  0  3  0  0  0  0  0  0
  -21.6140   -7.0460   21.4400 O   0  0  0  0  0  0  0  0  0  0  0  0
  -21.5470   -6.3280   22.6070 C   0  0  0  0  0  0  0  0  0  0  0  0
  -21.1390   -6.9170   23.8240 C   0  0  0  0  0  3  0  0  0  0  0  0
  -21.0190   -6.1270   24.9840 C   0  0  0  0  0  3  0  0  0  0  0  0
  -21.3020   -4.7490   24.9280 C   0  0  0  0  0  0  0  0  0  0  0  0
  -21.7060   -4.1590   23.7170 C   0  0  0  0  0  3  0  0  0  0  0  0
  -21.8240   -4.9470   22.5600 C   0  0  0  0  0  0  0  0  0  0  0  0
  -22.1910   -4.3700   21.3890 F   0  0  0  0  0  0  0  0  0  0  0  0
  -21.1800   -3.9890   26.0410 F   0  0  0  0  0  0  0  0  0  0  0  0
  -22.8530  -13.6640   21.1230 C   0  0  0  0  0  0  0  0  0  0  0  0
  -22.1540  -12.9830   22.0250 N   0  0  0  0  0  0  0  0  0  0  0  0
  -22.4110  -14.7000   20.6300 O   0  0  0  0  0  0  0  0  0  0  0  0
  -22.5280  -12.1480   22.4500 H   0  0  0  0  0  0  0  0  0  0  0  0
  -21.2350  -13.3040   22.2950 H   0  0  0  0  0  0  0  0  0  0  0  0
  -25.4800  -15.2670   20.1830 N   0  0  0  0  0  0  0  0  0  0  0  0
  -24.7360  -15.9370   20.3420 H   0  0  0  0  0  0  0  0  0  0  0  0
  -26.3110  -15.6880   19.7870 H   0  0  0  0  0  0  0  0  0  0  0  0
  -31.4390  -17.5370   19.2960 C   0  0  0  0  0  0  0  0  0  0  0  0
  -31.3680  -17.4700   18.0660 O   0  0  0  0  0  0  0  0  0  0  0  0
  -33.9590  -17.2730   19.6130 C   0  0  0  0  0  1  0  0  0  0  0  0
  -32.7070  -18.0980   19.9440 C   0  0  0  0  0  2  0  0  0  0  0  0
  -27.7740  -21.7860   19.7070 C   0  0  0  0  0  2  0  0  0  0  0  0
  -28.4850  -22.9570   20.2880 N   0  0  0  0  0  4  0  0  0  0  0  0
  -29.4630  -22.8900   20.0550 H   0  0  0  0  0  0  0  0  0  0  0  0
  -28.4130  -22.8820   21.2910 H   0  0  0  0  0  0  0  0  0  0  0  0
  -27.9650  -24.2870   19.8420 C   0  0  0  0  0  2  0  0  0  0  0  0
  -28.3800  -25.4590   20.7770 C   0  0  0  0  0  2  0  0  0  0  0  0
  -28.4030  -26.7660   20.1680 O   0  0  0  0  0  0  0  0  0  0  0  0
  -24.4930  -31.9040   23.2140 C   0  0  0  0  0  0  0  0  0  0  0  0
  -27.2240  -27.4810   20.1800 C   0  0  0  0  0  0  0  0  0  0  0  0
  -23.3240  -30.4790   21.5660 C   0  0  0  0  0  3  0  0  0  0  0  0
  -24.8140  -28.9600   20.1610 C   0  0  0  0  0  0  0  0  0  0  0  0
  -25.8470  -30.8750   21.3890 C   0  0  0  0  0  2  0  0  0  0  0  0
  -25.9570  -29.5020   20.7600 C   0  0  0  0  0  0  0  0  0  0  0  0
  -27.1680  -28.7680   20.7670 C   0  0  0  0  0  3  0  0  0  0  0  0
  -26.0680  -26.9630   19.5620 C   0  0  0  0  0  3  0  0  0  0  0  0
  -24.8650  -27.6900   19.5580 C   0  0  0  0  0  3  0  0  0  0  0  0
  -23.5580  -29.8000   20.1900 C   0  0  0  0  0  2  0  0  0  0  0  0
  -24.5730  -31.1010   22.1140 N   0  0  0  0  0  0  0  0  0  0  0  0
  -23.4030  -32.1590   23.7440 O   0  0  0  0  0  0  0  0  0  0  0  0
  -22.6810  -29.4490   22.5210 C   0  0  0  0  0  0  0  0  0  0  0  0
  -21.3640  -29.2330   22.3690 N   0  0  0  0  0  0  0  0  0  0  0  0
  -23.3650  -28.8460   23.3520 O   0  0  0  0  0  0  0  0  0  0  0  0
  -20.8720  -29.7730   21.6700 H   0  0  0  0  0  0  0  0  0  0  0  0
  -18.0140  -27.9510   22.8010 C   0  0  0  0  0  0  0  0  0  0  0  0
  -20.5540  -28.2830   23.1320 C   0  0  0  0  0  3  0  0  0  0  0  0
  -20.7130  -26.8490   22.5760 C   0  0  0  0  0  2  0  0  0  0  0  0
  -19.6460  -26.4840   21.5390 C   0  0  0  0  0  2  0  0  0  0  0  0
  -18.2450  -26.6010   22.1450 C   0  0  0  0  0  2  0  0  0  0  0  0
  -19.1000  -28.7490   23.2500 C   0  0  0  0  0  0  0  0  0  0  0  0
  -18.8330  -30.0120   23.8180 C   0  0  0  0  0  3  0  0  0  0  0  0
  -17.5130  -30.4830   23.9420 C   0  0  0  0  0  3  0  0  0  0  0  0
  -16.4400  -29.6820   23.5120 C   0  0  0  0  0  3  0  0  0  0  0  0
  -16.6910  -28.4190   22.9470 C   0  0  0  0  0  3  0  0  0  0  0  0
  -25.7640  -32.5540   23.8440 C   0  0  0  0  0  3  0  0  0  0  0  0
  -25.4330  -33.9480   24.1740 N   0  0  0  0  0  0  0  0  0  0  0  0
  -25.7500  -35.0050   23.4150 C   0  0  0  0  0  0  0  0  0  0  0  0
  -26.4270  -34.9110   22.3870 O   0  0  0  0  0  0  0  0  0  0  0  0
  -24.8390  -34.0950   24.9770 H   0  0  0  0  0  0  0  0  0  0  0  0
  -23.9950  -36.7650   23.0390 C   0  0  0  0  0  1  0  0  0  0  0  0
  -25.2350  -36.3840   23.8650 C   0  0  0  0  0  3  0  0  0  0  0  0
  -27.3470  -37.3030   24.7170 C   0  0  0  0  0  1  0  0  0  0  0  0
  -26.2500  -37.4560   23.7630 N   0  0  0  0  0  0  0  0  0  0  0  0
  -25.8290  -38.3680   23.9080 H   0  0  0  0  0  0  0  0  0  0  0  0
  -26.2870  -31.7870   25.1200 C   0  0  1  0  0  0  0  0  0  0  0  0
  -25.1890  -31.5180   26.1750 C   0  0  0  0  0  1  0  0  0  0  0  0
  -26.9030  -30.4260   24.7200 C   0  0  0  0  0  1  0  0  0  0  0  0
  -27.4190  -32.5990   25.7930 C   0  0  0  0  0  1  0  0  0  0  0  0
  1  2  1  0
  2  4  1  0
  3 48  1  0
  3  1  1  0
  3  2  1  0
  5  4  1  0
  6 14  1  0
  7 12  1  0
  8  9  1  0
  8  7  1  0
 10  9  1  0
 10 19  1  0
 10 11  1  0
 12  6  1  0
 12 11  1  0
 13  6  2  0
 14  5  1  0
 14 15  1  0
 16 17  2  0
 17 36  1  0
 18 17  1  0
 18 21  1  0
 19 20  1  0
 19 16  1  0
 20 18  2  0
 21 22  1  0
 22 23  2  0
 24 27  1  0
 24 23  1  0
 25 24  2  0
 26 25  1  0
 26 21  2  0
 27 28  1  0
 28 29  1  0
 29 30  2  0
 31 30  1  0
 31 35  1  0
 32 31  2  0
 33 28  2  0
 33 32  1  0
 34 33  1  0
 36 37  1  0
 37 40  1  0
 37 39  1  0
 38 36  2  0
 41 42  1  0
 41 16  1  0
 43 41  1  0
 44 47  1  0
 44  5  1  0
 45 44  2  0
 46 47  1  0
 48 49  1  0
 49 51  1  0
 50 49  1  0
 52 49  1  0
 52 53  1  0
 54 56  1  0
 54 53  1  0
 55 66  2  0
 56 61  1  0
 57 65  1  0
 57 67  1  0
 58 64  1  0
 58 60  1  0
 59 65  1  0
 60 61  2  0
 60 59  1  0
 62 56  2  0
 63 62  1  0
 63 58  2  0
 64 57  1  0
 65 55  1  0
 67 69  2  0
 68 67  1  0
 70 68  1  0
 71 80  2  0
 71 76  1  0
 72 68  1  0
 72 76  1  0
 73 72  1  0
 74 75  1  0
 74 73  1  0
 75 71  1  0
 76 77  2  0
 77 78  1  0
 79 78  2  0
 80 79  1  0
 81 55  1  0
 81 82  1  0
 81 91  1  0
 82 85  1  0
 83 87  1  0
 83 82  1  0
 84 83  2  0
 87 86  1  0
 89 87  1  0
 89 90  1  0
 89 88  1  0
 91 94  1  1
 91 92  1  0
 93 91  1  0
M  ISO  4   6 100  14 100  53 101  54 101
M  END
>  <TORSDO>  (10) 
F 24

>  <SCORE>  (10) 
-12.333

>  <name>  (10) 
9

>  <ligand_id>  (10) 
9

>  <original_smiles>  (10) 
[H]c1c([H])c([H])c2c(c1[H])C([H])([H])C([H])([H])C([H])([H])C2([H])N([H])C(=O)C1([H])N(C(=O)C([H])(N([H])C(=O)C([H])(N([H])C([H])([H])[H])C([H])([H])[H])C(C([H])([H])[H])(C([H])([H])[H])C([H])([H])[H])C([H])([H])c2c([H])c(OC([H])([H])C([H])([H])[N+]([H])([H])C([H])([H])C3([H])C([H])([H])C3([H])C([H])([H])C([H])(C(=O)C([H])([H])C([H])([H])[H])N([H])C(=O)N3C([H])([H])C([H])([H])C([H])([H])C([H])(n4nc(-c5c([H])c([H])c(Oc6c([H])c([H])c(F)c([H])c6F)c([H])c5[H])c(C(=O)N([H])[H])c4N([H])[H])C3([H])[H])c([H])c([H])c2C1([H])[H]

>  <smiles>  (10) 
[H]c1c([H])c([H])c2c(c1[H])C([H])([H])C([H])([H])C([H])([H])C2([H])N([H])C(=O)C1([H])N(C(=O)C([H])(N([H])C(=O)C([H])(N([H])C([H])([H])[H])C([H])([H])[H])C(C([H])([H])[H])(C([H])([H])[H])C([H])([H])[H])C([H])([H])c2c([H])c(OC([H])([H])C([H])([H])[N+]([H])([H])C([H])([H])C3([H])C([H])([H])C3([H])C([H])([H])C([H])(C(=O)C([H])([H])C([H])([H])[H])N([H])C(=O)N3C([H])([H])C([H])([H])C([H])([H])C([H])(n4nc(-c5c([H])c([H])c(Oc6c([H])c([H])c(F)c([H])c6F)c([H])c5[H])c(C(=O)N([H])[H])c4N([H])[H])C3([H])[H])c([H])c([H])c2C1([H])[H]

$$$$
10:0:0
     RDKit          3D

 89 97  0  0  1  0  0  0  0  0999 V2000
  -28.3720  -22.0840   18.8650 C   0  0  0  0  0  1  0  0  0  0  0  0
  -29.0600  -22.5840   20.1460 C   0  0  0  0  0  3  0  0  0  0  0  0
  -29.0600  -21.4010   21.2300 C   0  0  0  0  0  2  0  0  0  0  0  0
  -29.9360  -20.1090   20.9990 C   0  0  0  0  0  3  0  0  0  0  0  0
  -29.7260  -18.8380   21.4890 C   0  0  0  0  0  3  0  0  0  0  0  0
  -30.6620  -17.5660   21.3670 C   0  0  0  0  0  2  0  0  0  0  0  0
  -30.7850  -15.0130   21.0310 C   0  0  0  0  0  0  0  0  0  0  0  0
  -30.6870  -12.6810   20.1420 C   0  0  0  0  0  2  0  0  0  0  0  0
  -29.8720  -12.5980   18.8350 C   0  0  0  0  0  2  0  0  0  0  0  0
  -28.3740  -12.3980   19.1380 C   0  0  0  0  0  2  0  0  0  0  0  0
  -27.8430  -13.3500   20.2390 C   0  0  0  0  0  3  0  0  0  0  0  0
  -28.8010  -13.4500   21.4480 C   0  0  0  0  0  2  0  0  0  0  0  0
  -30.1320  -13.8000   20.9320 N   0  0  0  0  0  0  0  0  0  0  0  0
  -32.0170  -15.0310   21.0440 O   0  0  0  0  0  0  0  0  0  0  0  0
  -30.0970  -16.2270   20.9180 N   0  0  0  0  0  0  0  0  0  0  0  0
  -25.3970  -13.9280   20.7390 C   0  0  0  0  0  0  0  0  0  0  0  0
  -24.3150  -13.1410   21.0200 C   0  0  0  0  0  0  0  0  0  0  0  0
  -24.8060  -11.8010   21.0680 C   0  0  0  0  0  0  0  0  0  0  0  0
  -26.4730  -13.0590   20.6260 N   0  0  0  0  0  0  0  0  0  0  0  0
  -26.1200  -11.7800   20.8920 N   0  0  0  0  0  0  0  0  0  0  0  0
  -24.0930  -10.5290   21.2090 C   0  0  0  0  0  0  0  0  0  0  0  0
  -24.4580   -9.5880   22.1970 C   0  0  0  0  0  3  0  0  0  0  0  0
  -23.7460   -8.3770   22.3260 C   0  0  0  0  0  3  0  0  0  0  0  0
  -22.6570   -8.1000   21.4650 C   0  0  0  0  0  0  0  0  0  0  0  0
  -22.3150   -9.0300   20.4670 C   0  0  0  0  0  3  0  0  0  0  0  0
  -23.0280  -10.2330   20.3370 C   0  0  0  0  0  3  0  0  0  0  0  0
  -21.9220   -6.9400   21.5030 O   0  0  0  0  0  0  0  0  0  0  0  0
  -21.7760   -6.2210   22.6610 C   0  0  0  0  0  0  0  0  0  0  0  0
  -21.2140   -6.7880   23.8250 C   0  0  0  0  0  3  0  0  0  0  0  0
  -21.0160   -5.9920   24.9710 C   0  0  0  0  0  3  0  0  0  0  0  0
  -21.3720   -4.6300   24.9530 C   0  0  0  0  0  0  0  0  0  0  0  0
  -21.9300   -4.0630   23.7930 C   0  0  0  0  0  3  0  0  0  0  0  0
  -22.1280   -4.8560   22.6490 C   0  0  0  0  0  0  0  0  0  0  0  0
  -22.6460   -4.3000   21.5270 F   0  0  0  0  0  0  0  0  0  0  0  0
  -21.1750   -3.8620   26.0500 F   0  0  0  0  0  0  0  0  0  0  0  0
  -22.8880  -13.5940   21.1350 C   0  0  0  0  0  0  0  0  0  0  0  0
  -22.0900  -12.9030   21.9400 N   0  0  0  0  0  0  0  0  0  0  0  0
  -22.4860  -14.5960   20.5440 O   0  0  0  0  0  0  0  0  0  0  0  0
  -22.4280  -12.0940   22.4420 H   0  0  0  0  0  0  0  0  0  0  0  0
  -21.1290  -13.1880   22.0590 H   0  0  0  0  0  0  0  0  0  0  0  0
  -25.5420  -15.2960   20.5430 N   0  0  0  0  0  0  0  0  0  0  0  0
  -24.7510  -15.9300   20.5640 H   0  0  0  0  0  0  0  0  0  0  0  0
  -26.4030  -15.7490   20.2680 H   0  0  0  0  0  0  0  0  0  0  0  0
  -29.2330  -16.0870   18.5020 C   0  0  0  0  0  2  0  0  0  0  0  0
  -29.0920  -17.5190   18.9080 C   0  0  0  0  0  2  0  0  0  0  0  0
  -29.0250  -16.4270   19.9740 C   0  0  0  0  0  3  0  0  0  0  0  0
  -28.4660  -24.0170   20.5940 C   0  0  0  0  0  2  0  0  0  0  0  0
  -28.4610  -25.2340   19.5480 C   0  0  0  0  0  2  0  0  0  0  0  0
  -28.3630  -26.6460   20.0040 O   0  0  0  0  0  0  0  0  0  0  0  0
  -24.5720  -31.9160   23.1170 C   0  0  0  0  0  0  0  0  0  0  0  0
  -27.1970  -27.4290   19.9570 C   0  0  0  0  0  0  0  0  0  0  0  0
  -23.3580  -30.5250   21.4750 C   0  0  0  0  0  3  0  0  0  0  0  0
  -24.8020  -29.0080   20.0040 C   0  0  0  0  0  0  0  0  0  0  0  0
  -25.8880  -30.8770   21.2550 C   0  0  0  0  0  2  0  0  0  0  0  0
  -25.9720  -29.5070   20.5880 C   0  0  0  0  0  0  0  0  0  0  0  0
  -27.1660  -28.7290   20.5550 C   0  0  0  0  0  3  0  0  0  0  0  0
  -25.9970  -26.9740   19.3610 C   0  0  0  0  0  3  0  0  0  0  0  0
  -24.8180  -27.7480   19.3820 C   0  0  0  0  0  3  0  0  0  0  0  0
  -23.5570  -29.8670   20.0830 C   0  0  0  0  0  2  0  0  0  0  0  0
  -24.6250  -31.1240   22.0060 N   0  0  0  0  0  0  0  0  0  0  0  0
  -23.4940  -32.1740   23.6720 O   0  0  0  0  0  0  0  0  0  0  0  0
  -22.7210  -29.4900   22.4340 C   0  0  0  0  0  0  0  0  0  0  0  0
  -21.3950  -29.3050   22.3310 N   0  0  0  0  0  0  0  0  0  0  0  0
  -23.4200  -28.8570   23.2290 O   0  0  0  0  0  0  0  0  0  0  0  0
  -20.8880  -29.8680   21.6630 H   0  0  0  0  0  0  0  0  0  0  0  0
  -18.0360  -28.0810   22.8820 C   0  0  0  0  0  0  0  0  0  0  0  0
  -20.5980  -28.3490   23.1020 C   0  0  0  0  0  3  0  0  0  0  0  0
  -20.6930  -26.9290   22.4970 C   0  0  0  0  0  2  0  0  0  0  0  0
  -19.5710  -26.6190   21.5010 C   0  0  0  0  0  2  0  0  0  0  0  0
  -18.2030  -26.7460   22.1770 C   0  0  0  0  0  2  0  0  0  0  0  0
  -19.1600  -28.8410   23.3020 C   0  0  0  0  0  0  0  0  0  0  0  0
  -18.9470  -30.0920   23.9220 C   0  0  0  0  0  3  0  0  0  0  0  0
  -17.6440  -30.5830   24.1250 C   0  0  0  0  0  3  0  0  0  0  0  0
  -16.5340  -29.8200   23.7210 C   0  0  0  0  0  3  0  0  0  0  0  0
  -16.7310  -28.5710   23.1050 C   0  0  0  0  0  3  0  0  0  0  0  0
  -25.8570  -32.5530   23.7280 C   0  0  0  0  0  3  0  0  0  0  0  0
  -25.5360  -33.9410   24.0900 N   0  0  0  0  0  0  0  0  0  0  0  0
  -25.8660  -35.0150   23.3600 C   0  0  0  0  0  0  0  0  0  0  0  0
  -26.5410  -34.9410   22.3300 O   0  0  0  0  0  0  0  0  0  0  0  0
  -24.9370  -34.0730   24.8920 H   0  0  0  0  0  0  0  0  0  0  0  0
  -24.1440  -36.8180   23.0230 C   0  0  0  0  0  1  0  0  0  0  0  0
  -25.3670  -36.3890   23.8480 C   0  0  0  0  0  3  0  0  0  0  0  0
  -27.4840  -37.2490   24.7480 C   0  0  0  0  0  1  0  0  0  0  0  0
  -26.4010  -37.4460   23.7890 N   0  0  0  0  0  0  0  0  0  0  0  0
  -25.9910  -38.3610   23.9540 H   0  0  0  0  0  0  0  0  0  0  0  0
  -26.4050  -31.7670   24.9830 C   0  0  1  0  0  0  0  0  0  0  0  0
  -25.3340  -31.5000   26.0670 C   0  0  0  0  0  1  0  0  0  0  0  0
  -26.9970  -30.4020   24.5580 C   0  0  0  0  0  1  0  0  0  0  0  0
  -27.5580  -32.5640   25.6380 C   0  0  0  0  0  1  0  0  0  0  0  0
  2  1  1  0
  2 47  1  0
  2  3  1  0
  4  3  1  0
  4  5  2  0
  6  5  1  0
  7 14  2  0
  8 13  1  0
  9 10  1  0
  9  8  1  0
 11 10  1  0
 11 19  1  0
 11 12  1  0
 13  7  1  0
 13 12  1  0
 15  7  1  0
 15  6  1  0
 16 17  2  0
 17 18  1  0
 17 36  1  0
 18 21  1  0
 19 16  1  0
 19 20  1  0
 20 18  2  0
 21 22  1  0
 22 23  2  0
 24 27  1  0
 24 23  1  0
 25 24  2  0
 26 25  1  0
 26 21  2  0
 27 28  1  0
 28 29  1  0
 29 30  2  0
 31 30  1  0
 31 35  1  0
 32 31  2  0
 33 28  2  0
 33 32  1  0
 34 33  1  0
 36 37  1  0
 37 40  1  0
 37 39  1  0
 38 36  2  0
 41 42  1  0
 41 16  1  0
 43 41  1  0
 44 45  1  0
 44 46  1  0
 45 46  1  0
 46 15  1  0
 48 49  1  0
 48 47  1  0
 50 61  2  0
 51 49  1  0
 51 56  1  0
 52 60  1  0
 52 62  1  0
 53 59  1  0
 53 55  1  0
 54 60  1  0
 55 54  1  0
 56 55  2  0
 57 58  1  0
 57 51  2  0
 58 53  2  0
 59 52  1  0
 60 50  1  0
 62 64  2  0
 63 62  1  0
 65 63  1  0
 66 75  2  0
 66 71  1  0
 67 63  1  0
 67 71  1  0
 68 67  1  0
 69 70  1  0
 69 68  1  0
 70 66  1  0
 71 72  2  0
 72 73  1  0
 74 73  2  0
 75 74  1  0
 76 50  1  0
 76 77  1  0
 76 86  1  0
 77 80  1  0
 78 82  1  0
 78 77  1  0
 79 78  2  0
 82 81  1  0
 84 82  1  0
 84 85  1  0
 84 83  1  0
 86 89  1  1
 86 87  1  0
 88 86  1  0
M  ISO  4   7 100  15 100  48 101  49 101
M  END
>  <TORSDO>  (11) 
F 22

>  <SCORE>  (11) 
-12.205

>  <name>  (11) 
10

>  <ligand_id>  (11) 
10

>  <original_smiles>  (11) 
[H]C(=C([H])C([H])([H])C([H])(C([H])([H])[H])C([H])([H])C([H])([H])Oc1c([H])c([H])c2c(c1[H])C([H])([H])N(C(=O)C([H])(N([H])C(=O)C([H])(N([H])C([H])([H])[H])C([H])([H])[H])C(C([H])([H])[H])(C([H])([H])[H])C([H])([H])[H])C([H])(C(=O)N([H])C1([H])c3c([H])c([H])c([H])c([H])c3C([H])([H])C([H])([H])C1([H])[H])C2([H])[H])C([H])([H])N(C(=O)N1C([H])([H])C([H])([H])C([H])([H])C([H])(n2nc(-c3c([H])c([H])c(Oc4c([H])c([H])c(F)c([H])c4F)c([H])c3[H])c(C(=O)N([H])[H])c2N([H])[H])C1([H])[H])C1([H])C([H])([H])C1([H])[H]

>  <smiles>  (11) 
[H]C(=C([H])C([H])([H])C([H])(C([H])([H])[H])C([H])([H])C([H])([H])Oc1c([H])c([H])c2c(c1[H])C([H])([H])N(C(=O)C([H])(N([H])C(=O)C([H])(N([H])C([H])([H])[H])C([H])([H])[H])C(C([H])([H])[H])(C([H])([H])[H])C([H])([H])[H])C([H])(C(=O)N([H])C1([H])c3c([H])c([H])c([H])c([H])c3C([H])([H])C([H])([H])C1([H])[H])C2([H])[H])C([H])([H])N(C(=O)N1C([H])([H])C([H])([H])C([H])([H])C([H])(n2nc(-c3c([H])c([H])c(Oc4c([H])c([H])c(F)c([H])c4F)c([H])c3[H])c(C(=O)N([H])[H])c2N([H])[H])C1([H])[H])C1([H])C([H])([H])C1([H])[H]

$$$$
11:0:0
     RDKit          3D

 92100  0  0  1  0  0  0  0  0999 V2000
  -28.8560  -20.9000   21.2490 C   0  0  0  0  0  3  0  0  0  0  0  0
  -31.1470  -21.6750   21.4610 C   0  0  0  0  0  3  0  0  0  0  0  0
  -28.4180  -22.2370   21.1070 C   0  0  0  0  0  3  0  0  0  0  0  0
  -30.7110  -23.0100   21.3210 C   0  0  0  0  0  3  0  0  0  0  0  0
  -30.2200  -20.6070   21.4760 C   0  0  0  0  0  0  0  0  0  0  0  0
  -29.3360  -23.3090   21.1830 C   0  0  0  0  0  0  0  0  0  0  0  0
  -30.6870  -19.2040   21.8900 C   0  0  0  0  0  2  0  0  0  0  0  0
  -30.3550  -18.0060   20.9610 C   0  0  0  0  0  2  0  0  0  0  0  0
  -31.0370  -16.4300   22.9040 C   0  0  0  0  0  1  0  0  0  0  0  0
  -31.0530  -16.6740   21.3840 C   0  0  0  0  0  3  0  0  0  0  0  0
  -31.0120  -14.5150   20.0700 C   0  0  0  0  0  0  0  0  0  0  0  0
  -30.5940  -12.3440   18.9590 C   0  0  0  0  0  2  0  0  0  0  0  0
  -29.6030  -12.5250   17.7950 C   0  0  0  0  0  2  0  0  0  0  0  0
  -28.1440  -12.4530   18.2930 C   0  0  0  0  0  2  0  0  0  0  0  0
  -27.8870  -13.3400   19.5410 C   0  0  0  0  0  3  0  0  0  0  0  0
  -28.9830  -13.1150   20.6040 C   0  0  0  0  0  2  0  0  0  0  0  0
  -30.2860  -13.3710   19.9650 N   0  0  0  0  0  0  0  0  0  0  0  0
  -32.1070  -14.6720   19.5240 O   0  0  0  0  0  0  0  0  0  0  0  0
  -30.4230  -15.4960   20.7730 N   0  0  0  0  0  0  0  0  0  0  0  0
  -29.4790  -15.2930   21.0670 H   0  0  0  0  0  0  0  0  0  0  0  0
  -25.5610  -14.0410   20.3910 C   0  0  0  0  0  0  0  0  0  0  0  0
  -24.4750  -13.3140   20.7950 C   0  0  0  0  0  0  0  0  0  0  0  0
  -24.8630  -11.9410   20.7000 C   0  0  0  0  0  0  0  0  0  0  0  0
  -26.5480  -13.1180   20.0840 N   0  0  0  0  0  0  0  0  0  0  0  0
  -26.1330  -11.8470   20.3270 N   0  0  0  0  0  0  0  0  0  0  0  0
  -24.0810  -10.7140   20.8890 C   0  0  0  0  0  0  0  0  0  0  0  0
  -24.4860   -9.7090   21.7960 C   0  0  0  0  0  3  0  0  0  0  0  0
  -23.7050   -8.5460   21.9740 C   0  0  0  0  0  3  0  0  0  0  0  0
  -22.5020   -8.3810   21.2460 C   0  0  0  0  0  0  0  0  0  0  0  0
  -22.1140   -9.3740   20.3280 C   0  0  0  0  0  3  0  0  0  0  0  0
  -22.8970  -10.5280   20.1480 C   0  0  0  0  0  3  0  0  0  0  0  0
  -21.6920   -7.2750   21.3370 O   0  0  0  0  0  0  0  0  0  0  0  0
  -21.6080   -6.5370   22.4900 C   0  0  0  0  0  0  0  0  0  0  0  0
  -21.2090   -7.1130   23.7150 C   0  0  0  0  0  3  0  0  0  0  0  0
  -21.0640   -6.3050   24.8610 C   0  0  0  0  0  3  0  0  0  0  0  0
  -21.3120   -4.9220   24.7830 C   0  0  0  0  0  0  0  0  0  0  0  0
  -21.7070   -4.3460   23.5640 C   0  0  0  0  0  3  0  0  0  0  0  0
  -21.8520   -5.1510   22.4200 C   0  0  0  0  0  0  0  0  0  0  0  0
  -22.2090   -4.5840   21.2420 F   0  0  0  0  0  0  0  0  0  0  0  0
  -21.1690   -4.1430   25.8820 F   0  0  0  0  0  0  0  0  0  0  0  0
  -23.1190  -13.8520   21.1530 C   0  0  0  0  0  0  0  0  0  0  0  0
  -22.4040  -13.1830   22.0510 N   0  0  0  0  0  0  0  0  0  0  0  0
  -22.7050  -14.9060   20.6710 O   0  0  0  0  0  0  0  0  0  0  0  0
  -22.7480  -12.3260   22.4620 H   0  0  0  0  0  0  0  0  0  0  0  0
  -21.4990  -13.5300   22.3340 H   0  0  0  0  0  0  0  0  0  0  0  0
  -25.7830  -15.4090   20.2370 N   0  0  0  0  0  0  0  0  0  0  0  0
  -25.0490  -16.0890   20.3970 H   0  0  0  0  0  0  0  0  0  0  0  0
  -26.6330  -15.8200   19.8730 H   0  0  0  0  0  0  0  0  0  0  0  0
  -28.8500  -24.7640   21.2380 C   0  0  0  0  0  2  0  0  0  0  0  0
  -29.1390  -25.0630   18.6990 C   0  0  0  0  0  1  0  0  0  0  0  0
  -28.2900  -25.3830   19.9350 C   0  0  0  0  0  3  0  0  0  0  0  0
  -28.2660  -26.8190   20.0700 O   0  0  0  0  0  0  0  0  0  0  0  0
  -24.5640  -31.9780   23.2770 C   0  0  0  0  0  0  0  0  0  0  0  0
  -27.0740  -27.5180   20.1040 C   0  0  0  0  0  0  0  0  0  0  0  0
  -23.3010  -30.6040   21.6590 C   0  0  0  0  0  3  0  0  0  0  0  0
  -24.6970  -29.0690   20.1810 C   0  0  0  0  0  0  0  0  0  0  0  0
  -25.8260  -30.9340   21.3990 C   0  0  0  0  0  2  0  0  0  0  0  0
  -25.8760  -29.5680   20.7450 C   0  0  0  0  0  0  0  0  0  0  0  0
  -27.0640  -28.8010   20.7020 C   0  0  0  0  0  3  0  0  0  0  0  0
  -25.8750  -27.0440   19.5210 C   0  0  0  0  0  3  0  0  0  0  0  0
  -24.6920  -27.8070   19.5690 C   0  0  0  0  0  3  0  0  0  0  0  0
  -23.4610  -29.9380   20.2690 C   0  0  0  0  0  2  0  0  0  0  0  0
  -24.5850  -31.1850   22.1680 N   0  0  0  0  0  0  0  0  0  0  0  0
  -23.4990  -32.2580   23.8450 O   0  0  0  0  0  0  0  0  0  0  0  0
  -22.6620  -29.5820   22.6290 C   0  0  0  0  0  0  0  0  0  0  0  0
  -21.3470  -29.3550   22.4750 N   0  0  0  0  0  0  0  0  0  0  0  0
  -23.3490  -28.9950   23.4670 O   0  0  0  0  0  0  0  0  0  0  0  0
  -20.8590  -29.8560   21.7470 H   0  0  0  0  0  0  0  0  0  0  0  0
  -18.0230  -28.0110   22.8840 C   0  0  0  0  0  0  0  0  0  0  0  0
  -20.5480  -28.4170   23.2570 C   0  0  0  0  0  3  0  0  0  0  0  0
  -20.7540  -26.9700   22.7550 C   0  0  0  0  0  2  0  0  0  0  0  0
  -19.7230  -26.5480   21.7070 C   0  0  0  0  0  2  0  0  0  0  0  0
  -18.3040  -26.6460   22.2800 C   0  0  0  0  0  2  0  0  0  0  0  0
  -19.0790  -28.8500   23.3280 C   0  0  0  0  0  0  0  0  0  0  0  0
  -18.7700  -30.1240   23.8530 C   0  0  0  0  0  3  0  0  0  0  0  0
  -17.4350  -30.5620   23.9430 C   0  0  0  0  0  3  0  0  0  0  0  0
  -16.3920  -29.7200   23.5190 C   0  0  0  0  0  3  0  0  0  0  0  0
  -16.6850  -28.4500   22.9920 C   0  0  0  0  0  3  0  0  0  0  0  0
  -25.8740  -32.5900   23.8680 C   0  0  0  0  0  3  0  0  0  0  0  0
  -25.5900  -33.9920   24.2050 N   0  0  0  0  0  0  0  0  0  0  0  0
  -25.9160  -35.0390   23.4360 C   0  0  0  0  0  0  0  0  0  0  0  0
  -26.5590  -34.9260   22.3900 O   0  0  0  0  0  0  0  0  0  0  0  0
  -25.0230  -34.1600   25.0230 H   0  0  0  0  0  0  0  0  0  0  0  0
  -24.1930  -36.8440   23.1280 C   0  0  0  0  0  1  0  0  0  0  0  0
  -25.4550  -36.4320   23.9050 C   0  0  0  0  0  3  0  0  0  0  0  0
  -27.6160  -37.2980   24.6780 C   0  0  0  0  0  1  0  0  0  0  0  0
  -26.4920  -37.4760   23.7620 N   0  0  0  0  0  0  0  0  0  0  0  0
  -26.0970  -38.4000   23.9160 H   0  0  0  0  0  0  0  0  0  0  0  0
  -26.4090  -31.8110   25.1300 C   0  0  1  0  0  0  0  0  0  0  0  0
  -25.3270  -31.5730   26.2100 C   0  0  0  0  0  1  0  0  0  0  0  0
  -26.9870  -30.4350   24.7240 C   0  0  0  0  0  1  0  0  0  0  0  0
  -27.5730  -32.5970   25.7740 C   0  0  0  0  0  1  0  0  0  0  0  0
  1  5  1  0
  2  5  2  0
  3  6  1  0
  3  1  2  0
  4  2  1  0
  5  7  1  0
  6 49  1  0
  6  4  2  0
  8 10  1  0
  8  7  1  0
 10  9  1  0
 11 19  1  0
 12 17  1  0
 13 14  1  0
 13 12  1  0
 15 14  1  0
 15 24  1  0
 15 16  1  0
 17 11  1  0
 17 16  1  0
 18 11  2  0
 19 20  1  0
 19 10  1  0
 21 22  2  0
 22 41  1  0
 23 22  1  0
 23 26  1  0
 24 25  1  0
 24 21  1  0
 25 23  2  0
 26 27  1  0
 27 28  2  0
 29 32  1  0
 29 28  1  0
 30 29  2  0
 31 30  1  0
 31 26  2  0
 32 33  1  0
 33 34  1  0
 34 35  2  0
 36 35  1  0
 36 40  1  0
 37 36  2  0
 38 33  2  0
 38 37  1  0
 39 38  1  0
 41 42  1  0
 42 45  1  0
 42 44  1  0
 43 41  2  0
 46 21  1  0
 46 47  1  0
 48 46  1  0
 51 50  1  0
 51 52  1  0
 51 49  1  0
 52 54  1  0
 53 64  2  0
 54 59  1  0
 55 63  1  0
 55 65  1  0
 56 62  1  0
 56 58  1  0
 57 63  1  0
 58 57  1  0
 59 58  2  0
 60 61  1  0
 60 54  2  0
 61 56  2  0
 62 55  1  0
 63 53  1  0
 65 67  2  0
 66 65  1  0
 68 66  1  0
 69 78  2  0
 69 74  1  0
 70 66  1  0
 70 74  1  0
 71 70  1  0
 72 73  1  0
 72 71  1  0
 73 69  1  0
 74 75  2  0
 75 76  1  0
 77 76  2  0
 78 77  1  0
 79 53  1  0
 79 80  1  0
 79 89  1  0
 80 83  1  0
 81 85  1  0
 81 80  1  0
 82 81  2  0
 85 84  1  0
 87 85  1  0
 87 88  1  0
 87 86  1  0
 89 92  1  1
 89 90  1  0
 91 89  1  0
M  ISO  4  11 100  19 100  51 101  52 101
M  END
>  <TORSDO>  (12) 
F 21

>  <SCORE>  (12) 
-12.862

>  <name>  (12) 
11

>  <ligand_id>  (12) 
11

>  <original_smiles>  (12) 
[H]c1c([H])c([H])c2c(c1[H])C([H])([H])C([H])([H])C([H])([H])C2([H])N([H])C(=O)C1([H])N(C(=O)C([H])(N([H])C(=O)C([H])(N([H])C([H])([H])[H])C([H])([H])[H])C(C([H])([H])[H])(C([H])([H])[H])C([H])([H])[H])C([H])([H])c2c([H])c(OC([H])(C([H])([H])[H])C([H])([H])c3c([H])c([H])c(C([H])([H])C([H])([H])C([H])(N([H])C(=O)N4C([H])([H])C([H])([H])C([H])([H])C([H])(n5nc(-c6c([H])c([H])c(Oc7c([H])c([H])c(F)c([H])c7F)c([H])c6[H])c(C(=O)N([H])[H])c5N([H])[H])C4([H])[H])C([H])([H])[H])c([H])c3[H])c([H])c([H])c2C1([H])[H]

>  <smiles>  (12) 
[H]c1c([H])c([H])c2c(c1[H])C([H])([H])C([H])([H])C([H])([H])C2([H])N([H])C(=O)C1([H])N(C(=O)C([H])(N([H])C(=O)C([H])(N([H])C([H])([H])[H])C([H])([H])[H])C(C([H])([H])[H])(C([H])([H])[H])C([H])([H])[H])C([H])([H])c2c([H])c(OC([H])(C([H])([H])[H])C([H])([H])c3c([H])c([H])c(C([H])([H])C([H])([H])C([H])(N([H])C(=O)N4C([H])([H])C([H])([H])C([H])([H])C([H])(n5nc(-c6c([H])c([H])c(Oc7c([H])c([H])c(F)c([H])c7F)c([H])c6[H])c(C(=O)N([H])[H])c5N([H])[H])C4([H])[H])C([H])([H])[H])c([H])c3[H])c([H])c([H])c2C1([H])[H]

$$$$
12:0:0
     RDKit          3D

 91 99  0  0  1  0  0  0  0  0999 V2000
  -29.3860  -20.4640   20.8010 C   0  0  0  0  0  2  0  0  0  0  0  0
  -30.5080  -14.9960   20.3460 C   0  0  0  0  0  0  0  0  0  0  0  0
  -30.3650  -12.6530   19.3980 C   0  0  0  0  0  2  0  0  0  0  0  0
  -29.4320  -12.5780   18.1690 C   0  0  0  0  0  2  0  0  0  0  0  0
  -27.9740  -12.3510   18.6070 C   0  0  0  0  0  2  0  0  0  0  0  0
  -27.5540  -13.2790   19.7740 C   0  0  0  0  0  3  0  0  0  0  0  0
  -28.6110  -13.3500   20.8990 C   0  0  0  0  0  2  0  0  0  0  0  0
  -29.8750  -13.7570   20.2690 N   0  0  0  0  0  0  0  0  0  0  0  0
  -31.7350  -15.0030   20.1900 O   0  0  0  0  0  0  0  0  0  0  0  0
  -30.1110  -17.5850   21.0450 C   0  0  0  0  0  2  0  0  0  0  0  0
  -29.0930  -16.7270   19.1530 C   0  0  0  0  0  2  0  0  0  0  0  0
  -29.7180  -18.9230   20.1780 C   0  0  0  0  0  3  0  0  0  0  0  0
  -28.7020  -18.2510   19.2490 C   0  0  0  0  0  3  0  0  0  0  0  0
  -29.7780  -16.2300   20.3720 N   0  0  0  0  0  0  0  0  0  0  0  0
  -25.1740  -13.8790   20.4840 C   0  0  0  0  0  0  0  0  0  0  0  0
  -24.1000  -13.1120   20.8390 C   0  0  0  0  0  0  0  0  0  0  0  0
  -24.5650  -11.7610   20.8320 C   0  0  0  0  0  0  0  0  0  0  0  0
  -26.2170  -12.9940   20.2690 N   0  0  0  0  0  0  0  0  0  0  0  0
  -25.8590  -11.7160   20.5430 N   0  0  0  0  0  0  0  0  0  0  0  0
  -23.8370  -10.5020   21.0250 C   0  0  0  0  0  0  0  0  0  0  0  0
  -24.2640   -9.5430   21.9680 C   0  0  0  0  0  3  0  0  0  0  0  0
  -23.5370   -8.3470   22.1480 C   0  0  0  0  0  3  0  0  0  0  0  0
  -22.3690   -8.1060   21.3850 C   0  0  0  0  0  0  0  0  0  0  0  0
  -21.9620   -9.0560   20.4320 C   0  0  0  0  0  3  0  0  0  0  0  0
  -22.6900  -10.2420   20.2490 C   0  0  0  0  0  3  0  0  0  0  0  0
  -21.6110   -6.9630   21.4740 O   0  0  0  0  0  0  0  0  0  0  0  0
  -21.5600   -6.2250   22.6290 C   0  0  0  0  0  0  0  0  0  0  0  0
  -21.1390   -6.7860   23.8540 C   0  0  0  0  0  3  0  0  0  0  0  0
  -21.0340   -5.9740   25.0010 C   0  0  0  0  0  3  0  0  0  0  0  0
  -21.3390   -4.6010   24.9230 C   0  0  0  0  0  0  0  0  0  0  0  0
  -21.7550   -4.0410   23.7020 C   0  0  0  0  0  3  0  0  0  0  0  0
  -21.8620   -4.8500   22.5580 C   0  0  0  0  0  0  0  0  0  0  0  0
  -22.2410   -4.3010   21.3790 F   0  0  0  0  0  0  0  0  0  0  0  0
  -21.2310   -3.8190   26.0220 F   0  0  0  0  0  0  0  0  0  0  0  0
  -22.7020  -13.5960   21.0850 C   0  0  0  0  0  0  0  0  0  0  0  0
  -21.9610  -12.9080   21.9480 N   0  0  0  0  0  0  0  0  0  0  0  0
  -22.2750  -14.6190   20.5500 O   0  0  0  0  0  0  0  0  0  0  0  0
  -22.3220  -12.0810   22.4000 H   0  0  0  0  0  0  0  0  0  0  0  0
  -21.0220  -13.2120   22.1570 H   0  0  0  0  0  0  0  0  0  0  0  0
  -25.3520  -15.2480   20.3040 N   0  0  0  0  0  0  0  0  0  0  0  0
  -24.6070  -15.9180   20.4570 H   0  0  0  0  0  0  0  0  0  0  0  0
  -26.2510  -15.6620   20.1160 H   0  0  0  0  0  0  0  0  0  0  0  0
  -27.3160  -18.4440   19.7170 N   0  0  0  0  0  4  0  0  0  0  0  0
  -27.1790  -18.0980   20.6490 H   0  0  0  0  0  0  0  0  0  0  0  0
  -26.6680  -17.9910   19.0940 H   0  0  0  0  0  0  0  0  0  0  0  0
  -27.0900  -19.4220   19.7120 H   0  0  0  0  0  0  0  0  0  0  0  0
  -30.1150  -22.0360   18.8580 C   0  0  0  0  0  1  0  0  0  0  0  0
  -29.0490  -21.8790   19.9510 C   0  0  0  0  0  3  0  0  0  0  0  0
  -28.8300  -23.3970   20.6530 C   0  0  0  0  0  3  0  0  0  0  0  0
  -28.2270  -24.7580   19.8710 C   0  0  0  0  0  3  0  0  0  0  0  0
  -28.2670  -26.2390   20.3420 O   0  0  0  0  0  0  0  0  0  0  0  0
  -24.6030  -31.8840   23.2610 C   0  0  0  0  0  0  0  0  0  0  0  0
  -27.1870  -27.1850   20.2310 C   0  0  0  0  0  0  0  0  0  0  0  0
  -23.4000  -30.4880   21.6180 C   0  0  0  0  0  3  0  0  0  0  0  0
  -24.8490  -28.9160   20.1930 C   0  0  0  0  0  0  0  0  0  0  0  0
  -25.9510  -30.7550   21.4590 C   0  0  0  0  0  2  0  0  0  0  0  0
  -26.0240  -29.3650   20.8080 C   0  0  0  0  0  0  0  0  0  0  0  0
  -27.1860  -28.5140   20.8190 C   0  0  0  0  0  3  0  0  0  0  0  0
  -25.9910  -26.8400   19.5600 C   0  0  0  0  0  3  0  0  0  0  0  0
  -24.8460  -27.6660   19.5540 C   0  0  0  0  0  3  0  0  0  0  0  0
  -23.6220  -29.8110   20.2380 C   0  0  0  0  0  2  0  0  0  0  0  0
  -24.6710  -31.0650   22.1680 N   0  0  0  0  0  0  0  0  0  0  0  0
  -23.5180  -32.1720   23.7880 O   0  0  0  0  0  0  0  0  0  0  0  0
  -22.7260  -29.4810   22.5810 C   0  0  0  0  0  0  0  0  0  0  0  0
  -21.3990  -29.3010   22.4470 N   0  0  0  0  0  0  0  0  0  0  0  0
  -23.3960  -28.8660   23.4130 O   0  0  0  0  0  0  0  0  0  0  0  0
  -20.9190  -29.8430   21.7430 H   0  0  0  0  0  0  0  0  0  0  0  0
  -18.0270  -28.0620   22.9140 C   0  0  0  0  0  0  0  0  0  0  0  0
  -20.5770  -28.3650   23.2180 C   0  0  0  0  0  3  0  0  0  0  0  0
  -20.7090  -26.9270   22.6680 C   0  0  0  0  0  2  0  0  0  0  0  0
  -19.6290  -26.5720   21.6410 C   0  0  0  0  0  2  0  0  0  0  0  0
  -18.2340  -26.7070   22.2590 C   0  0  0  0  0  2  0  0  0  0  0  0
  -19.1270  -28.8470   23.3500 C   0  0  0  0  0  0  0  0  0  0  0  0
  -18.8800  -30.1140   23.9230 C   0  0  0  0  0  3  0  0  0  0  0  0
  -17.5660  -30.5970   24.0640 C   0  0  0  0  0  3  0  0  0  0  0  0
  -16.4800  -29.8110   23.6400 C   0  0  0  0  0  3  0  0  0  0  0  0
  -16.7100  -28.5450   23.0730 C   0  0  0  0  0  3  0  0  0  0  0  0
  -25.8850  -32.5160   23.8880 C   0  0  0  0  0  3  0  0  0  0  0  0
  -26.3890  -31.7560   25.1770 C   0  0  1  0  0  0  0  0  0  0  0  0
  -25.2880  -31.5420   26.2420 C   0  0  0  0  0  1  0  0  0  0  0  0
  -26.9670  -30.3700   24.8130 C   0  0  0  0  0  1  0  0  0  0  0  0
  -27.5400  -32.5520   25.8380 C   0  0  0  0  0  1  0  0  0  0  0  0
  -25.5810  -33.9190   24.2080 N   0  0  0  0  0  0  0  0  0  0  0  0
  -25.9110  -34.9680   23.4430 C   0  0  0  0  0  0  0  0  0  0  0  0
  -26.5780  -34.8570   22.4100 O   0  0  0  0  0  0  0  0  0  0  0  0
  -24.9920  -34.0820   25.0110 H   0  0  0  0  0  0  0  0  0  0  0  0
  -24.1860  -36.7690   23.0850 C   0  0  0  0  0  1  0  0  0  0  0  0
  -25.4290  -36.3610   23.8930 C   0  0  0  0  0  3  0  0  0  0  0  0
  -27.5670  -37.2450   24.7110 C   0  0  0  0  0  1  0  0  0  0  0  0
  -26.4610  -37.4120   23.7730 N   0  0  0  0  0  0  0  0  0  0  0  0
  -26.0580  -38.3320   23.9230 H   0  0  0  0  0  0  0  0  0  0  0  0
  2 14  1  0
  3  8  1  0
  4  5  1  0
  4  3  1  0
  6  5  1  0
  6 18  1  0
  6  7  1  0
  8  2  1  0
  8  7  1  0
  9  2  2  0
 11 13  1  0
 11 14  1  0
 12  1  1  0
 12 10  1  0
 13 43  1  0
 13 12  1  0
 14 10  1  0
 15 16  2  0
 16 35  1  0
 17 16  1  0
 17 20  1  0
 18 15  1  0
 18 19  1  0
 19 17  2  0
 20 21  1  0
 21 22  2  0
 23 26  1  0
 23 22  1  0
 24 23  2  0
 25 24  1  0
 25 20  2  0
 26 27  1  0
 27 28  1  0
 28 29  2  0
 30 29  1  0
 30 34  1  0
 31 30  2  0
 32 27  2  0
 32 31  1  0
 33 32  1  0
 35 36  1  0
 36 39  1  0
 36 38  1  0
 37 35  2  0
 40 41  1  0
 40 15  1  0
 42 40  1  0
 43 44  1  0
 45 43  1  0
 46 43  1  0
 48 47  1  0
 48 49  1  0
 48  1  1  0
 50 51  1  0
 50 49  2  0
 52 63  2  0
 53 51  1  0
 53 58  1  0
 54 62  1  0
 54 64  1  0
 55 61  1  0
 55 57  1  0
 56 62  1  0
 57 58  2  0
 57 56  1  0
 59 53  2  0
 60 59  1  0
 60 55  2  0
 61 54  1  0
 62 52  1  0
 64 66  2  0
 65 64  1  0
 67 65  1  0
 68 77  2  0
 68 73  1  0
 69 65  1  0
 69 73  1  0
 70 69  1  0
 71 72  1  0
 71 70  1  0
 72 68  1  0
 73 74  2  0
 74 75  1  0
 76 75  2  0
 77 76  1  0
 78 52  1  0
 78 83  1  0
 78 79  1  0
 79 82  1  1
 79 80  1  0
 81 79  1  0
 83 86  1  0
 84 88  1  0
 84 83  1  0
 85 84  2  0
 88 87  1  0
 90 88  1  0
 90 91  1  0
 90 89  1  0
M  ISO  4   2 100  14 100  50 101  51 101
M  END
>  <TORSDO>  (13) 
F 20

>  <SCORE>  (13) 
-14.714

>  <name>  (13) 
12

>  <ligand_id>  (13) 
12

>  <original_smiles>  (13) 
[H]c1c([H])c([H])c2c(c1[H])C([H])([H])C([H])([H])C([H])([H])C2([H])N([H])C(=O)C1([H])N(C(=O)C([H])(N([H])C(=O)C([H])(N([H])C([H])([H])[H])C([H])([H])[H])C(C([H])([H])[H])(C([H])([H])[H])C([H])([H])[H])C([H])([H])c2c([H])c(OC([H])([H])C([H])([H])C([H])(C([H])([H])[H])C([H])([H])C3([H])C([H])([H])N(C(=O)N4C([H])([H])C([H])([H])C([H])([H])C([H])(n5nc(-c6c([H])c([H])c(Oc7c([H])c([H])c(F)c([H])c7F)c([H])c6[H])c(C(=O)N([H])[H])c5N([H])[H])C4([H])[H])C([H])([H])C3([H])[N+]([H])([H])[H])c([H])c([H])c2C1([H])[H]

>  <smiles>  (13) 
[H]c1c([H])c([H])c2c(c1[H])C([H])([H])C([H])([H])C([H])([H])C2([H])N([H])C(=O)C1([H])N(C(=O)C([H])(N([H])C(=O)C([H])(N([H])C([H])([H])[H])C([H])([H])[H])C(C([H])([H])[H])(C([H])([H])[H])C([H])([H])[H])C([H])([H])c2c([H])c(OC([H])([H])C([H])([H])C([H])(C([H])([H])[H])C([H])([H])C3([H])C([H])([H])N(C(=O)N4C([H])([H])C([H])([H])C([H])([H])C([H])(n5nc(-c6c([H])c([H])c(Oc7c([H])c([H])c(F)c([H])c7F)c([H])c6[H])c(C(=O)N([H])[H])c5N([H])[H])C4([H])[H])C([H])([H])C3([H])[N+]([H])([H])[H])c([H])c([H])c2C1([H])[H]

$$$$
13:0:0
     RDKit          3D

 91 99  0  0  1  0  0  0  0  0999 V2000
  -29.5010  -19.7940   22.0840 C   0  0  0  0  0  3  0  0  0  0  0  0
  -29.7980  -19.8930   19.6640 C   0  0  0  0  0  3  0  0  0  0  0  0
  -29.2730  -21.1830   22.1100 C   0  0  0  0  0  3  0  0  0  0  0  0
  -29.5700  -21.2840   19.6920 C   0  0  0  0  0  3  0  0  0  0  0  0
  -29.6980  -19.1350   20.8530 C   0  0  0  0  0  0  0  0  0  0  0  0
  -29.2370  -21.9180   20.9080 C   0  0  0  0  0  0  0  0  0  0  0  0
  -29.6480  -17.6190   20.7870 C   0  0  0  0  0  2  0  0  0  0  0  0
  -30.9820  -16.9040   21.0220 C   0  0  0  0  0  2  0  0  0  0  0  0
  -31.2020  -14.5960   20.1050 C   0  0  0  0  0  0  0  0  0  0  0  0
  -30.7980  -12.4550   18.9530 C   0  0  0  0  0  2  0  0  0  0  0  0
  -29.8140  -12.6480   17.7810 C   0  0  0  0  0  2  0  0  0  0  0  0
  -28.3570  -12.5390   18.2610 C   0  0  0  0  0  2  0  0  0  0  0  0
  -28.0760  -13.4180   19.5060 C   0  0  0  0  0  3  0  0  0  0  0  0
  -29.1570  -13.1960   20.5900 C   0  0  0  0  0  2  0  0  0  0  0  0
  -30.4840  -13.4480   19.9910 N   0  0  0  0  0  0  0  0  0  0  0  0
  -32.1910  -14.8530   19.4130 O   0  0  0  0  0  0  0  0  0  0  0  0
  -30.7370  -15.4620   21.0110 N   0  0  0  0  0  0  0  0  0  0  0  0
  -29.9890  -15.1270   21.5970 H   0  0  0  0  0  0  0  0  0  0  0  0
  -25.7210  -14.0950   20.3080 C   0  0  0  0  0  0  0  0  0  0  0  0
  -24.6410  -13.3520   20.7070 C   0  0  0  0  0  0  0  0  0  0  0  0
  -25.0570  -11.9870   20.6360 C   0  0  0  0  0  0  0  0  0  0  0  0
  -26.7290  -13.1850   20.0280 N   0  0  0  0  0  0  0  0  0  0  0  0
  -26.3310  -11.9110   20.2760 N   0  0  0  0  0  0  0  0  0  0  0  0
  -24.2970  -10.7450   20.8330 C   0  0  0  0  0  0  0  0  0  0  0  0
  -24.6710   -9.7990   21.8120 C   0  0  0  0  0  3  0  0  0  0  0  0
  -23.9150   -8.6200   21.9950 C   0  0  0  0  0  3  0  0  0  0  0  0
  -22.7720   -8.3800   21.1960 C   0  0  0  0  0  0  0  0  0  0  0  0
  -22.4180   -9.3150   20.2070 C   0  0  0  0  0  3  0  0  0  0  0  0
  -23.1740  -10.4850   20.0220 C   0  0  0  0  0  3  0  0  0  0  0  0
  -21.9940   -7.2510   21.2820 O   0  0  0  0  0  0  0  0  0  0  0  0
  -21.7920   -6.6080   22.4770 C   0  0  0  0  0  0  0  0  0  0  0  0
  -21.1870   -7.2530   23.5790 C   0  0  0  0  0  3  0  0  0  0  0  0
  -20.9350   -6.5350   24.7640 C   0  0  0  0  0  3  0  0  0  0  0  0
  -21.2740   -5.1710   24.8490 C   0  0  0  0  0  0  0  0  0  0  0  0
  -21.8740   -4.5250   23.7530 C   0  0  0  0  0  3  0  0  0  0  0  0
  -22.1290   -5.2420   22.5700 C   0  0  0  0  0  0  0  0  0  0  0  0
  -22.6840   -4.6090   21.5090 F   0  0  0  0  0  0  0  0  0  0  0  0
  -21.0280   -4.4790   25.9850 F   0  0  0  0  0  0  0  0  0  0  0  0
  -23.2730  -13.8710   21.0460 C   0  0  0  0  0  0  0  0  0  0  0  0
  -22.5630  -13.1890   21.9370 N   0  0  0  0  0  0  0  0  0  0  0  0
  -22.8430  -14.9130   20.5540 O   0  0  0  0  0  0  0  0  0  0  0  0
  -22.9230  -12.3440   22.3570 H   0  0  0  0  0  0  0  0  0  0  0  0
  -21.6440  -13.5170   22.2050 H   0  0  0  0  0  0  0  0  0  0  0  0
  -25.9250  -15.4620   20.1450 N   0  0  0  0  0  0  0  0  0  0  0  0
  -25.1830  -16.1390   20.2810 H   0  0  0  0  0  0  0  0  0  0  0  0
  -26.7740  -15.8760   19.7810 H   0  0  0  0  0  0  0  0  0  0  0  0
  -28.5810  -23.2870   20.8990 C   0  0  0  0  0  2  0  0  0  0  0  0
  -30.0160  -25.1630   21.8380 C   0  0  0  0  0  1  0  0  0  0  0  0
  -29.4190  -24.5510   20.5630 C   0  0  0  0  0  3  0  0  0  0  0  0
  -28.4420  -25.5180   19.8570 C   0  0  0  0  0  2  0  0  0  0  0  0
  -28.6530  -26.9380   19.9620 O   0  0  0  0  0  0  0  0  0  0  0  0
  -24.5800  -31.8090   23.1860 C   0  0  0  0  0  0  0  0  0  0  0  0
  -27.4740  -27.6660   19.9150 C   0  0  0  0  0  0  0  0  0  0  0  0
  -23.4620  -30.4270   21.4690 C   0  0  0  0  0  3  0  0  0  0  0  0
  -25.0060  -29.0540   19.9790 C   0  0  0  0  0  0  0  0  0  0  0  0
  -25.9700  -30.9240   21.3180 C   0  0  0  0  0  2  0  0  0  0  0  0
  -26.1330  -29.5970   20.6090 C   0  0  0  0  0  0  0  0  0  0  0  0
  -27.3710  -28.9100   20.5780 C   0  0  0  0  0  3  0  0  0  0  0  0
  -26.3270  -27.1650   19.2460 C   0  0  0  0  0  3  0  0  0  0  0  0
  -25.0970  -27.8340   19.2950 C   0  0  0  0  0  3  0  0  0  0  0  0
  -23.7170  -29.8370   20.0590 C   0  0  0  0  0  2  0  0  0  0  0  0
  -24.6880  -31.0660   22.0490 N   0  0  0  0  0  0  0  0  0  0  0  0
  -23.4810  -31.9990   23.7260 O   0  0  0  0  0  0  0  0  0  0  0  0
  -22.8610  -29.3220   22.3690 C   0  0  0  0  0  0  0  0  0  0  0  0
  -21.5500  -29.0730   22.2160 N   0  0  0  0  0  0  0  0  0  0  0  0
  -23.5700  -28.6970   23.1610 O   0  0  0  0  0  0  0  0  0  0  0  0
  -21.0380  -29.6350   21.5510 H   0  0  0  0  0  0  0  0  0  0  0  0
  -18.2350  -27.6970   22.6340 C   0  0  0  0  0  0  0  0  0  0  0  0
  -20.7770  -28.0590   22.9320 C   0  0  0  0  0  3  0  0  0  0  0  0
  -20.9480  -26.6660   22.2820 C   0  0  0  0  0  2  0  0  0  0  0  0
  -19.8660  -26.3470   21.2470 C   0  0  0  0  0  2  0  0  0  0  0  0
  -18.4770  -26.3940   21.8910 C   0  0  0  0  0  2  0  0  0  0  0  0
  -19.3160  -28.4860   23.1090 C   0  0  0  0  0  0  0  0  0  0  0  0
  -19.0380  -29.7050   23.7640 C   0  0  0  0  0  3  0  0  0  0  0  0
  -17.7110  -30.1380   23.9470 C   0  0  0  0  0  3  0  0  0  0  0  0
  -16.6440  -29.3460   23.4890 C   0  0  0  0  0  3  0  0  0  0  0  0
  -16.9070  -28.1260   22.8390 C   0  0  0  0  0  3  0  0  0  0  0  0
  -25.8250  -32.4770   23.8460 C   0  0  0  0  0  3  0  0  0  0  0  0
  -25.4620  -33.8610   24.1760 N   0  0  0  0  0  0  0  0  0  0  0  0
  -25.7660  -34.9270   23.4240 C   0  0  0  0  0  0  0  0  0  0  0  0
  -26.4570  -34.8510   22.4020 O   0  0  0  0  0  0  0  0  0  0  0  0
  -24.8510  -33.9900   24.9690 H   0  0  0  0  0  0  0  0  0  0  0  0
  -23.9770  -36.6500   23.0440 C   0  0  0  0  0  1  0  0  0  0  0  0
  -25.2200  -36.2930   23.8750 C   0  0  0  0  0  3  0  0  0  0  0  0
  -27.2990  -37.2620   24.7490 C   0  0  0  0  0  1  0  0  0  0  0  0
  -26.2130  -37.3850   23.7800 N   0  0  0  0  0  0  0  0  0  0  0  0
  -25.7690  -38.2890   23.9160 H   0  0  0  0  0  0  0  0  0  0  0  0
  -26.3350  -31.7110   25.1280 C   0  0  1  0  0  0  0  0  0  0  0  0
  -25.2200  -31.4090   26.1560 C   0  0  0  0  0  1  0  0  0  0  0  0
  -26.9920  -30.3670   24.7350 C   0  0  0  0  0  1  0  0  0  0  0  0
  -27.4260  -32.5460   25.8380 C   0  0  0  0  0  1  0  0  0  0  0  0
  1  3  1  0
  2  4  2  0
  2  5  1  0
  4  6  1  0
  5  1  2  0
  6  3  2  0
  7  5  1  0
  7  8  1  0
  9 17  1  0
 10 15  1  0
 11 12  1  0
 11 10  1  0
 13 12  1  0
 13 22  1  0
 13 14  1  0
 15  9  1  0
 15 14  1  0
 16  9  2  0
 17  8  1  0
 17 18  1  0
 19 20  2  0
 20 39  1  0
 21 20  1  0
 21 24  1  0
 22 23  1  0
 22 19  1  0
 23 21  2  0
 24 25  1  0
 25 26  2  0
 27 30  1  0
 27 26  1  0
 28 27  2  0
 29 28  1  0
 29 24  2  0
 30 31  1  0
 31 36  2  0
 31 32  1  0
 32 33  2  0
 33 34  1  0
 34 38  1  0
 35 34  2  0
 36 35  1  0
 37 36  1  0
 39 40  1  0
 40 43  1  0
 40 42  1  0
 41 39  2  0
 44 45  1  0
 44 19  1  0
 46 44  1  0
 47  6  1  0
 49 47  1  0
 49 48  1  0
 50 51  1  0
 50 49  1  0
 52 63  2  0
 53 51  1  0
 53 58  1  0
 54 62  1  0
 54 64  1  0
 55 61  1  0
 55 57  1  0
 56 62  1  0
 57 56  1  0
 58 57  2  0
 59 60  1  0
 59 53  2  0
 60 55  2  0
 61 54  1  0
 62 52  1  0
 64 66  2  0
 65 64  1  0
 67 65  1  0
 68 77  2  0
 68 73  1  0
 69 65  1  0
 69 73  1  0
 70 69  1  0
 71 72  1  0
 71 70  1  0
 72 68  1  0
 73 74  2  0
 74 75  1  0
 76 75  2  0
 77 76  1  0
 78 52  1  0
 78 79  1  0
 78 88  1  0
 79 82  1  0
 80 84  1  0
 80 79  1  0
 81 80  2  0
 84 83  1  0
 86 84  1  0
 86 87  1  0
 86 85  1  0
 88 91  1  1
 88 89  1  0
 90 88  1  0
M  ISO  4   9 100  17 100  50 101  51 101
M  END
>  <TORSDO>  (14) 
F 21

>  <SCORE>  (14) 
-11.970

>  <name>  (14) 
13

>  <ligand_id>  (14) 
13

>  <original_smiles>  (14) 
[H]c1c([H])c([H])c2c(c1[H])C([H])([H])C([H])([H])C([H])([H])C2([H])N([H])C(=O)C1([H])N(C(=O)C([H])(N([H])C(=O)C([H])(N([H])C([H])([H])[H])C([H])([H])[H])C(C([H])([H])[H])(C([H])([H])[H])C([H])([H])[H])C([H])([H])c2c([H])c(OC([H])([H])C([H])(C([H])([H])[H])C([H])([H])c3c([H])c([H])c(C([H])([H])C([H])([H])N([H])C(=O)N4C([H])([H])C([H])([H])C([H])([H])C([H])(n5nc(-c6c([H])c([H])c(Oc7c([H])c([H])c(F)c([H])c7F)c([H])c6[H])c(C(=O)N([H])[H])c5N([H])[H])C4([H])[H])c([H])c3[H])c([H])c([H])c2C1([H])[H]

>  <smiles>  (14) 
[H]c1c([H])c([H])c2c(c1[H])C([H])([H])C([H])([H])C([H])([H])C2([H])N([H])C(=O)C1([H])N(C(=O)C([H])(N([H])C(=O)C([H])(N([H])C([H])([H])[H])C([H])([H])[H])C(C([H])([H])[H])(C([H])([H])[H])C([H])([H])[H])C([H])([H])c2c([H])c(OC([H])([H])C([H])(C([H])([H])[H])C([H])([H])c3c([H])c([H])c(C([H])([H])C([H])([H])N([H])C(=O)N4C([H])([H])C([H])([H])C([H])([H])C([H])(n5nc(-c6c([H])c([H])c(Oc7c([H])c([H])c(F)c([H])c7F)c([H])c6[H])c(C(=O)N([H])[H])c5N([H])[H])C4([H])[H])c([H])c3[H])c([H])c([H])c2C1([H])[H]

$$$$
14:0:0
     RDKit          3D

 90 98  0  0  1  0  0  0  0  0999 V2000
  -30.3430  -21.8650   18.3200 C   0  0  0  0  0  2  0  0  0  0  0  0
  -29.1650  -21.7600   18.9420 C   0  0  0  0  0  3  0  0  0  0  0  0
  -30.0230  -23.2480   17.7850 C   0  0  0  0  0  2  0  0  0  0  0  0
  -28.6510  -23.1530   18.5200 C   0  0  0  0  0  3  0  0  0  0  0  0
  -28.4890  -20.5160   19.5430 C   0  0  0  0  0  2  0  0  0  0  0  0
  -29.5330  -19.3840   19.8260 C   0  0  0  0  0  2  0  0  0  0  0  0
  -29.0480  -18.0050   20.3730 C   0  0  0  0  0  2  0  0  0  0  0  0
  -30.9510  -17.4000   21.9880 C   0  0  0  0  0  1  0  0  0  0  0  0
  -30.2250  -17.0170   20.6850 C   0  0  0  0  0  3  0  0  0  0  0  0
  -30.5950  -14.5320   20.4550 C   0  0  0  0  0  0  0  0  0  0  0  0
  -30.3490  -12.3430   19.3610 C   0  0  0  0  0  2  0  0  0  0  0  0
  -29.4130  -12.5230   18.1460 C   0  0  0  0  0  2  0  0  0  0  0  0
  -27.9400  -12.3740   18.5720 C   0  0  0  0  0  2  0  0  0  0  0  0
  -27.5810  -13.2280   19.8190 C   0  0  0  0  0  3  0  0  0  0  0  0
  -28.6300  -13.0350   20.9380 C   0  0  0  0  0  2  0  0  0  0  0  0
  -29.9510  -13.3390   20.3660 N   0  0  0  0  0  0  0  0  0  0  0  0
  -31.7620  -14.6870   20.0820 O   0  0  0  0  0  0  0  0  0  0  0  0
  -29.8160  -15.5960   20.7640 N   0  0  0  0  0  0  0  0  0  0  0  0
  -28.8510  -15.3990   20.9790 H   0  0  0  0  0  0  0  0  0  0  0  0
  -25.1790  -13.8290   20.5110 C   0  0  0  0  0  0  0  0  0  0  0  0
  -24.1110  -13.0510   20.8780 C   0  0  0  0  0  0  0  0  0  0  0  0
  -24.5820  -11.7030   20.8600 C   0  0  0  0  0  0  0  0  0  0  0  0
  -26.2280  -12.9510   20.2910 N   0  0  0  0  0  0  0  0  0  0  0  0
  -25.8750  -11.6690   20.5640 N   0  0  0  0  0  0  0  0  0  0  0  0
  -23.8640  -10.4370   21.0500 C   0  0  0  0  0  0  0  0  0  0  0  0
  -24.2970   -9.4790   21.9930 C   0  0  0  0  0  3  0  0  0  0  0  0
  -23.5800   -8.2760   22.1730 C   0  0  0  0  0  3  0  0  0  0  0  0
  -22.4180   -8.0210   21.4080 C   0  0  0  0  0  0  0  0  0  0  0  0
  -22.0040   -8.9690   20.4550 C   0  0  0  0  0  3  0  0  0  0  0  0
  -22.7200  -10.1640   20.2750 C   0  0  0  0  0  3  0  0  0  0  0  0
  -21.6730   -6.8680   21.4960 O   0  0  0  0  0  0  0  0  0  0  0  0
  -21.6280   -6.1270   22.6490 C   0  0  0  0  0  0  0  0  0  0  0  0
  -21.1890   -6.6780   23.8720 C   0  0  0  0  0  3  0  0  0  0  0  0
  -21.0930   -5.8630   25.0170 C   0  0  0  0  0  3  0  0  0  0  0  0
  -21.4240   -4.4960   24.9400 C   0  0  0  0  0  0  0  0  0  0  0  0
  -21.8570   -3.9440   23.7210 C   0  0  0  0  0  3  0  0  0  0  0  0
  -21.9550   -4.7580   22.5780 C   0  0  0  0  0  0  0  0  0  0  0  0
  -22.3520   -4.2170   21.4010 F   0  0  0  0  0  0  0  0  0  0  0  0
  -21.3240   -3.7110   26.0380 F   0  0  0  0  0  0  0  0  0  0  0  0
  -22.7100  -13.5210   21.1340 C   0  0  0  0  0  0  0  0  0  0  0  0
  -21.9760  -12.8210   21.9950 N   0  0  0  0  0  0  0  0  0  0  0  0
  -22.2690  -14.5420   20.6070 O   0  0  0  0  0  0  0  0  0  0  0  0
  -22.3420  -11.9970   22.4460 H   0  0  0  0  0  0  0  0  0  0  0  0
  -21.0320  -13.1170   22.2050 H   0  0  0  0  0  0  0  0  0  0  0  0
  -25.3370  -15.1970   20.3240 N   0  0  0  0  0  0  0  0  0  0  0  0
  -24.5660  -15.8510   20.4160 H   0  0  0  0  0  0  0  0  0  0  0  0
  -26.1820  -15.6350   19.9780 H   0  0  0  0  0  0  0  0  0  0  0  0
  -28.3610  -24.2110   19.6210 C   0  0  0  0  0  2  0  0  0  0  0  0
  -28.5890  -25.6790   19.1320 C   0  0  0  0  0  2  0  0  0  0  0  0
  -28.3880  -26.7150   20.1140 O   0  0  0  0  0  0  0  0  0  0  0  0
  -24.5750  -31.8800   23.2290 C   0  0  0  0  0  0  0  0  0  0  0  0
  -27.2080  -27.4360   20.1150 C   0  0  0  0  0  0  0  0  0  0  0  0
  -23.3660  -30.4870   21.5820 C   0  0  0  0  0  3  0  0  0  0  0  0
  -24.8140  -28.9500   20.1560 C   0  0  0  0  0  0  0  0  0  0  0  0
  -25.8940  -30.8380   21.3900 C   0  0  0  0  0  2  0  0  0  0  0  0
  -25.9750  -29.4680   20.7430 C   0  0  0  0  0  0  0  0  0  0  0  0
  -27.1730  -28.7170   20.7230 C   0  0  0  0  0  3  0  0  0  0  0  0
  -26.0190  -26.9260   19.5480 C   0  0  0  0  0  3  0  0  0  0  0  0
  -24.8290  -27.6780   19.5600 C   0  0  0  0  0  3  0  0  0  0  0  0
  -23.5760  -29.8170   20.1980 C   0  0  0  0  0  2  0  0  0  0  0  0
  -24.6290  -31.0830   22.1240 N   0  0  0  0  0  0  0  0  0  0  0  0
  -23.4950  -32.1510   23.7700 O   0  0  0  0  0  0  0  0  0  0  0  0
  -22.7170  -29.4590   22.5380 C   0  0  0  0  0  0  0  0  0  0  0  0
  -21.3910  -29.2810   22.4160 N   0  0  0  0  0  0  0  0  0  0  0  0
  -23.4000  -28.8250   23.3470 O   0  0  0  0  0  0  0  0  0  0  0  0
  -20.8990  -29.8570   21.7460 H   0  0  0  0  0  0  0  0  0  0  0  0
  -18.0160  -28.0830   22.9130 C   0  0  0  0  0  0  0  0  0  0  0  0
  -20.5730  -28.3400   23.1830 C   0  0  0  0  0  3  0  0  0  0  0  0
  -20.6720  -26.9110   22.6020 C   0  0  0  0  0  2  0  0  0  0  0  0
  -19.5680  -26.5890   21.5870 C   0  0  0  0  0  2  0  0  0  0  0  0
  -18.1890  -26.7330   22.2350 C   0  0  0  0  0  2  0  0  0  0  0  0
  -19.1360  -28.8430   23.3430 C   0  0  0  0  0  0  0  0  0  0  0  0
  -18.9200  -30.1040   23.9380 C   0  0  0  0  0  3  0  0  0  0  0  0
  -17.6170  -30.6080   24.1090 C   0  0  0  0  0  3  0  0  0  0  0  0
  -16.5110  -29.8480   23.6900 C   0  0  0  0  0  3  0  0  0  0  0  0
  -16.7110  -28.5870   23.0990 C   0  0  0  0  0  3  0  0  0  0  0  0
  -25.8640  -32.5060   23.8490 C   0  0  0  0  0  3  0  0  0  0  0  0
  -25.5590  -33.9060   24.1800 N   0  0  0  0  0  0  0  0  0  0  0  0
  -25.8980  -34.9570   23.4230 C   0  0  0  0  0  0  0  0  0  0  0  0
  -26.5730  -34.8530   22.3950 O   0  0  0  0  0  0  0  0  0  0  0  0
  -24.9600  -34.0650   24.9770 H   0  0  0  0  0  0  0  0  0  0  0  0
  -24.1810  -36.7600   23.0550 C   0  0  0  0  0  1  0  0  0  0  0  0
  -25.4110  -36.3450   23.8790 C   0  0  0  0  0  3  0  0  0  0  0  0
  -27.5400  -37.2170   24.7360 C   0  0  0  0  0  1  0  0  0  0  0  0
  -26.4490  -37.3940   23.7820 N   0  0  0  0  0  0  0  0  0  0  0  0
  -26.0410  -38.3140   23.9280 H   0  0  0  0  0  0  0  0  0  0  0  0
  -26.3800  -31.7330   25.1240 C   0  0  1  0  0  0  0  0  0  0  0  0
  -25.2880  -31.5070   26.1950 C   0  0  0  0  0  1  0  0  0  0  0  0
  -26.9570  -30.3520   24.7320 C   0  0  0  0  0  1  0  0  0  0  0  0
  -27.5310  -32.5270   25.7840 C   0  0  0  0  0  1  0  0  0  0  0  0
  1  2  1  0
  2  5  1  0
  3  1  1  0
  3  4  1  0
  4  2  1  0
  4 48  1  0
  5  6  1  0
  6  7  1  0
  7  9  1  0
  9 18  1  0
  9  8  1  0
 10 18  1  0
 11 16  1  0
 12 13  1  0
 12 11  1  0
 14 13  1  0
 14 23  1  0
 14 15  1  0
 16 10  1  0
 16 15  1  0
 17 10  2  0
 18 19  1  0
 20 21  2  0
 21 40  1  0
 22 21  1  0
 22 25  1  0
 23 20  1  0
 23 24  1  0
 24 22  2  0
 25 26  1  0
 26 27  2  0
 28 31  1  0
 28 27  1  0
 29 28  2  0
 30 29  1  0
 30 25  2  0
 31 32  1  0
 32 33  1  0
 33 34  2  0
 35 34  1  0
 35 39  1  0
 36 35  2  0
 37 32  2  0
 37 36  1  0
 38 37  1  0
 40 41  1  0
 41 44  1  0
 41 43  1  0
 42 40  2  0
 45 46  1  0
 45 20  1  0
 47 45  1  0
 49 48  1  0
 49 50  1  0
 50 52  1  0
 51 62  2  0
 52 57  1  0
 53 61  1  0
 53 63  1  0
 54 60  1  0
 54 56  1  0
 55 61  1  0
 56 55  1  0
 57 56  2  0
 58 59  1  0
 58 52  2  0
 59 54  2  0
 60 53  1  0
 61 51  1  0
 63 65  2  0
 64 63  1  0
 66 64  1  0
 67 76  2  0
 67 72  1  0
 68 64  1  0
 68 72  1  0
 69 68  1  0
 70 71  1  0
 70 69  1  0
 71 67  1  0
 72 73  2  0
 73 74  1  0
 75 74  2  0
 76 75  1  0
 77 51  1  0
 77 78  1  0
 77 87  1  0
 78 81  1  0
 79 83  1  0
 79 78  1  0
 80 79  2  0
 83 82  1  0
 85 83  1  0
 85 86  1  0
 85 84  1  0
 87 90  1  1
 87 88  1  0
 89 87  1  0
M  ISO  4  10 100  18 100  49 101  50 101
M  END
>  <TORSDO>  (15) 
F 22

>  <SCORE>  (15) 
-13.081

>  <name>  (15) 
14

>  <ligand_id>  (15) 
14

>  <original_smiles>  (15) 
[H]C1=C(C([H])([H])C([H])([H])C([H])([H])C([H])(N([H])C(=O)N2C([H])([H])C([H])([H])C([H])([H])C([H])(n3nc(-c4c([H])c([H])c(Oc5c([H])c([H])c(F)c([H])c5F)c([H])c4[H])c(C(=O)N([H])[H])c3N([H])[H])C2([H])[H])C([H])([H])[H])C([H])(C([H])([H])C([H])([H])Oc2c([H])c([H])c3c(c2[H])C([H])([H])N(C(=O)C([H])(N([H])C(=O)C([H])(N([H])C([H])([H])[H])C([H])([H])[H])C(C([H])([H])[H])(C([H])([H])[H])C([H])([H])[H])C([H])(C(=O)N([H])C2([H])c4c([H])c([H])c([H])c([H])c4C([H])([H])C([H])([H])C2([H])[H])C3([H])[H])C1([H])[H]

>  <smiles>  (15) 
[H]C1=C(C([H])([H])C([H])([H])C([H])([H])C([H])(N([H])C(=O)N2C([H])([H])C([H])([H])C([H])([H])C([H])(n3nc(-c4c([H])c([H])c(Oc5c([H])c([H])c(F)c([H])c5F)c([H])c4[H])c(C(=O)N([H])[H])c3N([H])[H])C2([H])[H])C([H])([H])[H])C([H])(C([H])([H])C([H])([H])Oc2c([H])c([H])c3c(c2[H])C([H])([H])N(C(=O)C([H])(N([H])C(=O)C([H])(N([H])C([H])([H])[H])C([H])([H])[H])C(C([H])([H])[H])(C([H])([H])[H])C([H])([H])[H])C([H])(C(=O)N([H])C2([H])c4c([H])c([H])c([H])c([H])c4C([H])([H])C([H])([H])C2([H])[H])C3([H])[H])C1([H])[H]

$$$$
15:0:0
     RDKit          3D

 91 99  0  0  1  0  0  0  0  0999 V2000
  -28.7790  -21.2550   20.2840 N   0  0  0  0  0  4  0  0  0  0  0  0
  -28.2260  -21.1120   19.4560 H   0  0  0  0  0  0  0  0  0  0  0  0
  -28.1320  -21.1410   21.0460 H   0  0  0  0  0  0  0  0  0  0  0  0
  -29.1380  -22.8780   20.2830 C   0  0  0  0  0  3  0  0  0  0  0  0
  -28.0470  -24.2970   20.3300 C   0  0  0  0  0  3  0  0  0  0  0  0
  -28.2710  -25.9270   20.3170 O   0  0  0  0  0  0  0  0  0  0  0  0
  -24.6030  -31.8610   23.1820 C   0  0  0  0  0  0  0  0  0  0  0  0
  -27.2290  -26.9870   20.2520 C   0  0  0  0  0  0  0  0  0  0  0  0
  -23.4310  -30.4270   21.5550 C   0  0  0  0  0  3  0  0  0  0  0  0
  -24.9050  -28.8180   20.1600 C   0  0  0  0  0  0  0  0  0  0  0  0
  -25.9900  -30.6740   21.4060 C   0  0  0  0  0  2  0  0  0  0  0  0
  -26.0810  -29.2500   20.7830 C   0  0  0  0  0  0  0  0  0  0  0  0
  -27.2380  -28.3530   20.8120 C   0  0  0  0  0  3  0  0  0  0  0  0
  -26.0250  -26.7050   19.5680 C   0  0  0  0  0  3  0  0  0  0  0  0
  -24.9030  -27.5690   19.5230 C   0  0  0  0  0  3  0  0  0  0  0  0
  -23.6710  -29.7180   20.1910 C   0  0  0  0  0  2  0  0  0  0  0  0
  -24.6950  -31.0150   22.1030 N   0  0  0  0  0  0  0  0  0  0  0  0
  -23.5070  -32.1470   23.6920 O   0  0  0  0  0  0  0  0  0  0  0  0
  -22.7390  -29.4430   22.5280 C   0  0  0  0  0  0  0  0  0  0  0  0
  -21.4070  -29.2860   22.4140 N   0  0  0  0  0  0  0  0  0  0  0  0
  -23.4040  -28.8190   23.3570 O   0  0  0  0  0  0  0  0  0  0  0  0
  -20.9170  -29.8420   21.7270 H   0  0  0  0  0  0  0  0  0  0  0  0
  -18.0180  -28.1030   22.9510 C   0  0  0  0  0  0  0  0  0  0  0  0
  -20.5830  -28.3500   23.1880 C   0  0  0  0  0  3  0  0  0  0  0  0
  -20.6670  -26.9170   22.6100 C   0  0  0  0  0  2  0  0  0  0  0  0
  -19.5520  -26.6060   21.6080 C   0  0  0  0  0  2  0  0  0  0  0  0
  -18.1770  -26.7550   22.2670 C   0  0  0  0  0  2  0  0  0  0  0  0
  -19.1450  -28.8580   23.3690 C   0  0  0  0  0  0  0  0  0  0  0  0
  -18.9360  -30.1190   23.9680 C   0  0  0  0  0  3  0  0  0  0  0  0
  -17.6330  -30.6210   24.1560 C   0  0  0  0  0  3  0  0  0  0  0  0
  -16.5210  -29.8620   23.7530 C   0  0  0  0  0  3  0  0  0  0  0  0
  -16.7160  -28.6040   23.1550 C   0  0  0  0  0  3  0  0  0  0  0  0
  -25.8660  -32.5190   23.8180 C   0  0  0  0  0  3  0  0  0  0  0  0
  -25.5310  -33.9170   24.1380 N   0  0  0  0  0  0  0  0  0  0  0  0
  -25.8720  -34.9770   23.3970 C   0  0  0  0  0  0  0  0  0  0  0  0
  -26.5640  -34.8850   22.3790 O   0  0  0  0  0  0  0  0  0  0  0  0
  -24.9250  -34.0660   24.9320 H   0  0  0  0  0  0  0  0  0  0  0  0
  -24.1630  -36.7920   23.0120 C   0  0  0  0  0  1  0  0  0  0  0  0
  -25.3720  -36.3650   23.8560 C   0  0  0  0  0  3  0  0  0  0  0  0
  -27.4800  -37.2490   24.7650 C   0  0  0  0  0  1  0  0  0  0  0  0
  -26.4110  -37.4190   23.7860 N   0  0  0  0  0  0  0  0  0  0  0  0
  -25.9990  -38.3380   23.9270 H   0  0  0  0  0  0  0  0  0  0  0  0
  -26.3760  -31.7630   25.1060 C   0  0  1  0  0  0  0  0  0  0  0  0
  -25.2780  -31.5210   26.1690 C   0  0  0  0  0  1  0  0  0  0  0  0
  -26.9740  -30.3880   24.7320 C   0  0  0  0  0  1  0  0  0  0  0  0
  -27.5100  -32.5710   25.7770 C   0  0  0  0  0  1  0  0  0  0  0  0
  -29.7590  -19.9150   20.3970 C   0  0  0  0  0  3  0  0  0  0  0  0
  -32.3450  -19.4880   20.2920 C   0  0  0  0  0  0  0  0  0  0  0  0
  -33.2300  -20.5960   19.6960 C   0  0  0  0  0  2  0  0  0  0  0  0
  -31.9310  -21.4270   19.6240 C   0  0  0  0  0  2  0  0  0  0  0  0
  -31.0890  -20.1220   19.6240 C   0  0  0  0  0  3  0  0  0  0  0  0
  -32.5480  -18.5830   21.1060 O   0  0  0  0  0  0  0  0  0  0  0  0
  -27.7400  -18.2560   20.2090 C   0  0  0  0  0  1  0  0  0  0  0  0
  -29.2800  -18.2400   20.0370 C   0  0  0  0  0  3  0  0  0  0  0  0
  -29.7970  -16.6510   20.6630 C   0  0  0  0  0  2  0  0  0  0  0  0
  -30.4460  -15.1720   20.0490 C   0  0  0  0  0  0  0  0  0  0  0  0
  -30.3840  -12.7470   19.1680 C   0  0  0  0  0  2  0  0  0  0  0  0
  -29.4120  -12.6200   17.9690 C   0  0  0  0  0  2  0  0  0  0  0  0
  -27.9760  -12.3680   18.4540 C   0  0  0  0  0  2  0  0  0  0  0  0
  -27.5830  -13.3240   19.6060 C   0  0  0  0  0  3  0  0  0  0  0  0
  -28.6730  -13.3870   20.7010 C   0  0  0  0  0  2  0  0  0  0  0  0
  -29.9070  -13.8620   20.0570 N   0  0  0  0  0  0  0  0  0  0  0  0
  -31.5950  -15.2100   19.5750 O   0  0  0  0  0  0  0  0  0  0  0  0
  -25.2420  -13.8950   20.4680 C   0  0  0  0  0  0  0  0  0  0  0  0
  -24.1930  -13.1170   20.8690 C   0  0  0  0  0  0  0  0  0  0  0  0
  -24.6400  -11.7660   20.7790 C   0  0  0  0  0  0  0  0  0  0  0  0
  -26.2670  -13.0170   20.1540 N   0  0  0  0  0  0  0  0  0  0  0  0
  -25.9130  -11.7280   20.4010 N   0  0  0  0  0  0  0  0  0  0  0  0
  -23.9010  -10.5080   20.9690 C   0  0  0  0  0  0  0  0  0  0  0  0
  -24.3400   -9.5250   21.8800 C   0  0  0  0  0  3  0  0  0  0  0  0
  -23.5960   -8.3410   22.0640 C   0  0  0  0  0  3  0  0  0  0  0  0
  -22.4010   -8.1310   21.3360 C   0  0  0  0  0  0  0  0  0  0  0  0
  -21.9860   -9.1010   20.4060 C   0  0  0  0  0  3  0  0  0  0  0  0
  -22.7310  -10.2770   20.2210 C   0  0  0  0  0  3  0  0  0  0  0  0
  -21.6240   -7.0010   21.4330 O   0  0  0  0  0  0  0  0  0  0  0  0
  -21.5660   -6.2620   22.5870 C   0  0  0  0  0  0  0  0  0  0  0  0
  -21.1320   -6.8200   23.8070 C   0  0  0  0  0  3  0  0  0  0  0  0
  -21.0230   -6.0050   24.9520 C   0  0  0  0  0  3  0  0  0  0  0  0
  -21.3400   -4.6360   24.8770 C   0  0  0  0  0  0  0  0  0  0  0  0
  -21.7710   -4.0780   23.6600 C   0  0  0  0  0  3  0  0  0  0  0  0
  -21.8810   -4.8880   22.5180 C   0  0  0  0  0  0  0  0  0  0  0  0
  -22.2780   -4.3420   21.3420 F   0  0  0  0  0  0  0  0  0  0  0  0
  -21.2270   -3.8530   25.9740 F   0  0  0  0  0  0  0  0  0  0  0  0
  -22.8220  -13.6050   21.2280 C   0  0  0  0  0  0  0  0  0  0  0  0
  -22.1330  -12.8860   22.1090 N   0  0  0  0  0  0  0  0  0  0  0  0
  -22.3770  -14.6530   20.7620 O   0  0  0  0  0  0  0  0  0  0  0  0
  -22.5200  -12.0450   22.5110 H   0  0  0  0  0  0  0  0  0  0  0  0
  -21.2100  -13.1810   22.3950 H   0  0  0  0  0  0  0  0  0  0  0  0
  -25.3820  -15.2690   20.3310 N   0  0  0  0  0  0  0  0  0  0  0  0
  -24.5620  -15.8550   20.4420 H   0  0  0  0  0  0  0  0  0  0  0  0
  -26.1980  -15.7730   20.0170 H   0  0  0  0  0  0  0  0  0  0  0  0
  1  3  1  0
  2  1  1  0
  4  1  1  0
  4  5  2  0
  6  5  1  0
  7 18  2  0
  8  6  1  0
  8 13  1  0
  9 17  1  0
  9 19  1  0
 10 16  1  0
 10 12  1  0
 11 17  1  0
 12 13  2  0
 12 11  1  0
 14  8  2  0
 15 14  1  0
 15 10  2  0
 16  9  1  0
 17  7  1  0
 19 21  2  0
 20 19  1  0
 22 20  1  0
 23 32  2  0
 23 28  1  0
 24 20  1  0
 24 28  1  0
 25 24  1  0
 26 27  1  0
 26 25  1  0
 27 23  1  0
 28 29  2  0
 29 30  1  0
 31 30  2  0
 32 31  1  0
 33  7  1  0
 33 34  1  0
 33 43  1  0
 34 37  1  0
 35 39  1  0
 35 34  1  0
 36 35  2  0
 39 38  1  0
 41 39  1  0
 41 42  1  0
 41 40  1  0
 43 46  1  1
 43 44  1  0
 45 43  1  0
 47  1  1  0
 48 52  2  0
 49 48  1  0
 50 49  1  0
 51 50  1  0
 51 48  1  0
 51 47  1  0
 54 53  1  0
 54 47  1  0
 54 55  1  0
 56 62  1  0
 56 55  1  0
 57 62  1  0
 58 59  1  0
 58 57  1  0
 60 59  1  0
 60 67  1  0
 60 61  1  0
 62 61  1  0
 63 56  2  0
 64 65  2  0
 65 84  1  0
 66 65  1  0
 66 69  1  0
 67 68  1  0
 67 64  1  0
 68 66  2  0
 69 70  1  0
 70 71  2  0
 72 75  1  0
 72 71  1  0
 73 72  2  0
 74 73  1  0
 74 69  2  0
 75 76  1  0
 76 77  1  0
 77 78  2  0
 79 78  1  0
 79 83  1  0
 80 79  2  0
 81 76  2  0
 81 80  1  0
 82 81  1  0
 84 85  1  0
 85 88  1  0
 85 87  1  0
 86 84  2  0
 89 90  1  0
 89 64  1  0
 91 89  1  0
M  ISO  4   5 101   6 101  55 100  56 100
M  END
>  <TORSDO>  (16) 
F 22

>  <SCORE>  (16) 
-15.230

>  <name>  (16) 
15

>  <ligand_id>  (16) 
15

>  <original_smiles>  (16) 
[H]c1c([H])c([H])c2c(c1[H])C([H])([H])C([H])([H])C([H])([H])C2([H])N([H])C(=O)C1([H])N(C(=O)C([H])(N([H])C(=O)C([H])(N([H])C([H])([H])[H])C([H])([H])[H])C(C([H])([H])[H])(C([H])([H])[H])C([H])([H])[H])C([H])([H])c2c([H])c(OC([H])([H])C([H])([H])[N+]([H])([H])C([H])(C3([H])C(=O)C([H])([H])C3([H])[H])C([H])(C([H])([H])[H])C([H])([H])C(=O)N3C([H])([H])C([H])([H])C([H])([H])C([H])(n4nc(-c5c([H])c([H])c(Oc6c([H])c([H])c(F)c([H])c6F)c([H])c5[H])c(C(=O)N([H])[H])c4N([H])[H])C3([H])[H])c([H])c([H])c2C1([H])[H]

>  <smiles>  (16) 
[H]c1c([H])c([H])c2c(c1[H])C([H])([H])C([H])([H])C([H])([H])C2([H])N([H])C(=O)C1([H])N(C(=O)C([H])(N([H])C(=O)C([H])(N([H])C([H])([H])[H])C([H])([H])[H])C(C([H])([H])[H])(C([H])([H])[H])C([H])([H])[H])C([H])([H])c2c([H])c(OC([H])([H])C([H])([H])[N+]([H])([H])C([H])(C3([H])C(=O)C([H])([H])C3([H])[H])C([H])(C([H])([H])[H])C([H])([H])C(=O)N3C([H])([H])C([H])([H])C([H])([H])C([H])(n4nc(-c5c([H])c([H])c(Oc6c([H])c([H])c(F)c([H])c6F)c([H])c5[H])c(C(=O)N([H])[H])c4N([H])[H])C3([H])[H])c([H])c([H])c2C1([H])[H]

$$$$
16:0:0
     RDKit          3D

 92100  0  0  1  0  0  0  0  0999 V2000
  -29.1770  -20.8320   22.8580 C   0  0  0  0  0  3  0  0  0  0  0  0
  -29.1820  -21.9900   22.0660 C   0  0  0  0  0  3  0  0  0  0  0  0
  -29.8670  -19.6810   22.4380 C   0  0  0  0  0  3  0  0  0  0  0  0
  -30.5370  -20.8270   20.4070 C   0  0  0  0  0  3  0  0  0  0  0  0
  -29.8850  -22.0230   20.8420 C   0  0  0  0  0  0  0  0  0  0  0  0
  -30.5240  -19.6280   21.1860 C   0  0  0  0  0  0  0  0  0  0  0  0
  -29.8800  -23.3050   19.9720 C   0  0  0  0  0  2  0  0  0  0  0  0
  -29.7100  -24.7040   20.6780 C   0  0  0  0  0  2  0  0  0  0  0  0
  -29.1800  -25.8200   19.7310 C   0  0  0  0  0  2  0  0  0  0  0  0
  -29.0290  -27.1390   20.3360 O   0  0  0  0  0  0  0  0  0  0  0  0
  -24.7230  -31.9710   23.3950 C   0  0  0  0  0  0  0  0  0  0  0  0
  -27.8110  -27.8150   20.2650 C   0  0  0  0  0  0  0  0  0  0  0  0
  -23.6930  -30.5380   21.6640 C   0  0  0  0  0  3  0  0  0  0  0  0
  -25.3130  -29.1830   20.2360 C   0  0  0  0  0  0  0  0  0  0  0  0
  -26.1950  -31.0840   21.5860 C   0  0  0  0  0  2  0  0  0  0  0  0
  -26.4080  -29.7450   20.9040 C   0  0  0  0  0  0  0  0  0  0  0  0
  -27.6540  -29.0630   20.9270 C   0  0  0  0  0  3  0  0  0  0  0  0
  -26.6960  -27.3130   19.5480 C   0  0  0  0  0  3  0  0  0  0  0  0
  -25.4570  -27.9690   19.5540 C   0  0  0  0  0  3  0  0  0  0  0  0
  -24.0050  -29.9400   20.2670 C   0  0  0  0  0  2  0  0  0  0  0  0
  -24.8840  -31.2140   22.2720 N   0  0  0  0  0  0  0  0  0  0  0  0
  -23.6050  -32.1370   23.9010 O   0  0  0  0  0  0  0  0  0  0  0  0
  -23.0950  -29.4290   22.5630 C   0  0  0  0  0  0  0  0  0  0  0  0
  -21.8120  -29.0980   22.3380 N   0  0  0  0  0  0  0  0  0  0  0  0
  -23.7830  -28.8730   23.4230 O   0  0  0  0  0  0  0  0  0  0  0  0
  -21.3080  -29.6100   21.6270 H   0  0  0  0  0  0  0  0  0  0  0  0
  -18.5840  -27.4900   22.5440 C   0  0  0  0  0  0  0  0  0  0  0  0
  -21.0550  -28.0610   23.0400 C   0  0  0  0  0  3  0  0  0  0  0  0
  -21.3860  -26.6570   22.4790 C   0  0  0  0  0  2  0  0  0  0  0  0
  -20.4240  -26.2080   21.3750 C   0  0  0  0  0  2  0  0  0  0  0  0
  -18.9840  -26.1760   21.8930 C   0  0  0  0  0  2  0  0  0  0  0  0
  -19.5570  -28.3820   23.0690 C   0  0  0  0  0  0  0  0  0  0  0  0
  -19.1310  -29.6050   23.6310 C   0  0  0  0  0  3  0  0  0  0  0  0
  -17.7650  -29.9400   23.6770 C   0  0  0  0  0  3  0  0  0  0  0  0
  -16.8040  -29.0460   23.1750 C   0  0  0  0  0  3  0  0  0  0  0  0
  -17.2150  -27.8230   22.6130 C   0  0  0  0  0  3  0  0  0  0  0  0
  -25.9320  -32.6810   24.0790 C   0  0  0  0  0  3  0  0  0  0  0  0
  -25.5320  -34.0680   24.3550 N   0  0  0  0  0  0  0  0  0  0  0  0
  -25.8560  -35.1190   23.5900 C   0  0  0  0  0  0  0  0  0  0  0  0
  -26.5980  -35.0280   22.6080 O   0  0  0  0  0  0  0  0  0  0  0  0
  -24.8880  -34.2100   25.1180 H   0  0  0  0  0  0  0  0  0  0  0  0
  -24.0700  -36.8130   23.0740 C   0  0  0  0  0  1  0  0  0  0  0  0
  -25.2670  -36.4890   23.9800 C   0  0  0  0  0  3  0  0  0  0  0  0
  -27.2940  -37.4980   24.9320 C   0  0  0  0  0  1  0  0  0  0  0  0
  -26.2500  -37.5920   23.9140 N   0  0  0  0  0  0  0  0  0  0  0  0
  -25.7880  -38.4920   24.0200 H   0  0  0  0  0  0  0  0  0  0  0  0
  -26.4050  -31.9640   25.4050 C   0  0  1  0  0  0  0  0  0  0  0  0
  -25.2550  -31.6590   26.3930 C   0  0  0  0  0  1  0  0  0  0  0  0
  -27.1190  -30.6300   25.0810 C   0  0  0  0  0  1  0  0  0  0  0  0
  -27.4390  -32.8500   26.1390 C   0  0  0  0  0  1  0  0  0  0  0  0
  -31.3350  -18.3650   20.7650 C   0  0  0  0  0  2  0  0  0  0  0  0
  -30.6410  -17.0100   20.2970 C   0  0  0  0  0  3  0  0  0  0  0  0
  -31.8190  -14.8530   19.5800 C   0  0  0  0  0  0  0  0  0  0  0  0
  -31.3620  -12.5150   18.8820 C   0  0  0  0  0  2  0  0  0  0  0  0
  -30.3950  -12.4510   17.6850 C   0  0  0  0  0  2  0  0  0  0  0  0
  -28.9350  -12.4580   18.1710 C   0  0  0  0  0  2  0  0  0  0  0  0
  -28.6540  -13.5720   19.2140 C   0  0  0  0  0  3  0  0  0  0  0  0
  -29.7370  -13.5980   20.3140 C   0  0  0  0  0  2  0  0  0  0  0  0
  -31.0560  -13.7220   19.6770 N   0  0  0  0  0  0  0  0  0  0  0  0
  -32.8370  -14.8950   18.8900 O   0  0  0  0  0  0  0  0  0  0  0  0
  -31.5870  -15.8740   20.4330 N   0  0  0  0  0  0  0  0  0  0  0  0
  -32.4810  -16.2370   20.7280 H   0  0  0  0  0  0  0  0  0  0  0  0
  -26.3790  -14.4290   20.0610 C   0  0  0  0  0  0  0  0  0  0  0  0
  -25.2670  -13.7770   20.5200 C   0  0  0  0  0  0  0  0  0  0  0  0
  -25.5770  -12.3840   20.4700 C   0  0  0  0  0  0  0  0  0  0  0  0
  -27.3140  -13.4410   19.7810 N   0  0  0  0  0  0  0  0  0  0  0  0
  -26.8350  -12.2060   20.0830 N   0  0  0  0  0  0  0  0  0  0  0  0
  -24.7330  -11.2070   20.7100 C   0  0  0  0  0  0  0  0  0  0  0  0
  -25.1050  -10.2040   21.6320 C   0  0  0  0  0  3  0  0  0  0  0  0
  -24.2640   -9.0920   21.8570 C   0  0  0  0  0  3  0  0  0  0  0  0
  -23.0360   -8.9780   21.1610 C   0  0  0  0  0  0  0  0  0  0  0  0
  -22.6830   -9.9650   20.2240 C   0  0  0  0  0  3  0  0  0  0  0  0
  -23.5250  -11.0680   19.9980 C   0  0  0  0  0  3  0  0  0  0  0  0
  -22.1670   -7.9230   21.2980 O   0  0  0  0  0  0  0  0  0  0  0  0
  -22.0440   -7.2410   22.4830 C   0  0  0  0  0  0  0  0  0  0  0  0
  -21.7150   -7.8940   23.6900 C   0  0  0  0  0  3  0  0  0  0  0  0
  -21.5310   -7.1450   24.8690 C   0  0  0  0  0  3  0  0  0  0  0  0
  -21.6680   -5.7450   24.8450 C   0  0  0  0  0  0  0  0  0  0  0  0
  -21.9910   -5.0920   23.6410 C   0  0  0  0  0  3  0  0  0  0  0  0
  -22.1770   -5.8380   22.4650 C   0  0  0  0  0  0  0  0  0  0  0  0
  -22.4670   -5.2000   21.3040 F   0  0  0  0  0  0  0  0  0  0  0  0
  -21.4840   -5.0240   25.9760 F   0  0  0  0  0  0  0  0  0  0  0  0
  -23.9510  -14.4030   20.8830 C   0  0  0  0  0  0  0  0  0  0  0  0
  -23.2150  -13.7930   21.8060 N   0  0  0  0  0  0  0  0  0  0  0  0
  -23.5910  -15.4670   20.3790 O   0  0  0  0  0  0  0  0  0  0  0  0
  -23.5140  -12.9290   22.2310 H   0  0  0  0  0  0  0  0  0  0  0  0
  -22.3310  -14.1920   22.0870 H   0  0  0  0  0  0  0  0  0  0  0  0
  -26.6610  -15.7710   19.8320 N   0  0  0  0  0  0  0  0  0  0  0  0
  -25.9650  -16.4960   19.9640 H   0  0  0  0  0  0  0  0  0  0  0  0
  -27.5060  -16.1110   19.3880 H   0  0  0  0  0  0  0  0  0  0  0  0
  -28.0470  -17.0190   20.4670 C   0  0  0  0  0  1  0  0  0  0  0  0
  -29.3790  -16.6020   21.1010 C   0  0  0  0  0  2  0  0  0  0  0  0
  2  1  2  0
  3  1  1  0
  4  5  2  0
  4  6  1  0
  5  2  1  0
  6  3  2  0
  7  8  1  0
  7  5  1  0
  9 10  1  0
  9  8  1  0
 11 22  2  0
 12 10  1  0
 12 17  1  0
 13 21  1  0
 13 23  1  0
 14 20  1  0
 14 16  1  0
 15 21  1  0
 16 17  2  0
 16 15  1  0
 18 19  1  0
 18 12  2  0
 19 14  2  0
 20 13  1  0
 21 11  1  0
 23 25  2  0
 24 23  1  0
 26 24  1  0
 27 36  2  0
 27 32  1  0
 28 24  1  0
 28 32  1  0
 29 28  1  0
 30 31  1  0
 30 29  1  0
 31 27  1  0
 32 33  2  0
 33 34  1  0
 35 34  2  0
 36 35  1  0
 37 11  1  0
 37 38  1  0
 37 47  1  0
 38 41  1  0
 39 43  1  0
 39 38  1  0
 40 39  2  0
 43 42  1  0
 45 43  1  0
 45 46  1  0
 45 44  1  0
 47 50  1  1
 47 48  1  0
 49 47  1  0
 51  6  1  0
 52 61  1  0
 52 51  1  0
 52 92  1  0
 53 59  1  0
 53 61  1  0
 54 59  1  0
 55 56  1  0
 55 54  1  0
 57 56  1  0
 57 66  1  0
 57 58  1  0
 59 58  1  0
 60 53  2  0
 61 62  1  0
 63 64  2  0
 64 83  1  0
 65 64  1  0
 65 68  1  0
 66 63  1  0
 66 67  1  0
 67 65  2  0
 68 69  1  0
 69 70  2  0
 71 74  1  0
 71 70  1  0
 72 71  2  0
 73 72  1  0
 73 68  2  0
 74 75  1  0
 75 76  1  0
 76 77  2  0
 78 77  1  0
 78 82  1  0
 79 78  2  0
 80 75  2  0
 80 79  1  0
 81 80  1  0
 83 84  1  0
 84 87  1  0
 84 86  1  0
 85 83  2  0
 88 89  1  0
 88 63  1  0
 90 88  1  0
 91 92  1  0
M  ISO  4   9 101  10 101  53 100  61 100
M  END
>  <TORSDO>  (17) 
F 22

>  <SCORE>  (17) 
-9.787

>  <name>  (17) 
16

>  <ligand_id>  (17) 
16

>  <original_smiles>  (17) 
[H]c1c([H])c([H])c2c(c1[H])C([H])([H])C([H])([H])C([H])([H])C2([H])N([H])C(=O)C1([H])N(C(=O)C([H])(N([H])C(=O)C([H])(N([H])C([H])([H])[H])C([H])([H])[H])C(C([H])([H])[H])(C([H])([H])[H])C([H])([H])[H])C([H])([H])c2c([H])c(OC([H])([H])C([H])([H])C([H])([H])c3c([H])c([H])c([H])c(C([H])([H])C([H])(N([H])C(=O)N4C([H])([H])C([H])([H])C([H])([H])C([H])(n5nc(-c6c([H])c([H])c(Oc7c([H])c([H])c(F)c([H])c7F)c([H])c6[H])c(C(=O)N([H])[H])c5N([H])[H])C4([H])[H])C([H])([H])C([H])([H])[H])c3[H])c([H])c([H])c2C1([H])[H]

>  <smiles>  (17) 
[H]c1c([H])c([H])c2c(c1[H])C([H])([H])C([H])([H])C([H])([H])C2([H])N([H])C(=O)C1([H])N(C(=O)C([H])(N([H])C(=O)C([H])(N([H])C([H])([H])[H])C([H])([H])[H])C(C([H])([H])[H])(C([H])([H])[H])C([H])([H])[H])C([H])([H])c2c([H])c(OC([H])([H])C([H])([H])C([H])([H])c3c([H])c([H])c([H])c(C([H])([H])C([H])(N([H])C(=O)N4C([H])([H])C([H])([H])C([H])([H])C([H])(n5nc(-c6c([H])c([H])c(Oc7c([H])c([H])c(F)c([H])c7F)c([H])c6[H])c(C(=O)N([H])[H])c5N([H])[H])C4([H])[H])C([H])([H])C([H])([H])[H])c3[H])c([H])c([H])c2C1([H])[H]

$$$$
17:0:0
     RDKit          3D

 91 99  0  0  1  0  0  0  0  0999 V2000
  -29.2960  -22.0570   20.6300 C   0  0  0  0  0  0  0  0  0  0  0  0
  -28.9580  -20.7780   20.3240 C   0  0  0  0  0  3  0  0  0  0  0  0
  -30.6580  -22.5460   21.0690 C   0  0  0  0  0  2  0  0  0  0  0  0
  -28.3500  -23.2520   20.5970 C   0  0  0  0  0  2  0  0  0  0  0  0
  -30.4560  -24.0170   21.4850 C   0  0  0  0  0  2  0  0  0  0  0  0
  -29.2460  -24.5180   20.6820 C   0  0  0  0  0  3  0  0  0  0  0  0
  -29.8710  -19.6330   20.2640 C   0  0  0  0  0  3  0  0  0  0  0  0
  -29.4650  -18.3580   20.0500 C   0  0  0  0  0  3  0  0  0  0  0  0
  -30.1670  -16.7120   18.3470 C   0  0  0  0  0  1  0  0  0  0  0  0
  -30.3710  -17.1340   19.8160 C   0  0  0  0  0  3  0  0  0  0  0  0
  -30.5470  -16.3480   22.2480 C   0  0  0  0  0  1  0  0  0  0  0  0
  -30.1560  -15.9370   20.8210 C   0  0  0  0  0  3  0  0  0  0  0  0
  -30.9210  -14.6250   20.4280 C   0  0  0  0  0  0  0  0  0  0  0  0
  -30.6330  -12.4590   19.2730 C   0  0  0  0  0  2  0  0  0  0  0  0
  -29.7050  -12.6960   18.0630 C   0  0  0  0  0  2  0  0  0  0  0  0
  -28.2230  -12.5650   18.4780 C   0  0  0  0  0  2  0  0  0  0  0  0
  -27.8830  -13.3800   19.7520 C   0  0  0  0  0  3  0  0  0  0  0  0
  -28.9330  -13.1470   20.8620 C   0  0  0  0  0  2  0  0  0  0  0  0
  -30.2590  -13.4390   20.3050 N   0  0  0  0  0  0  0  0  0  0  0  0
  -32.0970  -14.7400   20.0720 O   0  0  0  0  0  0  0  0  0  0  0  0
  -25.4840  -14.0040   20.4380 C   0  0  0  0  0  0  0  0  0  0  0  0
  -24.4070  -13.2370   20.8000 C   0  0  0  0  0  0  0  0  0  0  0  0
  -24.8630  -11.8850   20.7830 C   0  0  0  0  0  0  0  0  0  0  0  0
  -26.5250  -13.1160   20.2220 N   0  0  0  0  0  0  0  0  0  0  0  0
  -26.1570  -11.8380   20.4930 N   0  0  0  0  0  0  0  0  0  0  0  0
  -24.1280  -10.6260   20.9730 C   0  0  0  0  0  0  0  0  0  0  0  0
  -24.5360   -9.6740   21.9330 C   0  0  0  0  0  3  0  0  0  0  0  0
  -23.8050   -8.4800   22.1110 C   0  0  0  0  0  3  0  0  0  0  0  0
  -22.6510   -8.2320   21.3310 C   0  0  0  0  0  0  0  0  0  0  0  0
  -22.2610   -9.1730   20.3620 C   0  0  0  0  0  3  0  0  0  0  0  0
  -22.9930  -10.3590   20.1810 C   0  0  0  0  0  3  0  0  0  0  0  0
  -21.8960   -7.0870   21.4160 O   0  0  0  0  0  0  0  0  0  0  0  0
  -21.7980   -6.3720   22.5820 C   0  0  0  0  0  0  0  0  0  0  0  0
  -21.3190   -6.9550   23.7760 C   0  0  0  0  0  3  0  0  0  0  0  0
  -21.1680   -6.1670   24.9330 C   0  0  0  0  0  3  0  0  0  0  0  0
  -21.4890   -4.7970   24.9000 C   0  0  0  0  0  0  0  0  0  0  0  0
  -21.9630   -4.2140   23.7120 C   0  0  0  0  0  3  0  0  0  0  0  0
  -22.1140   -4.9980   22.5560 C   0  0  0  0  0  0  0  0  0  0  0  0
  -22.5500   -4.4260   21.4070 F   0  0  0  0  0  0  0  0  0  0  0  0
  -21.3380   -4.0380   26.0090 F   0  0  0  0  0  0  0  0  0  0  0  0
  -23.0090  -13.7230   21.0520 C   0  0  0  0  0  0  0  0  0  0  0  0
  -22.2660  -13.0380   21.9160 N   0  0  0  0  0  0  0  0  0  0  0  0
  -22.5780  -14.7410   20.5140 O   0  0  0  0  0  0  0  0  0  0  0  0
  -22.6240  -12.2110   22.3710 H   0  0  0  0  0  0  0  0  0  0  0  0
  -21.3280  -13.3470   22.1230 H   0  0  0  0  0  0  0  0  0  0  0  0
  -25.6520  -15.3730   20.2560 N   0  0  0  0  0  0  0  0  0  0  0  0
  -24.8840  -16.0280   20.3650 H   0  0  0  0  0  0  0  0  0  0  0  0
  -26.5050  -15.8160   19.9380 H   0  0  0  0  0  0  0  0  0  0  0  0
  -27.5170  -25.6400   22.2690 C   0  0  0  0  0  1  0  0  0  0  0  0
  -28.6280  -25.8560   21.2170 C   0  0  0  0  0  3  0  0  0  0  0  0
  -28.2950  -26.7050   20.0990 O   0  0  0  0  0  0  0  0  0  0  0  0
  -24.5440  -31.9330   23.2310 C   0  0  0  0  0  0  0  0  0  0  0  0
  -27.1530  -27.4700   20.1620 C   0  0  0  0  0  0  0  0  0  0  0  0
  -23.3260  -30.5310   21.5970 C   0  0  0  0  0  3  0  0  0  0  0  0
  -24.7690  -28.9800   20.1770 C   0  0  0  0  0  0  0  0  0  0  0  0
  -25.8530  -30.8800   21.3900 C   0  0  0  0  0  2  0  0  0  0  0  0
  -25.9320  -29.5040   20.7590 C   0  0  0  0  0  0  0  0  0  0  0  0
  -27.1300  -28.7550   20.7540 C   0  0  0  0  0  3  0  0  0  0  0  0
  -25.9830  -26.9600   19.5700 C   0  0  0  0  0  3  0  0  0  0  0  0
  -24.7880  -27.7060   19.5840 C   0  0  0  0  0  3  0  0  0  0  0  0
  -23.5290  -29.8450   20.2200 C   0  0  0  0  0  2  0  0  0  0  0  0
  -24.5930  -31.1280   22.1310 N   0  0  0  0  0  0  0  0  0  0  0  0
  -23.4660  -32.2130   23.7730 O   0  0  0  0  0  0  0  0  0  0  0  0
  -22.6740  -29.5160   22.5630 C   0  0  0  0  0  0  0  0  0  0  0  0
  -21.3520  -29.3320   22.4320 N   0  0  0  0  0  0  0  0  0  0  0  0
  -23.3560  -28.8950   23.3830 O   0  0  0  0  0  0  0  0  0  0  0  0
  -20.8620  -29.8840   21.7410 H   0  0  0  0  0  0  0  0  0  0  0  0
  -17.9740  -28.1450   22.9280 C   0  0  0  0  0  0  0  0  0  0  0  0
  -20.5320  -28.3990   23.2050 C   0  0  0  0  0  3  0  0  0  0  0  0
  -20.6330  -26.9660   22.6340 C   0  0  0  0  0  2  0  0  0  0  0  0
  -19.5330  -26.6420   21.6170 C   0  0  0  0  0  2  0  0  0  0  0  0
  -18.1510  -26.7930   22.2590 C   0  0  0  0  0  2  0  0  0  0  0  0
  -19.0940  -28.9060   23.3560 C   0  0  0  0  0  0  0  0  0  0  0  0
  -18.8780  -30.1740   23.9400 C   0  0  0  0  0  3  0  0  0  0  0  0
  -17.5750  -30.6800   24.0990 C   0  0  0  0  0  3  0  0  0  0  0  0
  -16.4700  -29.9160   23.6880 C   0  0  0  0  0  3  0  0  0  0  0  0
  -16.6700  -28.6500   23.1090 C   0  0  0  0  0  3  0  0  0  0  0  0
  -25.8360  -32.5580   23.8430 C   0  0  0  0  0  3  0  0  0  0  0  0
  -26.3500  -31.7940   25.1250 C   0  0  1  0  0  0  0  0  0  0  0  0
  -25.2550  -31.5740   26.1950 C   0  0  0  0  0  1  0  0  0  0  0  0
  -26.9210  -30.4080   24.7430 C   0  0  0  0  0  1  0  0  0  0  0  0
  -27.5040  -32.5870   25.7810 C   0  0  0  0  0  1  0  0  0  0  0  0
  -25.5400  -33.9620   24.1570 N   0  0  0  0  0  0  0  0  0  0  0  0
  -25.8980  -35.0030   23.3920 C   0  0  0  0  0  0  0  0  0  0  0  0
  -26.5820  -34.8830   22.3730 O   0  0  0  0  0  0  0  0  0  0  0  0
  -24.9350  -34.1310   24.9470 H   0  0  0  0  0  0  0  0  0  0  0  0
  -24.2030  -36.8160   22.9850 C   0  0  0  0  0  1  0  0  0  0  0  0
  -25.4190  -36.4000   23.8300 C   0  0  0  0  0  3  0  0  0  0  0  0
  -27.5430  -37.2590   24.7100 C   0  0  0  0  0  1  0  0  0  0  0  0
  -26.4690  -37.4380   23.7370 N   0  0  0  0  0  0  0  0  0  0  0  0
  -26.0730  -38.3640   23.8700 H   0  0  0  0  0  0  0  0  0  0  0  0
  1  3  1  0
  2  1  2  0
  3  5  1  0
  4  1  1  0
  4  6  1  0
  6 50  1  0
  6  5  1  0
  7  2  1  0
  8  7  2  0
 10  9  1  0
 10  8  1  0
 10 12  1  0
 12 11  1  0
 13 12  1  0
 14 19  1  0
 15 16  1  0
 15 14  1  0
 17 16  1  0
 17 24  1  0
 17 18  1  0
 19 13  1  0
 19 18  1  0
 20 13  2  0
 21 22  2  0
 22 41  1  0
 23 22  1  0
 23 26  1  0
 24 21  1  0
 24 25  1  0
 25 23  2  0
 26 27  1  0
 27 28  2  0
 29 32  1  0
 29 28  1  0
 30 29  2  0
 31 30  1  0
 31 26  2  0
 32 33  1  0
 33 34  1  0
 34 35  2  0
 36 35  1  0
 36 40  1  0
 37 36  2  0
 38 33  2  0
 38 37  1  0
 39 38  1  0
 41 42  1  0
 42 45  1  0
 42 44  1  0
 43 41  2  0
 46 47  1  0
 46 21  1  0
 48 46  1  0
 50 49  1  0
 51 53  1  0
 51 50  1  0
 52 63  2  0
 53 58  1  0
 54 62  1  0
 54 64  1  0
 55 61  1  0
 55 57  1  0
 56 62  1  0
 57 56  1  0
 58 57  2  0
 59 60  1  0
 59 53  2  0
 60 55  2  0
 61 54  1  0
 62 52  1  0
 64 66  2  0
 65 64  1  0
 67 65  1  0
 68 77  2  0
 68 73  1  0
 69 65  1  0
 69 73  1  0
 70 69  1  0
 71 72  1  0
 71 70  1  0
 72 68  1  0
 73 74  2  0
 74 75  1  0
 76 75  2  0
 77 76  1  0
 78 52  1  0
 78 83  1  0
 78 79  1  0
 79 82  1  1
 79 80  1  0
 81 79  1  0
 83 86  1  0
 84 88  1  0
 84 83  1  0
 85 84  2  0
 88 87  1  0
 90 88  1  0
 90 91  1  0
 90 89  1  0
M  ISO  4  12 100  13 100  50 101  51 101
M  END
>  <TORSDO>  (18) 
F 20

>  <SCORE>  (18) 
-13.755

>  <name>  (18) 
17

>  <ligand_id>  (18) 
17

>  <original_smiles>  (18) 
[H]C(C([H])=C([H])C([H])(C([H])([H])[H])C([H])(C(=O)N1C([H])([H])C([H])([H])C([H])([H])C([H])(n2nc(-c3c([H])c([H])c(Oc4c([H])c([H])c(F)c([H])c4F)c([H])c3[H])c(C(=O)N([H])[H])c2N([H])[H])C1([H])[H])C([H])([H])[H])=C1C([H])([H])C([H])([H])C([H])(C([H])(Oc2c([H])c([H])c3c(c2[H])C([H])([H])N(C(=O)C([H])(N([H])C(=O)C([H])(N([H])C([H])([H])[H])C([H])([H])[H])C(C([H])([H])[H])(C([H])([H])[H])C([H])([H])[H])C([H])(C(=O)N([H])C2([H])c4c([H])c([H])c([H])c([H])c4C([H])([H])C([H])([H])C2([H])[H])C3([H])[H])C([H])([H])[H])C1([H])[H]

>  <smiles>  (18) 
[H]C(C([H])=C([H])C([H])(C([H])([H])[H])C([H])(C(=O)N1C([H])([H])C([H])([H])C([H])([H])C([H])(n2nc(-c3c([H])c([H])c(Oc4c([H])c([H])c(F)c([H])c4F)c([H])c3[H])c(C(=O)N([H])[H])c2N([H])[H])C1([H])[H])C([H])([H])[H])=C1C([H])([H])C([H])([H])C([H])(C([H])(Oc2c([H])c([H])c3c(c2[H])C([H])([H])N(C(=O)C([H])(N([H])C(=O)C([H])(N([H])C([H])([H])[H])C([H])([H])[H])C(C([H])([H])[H])(C([H])([H])[H])C([H])([H])[H])C([H])(C(=O)N([H])C2([H])c4c([H])c([H])c([H])c([H])c4C([H])([H])C([H])([H])C2([H])[H])C3([H])[H])C([H])([H])[H])C1([H])[H]

$$$$
18:0:0
     RDKit          3D

 89 97  0  0  1  0  0  0  0  0999 V2000
  -30.9540  -18.5690   20.1940 C   0  0  0  0  0  3  0  0  0  0  0  0
  -28.7660  -18.8080   20.3790 C   0  0  0  0  0  3  0  0  0  0  0  0
  -29.7620  -17.7860   20.3500 C   0  0  0  0  0  0  0  0  0  0  0  0
  -30.6320  -19.9270   20.1410 C   0  0  0  0  0  0  0  0  0  0  0  0
  -29.2590  -20.1820   20.2490 N   0  0  0  0  0  0  0  0  0  0  0  0
  -30.4520  -15.0710   20.3000 C   0  0  0  0  0  0  0  0  0  0  0  0
  -30.3660  -12.7000   19.3680 C   0  0  0  0  0  2  0  0  0  0  0  0
  -29.4160  -12.6350   18.1480 C   0  0  0  0  0  2  0  0  0  0  0  0
  -27.9610  -12.4080   18.5970 C   0  0  0  0  0  2  0  0  0  0  0  0
  -27.5590  -13.3220   19.7830 C   0  0  0  0  0  3  0  0  0  0  0  0
  -28.6310  -13.3500   20.8930 C   0  0  0  0  0  2  0  0  0  0  0  0
  -29.8840  -13.7920   20.2670 N   0  0  0  0  0  0  0  0  0  0  0  0
  -31.6550  -15.1460   20.0200 O   0  0  0  0  0  0  0  0  0  0  0  0
  -29.6250  -16.2380   20.4500 N   0  0  0  0  0  0  0  0  0  0  0  0
  -28.6740  -15.9510   20.6280 H   0  0  0  0  0  0  0  0  0  0  0  0
  -25.1890  -13.8800   20.5620 C   0  0  0  0  0  0  0  0  0  0  0  0
  -24.1330  -13.0970   20.9390 C   0  0  0  0  0  0  0  0  0  0  0  0
  -24.6030  -11.7480   20.8900 C   0  0  0  0  0  0  0  0  0  0  0  0
  -26.2320  -13.0090   20.2980 N   0  0  0  0  0  0  0  0  0  0  0  0
  -25.8900  -11.7210   20.5610 N   0  0  0  0  0  0  0  0  0  0  0  0
  -23.8840  -10.4810   21.0750 C   0  0  0  0  0  0  0  0  0  0  0  0
  -24.3280   -9.5050   21.9940 C   0  0  0  0  0  3  0  0  0  0  0  0
  -23.6070   -8.3040   22.1680 C   0  0  0  0  0  3  0  0  0  0  0  0
  -22.4260   -8.0720   21.4230 C   0  0  0  0  0  0  0  0  0  0  0  0
  -22.0000   -9.0360   20.4930 C   0  0  0  0  0  3  0  0  0  0  0  0
  -22.7230  -10.2290   20.3170 C   0  0  0  0  0  3  0  0  0  0  0  0
  -21.6750   -6.9240   21.5080 O   0  0  0  0  0  0  0  0  0  0  0  0
  -21.6370   -6.1720   22.6550 C   0  0  0  0  0  0  0  0  0  0  0  0
  -21.2000   -6.7090   23.8850 C   0  0  0  0  0  3  0  0  0  0  0  0
  -21.1110   -5.8830   25.0230 C   0  0  0  0  0  3  0  0  0  0  0  0
  -21.4490   -4.5190   24.9310 C   0  0  0  0  0  0  0  0  0  0  0  0
  -21.8790   -3.9810   23.7060 C   0  0  0  0  0  3  0  0  0  0  0  0
  -21.9700   -4.8050   22.5700 C   0  0  0  0  0  0  0  0  0  0  0  0
  -22.3660   -4.2760   21.3880 F   0  0  0  0  0  0  0  0  0  0  0  0
  -21.3560   -3.7220   26.0220 F   0  0  0  0  0  0  0  0  0  0  0  0
  -22.7370  -13.5670   21.2260 C   0  0  0  0  0  0  0  0  0  0  0  0
  -22.0190  -12.8620   22.0930 N   0  0  0  0  0  0  0  0  0  0  0  0
  -22.2910  -14.5950   20.7190 O   0  0  0  0  0  0  0  0  0  0  0  0
  -22.3910  -12.0310   22.5280 H   0  0  0  0  0  0  0  0  0  0  0  0
  -21.0830  -13.1610   22.3290 H   0  0  0  0  0  0  0  0  0  0  0  0
  -25.3420  -15.2540   20.3940 N   0  0  0  0  0  0  0  0  0  0  0  0
  -24.5650  -15.8970   20.5070 H   0  0  0  0  0  0  0  0  0  0  0  0
  -26.1620  -15.6930   19.9960 H   0  0  0  0  0  0  0  0  0  0  0  0
  -31.4910  -20.9680   19.9770 O   0  0  0  0  0  0  0  0  0  0  0  0
  -30.9820  -21.7710   20.0000 H   0  0  0  0  0  0  0  0  0  0  0  0
  -28.4380  -21.5690   20.1150 C   0  0  0  0  0  2  0  0  0  0  0  0
  -28.9060  -23.1960   20.3880 C   0  0  0  0  0  3  0  0  0  0  0  0
  -27.9280  -24.5850   20.1260 C   0  0  0  0  0  3  0  0  0  0  0  0
  -28.2100  -26.1240   20.3500 O   0  0  0  0  0  0  0  0  0  0  0  0
  -24.6300  -31.9250   23.2810 C   0  0  0  0  0  0  0  0  0  0  0  0
  -27.1730  -27.1430   20.2760 C   0  0  0  0  0  0  0  0  0  0  0  0
  -23.4270  -30.5310   21.6450 C   0  0  0  0  0  3  0  0  0  0  0  0
  -24.8680  -28.9370   20.2290 C   0  0  0  0  0  0  0  0  0  0  0  0
  -25.9870  -30.7640   21.4920 C   0  0  0  0  0  2  0  0  0  0  0  0
  -26.0510  -29.3650   20.8430 C   0  0  0  0  0  0  0  0  0  0  0  0
  -27.2040  -28.4870   20.8470 C   0  0  0  0  0  3  0  0  0  0  0  0
  -25.9620  -26.8280   19.6220 C   0  0  0  0  0  3  0  0  0  0  0  0
  -24.8380  -27.6830   19.6020 C   0  0  0  0  0  3  0  0  0  0  0  0
  -23.6490  -29.8490   20.2700 C   0  0  0  0  0  2  0  0  0  0  0  0
  -24.7020  -31.0970   22.1940 N   0  0  0  0  0  0  0  0  0  0  0  0
  -23.5440  -32.2230   23.8020 O   0  0  0  0  0  0  0  0  0  0  0  0
  -22.7330  -29.5360   22.6090 C   0  0  0  0  0  0  0  0  0  0  0  0
  -21.4050  -29.3750   22.4760 N   0  0  0  0  0  0  0  0  0  0  0  0
  -23.3950  -28.9110   23.4430 O   0  0  0  0  0  0  0  0  0  0  0  0
  -20.9270  -29.9290   21.7800 H   0  0  0  0  0  0  0  0  0  0  0  0
  -18.0130  -28.1940   22.9630 C   0  0  0  0  0  0  0  0  0  0  0  0
  -20.5720  -28.4480   23.2480 C   0  0  0  0  0  3  0  0  0  0  0  0
  -20.6720  -27.0100   22.6860 C   0  0  0  0  0  2  0  0  0  0  0  0
  -19.5760  -26.6840   21.6660 C   0  0  0  0  0  2  0  0  0  0  0  0
  -18.1900  -26.8390   22.2970 C   0  0  0  0  0  2  0  0  0  0  0  0
  -19.1320  -28.9550   23.3950 C   0  0  0  0  0  0  0  0  0  0  0  0
  -18.9110  -30.2220   23.9790 C   0  0  0  0  0  3  0  0  0  0  0  0
  -17.6060  -30.7270   24.1330 C   0  0  0  0  0  3  0  0  0  0  0  0
  -16.5030  -29.9620   23.7160 C   0  0  0  0  0  3  0  0  0  0  0  0
  -16.7070  -28.6970   23.1370 C   0  0  0  0  0  3  0  0  0  0  0  0
  -25.9090  -32.5550   23.9120 C   0  0  0  0  0  3  0  0  0  0  0  0
  -26.4040  -31.7890   25.2010 C   0  0  1  0  0  0  0  0  0  0  0  0
  -25.3000  -31.5720   26.2610 C   0  0  0  0  0  1  0  0  0  0  0  0
  -26.9790  -30.4020   24.8320 C   0  0  0  0  0  1  0  0  0  0  0  0
  -27.5560  -32.5800   25.8680 C   0  0  0  0  0  1  0  0  0  0  0  0
  -25.6060  -33.9580   24.2360 N   0  0  0  0  0  0  0  0  0  0  0  0
  -25.9280  -35.0080   23.4680 C   0  0  0  0  0  0  0  0  0  0  0  0
  -26.5770  -34.8960   22.4250 O   0  0  0  0  0  0  0  0  0  0  0  0
  -25.0260  -34.1190   25.0460 H   0  0  0  0  0  0  0  0  0  0  0  0
  -24.1920  -36.8030   23.1570 C   0  0  0  0  0  1  0  0  0  0  0  0
  -25.4580  -36.4020   23.9300 C   0  0  0  0  0  3  0  0  0  0  0  0
  -27.6170  -37.2990   24.6850 C   0  0  0  0  0  1  0  0  0  0  0  0
  -26.4870  -37.4530   23.7720 N   0  0  0  0  0  0  0  0  0  0  0  0
  -26.0850  -38.3760   23.9180 H   0  0  0  0  0  0  0  0  0  0  0  0
  1  3  1  0
  3  2  2  0
  3 14  1  0
  4  1  2  0
  4  5  1  0
  5  2  1  0
  6 14  1  0
  7 12  1  0
  8  9  1  0
  8  7  1  0
 10  9  1  0
 10 19  1  0
 10 11  1  0
 12  6  1  0
 12 11  1  0
 13  6  2  0
 14 15  1  0
 16 17  2  0
 17 36  1  0
 18 17  1  0
 18 21  1  0
 19 20  1  0
 19 16  1  0
 20 18  2  0
 21 22  1  0
 22 23  2  0
 24 27  1  0
 24 23  1  0
 25 24  2  0
 26 25  1  0
 26 21  2  0
 27 28  1  0
 28 29  1  0
 29 30  2  0
 31 30  1  0
 31 35  1  0
 32 31  2  0
 33 28  2  0
 33 32  1  0
 34 33  1  0
 36 37  1  0
 37 40  1  0
 37 39  1  0
 38 36  2  0
 41 42  1  0
 41 16  1  0
 43 41  1  0
 44 45  1  0
 44  4  1  0
 46  5  1  0
 46 47  1  0
 48 49  1  0
 48 47  2  0
 50 61  2  0
 51 49  1  0
 51 56  1  0
 52 60  1  0
 52 62  1  0
 53 59  1  0
 53 55  1  0
 54 60  1  0
 55 56  2  0
 55 54  1  0
 57 51  2  0
 58 57  1  0
 58 53  2  0
 59 52  1  0
 60 50  1  0
 62 64  2  0
 63 62  1  0
 65 63  1  0
 66 75  2  0
 66 71  1  0
 67 63  1  0
 67 71  1  0
 68 67  1  0
 69 70  1  0
 69 68  1  0
 70 66  1  0
 71 72  2  0
 72 73  1  0
 74 73  2  0
 75 74  1  0
 76 50  1  0
 76 81  1  0
 76 77  1  0
 77 80  1  1
 77 78  1  0
 79 77  1  0
 81 84  1  0
 82 86  1  0
 82 81  1  0
 83 82  2  0
 86 85  1  0
 88 89  1  0
 88 86  1  0
 88 87  1  0
M  ISO  4   6 100  14 100  48 101  49 101
M  END
>  <TORSDO>  (19) 
F 20

>  <SCORE>  (19) 
-15.257

>  <name>  (19) 
18

>  <ligand_id>  (19) 
18

>  <original_smiles>  (19) 
[H]Oc1c([H])c(N([H])C(=O)N2C([H])([H])C([H])([H])C([H])([H])C([H])(n3nc(-c4c([H])c([H])c(Oc5c([H])c([H])c(F)c([H])c5F)c([H])c4[H])c(C(=O)N([H])[H])c3N([H])[H])C2([H])[H])c([H])n1C([H])([H])C([H])([H])C([H])([H])Oc1c([H])c([H])c2c(c1[H])C([H])([H])N(C(=O)C([H])(N([H])C(=O)C([H])(N([H])C([H])([H])[H])C([H])([H])[H])C(C([H])([H])[H])(C([H])([H])[H])C([H])([H])[H])C([H])(C(=O)N([H])C1([H])c3c([H])c([H])c([H])c([H])c3C([H])([H])C([H])([H])C1([H])[H])C2([H])[H]

>  <smiles>  (19) 
[H]Oc1c([H])c(N([H])C(=O)N2C([H])([H])C([H])([H])C([H])([H])C([H])(n3nc(-c4c([H])c([H])c(Oc5c([H])c([H])c(F)c([H])c5F)c([H])c4[H])c(C(=O)N([H])[H])c3N([H])[H])C2([H])[H])c([H])n1C([H])([H])C([H])([H])C([H])([H])Oc1c([H])c([H])c2c(c1[H])C([H])([H])N(C(=O)C([H])(N([H])C(=O)C([H])(N([H])C([H])([H])[H])C([H])([H])[H])C(C([H])([H])[H])(C([H])([H])[H])C([H])([H])[H])C([H])(C(=O)N([H])C1([H])c3c([H])c([H])c([H])c([H])c3C([H])([H])C([H])([H])C1([H])[H])C2([H])[H]

$$$$
19:0:0
     RDKit          3D

 91101  0  0  1  0  0  0  0  0999 V2000
  -31.6890  -23.8020   20.4930 C   0  0  0  0  0  2  0  0  0  0  0  0
  -30.6120  -23.1860   21.3460 C   0  0  0  0  0  3  0  0  0  0  0  0
  -30.3620  -24.5130   20.6380 C   0  0  0  0  0  3  0  0  0  0  0  0
  -29.9400  -21.8940   20.8950 C   0  0  0  0  0  2  0  0  0  0  0  0
  -30.7790  -19.9860   22.4900 C   0  0  0  0  0  2  0  0  0  0  0  0
  -30.1020  -19.2860   21.3260 C   0  0  0  0  0  3  0  0  0  0  0  0
  -30.7740  -20.6360   21.1310 C   0  0  0  0  0  3  0  0  0  0  0  0
  -30.6300  -17.5970   19.3730 C   0  0  0  0  0  2  0  0  0  0  0  0
  -30.6920  -17.9610   20.8450 C   0  0  0  0  0  3  0  0  0  0  0  0
  -29.7430  -16.8730   20.3650 C   0  0  0  0  0  3  0  0  0  0  0  0
  -30.6790  -14.5180   20.2370 C   0  0  0  0  0  0  0  0  0  0  0  0
  -30.3770  -12.3820   19.0470 C   0  0  0  0  0  2  0  0  0  0  0  0
  -29.3940  -12.6370   17.8850 C   0  0  0  0  0  2  0  0  0  0  0  0
  -27.9260  -12.5130   18.3480 C   0  0  0  0  0  2  0  0  0  0  0  0
  -27.6420  -13.2880   19.6630 C   0  0  0  0  0  3  0  0  0  0  0  0
  -28.7300  -12.9930   20.7210 C   0  0  0  0  0  2  0  0  0  0  0  0
  -30.0420  -13.3180   20.1320 N   0  0  0  0  0  0  0  0  0  0  0  0
  -31.7790  -14.7440   19.7240 O   0  0  0  0  0  0  0  0  0  0  0  0
  -29.9040  -15.4890   20.7540 N   0  0  0  0  0  0  0  0  0  0  0  0
  -29.0990  -15.1130   21.2340 H   0  0  0  0  0  0  0  0  0  0  0  0
  -25.2600  -13.8890   20.4330 C   0  0  0  0  0  0  0  0  0  0  0  0
  -24.2010  -13.1120   20.8230 C   0  0  0  0  0  0  0  0  0  0  0  0
  -24.6640  -11.7620   20.7670 C   0  0  0  0  0  0  0  0  0  0  0  0
  -26.3010  -13.0090   20.1720 N   0  0  0  0  0  0  0  0  0  0  0  0
  -25.9440  -11.7250   20.4220 N   0  0  0  0  0  0  0  0  0  0  0  0
  -23.9440  -10.4960   20.9660 C   0  0  0  0  0  0  0  0  0  0  0  0
  -24.3830   -9.5390   21.9070 C   0  0  0  0  0  3  0  0  0  0  0  0
  -23.6670   -8.3360   22.0920 C   0  0  0  0  0  3  0  0  0  0  0  0
  -22.4980   -8.0830   21.3380 C   0  0  0  0  0  0  0  0  0  0  0  0
  -22.0790   -9.0290   20.3850 C   0  0  0  0  0  3  0  0  0  0  0  0
  -22.7940  -10.2240   20.1980 C   0  0  0  0  0  3  0  0  0  0  0  0
  -21.7500   -6.9340   21.4330 O   0  0  0  0  0  0  0  0  0  0  0  0
  -21.6800   -6.2150   22.6000 C   0  0  0  0  0  0  0  0  0  0  0  0
  -21.1880   -6.7850   23.7960 C   0  0  0  0  0  3  0  0  0  0  0  0
  -21.0680   -5.9940   24.9550 C   0  0  0  0  0  3  0  0  0  0  0  0
  -21.4230   -4.6320   24.9190 C   0  0  0  0  0  0  0  0  0  0  0  0
  -21.9060   -4.0620   23.7290 C   0  0  0  0  0  3  0  0  0  0  0  0
  -22.0320   -4.8520   22.5720 C   0  0  0  0  0  0  0  0  0  0  0  0
  -22.4780   -4.2910   21.4210 F   0  0  0  0  0  0  0  0  0  0  0  0
  -21.3010   -3.8690   26.0300 F   0  0  0  0  0  0  0  0  0  0  0  0
  -22.8120  -13.5850   21.1390 C   0  0  0  0  0  0  0  0  0  0  0  0
  -22.1070  -12.8730   22.0130 N   0  0  0  0  0  0  0  0  0  0  0  0
  -22.3600  -14.6150   20.6440 O   0  0  0  0  0  0  0  0  0  0  0  0
  -22.4860  -12.0360   22.4290 H   0  0  0  0  0  0  0  0  0  0  0  0
  -21.1760  -13.1690   22.2660 H   0  0  0  0  0  0  0  0  0  0  0  0
  -25.4230  -15.2590   20.2630 N   0  0  0  0  0  0  0  0  0  0  0  0
  -24.6620  -15.9190   20.3870 H   0  0  0  0  0  0  0  0  0  0  0  0
  -26.2640  -15.6960   19.9050 H   0  0  0  0  0  0  0  0  0  0  0  0
  -30.3810  -25.8650   21.3370 C   0  0  0  0  0  2  0  0  0  0  0  0
  -29.0300  -26.5900   21.4240 C   0  0  0  0  0  2  0  0  0  0  0  0
  -28.4190  -26.7440   20.1380 O   0  0  0  0  0  0  0  0  0  0  0  0
  -24.6000  -31.8720   23.2470 C   0  0  0  0  0  0  0  0  0  0  0  0
  -27.2660  -27.4950   20.1440 C   0  0  0  0  0  0  0  0  0  0  0  0
  -23.3890  -30.4820   21.5910 C   0  0  0  0  0  3  0  0  0  0  0  0
  -24.8480  -28.9580   20.1550 C   0  0  0  0  0  0  0  0  0  0  0  0
  -25.9070  -30.8620   21.3890 C   0  0  0  0  0  2  0  0  0  0  0  0
  -25.9970  -29.5000   20.7390 C   0  0  0  0  0  0  0  0  0  0  0  0
  -27.2060  -28.7800   20.7280 C   0  0  0  0  0  3  0  0  0  0  0  0
  -26.1070  -26.9670   19.5370 C   0  0  0  0  0  3  0  0  0  0  0  0
  -24.8940  -27.6880   19.5490 C   0  0  0  0  0  3  0  0  0  0  0  0
  -23.5980  -29.8100   20.2050 C   0  0  0  0  0  2  0  0  0  0  0  0
  -24.6480  -31.0850   22.1350 N   0  0  0  0  0  0  0  0  0  0  0  0
  -23.5220  -32.1350   23.7960 O   0  0  0  0  0  0  0  0  0  0  0  0
  -22.7450  -29.4520   22.5470 C   0  0  0  0  0  0  0  0  0  0  0  0
  -21.4210  -29.2690   22.4210 N   0  0  0  0  0  0  0  0  0  0  0  0
  -23.4340  -28.8200   23.3540 O   0  0  0  0  0  0  0  0  0  0  0  0
  -20.9300  -29.8310   21.7410 H   0  0  0  0  0  0  0  0  0  0  0  0
  -18.0490  -28.0820   22.9210 C   0  0  0  0  0  0  0  0  0  0  0  0
  -20.6070  -28.3280   23.1870 C   0  0  0  0  0  3  0  0  0  0  0  0
  -20.7030  -26.9020   22.5970 C   0  0  0  0  0  2  0  0  0  0  0  0
  -19.5980  -26.5940   21.5820 C   0  0  0  0  0  2  0  0  0  0  0  0
  -18.2180  -26.7380   22.2330 C   0  0  0  0  0  2  0  0  0  0  0  0
  -19.1720  -28.8350   23.3550 C   0  0  0  0  0  0  0  0  0  0  0  0
  -18.9610  -30.0930   23.9590 C   0  0  0  0  0  3  0  0  0  0  0  0
  -17.6590  -30.6020   24.1310 C   0  0  0  0  0  3  0  0  0  0  0  0
  -16.5500  -29.8460   23.7130 C   0  0  0  0  0  3  0  0  0  0  0  0
  -16.7460  -28.5880   23.1150 C   0  0  0  0  0  3  0  0  0  0  0  0
  -25.8900  -32.4980   23.8660 C   0  0  0  0  0  3  0  0  0  0  0  0
  -25.5920  -33.8980   24.1880 N   0  0  0  0  0  0  0  0  0  0  0  0
  -25.9400  -34.9450   23.4270 C   0  0  0  0  0  0  0  0  0  0  0  0
  -26.6180  -34.8330   22.4020 O   0  0  0  0  0  0  0  0  0  0  0  0
  -24.9840  -34.0610   24.9780 H   0  0  0  0  0  0  0  0  0  0  0  0
  -24.2330  -36.7510   23.0430 C   0  0  0  0  0  1  0  0  0  0  0  0
  -25.4590  -36.3380   23.8740 C   0  0  0  0  0  3  0  0  0  0  0  0
  -27.5870  -37.2050   24.7400 C   0  0  0  0  0  1  0  0  0  0  0  0
  -26.5040  -37.3810   23.7750 N   0  0  0  0  0  0  0  0  0  0  0  0
  -26.1050  -38.3050   23.9150 H   0  0  0  0  0  0  0  0  0  0  0  0
  -26.4060  -31.7270   25.1440 C   0  0  1  0  0  0  0  0  0  0  0  0
  -25.3090  -31.5010   26.2100 C   0  0  0  0  0  1  0  0  0  0  0  0
  -26.9800  -30.3460   24.7500 C   0  0  0  0  0  1  0  0  0  0  0  0
  -27.5570  -32.5210   25.8050 C   0  0  0  0  0  1  0  0  0  0  0  0
  1  3  1  0
  1  2  1  0
  2  4  1  0
  3 49  1  0
  3  2  1  0
  6  5  1  0
  7  4  1  0
  7  6  1  0
  7  5  1  0
  8 10  1  0
  9  8  1  0
  9  6  1  0
 10 19  1  0
 10  9  1  0
 11 19  1  0
 12 17  1  0
 13 14  1  0
 13 12  1  0
 15 14  1  0
 15 24  1  0
 15 16  1  0
 17 11  1  0
 17 16  1  0
 18 11  2  0
 19 20  1  0
 21 22  2  0
 22 41  1  0
 23 22  1  0
 23 26  1  0
 24 25  1  0
 24 21  1  0
 25 23  2  0
 26 27  1  0
 27 28  2  0
 29 32  1  0
 29 28  1  0
 30 29  2  0
 31 30  1  0
 31 26  2  0
 32 33  1  0
 33 34  1  0
 34 35  2  0
 36 35  1  0
 36 40  1  0
 37 36  2  0
 38 33  2  0
 38 37  1  0
 39 38  1  0
 41 42  1  0
 42 45  1  0
 42 44  1  0
 43 41  2  0
 46 47  1  0
 46 21  1  0
 48 46  1  0
 49 50  1  0
 51 53  1  0
 51 50  1  0
 52 63  2  0
 53 58  1  0
 54 62  1  0
 54 64  1  0
 55 61  1  0
 55 57  1  0
 56 62  1  0
 57 56  1  0
 58 57  2  0
 59 60  1  0
 59 53  2  0
 60 55  2  0
 61 54  1  0
 62 52  1  0
 64 66  2  0
 65 64  1  0
 67 65  1  0
 68 77  2  0
 68 73  1  0
 69 65  1  0
 69 73  1  0
 70 69  1  0
 71 72  1  0
 71 70  1  0
 72 68  1  0
 73 74  2  0
 74 75  1  0
 76 75  2  0
 77 76  1  0
 78 52  1  0
 78 79  1  0
 78 88  1  0
 79 82  1  0
 80 84  1  0
 80 79  1  0
 81 80  2  0
 84 83  1  0
 86 84  1  0
 86 87  1  0
 86 85  1  0
 88 91  1  1
 88 89  1  0
 90 88  1  0
M  ISO  4  11 100  19 100  50 101  51 101
M  END
>  <TORSDO>  (20) 
F 21

>  <SCORE>  (20) 
-13.351

>  <name>  (20) 
19

>  <ligand_id>  (20) 
19

>  <original_smiles>  (20) 
[H]c1c([H])c([H])c2c(c1[H])C([H])([H])C([H])([H])C([H])([H])C2([H])N([H])C(=O)C1([H])N(C(=O)C([H])(N([H])C(=O)C([H])(N([H])C([H])([H])[H])C([H])([H])[H])C(C([H])([H])[H])(C([H])([H])[H])C([H])([H])[H])C([H])([H])c2c([H])c(OC([H])([H])C([H])([H])C3([H])C([H])([H])C3([H])C([H])([H])C3([H])C([H])([H])C3([H])C3([H])C([H])([H])C3([H])N([H])C(=O)N3C([H])([H])C([H])([H])C([H])([H])C([H])(n4nc(-c5c([H])c([H])c(Oc6c([H])c([H])c(F)c([H])c6F)c([H])c5[H])c(C(=O)N([H])[H])c4N([H])[H])C3([H])[H])c([H])c([H])c2C1([H])[H]

>  <smiles>  (20) 
[H]c1c([H])c([H])c2c(c1[H])C([H])([H])C([H])([H])C([H])([H])C2([H])N([H])C(=O)C1([H])N(C(=O)C([H])(N([H])C(=O)C([H])(N([H])C([H])([H])[H])C([H])([H])[H])C(C([H])([H])[H])(C([H])([H])[H])C([H])([H])[H])C([H])([H])c2c([H])c(OC([H])([H])C([H])([H])C3([H])C([H])([H])C3([H])C([H])([H])C3([H])C([H])([H])C3([H])C3([H])C([H])([H])C3([H])N([H])C(=O)N3C([H])([H])C([H])([H])C([H])([H])C([H])(n4nc(-c5c([H])c([H])c(Oc6c([H])c([H])c(F)c([H])c6F)c([H])c5[H])c(C(=O)N([H])[H])c4N([H])[H])C3([H])[H])c([H])c([H])c2C1([H])[H]

$$$$
20:0:0
     RDKit          3D

 92100  0  0  1  0  0  0  0  0999 V2000
  -30.2270  -24.3770   16.9680 C   0  0  0  0  0  3  0  0  0  0  0  0
  -30.7420  -23.1110   17.3180 C   0  0  0  0  0  3  0  0  0  0  0  0
  -29.4850  -25.1240   17.9040 C   0  0  0  0  0  3  0  0  0  0  0  0
  -29.7850  -23.3510   19.5430 C   0  0  0  0  0  3  0  0  0  0  0  0
  -30.5110  -22.5830   18.6060 C   0  0  0  0  0  0  0  0  0  0  0  0
  -29.2660  -24.6160   19.2030 C   0  0  0  0  0  0  0  0  0  0  0  0
  -31.0300  -21.1980   18.9790 C   0  0  0  0  0  2  0  0  0  0  0  0
  -29.9470  -20.3070   19.6190 C   0  0  0  0  0  2  0  0  0  0  0  0
  -30.3700  -18.8520   19.8390 C   0  0  0  0  0  0  0  0  0  0  0  0
  -29.3750  -17.9610   19.8940 N   0  0  0  0  0  0  0  0  0  0  0  0
  -31.5590  -18.5350   19.9190 O   0  0  0  0  0  0  0  0  0  0  0  0
  -28.4370  -18.3370   19.8240 H   0  0  0  0  0  0  0  0  0  0  0  0
  -29.5070  -16.5160   19.7220 C   0  0  0  0  0  2  0  0  0  0  0  0
  -29.9800  -15.7240   20.9700 C   0  0  0  0  0  2  0  0  0  0  0  0
  -30.6870  -14.4360   20.5160 C   0  0  0  0  0  0  0  0  0  0  0  0
  -30.3760  -12.2860   19.3740 C   0  0  0  0  0  2  0  0  0  0  0  0
  -29.4530  -12.5300   18.1600 C   0  0  0  0  0  2  0  0  0  0  0  0
  -27.9730  -12.3910   18.5680 C   0  0  0  0  0  2  0  0  0  0  0  0
  -27.6250  -13.2130   19.8360 C   0  0  0  0  0  3  0  0  0  0  0  0
  -28.6700  -12.9830   20.9520 C   0  0  0  0  0  2  0  0  0  0  0  0
  -30.0050  -13.2650   20.4060 N   0  0  0  0  0  0  0  0  0  0  0  0
  -31.8360  -14.5710   20.0850 O   0  0  0  0  0  0  0  0  0  0  0  0
  -25.2170  -13.8360   20.5020 C   0  0  0  0  0  0  0  0  0  0  0  0
  -24.1430  -13.0690   20.8650 C   0  0  0  0  0  0  0  0  0  0  0  0
  -24.6060  -11.7180   20.8590 C   0  0  0  0  0  0  0  0  0  0  0  0
  -26.2660  -12.9500   20.2990 N   0  0  0  0  0  0  0  0  0  0  0  0
  -25.9000  -11.6730   20.5680 N   0  0  0  0  0  0  0  0  0  0  0  0
  -23.8810  -10.4570   21.0560 C   0  0  0  0  0  0  0  0  0  0  0  0
  -24.3160   -9.4930   21.9920 C   0  0  0  0  0  3  0  0  0  0  0  0
  -23.5920   -8.2960   22.1740 C   0  0  0  0  0  3  0  0  0  0  0  0
  -22.4190   -8.0560   21.4220 C   0  0  0  0  0  0  0  0  0  0  0  0
  -22.0040   -9.0060   20.4730 C   0  0  0  0  0  3  0  0  0  0  0  0
  -22.7290  -10.1960   20.2890 C   0  0  0  0  0  3  0  0  0  0  0  0
  -21.6670   -6.9090   21.5130 O   0  0  0  0  0  0  0  0  0  0  0  0
  -21.6330   -6.1580   22.6610 C   0  0  0  0  0  0  0  0  0  0  0  0
  -21.2350   -6.7090   23.8980 C   0  0  0  0  0  3  0  0  0  0  0  0
  -21.1510   -5.8860   25.0390 C   0  0  0  0  0  3  0  0  0  0  0  0
  -21.4530   -4.5140   24.9430 C   0  0  0  0  0  0  0  0  0  0  0  0
  -21.8450   -3.9640   23.7100 C   0  0  0  0  0  3  0  0  0  0  0  0
  -21.9320   -4.7840   22.5720 C   0  0  0  0  0  0  0  0  0  0  0  0
  -22.2900   -4.2450   21.3810 F   0  0  0  0  0  0  0  0  0  0  0  0
  -21.3640   -3.7220   26.0370 F   0  0  0  0  0  0  0  0  0  0  0  0
  -22.7400  -13.5460   21.1120 C   0  0  0  0  0  0  0  0  0  0  0  0
  -22.0040  -12.8570   21.9770 N   0  0  0  0  0  0  0  0  0  0  0  0
  -22.3070  -14.5640   20.5740 O   0  0  0  0  0  0  0  0  0  0  0  0
  -22.3750  -12.0380   22.4360 H   0  0  0  0  0  0  0  0  0  0  0  0
  -21.0610  -13.1520   22.1820 H   0  0  0  0  0  0  0  0  0  0  0  0
  -25.3870  -15.2040   20.3090 N   0  0  0  0  0  0  0  0  0  0  0  0
  -24.6210  -15.8620   20.3990 H   0  0  0  0  0  0  0  0  0  0  0  0
  -26.2510  -15.6380   20.0100 H   0  0  0  0  0  0  0  0  0  0  0  0
  -28.4320  -25.3770   20.2250 C   0  0  0  0  0  2  0  0  0  0  0  0
  -28.4440  -26.7940   20.0340 O   0  0  0  0  0  0  0  0  0  0  0  0
  -24.6060  -31.8820   23.2160 C   0  0  0  0  0  0  0  0  0  0  0  0
  -27.2430  -27.4640   20.0890 C   0  0  0  0  0  0  0  0  0  0  0  0
  -23.3880  -30.4760   21.5860 C   0  0  0  0  0  3  0  0  0  0  0  0
  -24.8320  -28.9410   20.1500 C   0  0  0  0  0  0  0  0  0  0  0  0
  -25.9110  -30.8400   21.3700 C   0  0  0  0  0  2  0  0  0  0  0  0
  -25.9920  -29.4710   20.7260 C   0  0  0  0  0  0  0  0  0  0  0  0
  -27.2000  -28.7400   20.6920 C   0  0  0  0  0  3  0  0  0  0  0  0
  -26.0650  -26.9480   19.5020 C   0  0  0  0  0  3  0  0  0  0  0  0
  -24.8620  -27.6770   19.5370 C   0  0  0  0  0  3  0  0  0  0  0  0
  -23.5830  -29.7910   20.2080 C   0  0  0  0  0  2  0  0  0  0  0  0
  -24.6530  -31.0800   22.1160 N   0  0  0  0  0  0  0  0  0  0  0  0
  -23.5310  -32.1550   23.7660 O   0  0  0  0  0  0  0  0  0  0  0  0
  -22.7480  -29.4540   22.5520 C   0  0  0  0  0  0  0  0  0  0  0  0
  -21.4240  -29.2690   22.4340 N   0  0  0  0  0  0  0  0  0  0  0  0
  -23.4410  -28.8290   23.3600 O   0  0  0  0  0  0  0  0  0  0  0  0
  -20.9250  -29.8240   21.7530 H   0  0  0  0  0  0  0  0  0  0  0  0
  -18.0580  -28.0690   22.9510 C   0  0  0  0  0  0  0  0  0  0  0  0
  -20.6160  -28.3300   23.2090 C   0  0  0  0  0  3  0  0  0  0  0  0
  -20.7190  -26.8970   22.6320 C   0  0  0  0  0  2  0  0  0  0  0  0
  -19.6130  -26.5740   21.6240 C   0  0  0  0  0  2  0  0  0  0  0  0
  -18.2330  -26.7190   22.2750 C   0  0  0  0  0  2  0  0  0  0  0  0
  -19.1780  -28.8330   23.3740 C   0  0  0  0  0  0  0  0  0  0  0  0
  -18.9620  -30.1000   23.9590 C   0  0  0  0  0  3  0  0  0  0  0  0
  -17.6590  -30.6010   24.1310 C   0  0  0  0  0  3  0  0  0  0  0  0
  -16.5530  -29.8330   23.7270 C   0  0  0  0  0  3  0  0  0  0  0  0
  -16.7530  -28.5700   23.1430 C   0  0  0  0  0  3  0  0  0  0  0  0
  -25.9000  -32.5140   23.8220 C   0  0  0  0  0  3  0  0  0  0  0  0
  -25.5930  -33.9100   24.1640 N   0  0  0  0  0  0  0  0  0  0  0  0
  -25.9170  -34.9660   23.4050 C   0  0  0  0  0  0  0  0  0  0  0  0
  -26.5770  -34.8680   22.3670 O   0  0  0  0  0  0  0  0  0  0  0  0
  -25.0130  -34.0610   24.9760 H   0  0  0  0  0  0  0  0  0  0  0  0
  -24.1830  -36.7540   23.0700 C   0  0  0  0  0  1  0  0  0  0  0  0
  -25.4300  -36.3500   23.8730 C   0  0  0  0  0  3  0  0  0  0  0  0
  -27.5700  -37.2300   24.6960 C   0  0  0  0  0  1  0  0  0  0  0  0
  -26.4610  -37.4060   23.7620 N   0  0  0  0  0  0  0  0  0  0  0  0
  -26.0540  -38.3230   23.9270 H   0  0  0  0  0  0  0  0  0  0  0  0
  -26.4410  -31.7360   25.0830 C   0  0  1  0  0  0  0  0  0  0  0  0
  -25.3640  -31.4870   26.1650 C   0  0  0  0  0  1  0  0  0  0  0  0
  -27.0250  -30.3640   24.6710 C   0  0  0  0  0  1  0  0  0  0  0  0
  -27.6010  -32.5290   25.7330 C   0  0  0  0  0  1  0  0  0  0  0  0
  1  2  2  0
  1  3  1  0
  2  5  1  0
  3  6  2  0
  5  7  1  0
  5  4  2  0
  6  4  1  0
  6 51  1  0
  7  8  1  0
  8  9  1  0
  9 10  1  0
  9 11  2  0
 12 10  1  0
 13 10  1  0
 13 14  1  0
 15 14  1  0
 16 21  1  0
 17 18  1  0
 17 16  1  0
 19 18  1  0
 19 26  1  0
 19 20  1  0
 21 15  1  0
 21 20  1  0
 22 15  2  0
 23 24  2  0
 24 43  1  0
 25 24  1  0
 25 28  1  0
 26 23  1  0
 26 27  1  0
 27 25  2  0
 28 29  1  0
 29 30  2  0
 31 34  1  0
 31 30  1  0
 32 31  2  0
 33 32  1  0
 33 28  2  0
 34 35  1  0
 35 36  1  0
 36 37  2  0
 38 37  1  0
 38 42  1  0
 39 38  2  0
 40 35  2  0
 40 39  1  0
 41 40  1  0
 43 44  1  0
 44 47  1  0
 44 46  1  0
 45 43  2  0
 48 49  1  0
 48 23  1  0
 50 48  1  0
 52 54  1  0
 52 51  1  0
 53 64  2  0
 54 59  1  0
 55 63  1  0
 55 65  1  0
 56 62  1  0
 56 58  1  0
 57 63  1  0
 58 57  1  0
 59 58  2  0
 60 61  1  0
 60 54  2  0
 61 56  2  0
 62 55  1  0
 63 53  1  0
 65 67  2  0
 66 65  1  0
 68 66  1  0
 69 78  2  0
 69 74  1  0
 70 66  1  0
 70 74  1  0
 71 70  1  0
 72 73  1  0
 72 71  1  0
 73 69  1  0
 74 75  2  0
 75 76  1  0
 77 76  2  0
 78 77  1  0
 79 53  1  0
 79 80  1  0
 79 89  1  0
 80 83  1  0
 81 85  1  0
 81 80  1  0
 82 81  2  0
 85 84  1  0
 87 85  1  0
 87 88  1  0
 87 86  1  0
 89 92  1  1
 89 90  1  0
 91 89  1  0
M  ISO  4  14 100  15 100  51 101  52 101
M  END
>  <TORSDO>  (21) 
F 22

>  <SCORE>  (21) 
-12.988

>  <name>  (21) 
20

>  <ligand_id>  (21) 
20

>  <original_smiles>  (21) 
[H]c1c([H])c(C([H])([H])Oc2c([H])c([H])c3c(c2[H])C([H])([H])N(C(=O)C([H])(N([H])C(=O)C([H])(N([H])C([H])([H])[H])C([H])([H])[H])C(C([H])([H])[H])(C([H])([H])[H])C([H])([H])[H])C([H])(C(=O)N([H])C2([H])c4c([H])c([H])c([H])c([H])c4C([H])([H])C([H])([H])C2([H])[H])C3([H])[H])c([H])c(C([H])([H])C([H])([H])C(=O)N([H])C([H])([H])C([H])([H])C(=O)N2C([H])([H])C([H])([H])C([H])([H])C([H])(n3nc(-c4c([H])c([H])c(Oc5c([H])c([H])c(F)c([H])c5F)c([H])c4[H])c(C(=O)N([H])[H])c3N([H])[H])C2([H])[H])c1[H]

>  <smiles>  (21) 
[H]c1c([H])c(C([H])([H])Oc2c([H])c([H])c3c(c2[H])C([H])([H])N(C(=O)C([H])(N([H])C(=O)C([H])(N([H])C([H])([H])[H])C([H])([H])[H])C(C([H])([H])[H])(C([H])([H])[H])C([H])([H])[H])C([H])(C(=O)N([H])C2([H])c4c([H])c([H])c([H])c([H])c4C([H])([H])C([H])([H])C2([H])[H])C3([H])[H])c([H])c(C([H])([H])C([H])([H])C(=O)N([H])C([H])([H])C([H])([H])C(=O)N2C([H])([H])C([H])([H])C([H])([H])C([H])(n3nc(-c4c([H])c([H])c(Oc5c([H])c([H])c(F)c([H])c5F)c([H])c4[H])c(C(=O)N([H])[H])c3N([H])[H])C2([H])[H])c1[H]

$$$$
21:0:0
     RDKit          3D

 91100  0  0  1  0  0  0  0  0999 V2000
  -28.7910  -21.3680   20.9330 C   0  0  0  0  0  3  0  0  0  0  0  0
  -28.7590  -19.9980   21.2740 C   0  0  0  0  0  3  0  0  0  0  0  0
  -29.6780  -20.7030   18.7980 C   0  0  0  0  0  3  0  0  0  0  0  0
  -29.2340  -21.7420   19.6480 C   0  0  0  0  0  0  0  0  0  0  0  0
  -29.1690  -19.0270   20.3350 C   0  0  0  0  0  0  0  0  0  0  0  0
  -29.6330  -19.3850   19.1180 N   0  0  0  0  0  0  0  0  0  0  0  0
  -29.0710  -16.8830   21.8320 C   0  0  0  0  0  2  0  0  0  0  0  0
  -28.7970  -17.5670   20.5180 C   0  0  0  0  0  3  0  0  0  0  0  0
  -29.5990  -16.2420   20.5620 C   0  0  0  0  0  3  0  0  0  0  0  0
  -31.9500  -17.0890   20.0140 C   0  0  0  0  0  1  0  0  0  0  0  0
  -31.1110  -15.8810   20.4880 C   0  0  0  0  0  3  0  0  0  0  0  0
  -31.5710  -14.5540   19.7580 C   0  0  0  0  0  0  0  0  0  0  0  0
  -31.3060  -12.1850   19.0400 C   0  0  0  0  0  2  0  0  0  0  0  0
  -30.3580  -12.1000   17.8270 C   0  0  0  0  0  2  0  0  0  0  0  0
  -28.8850  -12.0510   18.2800 C   0  0  0  0  0  2  0  0  0  0  0  0
  -28.5540  -13.1400   19.3320 C   0  0  0  0  0  3  0  0  0  0  0  0
  -29.6070  -13.1150   20.4710 C   0  0  0  0  0  2  0  0  0  0  0  0
  -30.9140  -13.3580   19.8520 N   0  0  0  0  0  0  0  0  0  0  0  0
  -32.6200  -14.6110   19.1060 O   0  0  0  0  0  0  0  0  0  0  0  0
  -26.2150  -13.9700   20.0150 C   0  0  0  0  0  0  0  0  0  0  0  0
  -25.1030  -13.3020   20.4560 C   0  0  0  0  0  0  0  0  0  0  0  0
  -25.4670  -11.9230   20.5000 C   0  0  0  0  0  0  0  0  0  0  0  0
  -27.1910  -13.0020   19.8360 N   0  0  0  0  0  0  0  0  0  0  0  0
  -26.7420  -11.7690   20.1780 N   0  0  0  0  0  0  0  0  0  0  0  0
  -24.6550  -10.7290   20.7730 C   0  0  0  0  0  0  0  0  0  0  0  0
  -24.9810   -9.8400   21.8190 C   0  0  0  0  0  3  0  0  0  0  0  0
  -24.1750   -8.7100   22.0740 C   0  0  0  0  0  3  0  0  0  0  0  0
  -23.0310   -8.4610   21.2810 C   0  0  0  0  0  0  0  0  0  0  0  0
  -22.7240   -9.3380   20.2260 C   0  0  0  0  0  3  0  0  0  0  0  0
  -23.5300  -10.4580   19.9690 C   0  0  0  0  0  3  0  0  0  0  0  0
  -22.2040   -7.3770   21.4430 O   0  0  0  0  0  0  0  0  0  0  0  0
  -21.9750   -6.8230   22.6770 C   0  0  0  0  0  0  0  0  0  0  0  0
  -21.4500   -7.5790   23.7480 C   0  0  0  0  0  3  0  0  0  0  0  0
  -21.1650   -6.9550   24.9780 C   0  0  0  0  0  3  0  0  0  0  0  0
  -21.3970   -5.5760   25.1390 C   0  0  0  0  0  0  0  0  0  0  0  0
  -21.9150   -4.8200   24.0740 C   0  0  0  0  0  3  0  0  0  0  0  0
  -22.2010   -5.4420   22.8460 C   0  0  0  0  0  0  0  0  0  0  0  0
  -22.6810   -4.7040   21.8160 F   0  0  0  0  0  0  0  0  0  0  0  0
  -21.1170   -4.9750   26.3190 F   0  0  0  0  0  0  0  0  0  0  0  0
  -23.7510  -13.8960   20.7210 C   0  0  0  0  0  0  0  0  0  0  0  0
  -23.0010  -13.3150   21.6520 N   0  0  0  0  0  0  0  0  0  0  0  0
  -23.3690  -14.9070   20.1340 O   0  0  0  0  0  0  0  0  0  0  0  0
  -23.3190  -12.4910   22.1400 H   0  0  0  0  0  0  0  0  0  0  0  0
  -22.0930  -13.6950   21.8820 H   0  0  0  0  0  0  0  0  0  0  0  0
  -26.4640  -15.3080   19.7280 N   0  0  0  0  0  0  0  0  0  0  0  0
  -25.7050  -15.9840   19.7160 H   0  0  0  0  0  0  0  0  0  0  0  0
  -27.2780  -15.6220   19.2150 H   0  0  0  0  0  0  0  0  0  0  0  0
  -29.2260  -23.1960   19.1280 C   0  0  0  0  0  2  0  0  0  0  0  0
  -28.7150  -24.3390   20.0670 C   0  0  0  0  0  2  0  0  0  0  0  0
  -28.7470  -25.7450   19.3910 C   0  0  0  0  0  2  0  0  0  0  0  0
  -28.5090  -26.8720   20.2690 O   0  0  0  0  0  0  0  0  0  0  0  0
  -24.7080  -32.0060   23.4390 C   0  0  0  0  0  0  0  0  0  0  0  0
  -27.3160  -27.5800   20.2580 C   0  0  0  0  0  0  0  0  0  0  0  0
  -23.4850  -30.6370   21.7800 C   0  0  0  0  0  3  0  0  0  0  0  0
  -24.9210  -29.1090   20.3240 C   0  0  0  0  0  0  0  0  0  0  0  0
  -26.0120  -30.9790   21.5750 C   0  0  0  0  0  2  0  0  0  0  0  0
  -26.0850  -29.6150   20.9110 C   0  0  0  0  0  0  0  0  0  0  0  0
  -27.2800  -28.8580   20.8740 C   0  0  0  0  0  3  0  0  0  0  0  0
  -26.1220  -27.0860   19.6800 C   0  0  0  0  0  3  0  0  0  0  0  0
  -24.9360  -27.8450   19.7080 C   0  0  0  0  0  3  0  0  0  0  0  0
  -23.6830  -29.9760   20.3880 C   0  0  0  0  0  2  0  0  0  0  0  0
  -24.7530  -31.2230   22.3230 N   0  0  0  0  0  0  0  0  0  0  0  0
  -23.6310  -32.2770   23.9880 O   0  0  0  0  0  0  0  0  0  0  0  0
  -22.8300  -29.6070   22.7290 C   0  0  0  0  0  0  0  0  0  0  0  0
  -21.5180  -29.3860   22.5550 N   0  0  0  0  0  0  0  0  0  0  0  0
  -23.5040  -29.0090   23.5720 O   0  0  0  0  0  0  0  0  0  0  0  0
  -21.0430  -29.9210   21.8420 H   0  0  0  0  0  0  0  0  0  0  0  0
  -18.1840  -28.0100   22.8850 C   0  0  0  0  0  0  0  0  0  0  0  0
  -20.7030  -28.4210   23.2950 C   0  0  0  0  0  3  0  0  0  0  0  0
  -20.9240  -26.9880   22.7610 C   0  0  0  0  0  2  0  0  0  0  0  0
  -19.8920  -26.5540   21.7150 C   0  0  0  0  0  2  0  0  0  0  0  0
  -18.4710  -26.6490   22.2770 C   0  0  0  0  0  2  0  0  0  0  0  0
  -19.2320  -28.8470   23.3530 C   0  0  0  0  0  0  0  0  0  0  0  0
  -18.9060  -30.1150   23.8820 C   0  0  0  0  0  3  0  0  0  0  0  0
  -17.5690  -30.5500   23.9440 C   0  0  0  0  0  3  0  0  0  0  0  0
  -16.5360  -29.7120   23.4900 C   0  0  0  0  0  3  0  0  0  0  0  0
  -16.8450  -28.4450   22.9650 C   0  0  0  0  0  3  0  0  0  0  0  0
  -26.0000  -32.6190   24.0650 C   0  0  0  0  0  3  0  0  0  0  0  0
  -25.7000  -34.0110   24.4270 N   0  0  0  0  0  0  0  0  0  0  0  0
  -26.0170  -35.0750   23.6800 C   0  0  0  0  0  0  0  0  0  0  0  0
  -26.6650  -34.9920   22.6330 O   0  0  0  0  0  0  0  0  0  0  0  0
  -25.1170  -34.1500   25.2400 H   0  0  0  0  0  0  0  0  0  0  0  0
  -24.2790  -36.8730   23.3950 C   0  0  0  0  0  1  0  0  0  0  0  0
  -25.5400  -36.4560   24.1720 C   0  0  0  0  0  3  0  0  0  0  0  0
  -27.6890  -37.3310   24.9730 C   0  0  0  0  0  1  0  0  0  0  0  0
  -26.5690  -37.5120   24.0520 N   0  0  0  0  0  0  0  0  0  0  0  0
  -26.1680  -38.4310   24.2200 H   0  0  0  0  0  0  0  0  0  0  0  0
  -26.5220  -31.8180   25.3210 C   0  0  1  0  0  0  0  0  0  0  0  0
  -25.4290  -31.5440   26.3790 C   0  0  0  0  0  1  0  0  0  0  0  0
  -27.1180  -30.4580   24.8910 C   0  0  0  0  0  1  0  0  0  0  0  0
  -27.6650  -32.6060   26.0040 C   0  0  0  0  0  1  0  0  0  0  0  0
  1  2  1  0
  3  6  2  0
  3  4  1  0
  4  1  2  0
  5  2  2  0
  6  5  1  0
  8  5  1  0
  8  9  1  0
  8  7  1  0
  9 11  1  0
  9  7  1  0
 11 10  1  0
 12 18  1  0
 12 11  1  0
 13 18  1  0
 14 15  1  0
 14 13  1  0
 16 15  1  0
 16 23  1  0
 16 17  1  0
 18 17  1  0
 19 12  2  0
 20 21  2  0
 21 22  1  0
 21 40  1  0
 22 25  1  0
 23 20  1  0
 23 24  1  0
 24 22  2  0
 25 26  1  0
 26 27  2  0
 28 31  1  0
 28 27  1  0
 29 28  2  0
 30 29  1  0
 30 25  2  0
 31 32  1  0
 32 37  2  0
 32 33  1  0
 33 34  2  0
 34 35  1  0
 35 39  1  0
 36 35  2  0
 37 36  1  0
 38 37  1  0
 40 41  1  0
 41 44  1  0
 41 43  1  0
 42 40  2  0
 45 20  1  0
 46 45  1  0
 47 45  1  0
 48  4  1  0
 48 49  1  0
 50 49  1  0
 50 51  1  0
 52 63  2  0
 53 51  1  0
 53 58  1  0
 54 62  1  0
 54 64  1  0
 55 61  1  0
 55 57  1  0
 56 62  1  0
 57 56  1  0
 58 57  2  0
 59 60  1  0
 59 53  2  0
 60 55  2  0
 61 54  1  0
 62 52  1  0
 64 66  2  0
 65 64  1  0
 67 65  1  0
 68 77  2  0
 68 73  1  0
 69 65  1  0
 69 73  1  0
 70 69  1  0
 71 72  1  0
 71 70  1  0
 72 68  1  0
 73 74  2  0
 74 75  1  0
 76 75  2  0
 77 76  1  0
 78 52  1  0
 78 79  1  0
 78 88  1  0
 79 82  1  0
 80 84  1  0
 80 79  1  0
 81 80  2  0
 84 83  1  0
 86 84  1  0
 86 87  1  0
 86 85  1  0
 88 91  1  1
 88 89  1  0
 90 88  1  0
M  ISO  4  11 100  12 100  50 101  51 101
M  END
>  <TORSDO>  (22) 
F 21

>  <SCORE>  (22) 
-11.083

>  <name>  (22) 
21

>  <ligand_id>  (22) 
21

>  <original_smiles>  (22) 
[H]c1nc(C2([H])C([H])([H])C2([H])C([H])(C(=O)N2C([H])([H])C([H])([H])C([H])([H])C([H])(n3nc(-c4c([H])c([H])c(Oc5c([H])c([H])c(F)c([H])c5F)c([H])c4[H])c(C(=O)N([H])[H])c3N([H])[H])C2([H])[H])C([H])([H])[H])c([H])c([H])c1C([H])([H])C([H])([H])C([H])([H])Oc1c([H])c([H])c2c(c1[H])C([H])([H])N(C(=O)C([H])(N([H])C(=O)C([H])(N([H])C([H])([H])[H])C([H])([H])[H])C(C([H])([H])[H])(C([H])([H])[H])C([H])([H])[H])C([H])(C(=O)N([H])C1([H])c3c([H])c([H])c([H])c([H])c3C([H])([H])C([H])([H])C1([H])[H])C2([H])[H]

>  <smiles>  (22) 
[H]c1nc(C2([H])C([H])([H])C2([H])C([H])(C(=O)N2C([H])([H])C([H])([H])C([H])([H])C([H])(n3nc(-c4c([H])c([H])c(Oc5c([H])c([H])c(F)c([H])c5F)c([H])c4[H])c(C(=O)N([H])[H])c3N([H])[H])C2([H])[H])C([H])([H])[H])c([H])c([H])c1C([H])([H])C([H])([H])C([H])([H])Oc1c([H])c([H])c2c(c1[H])C([H])([H])N(C(=O)C([H])(N([H])C(=O)C([H])(N([H])C([H])([H])[H])C([H])([H])[H])C(C([H])([H])[H])(C([H])([H])[H])C([H])([H])[H])C([H])(C(=O)N([H])C1([H])c3c([H])c([H])c([H])c([H])c3C([H])([H])C([H])([H])C1([H])[H])C2([H])[H]

$$$$
22:0:0
     RDKit          3D

 90 98  0  0  1  0  0  0  0  0999 V2000
  -28.8540  -22.7360   20.2500 C   0  0  0  0  0  0  0  0  0  0  0  0
  -29.7570  -22.7120   21.0910 O   0  0  0  0  0  0  0  0  0  0  0  0
  -27.6600  -21.6020   18.2830 C   0  0  0  0  0  1  0  0  0  0  0  0
  -28.3160  -21.3840   19.6660 C   0  0  0  0  0  3  0  0  0  0  0  0
  -29.3550  -20.1910   19.5640 C   0  0  0  0  0  2  0  0  0  0  0  0
  -29.4880  -19.1790   20.7560 C   0  0  0  0  0  2  0  0  0  0  0  0
  -30.6370  -17.0230   21.4940 C   0  0  0  0  0  2  0  0  0  0  0  0
  -29.3290  -16.7900   19.8730 C   0  0  0  0  0  2  0  0  0  0  0  0
  -29.8170  -15.8210   20.9730 C   0  0  0  0  0  3  0  0  0  0  0  0
  -30.1720  -17.8830   20.3910 N   0  0  1  0  0  4  0  0  0  0  0  0
  -30.9520  -18.0580   19.7740 H   0  0  0  0  0  0  0  0  0  0  0  0
  -30.5960  -14.5590   20.4540 C   0  0  0  0  0  0  0  0  0  0  0  0
  -30.3550  -12.3600   19.3360 C   0  0  0  0  0  2  0  0  0  0  0  0
  -29.4070  -12.5470   18.1300 C   0  0  0  0  0  2  0  0  0  0  0  0
  -27.9290  -12.4110   18.5570 C   0  0  0  0  0  2  0  0  0  0  0  0
  -27.5940  -13.2490   19.8190 C   0  0  0  0  0  3  0  0  0  0  0  0
  -28.6500  -13.0200   20.9220 C   0  0  0  0  0  2  0  0  0  0  0  0
  -29.9690  -13.3480   20.3600 N   0  0  0  0  0  0  0  0  0  0  0  0
  -31.7370  -14.7210   20.0120 O   0  0  0  0  0  0  0  0  0  0  0  0
  -25.2020  -13.8760   20.5290 C   0  0  0  0  0  0  0  0  0  0  0  0
  -24.1290  -13.1140   20.9040 C   0  0  0  0  0  0  0  0  0  0  0  0
  -24.5800  -11.7590   20.8780 C   0  0  0  0  0  0  0  0  0  0  0  0
  -26.2400  -12.9850   20.2990 N   0  0  0  0  0  0  0  0  0  0  0  0
  -25.8690  -11.7080   20.5670 N   0  0  0  0  0  0  0  0  0  0  0  0
  -23.8440  -10.5040   21.0750 C   0  0  0  0  0  0  0  0  0  0  0  0
  -24.2890   -9.5230   21.9890 C   0  0  0  0  0  3  0  0  0  0  0  0
  -23.5540   -8.3310   22.1740 C   0  0  0  0  0  3  0  0  0  0  0  0
  -22.3620   -8.1130   21.4430 C   0  0  0  0  0  0  0  0  0  0  0  0
  -21.9370   -9.0820   20.5190 C   0  0  0  0  0  3  0  0  0  0  0  0
  -22.6710  -10.2650   20.3320 C   0  0  0  0  0  3  0  0  0  0  0  0
  -21.5970   -6.9750   21.5390 O   0  0  0  0  0  0  0  0  0  0  0  0
  -21.5870   -6.2070   22.6760 C   0  0  0  0  0  0  0  0  0  0  0  0
  -21.2410   -6.7450   23.9340 C   0  0  0  0  0  3  0  0  0  0  0  0
  -21.1760   -5.9050   25.0650 C   0  0  0  0  0  3  0  0  0  0  0  0
  -21.4470   -4.5290   24.9370 C   0  0  0  0  0  0  0  0  0  0  0  0
  -21.7860   -3.9910   23.6840 C   0  0  0  0  0  3  0  0  0  0  0  0
  -21.8530   -4.8280   22.5550 C   0  0  0  0  0  0  0  0  0  0  0  0
  -22.1600   -4.3020   21.3450 F   0  0  0  0  0  0  0  0  0  0  0  0
  -21.3770   -3.7220   26.0210 F   0  0  0  0  0  0  0  0  0  0  0  0
  -22.7360  -13.6030   21.1770 C   0  0  0  0  0  0  0  0  0  0  0  0
  -22.0050  -12.9190   22.0500 N   0  0  0  0  0  0  0  0  0  0  0  0
  -22.3050  -14.6290   20.6510 O   0  0  0  0  0  0  0  0  0  0  0  0
  -22.3660  -12.0890   22.4970 H   0  0  0  0  0  0  0  0  0  0  0  0
  -21.0700  -13.2290   22.2750 H   0  0  0  0  0  0  0  0  0  0  0  0
  -25.3770  -15.2440   20.3430 N   0  0  0  0  0  0  0  0  0  0  0  0
  -24.6100  -15.9010   20.4400 H   0  0  0  0  0  0  0  0  0  0  0  0
  -26.2200  -15.6700   19.9830 H   0  0  0  0  0  0  0  0  0  0  0  0
  -28.2500  -24.0990   19.7680 C   0  0  0  0  0  2  0  0  0  0  0  0
  -28.3990  -25.3340   20.7210 C   0  0  0  0  0  2  0  0  0  0  0  0
  -28.3950  -26.6490   20.1010 O   0  0  0  0  0  0  0  0  0  0  0  0
  -24.6220  -31.8810   23.2240 C   0  0  0  0  0  0  0  0  0  0  0  0
  -27.2270  -27.3930   20.1430 C   0  0  0  0  0  0  0  0  0  0  0  0
  -23.4000  -30.4780   21.5950 C   0  0  0  0  0  3  0  0  0  0  0  0
  -24.8390  -28.9270   20.1640 C   0  0  0  0  0  0  0  0  0  0  0  0
  -25.9260  -30.8250   21.3730 C   0  0  0  0  0  2  0  0  0  0  0  0
  -26.0050  -29.4480   20.7380 C   0  0  0  0  0  0  0  0  0  0  0  0
  -27.2050  -28.6920   20.7170 C   0  0  0  0  0  3  0  0  0  0  0  0
  -26.0430  -26.8920   19.5670 C   0  0  0  0  0  3  0  0  0  0  0  0
  -24.8540  -27.6490   19.5750 C   0  0  0  0  0  3  0  0  0  0  0  0
  -23.5980  -29.7910   20.2160 C   0  0  0  0  0  2  0  0  0  0  0  0
  -24.6680  -31.0770   22.1220 N   0  0  0  0  0  0  0  0  0  0  0  0
  -23.5460  -32.1550   23.7740 O   0  0  0  0  0  0  0  0  0  0  0  0
  -22.7530  -29.4620   22.5640 C   0  0  0  0  0  0  0  0  0  0  0  0
  -21.4270  -29.2830   22.4500 N   0  0  0  0  0  0  0  0  0  0  0  0
  -23.4420  -28.8380   23.3760 O   0  0  0  0  0  0  0  0  0  0  0  0
  -20.9310  -29.8380   21.7660 H   0  0  0  0  0  0  0  0  0  0  0  0
  -18.0570  -28.0850   22.9700 C   0  0  0  0  0  0  0  0  0  0  0  0
  -20.6160  -28.3470   23.2290 C   0  0  0  0  0  3  0  0  0  0  0  0
  -20.7180  -26.9150   22.6570 C   0  0  0  0  0  2  0  0  0  0  0  0
  -19.6110  -26.5870   21.6490 C   0  0  0  0  0  2  0  0  0  0  0  0
  -18.2330  -26.7320   22.3000 C   0  0  0  0  0  2  0  0  0  0  0  0
  -19.1760  -28.8500   23.3930 C   0  0  0  0  0  0  0  0  0  0  0  0
  -18.9590  -30.1160   23.9790 C   0  0  0  0  0  3  0  0  0  0  0  0
  -17.6550  -30.6170   24.1480 C   0  0  0  0  0  3  0  0  0  0  0  0
  -16.5500  -29.8490   23.7430 C   0  0  0  0  0  3  0  0  0  0  0  0
  -16.7510  -28.5850   23.1600 C   0  0  0  0  0  3  0  0  0  0  0  0
  -25.9140  -32.5120   23.8330 C   0  0  0  0  0  3  0  0  0  0  0  0
  -25.6060  -33.9050   24.1800 N   0  0  0  0  0  0  0  0  0  0  0  0
  -25.9230  -34.9650   23.4240 C   0  0  0  0  0  0  0  0  0  0  0  0
  -26.5780  -34.8730   22.3830 O   0  0  0  0  0  0  0  0  0  0  0  0
  -25.0230  -34.0510   24.9910 H   0  0  0  0  0  0  0  0  0  0  0  0
  -24.1800  -36.7520   23.1160 C   0  0  0  0  0  1  0  0  0  0  0  0
  -25.4380  -36.3480   23.9010 C   0  0  0  0  0  3  0  0  0  0  0  0
  -27.5850  -37.2350   24.6960 C   0  0  0  0  0  1  0  0  0  0  0  0
  -26.4630  -37.4070   23.7760 N   0  0  0  0  0  0  0  0  0  0  0  0
  -26.0560  -38.3230   23.9420 H   0  0  0  0  0  0  0  0  0  0  0  0
  -26.4540  -31.7290   25.0920 C   0  0  1  0  0  0  0  0  0  0  0  0
  -25.3800  -31.4770   26.1750 C   0  0  0  0  0  1  0  0  0  0  0  0
  -27.0320  -30.3570   24.6740 C   0  0  0  0  0  1  0  0  0  0  0  0
  -27.6160  -32.5180   25.7420 C   0  0  0  0  0  1  0  0  0  0  0  0
  1  2  2  0
  4  3  1  0
  4  1  1  0
  5  4  1  0
  5  6  1  0
  8 10  1  0
  8  9  1  0
  9 12  1  0
  9  7  1  0
 10  6  1  0
 10  7  1  0
 10 11  1  6
 13 18  1  0
 14 15  1  0
 14 13  1  0
 16 15  1  0
 16 23  1  0
 16 17  1  0
 18 12  1  0
 18 17  1  0
 19 12  2  0
 20 21  2  0
 21 40  1  0
 22 21  1  0
 22 25  1  0
 23 20  1  0
 23 24  1  0
 24 22  2  0
 25 26  1  0
 26 27  2  0
 28 31  1  0
 28 27  1  0
 29 28  2  0
 30 29  1  0
 30 25  2  0
 31 32  1  0
 32 33  1  0
 33 34  2  0
 35 34  1  0
 35 39  1  0
 36 35  2  0
 37 32  2  0
 37 36  1  0
 38 37  1  0
 40 41  1  0
 41 44  1  0
 41 43  1  0
 42 40  2  0
 45 46  1  0
 45 20  1  0
 47 45  1  0
 48  1  1  0
 48 49  1  0
 50 52  1  0
 50 49  1  0
 51 62  2  0
 52 57  1  0
 53 61  1  0
 53 63  1  0
 54 60  1  0
 54 56  1  0
 55 61  1  0
 56 55  1  0
 57 56  2  0
 58 59  1  0
 58 52  2  0
 59 54  2  0
 60 53  1  0
 61 51  1  0
 63 65  2  0
 64 63  1  0
 66 64  1  0
 67 76  2  0
 67 72  1  0
 68 64  1  0
 68 72  1  0
 69 68  1  0
 70 71  1  0
 70 69  1  0
 71 67  1  0
 72 73  2  0
 73 74  1  0
 75 74  2  0
 76 75  1  0
 77 51  1  0
 77 78  1  0
 77 87  1  0
 78 81  1  0
 79 83  1  0
 79 78  1  0
 80 79  2  0
 83 82  1  0
 85 83  1  0
 85 86  1  0
 85 84  1  0
 87 90  1  1
 87 88  1  0
 89 87  1  0
M  ISO  4   9 100  12 100  49 101  50 101
M  END
>  <TORSDO>  (23) 
F 22

>  <SCORE>  (23) 
-13.149

>  <name>  (23) 
22

>  <ligand_id>  (23) 
22

>  <original_smiles>  (23) 
[H]c1c([H])c([H])c2c(c1[H])C([H])([H])C([H])([H])C([H])([H])C2([H])N([H])C(=O)C1([H])N(C(=O)C([H])(N([H])C(=O)C([H])(N([H])C([H])([H])[H])C([H])([H])[H])C(C([H])([H])[H])(C([H])([H])[H])C([H])([H])[H])C([H])([H])c2c([H])c(OC([H])([H])C([H])([H])C(=O)C([H])(C([H])([H])[H])C([H])([H])C([H])([H])[N+]3([H])C([H])([H])C([H])(C(=O)N4C([H])([H])C([H])([H])C([H])([H])C([H])(n5nc(-c6c([H])c([H])c(Oc7c([H])c([H])c(F)c([H])c7F)c([H])c6[H])c(C(=O)N([H])[H])c5N([H])[H])C4([H])[H])C3([H])[H])c([H])c([H])c2C1([H])[H]

>  <smiles>  (23) 
[H]c1c([H])c([H])c2c(c1[H])C([H])([H])C([H])([H])C([H])([H])C2([H])N([H])C(=O)C1([H])N(C(=O)C([H])(N([H])C(=O)C([H])(N([H])C([H])([H])[H])C([H])([H])[H])C(C([H])([H])[H])(C([H])([H])[H])C([H])([H])[H])C([H])([H])c2c([H])c(OC([H])([H])C([H])([H])C(=O)C([H])(C([H])([H])[H])C([H])([H])C([H])([H])[N+]3([H])C([H])([H])C([H])(C(=O)N4C([H])([H])C([H])([H])C([H])([H])C([H])(n5nc(-c6c([H])c([H])c(Oc7c([H])c([H])c(F)c([H])c7F)c([H])c6[H])c(C(=O)N([H])[H])c5N([H])[H])C4([H])[H])C3([H])[H])c([H])c([H])c2C1([H])[H]

$$$$
23:0:0
     RDKit          3D

 93101  0  0  1  0  0  0  0  0999 V2000
  -26.6290  -21.6110   19.3590 C   0  0  0  0  0  3  0  0  0  0  0  0
  -28.8930  -21.4260   18.4720 C   0  0  0  0  0  3  0  0  0  0  0  0
  -26.5710  -22.9490   18.9350 C   0  0  0  0  0  3  0  0  0  0  0  0
  -28.8330  -22.7640   18.0420 C   0  0  0  0  0  3  0  0  0  0  0  0
  -27.8140  -20.8580   19.1930 C   0  0  0  0  0  0  0  0  0  0  0  0
  -27.6960  -23.5430   18.3330 C   0  0  0  0  0  0  0  0  0  0  0  0
  -27.8900  -19.5030   19.8080 C   0  0  0  0  0  0  0  0  0  0  0  0
  -26.9020  -18.7780   19.9620 O   0  0  0  0  0  0  0  0  0  0  0  0
  -29.2490  -18.9980   20.3110 C   0  0  0  0  0  2  0  0  0  0  0  0
  -29.4500  -17.5100   19.9890 C   0  0  0  0  0  2  0  0  0  0  0  0
  -30.9120  -17.0430   19.8590 C   0  0  0  0  0  2  0  0  0  0  0  0
  -30.9260  -15.5280   20.0660 C   0  0  0  0  0  2  0  0  0  0  0  0
  -32.6350  -13.7270   20.1370 C   0  0  0  0  0  0  0  0  0  0  0  0
  -32.2320  -11.2850   20.1780 C   0  0  0  0  0  2  0  0  0  0  0  0
  -31.3050  -10.8500   19.0260 C   0  0  0  0  0  2  0  0  0  0  0  0
  -29.8150  -11.0280   19.3950 C   0  0  0  0  0  2  0  0  0  0  0  0
  -29.5170  -12.4180   20.0120 C   0  0  0  0  0  3  0  0  0  0  0  0
  -30.5350  -12.6920   21.1440 C   0  0  0  0  0  2  0  0  0  0  0  0
  -31.8840  -12.6660   20.5540 N   0  0  0  0  0  0  0  0  0  0  0  0
  -33.7240  -13.5890   19.5730 O   0  0  0  0  0  0  0  0  0  0  0  0
  -32.2160  -14.9640   20.4630 N   0  0  0  0  0  0  0  0  0  0  0  0
  -32.9660  -15.6390   20.4290 H   0  0  0  0  0  0  0  0  0  0  0  0
  -27.3750  -13.6540   20.7470 C   0  0  0  0  0  0  0  0  0  0  0  0
  -26.1260  -13.1950   21.0730 C   0  0  0  0  0  0  0  0  0  0  0  0
  -26.1910  -11.7740   20.9620 C   0  0  0  0  0  0  0  0  0  0  0  0
  -28.1350  -12.5240   20.4720 N   0  0  0  0  0  0  0  0  0  0  0  0
  -27.4200  -11.3870   20.6510 N   0  0  0  0  0  0  0  0  0  0  0  0
  -25.1380  -10.7580   21.0760 C   0  0  0  0  0  0  0  0  0  0  0  0
  -25.2810   -9.6430   21.9310 C   0  0  0  0  0  3  0  0  0  0  0  0
  -24.2500   -8.6850   22.0350 C   0  0  0  0  0  3  0  0  0  0  0  0
  -23.0590   -8.8400   21.2840 C   0  0  0  0  0  0  0  0  0  0  0  0
  -22.9330   -9.9390   20.4180 C   0  0  0  0  0  3  0  0  0  0  0  0
  -23.9620  -10.8890   20.3110 C   0  0  0  0  0  3  0  0  0  0  0  0
  -22.0150   -7.9480   21.3040 O   0  0  0  0  0  0  0  0  0  0  0  0
  -21.7690   -7.1520   22.3930 C   0  0  0  0  0  0  0  0  0  0  0  0
  -21.5000   -7.6960   23.6690 C   0  0  0  0  0  3  0  0  0  0  0  0
  -21.1870   -6.8440   24.7460 C   0  0  0  0  0  3  0  0  0  0  0  0
  -21.1300   -5.4510   24.5480 C   0  0  0  0  0  0  0  0  0  0  0  0
  -21.3910   -4.9080   23.2780 C   0  0  0  0  0  3  0  0  0  0  0  0
  -21.7080   -5.7580   22.2040 C   0  0  0  0  0  0  0  0  0  0  0  0
  -21.9380   -5.2310   20.9760 F   0  0  0  0  0  0  0  0  0  0  0  0
  -20.8190   -4.6320   25.5800 F   0  0  0  0  0  0  0  0  0  0  0  0
  -24.9140  -14.0310   21.3740 C   0  0  0  0  0  0  0  0  0  0  0  0
  -24.0210  -13.5330   22.2220 N   0  0  0  0  0  0  0  0  0  0  0  0
  -24.7760  -15.1550   20.8940 O   0  0  0  0  0  0  0  0  0  0  0  0
  -24.1460  -12.6200   22.6350 H   0  0  0  0  0  0  0  0  0  0  0  0
  -23.2030  -14.0730   22.4630 H   0  0  0  0  0  0  0  0  0  0  0  0
  -27.9170  -14.9300   20.6400 N   0  0  0  0  0  0  0  0  0  0  0  0
  -27.3560  -15.7640   20.7760 H   0  0  0  0  0  0  0  0  0  0  0  0
  -28.8450  -15.1270   20.2900 H   0  0  0  0  0  0  0  0  0  0  0  0
  -27.7430  -25.0450   18.1700 C   0  0  0  0  0  2  0  0  0  0  0  0
  -28.0260  -25.6610   19.5530 C   0  0  0  0  0  2  0  0  0  0  0  0
  -28.1060  -27.0790   19.5360 O   0  0  0  0  0  0  0  0  0  0  0  0
  -24.5410  -31.8370   23.4160 C   0  0  0  0  0  0  0  0  0  0  0  0
  -26.9190  -27.7540   19.7070 C   0  0  0  0  0  0  0  0  0  0  0  0
  -23.2090  -30.6340   21.7130 C   0  0  0  0  0  3  0  0  0  0  0  0
  -24.5410  -29.2350   20.0530 C   0  0  0  0  0  0  0  0  0  0  0  0
  -25.7210  -30.9880   21.3930 C   0  0  0  0  0  2  0  0  0  0  0  0
  -25.7410  -29.6940   20.6090 C   0  0  0  0  0  0  0  0  0  0  0  0
  -26.9330  -28.9650   20.4260 C   0  0  0  0  0  3  0  0  0  0  0  0
  -25.6960  -27.2900   19.1680 C   0  0  0  0  0  3  0  0  0  0  0  0
  -24.5120  -28.0310   19.3300 C   0  0  0  0  0  3  0  0  0  0  0  0
  -23.3190  -30.0960   20.2610 C   0  0  0  0  0  2  0  0  0  0  0  0
  -24.5130  -31.1600   22.2330 N   0  0  0  0  0  0  0  0  0  0  0  0
  -23.5020  -32.0630   24.0490 O   0  0  0  0  0  0  0  0  0  0  0  0
  -22.5970  -29.5260   22.5990 C   0  0  0  0  0  0  0  0  0  0  0  0
  -21.2900  -29.2760   22.4250 N   0  0  0  0  0  0  0  0  0  0  0  0
  -23.2970  -28.8940   23.3950 O   0  0  0  0  0  0  0  0  0  0  0  0
  -20.7810  -29.8390   21.7580 H   0  0  0  0  0  0  0  0  0  0  0  0
  -18.0240  -27.7470   22.6290 C   0  0  0  0  0  0  0  0  0  0  0  0
  -20.5110  -28.2530   23.1220 C   0  0  0  0  0  3  0  0  0  0  0  0
  -20.8040  -26.8450   22.5520 C   0  0  0  0  0  2  0  0  0  0  0  0
  -19.8300  -26.4280   21.4450 C   0  0  0  0  0  2  0  0  0  0  0  0
  -18.3910  -26.4280   21.9690 C   0  0  0  0  0  2  0  0  0  0  0  0
  -19.0200  -28.6100   23.1570 C   0  0  0  0  0  0  0  0  0  0  0  0
  -18.6290  -29.8410   23.7280 C   0  0  0  0  0  3  0  0  0  0  0  0
  -17.2710  -30.2100   23.7820 C   0  0  0  0  0  3  0  0  0  0  0  0
  -16.2890  -29.3450   23.2720 C   0  0  0  0  0  3  0  0  0  0  0  0
  -16.6650  -28.1160   22.7000 C   0  0  0  0  0  3  0  0  0  0  0  0
  -25.8760  -32.3780   24.0160 C   0  0  0  0  0  3  0  0  0  0  0  0
  -25.6490  -33.7700   24.4210 N   0  0  0  0  0  0  0  0  0  0  0  0
  -25.9860  -34.8390   23.6860 C   0  0  0  0  0  0  0  0  0  0  0  0
  -26.5950  -34.7520   22.6170 O   0  0  0  0  0  0  0  0  0  0  0  0
  -25.1070  -33.9160   25.2600 H   0  0  0  0  0  0  0  0  0  0  0  0
  -24.3050  -36.6990   23.5070 C   0  0  0  0  0  1  0  0  0  0  0  0
  -25.5790  -36.2240   24.2230 C   0  0  0  0  0  3  0  0  0  0  0  0
  -27.7950  -37.0000   24.9430 C   0  0  0  0  0  1  0  0  0  0  0  0
  -26.6410  -37.2440   24.0820 N   0  0  0  0  0  0  0  0  0  0  0  0
  -26.2810  -38.1720   24.2890 H   0  0  0  0  0  0  0  0  0  0  0  0
  -26.4040  -31.5210   25.2320 C   0  0  1  0  0  0  0  0  0  0  0  0
  -25.3350  -31.2610   26.3190 C   0  0  0  0  0  1  0  0  0  0  0  0
  -26.9230  -30.1500   24.7460 C   0  0  0  0  0  1  0  0  0  0  0  0
  -27.6040  -32.2350   25.8980 C   0  0  0  0  0  1  0  0  0  0  0  0
  2  5  2  0
  3  1  2  0
  4  6  2  0
  4  2  1  0
  5  1  1  0
  5  7  1  0
  6  3  1  0
  7  8  2  0
  7  9  1  0
 10  9  1  0
 11 10  1  0
 11 12  1  0
 12 21  1  0
 13 21  1  0
 13 19  1  0
 14 19  1  0
 15 16  1  0
 15 14  1  0
 17 16  1  0
 17 26  1  0
 17 18  1  0
 19 18  1  0
 20 13  2  0
 22 21  1  0
 23 24  2  0
 24 43  1  0
 25 24  1  0
 25 28  1  0
 26 27  1  0
 26 23  1  0
 27 25  2  0
 28 29  1  0
 29 30  2  0
 31 34  1  0
 31 30  1  0
 32 31  2  0
 33 32  1  0
 33 28  2  0
 34 35  1  0
 35 36  1  0
 36 37  2  0
 38 37  1  0
 38 42  1  0
 39 38  2  0
 40 35  2  0
 40 39  1  0
 41 40  1  0
 43 44  1  0
 44 47  1  0
 44 46  1  0
 45 43  2  0
 48 23  1  0
 48 49  1  0
 50 48  1  0
 51  6  1  0
 51 52  1  0
 53 52  1  0
 53 55  1  0
 54 65  2  0
 55 60  1  0
 56 64  1  0
 56 66  1  0
 57 63  1  0
 57 59  1  0
 58 64  1  0
 59 58  1  0
 60 59  2  0
 61 62  1  0
 61 55  2  0
 62 57  2  0
 63 56  1  0
 64 54  1  0
 66 68  2  0
 67 66  1  0
 69 67  1  0
 70 79  2  0
 70 75  1  0
 71 67  1  0
 71 75  1  0
 72 71  1  0
 73 74  1  0
 73 72  1  0
 74 70  1  0
 75 76  2  0
 76 77  1  0
 78 77  2  0
 79 78  1  0
 80 54  1  0
 80 81  1  0
 80 90  1  0
 81 84  1  0
 82 86  1  0
 82 81  1  0
 83 82  2  0
 86 85  1  0
 88 86  1  0
 88 89  1  0
 88 87  1  0
 90 93  1  1
 90 91  1  0
 92 90  1  0
M  ISO  4  13 100  21 100  52 101  53 101
M  END
>  <TORSDO>  (24) 
F 23

>  <SCORE>  (24) 
-11.112

>  <name>  (24) 
23

>  <ligand_id>  (24) 
23

>  <original_smiles>  (24) 
[H]c1c([H])c([H])c2c(c1[H])C([H])([H])C([H])([H])C([H])([H])C2([H])N([H])C(=O)C1([H])N(C(=O)C([H])(N([H])C(=O)C([H])(N([H])C([H])([H])[H])C([H])([H])[H])C(C([H])([H])[H])(C([H])([H])[H])C([H])([H])[H])C([H])([H])c2c([H])c(OC([H])([H])C([H])([H])c3c([H])c([H])c(C(=O)C([H])([H])C([H])([H])C([H])([H])C([H])([H])N([H])C(=O)N4C([H])([H])C([H])([H])C([H])([H])C([H])(n5nc(-c6c([H])c([H])c(Oc7c([H])c([H])c(F)c([H])c7F)c([H])c6[H])c(C(=O)N([H])[H])c5N([H])[H])C4([H])[H])c([H])c3[H])c([H])c([H])c2C1([H])[H]

>  <smiles>  (24) 
[H]c1c([H])c([H])c2c(c1[H])C([H])([H])C([H])([H])C([H])([H])C2([H])N([H])C(=O)C1([H])N(C(=O)C([H])(N([H])C(=O)C([H])(N([H])C([H])([H])[H])C([H])([H])[H])C(C([H])([H])[H])(C([H])([H])[H])C([H])([H])[H])C([H])([H])c2c([H])c(OC([H])([H])C([H])([H])c3c([H])c([H])c(C(=O)C([H])([H])C([H])([H])C([H])([H])C([H])([H])N([H])C(=O)N4C([H])([H])C([H])([H])C([H])([H])C([H])(n5nc(-c6c([H])c([H])c(Oc7c([H])c([H])c(F)c([H])c7F)c([H])c6[H])c(C(=O)N([H])[H])c5N([H])[H])C4([H])[H])c([H])c3[H])c([H])c([H])c2C1([H])[H]

$$$$
24:0:0
     RDKit          3D

 91 99  0  0  1  0  0  0  0  0999 V2000
  -28.3920  -21.5540   20.4750 C   0  0  0  0  0  2  0  0  0  0  0  0
  -28.7870  -23.6730   18.8630 C   0  0  0  0  0  2  0  0  0  0  0  0
  -28.9950  -22.9330   20.1630 C   0  0  0  0  0  3  0  0  0  0  0  0
  -28.0960  -24.1770   20.1120 C   0  0  0  0  0  3  0  0  0  0  0  0
  -28.4910  -25.4930   20.8000 C   0  0  0  0  0  2  0  0  0  0  0  0
  -28.4170  -26.6860   19.9950 O   0  0  0  0  0  0  0  0  0  0  0  0
  -24.5430  -31.7850   23.1830 C   0  0  0  0  0  0  0  0  0  0  0  0
  -27.2380  -27.4010   20.0550 C   0  0  0  0  0  0  0  0  0  0  0  0
  -23.3520  -30.3840   21.5260 C   0  0  0  0  0  3  0  0  0  0  0  0
  -24.8230  -28.8750   20.0880 C   0  0  0  0  0  0  0  0  0  0  0  0
  -25.8720  -30.7740   21.3330 C   0  0  0  0  0  2  0  0  0  0  0  0
  -25.9750  -29.4100   20.6780 C   0  0  0  0  0  0  0  0  0  0  0  0
  -27.1890  -28.6820   20.6550 C   0  0  0  0  0  3  0  0  0  0  0  0
  -26.0700  -26.8780   19.4660 C   0  0  0  0  0  3  0  0  0  0  0  0
  -24.8650  -27.6060   19.4810 C   0  0  0  0  0  3  0  0  0  0  0  0
  -23.5690  -29.7180   20.1410 C   0  0  0  0  0  2  0  0  0  0  0  0
  -24.6060  -30.9970   22.0720 N   0  0  0  0  0  0  0  0  0  0  0  0
  -23.4610  -32.0360   23.7300 O   0  0  0  0  0  0  0  0  0  0  0  0
  -22.7150  -29.3470   22.4780 C   0  0  0  0  0  0  0  0  0  0  0  0
  -21.4020  -29.1130   22.3170 N   0  0  0  0  0  0  0  0  0  0  0  0
  -23.4000  -28.7540   23.3160 O   0  0  0  0  0  0  0  0  0  0  0  0
  -20.9130  -29.6430   21.6100 H   0  0  0  0  0  0  0  0  0  0  0  0
  -18.0760  -27.7550   22.6960 C   0  0  0  0  0  0  0  0  0  0  0  0
  -20.6030  -28.1480   23.0700 C   0  0  0  0  0  3  0  0  0  0  0  0
  -20.8030  -26.7160   22.5240 C   0  0  0  0  0  2  0  0  0  0  0  0
  -19.7630  -26.3210   21.4710 C   0  0  0  0  0  2  0  0  0  0  0  0
  -18.3480  -26.4050   22.0540 C   0  0  0  0  0  2  0  0  0  0  0  0
  -19.1350  -28.5800   23.1590 C   0  0  0  0  0  0  0  0  0  0  0  0
  -18.8280  -29.8400   23.7160 C   0  0  0  0  0  3  0  0  0  0  0  0
  -17.4940  -30.2790   23.8150 C   0  0  0  0  0  3  0  0  0  0  0  0
  -16.4490  -29.4520   23.3700 C   0  0  0  0  0  3  0  0  0  0  0  0
  -16.7400  -28.1930   22.8170 C   0  0  0  0  0  3  0  0  0  0  0  0
  -25.8250  -32.4220   23.8080 C   0  0  0  0  0  3  0  0  0  0  0  0
  -25.5030  -33.8160   24.1460 N   0  0  0  0  0  0  0  0  0  0  0  0
  -25.8310  -34.8750   23.3960 C   0  0  0  0  0  0  0  0  0  0  0  0
  -26.5080  -34.7820   22.3680 O   0  0  0  0  0  0  0  0  0  0  0  0
  -24.8980  -33.9610   24.9420 H   0  0  0  0  0  0  0  0  0  0  0  0
  -24.0860  -36.6500   23.0430 C   0  0  0  0  0  1  0  0  0  0  0  0
  -25.3290  -36.2550   23.8580 C   0  0  0  0  0  3  0  0  0  0  0  0
  -27.4510  -37.1600   24.6980 C   0  0  0  0  0  1  0  0  0  0  0  0
  -26.3500  -37.3190   23.7500 N   0  0  0  0  0  0  0  0  0  0  0  0
  -25.9350  -38.2350   23.8960 H   0  0  0  0  0  0  0  0  0  0  0  0
  -26.3470  -31.6470   25.0800 C   0  0  1  0  0  0  0  0  0  0  0  0
  -25.2530  -31.3820   26.1390 C   0  0  0  0  0  1  0  0  0  0  0  0
  -26.9550  -30.2820   24.6790 C   0  0  0  0  0  1  0  0  0  0  0  0
  -27.4790  -32.4540   25.7560 C   0  0  0  0  0  1  0  0  0  0  0  0
  -28.1470  -19.7160   18.7480 C   0  0  0  0  0  1  0  0  0  0  0  0
  -29.0830  -20.2970   19.8270 C   0  0  0  0  0  3  0  0  0  0  0  0
  -30.9780  -19.5820   21.3990 C   0  0  0  0  0  1  0  0  0  0  0  0
  -29.5450  -19.2660   20.9320 C   0  0  0  0  0  3  0  0  0  0  0  0
  -29.3960  -17.7360   20.7000 C   0  0  0  0  0  0  0  0  0  0  0  0
  -28.4330  -17.1240   21.2490 N   0  0  0  0  0  0  0  0  0  0  0  0
  -27.8550  -17.7520   21.7980 H   0  0  0  0  0  0  0  0  0  0  0  0
  -30.3610  -16.9700   19.8710 C   0  0  0  0  0  3  0  0  0  0  0  0
  -30.4160  -15.6060   19.8980 C   0  0  0  0  0  3  0  0  0  0  0  0
  -31.2010  -14.4140   19.5190 C   0  0  0  0  0  0  0  0  0  0  0  0
  -30.7660  -12.1690   18.6040 C   0  0  0  0  0  2  0  0  0  0  0  0
  -29.7450  -12.3450   17.4610 C   0  0  0  0  0  2  0  0  0  0  0  0
  -28.3050  -12.2770   18.0080 C   0  0  0  0  0  2  0  0  0  0  0  0
  -28.0920  -13.2040   19.2370 C   0  0  0  0  0  3  0  0  0  0  0  0
  -29.2270  -13.0300   20.2680 C   0  0  0  0  0  2  0  0  0  0  0  0
  -30.5110  -13.2400   19.5790 N   0  0  0  0  0  0  0  0  0  0  0  0
  -32.3500  -14.4620   19.0550 O   0  0  0  0  0  0  0  0  0  0  0  0
  -25.8310  -13.9510   20.2070 C   0  0  0  0  0  0  0  0  0  0  0  0
  -24.7490  -13.2430   20.6550 C   0  0  0  0  0  0  0  0  0  0  0  0
  -25.1040  -11.8650   20.5410 C   0  0  0  0  0  0  0  0  0  0  0  0
  -26.7790  -13.0070   19.8470 N   0  0  0  0  0  0  0  0  0  0  0  0
  -26.3510  -11.7450   20.1030 N   0  0  0  0  0  0  0  0  0  0  0  0
  -24.3100  -10.6520   20.7700 C   0  0  0  0  0  0  0  0  0  0  0  0
  -24.6830   -9.6940   21.7390 C   0  0  0  0  0  3  0  0  0  0  0  0
  -23.8910   -8.5440   21.9500 C   0  0  0  0  0  3  0  0  0  0  0  0
  -22.7120   -8.3480   21.1930 C   0  0  0  0  0  0  0  0  0  0  0  0
  -22.3570   -9.2930   20.2150 C   0  0  0  0  0  3  0  0  0  0  0  0
  -23.1480  -10.4340   20.0020 C   0  0  0  0  0  3  0  0  0  0  0  0
  -21.8940   -7.2500   21.3120 O   0  0  0  0  0  0  0  0  0  0  0  0
  -21.7010   -6.6240   22.5170 C   0  0  0  0  0  0  0  0  0  0  0  0
  -21.1920   -7.3100   23.6410 C   0  0  0  0  0  3  0  0  0  0  0  0
  -20.9440   -6.6120   24.8390 C   0  0  0  0  0  3  0  0  0  0  0  0
  -21.1930   -5.2280   24.9130 C   0  0  0  0  0  0  0  0  0  0  0  0
  -21.6930   -4.5420   23.7930 C   0  0  0  0  0  3  0  0  0  0  0  0
  -21.9440   -5.2380   22.5970 C   0  0  0  0  0  0  0  0  0  0  0  0
  -22.4070   -4.5680   21.5150 F   0  0  0  0  0  0  0  0  0  0  0  0
  -20.9460   -4.5560   26.0610 F   0  0  0  0  0  0  0  0  0  0  0  0
  -23.4280  -13.8110   21.0860 C   0  0  0  0  0  0  0  0  0  0  0  0
  -22.7530  -13.1560   22.0260 N   0  0  0  0  0  0  0  0  0  0  0  0
  -23.0070  -14.8710   20.6240 O   0  0  0  0  0  0  0  0  0  0  0  0
  -23.1090  -12.3000   22.4240 H   0  0  0  0  0  0  0  0  0  0  0  0
  -21.8740  -13.5230   22.3590 H   0  0  0  0  0  0  0  0  0  0  0  0
  -26.0820  -15.3110   20.0630 N   0  0  0  0  0  0  0  0  0  0  0  0
  -25.4050  -16.0070   20.3530 H   0  0  0  0  0  0  0  0  0  0  0  0
  -27.0130  -15.6970   19.9460 H   0  0  0  0  0  0  0  0  0  0  0  0
  2  4  1  0
  2  3  1  0
  3  1  1  0
  4  3  1  0
  4  5  1  0
  6  8  1  0
  6  5  1  0
  7 18  2  0
  8 13  1  0
  9 17  1  0
  9 19  1  0
 10 16  1  0
 10 12  1  0
 11 17  1  0
 12 11  1  0
 13 12  2  0
 14 15  1  0
 14  8  2  0
 15 10  2  0
 16  9  1  0
 17  7  1  0
 19 21  2  0
 20 19  1  0
 22 20  1  0
 23 32  2  0
 23 28  1  0
 24 20  1  0
 24 28  1  0
 25 24  1  0
 26 27  1  0
 26 25  1  0
 27 23  1  0
 28 29  2  0
 29 30  1  0
 31 30  2  0
 32 31  1  0
 33  7  1  0
 33 34  1  0
 33 43  1  0
 34 37  1  0
 35 39  1  0
 35 34  1  0
 36 35  2  0
 39 38  1  0
 41 39  1  0
 41 42  1  0
 41 40  1  0
 43 46  1  1
 43 44  1  0
 45 43  1  0
 48 47  1  0
 48  1  1  0
 48 50  1  0
 50 49  1  0
 51 50  1  0
 51 52  2  0
 52 53  1  0
 54 55  2  0
 54 51  1  0
 56 62  1  0
 56 55  1  0
 57 62  1  0
 58 59  1  0
 58 57  1  0
 60 59  1  0
 60 67  1  0
 60 61  1  0
 62 61  1  0
 63 56  2  0
 64 65  2  0
 65 84  1  0
 66 65  1  0
 66 69  1  0
 67 68  1  0
 67 64  1  0
 68 66  2  0
 69 70  1  0
 70 71  2  0
 72 75  1  0
 72 71  1  0
 73 72  2  0
 74 73  1  0
 74 69  2  0
 75 76  1  0
 76 81  2  0
 76 77  1  0
 77 78  2  0
 78 79  1  0
 79 83  1  0
 80 79  2  0
 81 80  1  0
 82 81  1  0
 84 85  1  0
 85 88  1  0
 85 87  1  0
 86 84  2  0
 89 64  1  0
 89 90  1  0
 91 89  1  0
M  ISO  4   5 101   6 101  55 100  56 100
M  END
>  <TORSDO>  (25) 
F 22

>  <SCORE>  (25) 
-12.227

>  <name>  (25) 
24

>  <ligand_id>  (25) 
24

>  <original_smiles>  (25) 
[H]N=C(C([H])=C([H])C(=O)N1C([H])([H])C([H])([H])C([H])([H])C([H])(n2nc(-c3c([H])c([H])c(Oc4c([H])c([H])c(F)c([H])c4F)c([H])c3[H])c(C(=O)N([H])[H])c2N([H])[H])C1([H])[H])C([H])(C([H])([H])[H])C([H])(C([H])([H])[H])C([H])([H])C1([H])C([H])([H])C1([H])C([H])([H])Oc1c([H])c([H])c2c(c1[H])C([H])([H])N(C(=O)C([H])(N([H])C(=O)C([H])(N([H])C([H])([H])[H])C([H])([H])[H])C(C([H])([H])[H])(C([H])([H])[H])C([H])([H])[H])C([H])(C(=O)N([H])C1([H])c3c([H])c([H])c([H])c([H])c3C([H])([H])C([H])([H])C1([H])[H])C2([H])[H]

>  <smiles>  (25) 
[H]N=C(C([H])=C([H])C(=O)N1C([H])([H])C([H])([H])C([H])([H])C([H])(n2nc(-c3c([H])c([H])c(Oc4c([H])c([H])c(F)c([H])c4F)c([H])c3[H])c(C(=O)N([H])[H])c2N([H])[H])C1([H])[H])C([H])(C([H])([H])[H])C([H])(C([H])([H])[H])C([H])([H])C1([H])C([H])([H])C1([H])C([H])([H])Oc1c([H])c([H])c2c(c1[H])C([H])([H])N(C(=O)C([H])(N([H])C(=O)C([H])(N([H])C([H])([H])[H])C([H])([H])[H])C(C([H])([H])[H])(C([H])([H])[H])C([H])([H])[H])C([H])(C(=O)N([H])C1([H])c3c([H])c([H])c([H])c([H])c3C([H])([H])C([H])([H])C1([H])[H])C2([H])[H]

$$$$
25:0:0
     RDKit          3D

 90 98  0  0  1  0  0  0  0  0999 V2000
  -30.0860  -21.5350   20.3800 C   0  0  0  0  0  3  0  0  0  0  0  0
  -28.2970  -19.8860   21.2350 C   0  0  0  0  0  1  0  0  0  0  0  0
  -29.5580  -20.0160   20.3570 C   0  0  0  0  0  3  0  0  0  0  0  0
  -30.5790  -18.8370   20.7720 C   0  0  0  0  0  2  0  0  0  0  0  0
  -31.8650  -17.6330   18.8140 C   0  0  0  0  0  2  0  0  0  0  0  0
  -30.4400  -17.6810   18.3720 C   0  0  0  0  0  3  0  0  0  0  0  0
  -30.7580  -17.5470   19.8670 C   0  0  2  0  0  0  0  0  0  0  0  0
  -29.8370  -16.5470   17.5760 C   0  0  0  0  0  1  0  0  0  0  0  0
  -31.2610  -15.0700   20.5030 C   0  0  0  0  0  0  0  0  0  0  0  0
  -31.0530  -12.7430   19.6470 C   0  0  0  0  0  2  0  0  0  0  0  0
  -30.2050  -12.7480   18.3580 C   0  0  0  0  0  2  0  0  0  0  0  0
  -28.6960  -12.6940   18.6800 C   0  0  0  0  0  2  0  0  0  0  0  0
  -28.2700  -13.6400   19.8380 C   0  0  0  0  0  3  0  0  0  0  0  0
  -29.2590  -13.5920   21.0240 C   0  0  0  0  0  2  0  0  0  0  0  0
  -30.6000  -13.8660   20.4950 N   0  0  0  0  0  0  0  0  0  0  0  0
  -32.4690  -15.1130   20.2570 O   0  0  0  0  0  0  0  0  0  0  0  0
  -30.4990  -16.2190   20.5120 N   0  0  0  0  0  0  0  0  0  0  0  0
  -29.5390  -16.0730   20.7850 H   0  0  0  0  0  0  0  0  0  0  0  0
  -25.8690  -14.3040   20.4620 C   0  0  0  0  0  0  0  0  0  0  0  0
  -24.7600  -13.5620   20.7680 C   0  0  0  0  0  0  0  0  0  0  0  0
  -25.1770  -12.1950   20.7350 C   0  0  0  0  0  0  0  0  0  0  0  0
  -26.8920  -13.3940   20.2590 N   0  0  0  0  0  0  0  0  0  0  0  0
  -26.4800  -12.1180   20.4880 N   0  0  0  0  0  0  0  0  0  0  0  0
  -24.4000  -10.9550   20.8650 C   0  0  0  0  0  0  0  0  0  0  0  0
  -24.7420   -9.9660   21.8120 C   0  0  0  0  0  3  0  0  0  0  0  0
  -23.9670   -8.7930   21.9340 C   0  0  0  0  0  3  0  0  0  0  0  0
  -22.8370   -8.6000   21.1070 C   0  0  0  0  0  0  0  0  0  0  0  0
  -22.5130   -9.5790   20.1490 C   0  0  0  0  0  3  0  0  0  0  0  0
  -23.2890  -10.7430   20.0250 C   0  0  0  0  0  3  0  0  0  0  0  0
  -22.0390   -7.4810   21.1370 O   0  0  0  0  0  0  0  0  0  0  0  0
  -21.8640   -6.7530   22.2850 C   0  0  0  0  0  0  0  0  0  0  0  0
  -21.2750   -7.3130   23.4410 C   0  0  0  0  0  3  0  0  0  0  0  0
  -21.0520   -6.5090   24.5770 C   0  0  0  0  0  3  0  0  0  0  0  0
  -21.4030   -5.1470   24.5580 C   0  0  0  0  0  0  0  0  0  0  0  0
  -21.9800   -4.5850   23.4040 C   0  0  0  0  0  3  0  0  0  0  0  0
  -22.2070   -5.3870   22.2710 C   0  0  0  0  0  0  0  0  0  0  0  0
  -22.7460   -4.8350   21.1580 F   0  0  0  0  0  0  0  0  0  0  0  0
  -21.1810   -4.3720   25.6450 F   0  0  0  0  0  0  0  0  0  0  0  0
  -23.3690  -14.0830   20.9800 C   0  0  0  0  0  0  0  0  0  0  0  0
  -22.5780  -13.4030   21.8050 N   0  0  0  0  0  0  0  0  0  0  0  0
  -22.9880  -15.1260   20.4500 O   0  0  0  0  0  0  0  0  0  0  0  0
  -22.8960  -12.5580   22.2550 H   0  0  0  0  0  0  0  0  0  0  0  0
  -21.6410  -13.7320   21.9850 H   0  0  0  0  0  0  0  0  0  0  0  0
  -26.0840  -15.6720   20.3170 N   0  0  0  0  0  0  0  0  0  0  0  0
  -25.3260  -16.3430   20.3970 H   0  0  0  0  0  0  0  0  0  0  0  0
  -26.9580  -16.0950   20.0310 H   0  0  0  0  0  0  0  0  0  0  0  0
  -29.0130  -22.7270   20.3590 C   0  0  0  0  0  3  0  0  0  0  0  0
  -29.4620  -24.2660   20.2860 C   0  0  0  0  0  3  0  0  0  0  0  0
  -28.2820  -25.3450   20.3210 C   0  0  0  0  0  3  0  0  0  0  0  0
  -28.5290  -26.8120   20.2140 O   0  0  0  0  0  0  0  0  0  0  0  0
  -24.5890  -32.0340   23.3060 C   0  0  0  0  0  0  0  0  0  0  0  0
  -27.3950  -27.6490   20.1660 C   0  0  0  0  0  0  0  0  0  0  0  0
  -23.4610  -30.6560   21.5980 C   0  0  0  0  0  3  0  0  0  0  0  0
  -24.9870  -29.2030   20.1500 C   0  0  0  0  0  0  0  0  0  0  0  0
  -25.9950  -31.0520   21.4820 C   0  0  0  0  0  2  0  0  0  0  0  0
  -26.1290  -29.7010   20.7900 C   0  0  0  0  0  0  0  0  0  0  0  0
  -27.3370  -28.9370   20.7880 C   0  0  0  0  0  3  0  0  0  0  0  0
  -26.2310  -27.2210   19.4860 C   0  0  0  0  0  3  0  0  0  0  0  0
  -25.0410  -27.9700   19.4890 C   0  0  0  0  0  3  0  0  0  0  0  0
  -23.7220  -30.0370   20.2010 C   0  0  0  0  0  2  0  0  0  0  0  0
  -24.6990  -31.2630   22.1860 N   0  0  0  0  0  0  0  0  0  0  0  0
  -23.4880  -32.2610   23.8260 O   0  0  0  0  0  0  0  0  0  0  0  0
  -22.8130  -29.5860   22.5090 C   0  0  0  0  0  0  0  0  0  0  0  0
  -21.5010  -29.3540   22.3300 N   0  0  0  0  0  0  0  0  0  0  0  0
  -23.4900  -28.9720   23.3380 O   0  0  0  0  0  0  0  0  0  0  0  0
  -21.0120  -29.9020   21.6370 H   0  0  0  0  0  0  0  0  0  0  0  0
  -18.1610  -28.0060   22.6920 C   0  0  0  0  0  0  0  0  0  0  0  0
  -20.6980  -28.3620   23.0500 C   0  0  0  0  0  3  0  0  0  0  0  0
  -20.8760  -26.9500   22.4460 C   0  0  0  0  0  2  0  0  0  0  0  0
  -19.8200  -26.6090   21.3890 C   0  0  0  0  0  2  0  0  0  0  0  0
  -18.4140  -26.6820   21.9900 C   0  0  0  0  0  2  0  0  0  0  0  0
  -19.2340  -28.8030   23.1750 C   0  0  0  0  0  0  0  0  0  0  0  0
  -18.9440  -30.0410   23.7870 C   0  0  0  0  0  3  0  0  0  0  0  0
  -17.6140  -30.4840   23.9230 C   0  0  0  0  0  3  0  0  0  0  0  0
  -16.5570  -29.6850   23.4580 C   0  0  0  0  0  3  0  0  0  0  0  0
  -16.8310  -28.4470   22.8480 C   0  0  0  0  0  3  0  0  0  0  0  0
  -25.8410  -32.6840   23.9720 C   0  0  0  0  0  3  0  0  0  0  0  0
  -25.5150  -34.0920   24.2480 N   0  0  0  0  0  0  0  0  0  0  0  0
  -25.8910  -35.1250   23.4820 C   0  0  0  0  0  0  0  0  0  0  0  0
  -26.6210  -34.9950   22.4950 O   0  0  0  0  0  0  0  0  0  0  0  0
  -24.8820  -34.2670   25.0140 H   0  0  0  0  0  0  0  0  0  0  0  0
  -24.2190  -36.9270   22.9510 C   0  0  0  0  0  1  0  0  0  0  0  0
  -25.3800  -36.5250   23.8740 C   0  0  0  0  0  3  0  0  0  0  0  0
  -27.4320  -37.4170   24.8850 C   0  0  0  0  0  1  0  0  0  0  0  0
  -26.4290  -37.5680   23.8340 N   0  0  0  0  0  0  0  0  0  0  0  0
  -26.0200  -38.4940   23.9190 H   0  0  0  0  0  0  0  0  0  0  0  0
  -26.2940  -31.9510   25.2940 C   0  0  1  0  0  0  0  0  0  0  0  0
  -25.1470  -31.7260   26.3070 C   0  0  0  0  0  1  0  0  0  0  0  0
  -26.9120  -30.5710   24.9730 C   0  0  0  0  0  1  0  0  0  0  0  0
  -27.3990  -32.7740   25.9960 C   0  0  0  0  0  1  0  0  0  0  0  0
  3  1  1  0
  3  4  1  0
  3  2  1  0
  5  7  1  0
  6  8  1  0
  6  5  1  0
  6  7  1  0
  7 17  1  0
  7  4  1  1
  9 17  1  0
 10 15  1  0
 11 12  1  0
 11 10  1  0
 13 12  1  0
 13 22  1  0
 13 14  1  0
 15  9  1  0
 15 14  1  0
 16  9  2  0
 17 18  1  0
 19 20  2  0
 20 39  1  0
 21 20  1  0
 21 24  1  0
 22 19  1  0
 22 23  1  0
 23 21  2  0
 24 25  1  0
 25 26  2  0
 27 30  1  0
 27 26  1  0
 28 27  2  0
 29 28  1  0
 29 24  2  0
 30 31  1  0
 31 32  1  0
 32 33  2  0
 34 33  1  0
 34 38  1  0
 35 34  2  0
 36 31  2  0
 36 35  1  0
 37 36  1  0
 39 40  1  0
 40 43  1  0
 40 42  1  0
 41 39  2  0
 44 45  1  0
 44 19  1  0
 46 44  1  0
 47  1  2  0
 48 49  2  0
 48 47  1  0
 50 49  1  0
 51 62  2  0
 52 50  1  0
 52 57  1  0
 53 61  1  0
 53 63  1  0
 54 60  1  0
 54 56  1  0
 55 61  1  0
 56 55  1  0
 57 56  2  0
 58 59  1  0
 58 52  2  0
 59 54  2  0
 60 53  1  0
 61 51  1  0
 63 65  2  0
 64 63  1  0
 66 64  1  0
 67 76  2  0
 67 72  1  0
 68 64  1  0
 68 72  1  0
 69 68  1  0
 70 71  1  0
 70 69  1  0
 71 67  1  0
 72 73  2  0
 73 74  1  0
 75 74  2  0
 76 75  1  0
 77 51  1  0
 77 78  1  0
 77 87  1  0
 78 81  1  0
 79 83  1  0
 79 78  1  0
 80 79  2  0
 83 82  1  0
 85 83  1  0
 85 86  1  0
 85 84  1  0
 87 90  1  1
 87 88  1  0
 89 87  1  0
M  ISO  4   9 100  17 100  49 101  50 101
M  END
>  <TORSDO>  (26) 
F 22

>  <SCORE>  (26) 
-10.540

>  <name>  (26) 
25

>  <ligand_id>  (26) 
25

>  <original_smiles>  (26) 
[H]c1c([H])c([H])c2c(c1[H])C([H])([H])C([H])([H])C([H])([H])C2([H])N([H])C(=O)C1([H])N(C(=O)C([H])(N([H])C(=O)C([H])(N([H])C([H])([H])[H])C([H])([H])[H])C(C([H])([H])[H])(C([H])([H])[H])C([H])([H])[H])C([H])([H])c2c([H])c(OC([H])([H])C([H])([H])C([H])([H])C([H])([H])C([H])(C([H])([H])[H])C([H])([H])C3(N([H])C(=O)N4C([H])([H])C([H])([H])C([H])([H])C([H])(n5nc(-c6c([H])c([H])c(Oc7c([H])c([H])c(F)c([H])c7F)c([H])c6[H])c(C(=O)N([H])[H])c5N([H])[H])C4([H])[H])C([H])([H])C3([H])C([H])([H])[H])c([H])c([H])c2C1([H])[H]

>  <smiles>  (26) 
[H]c1c([H])c([H])c2c(c1[H])C([H])([H])C([H])([H])C([H])([H])C2([H])N([H])C(=O)C1([H])N(C(=O)C([H])(N([H])C(=O)C([H])(N([H])C([H])([H])[H])C([H])([H])[H])C(C([H])([H])[H])(C([H])([H])[H])C([H])([H])[H])C([H])([H])c2c([H])c(OC([H])([H])C([H])([H])C([H])([H])C([H])([H])C([H])(C([H])([H])[H])C([H])([H])C3(N([H])C(=O)N4C([H])([H])C([H])([H])C([H])([H])C([H])(n5nc(-c6c([H])c([H])c(Oc7c([H])c([H])c(F)c([H])c7F)c([H])c6[H])c(C(=O)N([H])[H])c5N([H])[H])C4([H])[H])C([H])([H])C3([H])C([H])([H])[H])c([H])c([H])c2C1([H])[H]

$$$$
26:0:0
     RDKit          3D

 91 99  0  0  1  0  0  0  0  0999 V2000
  -29.3510  -22.6690   20.2930 N   0  0  0  0  0  4  0  0  0  0  0  0
  -30.3020  -22.7500   20.6210 H   0  0  0  0  0  0  0  0  0  0  0  0
  -28.7800  -22.5090   21.1110 H   0  0  0  0  0  0  0  0  0  0  0  0
  -29.2360  -21.4150   19.4300 C   0  0  0  0  0  2  0  0  0  0  0  0
  -29.4410  -18.7030   21.2860 C   0  0  0  0  0  0  0  0  0  0  0  0
  -30.3720  -19.9250   21.3490 C   0  0  0  0  0  2  0  0  0  0  0  0
  -29.6110  -18.6030   19.7510 C   0  0  0  0  0  3  0  0  0  0  0  0
  -30.1220  -20.1430   19.8370 C   0  0  0  0  0  3  0  0  0  0  0  0
  -28.7730  -18.0940   22.1210 O   0  0  0  0  0  0  0  0  0  0  0  0
  -30.5160  -17.3430   19.3370 C   0  0  0  0  0  2  0  0  0  0  0  0
  -30.7780  -14.7660   19.4190 C   0  0  0  0  0  0  0  0  0  0  0  0
  -30.4050  -12.4850   18.5070 C   0  0  0  0  0  2  0  0  0  0  0  0
  -29.3210  -12.5580   17.4100 C   0  0  0  0  0  2  0  0  0  0  0  0
  -27.9170  -12.4000   18.0240 C   0  0  0  0  0  2  0  0  0  0  0  0
  -27.6980  -13.3150   19.2590 C   0  0  0  0  0  3  0  0  0  0  0  0
  -28.8950  -13.2650   20.2380 C   0  0  0  0  0  2  0  0  0  0  0  0
  -30.1130  -13.5650   19.4740 N   0  0  0  0  0  0  0  0  0  0  0  0
  -31.9150  -14.8370   18.9480 O   0  0  0  0  0  0  0  0  0  0  0  0
  -30.0690  -15.9210   19.6620 N   0  0  0  0  0  0  0  0  0  0  0  0
  -29.1220  -15.8030   19.9900 H   0  0  0  0  0  0  0  0  0  0  0  0
  -25.4550  -13.9260   20.3520 C   0  0  0  0  0  0  0  0  0  0  0  0
  -24.4300  -13.1610   20.8320 C   0  0  0  0  0  0  0  0  0  0  0  0
  -24.8350  -11.8040   20.6600 C   0  0  0  0  0  0  0  0  0  0  0  0
  -26.4270  -13.0350   19.9240 N   0  0  0  0  0  0  0  0  0  0  0  0
  -26.0680  -11.7460   20.1700 N   0  0  0  0  0  0  0  0  0  0  0  0
  -24.0970  -10.5540   20.8850 C   0  0  0  0  0  0  0  0  0  0  0  0
  -24.5660   -9.5680   21.7800 C   0  0  0  0  0  3  0  0  0  0  0  0
  -23.8280   -8.3860   21.9940 C   0  0  0  0  0  3  0  0  0  0  0  0
  -22.6050   -8.1800   21.3090 C   0  0  0  0  0  0  0  0  0  0  0  0
  -22.1560   -9.1530   20.4030 C   0  0  0  0  0  3  0  0  0  0  0  0
  -22.8950  -10.3270   20.1860 C   0  0  0  0  0  3  0  0  0  0  0  0
  -21.8310   -7.0500   21.4340 O   0  0  0  0  0  0  0  0  0  0  0  0
  -21.7550   -6.3540   22.6140 C   0  0  0  0  0  0  0  0  0  0  0  0
  -21.3270   -6.9650   23.8110 C   0  0  0  0  0  3  0  0  0  0  0  0
  -21.1960   -6.1990   24.9880 C   0  0  0  0  0  3  0  0  0  0  0  0
  -21.4850   -4.8210   24.9700 C   0  0  0  0  0  0  0  0  0  0  0  0
  -21.9050   -4.2090   23.7750 C   0  0  0  0  0  3  0  0  0  0  0  0
  -22.0390   -4.9730   22.6020 C   0  0  0  0  0  0  0  0  0  0  0  0
  -22.4260   -4.3720   21.4500 F   0  0  0  0  0  0  0  0  0  0  0  0
  -21.3490   -4.0840   26.0960 F   0  0  0  0  0  0  0  0  0  0  0  0
  -23.1040  -13.6640   21.3260 C   0  0  0  0  0  0  0  0  0  0  0  0
  -22.4910  -12.9540   22.2640 N   0  0  0  0  0  0  0  0  0  0  0  0
  -22.6260  -14.7200   20.9120 O   0  0  0  0  0  0  0  0  0  0  0  0
  -22.8990  -12.1060   22.6310 H   0  0  0  0  0  0  0  0  0  0  0  0
  -21.6030  -13.2640   22.6280 H   0  0  0  0  0  0  0  0  0  0  0  0
  -25.6330  -15.3010   20.2150 N   0  0  0  0  0  0  0  0  0  0  0  0
  -24.9020  -15.9600   20.4590 H   0  0  0  0  0  0  0  0  0  0  0  0
  -26.4370  -15.7400   19.7860 H   0  0  0  0  0  0  0  0  0  0  0  0
  -28.9480  -24.0260   19.7100 C   0  0  0  0  0  2  0  0  0  0  0  0
  -28.5710  -25.1710   20.7580 C   0  0  0  0  0  2  0  0  0  0  0  0
  -28.6180  -26.5870   20.3450 O   0  0  0  0  0  0  0  0  0  0  0  0
  -24.5320  -31.7860   23.2410 C   0  0  0  0  0  0  0  0  0  0  0  0
  -27.4330  -27.3250   20.3330 C   0  0  0  0  0  0  0  0  0  0  0  0
  -23.4270  -30.2860   21.6150 C   0  0  0  0  0  3  0  0  0  0  0  0
  -24.9740  -28.7780   20.2480 C   0  0  0  0  0  0  0  0  0  0  0  0
  -25.9370  -30.7480   21.4430 C   0  0  0  0  0  2  0  0  0  0  0  0
  -26.1040  -29.3560   20.8410 C   0  0  0  0  0  0  0  0  0  0  0  0
  -27.3370  -28.6440   20.8690 C   0  0  0  0  0  3  0  0  0  0  0  0
  -26.2770  -26.7810   19.7310 C   0  0  0  0  0  3  0  0  0  0  0  0
  -25.0620  -27.4930   19.6850 C   0  0  0  0  0  3  0  0  0  0  0  0
  -23.6900  -29.5830   20.2580 C   0  0  0  0  0  2  0  0  0  0  0  0
  -24.6500  -30.9590   22.1590 N   0  0  0  0  0  0  0  0  0  0  0  0
  -23.4280  -32.0200   23.7550 O   0  0  0  0  0  0  0  0  0  0  0  0
  -22.8020  -29.2650   22.5930 C   0  0  0  0  0  0  0  0  0  0  0  0
  -21.4920  -29.0140   22.4490 N   0  0  0  0  0  0  0  0  0  0  0  0
  -23.4980  -28.6950   23.4360 O   0  0  0  0  0  0  0  0  0  0  0  0
  -20.9910  -29.5260   21.7390 H   0  0  0  0  0  0  0  0  0  0  0  0
  -18.1780  -27.6490   22.9030 C   0  0  0  0  0  0  0  0  0  0  0  0
  -20.7090  -28.0560   23.2260 C   0  0  0  0  0  3  0  0  0  0  0  0
  -20.9020  -26.6170   22.6960 C   0  0  0  0  0  2  0  0  0  0  0  0
  -19.8460  -26.2050   21.6660 C   0  0  0  0  0  2  0  0  0  0  0  0
  -18.4440  -26.2920   22.2730 C   0  0  0  0  0  2  0  0  0  0  0  0
  -19.2410  -28.4840   23.3340 C   0  0  0  0  0  0  0  0  0  0  0  0
  -18.9400  -29.7470   23.8880 C   0  0  0  0  0  3  0  0  0  0  0  0
  -17.6060  -30.1820   24.0080 C   0  0  0  0  0  3  0  0  0  0  0  0
  -16.5560  -29.3470   23.5890 C   0  0  0  0  0  3  0  0  0  0  0  0
  -16.8410  -28.0800   23.0470 C   0  0  0  0  0  3  0  0  0  0  0  0
  -25.7720  -32.5020   23.8590 C   0  0  0  0  0  3  0  0  0  0  0  0
  -25.4070  -33.9050   24.0870 N   0  0  0  0  0  0  0  0  0  0  0  0
  -25.7280  -34.9200   23.2730 C   0  0  0  0  0  0  0  0  0  0  0  0
  -26.4270  -34.7750   22.2650 O   0  0  0  0  0  0  0  0  0  0  0  0
  -24.7790  -34.0910   24.8550 H   0  0  0  0  0  0  0  0  0  0  0  0
  -23.9490  -36.6210   22.7720 C   0  0  0  0  0  1  0  0  0  0  0  0
  -25.1870  -36.3150   23.6290 C   0  0  0  0  0  3  0  0  0  0  0  0
  -27.2710  -37.3220   24.4440 C   0  0  0  0  0  1  0  0  0  0  0  0
  -26.1850  -37.3940   23.4710 N   0  0  0  0  0  0  0  0  0  0  0  0
  -25.7470  -38.3060   23.5550 H   0  0  0  0  0  0  0  0  0  0  0  0
  -26.2760  -31.8320   25.1950 C   0  0  1  0  0  0  0  0  0  0  0  0
  -25.1580  -31.6030   26.2380 C   0  0  0  0  0  1  0  0  0  0  0  0
  -26.9380  -30.4680   24.8970 C   0  0  0  0  0  1  0  0  0  0  0  0
  -27.3620  -32.7190   25.8510 C   0  0  0  0  0  1  0  0  0  0  0  0
  1  2  1  0
  1  3  1  0
  4  1  1  0
  5  6  1  0
  5  9  2  0
  7 10  1  0
  7  8  1  0
  7  5  1  0
  8  4  1  0
  8  6  1  0
 10 19  1  0
 11 17  1  0
 11 19  1  0
 12 17  1  0
 13 14  1  0
 13 12  1  0
 15 14  1  0
 15 24  1  0
 15 16  1  0
 17 16  1  0
 18 11  2  0
 19 20  1  0
 21 22  2  0
 22 41  1  0
 23 22  1  0
 23 26  1  0
 24 25  1  0
 24 21  1  0
 25 23  2  0
 26 27  1  0
 27 28  2  0
 29 32  1  0
 29 28  1  0
 30 29  2  0
 31 30  1  0
 31 26  2  0
 32 33  1  0
 33 34  1  0
 34 35  2  0
 36 35  1  0
 36 40  1  0
 37 36  2  0
 38 33  2  0
 38 37  1  0
 39 38  1  0
 41 42  1  0
 42 45  1  0
 42 44  1  0
 43 41  2  0
 46 21  1  0
 46 47  1  0
 48 46  1  0
 49  1  1  0
 49 50  1  0
 51 50  1  0
 52 63  2  0
 53 51  1  0
 53 58  1  0
 54 62  1  0
 54 64  1  0
 55 61  1  0
 55 57  1  0
 56 62  1  0
 57 58  2  0
 57 56  1  0
 59 53  2  0
 60 59  1  0
 60 55  2  0
 61 54  1  0
 62 52  1  0
 64 66  2  0
 65 64  1  0
 67 65  1  0
 68 77  2  0
 68 73  1  0
 69 65  1  0
 69 73  1  0
 70 69  1  0
 71 72  1  0
 71 70  1  0
 72 68  1  0
 73 74  2  0
 74 75  1  0
 76 75  2  0
 77 76  1  0
 78 52  1  0
 78 79  1  0
 78 88  1  0
 79 82  1  0
 80 84  1  0
 80 79  1  0
 81 80  2  0
 84 83  1  0
 86 87  1  0
 86 84  1  0
 86 85  1  0
 88 91  1  1
 88 89  1  0
 90 88  1  0
M  ISO  4  11 100  19 100  50 101  51 101
M  END
>  <TORSDO>  (27) 
F 21

>  <SCORE>  (27) 
-10.586

>  <name>  (27) 
26

>  <ligand_id>  (27) 
26

>  <original_smiles>  (27) 
[H]c1c([H])c([H])c2c(c1[H])C([H])([H])C([H])([H])C([H])([H])C2([H])N([H])C(=O)C1([H])N(C(=O)C([H])(N([H])C(=O)C([H])(N([H])C([H])([H])[H])C([H])([H])[H])C(C([H])([H])[H])(C([H])([H])[H])C([H])([H])[H])C([H])([H])c2c([H])c(OC([H])([H])C([H])([H])[N+]([H])([H])C([H])([H])C3([H])C([H])([H])C(=O)C3([H])C([H])([H])N([H])C(=O)N3C([H])([H])C([H])([H])C([H])([H])C([H])(n4nc(-c5c([H])c([H])c(Oc6c([H])c([H])c(F)c([H])c6F)c([H])c5[H])c(C(=O)N([H])[H])c4N([H])[H])C3([H])[H])c([H])c([H])c2C1([H])[H]

>  <smiles>  (27) 
[H]c1c([H])c([H])c2c(c1[H])C([H])([H])C([H])([H])C([H])([H])C2([H])N([H])C(=O)C1([H])N(C(=O)C([H])(N([H])C(=O)C([H])(N([H])C([H])([H])[H])C([H])([H])[H])C(C([H])([H])[H])(C([H])([H])[H])C([H])([H])[H])C([H])([H])c2c([H])c(OC([H])([H])C([H])([H])[N+]([H])([H])C([H])([H])C3([H])C([H])([H])C(=O)C3([H])C([H])([H])N([H])C(=O)N3C([H])([H])C([H])([H])C([H])([H])C([H])(n4nc(-c5c([H])c([H])c(Oc6c([H])c([H])c(F)c([H])c6F)c([H])c5[H])c(C(=O)N([H])[H])c4N([H])[H])C3([H])[H])c([H])c([H])c2C1([H])[H]

$$$$
27:0:0
     RDKit          3D

 91 99  0  0  1  0  0  0  0  0999 V2000
  -30.7460  -25.1380   19.2310 C   0  0  0  0  0  2  0  0  0  0  0  0
  -30.9060  -24.2210   18.2740 C   0  0  0  0  0  2  0  0  0  0  0  0
  -29.5760  -24.4160   19.8700 C   0  0  0  0  0  3  0  0  0  0  0  0
  -29.9080  -23.2340   18.8840 C   0  0  0  0  0  3  0  0  0  0  0  0
  -31.3130  -21.2710   18.0350 C   0  0  0  0  0  1  0  0  0  0  0  0
  -30.6210  -21.8870   19.2800 C   0  0  0  0  0  3  0  0  0  0  0  0
  -28.4400  -20.9660   20.2150 C   0  0  0  0  0  2  0  0  0  0  0  0
  -29.7500  -20.7910   19.9610 C   0  0  0  0  0  0  0  0  0  0  0  0
  -30.4820  -19.4750   20.3360 C   0  0  0  0  0  2  0  0  0  0  0  0
  -29.6700  -18.2030   20.7530 C   0  0  0  0  0  2  0  0  0  0  0  0
  -30.6270  -16.9790   20.9240 C   0  0  0  0  0  2  0  0  0  0  0  0
  -30.6770  -14.5230   20.4980 C   0  0  0  0  0  0  0  0  0  0  0  0
  -30.3290  -12.3620   19.3620 C   0  0  0  0  0  2  0  0  0  0  0  0
  -29.4010  -12.5700   18.1500 C   0  0  0  0  0  2  0  0  0  0  0  0
  -27.9240  -12.4430   18.5710 C   0  0  0  0  0  2  0  0  0  0  0  0
  -27.5880  -13.2790   19.8370 C   0  0  0  0  0  3  0  0  0  0  0  0
  -28.6420  -13.0840   20.9500 C   0  0  0  0  0  2  0  0  0  0  0  0
  -29.9640  -13.3660   20.3760 N   0  0  0  0  0  0  0  0  0  0  0  0
  -31.8260  -14.6260   20.0700 O   0  0  0  0  0  0  0  0  0  0  0  0
  -30.0210  -15.6220   20.9410 N   0  0  0  0  0  0  0  0  0  0  0  0
  -29.0750  -15.5110   21.2740 H   0  0  0  0  0  0  0  0  0  0  0  0
  -25.1900  -13.8860   20.5450 C   0  0  0  0  0  0  0  0  0  0  0  0
  -24.1220  -13.1150   20.9150 C   0  0  0  0  0  0  0  0  0  0  0  0
  -24.5810  -11.7640   20.8890 C   0  0  0  0  0  0  0  0  0  0  0  0
  -26.2350  -13.0030   20.3170 N   0  0  0  0  0  0  0  0  0  0  0  0
  -25.8720  -11.7220   20.5830 N   0  0  0  0  0  0  0  0  0  0  0  0
  -23.8500  -10.5040   21.0800 C   0  0  0  0  0  0  0  0  0  0  0  0
  -24.2920   -9.5270   21.9990 C   0  0  0  0  0  3  0  0  0  0  0  0
  -23.5660   -8.3290   22.1750 C   0  0  0  0  0  3  0  0  0  0  0  0
  -22.3830   -8.1010   21.4340 C   0  0  0  0  0  0  0  0  0  0  0  0
  -21.9590   -9.0650   20.5010 C   0  0  0  0  0  3  0  0  0  0  0  0
  -22.6870  -10.2540   20.3230 C   0  0  0  0  0  3  0  0  0  0  0  0
  -21.6220   -6.9590   21.5290 O   0  0  0  0  0  0  0  0  0  0  0  0
  -21.5970   -6.1990   22.6710 C   0  0  0  0  0  0  0  0  0  0  0  0
  -21.2140   -6.7380   23.9190 C   0  0  0  0  0  3  0  0  0  0  0  0
  -21.1380   -5.9040   25.0520 C   0  0  0  0  0  3  0  0  0  0  0  0
  -21.4330   -4.5320   24.9370 C   0  0  0  0  0  0  0  0  0  0  0  0
  -21.8050   -3.9920   23.6950 C   0  0  0  0  0  3  0  0  0  0  0  0
  -21.8850   -4.8230   22.5630 C   0  0  0  0  0  0  0  0  0  0  0  0
  -22.2260   -4.2930   21.3630 F   0  0  0  0  0  0  0  0  0  0  0  0
  -21.3510   -3.7290   26.0240 F   0  0  0  0  0  0  0  0  0  0  0  0
  -22.7220  -13.5950   21.1830 C   0  0  0  0  0  0  0  0  0  0  0  0
  -21.9900  -12.9030   22.0480 N   0  0  0  0  0  0  0  0  0  0  0  0
  -22.2880  -14.6200   20.6570 O   0  0  0  0  0  0  0  0  0  0  0  0
  -22.3510  -12.0760   22.5000 H   0  0  0  0  0  0  0  0  0  0  0  0
  -21.0480  -13.2000   22.2620 H   0  0  0  0  0  0  0  0  0  0  0  0
  -25.3600  -15.2540   20.3630 N   0  0  0  0  0  0  0  0  0  0  0  0
  -24.5990  -15.9160   20.4650 H   0  0  0  0  0  0  0  0  0  0  0  0
  -26.2150  -15.6870   20.0370 H   0  0  0  0  0  0  0  0  0  0  0  0
  -28.2880  -25.2540   19.6790 C   0  0  0  0  0  2  0  0  0  0  0  0
  -28.3760  -26.6390   20.1070 O   0  0  0  0  0  0  0  0  0  0  0  0
  -24.6130  -31.8810   23.2240 C   0  0  0  0  0  0  0  0  0  0  0  0
  -27.2090  -27.4000   20.1020 C   0  0  0  0  0  0  0  0  0  0  0  0
  -23.3890  -30.4830   21.5950 C   0  0  0  0  0  3  0  0  0  0  0  0
  -24.8240  -28.9490   20.1500 C   0  0  0  0  0  0  0  0  0  0  0  0
  -25.9190  -30.8270   21.3730 C   0  0  0  0  0  2  0  0  0  0  0  0
  -25.9950  -29.4540   20.7280 C   0  0  0  0  0  0  0  0  0  0  0  0
  -27.1900  -28.6890   20.7000 C   0  0  0  0  0  3  0  0  0  0  0  0
  -26.0100  -26.9250   19.5180 C   0  0  0  0  0  3  0  0  0  0  0  0
  -24.8290  -27.6850   19.5430 C   0  0  0  0  0  3  0  0  0  0  0  0
  -23.5850  -29.8130   20.2110 C   0  0  0  0  0  2  0  0  0  0  0  0
  -24.6600  -31.0780   22.1220 N   0  0  0  0  0  0  0  0  0  0  0  0
  -23.5360  -32.1540   23.7720 O   0  0  0  0  0  0  0  0  0  0  0  0
  -22.7440  -29.4600   22.5570 C   0  0  0  0  0  0  0  0  0  0  0  0
  -21.4170  -29.2810   22.4400 N   0  0  0  0  0  0  0  0  0  0  0  0
  -23.4320  -28.8320   23.3660 O   0  0  0  0  0  0  0  0  0  0  0  0
  -20.9240  -29.8370   21.7550 H   0  0  0  0  0  0  0  0  0  0  0  0
  -18.0460  -28.0880   22.9520 C   0  0  0  0  0  0  0  0  0  0  0  0
  -20.6040  -28.3450   23.2150 C   0  0  0  0  0  3  0  0  0  0  0  0
  -20.7060  -26.9130   22.6380 C   0  0  0  0  0  2  0  0  0  0  0  0
  -19.5980  -26.5900   21.6300 C   0  0  0  0  0  2  0  0  0  0  0  0
  -18.2190  -26.7380   22.2790 C   0  0  0  0  0  2  0  0  0  0  0  0
  -19.1660  -28.8500   23.3780 C   0  0  0  0  0  0  0  0  0  0  0  0
  -18.9480  -30.1150   23.9660 C   0  0  0  0  0  3  0  0  0  0  0  0
  -17.6440  -30.6160   24.1360 C   0  0  0  0  0  3  0  0  0  0  0  0
  -16.5390  -29.8500   23.7290 C   0  0  0  0  0  3  0  0  0  0  0  0
  -16.7400  -28.5880   23.1410 C   0  0  0  0  0  3  0  0  0  0  0  0
  -25.9030  -32.5090   23.8330 C   0  0  0  0  0  3  0  0  0  0  0  0
  -25.5930  -33.9000   24.1920 N   0  0  0  0  0  0  0  0  0  0  0  0
  -25.9010  -34.9660   23.4380 C   0  0  0  0  0  0  0  0  0  0  0  0
  -26.5460  -34.8820   22.3900 O   0  0  0  0  0  0  0  0  0  0  0  0
  -25.0180  -34.0400   25.0090 H   0  0  0  0  0  0  0  0  0  0  0  0
  -24.1450  -36.7440   23.1550 C   0  0  0  0  0  1  0  0  0  0  0  0
  -25.4140  -36.3430   23.9270 C   0  0  0  0  0  3  0  0  0  0  0  0
  -27.5630  -37.2330   24.7090 C   0  0  0  0  0  1  0  0  0  0  0  0
  -26.4330  -37.4070   23.8000 N   0  0  0  0  0  0  0  0  0  0  0  0
  -26.0240  -38.3200   23.9760 H   0  0  0  0  0  0  0  0  0  0  0  0
  -26.4470  -31.7190   25.0850 C   0  0  1  0  0  0  0  0  0  0  0  0
  -25.3740  -31.4530   26.1690 C   0  0  0  0  0  1  0  0  0  0  0  0
  -27.0270  -30.3540   24.6520 C   0  0  0  0  0  1  0  0  0  0  0  0
  -27.6070  -32.5060   25.7390 C   0  0  0  0  0  1  0  0  0  0  0  0
  1  3  1  0
  2  4  1  0
  2  1  1  0
  3 50  1  0
  4  6  1  0
  4  3  1  0
  6  5  1  0
  6  8  1  0
  8  7  2  0
  8  9  1  0
  9 10  1  0
 10 11  1  0
 11 20  1  0
 12 20  1  0
 13 18  1  0
 14 15  1  0
 14 13  1  0
 16 15  1  0
 16 25  1  0
 16 17  1  0
 18 12  1  0
 18 17  1  0
 19 12  2  0
 20 21  1  0
 22 23  2  0
 23 42  1  0
 24 23  1  0
 24 27  1  0
 25 22  1  0
 25 26  1  0
 26 24  2  0
 27 28  1  0
 28 29  2  0
 30 33  1  0
 30 29  1  0
 31 30  2  0
 32 31  1  0
 32 27  2  0
 33 34  1  0
 34 35  1  0
 35 36  2  0
 37 36  1  0
 37 41  1  0
 38 37  2  0
 39 34  2  0
 39 38  1  0
 40 39  1  0
 42 43  1  0
 43 46  1  0
 43 45  1  0
 44 42  2  0
 47 48  1  0
 47 22  1  0
 49 47  1  0
 50 51  1  0
 52 63  2  0
 53 51  1  0
 53 58  1  0
 54 62  1  0
 54 64  1  0
 55 61  1  0
 55 57  1  0
 56 62  1  0
 57 56  1  0
 58 57  2  0
 59 60  1  0
 59 53  2  0
 60 55  2  0
 61 54  1  0
 62 52  1  0
 64 66  2  0
 65 64  1  0
 67 65  1  0
 68 77  2  0
 68 73  1  0
 69 65  1  0
 69 73  1  0
 70 69  1  0
 71 72  1  0
 71 70  1  0
 72 68  1  0
 73 74  2  0
 74 75  1  0
 76 75  2  0
 77 76  1  0
 78 52  1  0
 78 79  1  0
 78 88  1  0
 79 82  1  0
 80 84  1  0
 80 79  1  0
 81 80  2  0
 84 83  1  0
 86 84  1  0
 86 87  1  0
 86 85  1  0
 88 91  1  1
 88 89  1  0
 90 88  1  0
M  ISO  4  12 100  20 100  50 101  51 101
M  END
>  <TORSDO>  (28) 
F 22

>  <SCORE>  (28) 
-13.043

>  <name>  (28) 
27

>  <ligand_id>  (28) 
27

>  <original_smiles>  (28) 
[H]C([H])=C(C([H])([H])C([H])([H])C([H])([H])N([H])C(=O)N1C([H])([H])C([H])([H])C([H])([H])C([H])(n2nc(-c3c([H])c([H])c(Oc4c([H])c([H])c(F)c([H])c4F)c([H])c3[H])c(C(=O)N([H])[H])c2N([H])[H])C1([H])[H])C([H])(C([H])([H])[H])C1([H])C([H])=C([H])C1([H])C([H])([H])Oc1c([H])c([H])c2c(c1[H])C([H])([H])N(C(=O)C([H])(N([H])C(=O)C([H])(N([H])C([H])([H])[H])C([H])([H])[H])C(C([H])([H])[H])(C([H])([H])[H])C([H])([H])[H])C([H])(C(=O)N([H])C1([H])c3c([H])c([H])c([H])c([H])c3C([H])([H])C([H])([H])C1([H])[H])C2([H])[H]

>  <smiles>  (28) 
[H]C([H])=C(C([H])([H])C([H])([H])C([H])([H])N([H])C(=O)N1C([H])([H])C([H])([H])C([H])([H])C([H])(n2nc(-c3c([H])c([H])c(Oc4c([H])c([H])c(F)c([H])c4F)c([H])c3[H])c(C(=O)N([H])[H])c2N([H])[H])C1([H])[H])C([H])(C([H])([H])[H])C1([H])C([H])=C([H])C1([H])C([H])([H])Oc1c([H])c([H])c2c(c1[H])C([H])([H])N(C(=O)C([H])(N([H])C(=O)C([H])(N([H])C([H])([H])[H])C([H])([H])[H])C(C([H])([H])[H])(C([H])([H])[H])C([H])([H])[H])C([H])(C(=O)N([H])C1([H])c3c([H])c([H])c([H])c([H])c3C([H])([H])C([H])([H])C1([H])[H])C2([H])[H]

$$$$
28:0:0
     RDKit          3D

 92100  0  0  1  0  0  0  0  0999 V2000
  -29.3490  -20.5310   21.0650 C   0  0  0  0  0  2  0  0  0  0  0  0
  -30.2500  -20.6850   19.2440 C   0  0  0  0  0  2  0  0  0  0  0  0
  -30.3750  -19.6180   20.3570 C   0  0  0  0  0  3  0  0  0  0  0  0
  -29.8410  -21.6690   20.2640 N   0  0  1  0  0  4  0  0  0  0  0  0
  -30.6630  -22.0720   20.6880 H   0  0  0  0  0  0  0  0  0  0  0  0
  -29.9650  -18.1650   20.0460 C   0  0  0  0  0  0  0  0  0  0  0  0
  -29.0830  -17.8660   19.2370 O   0  0  0  0  0  0  0  0  0  0  0  0
  -30.7330  -17.0290   20.8230 C   0  0  0  0  0  3  0  0  0  0  0  0
  -30.8990  -14.6030   20.0420 C   0  0  0  0  0  0  0  0  0  0  0  0
  -30.5270  -12.4000   18.9780 C   0  0  0  0  0  2  0  0  0  0  0  0
  -29.5700  -12.5880   17.7860 C   0  0  0  0  0  2  0  0  0  0  0  0
  -28.1010  -12.4920   18.2520 C   0  0  0  0  0  2  0  0  0  0  0  0
  -27.8060  -13.3770   19.4920 C   0  0  0  0  0  3  0  0  0  0  0  0
  -28.8810  -13.1860   20.5860 C   0  0  0  0  0  2  0  0  0  0  0  0
  -30.1960  -13.4360   19.9690 N   0  0  0  0  0  0  0  0  0  0  0  0
  -32.0390  -14.7210   19.5860 O   0  0  0  0  0  0  0  0  0  0  0  0
  -30.2220  -15.6640   20.5300 N   0  0  0  0  0  0  0  0  0  0  0  0
  -29.2570  -15.4950   20.7660 H   0  0  0  0  0  0  0  0  0  0  0  0
  -25.4610  -14.0710   20.2930 C   0  0  0  0  0  0  0  0  0  0  0  0
  -24.3720  -13.3400   20.6850 C   0  0  0  0  0  0  0  0  0  0  0  0
  -24.7770  -11.9700   20.6250 C   0  0  0  0  0  0  0  0  0  0  0  0
  -26.4590  -13.1500   20.0110 N   0  0  0  0  0  0  0  0  0  0  0  0
  -26.0540  -11.8800   20.2710 N   0  0  0  0  0  0  0  0  0  0  0  0
  -24.0030  -10.7380   20.8290 C   0  0  0  0  0  0  0  0  0  0  0  0
  -24.4120   -9.7540   21.7570 C   0  0  0  0  0  3  0  0  0  0  0  0
  -23.6440   -8.5860   21.9490 C   0  0  0  0  0  3  0  0  0  0  0  0
  -22.4520   -8.3920   21.2110 C   0  0  0  0  0  0  0  0  0  0  0  0
  -22.0590   -9.3640   20.2730 C   0  0  0  0  0  3  0  0  0  0  0  0
  -22.8280  -10.5240   20.0790 C   0  0  0  0  0  3  0  0  0  0  0  0
  -21.6560   -7.2770   21.3120 O   0  0  0  0  0  0  0  0  0  0  0  0
  -21.5750   -6.5530   22.4740 C   0  0  0  0  0  0  0  0  0  0  0  0
  -21.1860   -7.1440   23.6950 C   0  0  0  0  0  3  0  0  0  0  0  0
  -21.0480   -6.3480   24.8510 C   0  0  0  0  0  3  0  0  0  0  0  0
  -21.2880   -4.9620   24.7850 C   0  0  0  0  0  0  0  0  0  0  0  0
  -21.6700   -4.3720   23.5680 C   0  0  0  0  0  3  0  0  0  0  0  0
  -21.8110   -5.1640   22.4160 C   0  0  0  0  0  0  0  0  0  0  0  0
  -22.1580   -4.5850   21.2410 F   0  0  0  0  0  0  0  0  0  0  0  0
  -21.1490   -4.1970   25.8930 F   0  0  0  0  0  0  0  0  0  0  0  0
  -23.0070  -13.8730   21.0050 C   0  0  0  0  0  0  0  0  0  0  0  0
  -22.2780  -13.2010   21.8900 N   0  0  0  0  0  0  0  0  0  0  0  0
  -22.5950  -14.9200   20.5050 O   0  0  0  0  0  0  0  0  0  0  0  0
  -22.6250  -12.3550   22.3150 H   0  0  0  0  0  0  0  0  0  0  0  0
  -21.3610  -13.5370   22.1470 H   0  0  0  0  0  0  0  0  0  0  0  0
  -25.6790  -15.4350   20.1320 N   0  0  0  0  0  0  0  0  0  0  0  0
  -24.9560  -16.1210   20.3150 H   0  0  0  0  0  0  0  0  0  0  0  0
  -26.5240  -15.8470   19.7550 H   0  0  0  0  0  0  0  0  0  0  0  0
  -31.3060  -16.2320   23.2250 C   0  0  0  0  0  1  0  0  0  0  0  0
  -30.5700  -17.2610   22.3460 C   0  0  0  0  0  2  0  0  0  0  0  0
  -28.8560  -22.7330   19.8510 C   0  0  0  0  0  2  0  0  0  0  0  0
  -29.1370  -24.1930   20.3770 C   0  0  0  0  0  2  0  0  0  0  0  0
  -28.0060  -25.2100   20.0110 C   0  0  0  0  0  2  0  0  0  0  0  0
  -28.2100  -26.6360   20.2620 O   0  0  0  0  0  0  0  0  0  0  0  0
  -24.5110  -31.9810   23.3060 C   0  0  0  0  0  0  0  0  0  0  0  0
  -27.0740  -27.4490   20.2240 C   0  0  0  0  0  0  0  0  0  0  0  0
  -23.2780  -30.5770   21.6940 C   0  0  0  0  0  3  0  0  0  0  0  0
  -24.7020  -29.0290   20.2530 C   0  0  0  0  0  0  0  0  0  0  0  0
  -25.8110  -30.9060   21.4620 C   0  0  0  0  0  2  0  0  0  0  0  0
  -25.8790  -29.5290   20.8210 C   0  0  0  0  0  0  0  0  0  0  0  0
  -27.0690  -28.7500   20.7980 C   0  0  0  0  0  3  0  0  0  0  0  0
  -25.8680  -26.9920   19.6360 C   0  0  0  0  0  3  0  0  0  0  0  0
  -24.6950  -27.7620   19.6540 C   0  0  0  0  0  3  0  0  0  0  0  0
  -23.4660  -29.8970   20.3140 C   0  0  0  0  0  2  0  0  0  0  0  0
  -24.5540  -31.1690   22.2100 N   0  0  0  0  0  0  0  0  0  0  0  0
  -23.4370  -32.2630   23.8560 O   0  0  0  0  0  0  0  0  0  0  0  0
  -22.6300  -29.5630   22.6650 C   0  0  0  0  0  0  0  0  0  0  0  0
  -21.3080  -29.3610   22.5320 N   0  0  0  0  0  0  0  0  0  0  0  0
  -23.3150  -28.9610   23.4950 O   0  0  0  0  0  0  0  0  0  0  0  0
  -20.8160  -29.8960   21.8300 H   0  0  0  0  0  0  0  0  0  0  0  0
  -17.9520  -28.1000   22.9990 C   0  0  0  0  0  0  0  0  0  0  0  0
  -20.4970  -28.4280   23.3150 C   0  0  0  0  0  3  0  0  0  0  0  0
  -20.6450  -26.9830   22.7860 C   0  0  0  0  0  2  0  0  0  0  0  0
  -19.5720  -26.6040   21.7600 C   0  0  0  0  0  2  0  0  0  0  0  0
  -18.1740  -26.7340   22.3700 C   0  0  0  0  0  2  0  0  0  0  0  0
  -19.0430  -28.9010   23.4280 C   0  0  0  0  0  0  0  0  0  0  0  0
  -18.7810  -30.1750   23.9760 C   0  0  0  0  0  3  0  0  0  0  0  0
  -17.4620  -30.6520   24.0960 C   0  0  0  0  0  3  0  0  0  0  0  0
  -16.3850  -29.8480   23.6840 C   0  0  0  0  0  3  0  0  0  0  0  0
  -16.6320  -28.5750   23.1410 C   0  0  0  0  0  3  0  0  0  0  0  0
  -25.8060  -32.6090   23.9050 C   0  0  0  0  0  3  0  0  0  0  0  0
  -25.5050  -34.0110   24.2300 N   0  0  0  0  0  0  0  0  0  0  0  0
  -25.8300  -35.0560   23.4590 C   0  0  0  0  0  0  0  0  0  0  0  0
  -26.4840  -34.9440   22.4180 O   0  0  0  0  0  0  0  0  0  0  0  0
  -24.9220  -34.1710   25.0380 H   0  0  0  0  0  0  0  0  0  0  0  0
  -24.0940  -36.8450   23.1290 C   0  0  0  0  0  1  0  0  0  0  0  0
  -25.3560  -36.4490   23.9150 C   0  0  0  0  0  3  0  0  0  0  0  0
  -27.5120  -37.3360   24.6830 C   0  0  0  0  0  1  0  0  0  0  0  0
  -26.3870  -37.4990   23.7670 N   0  0  0  0  0  0  0  0  0  0  0  0
  -25.9860  -38.4220   23.9190 H   0  0  0  0  0  0  0  0  0  0  0  0
  -26.3360  -31.8410   25.1770 C   0  0  1  0  0  0  0  0  0  0  0  0
  -25.2530  -31.6080   26.2560 C   0  0  0  0  0  1  0  0  0  0  0  0
  -26.9140  -30.4620   24.7820 C   0  0  0  0  0  1  0  0  0  0  0  0
  -27.4920  -32.6380   25.8230 C   0  0  0  0  0  1  0  0  0  0  0  0
  2  4  1  0
  2  3  1  0
  3  6  1  0
  3  1  1  0
  4  5  1  1
  4  1  1  0
  6  8  1  0
  7  6  2  0
  8 48  1  0
  9 17  1  0
 10 15  1  0
 11 12  1  0
 11 10  1  0
 13 12  1  0
 13 22  1  0
 13 14  1  0
 15  9  1  0
 15 14  1  0
 16  9  2  0
 17 18  1  0
 17  8  1  0
 19 20  2  0
 20 39  1  0
 21 20  1  0
 21 24  1  0
 22 23  1  0
 22 19  1  0
 23 21  2  0
 24 25  1  0
 25 26  2  0
 27 30  1  0
 27 26  1  0
 28 27  2  0
 29 28  1  0
 29 24  2  0
 30 31  1  0
 31 32  1  0
 32 33  2  0
 34 33  1  0
 34 38  1  0
 35 34  2  0
 36 31  2  0
 36 35  1  0
 37 36  1  0
 39 40  1  0
 40 43  1  0
 40 42  1  0
 41 39  2  0
 44 19  1  0
 44 45  1  0
 46 44  1  0
 48 47  1  0
 49  4  1  0
 49 50  1  0
 51 52  1  0
 51 50  1  0
 53 64  2  0
 54 52  1  0
 54 59  1  0
 55 63  1  0
 55 65  1  0
 56 62  1  0
 56 58  1  0
 57 63  1  0
 58 57  1  0
 59 58  2  0
 60 61  1  0
 60 54  2  0
 61 56  2  0
 62 55  1  0
 63 53  1  0
 65 67  2  0
 66 65  1  0
 68 66  1  0
 69 78  2  0
 69 74  1  0
 70 66  1  0
 70 74  1  0
 71 70  1  0
 72 73  1  0
 72 71  1  0
 73 69  1  0
 74 75  2  0
 75 76  1  0
 77 76  2  0
 78 77  1  0
 79 53  1  0
 79 80  1  0
 79 89  1  0
 80 83  1  0
 81 85  1  0
 81 80  1  0
 82 81  2  0
 85 84  1  0
 87 85  1  0
 87 88  1  0
 87 86  1  0
 89 92  1  1
 89 90  1  0
 91 89  1  0
M  ISO  4   9 100  17 100  51 101  52 101
M  END
>  <TORSDO>  (29) 
F 22

>  <SCORE>  (29) 
-11.545

>  <name>  (29) 
28

>  <ligand_id>  (29) 
28

>  <original_smiles>  (29) 
[H]c1c([H])c([H])c2c(c1[H])C([H])([H])C([H])([H])C([H])([H])C2([H])N([H])C(=O)C1([H])N(C(=O)C([H])(N([H])C(=O)C([H])(N([H])C([H])([H])[H])C([H])([H])[H])C(C([H])([H])[H])(C([H])([H])[H])C([H])([H])[H])C([H])([H])c2c([H])c(OC([H])([H])C([H])([H])C([H])([H])[N+]3([H])C([H])([H])C([H])(C(=O)C([H])(N([H])C(=O)N4C([H])([H])C([H])([H])C([H])([H])C([H])(n5nc(-c6c([H])c([H])c(Oc7c([H])c([H])c(F)c([H])c7F)c([H])c6[H])c(C(=O)N([H])[H])c5N([H])[H])C4([H])[H])C([H])([H])C([H])([H])[H])C3([H])[H])c([H])c([H])c2C1([H])[H]

>  <smiles>  (29) 
[H]c1c([H])c([H])c2c(c1[H])C([H])([H])C([H])([H])C([H])([H])C2([H])N([H])C(=O)C1([H])N(C(=O)C([H])(N([H])C(=O)C([H])(N([H])C([H])([H])[H])C([H])([H])[H])C(C([H])([H])[H])(C([H])([H])[H])C([H])([H])[H])C([H])([H])c2c([H])c(OC([H])([H])C([H])([H])C([H])([H])[N+]3([H])C([H])([H])C([H])(C(=O)C([H])(N([H])C(=O)N4C([H])([H])C([H])([H])C([H])([H])C([H])(n5nc(-c6c([H])c([H])c(Oc7c([H])c([H])c(F)c([H])c7F)c([H])c6[H])c(C(=O)N([H])[H])c5N([H])[H])C4([H])[H])C([H])([H])C([H])([H])[H])C3([H])[H])c([H])c([H])c2C1([H])[H]

$$$$
29:0:0
     RDKit          3D

 92100  0  0  1  0  0  0  0  0999 V2000
  -29.1420  -23.0680   21.2810 C   0  0  0  0  0  0  0  0  0  0  0  0
  -28.7010  -22.9120   22.4610 N   0  0  0  0  0  0  0  0  0  0  0  0
  -28.5360  -21.9370   22.6880 H   0  0  0  0  0  0  0  0  0  0  0  0
  -30.8620  -21.4710   20.2220 C   0  0  0  0  0  0  0  0  0  0  0  0
  -31.0220  -19.9570   20.2940 C   0  0  0  0  0  2  0  0  0  0  0  0
  -28.6920  -20.5450   20.6730 C   0  0  0  0  0  2  0  0  0  0  0  0
  -29.3910  -21.8870   20.3160 C   0  0  0  0  0  3  0  0  0  0  0  0
  -29.5950  -19.4110   20.1340 C   0  0  0  0  0  3  0  0  0  0  0  0
  -31.8090  -22.2460   20.0570 O   0  0  0  0  0  0  0  0  0  0  0  0
  -29.3400  -18.0170   20.7790 C   0  0  0  0  0  2  0  0  0  0  0  0
  -30.3360  -16.9260   20.3210 C   0  0  0  0  0  2  0  0  0  0  0  0
  -30.6740  -14.4790   20.3460 C   0  0  0  0  0  0  0  0  0  0  0  0
  -30.3520  -12.3120   19.2390 C   0  0  0  0  0  2  0  0  0  0  0  0
  -29.4150  -12.5310   18.0340 C   0  0  0  0  0  2  0  0  0  0  0  0
  -27.9430  -12.4060   18.4670 C   0  0  0  0  0  2  0  0  0  0  0  0
  -27.6080  -13.2490   19.7300 C   0  0  0  0  0  3  0  0  0  0  0  0
  -28.6650  -13.0370   20.8390 C   0  0  0  0  0  2  0  0  0  0  0  0
  -29.9910  -13.3080   20.2600 N   0  0  0  0  0  0  0  0  0  0  0  0
  -31.8200  -14.6230   19.9120 O   0  0  0  0  0  0  0  0  0  0  0  0
  -29.9470  -15.5570   20.6970 N   0  0  0  0  0  0  0  0  0  0  0  0
  -29.0060  -15.3940   21.0210 H   0  0  0  0  0  0  0  0  0  0  0  0
  -25.2090  -13.8560   20.4380 C   0  0  0  0  0  0  0  0  0  0  0  0
  -24.1440  -13.0830   20.8170 C   0  0  0  0  0  0  0  0  0  0  0  0
  -24.6110  -11.7330   20.8000 C   0  0  0  0  0  0  0  0  0  0  0  0
  -26.2570  -12.9760   20.2130 N   0  0  0  0  0  0  0  0  0  0  0  0
  -25.9000  -11.6950   20.4880 N   0  0  0  0  0  0  0  0  0  0  0  0
  -23.8900  -10.4700   21.0030 C   0  0  0  0  0  0  0  0  0  0  0  0
  -24.3350   -9.5050   21.9330 C   0  0  0  0  0  3  0  0  0  0  0  0
  -23.6130   -8.3070   22.1240 C   0  0  0  0  0  3  0  0  0  0  0  0
  -22.4310   -8.0660   21.3850 C   0  0  0  0  0  0  0  0  0  0  0  0
  -22.0040   -9.0190   20.4430 C   0  0  0  0  0  3  0  0  0  0  0  0
  -22.7280  -10.2090   20.2500 C   0  0  0  0  0  3  0  0  0  0  0  0
  -21.6800   -6.9200   21.4840 O   0  0  0  0  0  0  0  0  0  0  0  0
  -21.6560   -6.1710   22.6340 C   0  0  0  0  0  0  0  0  0  0  0  0
  -21.2630   -6.7230   23.8740 C   0  0  0  0  0  3  0  0  0  0  0  0
  -21.1870   -5.9020   25.0160 C   0  0  0  0  0  3  0  0  0  0  0  0
  -21.4940   -4.5310   24.9220 C   0  0  0  0  0  0  0  0  0  0  0  0
  -21.8820   -3.9800   23.6870 C   0  0  0  0  0  3  0  0  0  0  0  0
  -21.9600   -4.7980   22.5460 C   0  0  0  0  0  0  0  0  0  0  0  0
  -22.3120   -4.2580   21.3550 F   0  0  0  0  0  0  0  0  0  0  0  0
  -21.4140   -3.7400   26.0170 F   0  0  0  0  0  0  0  0  0  0  0  0
  -22.7460  -13.5590   21.0880 C   0  0  0  0  0  0  0  0  0  0  0  0
  -22.0200  -12.8710   21.9630 N   0  0  0  0  0  0  0  0  0  0  0  0
  -22.3050  -14.5790   20.5600 O   0  0  0  0  0  0  0  0  0  0  0  0
  -22.3890  -12.0490   22.4190 H   0  0  0  0  0  0  0  0  0  0  0  0
  -21.0830  -13.1750   22.1870 H   0  0  0  0  0  0  0  0  0  0  0  0
  -25.3650  -15.2260   20.2500 N   0  0  0  0  0  0  0  0  0  0  0  0
  -24.5890  -15.8710   20.3510 H   0  0  0  0  0  0  0  0  0  0  0  0
  -26.2070  -15.6710   19.9100 H   0  0  0  0  0  0  0  0  0  0  0  0
  -29.4290  -24.4830   20.7540 C   0  0  0  0  0  2  0  0  0  0  0  0
  -28.1530  -25.2590   20.3590 C   0  0  0  0  0  2  0  0  0  0  0  0
  -28.3630  -26.6740   20.1760 O   0  0  0  0  0  0  0  0  0  0  0  0
  -24.5740  -31.8820   23.2290 C   0  0  0  0  0  0  0  0  0  0  0  0
  -27.2070  -27.4330   20.1410 C   0  0  0  0  0  0  0  0  0  0  0  0
  -23.3670  -30.4860   21.5840 C   0  0  0  0  0  3  0  0  0  0  0  0
  -24.8180  -28.9550   20.1510 C   0  0  0  0  0  0  0  0  0  0  0  0
  -25.8930  -30.8430   21.3860 C   0  0  0  0  0  2  0  0  0  0  0  0
  -25.9800  -29.4730   20.7400 C   0  0  0  0  0  0  0  0  0  0  0  0
  -27.1780  -28.7220   20.7270 C   0  0  0  0  0  3  0  0  0  0  0  0
  -26.0260  -26.9410   19.5390 C   0  0  0  0  0  3  0  0  0  0  0  0
  -24.8370  -27.6920   19.5450 C   0  0  0  0  0  3  0  0  0  0  0  0
  -23.5750  -29.8140   20.2020 C   0  0  0  0  0  2  0  0  0  0  0  0
  -24.6300  -31.0840   22.1250 N   0  0  0  0  0  0  0  0  0  0  0  0
  -23.4930  -32.1550   23.7690 O   0  0  0  0  0  0  0  0  0  0  0  0
  -22.7150  -29.4630   22.5420 C   0  0  0  0  0  0  0  0  0  0  0  0
  -21.3900  -29.2830   22.4170 N   0  0  0  0  0  0  0  0  0  0  0  0
  -23.3980  -28.8330   23.3550 O   0  0  0  0  0  0  0  0  0  0  0  0
  -20.9000  -29.8450   21.7340 H   0  0  0  0  0  0  0  0  0  0  0  0
  -18.0140  -28.0940   22.9130 C   0  0  0  0  0  0  0  0  0  0  0  0
  -20.5720  -28.3450   23.1840 C   0  0  0  0  0  3  0  0  0  0  0  0
  -20.6710  -26.9150   22.6040 C   0  0  0  0  0  2  0  0  0  0  0  0
  -19.5690  -26.5990   21.5890 C   0  0  0  0  0  2  0  0  0  0  0  0
  -18.1880  -26.7460   22.2340 C   0  0  0  0  0  2  0  0  0  0  0  0
  -19.1350  -28.8520   23.3460 C   0  0  0  0  0  0  0  0  0  0  0  0
  -18.9200  -30.1140   23.9410 C   0  0  0  0  0  3  0  0  0  0  0  0
  -17.6170  -30.6210   24.1040 C   0  0  0  0  0  3  0  0  0  0  0  0
  -16.5100  -29.8590   23.6900 C   0  0  0  0  0  3  0  0  0  0  0  0
  -16.7100  -28.5980   23.1010 C   0  0  0  0  0  3  0  0  0  0  0  0
  -25.8610  -32.5110   23.8490 C   0  0  0  0  0  3  0  0  0  0  0  0
  -25.5560  -33.9080   24.1840 N   0  0  0  0  0  0  0  0  0  0  0  0
  -25.8900  -34.9620   23.4260 C   0  0  0  0  0  0  0  0  0  0  0  0
  -26.5620  -34.8580   22.3950 O   0  0  0  0  0  0  0  0  0  0  0  0
  -24.9630  -34.0620   24.9860 H   0  0  0  0  0  0  0  0  0  0  0  0
  -24.1670  -36.7580   23.0650 C   0  0  0  0  0  1  0  0  0  0  0  0
  -25.4030  -36.3490   23.8830 C   0  0  0  0  0  3  0  0  0  0  0  0
  -27.5360  -37.2260   24.7290 C   0  0  0  0  0  1  0  0  0  0  0  0
  -26.4380  -37.4010   23.7800 N   0  0  0  0  0  0  0  0  0  0  0  0
  -26.0330  -38.3210   23.9300 H   0  0  0  0  0  0  0  0  0  0  0  0
  -26.3830  -31.7330   25.1200 C   0  0  1  0  0  0  0  0  0  0  0  0
  -25.2950  -31.4880   26.1920 C   0  0  0  0  0  1  0  0  0  0  0  0
  -26.9600  -30.3560   24.7140 C   0  0  0  0  0  1  0  0  0  0  0  0
  -27.5380  -32.5200   25.7820 C   0  0  0  0  0  1  0  0  0  0  0  0
  1  2  2  0
  2  3  1  0
  4  5  1  0
  4  7  1  0
  7  6  1  0
  7  1  1  0
  8  5  1  0
  8  6  1  0
  8 10  1  0
  9  4  2  0
 11 20  1  0
 11 10  1  0
 12 20  1  0
 13 18  1  0
 14 15  1  0
 14 13  1  0
 16 15  1  0
 16 25  1  0
 16 17  1  0
 18 12  1  0
 18 17  1  0
 19 12  2  0
 20 21  1  0
 22 23  2  0
 23 42  1  0
 24 23  1  0
 24 27  1  0
 25 22  1  0
 25 26  1  0
 26 24  2  0
 27 28  1  0
 28 29  2  0
 30 33  1  0
 30 29  1  0
 31 30  2  0
 32 31  1  0
 32 27  2  0
 33 34  1  0
 34 35  1  0
 35 36  2  0
 37 36  1  0
 37 41  1  0
 38 37  2  0
 39 34  2  0
 39 38  1  0
 40 39  1  0
 42 43  1  0
 43 46  1  0
 43 45  1  0
 44 42  2  0
 47 48  1  0
 47 22  1  0
 49 47  1  0
 50  1  1  0
 51 50  1  0
 52 51  1  0
 53 64  2  0
 54 52  1  0
 54 59  1  0
 55 63  1  0
 55 65  1  0
 56 62  1  0
 56 58  1  0
 57 63  1  0
 58 57  1  0
 59 58  2  0
 60 61  1  0
 60 54  2  0
 61 56  2  0
 62 55  1  0
 63 53  1  0
 65 67  2  0
 66 65  1  0
 68 66  1  0
 69 78  2  0
 69 74  1  0
 70 66  1  0
 70 74  1  0
 71 70  1  0
 72 73  1  0
 72 71  1  0
 73 69  1  0
 74 75  2  0
 75 76  1  0
 77 76  2  0
 78 77  1  0
 79 53  1  0
 79 80  1  0
 79 89  1  0
 80 83  1  0
 81 85  1  0
 81 80  1  0
 82 81  2  0
 85 84  1  0
 87 85  1  0
 87 88  1  0
 87 86  1  0
 89 92  1  1
 89 90  1  0
 91 89  1  0
M  ISO  4  12 100  20 100  51 101  52 101
M  END
>  <TORSDO>  (30) 
F 21

>  <SCORE>  (30) 
-13.712

>  <name>  (30) 
29

>  <ligand_id>  (30) 
29

>  <original_smiles>  (30) 
[H]N=C(C([H])([H])C([H])([H])Oc1c([H])c([H])c2c(c1[H])C([H])([H])N(C(=O)C([H])(N([H])C(=O)C([H])(N([H])C([H])([H])[H])C([H])([H])[H])C(C([H])([H])[H])(C([H])([H])[H])C([H])([H])[H])C([H])(C(=O)N([H])C1([H])c3c([H])c([H])c([H])c([H])c3C([H])([H])C([H])([H])C1([H])[H])C2([H])[H])C1([H])C(=O)C([H])([H])C([H])(C([H])([H])C([H])([H])N([H])C(=O)N2C([H])([H])C([H])([H])C([H])([H])C([H])(n3nc(-c4c([H])c([H])c(Oc5c([H])c([H])c(F)c([H])c5F)c([H])c4[H])c(C(=O)N([H])[H])c3N([H])[H])C2([H])[H])C1([H])[H]

>  <smiles>  (30) 
[H]N=C(C([H])([H])C([H])([H])Oc1c([H])c([H])c2c(c1[H])C([H])([H])N(C(=O)C([H])(N([H])C(=O)C([H])(N([H])C([H])([H])[H])C([H])([H])[H])C(C([H])([H])[H])(C([H])([H])[H])C([H])([H])[H])C([H])(C(=O)N([H])C1([H])c3c([H])c([H])c([H])c([H])c3C([H])([H])C([H])([H])C1([H])[H])C2([H])[H])C1([H])C(=O)C([H])([H])C([H])(C([H])([H])C([H])([H])N([H])C(=O)N2C([H])([H])C([H])([H])C([H])([H])C([H])(n3nc(-c4c([H])c([H])c(Oc5c([H])c([H])c(F)c([H])c5F)c([H])c4[H])c(C(=O)N([H])[H])c3N([H])[H])C2([H])[H])C1([H])[H]

$$$$
30:0:0
     RDKit          3D

 98107  0  0  1  0  0  0  0  0999 V2000
  -27.9240  -22.1620   20.4020 C   0  0  0  0  0  3  0  0  0  0  0  0
  -27.9780  -23.7010   20.3840 C   0  0  0  0  0  3  0  0  0  0  0  0
  -27.9100  -23.5270   18.8600 C   0  0  0  0  0  3  0  0  0  0  0  0
  -28.4710  -22.1890   19.0500 N   0  0  0  0  0  4  0  0  0  0  0  0
  -28.1040  -21.4780   18.4330 H   0  0  0  0  0  0  0  0  0  0  0  0
  -29.4780  -22.1890   19.0720 H   0  0  0  0  0  0  0  0  0  0  0  0
  -26.8760  -24.8060   23.1840 C   0  0  0  0  0  2  0  0  0  0  0  0
  -27.5000  -25.4640   22.1780 C   0  0  0  0  0  2  0  0  0  0  0  0
  -26.3140  -23.9390   22.3300 C   0  0  0  0  0  3  0  0  0  0  0  0
  -26.9150  -24.5530   21.1000 C   0  0  0  0  0  3  0  0  0  0  0  0
  -25.5270  -22.9810   22.5030 N   0  0  0  0  0  2  0  0  0  0  0  0
  -24.8750  -23.1540   23.2600 H   0  0  0  0  0  0  0  0  0  0  0  0
  -28.8690  -21.4180   21.3090 C   0  0  0  0  0  0  0  0  0  0  0  0
  -29.2190  -21.7770   22.4370 O   0  0  0  0  0  0  0  0  0  0  0  0
  -29.4620  -20.1380   20.7080 C   0  0  0  0  0  2  0  0  0  0  0  0
  -29.8200  -19.0210   21.7090 C   0  0  0  0  0  2  0  0  0  0  0  0
  -31.0430  -18.2250   21.2270 C   0  0  0  0  0  2  0  0  0  0  0  0
  -31.6520  -15.8570   20.9370 C   0  0  0  0  0  0  0  0  0  0  0  0
  -31.5360  -13.6840   19.7900 C   0  0  0  0  0  2  0  0  0  0  0  0
  -30.7340  -13.8510   18.4830 C   0  0  0  0  0  2  0  0  0  0  0  0
  -29.2220  -13.6980   18.7390 C   0  0  0  0  0  2  0  0  0  0  0  0
  -28.7280  -14.5620   19.9310 C   0  0  0  0  0  3  0  0  0  0  0  0
  -29.6450  -14.3550   21.1610 C   0  0  0  0  0  2  0  0  0  0  0  0
  -31.0300  -14.6650   20.7600 N   0  0  0  0  0  0  0  0  0  0  0  0
  -32.7810  -16.1170   20.5070 O   0  0  0  0  0  0  0  0  0  0  0  0
  -30.8750  -16.8020   21.4760 N   0  0  0  0  0  0  0  0  0  0  0  0
  -29.9800  -16.4900   21.8230 H   0  0  0  0  0  0  0  0  0  0  0  0
  -26.2510  -15.1540   20.3180 C   0  0  0  0  0  0  0  0  0  0  0  0
  -25.1550  -14.3750   20.5770 C   0  0  0  0  0  0  0  0  0  0  0  0
  -25.6340  -13.0310   20.6400 C   0  0  0  0  0  0  0  0  0  0  0  0
  -27.3280  -14.2830   20.2450 N   0  0  0  0  0  0  0  0  0  0  0  0
  -26.9510  -13.0030   20.4910 N   0  0  0  0  0  0  0  0  0  0  0  0
  -24.9070  -11.7630   20.7790 C   0  0  0  0  0  0  0  0  0  0  0  0
  -25.2490  -10.8220   21.7760 C   0  0  0  0  0  3  0  0  0  0  0  0
  -24.5270   -9.6160   21.9000 C   0  0  0  0  0  3  0  0  0  0  0  0
  -23.4470   -9.3440   21.0260 C   0  0  0  0  0  0  0  0  0  0  0  0
  -23.1250  -10.2720   20.0230 C   0  0  0  0  0  3  0  0  0  0  0  0
  -23.8480  -11.4700   19.8960 C   0  0  0  0  0  3  0  0  0  0  0  0
  -22.7040   -8.1880   21.0570 O   0  0  0  0  0  0  0  0  0  0  0  0
  -22.5000   -7.4940   22.2220 C   0  0  0  0  0  0  0  0  0  0  0  0
  -21.9070   -8.0980   23.3530 C   0  0  0  0  0  3  0  0  0  0  0  0
  -21.6480   -7.3300   24.5060 C   0  0  0  0  0  3  0  0  0  0  0  0
  -21.9740   -5.9600   24.5290 C   0  0  0  0  0  0  0  0  0  0  0  0
  -22.5610   -5.3570   23.4040 C   0  0  0  0  0  3  0  0  0  0  0  0
  -22.8200   -6.1220   22.2520 C   0  0  0  0  0  0  0  0  0  0  0  0
  -23.3650   -5.5300   21.1620 F   0  0  0  0  0  0  0  0  0  0  0  0
  -21.7200   -5.2210   25.6350 F   0  0  0  0  0  0  0  0  0  0  0  0
  -23.7290  -14.8370   20.6730 C   0  0  0  0  0  0  0  0  0  0  0  0
  -22.9160  -14.1530   21.4710 N   0  0  0  0  0  0  0  0  0  0  0  0
  -23.3380  -15.8380   20.0740 O   0  0  0  0  0  0  0  0  0  0  0  0
  -23.2440  -13.3430   21.9770 H   0  0  0  0  0  0  0  0  0  0  0  0
  -21.9530  -14.4420   21.5780 H   0  0  0  0  0  0  0  0  0  0  0  0
  -26.4190  -16.5230   20.1230 N   0  0  0  0  0  0  0  0  0  0  0  0
  -25.6350  -17.1660   20.1110 H   0  0  0  0  0  0  0  0  0  0  0  0
  -27.2980  -16.9640   19.8860 H   0  0  0  0  0  0  0  0  0  0  0  0
  -28.7270  -24.3890   17.8870 C   0  0  0  0  0  2  0  0  0  0  0  0
  -29.0960  -25.7640   18.4620 C   0  0  0  0  0  2  0  0  0  0  0  0
  -28.7180  -26.8020   17.5540 O   0  0  0  0  0  0  0  0  0  0  0  0
  -26.1200  -30.0940   23.2590 C   0  0  0  0  0  0  0  0  0  0  0  0
  -27.7120  -27.5860   18.0500 C   0  0  0  0  0  0  0  0  0  0  0  0
  -24.5780  -29.8300   21.3610 C   0  0  0  0  0  3  0  0  0  0  0  0
  -25.6090  -29.0930   19.1530 C   0  0  0  0  0  0  0  0  0  0  0  0
  -27.0850  -30.0090   20.9580 C   0  0  0  0  0  2  0  0  0  0  0  0
  -26.8840  -29.1460   19.7310 C   0  0  0  0  0  0  0  0  0  0  0  0
  -27.9420  -28.3990   19.1770 C   0  0  0  0  0  3  0  0  0  0  0  0
  -26.4290  -27.5470   17.4650 C   0  0  0  0  0  3  0  0  0  0  0  0
  -25.3730  -28.2980   18.0160 C   0  0  0  0  0  3  0  0  0  0  0  0
  -24.5320  -29.9190   19.8110 C   0  0  0  0  0  2  0  0  0  0  0  0
  -25.9550  -29.9560   21.9140 N   0  0  0  0  0  0  0  0  0  0  0  0
  -25.1440  -30.1630   24.0210 O   0  0  0  0  0  0  0  0  0  0  0  0
  -23.8550  -28.5430   21.8050 C   0  0  0  0  0  0  0  0  0  0  0  0
  -22.5340  -28.6440   21.7320 N   0  0  0  0  0  0  0  0  0  0  0  0
  -24.4570  -27.5230   22.1440 O   0  0  0  0  0  0  0  0  0  0  0  0
  -22.2030  -29.5780   21.5250 H   0  0  0  0  0  0  0  0  0  0  0  0
  -18.9900  -27.4660   21.6350 C   0  0  0  0  0  0  0  0  0  0  0  0
  -21.4920  -27.6500   21.6800 C   0  0  0  0  0  3  0  0  0  0  0  0
  -21.6200  -26.3740   20.8410 C   0  0  0  0  0  2  0  0  0  0  0  0
  -20.4740  -26.3610   19.8080 C   0  0  0  0  0  2  0  0  0  0  0  0
  -19.0830  -26.4800   20.4690 C   0  0  0  0  0  2  0  0  0  0  0  0
  -20.1470  -27.9480   22.2950 C   0  0  0  0  0  0  0  0  0  0  0  0
  -20.0300  -28.8460   23.3740 C   0  0  0  0  0  3  0  0  0  0  0  0
  -18.7620  -29.3040   23.7710 C   0  0  0  0  0  3  0  0  0  0  0  0
  -17.6110  -28.8530   23.0980 C   0  0  0  0  0  3  0  0  0  0  0  0
  -17.7240  -27.9270   22.0440 C   0  0  0  0  0  3  0  0  0  0  0  0
  -27.5370  -30.1920   23.8970 C   0  0  0  0  0  3  0  0  0  0  0  0
  -27.4430  -31.1240   25.0290 N   0  0  0  0  0  0  0  0  0  0  0  0
  -27.8900  -32.3870   25.0100 C   0  0  0  0  0  0  0  0  0  0  0  0
  -28.4960  -32.8670   24.0490 O   0  0  0  0  0  0  0  0  0  0  0  0
  -26.9080  -30.8130   25.8270 H   0  0  0  0  0  0  0  0  0  0  0  0
  -26.4630  -34.2170   25.9780 C   0  0  0  0  0  1  0  0  0  0  0  0
  -27.6270  -33.2500   26.2570 C   0  0  0  0  0  3  0  0  0  0  0  0
  -29.8710  -33.1650   27.2460 C   0  0  0  0  0  1  0  0  0  0  0  0
  -28.8140  -34.0130   26.7040 N   0  0  0  0  0  0  0  0  0  0  0  0
  -28.5570  -34.6930   27.4170 H   0  0  0  0  0  0  0  0  0  0  0  0
  -28.1000  -28.7940   24.3590 C   0  0  1  0  0  0  0  0  0  0  0  0
  -27.1210  -27.9860   25.2420 C   0  0  0  0  0  1  0  0  0  0  0  0
  -28.4590  -27.9230   23.1330 C   0  0  0  0  0  1  0  0  0  0  0  0
  -29.4090  -29.0020   25.1570 C   0  0  0  0  0  1  0  0  0  0  0  0
  1 13  1  0
  2  1  1  0
  2 10  1  0
  3 56  1  0
  3  4  1  0
  3  2  1  0
  4  6  1  0
  4  1  1  0
  5  4  1  0
  8  7  1  0
  9 11  1  0
  9  7  1  0
 10  8  1  0
 10  9  1  0
 11 12  1  0
 13 14  2  0
 15 13  1  0
 15 16  1  0
 17 26  1  0
 17 16  1  0
 18 26  1  0
 19 24  1  0
 20 21  1  0
 20 19  1  0
 22 21  1  0
 22 31  1  0
 22 23  1  0
 24 18  1  0
 24 23  1  0
 25 18  2  0
 26 27  1  0
 28 29  2  0
 29 30  1  0
 29 48  1  0
 30 33  1  0
 31 28  1  0
 31 32  1  0
 32 30  2  0
 33 34  1  0
 34 35  2  0
 36 39  1  0
 36 35  1  0
 37 36  2  0
 38 37  1  0
 38 33  2  0
 39 40  1  0
 40 45  2  0
 40 41  1  0
 41 42  2  0
 42 43  1  0
 43 47  1  0
 44 43  2  0
 45 44  1  0
 46 45  1  0
 48 49  1  0
 49 52  1  0
 49 51  1  0
 50 48  2  0
 53 28  1  0
 54 53  1  0
 55 53  1  0
 56 57  1  0
 58 60  1  0
 58 57  1  0
 59 70  2  0
 60 65  1  0
 61 71  1  0
 61 69  1  0
 62 64  1  0
 62 68  1  0
 63 69  1  0
 64 63  1  0
 65 64  2  0
 66 67  1  0
 66 60  2  0
 67 62  2  0
 68 61  1  0
 69 59  1  0
 71 73  2  0
 72 71  1  0
 74 72  1  0
 75 84  2  0
 75 80  1  0
 76 72  1  0
 76 80  1  0
 77 76  1  0
 78 79  1  0
 78 77  1  0
 79 75  1  0
 80 81  2  0
 81 82  1  0
 83 82  2  0
 84 83  1  0
 85 59  1  0
 85 95  1  0
 85 86  1  0
 86 89  1  0
 87 86  1  0
 87 91  1  0
 88 87  2  0
 91 90  1  0
 91 93  1  0
 93 92  1  0
 93 94  1  0
 95 98  1  1
 95 96  1  0
 97 95  1  0
M  ISO  4  18 100  26 100  57 101  58 101
M  END
>  <TORSDO>  (31) 
F 23

>  <SCORE>  (31) 
-5.218

>  <name>  (31) 
30

>  <ligand_id>  (31) 
30

>  <original_smiles>  (31) 
[H]N=C1C([H])=C([H])C1([H])C1([H])C([H])(C(=O)C([H])([H])C([H])([H])C([H])([H])N([H])C(=O)N2C([H])([H])C([H])([H])C([H])([H])C([H])(n3nc(-c4c([H])c([H])c(Oc5c([H])c([H])c(F)c([H])c5F)c([H])c4[H])c(C(=O)N([H])[H])c3N([H])[H])C2([H])[H])[N+]([H])([H])C1([H])C([H])([H])C([H])([H])Oc1c([H])c([H])c2c(c1[H])C([H])([H])N(C(=O)C([H])(N([H])C(=O)C([H])(N([H])C([H])([H])[H])C([H])([H])[H])C(C([H])([H])[H])(C([H])([H])[H])C([H])([H])[H])C([H])(C(=O)N([H])C1([H])c3c([H])c([H])c([H])c([H])c3C([H])([H])C([H])([H])C1([H])[H])C2([H])[H]

>  <smiles>  (31) 
[H]N=C1C([H])=C([H])C1([H])C1([H])C([H])(C(=O)C([H])([H])C([H])([H])C([H])([H])N([H])C(=O)N2C([H])([H])C([H])([H])C([H])([H])C([H])(n3nc(-c4c([H])c([H])c(Oc5c([H])c([H])c(F)c([H])c5F)c([H])c4[H])c(C(=O)N([H])[H])c3N([H])[H])C2([H])[H])[N+]([H])([H])C1([H])C([H])([H])C([H])([H])Oc1c([H])c([H])c2c(c1[H])C([H])([H])N(C(=O)C([H])(N([H])C(=O)C([H])(N([H])C([H])([H])[H])C([H])([H])[H])C(C([H])([H])[H])(C([H])([H])[H])C([H])([H])[H])C([H])(C(=O)N([H])C1([H])c3c([H])c([H])c([H])c([H])c3C([H])([H])C([H])([H])C1([H])[H])C2([H])[H]

$$$$
31:0:0
     RDKit          3D

 91100  0  0  1  0  0  0  0  0999 V2000
  -30.2070  -21.2270   20.8400 C   0  0  0  0  0  2  0  0  0  0  0  0
  -29.4460  -20.3050   19.9370 C   0  0  0  0  0  3  0  0  0  0  0  0
  -29.5200  -21.9900   19.7500 C   0  0  0  0  0  3  0  0  0  0  0  0
  -30.4120  -18.9860   19.6220 C   0  0  0  0  0  2  0  0  0  0  0  0
  -29.9210  -17.4540   19.1630 C   0  0  0  0  0  2  0  0  0  0  0  0
  -30.9040  -14.8800   19.1180 C   0  0  0  0  0  0  0  0  0  0  0  0
  -30.3950  -12.5960   18.1380 C   0  0  0  0  0  2  0  0  0  0  0  0
  -29.2970  -12.7030   17.0550 C   0  0  0  0  0  2  0  0  0  0  0  0
  -27.8970  -12.6130   17.6910 C   0  0  0  0  0  2  0  0  0  0  0  0
  -27.7650  -13.5200   18.9400 C   0  0  0  0  0  3  0  0  0  0  0  0
  -28.9610  -13.3670   19.8990 C   0  0  0  0  0  2  0  0  0  0  0  0
  -30.1830  -13.6830   19.1390 N   0  0  0  0  0  0  0  0  0  0  0  0
  -31.9310  -14.9080   18.4290 O   0  0  0  0  0  0  0  0  0  0  0  0
  -30.4180  -16.0580   19.7370 N   0  0  0  0  0  0  0  0  0  0  0  0
  -31.1600  -17.5430   22.5830 C   0  0  0  0  0  2  0  0  0  0  0  0
  -31.8060  -16.6890   21.7660 C   0  0  0  0  0  3  0  0  0  0  0  0
  -29.8690  -17.1420   22.0260 C   0  0  0  0  0  0  0  0  0  0  0  0
  -30.5530  -16.0010   21.2170 C   0  0  0  0  0  3  0  0  0  0  0  0
  -33.0030  -16.0560   21.9840 O   0  0  0  0  0  1  0  0  0  0  0  0
  -28.7280  -17.5800   22.1990 O   0  0  0  0  0  0  0  0  0  0  0  0
  -25.5910  -14.2810   20.0590 C   0  0  0  0  0  0  0  0  0  0  0  0
  -24.5280  -13.5900   20.5710 C   0  0  0  0  0  0  0  0  0  0  0  0
  -24.8480  -12.2050   20.4220 C   0  0  0  0  0  0  0  0  0  0  0  0
  -26.4930  -13.3240   19.6270 N   0  0  0  0  0  0  0  0  0  0  0  0
  -26.0640  -12.0660   19.9090 N   0  0  0  0  0  0  0  0  0  0  0  0
  -24.0400  -11.0070   20.6860 C   0  0  0  0  0  0  0  0  0  0  0  0
  -24.4830   -9.9940   21.5650 C   0  0  0  0  0  3  0  0  0  0  0  0
  -23.6790   -8.8630   21.8180 C   0  0  0  0  0  3  0  0  0  0  0  0
  -22.4150   -8.7360   21.1940 C   0  0  0  0  0  0  0  0  0  0  0  0
  -21.9880   -9.7350   20.3010 C   0  0  0  0  0  3  0  0  0  0  0  0
  -22.7930  -10.8580   20.0460 C   0  0  0  0  0  3  0  0  0  0  0  0
  -21.5770   -7.6600   21.3580 O   0  0  0  0  0  0  0  0  0  0  0  0
  -21.5480   -6.9410   22.5280 C   0  0  0  0  0  0  0  0  0  0  0  0
  -21.2830   -7.5540   23.7720 C   0  0  0  0  0  3  0  0  0  0  0  0
  -21.1960   -6.7690   24.9390 C   0  0  0  0  0  3  0  0  0  0  0  0
  -21.3600   -5.3730   24.8630 C   0  0  0  0  0  0  0  0  0  0  0  0
  -21.6180   -4.7600   23.6240 C   0  0  0  0  0  3  0  0  0  0  0  0
  -21.7080   -5.5430   22.4590 C   0  0  0  0  0  0  0  0  0  0  0  0
  -21.9360   -4.9460   21.2650 F   0  0  0  0  0  0  0  0  0  0  0  0
  -21.2680   -4.6170   25.9810 F   0  0  0  0  0  0  0  0  0  0  0  0
  -23.2450  -14.1780   21.0780 C   0  0  0  0  0  0  0  0  0  0  0  0
  -22.6310  -13.5450   22.0730 N   0  0  0  0  0  0  0  0  0  0  0  0
  -22.8030  -15.2350   20.6280 O   0  0  0  0  0  0  0  0  0  0  0  0
  -23.0060  -12.6910   22.4580 H   0  0  0  0  0  0  0  0  0  0  0  0
  -21.7760  -13.9210   22.4550 H   0  0  0  0  0  0  0  0  0  0  0  0
  -25.8590  -15.6380   19.9060 N   0  0  0  0  0  0  0  0  0  0  0  0
  -25.1950  -16.3540   20.1800 H   0  0  0  0  0  0  0  0  0  0  0  0
  -26.7180  -16.0170   19.5310 H   0  0  0  0  0  0  0  0  0  0  0  0
  -28.7780  -23.3290   20.4080 C   0  0  0  0  0  2  0  0  0  0  0  0
  -28.4000  -24.7530   19.6210 C   0  0  0  0  0  2  0  0  0  0  0  0
  -28.3820  -26.1750   20.2450 O   0  0  0  0  0  0  0  0  0  0  0  0
  -24.8950  -31.8750   23.2670 C   0  0  0  0  0  0  0  0  0  0  0  0
  -27.3190  -27.1420   20.1610 C   0  0  0  0  0  0  0  0  0  0  0  0
  -23.6360  -30.5220   21.6330 C   0  0  0  0  0  3  0  0  0  0  0  0
  -25.0260  -28.9270   20.1710 C   0  0  0  0  0  0  0  0  0  0  0  0
  -26.1900  -30.7310   21.4350 C   0  0  0  0  0  2  0  0  0  0  0  0
  -26.2200  -29.3440   20.7710 C   0  0  0  0  0  0  0  0  0  0  0  0
  -27.3620  -28.4640   20.7550 C   0  0  0  0  0  3  0  0  0  0  0  0
  -26.1040  -26.8270   19.5120 C   0  0  0  0  0  3  0  0  0  0  0  0
  -24.9790  -27.6830   19.5250 C   0  0  0  0  0  3  0  0  0  0  0  0
  -23.8200  -29.8510   20.2440 C   0  0  0  0  0  2  0  0  0  0  0  0
  -24.9270  -31.0620   22.1670 N   0  0  0  0  0  0  0  0  0  0  0  0
  -23.8230  -32.1810   23.8130 O   0  0  0  0  0  0  0  0  0  0  0  0
  -22.9490  -29.5240   22.5980 C   0  0  0  0  0  0  0  0  0  0  0  0
  -21.6180  -29.3700   22.4760 N   0  0  0  0  0  0  0  0  0  0  0  0
  -23.6140  -28.8880   23.4200 O   0  0  0  0  0  0  0  0  0  0  0  0
  -21.1370  -29.9350   21.7890 H   0  0  0  0  0  0  0  0  0  0  0  0
  -18.2260  -28.2020   22.9690 C   0  0  0  0  0  0  0  0  0  0  0  0
  -20.7850  -28.4470   23.2500 C   0  0  0  0  0  3  0  0  0  0  0  0
  -20.8780  -27.0090   22.6880 C   0  0  0  0  0  2  0  0  0  0  0  0
  -19.7810  -26.6850   21.6690 C   0  0  0  0  0  2  0  0  0  0  0  0
  -18.3960  -26.8460   22.3030 C   0  0  0  0  0  2  0  0  0  0  0  0
  -19.3470  -28.9600   23.3980 C   0  0  0  0  0  0  0  0  0  0  0  0
  -19.1330  -30.2280   23.9800 C   0  0  0  0  0  3  0  0  0  0  0  0
  -17.8300  -30.7390   24.1360 C   0  0  0  0  0  3  0  0  0  0  0  0
  -16.7220  -29.9780   23.7210 C   0  0  0  0  0  3  0  0  0  0  0  0
  -16.9210  -28.7110   23.1440 C   0  0  0  0  0  3  0  0  0  0  0  0
  -26.1980  -32.4730   23.8800 C   0  0  0  0  0  3  0  0  0  0  0  0
  -25.9160  -33.8660   24.2630 N   0  0  0  0  0  0  0  0  0  0  0  0
  -26.2390  -34.9400   23.5320 C   0  0  0  0  0  0  0  0  0  0  0  0
  -26.8770  -34.8630   22.4780 O   0  0  0  0  0  0  0  0  0  0  0  0
  -25.3490  -34.0000   25.0880 H   0  0  0  0  0  0  0  0  0  0  0  0
  -24.5290  -36.7710   23.2910 C   0  0  0  0  0  1  0  0  0  0  0  0
  -25.7870  -36.3210   24.0510 C   0  0  0  0  0  3  0  0  0  0  0  0
  -27.9610  -37.1430   24.8460 C   0  0  0  0  0  1  0  0  0  0  0  0
  -26.8330  -37.3620   23.9430 N   0  0  0  0  0  0  0  0  0  0  0  0
  -26.4460  -38.2820   24.1360 H   0  0  0  0  0  0  0  0  0  0  0  0
  -26.7290  -31.6580   25.1240 C   0  0  1  0  0  0  0  0  0  0  0  0
  -25.6490  -31.3880   26.1990 C   0  0  0  0  0  1  0  0  0  0  0  0
  -27.3010  -30.2930   24.6810 C   0  0  0  0  0  1  0  0  0  0  0  0
  -27.8910  -32.4270   25.7950 C   0  0  0  0  0  1  0  0  0  0  0  0
  2  4  1  0
  2  1  1  0
  3  2  1  0
  3 49  1  0
  3  1  1  0
  5  4  1  0
  5 14  1  0
  6 12  1  0
  6 14  1  0
  7 12  1  0
  8  9  1  0
  8  7  1  0
 10  9  1  0
 10 24  1  0
 10 11  1  0
 12 11  1  0
 13  6  2  0
 16 19  1  0
 16 15  1  0
 17 20  2  0
 17 15  1  0
 18 14  1  0
 18 16  1  0
 18 17  1  0
 21 22  2  0
 22 41  1  0
 23 22  1  0
 23 26  1  0
 24 25  1  0
 24 21  1  0
 25 23  2  0
 26 27  1  0
 27 28  2  0
 29 32  1  0
 29 28  1  0
 30 29  2  0
 31 30  1  0
 31 26  2  0
 32 33  1  0
 33 34  1  0
 34 35  2  0
 36 35  1  0
 36 40  1  0
 37 36  2  0
 38 33  2  0
 38 37  1  0
 39 38  1  0
 41 42  1  0
 42 45  1  0
 42 44  1  0
 43 41  2  0
 46 21  1  0
 46 47  1  0
 48 46  1  0
 50 51  1  0
 50 49  1  0
 52 63  2  0
 53 51  1  0
 53 58  1  0
 54 62  1  0
 54 64  1  0
 55 61  1  0
 55 57  1  0
 56 62  1  0
 57 56  1  0
 58 57  2  0
 59 60  1  0
 59 53  2  0
 60 55  2  0
 61 54  1  0
 62 52  1  0
 64 66  2  0
 65 64  1  0
 67 65  1  0
 68 77  2  0
 68 73  1  0
 69 65  1  0
 69 73  1  0
 70 69  1  0
 71 72  1  0
 71 70  1  0
 72 68  1  0
 73 74  2  0
 74 75  1  0
 76 75  2  0
 77 76  1  0
 78 52  1  0
 78 79  1  0
 78 88  1  0
 79 82  1  0
 80 84  1  0
 80 79  1  0
 81 80  2  0
 84 83  1  0
 86 84  1  0
 86 87  1  0
 86 85  1  0
 88 91  1  1
 88 89  1  0
 90 88  1  0
M  ISO  4   6 100  14 100  50 101  51 101
M  END
>  <TORSDO>  (32) 
F 21

>  <SCORE>  (32) 
-6.017

>  <name>  (32) 
31

>  <ligand_id>  (32) 
31

>  <original_smiles>  (32) 
[H]C1=C([O-])C([H])(N(C(=O)N2C([H])([H])C([H])([H])C([H])([H])C([H])(n3nc(-c4c([H])c([H])c(Oc5c([H])c([H])c(F)c([H])c5F)c([H])c4[H])c(C(=O)N([H])[H])c3N([H])[H])C2([H])[H])C([H])([H])C([H])([H])C2([H])C([H])([H])C2([H])C([H])([H])C([H])([H])Oc2c([H])c([H])c3c(c2[H])C([H])([H])N(C(=O)C([H])(N([H])C(=O)C([H])(N([H])C([H])([H])[H])C([H])([H])[H])C(C([H])([H])[H])(C([H])([H])[H])C([H])([H])[H])C([H])(C(=O)N([H])C2([H])c4c([H])c([H])c([H])c([H])c4C([H])([H])C([H])([H])C2([H])[H])C3([H])[H])C1=O

>  <smiles>  (32) 
[H]C1=C([O-])C([H])(N(C(=O)N2C([H])([H])C([H])([H])C([H])([H])C([H])(n3nc(-c4c([H])c([H])c(Oc5c([H])c([H])c(F)c([H])c5F)c([H])c4[H])c(C(=O)N([H])[H])c3N([H])[H])C2([H])[H])C([H])([H])C([H])([H])C2([H])C([H])([H])C2([H])C([H])([H])C([H])([H])Oc2c([H])c([H])c3c(c2[H])C([H])([H])N(C(=O)C([H])(N([H])C(=O)C([H])(N([H])C([H])([H])[H])C([H])([H])[H])C(C([H])([H])[H])(C([H])([H])[H])C([H])([H])[H])C([H])(C(=O)N([H])C2([H])c4c([H])c([H])c([H])c([H])c4C([H])([H])C([H])([H])C2([H])[H])C3([H])[H])C1=O

$$$$
32:0:0
     RDKit          3D

 88 96  0  0  1  0  0  0  0  0999 V2000
  -29.6390  -22.6960   21.1340 C   0  0  0  0  0  2  0  0  0  0  0  0
  -28.2680  -22.3800   19.5740 C   0  0  0  0  0  2  0  0  0  0  0  0
  -28.8730  -21.4120   20.6500 C   0  0  0  0  0  3  0  0  0  0  0  0
  -28.9140  -23.6940   20.1540 C   0  0  0  0  0  3  0  0  0  0  0  0
  -29.7120  -20.1260   20.1700 C   0  0  0  0  0  0  0  0  0  0  0  0
  -29.4750  -18.8390   20.6300 N   0  0  0  0  0  0  0  0  0  0  0  0
  -30.6090  -20.3120   19.3470 O   0  0  0  0  0  0  0  0  0  0  0  0
  -28.7250  -18.7430   21.3040 H   0  0  0  0  0  0  0  0  0  0  0  0
  -30.2180  -17.5490   20.2510 C   0  0  0  0  0  3  0  0  0  0  0  0
  -29.7700  -16.1050   20.8480 C   0  0  0  0  0  3  0  0  0  0  0  0
  -30.5440  -14.7610   20.4080 C   0  0  0  0  0  0  0  0  0  0  0  0
  -30.3500  -12.4910   19.3640 C   0  0  0  0  0  2  0  0  0  0  0  0
  -29.4190  -12.5890   18.1340 C   0  0  0  0  0  2  0  0  0  0  0  0
  -27.9430  -12.4220   18.5490 C   0  0  0  0  0  2  0  0  0  0  0  0
  -27.5690  -13.2990   19.7720 C   0  0  0  0  0  3  0  0  0  0  0  0
  -28.6190  -13.1880   20.8990 C   0  0  0  0  0  2  0  0  0  0  0  0
  -29.9280  -13.5300   20.3320 N   0  0  0  0  0  0  0  0  0  0  0  0
  -31.7120  -14.8670   20.0220 O   0  0  0  0  0  0  0  0  0  0  0  0
  -25.1740  -13.9000   20.4740 C   0  0  0  0  0  0  0  0  0  0  0  0
  -24.1040  -13.1310   20.8400 C   0  0  0  0  0  0  0  0  0  0  0  0
  -24.5650  -11.7780   20.8250 C   0  0  0  0  0  0  0  0  0  0  0  0
  -26.2190  -13.0170   20.2540 N   0  0  0  0  0  0  0  0  0  0  0  0
  -25.8590  -11.7370   20.5280 N   0  0  0  0  0  0  0  0  0  0  0  0
  -23.8350  -10.5200   21.0200 C   0  0  0  0  0  0  0  0  0  0  0  0
  -24.2680   -9.5510   21.9520 C   0  0  0  0  0  3  0  0  0  0  0  0
  -23.5370   -8.3570   22.1340 C   0  0  0  0  0  3  0  0  0  0  0  0
  -22.3600   -8.1220   21.3830 C   0  0  0  0  0  0  0  0  0  0  0  0
  -21.9480   -9.0790   20.4410 C   0  0  0  0  0  3  0  0  0  0  0  0
  -22.6780  -10.2650   20.2570 C   0  0  0  0  0  3  0  0  0  0  0  0
  -21.6010   -6.9800   21.4750 O   0  0  0  0  0  0  0  0  0  0  0  0
  -21.5670   -6.2290   22.6230 C   0  0  0  0  0  0  0  0  0  0  0  0
  -21.1750   -6.7800   23.8620 C   0  0  0  0  0  3  0  0  0  0  0  0
  -21.0860   -5.9560   25.0020 C   0  0  0  0  0  3  0  0  0  0  0  0
  -21.3780   -4.5820   24.9030 C   0  0  0  0  0  0  0  0  0  0  0  0
  -21.7620   -4.0310   23.6680 C   0  0  0  0  0  3  0  0  0  0  0  0
  -21.8520   -4.8520   22.5310 C   0  0  0  0  0  0  0  0  0  0  0  0
  -22.2020   -4.3120   21.3390 F   0  0  0  0  0  0  0  0  0  0  0  0
  -21.2850   -3.7900   25.9960 F   0  0  0  0  0  0  0  0  0  0  0  0
  -22.7040  -13.6120   21.0930 C   0  0  0  0  0  0  0  0  0  0  0  0
  -21.9670  -12.9260   21.9590 N   0  0  0  0  0  0  0  0  0  0  0  0
  -22.2730  -14.6330   20.5590 O   0  0  0  0  0  0  0  0  0  0  0  0
  -22.3300  -12.1010   22.4150 H   0  0  0  0  0  0  0  0  0  0  0  0
  -21.0270  -13.2300   22.1710 H   0  0  0  0  0  0  0  0  0  0  0  0
  -25.3430  -15.2690   20.2890 N   0  0  0  0  0  0  0  0  0  0  0  0
  -24.5760  -15.9270   20.3890 H   0  0  0  0  0  0  0  0  0  0  0  0
  -26.1970  -15.7050   19.9660 H   0  0  0  0  0  0  0  0  0  0  0  0
  -28.0410  -24.9640   20.6500 C   0  0  0  0  0  2  0  0  0  0  0  0
  -28.2910  -26.3850   20.2140 O   0  0  0  0  0  0  0  0  0  0  0  0
  -24.6220  -31.8970   23.2300 C   0  0  0  0  0  0  0  0  0  0  0  0
  -27.1970  -27.2830   20.1880 C   0  0  0  0  0  0  0  0  0  0  0  0
  -23.4060  -30.4940   21.6050 C   0  0  0  0  0  3  0  0  0  0  0  0
  -24.8450  -28.9310   20.1740 C   0  0  0  0  0  0  0  0  0  0  0  0
  -25.9480  -30.7970   21.4060 C   0  0  0  0  0  2  0  0  0  0  0  0
  -26.0220  -29.4120   20.7660 C   0  0  0  0  0  0  0  0  0  0  0  0
  -27.2020  -28.6000   20.7580 C   0  0  0  0  0  3  0  0  0  0  0  0
  -26.0020  -26.8750   19.5560 C   0  0  0  0  0  3  0  0  0  0  0  0
  -24.8400  -27.6720   19.5570 C   0  0  0  0  0  3  0  0  0  0  0  0
  -23.6110  -29.8120   20.2260 C   0  0  0  0  0  2  0  0  0  0  0  0
  -24.6790  -31.0820   22.1360 N   0  0  0  0  0  0  0  0  0  0  0  0
  -23.5430  -32.1800   23.7700 O   0  0  0  0  0  0  0  0  0  0  0  0
  -22.7460  -29.4830   22.5740 C   0  0  0  0  0  0  0  0  0  0  0  0
  -21.4190  -29.3080   22.4580 N   0  0  0  0  0  0  0  0  0  0  0  0
  -23.4290  -28.8600   23.3930 O   0  0  0  0  0  0  0  0  0  0  0  0
  -20.9270  -29.8610   21.7690 H   0  0  0  0  0  0  0  0  0  0  0  0
  -18.0450  -28.1050   22.9770 C   0  0  0  0  0  0  0  0  0  0  0  0
  -20.6030  -28.3750   23.2380 C   0  0  0  0  0  3  0  0  0  0  0  0
  -20.7090  -26.9390   22.6760 C   0  0  0  0  0  2  0  0  0  0  0  0
  -19.6050  -26.6040   21.6680 C   0  0  0  0  0  2  0  0  0  0  0  0
  -18.2240  -26.7500   22.3130 C   0  0  0  0  0  2  0  0  0  0  0  0
  -19.1620  -28.8750   23.3970 C   0  0  0  0  0  0  0  0  0  0  0  0
  -18.9400  -30.1410   23.9780 C   0  0  0  0  0  3  0  0  0  0  0  0
  -17.6340  -30.6400   24.1430 C   0  0  0  0  0  3  0  0  0  0  0  0
  -16.5310  -29.8680   23.7380 C   0  0  0  0  0  3  0  0  0  0  0  0
  -16.7370  -28.6030   23.1600 C   0  0  0  0  0  3  0  0  0  0  0  0
  -25.9090  -32.5320   23.8420 C   0  0  0  0  0  3  0  0  0  0  0  0
  -26.4400  -31.7600   25.1110 C   0  0  1  0  0  0  0  0  0  0  0  0
  -25.3570  -31.5200   26.1910 C   0  0  0  0  0  1  0  0  0  0  0  0
  -27.0180  -30.3820   24.7130 C   0  0  0  0  0  1  0  0  0  0  0  0
  -27.5970  -32.5530   25.7610 C   0  0  0  0  0  1  0  0  0  0  0  0
  -25.5980  -33.9290   24.1800 N   0  0  0  0  0  0  0  0  0  0  0  0
  -25.9190  -34.9860   23.4220 C   0  0  0  0  0  0  0  0  0  0  0  0
  -26.5750  -34.8890   22.3810 O   0  0  0  0  0  0  0  0  0  0  0  0
  -25.0140  -34.0780   24.9890 H   0  0  0  0  0  0  0  0  0  0  0  0
  -24.1800  -36.7760   23.1020 C   0  0  0  0  0  1  0  0  0  0  0  0
  -25.4350  -36.3720   23.8930 C   0  0  0  0  0  3  0  0  0  0  0  0
  -27.5810  -37.2580   24.6900 C   0  0  0  0  0  1  0  0  0  0  0  0
  -26.4620  -37.4280   23.7670 N   0  0  0  0  0  0  0  0  0  0  0  0
  -26.0560  -38.3460   23.9260 H   0  0  0  0  0  0  0  0  0  0  0  0
  2  4  1  0
  2  3  1  0
  3  5  1  0
  3  1  1  0
  4 47  1  0
  4  1  1  0
  5  6  1  0
  6  8  1  0
  7  5  2  0
  9  6  1  0
  9 10  2  0
 11 10  1  0
 12 17  1  0
 13 14  1  0
 13 12  1  0
 15 14  1  0
 15 22  1  0
 15 16  1  0
 17 11  1  0
 17 16  1  0
 18 11  2  0
 19 20  2  0
 20 39  1  0
 21 20  1  0
 21 24  1  0
 22 19  1  0
 22 23  1  0
 23 21  2  0
 24 25  1  0
 25 26  2  0
 27 30  1  0
 27 26  1  0
 28 27  2  0
 29 28  1  0
 29 24  2  0
 30 31  1  0
 31 32  1  0
 32 33  2  0
 34 33  1  0
 34 38  1  0
 35 34  2  0
 36 31  2  0
 36 35  1  0
 37 36  1  0
 39 40  1  0
 40 43  1  0
 40 42  1  0
 41 39  2  0
 44 45  1  0
 44 19  1  0
 46 44  1  0
 48 47  1  0
 49 60  2  0
 50 48  1  0
 50 55  1  0
 51 59  1  0
 51 61  1  0
 52 58  1  0
 52 54  1  0
 53 59  1  0
 54 53  1  0
 55 54  2  0
 56 57  1  0
 56 50  2  0
 57 52  2  0
 58 51  1  0
 59 49  1  0
 61 63  2  0
 62 61  1  0
 64 62  1  0
 65 74  2  0
 65 70  1  0
 66 62  1  0
 66 70  1  0
 67 66  1  0
 68 69  1  0
 68 67  1  0
 69 65  1  0
 70 71  2  0
 71 72  1  0
 73 72  2  0
 74 73  1  0
 75 49  1  0
 75 80  1  0
 75 76  1  0
 76 79  1  1
 76 77  1  0
 78 76  1  0
 80 83  1  0
 81 85  1  0
 81 80  1  0
 82 81  2  0
 85 84  1  0
 87 85  1  0
 87 88  1  0
 87 86  1  0
M  ISO  4  10 100  11 100  47 101  48 101
M  END
>  <TORSDO>  (33) 
F 20

>  <SCORE>  (33) 
-13.791

>  <name>  (33) 
32

>  <ligand_id>  (33) 
32

>  <original_smiles>  (33) 
[H]c1c([H])c([H])c2c(c1[H])C([H])([H])C([H])([H])C([H])([H])C2([H])N([H])C(=O)C1([H])N(C(=O)C([H])(N([H])C(=O)C([H])(N([H])C([H])([H])[H])C([H])([H])[H])C(C([H])([H])[H])(C([H])([H])[H])C([H])([H])[H])C([H])([H])c2c([H])c(OC([H])([H])C3([H])C([H])([H])C([H])(C(=O)N([H])C([H])([H])C([H])([H])C(=O)N4C([H])([H])C([H])([H])C([H])([H])C([H])(n5nc(-c6c([H])c([H])c(Oc7c([H])c([H])c(F)c([H])c7F)c([H])c6[H])c(C(=O)N([H])[H])c5N([H])[H])C4([H])[H])C3([H])[H])c([H])c([H])c2C1([H])[H]

>  <smiles>  (33) 
[H]c1c([H])c([H])c2c(c1[H])C([H])([H])C([H])([H])C([H])([H])C2([H])N([H])C(=O)C1([H])N(C(=O)C([H])(N([H])C(=O)C([H])(N([H])C([H])([H])[H])C([H])([H])[H])C(C([H])([H])[H])(C([H])([H])[H])C([H])([H])[H])C([H])([H])c2c([H])c(OC([H])([H])C3([H])C([H])([H])C([H])(C(=O)N([H])C([H])([H])C([H])([H])C(=O)N4C([H])([H])C([H])([H])C([H])([H])C([H])(n5nc(-c6c([H])c([H])c(Oc7c([H])c([H])c(F)c([H])c7F)c([H])c6[H])c(C(=O)N([H])[H])c5N([H])[H])C4([H])[H])C3([H])[H])c([H])c([H])c2C1([H])[H]

$$$$
33:0:0
     RDKit          3D

 90 99  0  0  1  0  0  0  0  0999 V2000
  -28.1590  -21.9190   19.3350 C   0  0  0  0  0  2  0  0  0  0  0  0
  -28.3300  -21.5640   20.8000 C   0  0  0  0  0  3  0  0  0  0  0  0
  -28.8420  -22.9080   20.2510 C   0  0  0  0  0  3  0  0  0  0  0  0
  -29.3470  -20.4960   21.1840 C   0  0  0  0  0  0  0  0  0  0  0  0
  -30.3610  -20.8100   21.8130 O   0  0  0  0  0  0  0  0  0  0  0  0
  -29.1120  -19.0030   20.8350 C   0  0  0  0  0  2  0  0  0  0  0  0
  -29.8780  -17.7020   18.7060 C   0  0  0  0  0  2  0  0  0  0  0  0
  -30.2430  -18.4330   19.9710 C   0  0  0  0  0  3  0  0  0  0  0  0
  -30.7240  -16.9840   19.7320 C   0  0  0  0  0  3  0  0  0  0  0  0
  -30.8810  -14.5580   20.0780 C   0  0  0  0  0  0  0  0  0  0  0  0
  -30.5120  -12.3670   19.0320 C   0  0  0  0  0  2  0  0  0  0  0  0
  -29.5550  -12.5530   17.8390 C   0  0  0  0  0  2  0  0  0  0  0  0
  -28.0920  -12.4270   18.3060 C   0  0  0  0  0  2  0  0  0  0  0  0
  -27.7820  -13.2900   19.5590 C   0  0  0  0  0  3  0  0  0  0  0  0
  -28.8670  -13.1360   20.6490 C   0  0  0  0  0  2  0  0  0  0  0  0
  -30.1680  -13.4000   20.0260 N   0  0  0  0  0  0  0  0  0  0  0  0
  -32.0590  -14.6010   19.7170 O   0  0  0  0  0  0  0  0  0  0  0  0
  -30.1900  -15.7190   20.2230 N   0  0  0  0  0  0  0  0  0  0  0  0
  -29.2160  -15.6660   20.4780 H   0  0  0  0  0  0  0  0  0  0  0  0
  -25.4090  -13.8980   20.3360 C   0  0  0  0  0  0  0  0  0  0  0  0
  -24.3510  -13.1270   20.7370 C   0  0  0  0  0  0  0  0  0  0  0  0
  -24.8100  -11.7750   20.7020 C   0  0  0  0  0  0  0  0  0  0  0  0
  -26.4470  -13.0140   20.0820 N   0  0  0  0  0  0  0  0  0  0  0  0
  -26.0930  -11.7340   20.3620 N   0  0  0  0  0  0  0  0  0  0  0  0
  -24.0870  -10.5150   20.9160 C   0  0  0  0  0  0  0  0  0  0  0  0
  -24.5150   -9.5720   21.8750 C   0  0  0  0  0  3  0  0  0  0  0  0
  -23.7930   -8.3760   22.0770 C   0  0  0  0  0  3  0  0  0  0  0  0
  -22.6270   -8.1150   21.3160 C   0  0  0  0  0  0  0  0  0  0  0  0
  -22.2200   -9.0460   20.3450 C   0  0  0  0  0  3  0  0  0  0  0  0
  -22.9430  -10.2340   20.1440 C   0  0  0  0  0  3  0  0  0  0  0  0
  -21.8760   -6.9690   21.4250 O   0  0  0  0  0  0  0  0  0  0  0  0
  -21.7910   -6.2730   22.6040 C   0  0  0  0  0  0  0  0  0  0  0  0
  -21.2900   -6.8660   23.7840 C   0  0  0  0  0  3  0  0  0  0  0  0
  -21.1540   -6.0950   24.9560 C   0  0  0  0  0  3  0  0  0  0  0  0
  -21.5070   -4.7320   24.9490 C   0  0  0  0  0  0  0  0  0  0  0  0
  -21.9980   -4.1380   23.7730 C   0  0  0  0  0  3  0  0  0  0  0  0
  -22.1380   -4.9060   22.6030 C   0  0  0  0  0  0  0  0  0  0  0  0
  -22.5930   -4.3240   21.4680 F   0  0  0  0  0  0  0  0  0  0  0  0
  -21.3680   -3.9900   26.0720 F   0  0  0  0  0  0  0  0  0  0  0  0
  -22.9620  -13.6080   21.0390 C   0  0  0  0  0  0  0  0  0  0  0  0
  -22.2530  -12.9150   21.9250 N   0  0  0  0  0  0  0  0  0  0  0  0
  -22.5140  -14.6320   20.5250 O   0  0  0  0  0  0  0  0  0  0  0  0
  -22.6300  -12.0870   22.3630 H   0  0  0  0  0  0  0  0  0  0  0  0
  -21.3220  -13.2210   22.1710 H   0  0  0  0  0  0  0  0  0  0  0  0
  -25.5700  -15.2670   20.1450 N   0  0  0  0  0  0  0  0  0  0  0  0
  -24.8000  -15.9170   20.2620 H   0  0  0  0  0  0  0  0  0  0  0  0
  -26.4040  -15.7030   19.7750 H   0  0  0  0  0  0  0  0  0  0  0  0
  -28.2080  -24.2740   20.5910 C   0  0  0  0  0  2  0  0  0  0  0  0
  -28.5820  -25.4160   19.6020 C   0  0  0  0  0  2  0  0  0  0  0  0
  -28.4810  -26.7550   20.1320 O   0  0  0  0  0  0  0  0  0  0  0  0
  -24.6260  -31.8940   23.2110 C   0  0  0  0  0  0  0  0  0  0  0  0
  -27.2900  -27.4650   20.1020 C   0  0  0  0  0  0  0  0  0  0  0  0
  -23.4340  -30.5140   21.5420 C   0  0  0  0  0  3  0  0  0  0  0  0
  -24.8970  -28.9910   20.1090 C   0  0  0  0  0  0  0  0  0  0  0  0
  -25.9630  -30.8680   21.3710 C   0  0  0  0  0  2  0  0  0  0  0  0
  -26.0510  -29.5030   20.7120 C   0  0  0  0  0  0  0  0  0  0  0  0
  -27.2480  -28.7490   20.7010 C   0  0  0  0  0  3  0  0  0  0  0  0
  -26.1120  -26.9660   19.5030 C   0  0  0  0  0  3  0  0  0  0  0  0
  -24.9230  -27.7220   19.5040 C   0  0  0  0  0  3  0  0  0  0  0  0
  -23.6550  -29.8540   20.1540 C   0  0  0  0  0  2  0  0  0  0  0  0
  -24.6920  -31.1080   22.0990 N   0  0  0  0  0  0  0  0  0  0  0  0
  -23.5410  -32.1590   23.7470 O   0  0  0  0  0  0  0  0  0  0  0  0
  -22.7760  -29.4800   22.4840 C   0  0  0  0  0  0  0  0  0  0  0  0
  -21.4520  -29.3010   22.3470 N   0  0  0  0  0  0  0  0  0  0  0  0
  -23.4550  -28.8420   23.2930 O   0  0  0  0  0  0  0  0  0  0  0  0
  -20.9650  -29.8660   21.6660 H   0  0  0  0  0  0  0  0  0  0  0  0
  -18.0740  -28.1020   22.8060 C   0  0  0  0  0  0  0  0  0  0  0  0
  -20.6300  -28.3530   23.1000 C   0  0  0  0  0  3  0  0  0  0  0  0
  -20.7360  -26.9310   22.5050 C   0  0  0  0  0  2  0  0  0  0  0  0
  -19.6410  -26.6230   21.4790 C   0  0  0  0  0  2  0  0  0  0  0  0
  -18.2550  -26.7620   22.1140 C   0  0  0  0  0  2  0  0  0  0  0  0
  -19.1910  -28.8570   23.2550 C   0  0  0  0  0  0  0  0  0  0  0  0
  -18.9690  -30.1140   23.8580 C   0  0  0  0  0  3  0  0  0  0  0  0
  -17.6640  -30.6150   24.0210 C   0  0  0  0  0  3  0  0  0  0  0  0
  -16.5620  -29.8570   23.5890 C   0  0  0  0  0  3  0  0  0  0  0  0
  -16.7680  -28.6030   22.9870 C   0  0  0  0  0  3  0  0  0  0  0  0
  -25.9080  -32.5170   23.8500 C   0  0  0  0  0  3  0  0  0  0  0  0
  -25.6010  -33.9140   24.1830 N   0  0  0  0  0  0  0  0  0  0  0  0
  -25.9340  -34.9690   23.4270 C   0  0  0  0  0  0  0  0  0  0  0  0
  -26.6060  -34.8680   22.3970 O   0  0  0  0  0  0  0  0  0  0  0  0
  -25.0130  -34.0700   24.9900 H   0  0  0  0  0  0  0  0  0  0  0  0
  -24.2090  -36.7610   23.0690 C   0  0  0  0  0  1  0  0  0  0  0  0
  -25.4450  -36.3550   23.8880 C   0  0  0  0  0  3  0  0  0  0  0  0
  -27.5710  -37.2370   24.7400 C   0  0  0  0  0  1  0  0  0  0  0  0
  -26.4780  -37.4090   23.7860 N   0  0  0  0  0  0  0  0  0  0  0  0
  -26.0700  -38.3280   23.9310 H   0  0  0  0  0  0  0  0  0  0  0  0
  -26.4110  -31.7370   25.1260 C   0  0  1  0  0  0  0  0  0  0  0  0
  -25.3080  -31.4940   26.1810 C   0  0  0  0  0  1  0  0  0  0  0  0
  -26.9950  -30.3620   24.7310 C   0  0  0  0  0  1  0  0  0  0  0  0
  -27.5550  -32.5250   25.8070 C   0  0  0  0  0  1  0  0  0  0  0  0
  1  3  1  0
  1  2  1  0
  2  4  1  0
  3 48  1  0
  3  2  1  0
  4  5  2  0
  6  4  1  0
  7  9  1  0
  7  8  1  0
  8  6  1  0
  9  8  1  0
  9 18  1  0
 10 18  1  0
 11 16  1  0
 12 13  1  0
 12 11  1  0
 14 13  1  0
 14 23  1  0
 14 15  1  0
 16 10  1  0
 16 15  1  0
 17 10  2  0
 18 19  1  0
 20 21  2  0
 21 40  1  0
 22 21  1  0
 22 25  1  0
 23 20  1  0
 23 24  1  0
 24 22  2  0
 25 26  1  0
 26 27  2  0
 28 31  1  0
 28 27  1  0
 29 28  2  0
 30 29  1  0
 30 25  2  0
 31 32  1  0
 32 33  1  0
 33 34  2  0
 35 34  1  0
 35 39  1  0
 36 35  2  0
 37 32  2  0
 37 36  1  0
 38 37  1  0
 40 41  1  0
 41 44  1  0
 41 43  1  0
 42 40  2  0
 45 46  1  0
 45 20  1  0
 47 45  1  0
 49 50  1  0
 49 48  1  0
 51 62  2  0
 52 50  1  0
 52 57  1  0
 53 61  1  0
 53 63  1  0
 54 60  1  0
 54 56  1  0
 55 61  1  0
 56 55  1  0
 57 56  2  0
 58 59  1  0
 58 52  2  0
 59 54  2  0
 60 53  1  0
 61 51  1  0
 63 65  2  0
 64 63  1  0
 66 64  1  0
 67 76  2  0
 67 72  1  0
 68 64  1  0
 68 72  1  0
 69 68  1  0
 70 71  1  0
 70 69  1  0
 71 67  1  0
 72 73  2  0
 73 74  1  0
 75 74  2  0
 76 75  1  0
 77 51  1  0
 77 78  1  0
 77 87  1  0
 78 81  1  0
 79 83  1  0
 79 78  1  0
 80 79  2  0
 83 82  1  0
 85 83  1  0
 85 86  1  0
 85 84  1  0
 87 90  1  1
 87 88  1  0
 89 87  1  0
M  ISO  4  10 100  18 100  49 101  50 101
M  END
>  <TORSDO>  (34) 
F 21

>  <SCORE>  (34) 
-13.315

>  <name>  (34) 
33

>  <ligand_id>  (34) 
33

>  <original_smiles>  (34) 
[H]c1c([H])c([H])c2c(c1[H])C([H])([H])C([H])([H])C([H])([H])C2([H])N([H])C(=O)C1([H])N(C(=O)C([H])(N([H])C(=O)C([H])(N([H])C([H])([H])[H])C([H])([H])[H])C(C([H])([H])[H])(C([H])([H])[H])C([H])([H])[H])C([H])([H])c2c([H])c(OC([H])([H])C([H])([H])C3([H])C([H])([H])C3([H])C(=O)C([H])([H])C3([H])C([H])([H])C3([H])N([H])C(=O)N3C([H])([H])C([H])([H])C([H])([H])C([H])(n4nc(-c5c([H])c([H])c(Oc6c([H])c([H])c(F)c([H])c6F)c([H])c5[H])c(C(=O)N([H])[H])c4N([H])[H])C3([H])[H])c([H])c([H])c2C1([H])[H]

>  <smiles>  (34) 
[H]c1c([H])c([H])c2c(c1[H])C([H])([H])C([H])([H])C([H])([H])C2([H])N([H])C(=O)C1([H])N(C(=O)C([H])(N([H])C(=O)C([H])(N([H])C([H])([H])[H])C([H])([H])[H])C(C([H])([H])[H])(C([H])([H])[H])C([H])([H])[H])C([H])([H])c2c([H])c(OC([H])([H])C([H])([H])C3([H])C([H])([H])C3([H])C(=O)C([H])([H])C3([H])C([H])([H])C3([H])N([H])C(=O)N3C([H])([H])C([H])([H])C([H])([H])C([H])(n4nc(-c5c([H])c([H])c(Oc6c([H])c([H])c(F)c([H])c6F)c([H])c5[H])c(C(=O)N([H])[H])c4N([H])[H])C3([H])[H])c([H])c([H])c2C1([H])[H]

$$$$
34:0:0
     RDKit          3D

 88 96  0  0  1  0  0  0  0  0999 V2000
  -29.2300  -21.9350   21.8550 C   0  0  0  0  0  2  0  0  0  0  0  0
  -29.7910  -21.2500   20.6260 C   0  0  0  0  0  3  0  0  0  0  0  0
  -28.8720  -22.5340   20.5190 C   0  0  0  0  0  3  0  0  0  0  0  0
  -29.2820  -19.7840   20.4390 C   0  0  0  0  0  0  0  0  0  0  0  0
  -28.0970  -19.5240   20.6690 O   0  0  0  0  0  0  0  0  0  0  0  0
  -31.5060  -19.0930   19.3200 C   0  0  0  0  0  1  0  0  0  0  0  0
  -30.1980  -18.5890   19.9550 C   0  0  0  0  0  3  0  0  0  0  0  0
  -30.4770  -17.3890   20.9690 C   0  0  0  0  0  2  0  0  0  0  0  0
  -29.7890  -15.9690   20.7460 C   0  0  0  0  0  2  0  0  0  0  0  0
  -30.6490  -14.6780   20.4270 C   0  0  0  0  0  0  0  0  0  0  0  0
  -30.4620  -12.4370   19.3700 C   0  0  0  0  0  2  0  0  0  0  0  0
  -29.5300  -12.5700   18.1430 C   0  0  0  0  0  2  0  0  0  0  0  0
  -28.0480  -12.4210   18.5480 C   0  0  0  0  0  2  0  0  0  0  0  0
  -27.6780  -13.2850   19.7810 C   0  0  0  0  0  3  0  0  0  0  0  0
  -28.7220  -13.1200   20.9060 C   0  0  0  0  0  2  0  0  0  0  0  0
  -30.0440  -13.4510   20.3570 N   0  0  0  0  0  0  0  0  0  0  0  0
  -31.8220  -14.8210   20.0690 O   0  0  0  0  0  0  0  0  0  0  0  0
  -25.2750  -13.9000   20.4560 C   0  0  0  0  0  0  0  0  0  0  0  0
  -24.2020  -13.1350   20.8200 C   0  0  0  0  0  0  0  0  0  0  0  0
  -24.6630  -11.7820   20.8190 C   0  0  0  0  0  0  0  0  0  0  0  0
  -26.3230  -13.0150   20.2520 N   0  0  0  0  0  0  0  0  0  0  0  0
  -25.9580  -11.7370   20.5300 N   0  0  0  0  0  0  0  0  0  0  0  0
  -23.9330  -10.5240   21.0190 C   0  0  0  0  0  0  0  0  0  0  0  0
  -24.3600   -9.5650   21.9640 C   0  0  0  0  0  3  0  0  0  0  0  0
  -23.6320   -8.3700   22.1500 C   0  0  0  0  0  3  0  0  0  0  0  0
  -22.4620   -8.1260   21.3910 C   0  0  0  0  0  0  0  0  0  0  0  0
  -22.0560   -9.0740   20.4350 C   0  0  0  0  0  3  0  0  0  0  0  0
  -22.7850  -10.2600   20.2470 C   0  0  0  0  0  3  0  0  0  0  0  0
  -21.7060   -6.9840   21.4860 O   0  0  0  0  0  0  0  0  0  0  0  0
  -21.6590   -6.2460   22.6420 C   0  0  0  0  0  0  0  0  0  0  0  0
  -21.2510   -6.8090   23.8710 C   0  0  0  0  0  3  0  0  0  0  0  0
  -21.1520   -5.9970   25.0180 C   0  0  0  0  0  3  0  0  0  0  0  0
  -21.4500   -4.6240   24.9380 C   0  0  0  0  0  0  0  0  0  0  0  0
  -21.8520   -4.0600   23.7140 C   0  0  0  0  0  3  0  0  0  0  0  0
  -21.9520   -4.8680   22.5690 C   0  0  0  0  0  0  0  0  0  0  0  0
  -22.3200   -4.3160   21.3870 F   0  0  0  0  0  0  0  0  0  0  0  0
  -21.3460   -3.8430   26.0380 F   0  0  0  0  0  0  0  0  0  0  0  0
  -22.8000  -13.6160   21.0630 C   0  0  0  0  0  0  0  0  0  0  0  0
  -22.0590  -12.9330   21.9290 N   0  0  0  0  0  0  0  0  0  0  0  0
  -22.3690  -14.6320   20.5190 O   0  0  0  0  0  0  0  0  0  0  0  0
  -22.4200  -12.1120   22.3920 H   0  0  0  0  0  0  0  0  0  0  0  0
  -21.1180  -13.2360   22.1330 H   0  0  0  0  0  0  0  0  0  0  0  0
  -25.4440  -15.2680   20.2620 N   0  0  0  0  0  0  0  0  0  0  0  0
  -24.6800  -15.9280   20.3580 H   0  0  0  0  0  0  0  0  0  0  0  0
  -26.3070  -15.7030   19.9600 H   0  0  0  0  0  0  0  0  0  0  0  0
  -29.2900  -24.0380   20.2960 C   0  0  0  0  0  3  0  0  0  0  0  0
  -28.0960  -25.0640   20.1240 C   0  0  0  0  0  3  0  0  0  0  0  0
  -28.3300  -26.5220   20.1960 O   0  0  0  0  0  0  0  0  0  0  0  0
  -24.5830  -31.8940   23.2330 C   0  0  0  0  0  0  0  0  0  0  0  0
  -27.1980  -27.3540   20.1620 C   0  0  0  0  0  0  0  0  0  0  0  0
  -23.3730  -30.4890   21.6030 C   0  0  0  0  0  3  0  0  0  0  0  0
  -24.8200  -28.9450   20.1740 C   0  0  0  0  0  0  0  0  0  0  0  0
  -25.9100  -30.8210   21.4020 C   0  0  0  0  0  2  0  0  0  0  0  0
  -25.9920  -29.4430   20.7570 C   0  0  0  0  0  0  0  0  0  0  0  0
  -27.1850  -28.6590   20.7410 C   0  0  0  0  0  3  0  0  0  0  0  0
  -25.9970  -26.9080   19.5600 C   0  0  0  0  0  3  0  0  0  0  0  0
  -24.8240  -27.6820   19.5670 C   0  0  0  0  0  3  0  0  0  0  0  0
  -23.5790  -29.8120   20.2250 C   0  0  0  0  0  2  0  0  0  0  0  0
  -24.6400  -31.0850   22.1360 N   0  0  0  0  0  0  0  0  0  0  0  0
  -23.5020  -32.1690   23.7740 O   0  0  0  0  0  0  0  0  0  0  0  0
  -22.7210  -29.4700   22.5700 C   0  0  0  0  0  0  0  0  0  0  0  0
  -21.3960  -29.2860   22.4480 N   0  0  0  0  0  0  0  0  0  0  0  0
  -23.4080  -28.8500   23.3870 O   0  0  0  0  0  0  0  0  0  0  0  0
  -20.9030  -29.8360   21.7590 H   0  0  0  0  0  0  0  0  0  0  0  0
  -18.0270  -28.0730   22.9580 C   0  0  0  0  0  0  0  0  0  0  0  0
  -20.5840  -28.3480   23.2250 C   0  0  0  0  0  3  0  0  0  0  0  0
  -20.6940  -26.9140   22.6590 C   0  0  0  0  0  2  0  0  0  0  0  0
  -19.5930  -26.5780   21.6480 C   0  0  0  0  0  2  0  0  0  0  0  0
  -18.2100  -26.7200   22.2920 C   0  0  0  0  0  2  0  0  0  0  0  0
  -19.1410  -28.8450   23.3820 C   0  0  0  0  0  0  0  0  0  0  0  0
  -18.9150  -30.1100   23.9650 C   0  0  0  0  0  3  0  0  0  0  0  0
  -17.6080  -30.6050   24.1280 C   0  0  0  0  0  3  0  0  0  0  0  0
  -16.5070  -29.8310   23.7210 C   0  0  0  0  0  3  0  0  0  0  0  0
  -16.7180  -28.5670   23.1420 C   0  0  0  0  0  3  0  0  0  0  0  0
  -25.8680  -32.5330   23.8450 C   0  0  0  0  0  3  0  0  0  0  0  0
  -25.5530  -33.9280   24.1800 N   0  0  0  0  0  0  0  0  0  0  0  0
  -25.8720  -34.9840   23.4180 C   0  0  0  0  0  0  0  0  0  0  0  0
  -26.5320  -34.8850   22.3800 O   0  0  0  0  0  0  0  0  0  0  0  0
  -24.9640  -34.0780   24.9860 H   0  0  0  0  0  0  0  0  0  0  0  0
  -24.1280  -36.7660   23.0870 C   0  0  0  0  0  1  0  0  0  0  0  0
  -25.3830  -36.3690   23.8820 C   0  0  0  0  0  3  0  0  0  0  0  0
  -27.5230  -37.2640   24.6830 C   0  0  0  0  0  1  0  0  0  0  0  0
  -26.4080  -37.4280   23.7560 N   0  0  0  0  0  0  0  0  0  0  0  0
  -25.9990  -38.3460   23.9110 H   0  0  0  0  0  0  0  0  0  0  0  0
  -26.3970  -31.7620   25.1170 C   0  0  1  0  0  0  0  0  0  0  0  0
  -25.3130  -31.5180   26.1920 C   0  0  0  0  0  1  0  0  0  0  0  0
  -26.9820  -30.3870   24.7190 C   0  0  0  0  0  1  0  0  0  0  0  0
  -27.5510  -32.5600   25.7690 C   0  0  0  0  0  1  0  0  0  0  0  0
  2  4  1  0
  2  1  1  0
  3 46  1  0
  3  2  1  0
  3  1  1  0
  4  5  2  0
  7  6  1  0
  7  4  1  0
  7  8  1  0
  9  8  1  0
 10  9  1  0
 11 16  1  0
 12 13  1  0
 12 11  1  0
 14 13  1  0
 14 21  1  0
 14 15  1  0
 16 10  1  0
 16 15  1  0
 17 10  2  0
 18 19  2  0
 19 38  1  0
 20 19  1  0
 20 23  1  0
 21 18  1  0
 21 22  1  0
 22 20  2  0
 23 24  1  0
 24 25  2  0
 26 29  1  0
 26 25  1  0
 27 26  2  0
 28 27  1  0
 28 23  2  0
 29 30  1  0
 30 31  1  0
 31 32  2  0
 33 32  1  0
 33 37  1  0
 34 33  2  0
 35 30  2  0
 35 34  1  0
 36 35  1  0
 38 39  1  0
 39 42  1  0
 39 41  1  0
 40 38  2  0
 43 44  1  0
 43 18  1  0
 45 43  1  0
 47 48  1  0
 47 46  2  0
 49 60  2  0
 50 48  1  0
 50 55  1  0
 51 59  1  0
 51 61  1  0
 52 58  1  0
 52 54  1  0
 53 59  1  0
 54 53  1  0
 55 54  2  0
 56 57  1  0
 56 50  2  0
 57 52  2  0
 58 51  1  0
 59 49  1  0
 61 63  2  0
 62 61  1  0
 64 62  1  0
 65 74  2  0
 65 70  1  0
 66 62  1  0
 66 70  1  0
 67 66  1  0
 68 69  1  0
 68 67  1  0
 69 65  1  0
 70 71  2  0
 71 72  1  0
 73 72  2  0
 74 73  1  0
 75 49  1  0
 75 76  1  0
 75 85  1  0
 76 79  1  0
 77 81  1  0
 77 76  1  0
 78 77  2  0
 81 80  1  0
 83 81  1  0
 83 84  1  0
 83 82  1  0
 85 88  1  1
 85 86  1  0
 87 85  1  0
M  ISO  4   9 100  10 100  47 101  48 101
M  END
>  <TORSDO>  (35) 
F 22

>  <SCORE>  (35) 
-13.185

>  <name>  (35) 
34

>  <ligand_id>  (35) 
34

>  <original_smiles>  (35) 
[H]c1c([H])c([H])c2c(c1[H])C([H])([H])C([H])([H])C([H])([H])C2([H])N([H])C(=O)C1([H])N(C(=O)C([H])(N([H])C(=O)C([H])(N([H])C([H])([H])[H])C([H])([H])[H])C(C([H])([H])[H])(C([H])([H])[H])C([H])([H])[H])C([H])([H])c2c([H])c(OC([H])([H])C([H])([H])C3([H])C([H])([H])C3([H])C(=O)C([H])(C([H])([H])[H])C([H])([H])C([H])([H])C(=O)N3C([H])([H])C([H])([H])C([H])([H])C([H])(n4nc(-c5c([H])c([H])c(Oc6c([H])c([H])c(F)c([H])c6F)c([H])c5[H])c(C(=O)N([H])[H])c4N([H])[H])C3([H])[H])c([H])c([H])c2C1([H])[H]

>  <smiles>  (35) 
[H]c1c([H])c([H])c2c(c1[H])C([H])([H])C([H])([H])C([H])([H])C2([H])N([H])C(=O)C1([H])N(C(=O)C([H])(N([H])C(=O)C([H])(N([H])C([H])([H])[H])C([H])([H])[H])C(C([H])([H])[H])(C([H])([H])[H])C([H])([H])[H])C([H])([H])c2c([H])c(OC([H])([H])C([H])([H])C3([H])C([H])([H])C3([H])C(=O)C([H])(C([H])([H])[H])C([H])([H])C([H])([H])C(=O)N3C([H])([H])C([H])([H])C([H])([H])C([H])(n4nc(-c5c([H])c([H])c(Oc6c([H])c([H])c(F)c([H])c6F)c([H])c5[H])c(C(=O)N([H])[H])c4N([H])[H])C3([H])[H])c([H])c([H])c2C1([H])[H]

$$$$
35:0:0
     RDKit          3D

 90 98  0  0  1  0  0  0  0  0999 V2000
  -29.1460  -22.6340   20.3970 C   0  0  0  0  0  3  0  0  0  0  0  0
  -29.0420  -24.2460   18.3880 C   0  0  0  0  0  1  0  0  0  0  0  0
  -28.4340  -23.9230   19.7660 C   0  0  0  0  0  3  0  0  0  0  0  0
  -28.4460  -25.2190   20.6880 C   0  0  0  0  0  2  0  0  0  0  0  0
  -28.4550  -26.5750   20.1210 O   0  0  0  0  0  0  0  0  0  0  0  0
  -24.6910  -31.8950   23.2350 C   0  0  0  0  0  0  0  0  0  0  0  0
  -27.3020  -27.3540   20.1800 C   0  0  0  0  0  0  0  0  0  0  0  0
  -23.4800  -30.4780   21.6170 C   0  0  0  0  0  3  0  0  0  0  0  0
  -24.9210  -28.9150   20.2000 C   0  0  0  0  0  0  0  0  0  0  0  0
  -26.0140  -30.8120   21.4020 C   0  0  0  0  0  2  0  0  0  0  0  0
  -26.0910  -29.4310   20.7720 C   0  0  0  0  0  0  0  0  0  0  0  0
  -27.2880  -28.6620   20.7450 C   0  0  0  0  0  3  0  0  0  0  0  0
  -26.1100  -26.8650   19.6100 C   0  0  0  0  0  3  0  0  0  0  0  0
  -24.9280  -27.6340   19.6160 C   0  0  0  0  0  3  0  0  0  0  0  0
  -23.6800  -29.7850   20.2460 C   0  0  0  0  0  2  0  0  0  0  0  0
  -24.7490  -31.0820   22.1410 N   0  0  0  0  0  0  0  0  0  0  0  0
  -23.6090  -32.1700   23.7780 O   0  0  0  0  0  0  0  0  0  0  0  0
  -22.8280  -29.4670   22.5900 C   0  0  0  0  0  0  0  0  0  0  0  0
  -21.5030  -29.2800   22.4720 N   0  0  0  0  0  0  0  0  0  0  0  0
  -23.5170  -28.8500   23.4070 O   0  0  0  0  0  0  0  0  0  0  0  0
  -21.0070  -29.8310   21.7870 H   0  0  0  0  0  0  0  0  0  0  0  0
  -18.1350  -28.0680   22.9840 C   0  0  0  0  0  0  0  0  0  0  0  0
  -20.6920  -28.3400   23.2470 C   0  0  0  0  0  3  0  0  0  0  0  0
  -20.8010  -26.9060   22.6800 C   0  0  0  0  0  2  0  0  0  0  0  0
  -19.6970  -26.5710   21.6720 C   0  0  0  0  0  2  0  0  0  0  0  0
  -18.3160  -26.7150   22.3180 C   0  0  0  0  0  2  0  0  0  0  0  0
  -19.2500  -28.8380   23.4070 C   0  0  0  0  0  0  0  0  0  0  0  0
  -19.0270  -30.1060   23.9860 C   0  0  0  0  0  3  0  0  0  0  0  0
  -17.7200  -30.6020   24.1480 C   0  0  0  0  0  3  0  0  0  0  0  0
  -16.6170  -29.8270   23.7430 C   0  0  0  0  0  3  0  0  0  0  0  0
  -16.8260  -28.5620   23.1670 C   0  0  0  0  0  3  0  0  0  0  0  0
  -25.9740  -32.5330   23.8490 C   0  0  0  0  0  3  0  0  0  0  0  0
  -26.4940  -31.7740   25.1300 C   0  0  1  0  0  0  0  0  0  0  0  0
  -25.4050  -31.5390   26.2030 C   0  0  0  0  0  1  0  0  0  0  0  0
  -27.0760  -30.3950   24.7430 C   0  0  0  0  0  1  0  0  0  0  0  0
  -27.6450  -32.5750   25.7790 C   0  0  0  0  0  1  0  0  0  0  0  0
  -25.6650  -33.9350   24.1670 N   0  0  0  0  0  0  0  0  0  0  0  0
  -25.9890  -34.9810   23.3930 C   0  0  0  0  0  0  0  0  0  0  0  0
  -26.6490  -34.8670   22.3580 O   0  0  0  0  0  0  0  0  0  0  0  0
  -25.0770  -34.0980   24.9720 H   0  0  0  0  0  0  0  0  0  0  0  0
  -24.2540  -36.7640   23.0350 C   0  0  0  0  0  1  0  0  0  0  0  0
  -25.5030  -36.3740   23.8390 C   0  0  0  0  0  3  0  0  0  0  0  0
  -27.6450  -37.2750   24.6370 C   0  0  0  0  0  1  0  0  0  0  0  0
  -26.5340  -37.4250   23.7000 N   0  0  0  0  0  0  0  0  0  0  0  0
  -26.1290  -38.3500   23.8330 H   0  0  0  0  0  0  0  0  0  0  0  0
  -28.9150  -21.2010   19.7410 C   0  0  0  0  0  3  0  0  0  0  0  0
  -30.0470  -16.9440   20.4970 C   0  0  0  0  0  0  0  0  0  0  0  0
  -30.9000  -17.7730   19.5250 C   0  0  0  0  0  2  0  0  0  0  0  0
  -29.0490  -17.8480   21.2480 C   0  0  0  0  0  2  0  0  0  0  0  0
  -30.2410  -19.1320   19.0820 C   0  0  0  0  0  2  0  0  0  0  0  0
  -29.4620  -19.3500   21.4300 C   0  0  0  0  0  2  0  0  0  0  0  0
  -30.0450  -15.6580   20.7230 N   0  0  0  0  0  0  0  0  0  0  0  0
  -29.8490  -20.0770   20.1830 N   0  0  2  0  0  4  0  0  0  0  0  0
  -30.7030  -20.5520   20.4300 H   0  0  0  0  0  0  0  0  0  0  0  0
  -30.8360  -14.6790   20.0690 C   0  0  0  0  0  0  0  0  0  0  0  0
  -30.5630  -12.5050   18.8740 C   0  0  0  0  0  2  0  0  0  0  0  0
  -29.5470  -12.6980   17.7250 C   0  0  0  0  0  2  0  0  0  0  0  0
  -28.0960  -12.5400   18.2250 C   0  0  0  0  0  2  0  0  0  0  0  0
  -27.8240  -13.3420   19.5260 C   0  0  0  0  0  3  0  0  0  0  0  0
  -28.9370  -13.0910   20.5650 C   0  0  0  0  0  2  0  0  0  0  0  0
  -30.2200  -13.4620   19.9450 N   0  0  0  0  0  0  0  0  0  0  0  0
  -31.9330  -14.8710   19.5380 O   0  0  0  0  0  0  0  0  0  0  0  0
  -25.4760  -13.9510   20.3740 C   0  0  0  0  0  0  0  0  0  0  0  0
  -24.4230  -13.1770   20.7830 C   0  0  0  0  0  0  0  0  0  0  0  0
  -24.8690  -11.8240   20.7000 C   0  0  0  0  0  0  0  0  0  0  0  0
  -26.4980  -13.0640   20.0690 N   0  0  0  0  0  0  0  0  0  0  0  0
  -26.1400  -11.7780   20.3200 N   0  0  0  0  0  0  0  0  0  0  0  0
  -24.1430  -10.5640   20.9070 C   0  0  0  0  0  0  0  0  0  0  0  0
  -24.5840   -9.6010   21.8400 C   0  0  0  0  0  3  0  0  0  0  0  0
  -23.8590   -8.4060   22.0320 C   0  0  0  0  0  3  0  0  0  0  0  0
  -22.6790   -8.1660   21.2890 C   0  0  0  0  0  0  0  0  0  0  0  0
  -22.2570   -9.1160   20.3430 C   0  0  0  0  0  3  0  0  0  0  0  0
  -22.9840  -10.3030   20.1500 C   0  0  0  0  0  3  0  0  0  0  0  0
  -21.9240   -7.0220   21.3870 O   0  0  0  0  0  0  0  0  0  0  0  0
  -21.8300   -6.3230   22.5640 C   0  0  0  0  0  0  0  0  0  0  0  0
  -21.3460   -6.9190   23.7490 C   0  0  0  0  0  3  0  0  0  0  0  0
  -21.1990   -6.1420   24.9160 C   0  0  0  0  0  3  0  0  0  0  0  0
  -21.5290   -4.7740   24.9010 C   0  0  0  0  0  0  0  0  0  0  0  0
  -22.0090   -4.1800   23.7200 C   0  0  0  0  0  3  0  0  0  0  0  0
  -22.1560   -4.9520   22.5550 C   0  0  0  0  0  0  0  0  0  0  0  0
  -22.5970   -4.3690   21.4140 F   0  0  0  0  0  0  0  0  0  0  0  0
  -21.3840   -4.0270   26.0200 F   0  0  0  0  0  0  0  0  0  0  0  0
  -23.0480  -13.6610   21.1450 C   0  0  0  0  0  0  0  0  0  0  0  0
  -22.3710  -12.9520   22.0430 N   0  0  0  0  0  0  0  0  0  0  0  0
  -22.5830  -14.6960   20.6680 O   0  0  0  0  0  0  0  0  0  0  0  0
  -22.7620  -12.1120   22.4410 H   0  0  0  0  0  0  0  0  0  0  0  0
  -21.4530  -13.2570   22.3360 H   0  0  0  0  0  0  0  0  0  0  0  0
  -25.6410  -15.3230   20.2150 N   0  0  0  0  0  0  0  0  0  0  0  0
  -24.8880  -15.9820   20.3820 H   0  0  0  0  0  0  0  0  0  0  0  0
  -26.4810  -15.7610   19.8590 H   0  0  0  0  0  0  0  0  0  0  0  0
  3  2  1  0
  3  1  1  0
  3  4  1  0
  5  7  1  0
  5  4  1  0
  6 17  2  0
  7 12  1  0
  8 16  1  0
  8 18  1  0
  9 15  1  0
  9 11  1  0
 10 16  1  0
 11 10  1  0
 12 11  2  0
 13 14  1  0
 13  7  2  0
 14  9  2  0
 15  8  1  0
 16  6  1  0
 18 20  2  0
 19 18  1  0
 21 19  1  0
 22 31  2  0
 22 27  1  0
 23 19  1  0
 23 27  1  0
 24 23  1  0
 25 26  1  0
 25 24  1  0
 26 22  1  0
 27 28  2  0
 28 29  1  0
 30 29  2  0
 31 30  1  0
 32  6  1  0
 32 37  1  0
 32 33  1  0
 33 36  1  1
 33 34  1  0
 35 33  1  0
 37 40  1  0
 38 42  1  0
 38 37  1  0
 39 38  2  0
 42 41  1  0
 44 45  1  0
 44 42  1  0
 44 43  1  0
 46 53  1  0
 46  1  2  0
 47 52  2  0
 47 49  1  0
 48 47  1  0
 49 51  1  0
 50 48  1  0
 50 53  1  0
 53 54  1  1
 53 51  1  0
 55 52  1  0
 56 61  1  0
 57 58  1  0
 57 56  1  0
 59 58  1  0
 59 66  1  0
 59 60  1  0
 61 55  1  0
 61 60  1  0
 62 55  2  0
 63 64  2  0
 64 83  1  0
 65 64  1  0
 65 68  1  0
 66 67  1  0
 66 63  1  0
 67 65  2  0
 68 69  1  0
 69 70  2  0
 71 74  1  0
 71 70  1  0
 72 71  2  0
 73 72  1  0
 73 68  2  0
 74 75  1  0
 75 76  1  0
 76 77  2  0
 78 77  1  0
 78 82  1  0
 79 78  2  0
 80 75  2  0
 80 79  1  0
 81 80  1  0
 83 84  1  0
 84 87  1  0
 84 86  1  0
 85 83  2  0
 88 63  1  0
 88 89  1  0
 90 88  1  0
M  ISO  4   4 101   5 101  52 100  55 100
M  END
>  <TORSDO>  (36) 
F 20

>  <SCORE>  (36) 
-12.796

>  <name>  (36) 
35

>  <ligand_id>  (36) 
35

>  <original_smiles>  (36) 
[H]c1c([H])c([H])c2c(c1[H])C([H])([H])C([H])([H])C([H])([H])C2([H])N([H])C(=O)C1([H])N(C(=O)C([H])(N([H])C(=O)C([H])(N([H])C([H])([H])[H])C([H])([H])[H])C(C([H])([H])[H])(C([H])([H])[H])C([H])([H])[H])C([H])([H])c2c([H])c(OC([H])([H])C([H])(C([H])([H])[H])C([H])([H])C([H])([H])[N+]3([H])C([H])([H])C([H])([H])C(=NC(=O)N4C([H])([H])C([H])([H])C([H])([H])C([H])(n5nc(-c6c([H])c([H])c(Oc7c([H])c([H])c(F)c([H])c7F)c([H])c6[H])c(C(=O)N([H])[H])c5N([H])[H])C4([H])[H])C([H])([H])C3([H])[H])c([H])c([H])c2C1([H])[H]

>  <smiles>  (36) 
[H]c1c([H])c([H])c2c(c1[H])C([H])([H])C([H])([H])C([H])([H])C2([H])N([H])C(=O)C1([H])N(C(=O)C([H])(N([H])C(=O)C([H])(N([H])C([H])([H])[H])C([H])([H])[H])C(C([H])([H])[H])(C([H])([H])[H])C([H])([H])[H])C([H])([H])c2c([H])c(OC([H])([H])C([H])(C([H])([H])[H])C([H])([H])C([H])([H])[N+]3([H])C([H])([H])C([H])([H])C(=NC(=O)N4C([H])([H])C([H])([H])C([H])([H])C([H])(n5nc(-c6c([H])c([H])c(Oc7c([H])c([H])c(F)c([H])c7F)c([H])c6[H])c(C(=O)N([H])[H])c5N([H])[H])C4([H])[H])C([H])([H])C3([H])[H])c([H])c([H])c2C1([H])[H]

$$$$
36:0:0
     RDKit          3D

 90 98  0  0  1  0  0  0  0  0999 V2000
  -29.7350  -21.3350   18.6020 C   0  0  0  0  0  3  0  0  0  0  0  0
  -30.3380  -21.0960   20.9550 C   0  0  0  0  0  3  0  0  0  0  0  0
  -29.5670  -22.7190   18.7870 C   0  0  0  0  0  3  0  0  0  0  0  0
  -30.1600  -22.4800   21.1410 C   0  0  0  0  0  3  0  0  0  0  0  0
  -30.1460  -20.5270   19.6800 C   0  0  0  0  0  0  0  0  0  0  0  0
  -29.7970  -23.3000   20.0530 C   0  0  0  0  0  0  0  0  0  0  0  0
  -30.5210  -19.0810   19.4390 C   0  0  0  0  0  2  0  0  0  0  0  0
  -29.7860  -18.0280   20.2940 C   0  0  0  0  0  2  0  0  0  0  0  0
  -30.7090  -16.8090   20.3960 C   0  0  0  0  0  2  0  0  0  0  0  0
  -30.7400  -14.3980   20.4800 C   0  0  0  0  0  0  0  0  0  0  0  0
  -30.3420  -12.2650   19.3600 C   0  0  0  0  0  2  0  0  0  0  0  0
  -29.4290  -12.5220   18.1460 C   0  0  0  0  0  2  0  0  0  0  0  0
  -27.9500  -12.4160   18.5650 C   0  0  0  0  0  2  0  0  0  0  0  0
  -27.6160  -13.2500   19.8320 C   0  0  0  0  0  3  0  0  0  0  0  0
  -28.6670  -13.0370   20.9480 C   0  0  0  0  0  2  0  0  0  0  0  0
  -29.9970  -13.2700   20.3740 N   0  0  0  0  0  0  0  0  0  0  0  0
  -31.9110  -14.4620   20.0990 O   0  0  0  0  0  0  0  0  0  0  0  0
  -30.0800  -15.5330   20.7500 N   0  0  0  0  0  0  0  0  0  0  0  0
  -29.1030  -15.4980   20.9970 H   0  0  0  0  0  0  0  0  0  0  0  0
  -25.2120  -13.8540   20.5220 C   0  0  0  0  0  0  0  0  0  0  0  0
  -24.1420  -13.0820   20.8870 C   0  0  0  0  0  0  0  0  0  0  0  0
  -24.6050  -11.7310   20.8700 C   0  0  0  0  0  0  0  0  0  0  0  0
  -26.2610  -12.9750   20.3060 N   0  0  0  0  0  0  0  0  0  0  0  0
  -25.8990  -11.6930   20.5730 N   0  0  0  0  0  0  0  0  0  0  0  0
  -23.8790  -10.4690   21.0600 C   0  0  0  0  0  0  0  0  0  0  0  0
  -24.3140   -9.4980   21.9870 C   0  0  0  0  0  3  0  0  0  0  0  0
  -23.5880   -8.3010   22.1670 C   0  0  0  0  0  3  0  0  0  0  0  0
  -22.4110   -8.0660   21.4170 C   0  0  0  0  0  0  0  0  0  0  0  0
  -21.9950   -9.0260   20.4770 C   0  0  0  0  0  3  0  0  0  0  0  0
  -22.7220  -10.2140   20.2960 C   0  0  0  0  0  3  0  0  0  0  0  0
  -21.6550   -6.9210   21.5050 O   0  0  0  0  0  0  0  0  0  0  0  0
  -21.6220   -6.1670   22.6500 C   0  0  0  0  0  0  0  0  0  0  0  0
  -21.2280   -6.7130   23.8910 C   0  0  0  0  0  3  0  0  0  0  0  0
  -21.1420   -5.8870   25.0300 C   0  0  0  0  0  3  0  0  0  0  0  0
  -21.4410   -4.5160   24.9280 C   0  0  0  0  0  0  0  0  0  0  0  0
  -21.8310   -3.9690   23.6930 C   0  0  0  0  0  3  0  0  0  0  0  0
  -21.9180   -4.7920   22.5570 C   0  0  0  0  0  0  0  0  0  0  0  0
  -22.2740   -4.2550   21.3650 F   0  0  0  0  0  0  0  0  0  0  0  0
  -21.3520   -3.7200   26.0190 F   0  0  0  0  0  0  0  0  0  0  0  0
  -22.7420  -13.5590   21.1450 C   0  0  0  0  0  0  0  0  0  0  0  0
  -22.0080  -12.8680   22.0090 N   0  0  0  0  0  0  0  0  0  0  0  0
  -22.3080  -14.5820   20.6150 O   0  0  0  0  0  0  0  0  0  0  0  0
  -22.3750  -12.0430   22.4580 H   0  0  0  0  0  0  0  0  0  0  0  0
  -21.0690  -13.1680   22.2290 H   0  0  0  0  0  0  0  0  0  0  0  0
  -25.3740  -15.2240   20.3370 N   0  0  0  0  0  0  0  0  0  0  0  0
  -24.5990  -15.8730   20.4190 H   0  0  0  0  0  0  0  0  0  0  0  0
  -26.2190  -15.6590   19.9930 H   0  0  0  0  0  0  0  0  0  0  0  0
  -29.7110  -24.8030   20.2350 C   0  0  0  0  0  2  0  0  0  0  0  0
  -28.3440  -25.3820   19.8660 C   0  0  0  0  0  2  0  0  0  0  0  0
  -28.3840  -26.7800   20.1210 O   0  0  0  0  0  0  0  0  0  0  0  0
  -24.5790  -31.8820   23.2330 C   0  0  0  0  0  0  0  0  0  0  0  0
  -27.1900  -27.4600   20.1210 C   0  0  0  0  0  0  0  0  0  0  0  0
  -23.3560  -30.4820   21.6000 C   0  0  0  0  0  3  0  0  0  0  0  0
  -24.7920  -28.9470   20.1630 C   0  0  0  0  0  0  0  0  0  0  0  0
  -25.8780  -30.8460   21.3780 C   0  0  0  0  0  2  0  0  0  0  0  0
  -25.9540  -29.4770   20.7390 C   0  0  0  0  0  0  0  0  0  0  0  0
  -27.1550  -28.7390   20.7140 C   0  0  0  0  0  3  0  0  0  0  0  0
  -26.0070  -26.9370   19.5470 C   0  0  0  0  0  3  0  0  0  0  0  0
  -24.8110  -27.6760   19.5700 C   0  0  0  0  0  3  0  0  0  0  0  0
  -23.5510  -29.8040   20.2190 C   0  0  0  0  0  2  0  0  0  0  0  0
  -24.6230  -31.0850   22.1280 N   0  0  0  0  0  0  0  0  0  0  0  0
  -23.5030  -32.1540   23.7830 O   0  0  0  0  0  0  0  0  0  0  0  0
  -22.7140  -29.4590   22.5640 C   0  0  0  0  0  0  0  0  0  0  0  0
  -21.3900  -29.2780   22.4440 N   0  0  0  0  0  0  0  0  0  0  0  0
  -23.4030  -28.8310   23.3720 O   0  0  0  0  0  0  0  0  0  0  0  0
  -20.8960  -29.8340   21.7600 H   0  0  0  0  0  0  0  0  0  0  0  0
  -18.0170  -28.0880   22.9520 C   0  0  0  0  0  0  0  0  0  0  0  0
  -20.5750  -28.3410   23.2180 C   0  0  0  0  0  3  0  0  0  0  0  0
  -20.6750  -26.9100   22.6410 C   0  0  0  0  0  2  0  0  0  0  0  0
  -19.5680  -26.5880   21.6320 C   0  0  0  0  0  2  0  0  0  0  0  0
  -18.1890  -26.7360   22.2800 C   0  0  0  0  0  2  0  0  0  0  0  0
  -19.1370  -28.8490   23.3790 C   0  0  0  0  0  0  0  0  0  0  0  0
  -18.9230  -30.1140   23.9660 C   0  0  0  0  0  3  0  0  0  0  0  0
  -17.6190  -30.6180   24.1330 C   0  0  0  0  0  3  0  0  0  0  0  0
  -16.5120  -29.8540   23.7240 C   0  0  0  0  0  3  0  0  0  0  0  0
  -16.7130  -28.5900   23.1400 C   0  0  0  0  0  3  0  0  0  0  0  0
  -25.8720  -32.5080   23.8420 C   0  0  0  0  0  3  0  0  0  0  0  0
  -25.5690  -33.9040   24.1800 N   0  0  0  0  0  0  0  0  0  0  0  0
  -25.8970  -34.9580   23.4200 C   0  0  0  0  0  0  0  0  0  0  0  0
  -26.5580  -34.8560   22.3820 O   0  0  0  0  0  0  0  0  0  0  0  0
  -24.9840  -34.0590   24.9870 H   0  0  0  0  0  0  0  0  0  0  0  0
  -24.1680  -36.7510   23.0820 C   0  0  0  0  0  1  0  0  0  0  0  0
  -25.4140  -36.3450   23.8840 C   0  0  0  0  0  3  0  0  0  0  0  0
  -27.5560  -37.2220   24.7010 C   0  0  0  0  0  1  0  0  0  0  0  0
  -26.4470  -37.3980   23.7680 N   0  0  0  0  0  0  0  0  0  0  0  0
  -26.0430  -38.3160   23.9250 H   0  0  0  0  0  0  0  0  0  0  0  0
  -26.4040  -31.7290   25.1060 C   0  0  1  0  0  0  0  0  0  0  0  0
  -25.3240  -31.4860   26.1860 C   0  0  0  0  0  1  0  0  0  0  0  0
  -26.9790  -30.3540   24.6940 C   0  0  0  0  0  1  0  0  0  0  0  0
  -27.5650  -32.5180   25.7570 C   0  0  0  0  0  1  0  0  0  0  0  0
  1  3  2  0
  1  5  1  0
  2  4  1  0
  3  6  1  0
  5  2  2  0
  6 48  1  0
  6  4  2  0
  7  5  1  0
  7  8  1  0
  8  9  1  0
  9 18  1  0
 10 18  1  0
 11 16  1  0
 12 13  1  0
 12 11  1  0
 14 13  1  0
 14 23  1  0
 14 15  1  0
 16 10  1  0
 16 15  1  0
 17 10  2  0
 18 19  1  0
 20 21  2  0
 21 40  1  0
 22 21  1  0
 22 25  1  0
 23 20  1  0
 23 24  1  0
 24 22  2  0
 25 26  1  0
 26 27  2  0
 28 31  1  0
 28 27  1  0
 29 28  2  0
 30 29  1  0
 30 25  2  0
 31 32  1  0
 32 33  1  0
 33 34  2  0
 35 34  1  0
 35 39  1  0
 36 35  2  0
 37 32  2  0
 37 36  1  0
 38 37  1  0
 40 41  1  0
 41 44  1  0
 41 43  1  0
 42 40  2  0
 45 46  1  0
 45 20  1  0
 47 45  1  0
 49 50  1  0
 49 48  1  0
 51 62  2  0
 52 50  1  0
 52 57  1  0
 53 61  1  0
 53 63  1  0
 54 60  1  0
 54 56  1  0
 55 61  1  0
 56 55  1  0
 57 56  2  0
 58 59  1  0
 58 52  2  0
 59 54  2  0
 60 53  1  0
 61 51  1  0
 63 65  2  0
 64 63  1  0
 66 64  1  0
 67 76  2  0
 67 72  1  0
 68 64  1  0
 68 72  1  0
 69 68  1  0
 70 71  1  0
 70 69  1  0
 71 67  1  0
 72 73  2  0
 73 74  1  0
 75 74  2  0
 76 75  1  0
 77 51  1  0
 77 78  1  0
 77 87  1  0
 78 81  1  0
 79 83  1  0
 79 78  1  0
 80 79  2  0
 83 82  1  0
 85 83  1  0
 85 86  1  0
 85 84  1  0
 87 90  1  1
 87 88  1  0
 89 87  1  0
M  ISO  4  10 100  18 100  49 101  50 101
M  END
>  <TORSDO>  (37) 
F 21

>  <SCORE>  (37) 
-13.383

>  <name>  (37) 
36

>  <ligand_id>  (37) 
36

>  <original_smiles>  (37) 
[H]c1c([H])c([H])c2c(c1[H])C([H])([H])C([H])([H])C([H])([H])C2([H])N([H])C(=O)C1([H])N(C(=O)C([H])(N([H])C(=O)C([H])(N([H])C([H])([H])[H])C([H])([H])[H])C(C([H])([H])[H])(C([H])([H])[H])C([H])([H])[H])C([H])([H])c2c([H])c(OC([H])([H])C([H])([H])c3c([H])c([H])c(C([H])([H])C([H])([H])C([H])([H])N([H])C(=O)N4C([H])([H])C([H])([H])C([H])([H])C([H])(n5nc(-c6c([H])c([H])c(Oc7c([H])c([H])c(F)c([H])c7F)c([H])c6[H])c(C(=O)N([H])[H])c5N([H])[H])C4([H])[H])c([H])c3[H])c([H])c([H])c2C1([H])[H]

>  <smiles>  (37) 
[H]c1c([H])c([H])c2c(c1[H])C([H])([H])C([H])([H])C([H])([H])C2([H])N([H])C(=O)C1([H])N(C(=O)C([H])(N([H])C(=O)C([H])(N([H])C([H])([H])[H])C([H])([H])[H])C(C([H])([H])[H])(C([H])([H])[H])C([H])([H])[H])C([H])([H])c2c([H])c(OC([H])([H])C([H])([H])c3c([H])c([H])c(C([H])([H])C([H])([H])C([H])([H])N([H])C(=O)N4C([H])([H])C([H])([H])C([H])([H])C([H])(n5nc(-c6c([H])c([H])c(Oc7c([H])c([H])c(F)c([H])c7F)c([H])c6[H])c(C(=O)N([H])[H])c5N([H])[H])C4([H])[H])c([H])c3[H])c([H])c([H])c2C1([H])[H]

$$$$
37:0:0
     RDKit          3D

 89 97  0  0  1  0  0  0  0  0999 V2000
  -28.9900  -21.3700   22.4750 C   0  0  0  0  0  3  0  0  0  0  0  0
  -29.3410  -20.1760   21.8140 C   0  0  0  0  0  3  0  0  0  0  0  0
  -28.9470  -22.6020   21.7940 C   0  0  0  0  0  3  0  0  0  0  0  0
  -29.6290  -21.4490   19.7630 C   0  0  0  0  0  3  0  0  0  0  0  0
  -29.6770  -20.1670   20.4450 C   0  0  0  0  0  0  0  0  0  0  0  0
  -29.2600  -22.6920   20.4190 C   0  0  0  0  0  0  0  0  0  0  0  0
  -29.9210  -18.7590   19.7550 C   0  0  0  0  0  2  0  0  0  0  0  0
  -30.8170  -17.6230   20.4690 C   0  0  0  0  0  2  0  0  0  0  0  0
  -31.2320  -15.0490   20.0470 C   0  0  0  0  0  0  0  0  0  0  0  0
  -31.0030  -12.7620   19.0790 C   0  0  0  0  0  2  0  0  0  0  0  0
  -30.0370  -12.8160   17.8740 C   0  0  0  0  0  2  0  0  0  0  0  0
  -28.5740  -12.6710   18.3390 C   0  0  0  0  0  2  0  0  0  0  0  0
  -28.2350  -13.6010   19.5340 C   0  0  0  0  0  3  0  0  0  0  0  0
  -29.3100  -13.5130   20.6380 C   0  0  0  0  0  2  0  0  0  0  0  0
  -30.6000  -13.8310   20.0160 N   0  0  0  0  0  0  0  0  0  0  0  0
  -32.4100  -15.1590   19.6990 O   0  0  0  0  0  0  0  0  0  0  0  0
  -30.4490  -16.1570   20.2950 N   0  0  0  0  0  0  0  0  0  0  0  0
  -29.4860  -15.9360   20.4980 H   0  0  0  0  0  0  0  0  0  0  0  0
  -25.8870  -14.2570   20.3380 C   0  0  0  0  0  0  0  0  0  0  0  0
  -24.8070  -13.5070   20.7210 C   0  0  0  0  0  0  0  0  0  0  0  0
  -25.2270  -12.1430   20.6500 C   0  0  0  0  0  0  0  0  0  0  0  0
  -26.8960  -13.3490   20.0550 N   0  0  0  0  0  0  0  0  0  0  0  0
  -26.5070  -12.0720   20.3050 N   0  0  0  0  0  0  0  0  0  0  0  0
  -24.4670  -10.8990   20.8320 C   0  0  0  0  0  0  0  0  0  0  0  0
  -24.8310   -9.9490   21.8100 C   0  0  0  0  0  3  0  0  0  0  0  0
  -24.0750   -8.7690   21.9780 C   0  0  0  0  0  3  0  0  0  0  0  0
  -22.9400   -8.5320   21.1650 C   0  0  0  0  0  0  0  0  0  0  0  0
  -22.5960   -9.4710   20.1770 C   0  0  0  0  0  3  0  0  0  0  0  0
  -23.3530  -10.6420   20.0080 C   0  0  0  0  0  3  0  0  0  0  0  0
  -22.1610   -7.4030   21.2410 O   0  0  0  0  0  0  0  0  0  0  0  0
  -21.9510   -6.7510   22.4290 C   0  0  0  0  0  0  0  0  0  0  0  0
  -21.3350   -7.3880   23.5290 C   0  0  0  0  0  3  0  0  0  0  0  0
  -21.0760   -6.6600   24.7070 C   0  0  0  0  0  3  0  0  0  0  0  0
  -21.4200   -5.2970   24.7860 C   0  0  0  0  0  0  0  0  0  0  0  0
  -22.0270   -4.6600   23.6890 C   0  0  0  0  0  3  0  0  0  0  0  0
  -22.2890   -5.3850   22.5130 C   0  0  0  0  0  0  0  0  0  0  0  0
  -22.8550   -4.7610   21.4510 F   0  0  0  0  0  0  0  0  0  0  0  0
  -21.1630   -4.5960   25.9140 F   0  0  0  0  0  0  0  0  0  0  0  0
  -23.4330  -14.0200   21.0410 C   0  0  0  0  0  0  0  0  0  0  0  0
  -22.7130  -13.3340   21.9220 N   0  0  0  0  0  0  0  0  0  0  0  0
  -23.0090  -15.0640   20.5470 O   0  0  0  0  0  0  0  0  0  0  0  0
  -23.0690  -12.4880   22.3410 H   0  0  0  0  0  0  0  0  0  0  0  0
  -21.7930  -13.6610   22.1820 H   0  0  0  0  0  0  0  0  0  0  0  0
  -26.0900  -15.6240   20.1830 N   0  0  0  0  0  0  0  0  0  0  0  0
  -25.3460  -16.3000   20.3190 H   0  0  0  0  0  0  0  0  0  0  0  0
  -26.9310  -16.0380   19.8030 H   0  0  0  0  0  0  0  0  0  0  0  0
  -29.2200  -24.1140   19.7090 C   0  0  0  0  0  3  0  0  0  0  0  0
  -28.4940  -25.3640   20.4220 C   0  0  0  0  0  3  0  0  0  0  0  0
  -28.6070  -26.7490   19.8860 O   0  0  0  0  0  0  0  0  0  0  0  0
  -24.6860  -31.8540   23.2090 C   0  0  0  0  0  0  0  0  0  0  0  0
  -27.4660  -27.5650   19.9210 C   0  0  0  0  0  0  0  0  0  0  0  0
  -23.5390  -30.5100   21.4860 C   0  0  0  0  0  3  0  0  0  0  0  0
  -25.0480  -29.0900   19.9840 C   0  0  0  0  0  0  0  0  0  0  0  0
  -26.0660  -30.9280   21.3320 C   0  0  0  0  0  2  0  0  0  0  0  0
  -26.1980  -29.5890   20.6110 C   0  0  0  0  0  0  0  0  0  0  0  0
  -27.4120  -28.8390   20.5680 C   0  0  0  0  0  3  0  0  0  0  0  0
  -26.2970  -27.1210   19.2690 C   0  0  0  0  0  3  0  0  0  0  0  0
  -25.1000  -27.8640   19.3020 C   0  0  0  0  0  3  0  0  0  0  0  0
  -23.7810  -29.9180   20.0720 C   0  0  0  0  0  2  0  0  0  0  0  0
  -24.7820  -31.1110   22.0680 N   0  0  0  0  0  0  0  0  0  0  0  0
  -23.5920  -32.0630   23.7530 O   0  0  0  0  0  0  0  0  0  0  0  0
  -22.9080  -29.4190   22.3850 C   0  0  0  0  0  0  0  0  0  0  0  0
  -21.5870  -29.2110   22.2460 N   0  0  0  0  0  0  0  0  0  0  0  0
  -23.6060  -28.7660   23.1650 O   0  0  0  0  0  0  0  0  0  0  0  0
  -21.0830  -29.7880   21.5880 H   0  0  0  0  0  0  0  0  0  0  0  0
  -18.2440  -27.9090   22.6980 C   0  0  0  0  0  0  0  0  0  0  0  0
  -20.7990  -28.2070   22.9620 C   0  0  0  0  0  3  0  0  0  0  0  0
  -20.9280  -26.8210   22.2900 C   0  0  0  0  0  2  0  0  0  0  0  0
  -19.8220  -26.5420   21.2680 C   0  0  0  0  0  2  0  0  0  0  0  0
  -18.4440  -26.6120   21.9320 C   0  0  0  0  0  2  0  0  0  0  0  0
  -19.3500  -28.6660   23.1690 C   0  0  0  0  0  0  0  0  0  0  0  0
  -19.1100  -29.8800   23.8470 C   0  0  0  0  0  3  0  0  0  0  0  0
  -17.7960  -30.3390   24.0610 C   0  0  0  0  0  3  0  0  0  0  0  0
  -16.7040  -29.5780   23.6080 C   0  0  0  0  0  3  0  0  0  0  0  0
  -16.9300  -28.3660   22.9310 C   0  0  0  0  0  3  0  0  0  0  0  0
  -25.9450  -32.4950   23.8730 C   0  0  0  0  0  3  0  0  0  0  0  0
  -26.4460  -31.7060   25.1440 C   0  0  1  0  0  0  0  0  0  0  0  0
  -25.3260  -31.4010   26.1670 C   0  0  0  0  0  1  0  0  0  0  0  0
  -27.0880  -30.3610   24.7350 C   0  0  0  0  0  1  0  0  0  0  0  0
  -27.5440  -32.5210   25.8650 C   0  0  0  0  0  1  0  0  0  0  0  0
  -25.6030  -33.8810   24.2250 N   0  0  0  0  0  0  0  0  0  0  0  0
  -25.9250  -34.9550   23.4930 C   0  0  0  0  0  0  0  0  0  0  0  0
  -26.6110  -34.8860   22.4680 O   0  0  0  0  0  0  0  0  0  0  0  0
  -24.9970  -34.0070   25.0220 H   0  0  0  0  0  0  0  0  0  0  0  0
  -24.1610  -36.7180   23.1610 C   0  0  0  0  0  1  0  0  0  0  0  0
  -25.4060  -36.3260   23.9720 C   0  0  0  0  0  3  0  0  0  0  0  0
  -27.5110  -37.2460   24.8380 C   0  0  0  0  0  1  0  0  0  0  0  0
  -26.4170  -37.4020   23.8840 N   0  0  0  0  0  0  0  0  0  0  0  0
  -25.9890  -38.3110   24.0380 H   0  0  0  0  0  0  0  0  0  0  0  0
  2  1  1  0
  3  1  2  0
  4  6  2  0
  4  5  1  0
  5  2  2  0
  6  3  1  0
  7  5  1  0
  7  8  1  0
  9 17  1  0
 10 15  1  0
 11 12  1  0
 11 10  1  0
 13 12  1  0
 13 22  1  0
 13 14  1  0
 15  9  1  0
 15 14  1  0
 16  9  2  0
 17  8  1  0
 17 18  1  0
 19 20  2  0
 20 39  1  0
 21 20  1  0
 21 24  1  0
 22 23  1  0
 22 19  1  0
 23 21  2  0
 24 25  1  0
 25 26  2  0
 27 30  1  0
 27 26  1  0
 28 27  2  0
 29 28  1  0
 29 24  2  0
 30 31  1  0
 31 36  2  0
 31 32  1  0
 32 33  2  0
 33 34  1  0
 34 38  1  0
 35 34  2  0
 36 35  1  0
 37 36  1  0
 39 40  1  0
 40 43  1  0
 40 42  1  0
 41 39  2  0
 44 45  1  0
 44 19  1  0
 46 44  1  0
 47  6  1  0
 47 48  2  0
 49 51  1  0
 49 48  1  0
 50 61  2  0
 51 56  1  0
 52 60  1  0
 52 62  1  0
 53 59  1  0
 53 55  1  0
 54 60  1  0
 55 54  1  0
 56 55  2  0
 57 58  1  0
 57 51  2  0
 58 53  2  0
 59 52  1  0
 60 50  1  0
 62 64  2  0
 63 62  1  0
 65 63  1  0
 66 75  2  0
 66 71  1  0
 67 63  1  0
 67 71  1  0
 68 67  1  0
 69 70  1  0
 69 68  1  0
 70 66  1  0
 71 72  2  0
 72 73  1  0
 74 73  2  0
 75 74  1  0
 76 50  1  0
 76 81  1  0
 76 77  1  0
 77 80  1  1
 77 78  1  0
 79 77  1  0
 81 84  1  0
 82 86  1  0
 82 81  1  0
 83 82  2  0
 86 85  1  0
 88 86  1  0
 88 89  1  0
 88 87  1  0
M  ISO  4   9 100  17 100  48 101  49 101
M  END
>  <TORSDO>  (38) 
F 20

>  <SCORE>  (38) 
-12.146

>  <name>  (38) 
37

>  <ligand_id>  (38) 
37

>  <original_smiles>  (38) 
[H]c1c([H])c(C([H])([H])C([H])([H])Oc2c([H])c([H])c3c(c2[H])C([H])([H])N(C(=O)C([H])(N([H])C(=O)C([H])(N([H])C([H])([H])[H])C([H])([H])[H])C(C([H])([H])[H])(C([H])([H])[H])C([H])([H])[H])C([H])(C(=O)N([H])C2([H])c4c([H])c([H])c([H])c([H])c4C([H])([H])C([H])([H])C2([H])[H])C3([H])[H])c([H])c(C([H])([H])C([H])([H])N([H])C(=O)N2C([H])([H])C([H])([H])C([H])([H])C([H])(n3nc(-c4c([H])c([H])c(Oc5c([H])c([H])c(F)c([H])c5F)c([H])c4[H])c(C(=O)N([H])[H])c3N([H])[H])C2([H])[H])c1[H]

>  <smiles>  (38) 
[H]c1c([H])c(C([H])([H])C([H])([H])Oc2c([H])c([H])c3c(c2[H])C([H])([H])N(C(=O)C([H])(N([H])C(=O)C([H])(N([H])C([H])([H])[H])C([H])([H])[H])C(C([H])([H])[H])(C([H])([H])[H])C([H])([H])[H])C([H])(C(=O)N([H])C2([H])c4c([H])c([H])c([H])c([H])c4C([H])([H])C([H])([H])C2([H])[H])C3([H])[H])c([H])c(C([H])([H])C([H])([H])N([H])C(=O)N2C([H])([H])C([H])([H])C([H])([H])C([H])(n3nc(-c4c([H])c([H])c(Oc5c([H])c([H])c(F)c([H])c5F)c([H])c4[H])c(C(=O)N([H])[H])c3N([H])[H])C2([H])[H])c1[H]

$$$$
38:0:0
     RDKit          3D

 93101  0  0  1  0  0  0  0  0999 V2000
  -28.1550  -21.6290   22.0790 C   0  0  0  0  0  2  0  0  0  0  0  0
  -28.8030  -23.0090   22.0270 C   0  0  0  0  0  2  0  0  0  0  0  0
  -28.1690  -21.1370   20.6230 C   0  0  0  0  0  3  0  0  0  0  0  0
  -28.4450  -23.5610   20.6350 C   0  0  0  0  0  3  0  0  0  0  0  0
  -28.2020  -22.3580   19.7800 N   0  0  0  0  0  4  0  0  0  0  0  0
  -27.3670  -22.4330   19.2210 H   0  0  0  0  0  0  0  0  0  0  0  0
  -28.9880  -22.1860   19.1680 H   0  0  0  0  0  0  0  0  0  0  0  0
  -29.3700  -20.2390   20.2550 C   0  0  0  0  0  0  0  0  0  0  0  0
  -30.2670  -20.6260   19.4980 O   0  0  0  0  0  0  0  0  0  0  0  0
  -29.4050  -18.8130   20.8530 C   0  0  0  0  0  2  0  0  0  0  0  0
  -30.7460  -18.0570   20.6590 C   0  0  0  0  0  2  0  0  0  0  0  0
  -30.9500  -16.8310   21.5860 C   0  0  0  0  0  2  0  0  0  0  0  0
  -30.9700  -14.6340   20.3660 C   0  0  0  0  0  0  0  0  0  0  0  0
  -30.6590  -12.4980   19.1620 C   0  0  0  0  0  2  0  0  0  0  0  0
  -29.7080  -12.6950   17.9640 C   0  0  0  0  0  2  0  0  0  0  0  0
  -28.2370  -12.5560   18.4010 C   0  0  0  0  0  2  0  0  0  0  0  0
  -27.9070  -13.3900   19.6680 C   0  0  0  0  0  3  0  0  0  0  0  0
  -28.9630  -13.1590   20.7700 C   0  0  0  0  0  2  0  0  0  0  0  0
  -30.2840  -13.4720   20.1980 N   0  0  0  0  0  0  0  0  0  0  0  0
  -32.0640  -14.8500   19.8360 O   0  0  0  0  0  0  0  0  0  0  0  0
  -30.3550  -15.5740   21.1080 N   0  0  0  0  0  0  0  0  0  0  0  0
  -29.4450  -15.3310   21.4710 H   0  0  0  0  0  0  0  0  0  0  0  0
  -25.5100  -14.0040   20.3770 C   0  0  0  0  0  0  0  0  0  0  0  0
  -24.4420  -13.2350   20.7520 C   0  0  0  0  0  0  0  0  0  0  0  0
  -24.9020  -11.8820   20.7280 C   0  0  0  0  0  0  0  0  0  0  0  0
  -26.5530  -13.1210   20.1490 N   0  0  0  0  0  0  0  0  0  0  0  0
  -26.1900  -11.8390   20.4150 N   0  0  0  0  0  0  0  0  0  0  0  0
  -24.1740  -10.6220   20.9270 C   0  0  0  0  0  0  0  0  0  0  0  0
  -24.5830   -9.6790   21.8950 C   0  0  0  0  0  3  0  0  0  0  0  0
  -23.8570   -8.4830   22.0820 C   0  0  0  0  0  3  0  0  0  0  0  0
  -22.7070   -8.2220   21.2980 C   0  0  0  0  0  0  0  0  0  0  0  0
  -22.3180   -9.1540   20.3200 C   0  0  0  0  0  3  0  0  0  0  0  0
  -23.0440  -10.3420   20.1330 C   0  0  0  0  0  3  0  0  0  0  0  0
  -21.9550   -7.0760   21.3900 O   0  0  0  0  0  0  0  0  0  0  0  0
  -21.8500   -6.3780   22.5660 C   0  0  0  0  0  0  0  0  0  0  0  0
  -21.3340   -6.9680   23.7400 C   0  0  0  0  0  3  0  0  0  0  0  0
  -21.1790   -6.1950   24.9080 C   0  0  0  0  0  3  0  0  0  0  0  0
  -21.5280   -4.8310   24.9020 C   0  0  0  0  0  0  0  0  0  0  0  0
  -22.0350   -4.2380   23.7320 C   0  0  0  0  0  3  0  0  0  0  0  0
  -22.1940   -5.0100   22.5660 C   0  0  0  0  0  0  0  0  0  0  0  0
  -22.6630   -4.4300   21.4360 F   0  0  0  0  0  0  0  0  0  0  0  0
  -21.3710   -4.0850   26.0210 F   0  0  0  0  0  0  0  0  0  0  0  0
  -23.0460  -13.7150   21.0280 C   0  0  0  0  0  0  0  0  0  0  0  0
  -22.3230  -13.0250   21.9030 N   0  0  0  0  0  0  0  0  0  0  0  0
  -22.6050  -14.7360   20.5030 O   0  0  0  0  0  0  0  0  0  0  0  0
  -22.6930  -12.1970   22.3480 H   0  0  0  0  0  0  0  0  0  0  0  0
  -21.3860  -13.3260   22.1310 H   0  0  0  0  0  0  0  0  0  0  0  0
  -25.6760  -15.3730   20.1930 N   0  0  0  0  0  0  0  0  0  0  0  0
  -24.9100  -16.0300   20.3000 H   0  0  0  0  0  0  0  0  0  0  0  0
  -26.5300  -15.8080   19.8640 H   0  0  0  0  0  0  0  0  0  0  0  0
  -29.5140  -24.5480   20.0810 C   0  0  0  0  0  2  0  0  0  0  0  0
  -28.9590  -25.7740   19.3030 C   0  0  0  0  0  2  0  0  0  0  0  0
  -28.6770  -26.8920   20.1680 O   0  0  0  0  0  0  0  0  0  0  0  0
  -24.7230  -31.9530   23.2420 C   0  0  0  0  0  0  0  0  0  0  0  0
  -27.4740  -27.5820   20.1190 C   0  0  0  0  0  0  0  0  0  0  0  0
  -23.5600  -30.5600   21.5640 C   0  0  0  0  0  3  0  0  0  0  0  0
  -25.0540  -29.0660   20.1340 C   0  0  0  0  0  0  0  0  0  0  0  0
  -26.0810  -30.9570   21.3990 C   0  0  0  0  0  2  0  0  0  0  0  0
  -26.1970  -29.5920   20.7470 C   0  0  0  0  0  0  0  0  0  0  0  0
  -27.4040  -28.8510   20.7480 C   0  0  0  0  0  3  0  0  0  0  0  0
  -26.3030  -27.0740   19.5090 C   0  0  0  0  0  3  0  0  0  0  0  0
  -25.1030  -27.8070   19.5140 C   0  0  0  0  0  3  0  0  0  0  0  0
  -23.7970  -29.9050   20.1780 C   0  0  0  0  0  2  0  0  0  0  0  0
  -24.8070  -31.1700   22.1290 N   0  0  0  0  0  0  0  0  0  0  0  0
  -23.6300  -32.1990   23.7720 O   0  0  0  0  0  0  0  0  0  0  0  0
  -22.9120  -29.5140   22.5010 C   0  0  0  0  0  0  0  0  0  0  0  0
  -21.5910  -29.3220   22.3610 N   0  0  0  0  0  0  0  0  0  0  0  0
  -23.5960  -28.8800   23.3080 O   0  0  0  0  0  0  0  0  0  0  0  0
  -21.0980  -29.8880   21.6840 H   0  0  0  0  0  0  0  0  0  0  0  0
  -18.2230  -28.1020   22.8270 C   0  0  0  0  0  0  0  0  0  0  0  0
  -20.7790  -28.3610   23.1070 C   0  0  0  0  0  3  0  0  0  0  0  0
  -20.8880  -26.9470   22.4900 C   0  0  0  0  0  2  0  0  0  0  0  0
  -19.7870  -26.6480   21.4680 C   0  0  0  0  0  2  0  0  0  0  0  0
  -18.4050  -26.7710   22.1160 C   0  0  0  0  0  2  0  0  0  0  0  0
  -19.3380  -28.8550   23.2780 C   0  0  0  0  0  0  0  0  0  0  0  0
  -19.1150  -30.1030   23.9010 C   0  0  0  0  0  3  0  0  0  0  0  0
  -17.8080  -30.5970   24.0760 C   0  0  0  0  0  3  0  0  0  0  0  0
  -16.7060  -29.8380   23.6430 C   0  0  0  0  0  3  0  0  0  0  0  0
  -16.9150  -28.5920   23.0240 C   0  0  0  0  0  3  0  0  0  0  0  0
  -25.9890  -32.5960   23.8880 C   0  0  0  0  0  3  0  0  0  0  0  0
  -25.6670  -33.9930   24.2040 N   0  0  0  0  0  0  0  0  0  0  0  0
  -26.0180  -35.0440   23.4490 C   0  0  0  0  0  0  0  0  0  0  0  0
  -26.7210  -34.9380   22.4390 O   0  0  0  0  0  0  0  0  0  0  0  0
  -25.0460  -34.1480   24.9840 H   0  0  0  0  0  0  0  0  0  0  0  0
  -24.3040  -36.8330   23.0230 C   0  0  0  0  0  1  0  0  0  0  0  0
  -25.5130  -36.4330   23.8820 C   0  0  0  0  0  3  0  0  0  0  0  0
  -27.6110  -37.3250   24.7950 C   0  0  0  0  0  1  0  0  0  0  0  0
  -26.5480  -37.4870   23.8050 N   0  0  0  0  0  0  0  0  0  0  0  0
  -26.1370  -38.4070   23.9310 H   0  0  0  0  0  0  0  0  0  0  0  0
  -26.4860  -31.8310   25.1750 C   0  0  1  0  0  0  0  0  0  0  0  0
  -25.3720  -31.5750   26.2170 C   0  0  0  0  0  1  0  0  0  0  0  0
  -27.0940  -30.4620   24.7890 C   0  0  0  0  0  1  0  0  0  0  0  0
  -27.6160  -32.6340   25.8640 C   0  0  0  0  0  1  0  0  0  0  0  0
  2  1  1  0
  3  8  1  0
  3  1  1  0
  4 51  1  0
  4  2  1  0
  5  3  1  0
  5  4  1  0
  6  5  1  0
  7  5  1  0
  8 10  1  0
  9  8  2  0
 11 10  1  0
 11 12  1  0
 13 21  1  0
 14 19  1  0
 15 16  1  0
 15 14  1  0
 17 16  1  0
 17 26  1  0
 17 18  1  0
 19 13  1  0
 19 18  1  0
 20 13  2  0
 21 22  1  0
 21 12  1  0
 23 24  2  0
 24 43  1  0
 25 24  1  0
 25 28  1  0
 26 23  1  0
 26 27  1  0
 27 25  2  0
 28 29  1  0
 29 30  2  0
 31 34  1  0
 31 30  1  0
 32 31  2  0
 33 32  1  0
 33 28  2  0
 34 35  1  0
 35 36  1  0
 36 37  2  0
 38 37  1  0
 38 42  1  0
 39 38  2  0
 40 35  2  0
 40 39  1  0
 41 40  1  0
 43 44  1  0
 44 47  1  0
 44 46  1  0
 45 43  2  0
 48 49  1  0
 48 23  1  0
 50 48  1  0
 52 51  1  0
 52 53  1  0
 54 65  2  0
 55 53  1  0
 55 60  1  0
 56 64  1  0
 56 66  1  0
 57 63  1  0
 57 59  1  0
 58 64  1  0
 59 60  2  0
 59 58  1  0
 61 62  1  0
 61 55  2  0
 62 57  2  0
 63 56  1  0
 64 54  1  0
 66 68  2  0
 67 66  1  0
 69 67  1  0
 70 79  2  0
 70 75  1  0
 71 67  1  0
 71 75  1  0
 72 71  1  0
 73 74  1  0
 73 72  1  0
 74 70  1  0
 75 76  2  0
 76 77  1  0
 78 77  2  0
 79 78  1  0
 80 54  1  0
 80 81  1  0
 80 90  1  0
 81 84  1  0
 82 86  1  0
 82 81  1  0
 83 82  2  0
 86 85  1  0
 88 86  1  0
 88 89  1  0
 88 87  1  0
 90 93  1  1
 90 91  1  0
 92 90  1  0
M  ISO  4  13 100  21 100  52 101  53 101
M  END
>  <TORSDO>  (39) 
F 22

>  <SCORE>  (39) 
-12.674

>  <name>  (39) 
38

>  <ligand_id>  (39) 
38

>  <original_smiles>  (39) 
[H]c1c([H])c([H])c2c(c1[H])C([H])([H])C([H])([H])C([H])([H])C2([H])N([H])C(=O)C1([H])N(C(=O)C([H])(N([H])C(=O)C([H])(N([H])C([H])([H])[H])C([H])([H])[H])C(C([H])([H])[H])(C([H])([H])[H])C([H])([H])[H])C([H])([H])c2c([H])c(OC([H])([H])C([H])([H])C3([H])C([H])([H])C([H])([H])C([H])(C(=O)C([H])([H])C([H])([H])C([H])([H])N([H])C(=O)N4C([H])([H])C([H])([H])C([H])([H])C([H])(n5nc(-c6c([H])c([H])c(Oc7c([H])c([H])c(F)c([H])c7F)c([H])c6[H])c(C(=O)N([H])[H])c5N([H])[H])C4([H])[H])[N+]3([H])[H])c([H])c([H])c2C1([H])[H]

>  <smiles>  (39) 
[H]c1c([H])c([H])c2c(c1[H])C([H])([H])C([H])([H])C([H])([H])C2([H])N([H])C(=O)C1([H])N(C(=O)C([H])(N([H])C(=O)C([H])(N([H])C([H])([H])[H])C([H])([H])[H])C(C([H])([H])[H])(C([H])([H])[H])C([H])([H])[H])C([H])([H])c2c([H])c(OC([H])([H])C([H])([H])C3([H])C([H])([H])C([H])([H])C([H])(C(=O)C([H])([H])C([H])([H])C([H])([H])N([H])C(=O)N4C([H])([H])C([H])([H])C([H])([H])C([H])(n5nc(-c6c([H])c([H])c(Oc7c([H])c([H])c(F)c([H])c7F)c([H])c6[H])c(C(=O)N([H])[H])c5N([H])[H])C4([H])[H])[N+]3([H])[H])c([H])c([H])c2C1([H])[H]

$$$$
39:0:0
     RDKit          3D

 94102  0  0  1  0  0  0  0  0999 V2000
  -29.1620  -21.8210   18.2160 C   0  0  0  0  0  0  0  0  0  0  0  0
  -28.9760  -20.3350   18.5070 C   0  0  0  0  0  2  0  0  0  0  0  0
  -29.2050  -20.6880   19.9880 C   0  0  0  0  0  3  0  0  0  0  0  0
  -29.3700  -22.1180   19.5390 N   0  0  0  0  0  0  0  0  0  0  0  0
  -29.1570  -22.5350   17.2310 O   0  0  0  0  0  0  0  0  0  0  0  0
  -30.4400  -20.0730   20.7290 C   0  0  0  0  0  2  0  0  0  0  0  0
  -31.6260  -18.4570   22.2900 C   0  0  0  0  0  1  0  0  0  0  0  0
  -30.2990  -18.7070   21.5410 C   0  0  0  0  0  3  0  0  0  0  0  0
  -29.9380  -17.4120   20.7200 C   0  0  0  0  0  3  0  0  0  0  0  0
  -30.8000  -15.0870   21.3860 C   0  0  0  0  0  0  0  0  0  0  0  0
  -30.8170  -12.7770   20.4980 C   0  0  0  0  0  2  0  0  0  0  0  0
  -30.0900  -12.7880   19.1350 C   0  0  0  0  0  2  0  0  0  0  0  0
  -28.5610  -12.6580   19.3200 C   0  0  0  0  0  2  0  0  0  0  0  0
  -27.9910  -13.5830   20.4320 C   0  0  0  0  0  3  0  0  0  0  0  0
  -28.8500  -13.5210   21.7120 C   0  0  0  0  0  2  0  0  0  0  0  0
  -30.2350  -13.8470   21.3380 N   0  0  0  0  0  0  0  0  0  0  0  0
  -31.9900  -15.2670   21.1190 O   0  0  0  0  0  0  0  0  0  0  0  0
  -29.9280  -16.1260   21.4910 N   0  0  0  0  0  0  0  0  0  0  0  0
  -29.0310  -15.8730   21.8810 H   0  0  0  0  0  0  0  0  0  0  0  0
  -25.5140  -14.1560   20.8290 C   0  0  0  0  0  0  0  0  0  0  0  0
  -24.4120  -13.3760   21.0330 C   0  0  0  0  0  0  0  0  0  0  0  0
  -24.8820  -12.0290   21.0260 C   0  0  0  0  0  0  0  0  0  0  0  0
  -26.5890  -13.2880   20.7110 N   0  0  0  0  0  0  0  0  0  0  0  0
  -26.2020  -11.9970   20.8830 N   0  0  0  0  0  0  0  0  0  0  0  0
  -24.1460  -10.7620   21.0880 C   0  0  0  0  0  0  0  0  0  0  0  0
  -24.4660   -9.7640   22.0340 C   0  0  0  0  0  3  0  0  0  0  0  0
  -23.7260   -8.5630   22.0820 C   0  0  0  0  0  3  0  0  0  0  0  0
  -22.6550   -8.3520   21.1780 C   0  0  0  0  0  0  0  0  0  0  0  0
  -22.3580   -9.3390   20.2220 C   0  0  0  0  0  3  0  0  0  0  0  0
  -23.0990  -10.5310   20.1730 C   0  0  0  0  0  3  0  0  0  0  0  0
  -21.9050   -7.2010   21.1330 O   0  0  0  0  0  0  0  0  0  0  0  0
  -21.7180   -6.4210   22.2460 C   0  0  0  0  0  0  0  0  0  0  0  0
  -21.1290   -6.9320   23.4240 C   0  0  0  0  0  3  0  0  0  0  0  0
  -20.8830   -6.0760   24.5180 C   0  0  0  0  0  3  0  0  0  0  0  0
  -21.2250   -4.7140   24.4360 C   0  0  0  0  0  0  0  0  0  0  0  0
  -21.8040   -4.2010   23.2620 C   0  0  0  0  0  3  0  0  0  0  0  0
  -22.0460   -5.0530   22.1710 C   0  0  0  0  0  0  0  0  0  0  0  0
  -22.5860   -4.5480   21.0340 F   0  0  0  0  0  0  0  0  0  0  0  0
  -20.9880   -3.8910   25.4850 F   0  0  0  0  0  0  0  0  0  0  0  0
  -22.9880  -13.8530   21.1160 C   0  0  0  0  0  0  0  0  0  0  0  0
  -22.1480  -13.1420   21.8560 N   0  0  0  0  0  0  0  0  0  0  0  0
  -22.6190  -14.8830   20.5560 O   0  0  0  0  0  0  0  0  0  0  0  0
  -22.4470  -12.3070   22.3360 H   0  0  0  0  0  0  0  0  0  0  0  0
  -21.1860  -13.4380   21.9450 H   0  0  0  0  0  0  0  0  0  0  0  0
  -25.6780  -15.5290   20.7180 N   0  0  0  0  0  0  0  0  0  0  0  0
  -24.8870  -16.1590   20.7770 H   0  0  0  0  0  0  0  0  0  0  0  0
  -26.5500  -15.9950   20.5150 H   0  0  0  0  0  0  0  0  0  0  0  0
  -28.5480  -17.5430   20.0530 C   0  0  0  0  0  2  0  0  0  0  0  0
  -27.0320  -16.8500   18.1220 C   0  0  0  0  0  1  0  0  0  0  0  0
  -28.4470  -16.8280   18.7030 C   0  0  0  0  0  2  0  0  0  0  0  0
  -29.7050  -23.4110   20.1790 C   0  0  0  0  0  2  0  0  0  0  0  0
  -28.5930  -24.5280   20.2580 C   0  0  0  0  0  2  0  0  0  0  0  0
  -28.6990  -25.7390   19.2730 C   0  0  0  0  0  2  0  0  0  0  0  0
  -28.5300  -27.0420   19.8970 O   0  0  0  0  0  0  0  0  0  0  0  0
  -24.7320  -32.0600   23.2960 C   0  0  0  0  0  0  0  0  0  0  0  0
  -27.3180  -27.7130   19.9610 C   0  0  0  0  0  0  0  0  0  0  0  0
  -23.4800  -30.6710   21.6780 C   0  0  0  0  0  3  0  0  0  0  0  0
  -24.8910  -29.1830   20.1520 C   0  0  0  0  0  0  0  0  0  0  0  0
  -25.9890  -31.0690   21.3790 C   0  0  0  0  0  2  0  0  0  0  0  0
  -26.0660  -29.7130   20.6990 C   0  0  0  0  0  0  0  0  0  0  0  0
  -27.2750  -28.9810   20.6010 C   0  0  0  0  0  3  0  0  0  0  0  0
  -26.1160  -27.1980   19.4260 C   0  0  0  0  0  3  0  0  0  0  0  0
  -24.9090  -27.9260   19.5210 C   0  0  0  0  0  3  0  0  0  0  0  0
  -23.6400  -30.0240   20.2760 C   0  0  0  0  0  2  0  0  0  0  0  0
  -24.7540  -31.2810   22.1770 N   0  0  0  0  0  0  0  0  0  0  0  0
  -23.6700  -32.3050   23.8880 O   0  0  0  0  0  0  0  0  0  0  0  0
  -22.8840  -29.6210   22.6450 C   0  0  0  0  0  0  0  0  0  0  0  0
  -21.5620  -29.3990   22.5430 N   0  0  0  0  0  0  0  0  0  0  0  0
  -23.6040  -29.0090   23.4370 O   0  0  0  0  0  0  0  0  0  0  0  0
  -21.0390  -29.9510   21.8810 H   0  0  0  0  0  0  0  0  0  0  0  0
  -18.2460  -28.0470   23.0620 C   0  0  0  0  0  0  0  0  0  0  0  0
  -20.7920  -28.4220   23.3170 C   0  0  0  0  0  3  0  0  0  0  0  0
  -20.9560  -26.9970   22.7390 C   0  0  0  0  0  2  0  0  0  0  0  0
  -19.8630  -26.6260   21.7310 C   0  0  0  0  0  2  0  0  0  0  0  0
  -18.4810  -26.7070   22.3840 C   0  0  0  0  0  2  0  0  0  0  0  0
  -19.3330  -28.8590   23.4830 C   0  0  0  0  0  0  0  0  0  0  0  0
  -19.0580  -30.1130   24.0730 C   0  0  0  0  0  3  0  0  0  0  0  0
  -17.7330  -30.5540   24.2430 C   0  0  0  0  0  3  0  0  0  0  0  0
  -16.6620  -29.7380   23.8380 C   0  0  0  0  0  3  0  0  0  0  0  0
  -16.9210  -28.4830   23.2560 C   0  0  0  0  0  3  0  0  0  0  0  0
  -26.0320  -32.6980   23.8780 C   0  0  0  0  0  3  0  0  0  0  0  0
  -25.7290  -34.0920   24.2280 N   0  0  0  0  0  0  0  0  0  0  0  0
  -26.0530  -35.1520   23.4770 C   0  0  0  0  0  0  0  0  0  0  0  0
  -26.7070  -35.0570   22.4330 O   0  0  0  0  0  0  0  0  0  0  0  0
  -25.1510  -34.2420   25.0430 H   0  0  0  0  0  0  0  0  0  0  0  0
  -24.3280  -36.9500   23.1540 C   0  0  0  0  0  1  0  0  0  0  0  0
  -25.5750  -36.5370   23.9530 C   0  0  0  0  0  3  0  0  0  0  0  0
  -27.7210  -37.3990   24.7740 C   0  0  0  0  0  1  0  0  0  0  0  0
  -26.6110  -37.5870   23.8450 N   0  0  0  0  0  0  0  0  0  0  0  0
  -26.2110  -38.5070   24.0090 H   0  0  0  0  0  0  0  0  0  0  0  0
  -26.6070  -31.9180   25.1240 C   0  0  1  0  0  0  0  0  0  0  0  0
  -25.5620  -31.6590   26.2370 C   0  0  0  0  0  1  0  0  0  0  0  0
  -27.1790  -30.5470   24.6910 C   0  0  0  0  0  1  0  0  0  0  0  0
  -27.7830  -32.7110   25.7410 C   0  0  0  0  0  1  0  0  0  0  0  0
  1  2  1  0
  1  4  1  0
  2  3  1  0
  3  6  1  0
  4  3  1  0
  4 51  1  0
  5  1  2  0
  6  8  1  0
  8  7  1  0
  9 48  1  0
  9 18  1  0
  9  8  1  0
 10 18  1  0
 11 16  1  0
 12 13  1  0
 12 11  1  0
 14 13  1  0
 14 23  1  0
 14 15  1  0
 16 10  1  0
 16 15  1  0
 17 10  2  0
 18 19  1  0
 20 21  2  0
 21 40  1  0
 22 21  1  0
 22 25  1  0
 23 20  1  0
 23 24  1  0
 24 22  2  0
 25 26  1  0
 26 27  2  0
 28 27  1  0
 29 28  2  0
 30 29  1  0
 30 25  2  0
 31 28  1  0
 31 32  1  0
 32 33  1  0
 33 34  2  0
 35 34  1  0
 35 39  1  0
 36 35  2  0
 37 32  2  0
 37 36  1  0
 38 37  1  0
 40 41  1  0
 41 44  1  0
 41 43  1  0
 42 40  2  0
 45 46  1  0
 45 20  1  0
 47 45  1  0
 49 50  1  0
 50 48  1  0
 51 52  1  0
 53 54  1  0
 53 52  1  0
 54 56  1  0
 55 66  2  0
 56 61  1  0
 57 65  1  0
 57 67  1  0
 58 64  1  0
 58 60  1  0
 59 65  1  0
 60 59  1  0
 61 60  2  0
 62 63  1  0
 62 56  2  0
 63 58  2  0
 64 57  1  0
 65 55  1  0
 67 69  2  0
 68 67  1  0
 70 68  1  0
 71 80  2  0
 71 76  1  0
 72 68  1  0
 72 76  1  0
 73 72  1  0
 74 75  1  0
 74 73  1  0
 75 71  1  0
 76 77  2  0
 77 78  1  0
 79 78  2  0
 80 79  1  0
 81 55  1  0
 81 82  1  0
 81 91  1  0
 82 85  1  0
 83 87  1  0
 83 82  1  0
 84 83  2  0
 87 86  1  0
 89 87  1  0
 89 90  1  0
 89 88  1  0
 91 94  1  1
 91 92  1  0
 93 91  1  0
M  ISO  4  10 100  18 100  53 101  54 101
M  END
>  <TORSDO>  (40) 
F 24

>  <SCORE>  (40) 
-10.051

>  <name>  (40) 
39

>  <ligand_id>  (40) 
39

>  <original_smiles>  (40) 
[H]c1c([H])c([H])c2c(c1[H])C([H])([H])C([H])([H])C([H])([H])C2([H])N([H])C(=O)C1([H])N(C(=O)C([H])(N([H])C(=O)C([H])(N([H])C([H])([H])[H])C([H])([H])[H])C(C([H])([H])[H])(C([H])([H])[H])C([H])([H])[H])C([H])([H])c2c([H])c(OC([H])([H])C([H])([H])C([H])([H])N3C(=O)C([H])([H])C3([H])C([H])([H])C([H])(C([H])([H])[H])C([H])(N([H])C(=O)N3C([H])([H])C([H])([H])C([H])([H])C([H])(n4nc(-c5c([H])c([H])c(Oc6c([H])c([H])c(F)c([H])c6F)c([H])c5[H])c(C(=O)N([H])[H])c4N([H])[H])C3([H])[H])C([H])([H])C([H])([H])C([H])([H])[H])c([H])c([H])c2C1([H])[H]

>  <smiles>  (40) 
[H]c1c([H])c([H])c2c(c1[H])C([H])([H])C([H])([H])C([H])([H])C2([H])N([H])C(=O)C1([H])N(C(=O)C([H])(N([H])C(=O)C([H])(N([H])C([H])([H])[H])C([H])([H])[H])C(C([H])([H])[H])(C([H])([H])[H])C([H])([H])[H])C([H])([H])c2c([H])c(OC([H])([H])C([H])([H])C([H])([H])N3C(=O)C([H])([H])C3([H])C([H])([H])C([H])(C([H])([H])[H])C([H])(N([H])C(=O)N3C([H])([H])C([H])([H])C([H])([H])C([H])(n4nc(-c5c([H])c([H])c(Oc6c([H])c([H])c(F)c([H])c6F)c([H])c5[H])c(C(=O)N([H])[H])c4N([H])[H])C3([H])[H])C([H])([H])C([H])([H])C([H])([H])[H])c([H])c([H])c2C1([H])[H]

$$$$
40:0:0
     RDKit          3D

 96107  0  0  1  0  0  0  0  0999 V2000
  -29.3590  -17.3280   21.4490 C   0  0  0  0  0  2  0  0  0  0  0  0
  -29.0570  -17.1250   18.9960 C   0  0  0  0  0  2  0  0  0  0  0  0
  -30.0160  -21.3130   20.8190 C   0  0  0  0  0  2  0  0  0  0  0  0
  -30.7280  -19.7260   19.1950 C   0  0  0  0  0  2  0  0  0  0  0  0
  -28.8900  -18.0710   20.1820 C   0  0  1  0  0  0  0  0  0  0  0  0
  -30.6440  -17.4450   20.6110 C   0  0  2  0  0  0  0  0  0  0  0  0
  -30.2130  -19.9810   21.5270 C   0  0  0  0  0  3  0  0  0  0  0  0
  -30.4600  -16.6040   19.3480 C   0  0  0  0  0  3  0  0  0  0  0  0
  -30.1720  -18.9200   20.3990 C   0  0  1  0  0  0  0  0  0  0  0  0
  -31.5120  -19.9430   22.3530 C   0  0  0  0  0  1  0  0  0  0  0  0
  -30.6880  -21.1750   19.5170 N   0  0  1  0  0  4  0  0  0  0  0  0
  -31.6500  -21.4490   19.6580 H   0  0  0  0  0  0  0  0  0  0  0  0
  -30.9160  -14.1880   18.9460 C   0  0  0  0  0  0  0  0  0  0  0  0
  -30.4780  -11.8800   18.1990 C   0  0  0  0  0  2  0  0  0  0  0  0
  -29.3670  -11.8900   17.1300 C   0  0  0  0  0  2  0  0  0  0  0  0
  -27.9690  -11.8520   17.7780 C   0  0  0  0  0  2  0  0  0  0  0  0
  -27.8070  -12.9060   18.9050 C   0  0  0  0  0  3  0  0  0  0  0  0
  -29.0070  -12.8350   19.8800 C   0  0  0  0  0  2  0  0  0  0  0  0
  -30.2520  -13.0140   19.1030 N   0  0  0  0  0  0  0  0  0  0  0  0
  -31.8370  -14.3580   18.1410 O   0  0  0  0  0  0  0  0  0  0  0  0
  -30.4280  -15.1860   19.6860 N   0  0  0  0  0  0  0  0  0  0  0  0
  -29.7500  -14.9180   20.3800 H   0  0  0  0  0  0  0  0  0  0  0  0
  -25.6500  -13.7190   20.0600 C   0  0  0  0  0  0  0  0  0  0  0  0
  -24.5830  -13.0410   20.5840 C   0  0  0  0  0  0  0  0  0  0  0  0
  -24.8710  -11.6530   20.4040 C   0  0  0  0  0  0  0  0  0  0  0  0
  -26.5320  -12.7500   19.6050 N   0  0  0  0  0  0  0  0  0  0  0  0
  -26.0710  -11.4980   19.8600 N   0  0  0  0  0  0  0  0  0  0  0  0
  -24.0490  -10.4650   20.6650 C   0  0  0  0  0  0  0  0  0  0  0  0
  -24.5100   -9.4170   21.4920 C   0  0  0  0  0  3  0  0  0  0  0  0
  -23.6970   -8.2910   21.7420 C   0  0  0  0  0  3  0  0  0  0  0  0
  -22.4060   -8.2060   21.1670 C   0  0  0  0  0  0  0  0  0  0  0  0
  -21.9610   -9.2420   20.3270 C   0  0  0  0  0  3  0  0  0  0  0  0
  -22.7740  -10.3600   20.0740 C   0  0  0  0  0  3  0  0  0  0  0  0
  -21.5570   -7.1390   21.3330 O   0  0  0  0  0  0  0  0  0  0  0  0
  -21.6230   -6.3330   22.4410 C   0  0  0  0  0  0  0  0  0  0  0  0
  -21.4330   -6.8400   23.7440 C   0  0  0  0  0  3  0  0  0  0  0  0
  -21.4390   -5.9650   24.8480 C   0  0  0  0  0  3  0  0  0  0  0  0
  -21.6230   -4.5830   24.6520 C   0  0  0  0  0  0  0  0  0  0  0  0
  -21.8070   -4.0740   23.3530 C   0  0  0  0  0  3  0  0  0  0  0  0
  -21.8030   -4.9480   22.2510 C   0  0  0  0  0  0  0  0  0  0  0  0
  -21.9590   -4.4500   21.0010 F   0  0  0  0  0  0  0  0  0  0  0  0
  -21.6230   -3.7410   25.7120 F   0  0  0  0  0  0  0  0  0  0  0  0
  -23.3220  -13.6420   21.1360 C   0  0  0  0  0  0  0  0  0  0  0  0
  -22.7010  -12.9820   22.1090 N   0  0  0  0  0  0  0  0  0  0  0  0
  -22.9040  -14.7300   20.7400 O   0  0  0  0  0  0  0  0  0  0  0  0
  -23.0540  -12.1000   22.4510 H   0  0  0  0  0  0  0  0  0  0  0  0
  -21.8620  -13.3650   22.5180 H   0  0  0  0  0  0  0  0  0  0  0  0
  -25.9330  -15.0730   19.9160 N   0  0  0  0  0  0  0  0  0  0  0  0
  -25.2780  -15.7940   20.1980 H   0  0  0  0  0  0  0  0  0  0  0  0
  -26.7670  -15.4440   19.4790 H   0  0  0  0  0  0  0  0  0  0  0  0
  -30.1320  -22.0410   18.4420 C   0  0  0  0  0  2  0  0  0  0  0  0
  -29.9440  -23.5100   18.8910 C   0  0  0  0  0  2  0  0  0  0  0  0
  -30.2600  -24.9910   16.8340 C   0  0  0  0  0  1  0  0  0  0  0  0
  -29.2550  -24.4190   17.8500 C   0  0  0  0  0  3  0  0  0  0  0  0
  -28.4680  -25.5390   18.5580 C   0  0  0  0  0  2  0  0  0  0  0  0
  -28.0060  -26.4950   17.6130 O   0  0  0  0  0  0  0  0  0  0  0  0
  -24.7190  -30.4150   22.5540 C   0  0  0  0  0  0  0  0  0  0  0  0
  -26.8620  -27.1330   18.0130 C   0  0  0  0  0  0  0  0  0  0  0  0
  -23.2740  -29.4690   20.7820 C   0  0  0  0  0  3  0  0  0  0  0  0
  -24.4930  -28.4390   18.7940 C   0  0  0  0  0  0  0  0  0  0  0  0
  -25.7370  -29.9780   20.3260 C   0  0  0  0  0  2  0  0  0  0  0  0
  -25.7240  -28.8400   19.3290 C   0  0  0  0  0  0  0  0  0  0  0  0
  -26.9150  -28.1900   18.9420 C   0  0  0  0  0  3  0  0  0  0  0  0
  -25.6220  -26.7310   17.4810 C   0  0  0  0  0  3  0  0  0  0  0  0
  -24.4330  -27.3790   17.8700 C   0  0  0  0  0  3  0  0  0  0  0  0
  -23.2690  -29.1970   19.2540 C   0  0  0  0  0  2  0  0  0  0  0  0
  -24.6040  -29.9530   21.2770 N   0  0  0  0  0  0  0  0  0  0  0  0
  -23.7340  -30.4860   23.3010 O   0  0  0  0  0  0  0  0  0  0  0  0
  -22.7750  -28.1990   21.5080 C   0  0  0  0  0  0  0  0  0  0  0  0
  -21.4560  -27.9560   21.4460 N   0  0  0  0  0  0  0  0  0  0  0  0
  -23.5660  -27.4460   22.0820 O   0  0  0  0  0  0  0  0  0  0  0  0
  -20.8740  -28.6250   20.9630 H   0  0  0  0  0  0  0  0  0  0  0  0
  -18.2300  -26.3670   21.7830 C   0  0  0  0  0  0  0  0  0  0  0  0
  -20.7660  -26.8020   22.0210 C   0  0  0  0  0  3  0  0  0  0  0  0
  -20.9620  -25.5440   21.1450 C   0  0  0  0  0  2  0  0  0  0  0  0
  -19.8390  -25.3410   20.1210 C   0  0  0  0  0  2  0  0  0  0  0  0
  -18.4870  -25.2150   20.8270 C   0  0  0  0  0  2  0  0  0  0  0  0
  -19.3000  -27.1220   22.3310 C   0  0  0  0  0  0  0  0  0  0  0  0
  -19.0050  -28.2060   23.1870 C   0  0  0  0  0  3  0  0  0  0  0  0
  -17.6720  -28.5350   23.4980 C   0  0  0  0  0  3  0  0  0  0  0  0
  -16.6170  -27.7740   22.9660 C   0  0  0  0  0  3  0  0  0  0  0  0
  -16.8980  -26.6910   22.1140 C   0  0  0  0  0  3  0  0  0  0  0  0
  -26.0880  -30.9010   23.1270 C   0  0  0  0  0  3  0  0  0  0  0  0
  -26.7940  -29.8280   24.0430 C   0  0  1  0  0  0  0  0  0  0  0  0
  -25.8830  -29.2670   25.1600 C   0  0  0  0  0  1  0  0  0  0  0  0
  -27.2950  -28.6330   23.1980 C   0  0  0  0  0  1  0  0  0  0  0  0
  -28.0420  -30.4510   24.7130 C   0  0  0  0  0  1  0  0  0  0  0  0
  -25.8370  -32.1410   23.8720 N   0  0  0  0  0  0  0  0  0  0  0  0
  -26.1210  -33.3700   23.4190 C   0  0  0  0  0  0  0  0  0  0  0  0
  -26.6940  -33.5730   22.3450 O   0  0  0  0  0  0  0  0  0  0  0  0
  -25.3180  -32.0550   24.7340 H   0  0  0  0  0  0  0  0  0  0  0  0
  -24.4170  -35.1910   23.7400 C   0  0  0  0  0  1  0  0  0  0  0  0
  -25.7040  -34.5630   24.2990 C   0  0  0  0  0  3  0  0  0  0  0  0
  -27.9120  -35.1630   25.1910 C   0  0  0  0  0  1  0  0  0  0  0  0
  -26.7520  -35.6010   24.4180 N   0  0  0  0  0  0  0  0  0  0  0  0
  -26.3800  -36.4390   24.8550 H   0  0  0  0  0  0  0  0  0  0  0  0
  2  8  1  0
  3  7  1  0
  4 11  1  0
  5  2  1  6
  5  9  1  0
  5  6  1  0
  5  1  1  0
  6  1  1  1
  7 10  1  0
  8 21  1  0
  8  6  1  0
  9  4  1  6
  9  6  1  0
  9  7  1  0
 11 12  1  1
 11  3  1  0
 13 19  1  0
 13 21  1  0
 14 19  1  0
 15 16  1  0
 15 14  1  0
 17 16  1  0
 17 26  1  0
 17 18  1  0
 19 18  1  0
 20 13  2  0
 21 22  1  0
 23 24  2  0
 24 43  1  0
 25 24  1  0
 25 28  1  0
 26 27  1  0
 26 23  1  0
 27 25  2  0
 28 29  1  0
 29 30  2  0
 31 34  1  0
 31 30  1  0
 32 31  2  0
 33 32  1  0
 33 28  2  0
 34 35  1  0
 35 36  1  0
 36 37  2  0
 38 37  1  0
 38 42  1  0
 39 38  2  0
 40 35  2  0
 40 39  1  0
 41 40  1  0
 43 44  1  0
 44 46  1  0
 44 47  1  0
 45 43  2  0
 48 23  1  0
 48 49  1  0
 50 48  1  0
 51 52  1  0
 51 11  1  0
 54 53  1  0
 54 55  1  0
 54 52  1  0
 56 58  1  0
 56 55  1  0
 57 68  2  0
 58 63  1  0
 59 67  1  0
 59 69  1  0
 60 66  1  0
 60 62  1  0
 61 67  1  0
 62 61  1  0
 63 62  2  0
 64 65  1  0
 64 58  2  0
 65 60  2  0
 66 59  1  0
 67 57  1  0
 69 71  2  0
 70 69  1  0
 72 70  1  0
 73 82  2  0
 73 78  1  0
 74 70  1  0
 74 78  1  0
 75 74  1  0
 76 77  1  0
 76 75  1  0
 77 73  1  0
 78 79  2  0
 79 80  1  0
 81 80  2  0
 82 81  1  0
 83 57  1  0
 83 88  1  0
 83 84  1  0
 84 87  1  1
 84 85  1  0
 86 84  1  0
 88 91  1  0
 89 88  1  0
 89 93  1  0
 90 89  2  0
 93 92  1  0
 93 95  1  0
 95 96  1  0
 95 94  1  0
M  ISO  4  13 100  21 100  55 101  56 101
M  END
>  <TORSDO>  (41) 
F 20

>  <SCORE>  (41) 
-9.132

>  <name>  (41) 
40

>  <ligand_id>  (41) 
40

>  <original_smiles>  (41) 
[H]c1c([H])c([H])c2c(c1[H])C([H])([H])C([H])([H])C([H])([H])C2([H])N([H])C(=O)C1([H])N(C(=O)C([H])(N([H])C(=O)C([H])(N([H])C([H])([H])[H])C([H])([H])[H])C(C([H])([H])[H])(C([H])([H])[H])C([H])([H])[H])C([H])([H])c2c([H])c(OC([H])([H])C([H])(C([H])([H])[H])C([H])([H])C([H])([H])[N+]3([H])C([H])([H])C([H])(C([H])([H])[H])C4(C5([H])C([H])([H])C([H])(N([H])C(=O)N6C([H])([H])C([H])([H])C([H])([H])C([H])(n7nc(-c8c([H])c([H])c(Oc9c([H])c([H])c(F)c([H])c9F)c([H])c8[H])c(C(=O)N([H])[H])c7N([H])[H])C6([H])[H])C4([H])C5([H])[H])C3([H])[H])c([H])c([H])c2C1([H])[H]

>  <smiles>  (41) 
[H]c1c([H])c([H])c2c(c1[H])C([H])([H])C([H])([H])C([H])([H])C2([H])N([H])C(=O)C1([H])N(C(=O)C([H])(N([H])C(=O)C([H])(N([H])C([H])([H])[H])C([H])([H])[H])C(C([H])([H])[H])(C([H])([H])[H])C([H])([H])[H])C([H])([H])c2c([H])c(OC([H])([H])C([H])(C([H])([H])[H])C([H])([H])C([H])([H])[N+]3([H])C([H])([H])C([H])(C([H])([H])[H])C4(C5([H])C([H])([H])C([H])(N([H])C(=O)N6C([H])([H])C([H])([H])C([H])([H])C([H])(n7nc(-c8c([H])c([H])c(Oc9c([H])c([H])c(F)c([H])c9F)c([H])c8[H])c(C(=O)N([H])[H])c7N([H])[H])C6([H])[H])C4([H])C5([H])[H])C3([H])[H])c([H])c([H])c2C1([H])[H]

$$$$
41:0:0
     RDKit          3D

 88 96  0  0  1  0  0  0  0  0999 V2000
  -28.6120  -21.6890   20.3880 C   0  0  0  0  0  2  0  0  0  0  0  0
  -29.6490  -20.4830   20.2940 N   0  0  0  0  0  4  0  0  0  0  0  0
  -30.0660  -20.5330   19.3780 H   0  0  0  0  0  0  0  0  0  0  0  0
  -30.3850  -20.7200   20.9400 H   0  0  0  0  0  0  0  0  0  0  0  0
  -30.5480  -15.0480   20.2710 C   0  0  0  0  0  0  0  0  0  0  0  0
  -30.3740  -12.6970   19.3220 C   0  0  0  0  0  2  0  0  0  0  0  0
  -29.4260  -12.6140   18.1060 C   0  0  0  0  0  2  0  0  0  0  0  0
  -27.9800  -12.3640   18.5710 C   0  0  0  0  0  2  0  0  0  0  0  0
  -27.5680  -13.2980   19.7340 C   0  0  0  0  0  3  0  0  0  0  0  0
  -28.6440  -13.3870   20.8400 C   0  0  0  0  0  2  0  0  0  0  0  0
  -29.8940  -13.8120   20.1920 N   0  0  0  0  0  0  0  0  0  0  0  0
  -31.7700  -15.0210   20.0870 O   0  0  0  0  0  0  0  0  0  0  0  0
  -28.3490  -18.2100   19.6660 C   0  0  0  0  0  2  0  0  0  0  0  0
  -28.5190  -16.6590   19.9180 C   0  0  0  0  0  2  0  0  0  0  0  0
  -30.4650  -17.7520   20.5440 C   0  0  0  0  0  2  0  0  0  0  0  0
  -29.3330  -18.9440   20.5810 C   0  0  0  0  0  3  0  0  0  0  0  0
  -29.8820  -16.3230   20.3800 N   0  0  0  0  0  0  0  0  0  0  0  0
  -25.2000  -13.8710   20.5110 C   0  0  0  0  0  0  0  0  0  0  0  0
  -24.1450  -13.0920   20.8870 C   0  0  0  0  0  0  0  0  0  0  0  0
  -24.6130  -11.7430   20.8420 C   0  0  0  0  0  0  0  0  0  0  0  0
  -26.2440  -12.9960   20.2570 N   0  0  0  0  0  0  0  0  0  0  0  0
  -25.9020  -11.7120   20.5230 N   0  0  0  0  0  0  0  0  0  0  0  0
  -23.8940  -10.4790   21.0250 C   0  0  0  0  0  0  0  0  0  0  0  0
  -24.3200   -9.5160   21.9660 C   0  0  0  0  0  3  0  0  0  0  0  0
  -23.5980   -8.3160   22.1370 C   0  0  0  0  0  3  0  0  0  0  0  0
  -22.4370   -8.0700   21.3670 C   0  0  0  0  0  0  0  0  0  0  0  0
  -22.0310   -9.0210   20.4150 C   0  0  0  0  0  3  0  0  0  0  0  0
  -22.7530  -10.2130   20.2410 C   0  0  0  0  0  3  0  0  0  0  0  0
  -21.6890   -6.9210   21.4470 O   0  0  0  0  0  0  0  0  0  0  0  0
  -21.6050   -6.1990   22.6110 C   0  0  0  0  0  0  0  0  0  0  0  0
  -21.1140   -6.7670   23.8070 C   0  0  0  0  0  3  0  0  0  0  0  0
  -20.9790   -5.9700   24.9610 C   0  0  0  0  0  3  0  0  0  0  0  0
  -21.3240   -4.6060   24.9200 C   0  0  0  0  0  0  0  0  0  0  0  0
  -21.8090   -4.0380   23.7290 C   0  0  0  0  0  3  0  0  0  0  0  0
  -21.9460   -4.8310   22.5760 C   0  0  0  0  0  0  0  0  0  0  0  0
  -22.3930   -4.2740   21.4250 F   0  0  0  0  0  0  0  0  0  0  0  0
  -21.1870   -3.8370   26.0250 F   0  0  0  0  0  0  0  0  0  0  0  0
  -22.7490  -13.5640   21.1700 C   0  0  0  0  0  0  0  0  0  0  0  0
  -22.0300  -12.8600   22.0370 N   0  0  0  0  0  0  0  0  0  0  0  0
  -22.3060  -14.5920   20.6590 O   0  0  0  0  0  0  0  0  0  0  0  0
  -22.4020  -12.0290   22.4710 H   0  0  0  0  0  0  0  0  0  0  0  0
  -21.0930  -13.1590   22.2710 H   0  0  0  0  0  0  0  0  0  0  0  0
  -25.3470  -15.2430   20.3310 N   0  0  0  0  0  0  0  0  0  0  0  0
  -24.5640  -15.8790   20.4380 H   0  0  0  0  0  0  0  0  0  0  0  0
  -26.1700  -15.6850   19.9470 H   0  0  0  0  0  0  0  0  0  0  0  0
  -29.0320  -23.3370   20.2920 C   0  0  0  0  0  3  0  0  0  0  0  0
  -27.9540  -24.6450   20.2310 C   0  0  0  0  0  3  0  0  0  0  0  0
  -28.2370  -26.1870   20.2540 O   0  0  0  0  0  0  0  0  0  0  0  0
  -24.6210  -31.8990   23.2420 C   0  0  0  0  0  0  0  0  0  0  0  0
  -27.1770  -27.1720   20.2040 C   0  0  0  0  0  0  0  0  0  0  0  0
  -23.4110  -30.5070   21.6090 C   0  0  0  0  0  3  0  0  0  0  0  0
  -24.8500  -28.9270   20.1800 C   0  0  0  0  0  0  0  0  0  0  0  0
  -25.9650  -30.7640   21.4330 C   0  0  0  0  0  2  0  0  0  0  0  0
  -26.0340  -29.3710   20.7810 C   0  0  0  0  0  0  0  0  0  0  0  0
  -27.1990  -28.5120   20.7720 C   0  0  0  0  0  3  0  0  0  0  0  0
  -25.9620  -26.8320   19.5670 C   0  0  0  0  0  3  0  0  0  0  0  0
  -24.8280  -27.6710   19.5570 C   0  0  0  0  0  3  0  0  0  0  0  0
  -23.6250  -29.8270   20.2300 C   0  0  0  0  0  2  0  0  0  0  0  0
  -24.6860  -31.0780   22.1500 N   0  0  0  0  0  0  0  0  0  0  0  0
  -23.5370  -32.1860   23.7740 O   0  0  0  0  0  0  0  0  0  0  0  0
  -22.7320  -29.5010   22.5730 C   0  0  0  0  0  0  0  0  0  0  0  0
  -21.4030  -29.3330   22.4480 N   0  0  0  0  0  0  0  0  0  0  0  0
  -23.4030  -28.8750   23.3970 O   0  0  0  0  0  0  0  0  0  0  0  0
  -20.9180  -29.8870   21.7570 H   0  0  0  0  0  0  0  0  0  0  0  0
  -18.0200  -28.1410   22.9630 C   0  0  0  0  0  0  0  0  0  0  0  0
  -20.5800  -28.3980   23.2220 C   0  0  0  0  0  3  0  0  0  0  0  0
  -20.6770  -26.9650   22.6490 C   0  0  0  0  0  2  0  0  0  0  0  0
  -19.5720  -26.6430   21.6390 C   0  0  0  0  0  2  0  0  0  0  0  0
  -18.1940  -26.7900   22.2890 C   0  0  0  0  0  2  0  0  0  0  0  0
  -19.1410  -28.9020   23.3870 C   0  0  0  0  0  0  0  0  0  0  0  0
  -18.9240  -30.1650   23.9800 C   0  0  0  0  0  3  0  0  0  0  0  0
  -17.6210  -30.6650   24.1530 C   0  0  0  0  0  3  0  0  0  0  0  0
  -16.5140  -29.9020   23.7440 C   0  0  0  0  0  3  0  0  0  0  0  0
  -16.7150  -28.6400   23.1550 C   0  0  0  0  0  3  0  0  0  0  0  0
  -25.9020  -32.5320   23.8640 C   0  0  0  0  0  3  0  0  0  0  0  0
  -26.4180  -31.7590   25.1400 C   0  0  1  0  0  0  0  0  0  0  0  0
  -25.3250  -31.5230   26.2100 C   0  0  0  0  0  1  0  0  0  0  0  0
  -26.9990  -30.3810   24.7510 C   0  0  0  0  0  1  0  0  0  0  0  0
  -27.5700  -32.5510   25.8010 C   0  0  0  0  0  1  0  0  0  0  0  0
  -25.5920  -33.9290   24.2040 N   0  0  0  0  0  0  0  0  0  0  0  0
  -25.9030  -34.9880   23.4440 C   0  0  0  0  0  0  0  0  0  0  0  0
  -26.5460  -34.8900   22.3950 O   0  0  0  0  0  0  0  0  0  0  0  0
  -25.0180  -34.0790   25.0200 H   0  0  0  0  0  0  0  0  0  0  0  0
  -24.1540  -36.7750   23.1540 C   0  0  0  0  0  1  0  0  0  0  0  0
  -25.4260  -36.3740   23.9200 C   0  0  0  0  0  3  0  0  0  0  0  0
  -27.5810  -37.2750   24.6780 C   0  0  0  0  0  1  0  0  0  0  0  0
  -26.4480  -37.4340   23.7700 N   0  0  0  0  0  0  0  0  0  0  0  0
  -26.0420  -38.3520   23.9290 H   0  0  0  0  0  0  0  0  0  0  0  0
  2  1  1  0
  2  4  1  0
  3  2  1  0
  5 17  1  0
  6 11  1  0
  7  8  1  0
  7  6  1  0
  9  8  1  0
  9 21  1  0
  9 10  1  0
 11  5  1  0
 11 10  1  0
 12  5  2  0
 13 14  1  0
 13 16  1  0
 14 17  1  0
 15 16  1  0
 16  2  1  0
 17 15  1  0
 18 19  2  0
 19 38  1  0
 20 19  1  0
 20 23  1  0
 21 18  1  0
 21 22  1  0
 22 20  2  0
 23 24  1  0
 24 25  2  0
 26 29  1  0
 26 25  1  0
 27 26  2  0
 28 27  1  0
 28 23  2  0
 29 30  1  0
 30 31  1  0
 31 32  2  0
 33 32  1  0
 33 37  1  0
 34 33  2  0
 35 30  2  0
 35 34  1  0
 36 35  1  0
 38 39  1  0
 39 42  1  0
 39 41  1  0
 40 38  2  0
 43 44  1  0
 43 18  1  0
 45 43  1  0
 46  1  1  0
 47 48  1  0
 47 46  2  0
 49 60  2  0
 50 48  1  0
 50 55  1  0
 51 59  1  0
 51 61  1  0
 52 58  1  0
 52 54  1  0
 53 59  1  0
 54 53  1  0
 55 54  2  0
 56 50  2  0
 57 56  1  0
 57 52  2  0
 58 51  1  0
 59 49  1  0
 61 63  2  0
 62 61  1  0
 64 62  1  0
 65 74  2  0
 65 70  1  0
 66 62  1  0
 66 70  1  0
 67 66  1  0
 68 69  1  0
 68 67  1  0
 69 65  1  0
 70 71  2  0
 71 72  1  0
 73 72  2  0
 74 73  1  0
 75 49  1  0
 75 80  1  0
 75 76  1  0
 76 79  1  1
 76 77  1  0
 78 76  1  0
 80 83  1  0
 81 85  1  0
 81 80  1  0
 82 81  2  0
 85 84  1  0
 87 85  1  0
 87 88  1  0
 87 86  1  0
M  ISO  4   5 100  17 100  47 101  48 101
M  END
>  <TORSDO>  (42) 
F 19

>  <SCORE>  (42) 
-15.412

>  <name>  (42) 
41

>  <ligand_id>  (42) 
41

>  <original_smiles>  (42) 
[H]c1c([H])c([H])c2c(c1[H])C([H])([H])C([H])([H])C([H])([H])C2([H])N([H])C(=O)C1([H])N(C(=O)C([H])(N([H])C(=O)C([H])(N([H])C([H])([H])[H])C([H])([H])[H])C(C([H])([H])[H])(C([H])([H])[H])C([H])([H])[H])C([H])([H])c2c([H])c(OC([H])([H])C([H])([H])C([H])([H])[N+]([H])([H])C3([H])C([H])([H])N(C(=O)N4C([H])([H])C([H])([H])C([H])([H])C([H])(n5nc(-c6c([H])c([H])c(Oc7c([H])c([H])c(F)c([H])c7F)c([H])c6[H])c(C(=O)N([H])[H])c5N([H])[H])C4([H])[H])C([H])([H])C3([H])[H])c([H])c([H])c2C1([H])[H]

>  <smiles>  (42) 
[H]c1c([H])c([H])c2c(c1[H])C([H])([H])C([H])([H])C([H])([H])C2([H])N([H])C(=O)C1([H])N(C(=O)C([H])(N([H])C(=O)C([H])(N([H])C([H])([H])[H])C([H])([H])[H])C(C([H])([H])[H])(C([H])([H])[H])C([H])([H])[H])C([H])([H])c2c([H])c(OC([H])([H])C([H])([H])C([H])([H])[N+]([H])([H])C3([H])C([H])([H])N(C(=O)N4C([H])([H])C([H])([H])C([H])([H])C([H])(n5nc(-c6c([H])c([H])c(Oc7c([H])c([H])c(F)c([H])c7F)c([H])c6[H])c(C(=O)N([H])[H])c5N([H])[H])C4([H])[H])C([H])([H])C3([H])[H])c([H])c([H])c2C1([H])[H]

$$$$
42:0:0
     RDKit          3D

 90 98  0  0  1  0  0  0  0  0999 V2000
  -28.0680  -21.7280   17.9340 C   0  0  0  0  0  3  0  0  0  0  0  0
  -28.6050  -20.5590   18.5410 C   0  0  0  0  0  3  0  0  0  0  0  0
  -28.0570  -22.9990   18.5630 C   0  0  0  0  0  3  0  0  0  0  0  0
  -29.1210  -21.9440   20.4610 C   0  0  0  0  0  3  0  0  0  0  0  0
  -29.1940  -20.5910   19.8290 C   0  0  0  0  0  0  0  0  0  0  0  0
  -28.5480  -23.1900   19.8740 C   0  0  0  0  0  0  0  0  0  0  0  0
  -29.8390  -19.2360   20.4700 C   0  0  0  0  0  0  0  0  0  0  0  0
  -30.3560  -19.3580   21.5800 O   0  0  0  0  0  0  0  0  0  0  0  0
  -29.9650  -17.7100   19.8120 C   0  0  0  0  0  2  0  0  0  0  0  0
  -30.1220  -16.1960   20.5920 C   0  0  0  0  0  3  0  0  0  0  0  0
  -30.7910  -14.8620   19.8770 C   0  0  0  0  0  0  0  0  0  0  0  0
  -30.4870  -12.6120   18.7340 C   0  0  0  0  0  2  0  0  0  0  0  0
  -29.4460  -12.7310   17.5960 C   0  0  0  0  0  2  0  0  0  0  0  0
  -28.0150  -12.5870   18.1440 C   0  0  0  0  0  2  0  0  0  0  0  0
  -27.7790  -13.4310   19.4230 C   0  0  0  0  0  3  0  0  0  0  0  0
  -28.9110  -13.2410   20.4520 C   0  0  0  0  0  2  0  0  0  0  0  0
  -30.1590  -13.6240   19.7810 N   0  0  0  0  0  0  0  0  0  0  0  0
  -31.9060  -14.9650   19.3480 O   0  0  0  0  0  0  0  0  0  0  0  0
  -25.4890  -14.1120   20.3550 C   0  0  0  0  0  0  0  0  0  0  0  0
  -24.4140  -13.3790   20.7730 C   0  0  0  0  0  0  0  0  0  0  0  0
  -24.7990  -12.0060   20.6570 C   0  0  0  0  0  0  0  0  0  0  0  0
  -26.4640  -13.1900   20.0020 N   0  0  0  0  0  0  0  0  0  0  0  0
  -26.0600  -11.9180   20.2430 N   0  0  0  0  0  0  0  0  0  0  0  0
  -24.0260  -10.7790   20.8620 C   0  0  0  0  0  0  0  0  0  0  0  0
  -24.4840   -9.7480   21.7110 C   0  0  0  0  0  3  0  0  0  0  0  0
  -23.7130   -8.5830   21.9030 C   0  0  0  0  0  3  0  0  0  0  0  0
  -22.4720   -8.4340   21.2380 C   0  0  0  0  0  0  0  0  0  0  0  0
  -22.0310   -9.4520   20.3730 C   0  0  0  0  0  3  0  0  0  0  0  0
  -22.8020  -10.6100   20.1820 C   0  0  0  0  0  3  0  0  0  0  0  0
  -21.6660   -7.3270   21.3410 O   0  0  0  0  0  0  0  0  0  0  0  0
  -21.6700   -6.5340   22.4620 C   0  0  0  0  0  0  0  0  0  0  0  0
  -21.4070   -7.0590   23.7450 C   0  0  0  0  0  3  0  0  0  0  0  0
  -21.3560   -6.1950   24.8600 C   0  0  0  0  0  3  0  0  0  0  0  0
  -21.5620   -4.8130   24.6940 C   0  0  0  0  0  0  0  0  0  0  0  0
  -21.8200   -4.2920   23.4140 C   0  0  0  0  0  3  0  0  0  0  0  0
  -21.8770   -5.1510   22.3030 C   0  0  0  0  0  0  0  0  0  0  0  0
  -22.1040   -4.6360   21.0700 F   0  0  0  0  0  0  0  0  0  0  0  0
  -21.5060   -3.9840   25.7640 F   0  0  0  0  0  0  0  0  0  0  0  0
  -23.0670  -13.9110   21.1670 C   0  0  0  0  0  0  0  0  0  0  0  0
  -22.3850  -13.2310   22.0810 N   0  0  0  0  0  0  0  0  0  0  0  0
  -22.6360  -14.9680   20.7060 O   0  0  0  0  0  0  0  0  0  0  0  0
  -22.7520  -12.3780   22.4730 H   0  0  0  0  0  0  0  0  0  0  0  0
  -21.4880  -13.5730   22.3900 H   0  0  0  0  0  0  0  0  0  0  0  0
  -25.7230  -15.4790   20.2270 N   0  0  0  0  0  0  0  0  0  0  0  0
  -25.0270  -16.1780   20.4650 H   0  0  0  0  0  0  0  0  0  0  0  0
  -26.5920  -15.8810   19.8980 H   0  0  0  0  0  0  0  0  0  0  0  0
  -31.3140  -15.0880   22.7760 C   0  0  0  0  0  1  0  0  0  0  0  0
  -30.5560  -16.2720   22.1060 C   0  0  0  0  0  2  0  0  0  0  0  0
  -28.2270  -24.6270   20.6470 C   0  0  0  0  0  2  0  0  0  0  0  0
  -28.4310  -26.0960   20.1610 O   0  0  0  0  0  0  0  0  0  0  0  0
  -24.5570  -31.6860   23.1380 C   0  0  0  0  0  0  0  0  0  0  0  0
  -27.3580  -27.0560   20.1580 C   0  0  0  0  0  0  0  0  0  0  0  0
  -23.4490  -30.2680   21.4540 C   0  0  0  0  0  3  0  0  0  0  0  0
  -24.9840  -28.7370   20.0750 C   0  0  0  0  0  0  0  0  0  0  0  0
  -26.0030  -30.6030   21.3730 C   0  0  0  0  0  2  0  0  0  0  0  0
  -26.1390  -29.2160   20.7150 C   0  0  0  0  0  0  0  0  0  0  0  0
  -27.3280  -28.3920   20.7360 C   0  0  0  0  0  3  0  0  0  0  0  0
  -26.1750  -26.6770   19.4920 C   0  0  0  0  0  3  0  0  0  0  0  0
  -25.0150  -27.4790   19.4520 C   0  0  0  0  0  3  0  0  0  0  0  0
  -23.7300  -29.5980   20.0850 C   0  0  0  0  0  2  0  0  0  0  0  0
  -24.6860  -30.8740   22.0450 N   0  0  0  0  0  0  0  0  0  0  0  0
  -23.4470  -31.9380   23.6320 O   0  0  0  0  0  0  0  0  0  0  0  0
  -22.7720  -29.2370   22.3910 C   0  0  0  0  0  0  0  0  0  0  0  0
  -21.4490  -29.0500   22.2410 N   0  0  0  0  0  0  0  0  0  0  0  0
  -23.4390  -28.6000   23.2120 O   0  0  0  0  0  0  0  0  0  0  0  0
  -20.9700  -29.5980   21.5420 H   0  0  0  0  0  0  0  0  0  0  0  0
  -18.0780  -27.8050   22.6940 C   0  0  0  0  0  0  0  0  0  0  0  0
  -20.6310  -28.0910   22.9880 C   0  0  0  0  0  3  0  0  0  0  0  0
  -20.7560  -26.6730   22.3830 C   0  0  0  0  0  2  0  0  0  0  0  0
  -19.6610  -26.3590   21.3540 C   0  0  0  0  0  2  0  0  0  0  0  0
  -18.2740  -26.4770   21.9900 C   0  0  0  0  0  2  0  0  0  0  0  0
  -19.1850  -28.5710   23.1510 C   0  0  0  0  0  0  0  0  0  0  0  0
  -18.9510  -29.8160   23.7720 C   0  0  0  0  0  3  0  0  0  0  0  0
  -17.6390  -30.2970   23.9470 C   0  0  0  0  0  3  0  0  0  0  0  0
  -16.5450  -29.5260   23.5090 C   0  0  0  0  0  3  0  0  0  0  0  0
  -16.7670  -28.2850   22.8860 C   0  0  0  0  0  3  0  0  0  0  0  0
  -25.7940  -32.3550   23.8090 C   0  0  0  0  0  3  0  0  0  0  0  0
  -25.4330  -33.7420   24.1470 N   0  0  0  0  0  0  0  0  0  0  0  0
  -25.7360  -34.8150   23.4050 C   0  0  0  0  0  0  0  0  0  0  0  0
  -26.4260  -34.7460   22.3840 O   0  0  0  0  0  0  0  0  0  0  0  0
  -24.8260  -33.8680   24.9460 H   0  0  0  0  0  0  0  0  0  0  0  0
  -23.9520  -36.5500   23.0440 C   0  0  0  0  0  1  0  0  0  0  0  0
  -25.1970  -36.1850   23.8670 C   0  0  0  0  0  3  0  0  0  0  0  0
  -27.2930  -37.1360   24.7240 C   0  0  0  0  0  1  0  0  0  0  0  0
  -26.1940  -37.2730   23.7700 N   0  0  0  0  0  0  0  0  0  0  0  0
  -25.7570  -38.1790   23.9210 H   0  0  0  0  0  0  0  0  0  0  0  0
  -26.2910  -31.5920   25.0990 C   0  0  1  0  0  0  0  0  0  0  0  0
  -25.1720  -31.3270   26.1330 C   0  0  0  0  0  1  0  0  0  0  0  0
  -26.9210  -30.2260   24.7340 C   0  0  0  0  0  1  0  0  0  0  0  0
  -27.4040  -32.4120   25.7940 C   0  0  0  0  0  1  0  0  0  0  0  0
  1  2  2  0
  1  3  1  0
  2  5  1  0
  3  6  2  0
  5  4  2  0
  5  7  1  0
  6  4  1  0
  6 49  1  0
  7  8  2  0
  9  7  1  0
 10  9  1  0
 10 48  1  0
 11 10  1  0
 12 17  1  0
 13 14  1  0
 13 12  1  0
 15 14  1  0
 15 22  1  0
 15 16  1  0
 17 11  1  0
 17 16  1  0
 18 11  2  0
 19 20  2  0
 20 39  1  0
 21 20  1  0
 21 24  1  0
 22 23  1  0
 22 19  1  0
 23 21  2  0
 24 25  1  0
 25 26  2  0
 27 30  1  0
 27 26  1  0
 28 27  2  0
 29 28  1  0
 29 24  2  0
 30 31  1  0
 31 32  1  0
 32 33  2  0
 34 33  1  0
 34 38  1  0
 35 34  2  0
 36 31  2  0
 36 35  1  0
 37 36  1  0
 39 40  1  0
 40 43  1  0
 40 42  1  0
 41 39  2  0
 44 19  1  0
 44 45  1  0
 46 44  1  0
 48 47  1  0
 50 49  1  0
 51 62  2  0
 52 50  1  0
 52 57  1  0
 53 61  1  0
 53 63  1  0
 54 60  1  0
 54 56  1  0
 55 61  1  0
 56 57  2  0
 56 55  1  0
 58 52  2  0
 59 58  1  0
 59 54  2  0
 60 53  1  0
 61 51  1  0
 63 65  2  0
 64 63  1  0
 66 64  1  0
 67 76  2  0
 67 72  1  0
 68 64  1  0
 68 72  1  0
 69 68  1  0
 70 71  1  0
 70 69  1  0
 71 67  1  0
 72 73  2  0
 73 74  1  0
 75 74  2  0
 76 75  1  0
 77 51  1  0
 77 78  1  0
 77 87  1  0
 78 81  1  0
 79 83  1  0
 79 78  1  0
 80 79  2  0
 83 82  1  0
 85 83  1  0
 85 86  1  0
 85 84  1  0
 87 90  1  1
 87 88  1  0
 89 87  1  0
M  ISO  4  10 100  11 100  49 101  50 101
M  END
>  <TORSDO>  (43) 
F 21

>  <SCORE>  (43) 
-11.947

>  <name>  (43) 
42

>  <ligand_id>  (43) 
42

>  <original_smiles>  (43) 
[H]c1c([H])c(C(=O)C([H])([H])C([H])(C(=O)N2C([H])([H])C([H])([H])C([H])([H])C([H])(n3nc(-c4c([H])c([H])c(Oc5c([H])c([H])c(F)c([H])c5F)c([H])c4[H])c(C(=O)N([H])[H])c3N([H])[H])C2([H])[H])C([H])([H])C([H])([H])[H])c([H])c(C([H])([H])Oc2c([H])c([H])c3c(c2[H])C([H])([H])N(C(=O)C([H])(N([H])C(=O)C([H])(N([H])C([H])([H])[H])C([H])([H])[H])C(C([H])([H])[H])(C([H])([H])[H])C([H])([H])[H])C([H])(C(=O)N([H])C2([H])c4c([H])c([H])c([H])c([H])c4C([H])([H])C([H])([H])C2([H])[H])C3([H])[H])c1[H]

>  <smiles>  (43) 
[H]c1c([H])c(C(=O)C([H])([H])C([H])(C(=O)N2C([H])([H])C([H])([H])C([H])([H])C([H])(n3nc(-c4c([H])c([H])c(Oc5c([H])c([H])c(F)c([H])c5F)c([H])c4[H])c(C(=O)N([H])[H])c3N([H])[H])C2([H])[H])C([H])([H])C([H])([H])[H])c([H])c(C([H])([H])Oc2c([H])c([H])c3c(c2[H])C([H])([H])N(C(=O)C([H])(N([H])C(=O)C([H])(N([H])C([H])([H])[H])C([H])([H])[H])C(C([H])([H])[H])(C([H])([H])[H])C([H])([H])[H])C([H])(C(=O)N([H])C2([H])c4c([H])c([H])c([H])c([H])c4C([H])([H])C([H])([H])C2([H])[H])C3([H])[H])c1[H]

$$$$
43:0:0
     RDKit          3D

 92100  0  0  1  0  0  0  0  0999 V2000
  -31.6870  -20.3880   19.7970 C   0  0  0  0  0  2  0  0  0  0  0  0
  -31.4630  -21.8560   19.4170 C   0  0  0  0  0  2  0  0  0  0  0  0
  -30.3100  -20.3880   20.4830 C   0  0  0  0  0  3  0  0  0  0  0  0
  -30.4990  -21.9490   20.6080 C   0  0  0  0  0  3  0  0  0  0  0  0
  -29.3200  -22.8390   20.3610 N   0  0  0  0  0  4  0  0  0  0  0  0
  -28.6020  -22.5880   21.0240 H   0  0  0  0  0  0  0  0  0  0  0  0
  -28.9490  -22.6490   19.4430 H   0  0  0  0  0  0  0  0  0  0  0  0
  -29.5810  -24.3150   20.4930 C   0  0  0  0  0  2  0  0  0  0  0  0
  -28.3450  -25.1950   20.1380 C   0  0  0  0  0  2  0  0  0  0  0  0
  -28.4850  -26.6280   20.3530 O   0  0  0  0  0  0  0  0  0  0  0  0
  -24.5980  -31.8840   23.2740 C   0  0  0  0  0  0  0  0  0  0  0  0
  -27.3240  -27.3930   20.2840 C   0  0  0  0  0  0  0  0  0  0  0  0
  -23.4350  -30.4620   21.6220 C   0  0  0  0  0  3  0  0  0  0  0  0
  -24.9260  -28.9250   20.2360 C   0  0  0  0  0  0  0  0  0  0  0  0
  -25.9670  -30.8240   21.4750 C   0  0  0  0  0  2  0  0  0  0  0  0
  -26.0750  -29.4470   20.8430 C   0  0  0  0  0  0  0  0  0  0  0  0
  -27.2760  -28.6910   20.8600 C   0  0  0  0  0  3  0  0  0  0  0  0
  -26.1500  -26.9070   19.6590 C   0  0  0  0  0  3  0  0  0  0  0  0
  -24.9620  -27.6570   19.6380 C   0  0  0  0  0  3  0  0  0  0  0  0
  -23.6770  -29.7790   20.2520 C   0  0  0  0  0  2  0  0  0  0  0  0
  -24.6840  -31.0720   22.1810 N   0  0  0  0  0  0  0  0  0  0  0  0
  -23.5040  -32.1530   23.7890 O   0  0  0  0  0  0  0  0  0  0  0  0
  -22.7710  -29.4420   22.5770 C   0  0  0  0  0  0  0  0  0  0  0  0
  -21.4560  -29.2240   22.4030 N   0  0  0  0  0  0  0  0  0  0  0  0
  -23.4370  -28.8510   23.4300 O   0  0  0  0  0  0  0  0  0  0  0  0
  -20.9800  -29.7550   21.6880 H   0  0  0  0  0  0  0  0  0  0  0  0
  -18.1010  -27.9330   22.7810 C   0  0  0  0  0  0  0  0  0  0  0  0
  -20.6340  -28.2810   23.1620 C   0  0  0  0  0  3  0  0  0  0  0  0
  -20.8080  -26.8390   22.6330 C   0  0  0  0  0  2  0  0  0  0  0  0
  -19.7650  -26.4530   21.5790 C   0  0  0  0  0  2  0  0  0  0  0  0
  -18.3510  -26.5720   22.1540 C   0  0  0  0  0  2  0  0  0  0  0  0
  -19.1740  -28.7420   23.2400 C   0  0  0  0  0  0  0  0  0  0  0  0
  -18.8890  -30.0140   23.7820 C   0  0  0  0  0  3  0  0  0  0  0  0
  -17.5630  -30.4780   23.8720 C   0  0  0  0  0  3  0  0  0  0  0  0
  -16.5030  -29.6660   23.4310 C   0  0  0  0  0  3  0  0  0  0  0  0
  -16.7730  -28.3970   22.8910 C   0  0  0  0  0  3  0  0  0  0  0  0
  -25.8650  -32.5310   23.9120 C   0  0  0  0  0  3  0  0  0  0  0  0
  -25.5490  -33.9360   24.1980 N   0  0  0  0  0  0  0  0  0  0  0  0
  -25.8940  -34.9690   23.4170 C   0  0  0  0  0  0  0  0  0  0  0  0
  -26.5840  -34.8390   22.4020 O   0  0  0  0  0  0  0  0  0  0  0  0
  -24.9400  -34.1110   24.9840 H   0  0  0  0  0  0  0  0  0  0  0  0
  -24.1700  -36.7490   22.9790 C   0  0  0  0  0  1  0  0  0  0  0  0
  -25.3940  -36.3680   23.8270 C   0  0  0  0  0  3  0  0  0  0  0  0
  -27.5040  -37.2850   24.6860 C   0  0  0  0  0  1  0  0  0  0  0  0
  -26.4280  -37.4190   23.7080 N   0  0  0  0  0  0  0  0  0  0  0  0
  -26.0160  -38.3430   23.8160 H   0  0  0  0  0  0  0  0  0  0  0  0
  -26.3500  -31.7910   25.2180 C   0  0  1  0  0  0  0  0  0  0  0  0
  -25.2300  -31.5740   26.2610 C   0  0  0  0  0  1  0  0  0  0  0  0
  -26.9490  -30.4080   24.8720 C   0  0  0  0  0  1  0  0  0  0  0  0
  -27.4810  -32.6050   25.8920 C   0  0  0  0  0  1  0  0  0  0  0  0
  -30.6410  -20.0540   23.0070 C   0  0  0  0  0  1  0  0  0  0  0  0
  -30.0810  -19.4480   21.7060 C   0  0  0  0  0  3  0  0  0  0  0  0
  -30.6000  -17.9680   21.5820 C   0  0  0  0  0  2  0  0  0  0  0  0
  -30.1050  -17.0980   20.3940 C   0  0  0  0  0  2  0  0  0  0  0  0
  -30.7870  -14.6400   20.2390 C   0  0  0  0  0  0  0  0  0  0  0  0
  -30.4760  -12.5130   19.0270 C   0  0  0  0  0  2  0  0  0  0  0  0
  -29.4980  -12.7850   17.8630 C   0  0  0  0  0  2  0  0  0  0  0  0
  -28.0330  -12.6420   18.3260 C   0  0  0  0  0  2  0  0  0  0  0  0
  -27.7440  -13.4140   19.6410 C   0  0  0  0  0  3  0  0  0  0  0  0
  -28.8310  -13.1190   20.7040 C   0  0  0  0  0  2  0  0  0  0  0  0
  -30.1410  -13.4470   20.1140 N   0  0  0  0  0  0  0  0  0  0  0  0
  -31.9090  -14.8470   19.7690 O   0  0  0  0  0  0  0  0  0  0  0  0
  -30.0170  -15.6490   20.7040 N   0  0  0  0  0  0  0  0  0  0  0  0
  -29.1350  -15.3460   21.0900 H   0  0  0  0  0  0  0  0  0  0  0  0
  -25.3570  -14.0160   20.3930 C   0  0  0  0  0  0  0  0  0  0  0  0
  -24.2980  -13.2410   20.7830 C   0  0  0  0  0  0  0  0  0  0  0  0
  -24.7640  -11.8910   20.7470 C   0  0  0  0  0  0  0  0  0  0  0  0
  -26.4010  -13.1370   20.1450 N   0  0  0  0  0  0  0  0  0  0  0  0
  -26.0480  -11.8550   20.4140 N   0  0  0  0  0  0  0  0  0  0  0  0
  -24.0450  -10.6270   20.9520 C   0  0  0  0  0  0  0  0  0  0  0  0
  -24.4820   -9.6760   21.9000 C   0  0  0  0  0  3  0  0  0  0  0  0
  -23.7650   -8.4750   22.0930 C   0  0  0  0  0  3  0  0  0  0  0  0
  -22.5960   -8.2180   21.3360 C   0  0  0  0  0  0  0  0  0  0  0  0
  -22.1800   -9.1580   20.3780 C   0  0  0  0  0  3  0  0  0  0  0  0
  -22.8970  -10.3490   20.1840 C   0  0  0  0  0  3  0  0  0  0  0  0
  -21.8500   -7.0680   21.4370 O   0  0  0  0  0  0  0  0  0  0  0  0
  -21.7860   -6.3520   22.6050 C   0  0  0  0  0  0  0  0  0  0  0  0
  -21.2980   -6.9200   23.8020 C   0  0  0  0  0  3  0  0  0  0  0  0
  -21.1840   -6.1290   24.9620 C   0  0  0  0  0  3  0  0  0  0  0  0
  -21.5480   -4.7690   24.9260 C   0  0  0  0  0  0  0  0  0  0  0  0
  -22.0300   -4.2000   23.7340 C   0  0  0  0  0  3  0  0  0  0  0  0
  -22.1450   -4.9900   22.5770 C   0  0  0  0  0  0  0  0  0  0  0  0
  -22.5900   -4.4310   21.4240 F   0  0  0  0  0  0  0  0  0  0  0  0
  -21.4320   -4.0060   26.0380 F   0  0  0  0  0  0  0  0  0  0  0  0
  -22.9040  -13.7140   21.0810 C   0  0  0  0  0  0  0  0  0  0  0  0
  -22.1930  -13.0150   21.9580 N   0  0  0  0  0  0  0  0  0  0  0  0
  -22.4530  -14.7380   20.5700 O   0  0  0  0  0  0  0  0  0  0  0  0
  -22.5680  -12.1850   22.3940 H   0  0  0  0  0  0  0  0  0  0  0  0
  -21.2590  -13.3130   22.1990 H   0  0  0  0  0  0  0  0  0  0  0  0
  -25.5140  -15.3870   20.2090 N   0  0  0  0  0  0  0  0  0  0  0  0
  -24.7470  -16.0380   20.3310 H   0  0  0  0  0  0  0  0  0  0  0  0
  -26.3520  -15.8280   19.8520 H   0  0  0  0  0  0  0  0  0  0  0  0
  1  3  1  0
  2  1  1  0
  2  4  1  0
  3  4  1  0
  3 52  1  0
  4  5  1  0
  5  8  1  0
  5  6  1  0
  7  5  1  0
  9 10  1  0
  9  8  1  0
 11 22  2  0
 12 10  1  0
 12 17  1  0
 13 21  1  0
 13 23  1  0
 14 20  1  0
 14 16  1  0
 15 21  1  0
 16 17  2  0
 16 15  1  0
 18 12  2  0
 19 18  1  0
 19 14  2  0
 20 13  1  0
 21 11  1  0
 23 25  2  0
 24 23  1  0
 26 24  1  0
 27 36  2  0
 27 32  1  0
 28 24  1  0
 28 32  1  0
 29 28  1  0
 30 31  1  0
 30 29  1  0
 31 27  1  0
 32 33  2  0
 33 34  1  0
 35 34  2  0
 36 35  1  0
 37 11  1  0
 37 38  1  0
 37 47  1  0
 38 41  1  0
 39 43  1  0
 39 38  1  0
 40 39  2  0
 43 42  1  0
 45 46  1  0
 45 43  1  0
 45 44  1  0
 47 50  1  1
 47 48  1  0
 49 47  1  0
 52 51  1  0
 53 52  1  0
 54 63  1  0
 54 53  1  0
 55 63  1  0
 56 61  1  0
 57 58  1  0
 57 56  1  0
 59 58  1  0
 59 68  1  0
 59 60  1  0
 61 55  1  0
 61 60  1  0
 62 55  2  0
 63 64  1  0
 65 66  2  0
 66 85  1  0
 67 66  1  0
 67 70  1  0
 68 65  1  0
 68 69  1  0
 69 67  2  0
 70 71  1  0
 71 72  2  0
 73 76  1  0
 73 72  1  0
 74 73  2  0
 75 74  1  0
 75 70  2  0
 76 77  1  0
 77 78  1  0
 78 79  2  0
 80 79  1  0
 80 84  1  0
 81 80  2  0
 82 77  2  0
 82 81  1  0
 83 82  1  0
 85 86  1  0
 86 89  1  0
 86 88  1  0
 87 85  2  0
 90 91  1  0
 90 65  1  0
 92 90  1  0
M  ISO  4   9 101  10 101  55 100  63 100
M  END
>  <TORSDO>  (44) 
F 22

>  <SCORE>  (44) 
-12.593

>  <name>  (44) 
43

>  <ligand_id>  (44) 
43

>  <original_smiles>  (44) 
[H]c1c([H])c([H])c2c(c1[H])C([H])([H])C([H])([H])C([H])([H])C2([H])N([H])C(=O)C1([H])N(C(=O)C([H])(N([H])C(=O)C([H])(N([H])C([H])([H])[H])C([H])([H])[H])C(C([H])([H])[H])(C([H])([H])[H])C([H])([H])[H])C([H])([H])c2c([H])c(OC([H])([H])C([H])([H])[N+]([H])([H])C3([H])C([H])([H])C([H])([H])C3([H])C([H])(C([H])([H])[H])C([H])([H])C([H])([H])N([H])C(=O)N3C([H])([H])C([H])([H])C([H])([H])C([H])(n4nc(-c5c([H])c([H])c(Oc6c([H])c([H])c(F)c([H])c6F)c([H])c5[H])c(C(=O)N([H])[H])c4N([H])[H])C3([H])[H])c([H])c([H])c2C1([H])[H]

>  <smiles>  (44) 
[H]c1c([H])c([H])c2c(c1[H])C([H])([H])C([H])([H])C([H])([H])C2([H])N([H])C(=O)C1([H])N(C(=O)C([H])(N([H])C(=O)C([H])(N([H])C([H])([H])[H])C([H])([H])[H])C(C([H])([H])[H])(C([H])([H])[H])C([H])([H])[H])C([H])([H])c2c([H])c(OC([H])([H])C([H])([H])[N+]([H])([H])C3([H])C([H])([H])C([H])([H])C3([H])C([H])(C([H])([H])[H])C([H])([H])C([H])([H])N([H])C(=O)N3C([H])([H])C([H])([H])C([H])([H])C([H])(n4nc(-c5c([H])c([H])c(Oc6c([H])c([H])c(F)c([H])c6F)c([H])c5[H])c(C(=O)N([H])[H])c4N([H])[H])C3([H])[H])c([H])c([H])c2C1([H])[H]

$$$$
44:0:0
     RDKit          3D

 94102  0  0  1  0  0  0  0  0999 V2000
  -30.8580  -20.7560   19.6880 C   0  0  0  0  0  2  0  0  0  0  0  0
  -29.3310  -21.8110   18.1430 C   0  0  0  0  0  2  0  0  0  0  0  0
  -29.4370  -20.5110   20.2090 C   0  0  0  0  0  3  0  0  0  0  0  0
  -28.6780  -21.8480   19.5380 C   0  0  0  0  0  3  0  0  0  0  0  0
  -30.7070  -21.2900   18.3180 N   0  0  0  0  0  4  0  0  0  0  0  0
  -30.8650  -20.5700   17.6310 H   0  0  0  0  0  0  0  0  0  0  0  0
  -31.3950  -22.0110   18.1650 H   0  0  0  0  0  0  0  0  0  0  0  0
  -29.0840  -18.9250   19.8900 C   0  0  0  0  0  0  0  0  0  0  0  0
  -28.0840  -18.7040   19.2000 O   0  0  0  0  0  0  0  0  0  0  0  0
  -29.9710  -17.6200   20.4640 C   0  0  0  0  0  3  0  0  0  0  0  0
  -30.3360  -14.9760   19.8370 C   0  0  0  0  0  0  0  0  0  0  0  0
  -30.1230  -12.6820   18.7930 C   0  0  0  0  0  2  0  0  0  0  0  0
  -29.0820  -12.6910   17.6510 C   0  0  0  0  0  2  0  0  0  0  0  0
  -27.6600  -12.4760   18.2060 C   0  0  0  0  0  2  0  0  0  0  0  0
  -27.3610  -13.3670   19.4410 C   0  0  0  0  0  3  0  0  0  0  0  0
  -28.5070  -13.3140   20.4690 C   0  0  0  0  0  2  0  0  0  0  0  0
  -29.7270  -13.7320   19.7710 N   0  0  0  0  0  0  0  0  0  0  0  0
  -31.5080  -15.0670   19.4560 O   0  0  0  0  0  0  0  0  0  0  0  0
  -29.5810  -16.1260   20.1680 N   0  0  0  0  0  0  0  0  0  0  0  0
  -28.6050  -15.9300   20.3240 H   0  0  0  0  0  0  0  0  0  0  0  0
  -25.0590  -13.9330   20.4060 C   0  0  0  0  0  0  0  0  0  0  0  0
  -24.0280  -13.1500   20.8490 C   0  0  0  0  0  0  0  0  0  0  0  0
  -24.4810  -11.8000   20.7320 C   0  0  0  0  0  0  0  0  0  0  0  0
  -26.0710  -13.0610   20.0440 N   0  0  0  0  0  0  0  0  0  0  0  0
  -25.7380  -11.7700   20.3040 N   0  0  0  0  0  0  0  0  0  0  0  0
  -23.7650  -10.5350   20.9460 C   0  0  0  0  0  0  0  0  0  0  0  0
  -24.2560   -9.5500   21.8330 C   0  0  0  0  0  3  0  0  0  0  0  0
  -23.5440   -8.3490   22.0350 C   0  0  0  0  0  3  0  0  0  0  0  0
  -22.3240   -8.1240   21.3530 C   0  0  0  0  0  0  0  0  0  0  0  0
  -21.8520   -9.0940   20.4520 C   0  0  0  0  0  3  0  0  0  0  0  0
  -22.5660  -10.2870   20.2470 C   0  0  0  0  0  3  0  0  0  0  0  0
  -21.5730   -6.9780   21.4720 O   0  0  0  0  0  0  0  0  0  0  0  0
  -21.5860   -6.2250   22.6180 C   0  0  0  0  0  0  0  0  0  0  0  0
  -21.2170   -6.7650   23.8700 C   0  0  0  0  0  3  0  0  0  0  0  0
  -21.1840   -5.9370   25.0100 C   0  0  0  0  0  3  0  0  0  0  0  0
  -21.4980   -4.5690   24.8960 C   0  0  0  0  0  0  0  0  0  0  0  0
  -21.8550   -4.0280   23.6490 C   0  0  0  0  0  3  0  0  0  0  0  0
  -21.8950   -4.8550   22.5120 C   0  0  0  0  0  0  0  0  0  0  0  0
  -22.2230   -4.3250   21.3080 F   0  0  0  0  0  0  0  0  0  0  0  0
  -21.4540   -3.7700   25.9890 F   0  0  0  0  0  0  0  0  0  0  0  0
  -22.6630  -13.6220   21.2540 C   0  0  0  0  0  0  0  0  0  0  0  0
  -22.0070  -12.8960   22.1560 N   0  0  0  0  0  0  0  0  0  0  0  0
  -22.1890  -14.6660   20.8100 O   0  0  0  0  0  0  0  0  0  0  0  0
  -22.4050  -12.0490   22.5360 H   0  0  0  0  0  0  0  0  0  0  0  0
  -21.0930  -13.1870   22.4700 H   0  0  0  0  0  0  0  0  0  0  0  0
  -25.2120  -15.3080   20.2590 N   0  0  0  0  0  0  0  0  0  0  0  0
  -24.4470  -15.9490   20.4420 H   0  0  0  0  0  0  0  0  0  0  0  0
  -26.0070  -15.7600   19.8300 H   0  0  0  0  0  0  0  0  0  0  0  0
  -30.1520  -17.8070   21.9980 C   0  0  0  0  0  2  0  0  0  0  0  0
  -31.3030  -17.1830   24.1910 C   0  0  0  0  0  1  0  0  0  0  0  0
  -31.1510  -16.8670   22.6980 C   0  0  0  0  0  2  0  0  0  0  0  0
  -28.8000  -23.4300   20.1200 C   0  0  0  0  0  3  0  0  0  0  0  0
  -27.8780  -24.7480   19.6340 C   0  0  0  0  0  3  0  0  0  0  0  0
  -28.1220  -26.2490   19.9470 O   0  0  0  0  0  0  0  0  0  0  0  0
  -24.5200  -31.8490   23.0650 C   0  0  0  0  0  0  0  0  0  0  0  0
  -27.0630  -27.2210   19.9020 C   0  0  0  0  0  0  0  0  0  0  0  0
  -23.2960  -30.4770   21.4240 C   0  0  0  0  0  3  0  0  0  0  0  0
  -24.7240  -28.9450   19.9410 C   0  0  0  0  0  0  0  0  0  0  0  0
  -25.8440  -30.7670   21.2150 C   0  0  0  0  0  2  0  0  0  0  0  0
  -25.9090  -29.3880   20.5380 C   0  0  0  0  0  0  0  0  0  0  0  0
  -27.0770  -28.5390   20.5110 C   0  0  0  0  0  3  0  0  0  0  0  0
  -25.8490  -26.8810   19.2610 C   0  0  0  0  0  3  0  0  0  0  0  0
  -24.7060  -27.7040   19.2880 C   0  0  0  0  0  3  0  0  0  0  0  0
  -23.4890  -29.8280   20.0280 C   0  0  0  0  0  2  0  0  0  0  0  0
  -24.5720  -31.0560   21.9510 N   0  0  0  0  0  0  0  0  0  0  0  0
  -23.4430  -32.1100   23.6220 O   0  0  0  0  0  0  0  0  0  0  0  0
  -22.6500  -29.4430   22.3800 C   0  0  0  0  0  0  0  0  0  0  0  0
  -21.3190  -29.2710   22.2890 N   0  0  0  0  0  0  0  0  0  0  0  0
  -23.3480  -28.7990   23.1670 O   0  0  0  0  0  0  0  0  0  0  0  0
  -20.8100  -29.8390   21.6250 H   0  0  0  0  0  0  0  0  0  0  0  0
  -17.9530  -28.0710   22.8730 C   0  0  0  0  0  0  0  0  0  0  0  0
  -20.5220  -28.3150   23.0630 C   0  0  0  0  0  3  0  0  0  0  0  0
  -20.5980  -26.9000   22.4460 C   0  0  0  0  0  2  0  0  0  0  0  0
  -19.4650  -26.6080   21.4610 C   0  0  0  0  0  2  0  0  0  0  0  0
  -18.1020  -26.7430   22.1490 C   0  0  0  0  0  2  0  0  0  0  0  0
  -19.0890  -28.8160   23.2880 C   0  0  0  0  0  0  0  0  0  0  0  0
  -18.8950  -30.0640   23.9210 C   0  0  0  0  0  3  0  0  0  0  0  0
  -17.5990  -30.5620   24.1480 C   0  0  0  0  0  3  0  0  0  0  0  0
  -16.4770  -29.8110   23.7510 C   0  0  0  0  0  3  0  0  0  0  0  0
  -16.6550  -28.5690   23.1180 C   0  0  0  0  0  3  0  0  0  0  0  0
  -25.8060  -32.4840   23.6770 C   0  0  0  0  0  3  0  0  0  0  0  0
  -25.4850  -33.8670   24.0610 N   0  0  0  0  0  0  0  0  0  0  0  0
  -25.7850  -34.9530   23.3350 C   0  0  0  0  0  0  0  0  0  0  0  0
  -26.4360  -34.8980   22.2890 O   0  0  0  0  0  0  0  0  0  0  0  0
  -24.9100  -33.9880   24.8820 H   0  0  0  0  0  0  0  0  0  0  0  0
  -24.0280  -36.7350   23.0930 C   0  0  0  0  0  1  0  0  0  0  0  0
  -25.2900  -36.3140   23.8600 C   0  0  0  0  0  3  0  0  0  0  0  0
  -27.4300  -37.1990   24.6800 C   0  0  0  0  0  1  0  0  0  0  0  0
  -26.3050  -37.3870   23.7680 N   0  0  0  0  0  0  0  0  0  0  0  0
  -25.8860  -38.2920   23.9570 H   0  0  0  0  0  0  0  0  0  0  0  0
  -26.3620  -31.6850   24.9200 C   0  0  1  0  0  0  0  0  0  0  0  0
  -25.2950  -31.4050   26.0050 C   0  0  0  0  0  1  0  0  0  0  0  0
  -26.9570  -30.3270   24.4840 C   0  0  0  0  0  1  0  0  0  0  0  0
  -27.5210  -32.4750   25.5740 C   0  0  0  0  0  1  0  0  0  0  0  0
  1  3  1  0
  2  5  1  0
  2  4  1  0
  3  8  1  0
  4 52  1  0
  4  3  1  0
  5  1  1  0
  6  5  1  0
  7  5  1  0
  8 10  1  0
  9  8  2  0
 10 49  1  0
 11 19  1  0
 12 17  1  0
 13 14  1  0
 13 12  1  0
 15 14  1  0
 15 24  1  0
 15 16  1  0
 17 11  1  0
 17 16  1  0
 18 11  2  0
 19 20  1  0
 19 10  1  0
 21 22  2  0
 22 41  1  0
 23 22  1  0
 23 26  1  0
 24 25  1  0
 24 21  1  0
 25 23  2  0
 26 27  1  0
 27 28  2  0
 29 32  1  0
 29 28  1  0
 30 29  2  0
 31 30  1  0
 31 26  2  0
 32 33  1  0
 33 34  1  0
 34 35  2  0
 36 35  1  0
 36 40  1  0
 37 36  2  0
 38 33  2  0
 38 37  1  0
 39 38  1  0
 41 42  1  0
 42 45  1  0
 42 44  1  0
 43 41  2  0
 46 21  1  0
 46 47  1  0
 48 46  1  0
 49 51  1  0
 51 50  1  0
 53 54  1  0
 53 52  2  0
 55 66  2  0
 56 54  1  0
 56 61  1  0
 57 65  1  0
 57 67  1  0
 58 64  1  0
 58 60  1  0
 59 65  1  0
 60 59  1  0
 61 60  2  0
 62 63  1  0
 62 56  2  0
 63 58  2  0
 64 57  1  0
 65 55  1  0
 67 69  2  0
 68 67  1  0
 70 68  1  0
 71 80  2  0
 71 76  1  0
 72 68  1  0
 72 76  1  0
 73 72  1  0
 74 75  1  0
 74 73  1  0
 75 71  1  0
 76 77  2  0
 77 78  1  0
 79 78  2  0
 80 79  1  0
 81 55  1  0
 81 82  1  0
 81 91  1  0
 82 85  1  0
 83 87  1  0
 83 82  1  0
 84 83  2  0
 87 86  1  0
 89 87  1  0
 89 90  1  0
 89 88  1  0
 91 94  1  1
 91 92  1  0
 93 91  1  0
M  ISO  4  11 100  19 100  53 101  54 101
M  END
>  <TORSDO>  (45) 
F 22

>  <SCORE>  (45) 
-10.568

>  <name>  (45) 
44

>  <ligand_id>  (45) 
44

>  <original_smiles>  (45) 
[H]c1c([H])c([H])c2c(c1[H])C([H])([H])C([H])([H])C([H])([H])C2([H])N([H])C(=O)C1([H])N(C(=O)C([H])(N([H])C(=O)C([H])(N([H])C([H])([H])[H])C([H])([H])[H])C(C([H])([H])[H])(C([H])([H])[H])C([H])([H])[H])C([H])([H])c2c([H])c(OC([H])([H])C([H])([H])C3([H])C([H])(C(=O)C([H])(N([H])C(=O)N4C([H])([H])C([H])([H])C([H])([H])C([H])(n5nc(-c6c([H])c([H])c(Oc7c([H])c([H])c(F)c([H])c7F)c([H])c6[H])c(C(=O)N([H])[H])c5N([H])[H])C4([H])[H])C([H])([H])C([H])([H])C([H])([H])[H])C([H])([H])[N+]([H])([H])C3([H])[H])c([H])c([H])c2C1([H])[H]

>  <smiles>  (45) 
[H]c1c([H])c([H])c2c(c1[H])C([H])([H])C([H])([H])C([H])([H])C2([H])N([H])C(=O)C1([H])N(C(=O)C([H])(N([H])C(=O)C([H])(N([H])C([H])([H])[H])C([H])([H])[H])C(C([H])([H])[H])(C([H])([H])[H])C([H])([H])[H])C([H])([H])c2c([H])c(OC([H])([H])C([H])([H])C3([H])C([H])(C(=O)C([H])(N([H])C(=O)N4C([H])([H])C([H])([H])C([H])([H])C([H])(n5nc(-c6c([H])c([H])c(Oc7c([H])c([H])c(F)c([H])c7F)c([H])c6[H])c(C(=O)N([H])[H])c5N([H])[H])C4([H])[H])C([H])([H])C([H])([H])C([H])([H])[H])C([H])([H])[N+]([H])([H])C3([H])[H])c([H])c([H])c2C1([H])[H]

$$$$
45:0:0
     RDKit          3D

 86 94  0  0  1  0  0  0  0  0999 V2000
  -28.5790  -21.5920   20.1930 C   0  0  0  0  0  0  0  0  0  0  0  0
  -27.4140  -21.3310   19.8810 O   0  0  0  0  0  0  0  0  0  0  0  0
  -29.6090  -20.2760   20.3940 C   0  0  0  0  0  2  0  0  0  0  0  0
  -30.5020  -15.0960   20.2890 C   0  0  0  0  0  0  0  0  0  0  0  0
  -30.3810  -12.7220   19.3690 C   0  0  0  0  0  2  0  0  0  0  0  0
  -29.4390  -12.6440   18.1470 C   0  0  0  0  0  2  0  0  0  0  0  0
  -27.9830  -12.4210   18.5980 C   0  0  0  0  0  2  0  0  0  0  0  0
  -27.5810  -13.3510   19.7730 C   0  0  0  0  0  3  0  0  0  0  0  0
  -28.6490  -13.4050   20.8840 C   0  0  0  0  0  2  0  0  0  0  0  0
  -29.8980  -13.8320   20.2460 N   0  0  0  0  0  0  0  0  0  0  0  0
  -31.7090  -15.1240   20.0140 O   0  0  0  0  0  0  0  0  0  0  0  0
  -30.0140  -17.4920   21.3320 C   0  0  0  0  0  2  0  0  0  0  0  0
  -29.7400  -17.4650   19.3670 C   0  0  0  0  0  2  0  0  0  0  0  0
  -29.2820  -18.5810   20.4140 C   0  0  0  0  0  3  0  0  0  0  0  0
  -29.7470  -16.3240   20.3880 N   0  0  0  0  0  0  0  0  0  0  0  0
  -25.2200  -13.9140   20.5730 C   0  0  0  0  0  0  0  0  0  0  0  0
  -24.1600  -13.1340   20.9450 C   0  0  0  0  0  0  0  0  0  0  0  0
  -24.6210  -11.7830   20.8810 C   0  0  0  0  0  0  0  0  0  0  0  0
  -26.2560  -13.0380   20.2950 N   0  0  0  0  0  0  0  0  0  0  0  0
  -25.9080  -11.7500   20.5470 N   0  0  0  0  0  0  0  0  0  0  0  0
  -23.8940  -10.5180   21.0590 C   0  0  0  0  0  0  0  0  0  0  0  0
  -24.3210   -9.5440   21.9890 C   0  0  0  0  0  3  0  0  0  0  0  0
  -23.5920   -8.3470   22.1570 C   0  0  0  0  0  3  0  0  0  0  0  0
  -22.4230   -8.1140   21.3940 C   0  0  0  0  0  0  0  0  0  0  0  0
  -22.0150   -9.0760   20.4540 C   0  0  0  0  0  3  0  0  0  0  0  0
  -22.7450  -10.2650   20.2840 C   0  0  0  0  0  3  0  0  0  0  0  0
  -21.6660   -6.9700   21.4730 O   0  0  0  0  0  0  0  0  0  0  0  0
  -21.5870   -6.2360   22.6290 C   0  0  0  0  0  0  0  0  0  0  0  0
  -21.0910   -6.7880   23.8310 C   0  0  0  0  0  3  0  0  0  0  0  0
  -20.9620   -5.9770   24.9760 C   0  0  0  0  0  3  0  0  0  0  0  0
  -21.3190   -4.6170   24.9230 C   0  0  0  0  0  0  0  0  0  0  0  0
  -21.8070   -4.0640   23.7250 C   0  0  0  0  0  3  0  0  0  0  0  0
  -21.9380   -4.8710   22.5810 C   0  0  0  0  0  0  0  0  0  0  0  0
  -22.3890   -4.3290   21.4250 F   0  0  0  0  0  0  0  0  0  0  0  0
  -21.1880   -3.8370   26.0200 F   0  0  0  0  0  0  0  0  0  0  0  0
  -22.7690  -13.6090   21.2470 C   0  0  0  0  0  0  0  0  0  0  0  0
  -22.0510  -12.9000   22.1110 N   0  0  0  0  0  0  0  0  0  0  0  0
  -22.3280  -14.6440   20.7490 O   0  0  0  0  0  0  0  0  0  0  0  0
  -22.4230  -12.0640   22.5380 H   0  0  0  0  0  0  0  0  0  0  0  0
  -21.1180  -13.1990   22.3520 H   0  0  0  0  0  0  0  0  0  0  0  0
  -25.3860  -15.2870   20.4230 N   0  0  0  0  0  0  0  0  0  0  0  0
  -24.6300  -15.9470   20.5750 H   0  0  0  0  0  0  0  0  0  0  0  0
  -26.2470  -15.7320   20.1290 H   0  0  0  0  0  0  0  0  0  0  0  0
  -28.9610  -23.2240   20.3710 C   0  0  0  0  0  3  0  0  0  0  0  0
  -27.9510  -24.5900   20.0990 C   0  0  0  0  0  3  0  0  0  0  0  0
  -28.2270  -26.1410   20.2930 O   0  0  0  0  0  0  0  0  0  0  0  0
  -24.6320  -31.9160   23.2540 C   0  0  0  0  0  0  0  0  0  0  0  0
  -27.1900  -27.1590   20.2220 C   0  0  0  0  0  0  0  0  0  0  0  0
  -23.4320  -30.5310   21.6080 C   0  0  0  0  0  3  0  0  0  0  0  0
  -24.8780  -28.9470   20.1810 C   0  0  0  0  0  0  0  0  0  0  0  0
  -25.9920  -30.7730   21.4540 C   0  0  0  0  0  2  0  0  0  0  0  0
  -26.0600  -29.3790   20.7970 C   0  0  0  0  0  0  0  0  0  0  0  0
  -27.2170  -28.5020   20.7950 C   0  0  0  0  0  3  0  0  0  0  0  0
  -25.9810  -26.8440   19.5640 C   0  0  0  0  0  3  0  0  0  0  0  0
  -24.8550  -27.6970   19.5460 C   0  0  0  0  0  3  0  0  0  0  0  0
  -23.6570  -29.8560   20.2280 C   0  0  0  0  0  2  0  0  0  0  0  0
  -24.7060  -31.0960   22.1600 N   0  0  0  0  0  0  0  0  0  0  0  0
  -23.5450  -32.2040   23.7790 O   0  0  0  0  0  0  0  0  0  0  0  0
  -22.7440  -29.5250   22.5670 C   0  0  0  0  0  0  0  0  0  0  0  0
  -21.4150  -29.3590   22.4350 N   0  0  0  0  0  0  0  0  0  0  0  0
  -23.4080  -28.8970   23.3940 O   0  0  0  0  0  0  0  0  0  0  0  0
  -20.9330  -29.9180   21.7440 H   0  0  0  0  0  0  0  0  0  0  0  0
  -18.0260  -28.1760   22.9360 C   0  0  0  0  0  0  0  0  0  0  0  0
  -20.5870  -28.4230   23.2010 C   0  0  0  0  0  3  0  0  0  0  0  0
  -20.6790  -26.9920   22.6200 C   0  0  0  0  0  2  0  0  0  0  0  0
  -19.5740  -26.6800   21.6040 C   0  0  0  0  0  2  0  0  0  0  0  0
  -18.1950  -26.8290   22.2510 C   0  0  0  0  0  2  0  0  0  0  0  0
  -19.1490  -28.9300   23.3680 C   0  0  0  0  0  0  0  0  0  0  0  0
  -18.9350  -30.1880   23.9720 C   0  0  0  0  0  3  0  0  0  0  0  0
  -17.6320  -30.6930   24.1440 C   0  0  0  0  0  3  0  0  0  0  0  0
  -16.5250  -29.9360   23.7270 C   0  0  0  0  0  3  0  0  0  0  0  0
  -16.7220  -28.6790   23.1290 C   0  0  0  0  0  3  0  0  0  0  0  0
  -25.9090  -32.5470   23.8870 C   0  0  0  0  0  3  0  0  0  0  0  0
  -26.4090  -31.7770   25.1710 C   0  0  1  0  0  0  0  0  0  0  0  0
  -25.3050  -31.5450   26.2290 C   0  0  0  0  0  1  0  0  0  0  0  0
  -26.9920  -30.3950   24.7940 C   0  0  0  0  0  1  0  0  0  0  0  0
  -27.5570  -32.5670   25.8430 C   0  0  0  0  0  1  0  0  0  0  0  0
  -25.6000  -33.9480   24.2210 N   0  0  0  0  0  0  0  0  0  0  0  0
  -25.9070  -35.0030   23.4550 C   0  0  0  0  0  0  0  0  0  0  0  0
  -26.5460  -34.9000   22.4040 O   0  0  0  0  0  0  0  0  0  0  0  0
  -25.0290  -34.0990   25.0390 H   0  0  0  0  0  0  0  0  0  0  0  0
  -24.1510  -36.7860   23.1730 C   0  0  0  0  0  1  0  0  0  0  0  0
  -25.4330  -36.3920   23.9270 C   0  0  0  0  0  3  0  0  0  0  0  0
  -27.5930  -37.3050   24.6580 C   0  0  0  0  0  1  0  0  0  0  0  0
  -26.4520  -37.4520   23.7590 N   0  0  0  0  0  0  0  0  0  0  0  0
  -26.0440  -38.3710   23.9090 H   0  0  0  0  0  0  0  0  0  0  0  0
  1 44  1  0
  1  3  1  0
  2  1  2  0
  4 15  1  0
  5 10  1  0
  6  7  1  0
  6  5  1  0
  8  7  1  0
  8 19  1  0
  8  9  1  0
 10  4  1  0
 10  9  1  0
 11  4  2  0
 13 15  1  0
 13 14  1  0
 14  3  1  0
 14 12  1  0
 15 12  1  0
 16 17  2  0
 17 36  1  0
 18 17  1  0
 18 21  1  0
 19 20  1  0
 19 16  1  0
 20 18  2  0
 21 22  1  0
 22 23  2  0
 24 27  1  0
 24 23  1  0
 25 24  2  0
 26 25  1  0
 26 21  2  0
 27 28  1  0
 28 29  1  0
 29 30  2  0
 31 30  1  0
 31 35  1  0
 32 31  2  0
 33 28  2  0
 33 32  1  0
 34 33  1  0
 36 37  1  0
 37 40  1  0
 37 39  1  0
 38 36  2  0
 41 16  1  0
 41 42  1  0
 43 41  1  0
 45 46  1  0
 45 44  2  0
 47 58  2  0
 48 46  1  0
 48 53  1  0
 49 57  1  0
 49 59  1  0
 50 56  1  0
 50 52  1  0
 51 57  1  0
 52 51  1  0
 53 52  2  0
 54 48  2  0
 55 54  1  0
 55 50  2  0
 56 49  1  0
 57 47  1  0
 59 61  2  0
 60 59  1  0
 62 60  1  0
 63 72  2  0
 63 68  1  0
 64 60  1  0
 64 68  1  0
 65 64  1  0
 66 67  1  0
 66 65  1  0
 67 63  1  0
 68 69  2  0
 69 70  1  0
 71 70  2  0
 72 71  1  0
 73 47  1  0
 73 78  1  0
 73 74  1  0
 74 77  1  1
 74 75  1  0
 76 74  1  0
 78 81  1  0
 79 83  1  0
 79 78  1  0
 80 79  2  0
 83 82  1  0
 85 86  1  0
 85 83  1  0
 85 84  1  0
M  ISO  4   4 100  15 100  45 101  46 101
M  END
>  <TORSDO>  (46) 
F 19

>  <SCORE>  (46) 
-15.560

>  <name>  (46) 
45

>  <ligand_id>  (46) 
45

>  <original_smiles>  (46) 
[H]c1c([H])c([H])c2c(c1[H])C([H])([H])C([H])([H])C([H])([H])C2([H])N([H])C(=O)C1([H])N(C(=O)C([H])(N([H])C(=O)C([H])(N([H])C([H])([H])[H])C([H])([H])[H])C(C([H])([H])[H])(C([H])([H])[H])C([H])([H])[H])C([H])([H])c2c([H])c(OC([H])([H])C([H])([H])C(=O)C([H])([H])C3([H])C([H])([H])N(C(=O)N4C([H])([H])C([H])([H])C([H])([H])C([H])(n5nc(-c6c([H])c([H])c(Oc7c([H])c([H])c(F)c([H])c7F)c([H])c6[H])c(C(=O)N([H])[H])c5N([H])[H])C4([H])[H])C3([H])[H])c([H])c([H])c2C1([H])[H]

>  <smiles>  (46) 
[H]c1c([H])c([H])c2c(c1[H])C([H])([H])C([H])([H])C([H])([H])C2([H])N([H])C(=O)C1([H])N(C(=O)C([H])(N([H])C(=O)C([H])(N([H])C([H])([H])[H])C([H])([H])[H])C(C([H])([H])[H])(C([H])([H])[H])C([H])([H])[H])C([H])([H])c2c([H])c(OC([H])([H])C([H])([H])C(=O)C([H])([H])C3([H])C([H])([H])N(C(=O)N4C([H])([H])C([H])([H])C([H])([H])C([H])(n5nc(-c6c([H])c([H])c(Oc7c([H])c([H])c(F)c([H])c7F)c([H])c6[H])c(C(=O)N([H])[H])c5N([H])[H])C4([H])[H])C3([H])[H])c([H])c([H])c2C1([H])[H]

$$$$
46:0:0
     RDKit          3D

 91 99  0  0  1  0  0  0  0  0999 V2000
  -28.9100  -20.2560   20.0210 C   0  0  0  0  0  0  0  0  0  0  0  0
  -27.7130  -20.1100   19.7670 O   0  0  0  0  0  0  0  0  0  0  0  0
  -30.5930  -14.9260   19.5830 C   0  0  0  0  0  0  0  0  0  0  0  0
  -30.2700  -12.6440   18.5140 C   0  0  0  0  0  2  0  0  0  0  0  0
  -29.1670  -12.6980   17.4320 C   0  0  0  0  0  2  0  0  0  0  0  0
  -27.7780  -12.4790   18.0610 C   0  0  0  0  0  2  0  0  0  0  0  0
  -27.5750  -13.3190   19.3490 C   0  0  0  0  0  3  0  0  0  0  0  0
  -28.7840  -13.2300   20.3020 C   0  0  0  0  0  2  0  0  0  0  0  0
  -29.9580  -13.6810   19.5430 N   0  0  0  0  0  0  0  0  0  0  0  0
  -31.7040  -14.9910   19.0420 O   0  0  0  0  0  0  0  0  0  0  0  0
  -29.8830  -17.5430   19.2830 C   0  0  0  0  0  2  0  0  0  0  0  0
  -29.8060  -16.5400   21.3650 C   0  0  0  0  0  2  0  0  0  0  0  0
  -29.7860  -18.8550   20.2900 C   0  0  0  0  0  3  0  0  0  0  0  0
  -29.2430  -18.0050   21.4710 C   0  0  0  0  0  3  0  0  0  0  0  0
  -29.9060  -16.1330   19.9540 N   0  0  0  0  0  0  0  0  0  0  0  0
  -25.3620  -13.8720   20.5060 C   0  0  0  0  0  0  0  0  0  0  0  0
  -24.3400  -13.0870   20.9630 C   0  0  0  0  0  0  0  0  0  0  0  0
  -24.7440  -11.7350   20.7310 C   0  0  0  0  0  0  0  0  0  0  0  0
  -26.3210  -12.9990   20.0210 N   0  0  0  0  0  0  0  0  0  0  0  0
  -25.9690  -11.7030   20.2200 N   0  0  0  0  0  0  0  0  0  0  0  0
  -24.0080  -10.4770   20.9120 C   0  0  0  0  0  0  0  0  0  0  0  0
  -24.5100   -9.4390   21.7280 C   0  0  0  0  0  3  0  0  0  0  0  0
  -23.7740   -8.2470   21.9030 C   0  0  0  0  0  3  0  0  0  0  0  0
  -22.5220   -8.0850   21.2630 C   0  0  0  0  0  0  0  0  0  0  0  0
  -22.0390   -9.1120   20.4330 C   0  0  0  0  0  3  0  0  0  0  0  0
  -22.7740  -10.2950   20.2560 C   0  0  0  0  0  3  0  0  0  0  0  0
  -21.7490   -6.9530   21.3540 O   0  0  0  0  0  0  0  0  0  0  0  0
  -21.7520   -6.1700   22.4810 C   0  0  0  0  0  0  0  0  0  0  0  0
  -21.4220   -6.6900   23.7510 C   0  0  0  0  0  3  0  0  0  0  0  0
  -21.3680   -5.8350   24.8710 C   0  0  0  0  0  3  0  0  0  0  0  0
  -21.6330   -4.4600   24.7210 C   0  0  0  0  0  0  0  0  0  0  0  0
  -21.9570   -3.9390   23.4560 C   0  0  0  0  0  3  0  0  0  0  0  0
  -22.0130   -4.7910   22.3380 C   0  0  0  0  0  0  0  0  0  0  0  0
  -22.3030   -4.2800   21.1180 F   0  0  0  0  0  0  0  0  0  0  0  0
  -21.5750   -3.6370   25.7940 F   0  0  0  0  0  0  0  0  0  0  0  0
  -23.0200  -13.5660   21.4910 C   0  0  0  0  0  0  0  0  0  0  0  0
  -22.4150  -12.8120   22.4020 N   0  0  0  0  0  0  0  0  0  0  0  0
  -22.5400  -14.6410   21.1330 O   0  0  0  0  0  0  0  0  0  0  0  0
  -22.8180  -11.9410   22.7110 H   0  0  0  0  0  0  0  0  0  0  0  0
  -21.5330  -13.1110   22.7960 H   0  0  0  0  0  0  0  0  0  0  0  0
  -25.5500  -15.2480   20.4350 N   0  0  0  0  0  0  0  0  0  0  0  0
  -24.8280  -15.9040   20.7180 H   0  0  0  0  0  0  0  0  0  0  0  0
  -26.3440  -15.6970   20.0000 H   0  0  0  0  0  0  0  0  0  0  0  0
  -29.4560  -18.5910   22.8100 N   0  0  0  0  0  4  0  0  0  0  0  0
  -29.0710  -17.9870   23.5150 H   0  0  0  0  0  0  0  0  0  0  0  0
  -28.9950  -19.4790   22.8990 H   0  0  0  0  0  0  0  0  0  0  0  0
  -30.4330  -18.7150   23.0090 H   0  0  0  0  0  0  0  0  0  0  0  0
  -29.4420  -21.8290   20.0610 C   0  0  0  0  0  2  0  0  0  0  0  0
  -28.5640  -23.2170   20.5030 C   0  0  0  0  0  2  0  0  0  0  0  0
  -28.5820  -24.7340   19.7500 C   0  0  0  0  0  2  0  0  0  0  0  0
  -28.4050  -26.1720   20.3310 O   0  0  0  0  0  0  0  0  0  0  0  0
  -24.5190  -31.7400   23.1280 C   0  0  0  0  0  0  0  0  0  0  0  0
  -27.3040  -27.0900   20.1800 C   0  0  0  0  0  0  0  0  0  0  0  0
  -23.4020  -30.3140   21.4540 C   0  0  0  0  0  3  0  0  0  0  0  0
  -24.9290  -28.7690   20.0720 C   0  0  0  0  0  0  0  0  0  0  0  0
  -25.9500  -30.6400   21.3650 C   0  0  0  0  0  2  0  0  0  0  0  0
  -26.0740  -29.2510   20.7170 C   0  0  0  0  0  0  0  0  0  0  0  0
  -27.2570  -28.4230   20.7570 C   0  0  0  0  0  3  0  0  0  0  0  0
  -26.1310  -26.7030   19.4970 C   0  0  0  0  0  3  0  0  0  0  0  0
  -24.9700  -27.5100   19.4480 C   0  0  0  0  0  3  0  0  0  0  0  0
  -23.6790  -29.6370   20.0840 C   0  0  0  0  0  2  0  0  0  0  0  0
  -24.6420  -30.9220   22.0380 N   0  0  0  0  0  0  0  0  0  0  0  0
  -23.4120  -32.0000   23.6230 O   0  0  0  0  0  0  0  0  0  0  0  0
  -22.7180  -29.2950   22.3990 C   0  0  0  0  0  0  0  0  0  0  0  0
  -21.3970  -29.1000   22.2390 N   0  0  0  0  0  0  0  0  0  0  0  0
  -23.3800  -28.6800   23.2390 O   0  0  0  0  0  0  0  0  0  0  0  0
  -20.9190  -29.6490   21.5380 H   0  0  0  0  0  0  0  0  0  0  0  0
  -18.0280  -27.8400   22.6530 C   0  0  0  0  0  0  0  0  0  0  0  0
  -20.5740  -28.1470   22.9880 C   0  0  0  0  0  3  0  0  0  0  0  0
  -20.7160  -26.7190   22.4140 C   0  0  0  0  0  2  0  0  0  0  0  0
  -19.6460  -26.3770   21.3710 C   0  0  0  0  0  2  0  0  0  0  0  0
  -18.2460  -26.4960   21.9790 C   0  0  0  0  0  2  0  0  0  0  0  0
  -19.1200  -28.6220   23.1120 C   0  0  0  0  0  0  0  0  0  0  0  0
  -18.8610  -29.8780   23.7040 C   0  0  0  0  0  3  0  0  0  0  0  0
  -17.5430  -30.3530   23.8380 C   0  0  0  0  0  3  0  0  0  0  0  0
  -16.4650  -29.5680   23.3950 C   0  0  0  0  0  3  0  0  0  0  0  0
  -16.7070  -28.3130   22.8080 C   0  0  0  0  0  3  0  0  0  0  0  0
  -25.7630  -32.4050   23.7940 C   0  0  0  0  0  3  0  0  0  0  0  0
  -26.2590  -31.6430   25.0840 C   0  0  1  0  0  0  0  0  0  0  0  0
  -25.1400  -31.3770   26.1180 C   0  0  0  0  0  1  0  0  0  0  0  0
  -26.8860  -30.2800   24.7100 C   0  0  0  0  0  1  0  0  0  0  0  0
  -27.3700  -32.4630   25.7820 C   0  0  0  0  0  1  0  0  0  0  0  0
  -25.4050  -33.7940   24.1260 N   0  0  0  0  0  0  0  0  0  0  0  0
  -25.7230  -34.8640   23.3860 C   0  0  0  0  0  0  0  0  0  0  0  0
  -26.4150  -34.7890   22.3670 O   0  0  0  0  0  0  0  0  0  0  0  0
  -24.7910  -33.9230   24.9170 H   0  0  0  0  0  0  0  0  0  0  0  0
  -23.9480  -36.6120   23.0270 C   0  0  0  0  0  1  0  0  0  0  0  0
  -25.1930  -36.2360   23.8480 C   0  0  0  0  0  3  0  0  0  0  0  0
  -27.2940  -37.1770   24.7050 C   0  0  0  0  0  1  0  0  0  0  0  0
  -26.1960  -37.3190   23.7520 N   0  0  0  0  0  0  0  0  0  0  0  0
  -25.7610  -38.2260   23.9020 H   0  0  0  0  0  0  0  0  0  0  0  0
  1 48  1  0
  2  1  2  0
  3 15  1  0
  4  9  1  0
  5  6  1  0
  5  4  1  0
  7  6  1  0
  7 19  1  0
  7  8  1  0
  9  3  1  0
  9  8  1  0
 10  3  2  0
 11 15  1  0
 11 13  1  0
 12 14  1  0
 13  1  1  0
 13 14  1  0
 14 44  1  0
 15 12  1  0
 16 17  2  0
 17 36  1  0
 18 21  1  0
 18 17  1  0
 19 20  1  0
 19 16  1  0
 20 18  2  0
 21 22  1  0
 22 23  2  0
 24 27  1  0
 24 23  1  0
 25 24  2  0
 26 25  1  0
 26 21  2  0
 27 28  1  0
 28 29  1  0
 29 30  2  0
 31 30  1  0
 31 35  1  0
 32 31  2  0
 33 28  2  0
 33 32  1  0
 34 33  1  0
 36 37  1  0
 37 39  1  0
 37 40  1  0
 38 36  2  0
 41 16  1  0
 41 42  1  0
 43 41  1  0
 44 46  1  0
 44 47  1  0
 44 45  1  0
 48 49  1  0
 50 51  1  0
 50 49  1  0
 52 63  2  0
 53 51  1  0
 53 58  1  0
 54 62  1  0
 54 64  1  0
 55 61  1  0
 55 57  1  0
 56 62  1  0
 57 58  2  0
 57 56  1  0
 59 53  2  0
 60 59  1  0
 60 55  2  0
 61 54  1  0
 62 52  1  0
 64 66  2  0
 65 64  1  0
 67 65  1  0
 68 77  2  0
 68 73  1  0
 69 65  1  0
 69 73  1  0
 70 69  1  0
 71 72  1  0
 71 70  1  0
 72 68  1  0
 73 74  2  0
 74 75  1  0
 76 75  2  0
 77 76  1  0
 78 52  1  0
 78 83  1  0
 78 79  1  0
 79 82  1  1
 79 80  1  0
 81 79  1  0
 83 86  1  0
 84 88  1  0
 84 83  1  0
 85 84  2  0
 88 87  1  0
 90 88  1  0
 90 91  1  0
 90 89  1  0
M  ISO  4   3 100  15 100  50 101  51 101
M  END
>  <TORSDO>  (47) 
F 20

>  <SCORE>  (47) 
-11.361

>  <name>  (47) 
46

>  <ligand_id>  (47) 
46

>  <original_smiles>  (47) 
[H]c1c([H])c([H])c2c(c1[H])C([H])([H])C([H])([H])C([H])([H])C2([H])N([H])C(=O)C1([H])N(C(=O)C([H])(N([H])C(=O)C([H])(N([H])C([H])([H])[H])C([H])([H])[H])C(C([H])([H])[H])(C([H])([H])[H])C([H])([H])[H])C([H])([H])c2c([H])c(OC([H])([H])C([H])([H])C([H])([H])C(=O)C3([H])C([H])([H])N(C(=O)N4C([H])([H])C([H])([H])C([H])([H])C([H])(n5nc(-c6c([H])c([H])c(Oc7c([H])c([H])c(F)c([H])c7F)c([H])c6[H])c(C(=O)N([H])[H])c5N([H])[H])C4([H])[H])C([H])([H])C3([H])[N+]([H])([H])[H])c([H])c([H])c2C1([H])[H]

>  <smiles>  (47) 
[H]c1c([H])c([H])c2c(c1[H])C([H])([H])C([H])([H])C([H])([H])C2([H])N([H])C(=O)C1([H])N(C(=O)C([H])(N([H])C(=O)C([H])(N([H])C([H])([H])[H])C([H])([H])[H])C(C([H])([H])[H])(C([H])([H])[H])C([H])([H])[H])C([H])([H])c2c([H])c(OC([H])([H])C([H])([H])C([H])([H])C(=O)C3([H])C([H])([H])N(C(=O)N4C([H])([H])C([H])([H])C([H])([H])C([H])(n5nc(-c6c([H])c([H])c(Oc7c([H])c([H])c(F)c([H])c7F)c([H])c6[H])c(C(=O)N([H])[H])c5N([H])[H])C4([H])[H])C([H])([H])C3([H])[N+]([H])([H])[H])c([H])c([H])c2C1([H])[H]

$$$$
47:0:0
     RDKit          3D

 89 98  0  0  1  0  0  0  0  0999 V2000
  -29.9260  -23.2670   19.8110 C   0  0  0  0  0  2  0  0  0  0  0  0
  -28.9950  -22.3880   20.6130 C   0  0  0  0  0  3  0  0  0  0  0  0
  -28.5060  -23.7680   19.9850 C   0  0  0  0  0  3  0  0  0  0  0  0
  -28.6020  -20.9300   20.1210 C   0  0  0  0  0  2  0  0  0  0  0  0
  -29.1050  -18.3920   20.4370 C   0  0  0  0  0  0  0  0  0  0  0  0
  -29.4870  -19.7140   20.3320 N   0  0  0  0  0  0  0  0  0  0  0  0
  -27.9230  -18.1010   20.6320 O   0  0  0  0  0  0  0  0  0  0  0  0
  -30.4800  -19.8700   20.2010 H   0  0  0  0  0  0  0  0  0  0  0  0
  -30.5790  -14.7000   20.3430 C   0  0  0  0  0  0  0  0  0  0  0  0
  -30.3660  -12.4270   19.3760 C   0  0  0  0  0  2  0  0  0  0  0  0
  -29.4360  -12.5190   18.1470 C   0  0  0  0  0  2  0  0  0  0  0  0
  -27.9640  -12.3590   18.5720 C   0  0  0  0  0  2  0  0  0  0  0  0
  -27.5870  -13.2540   19.7850 C   0  0  0  0  0  3  0  0  0  0  0  0
  -28.6410  -13.1710   20.9090 C   0  0  0  0  0  2  0  0  0  0  0  0
  -29.9450  -13.4840   20.3160 N   0  0  0  0  0  0  0  0  0  0  0  0
  -31.7930  -14.7750   20.1240 O   0  0  0  0  0  0  0  0  0  0  0  0
  -29.8570  -16.5190   18.9470 C   0  0  0  0  0  2  0  0  0  0  0  0
  -30.1570  -17.2760   20.1950 C   0  0  0  0  0  3  0  0  0  0  0  0
  -29.7830  -15.8210   20.1980 N   0  0  0  0  0  0  0  0  0  0  0  0
  -25.1960  -13.8480   20.4970 C   0  0  0  0  0  0  0  0  0  0  0  0
  -24.1280  -13.0750   20.8640 C   0  0  0  0  0  0  0  0  0  0  0  0
  -24.5950  -11.7250   20.8500 C   0  0  0  0  0  0  0  0  0  0  0  0
  -26.2420  -12.9680   20.2730 N   0  0  0  0  0  0  0  0  0  0  0  0
  -25.8870  -11.6860   20.5510 N   0  0  0  0  0  0  0  0  0  0  0  0
  -23.8700  -10.4620   21.0450 C   0  0  0  0  0  0  0  0  0  0  0  0
  -24.3130   -9.4920   21.9710 C   0  0  0  0  0  3  0  0  0  0  0  0
  -23.5860   -8.2960   22.1580 C   0  0  0  0  0  3  0  0  0  0  0  0
  -22.4030   -8.0600   21.4170 C   0  0  0  0  0  0  0  0  0  0  0  0
  -21.9800   -9.0190   20.4790 C   0  0  0  0  0  3  0  0  0  0  0  0
  -22.7070  -10.2070   20.2930 C   0  0  0  0  0  3  0  0  0  0  0  0
  -21.6490   -6.9150   21.5120 O   0  0  0  0  0  0  0  0  0  0  0  0
  -21.6320   -6.1580   22.6560 C   0  0  0  0  0  0  0  0  0  0  0  0
  -21.2620   -6.7020   23.9050 C   0  0  0  0  0  3  0  0  0  0  0  0
  -21.1890   -5.8710   25.0410 C   0  0  0  0  0  3  0  0  0  0  0  0
  -21.4770   -4.4980   24.9310 C   0  0  0  0  0  0  0  0  0  0  0  0
  -21.8410   -3.9540   23.6860 C   0  0  0  0  0  3  0  0  0  0  0  0
  -21.9160   -4.7810   22.5520 C   0  0  0  0  0  0  0  0  0  0  0  0
  -22.2470   -4.2470   21.3520 F   0  0  0  0  0  0  0  0  0  0  0  0
  -21.4000   -3.6980   26.0200 F   0  0  0  0  0  0  0  0  0  0  0  0
  -22.7280  -13.5520   21.1220 C   0  0  0  0  0  0  0  0  0  0  0  0
  -21.9970  -12.8630   21.9910 N   0  0  0  0  0  0  0  0  0  0  0  0
  -22.2910  -14.5690   20.5870 O   0  0  0  0  0  0  0  0  0  0  0  0
  -22.3620  -12.0390   22.4450 H   0  0  0  0  0  0  0  0  0  0  0  0
  -21.0550  -13.1630   22.2030 H   0  0  0  0  0  0  0  0  0  0  0  0
  -25.3620  -15.2190   20.3130 N   0  0  0  0  0  0  0  0  0  0  0  0
  -24.6050  -15.8810   20.4470 H   0  0  0  0  0  0  0  0  0  0  0  0
  -26.2390  -15.6660   20.0730 H   0  0  0  0  0  0  0  0  0  0  0  0
  -28.2020  -25.1100   20.7760 C   0  0  0  0  0  2  0  0  0  0  0  0
  -28.3420  -26.4620   20.1680 O   0  0  0  0  0  0  0  0  0  0  0  0
  -24.6290  -31.8770   23.2260 C   0  0  0  0  0  0  0  0  0  0  0  0
  -27.2250  -27.3120   20.1700 C   0  0  0  0  0  0  0  0  0  0  0  0
  -23.4150  -30.4720   21.5960 C   0  0  0  0  0  3  0  0  0  0  0  0
  -24.8580  -28.9160   20.1660 C   0  0  0  0  0  0  0  0  0  0  0  0
  -25.9510  -30.7960   21.3920 C   0  0  0  0  0  2  0  0  0  0  0  0
  -26.0300  -29.4140   20.7490 C   0  0  0  0  0  0  0  0  0  0  0  0
  -27.2210  -28.6260   20.7360 C   0  0  0  0  0  3  0  0  0  0  0  0
  -26.0330  -26.8620   19.5690 C   0  0  0  0  0  3  0  0  0  0  0  0
  -24.8610  -27.6460   19.5660 C   0  0  0  0  0  3  0  0  0  0  0  0
  -23.6200  -29.7890   20.2180 C   0  0  0  0  0  2  0  0  0  0  0  0
  -24.6840  -31.0660   22.1280 N   0  0  0  0  0  0  0  0  0  0  0  0
  -23.5490  -32.1550   23.7680 O   0  0  0  0  0  0  0  0  0  0  0  0
  -22.7610  -29.4580   22.5650 C   0  0  0  0  0  0  0  0  0  0  0  0
  -21.4340  -29.2790   22.4500 N   0  0  0  0  0  0  0  0  0  0  0  0
  -23.4450  -28.8370   23.3810 O   0  0  0  0  0  0  0  0  0  0  0  0
  -20.9390  -29.8340   21.7640 H   0  0  0  0  0  0  0  0  0  0  0  0
  -18.0640  -28.0720   22.9680 C   0  0  0  0  0  0  0  0  0  0  0  0
  -20.6220  -28.3440   23.2280 C   0  0  0  0  0  3  0  0  0  0  0  0
  -20.7280  -26.9090   22.6610 C   0  0  0  0  0  2  0  0  0  0  0  0
  -19.6250  -26.5750   21.6530 C   0  0  0  0  0  2  0  0  0  0  0  0
  -18.2450  -26.7190   22.3000 C   0  0  0  0  0  2  0  0  0  0  0  0
  -19.1800  -28.8410   23.3900 C   0  0  0  0  0  0  0  0  0  0  0  0
  -18.9570  -30.1060   23.9760 C   0  0  0  0  0  3  0  0  0  0  0  0
  -17.6510  -30.6020   24.1430 C   0  0  0  0  0  3  0  0  0  0  0  0
  -16.5490  -29.8300   23.7360 C   0  0  0  0  0  3  0  0  0  0  0  0
  -16.7570  -28.5660   23.1550 C   0  0  0  0  0  3  0  0  0  0  0  0
  -25.9160  -32.5130   23.8370 C   0  0  0  0  0  3  0  0  0  0  0  0
  -26.4490  -31.7370   25.1050 C   0  0  1  0  0  0  0  0  0  0  0  0
  -25.3690  -31.4930   26.1840 C   0  0  0  0  0  1  0  0  0  0  0  0
  -27.0300  -30.3630   24.7020 C   0  0  0  0  0  1  0  0  0  0  0  0
  -27.6050  -32.5320   25.7560 C   0  0  0  0  0  1  0  0  0  0  0  0
  -25.6020  -33.9080   24.1790 N   0  0  0  0  0  0  0  0  0  0  0  0
  -25.9230  -34.9670   23.4250 C   0  0  0  0  0  0  0  0  0  0  0  0
  -26.5830  -34.8730   22.3860 O   0  0  0  0  0  0  0  0  0  0  0  0
  -25.0140  -34.0540   24.9860 H   0  0  0  0  0  0  0  0  0  0  0  0
  -24.1830  -36.7550   23.1050 C   0  0  0  0  0  1  0  0  0  0  0  0
  -25.4370  -36.3510   23.8970 C   0  0  0  0  0  3  0  0  0  0  0  0
  -27.5800  -37.2400   24.7000 C   0  0  0  0  0  1  0  0  0  0  0  0
  -26.4630  -37.4090   23.7750 N   0  0  0  0  0  0  0  0  0  0  0  0
  -26.0570  -38.3270   23.9340 H   0  0  0  0  0  0  0  0  0  0  0  0
  1  3  1  0
  1  2  1  0
  2  4  1  0
  3  2  1  0
  3 48  1  0
  4  6  1  0
  5  7  2  0
  6  5  1  0
  8  6  1  0
 10 15  1  0
 11 12  1  0
 11 10  1  0
 13 12  1  0
 13 23  1  0
 13 14  1  0
 15  9  1  0
 15 14  1  0
 16  9  2  0
 17 18  1  0
 17 19  1  0
 18 19  1  0
 18  5  1  0
 19  9  1  0
 20 21  2  0
 21 40  1  0
 22 21  1  0
 22 25  1  0
 23 20  1  0
 23 24  1  0
 24 22  2  0
 25 26  1  0
 26 27  2  0
 28 31  1  0
 28 27  1  0
 29 28  2  0
 30 29  1  0
 30 25  2  0
 31 32  1  0
 32 33  1  0
 33 34  2  0
 35 34  1  0
 35 39  1  0
 36 35  2  0
 37 32  2  0
 37 36  1  0
 38 37  1  0
 40 41  1  0
 41 44  1  0
 41 43  1  0
 42 40  2  0
 45 46  1  0
 45 20  1  0
 47 45  1  0
 49 51  1  0
 49 48  1  0
 50 61  2  0
 51 56  1  0
 52 60  1  0
 52 62  1  0
 53 59  1  0
 53 55  1  0
 54 60  1  0
 55 54  1  0
 56 55  2  0
 57 51  2  0
 58 57  1  0
 58 53  2  0
 59 52  1  0
 60 50  1  0
 62 64  2  0
 63 62  1  0
 65 63  1  0
 66 75  2  0
 66 71  1  0
 67 63  1  0
 67 71  1  0
 68 67  1  0
 69 70  1  0
 69 68  1  0
 70 66  1  0
 71 72  2  0
 72 73  1  0
 74 73  2  0
 75 74  1  0
 76 50  1  0
 76 81  1  0
 76 77  1  0
 77 80  1  1
 77 78  1  0
 79 77  1  0
 81 84  1  0
 82 86  1  0
 82 81  1  0
 83 82  2  0
 86 85  1  0
 88 86  1  0
 88 89  1  0
 88 87  1  0
M  ISO  4   9 100  19 100  48 101  49 101
M  END
>  <TORSDO>  (48) 
F 19

>  <SCORE>  (48) 
-14.136

>  <name>  (48) 
47

>  <ligand_id>  (48) 
47

>  <original_smiles>  (48) 
[H]c1c([H])c([H])c2c(c1[H])C([H])([H])C([H])([H])C([H])([H])C2([H])N([H])C(=O)C1([H])N(C(=O)C([H])(N([H])C(=O)C([H])(N([H])C([H])([H])[H])C([H])([H])[H])C(C([H])([H])[H])(C([H])([H])[H])C([H])([H])[H])C([H])([H])c2c([H])c(OC([H])([H])C3([H])C([H])([H])C3([H])C([H])([H])N([H])C(=O)C3([H])N(C(=O)N4C([H])([H])C([H])([H])C([H])([H])C([H])(n5nc(-c6c([H])c([H])c(Oc7c([H])c([H])c(F)c([H])c7F)c([H])c6[H])c(C(=O)N([H])[H])c5N([H])[H])C4([H])[H])C3([H])[H])c([H])c([H])c2C1([H])[H]

>  <smiles>  (48) 
[H]c1c([H])c([H])c2c(c1[H])C([H])([H])C([H])([H])C([H])([H])C2([H])N([H])C(=O)C1([H])N(C(=O)C([H])(N([H])C(=O)C([H])(N([H])C([H])([H])[H])C([H])([H])[H])C(C([H])([H])[H])(C([H])([H])[H])C([H])([H])[H])C([H])([H])c2c([H])c(OC([H])([H])C3([H])C([H])([H])C3([H])C([H])([H])N([H])C(=O)C3([H])N(C(=O)N4C([H])([H])C([H])([H])C([H])([H])C([H])(n5nc(-c6c([H])c([H])c(Oc7c([H])c([H])c(F)c([H])c7F)c([H])c6[H])c(C(=O)N([H])[H])c5N([H])[H])C4([H])[H])C3([H])[H])c([H])c([H])c2C1([H])[H]

$$$$
48:0:0
     RDKit          3D

 91 99  0  0  1  0  0  0  0  0999 V2000
  -29.9340  -22.1720   19.4560 C   0  0  0  0  0  0  0  0  0  0  0  0
  -28.8200  -21.7150   19.1880 O   0  0  0  0  0  0  0  0  0  0  0  0
  -30.9390  -24.5140   20.0870 C   0  0  0  0  0  2  0  0  0  0  0  0
  -30.2420  -23.6070   19.0980 C   0  0  0  0  0  3  0  0  0  0  0  0
  -29.4490  -24.6570   19.8670 C   0  0  0  0  0  3  0  0  0  0  0  0
  -28.8690  -25.8760   19.1700 C   0  0  0  0  0  2  0  0  0  0  0  0
  -28.4800  -26.8140   20.1710 O   0  0  0  0  0  0  0  0  0  0  0  0
  -24.6160  -31.8820   23.2330 C   0  0  0  0  0  0  0  0  0  0  0  0
  -27.2670  -27.4690   20.1280 C   0  0  0  0  0  0  0  0  0  0  0  0
  -23.3920  -30.4750   21.6000 C   0  0  0  0  0  3  0  0  0  0  0  0
  -24.8420  -28.9330   20.1670 C   0  0  0  0  0  0  0  0  0  0  0  0
  -25.9110  -30.8500   21.3750 C   0  0  0  0  0  2  0  0  0  0  0  0
  -25.9970  -29.4760   20.7410 C   0  0  0  0  0  0  0  0  0  0  0  0
  -27.2020  -28.7460   20.7280 C   0  0  0  0  0  3  0  0  0  0  0  0
  -26.0890  -26.9220   19.5670 C   0  0  0  0  0  3  0  0  0  0  0  0
  -24.8810  -27.6510   19.5830 C   0  0  0  0  0  3  0  0  0  0  0  0
  -23.5950  -29.7870   20.2200 C   0  0  0  0  0  2  0  0  0  0  0  0
  -24.6580  -31.0850   22.1280 N   0  0  0  0  0  0  0  0  0  0  0  0
  -23.5410  -32.1500   23.7870 O   0  0  0  0  0  0  0  0  0  0  0  0
  -22.7520  -29.4610   22.5690 C   0  0  0  0  0  0  0  0  0  0  0  0
  -21.4260  -29.2750   22.4490 N   0  0  0  0  0  0  0  0  0  0  0  0
  -23.4420  -28.8400   23.3820 O   0  0  0  0  0  0  0  0  0  0  0  0
  -20.9290  -29.8260   21.7640 H   0  0  0  0  0  0  0  0  0  0  0  0
  -18.0620  -28.0710   22.9700 C   0  0  0  0  0  0  0  0  0  0  0  0
  -20.6210  -28.3400   23.2320 C   0  0  0  0  0  3  0  0  0  0  0  0
  -20.7270  -26.9080   22.6610 C   0  0  0  0  0  2  0  0  0  0  0  0
  -19.6220  -26.5720   21.6550 C   0  0  0  0  0  2  0  0  0  0  0  0
  -18.2410  -26.7190   22.3010 C   0  0  0  0  0  2  0  0  0  0  0  0
  -19.1790  -28.8410   23.3930 C   0  0  0  0  0  0  0  0  0  0  0  0
  -18.9590  -30.1080   23.9760 C   0  0  0  0  0  3  0  0  0  0  0  0
  -17.6520  -30.6060   24.1420 C   0  0  0  0  0  3  0  0  0  0  0  0
  -16.5490  -29.8350   23.7360 C   0  0  0  0  0  3  0  0  0  0  0  0
  -16.7550  -28.5700   23.1570 C   0  0  0  0  0  3  0  0  0  0  0  0
  -25.9110  -32.5140   23.8390 C   0  0  0  0  0  3  0  0  0  0  0  0
  -25.6050  -33.9090   24.1810 N   0  0  0  0  0  0  0  0  0  0  0  0
  -25.9180  -34.9640   23.4180 C   0  0  0  0  0  0  0  0  0  0  0  0
  -26.5690  -34.8680   22.3740 O   0  0  0  0  0  0  0  0  0  0  0  0
  -25.0410  -34.0610   25.0040 H   0  0  0  0  0  0  0  0  0  0  0  0
  -24.1790  -36.7480   23.0970 C   0  0  0  0  0  1  0  0  0  0  0  0
  -25.4310  -36.3470   23.8920 C   0  0  0  0  0  3  0  0  0  0  0  0
  -27.5730  -37.2330   24.6960 C   0  0  0  0  0  1  0  0  0  0  0  0
  -26.4570  -37.4050   23.7710 N   0  0  0  0  0  0  0  0  0  0  0  0
  -26.0480  -38.3210   23.9340 H   0  0  0  0  0  0  0  0  0  0  0  0
  -26.4510  -31.7390   25.1020 C   0  0  1  0  0  0  0  0  0  0  0  0
  -25.3770  -31.4970   26.1860 C   0  0  0  0  0  1  0  0  0  0  0  0
  -27.0340  -30.3680   24.6890 C   0  0  0  0  0  1  0  0  0  0  0  0
  -27.6060  -32.5370   25.7520 C   0  0  0  0  0  1  0  0  0  0  0  0
  -32.3140  -21.1910   19.3850 C   0  0  0  0  0  1  0  0  0  0  0  0
  -30.9940  -21.3030   20.1730 C   0  0  0  0  0  3  0  0  0  0  0  0
  -30.4810  -19.9130   20.6490 C   0  0  0  0  0  3  0  0  0  0  0  0
  -30.1670  -18.8700   19.5480 C   0  0  0  0  0  3  0  0  0  0  0  0
  -29.5680  -17.5370   20.0540 C   0  0  0  0  0  2  0  0  0  0  0  0
  -30.4340  -16.7970   21.0980 C   0  0  0  0  0  2  0  0  0  0  0  0
  -30.7030  -14.4050   20.4950 C   0  0  0  0  0  0  0  0  0  0  0  0
  -30.3510  -12.2840   19.3110 C   0  0  0  0  0  2  0  0  0  0  0  0
  -29.4040  -12.5410   18.1190 C   0  0  0  0  0  2  0  0  0  0  0  0
  -27.9310  -12.4150   18.5610 C   0  0  0  0  0  2  0  0  0  0  0  0
  -27.6190  -13.2220   19.8490 C   0  0  0  0  0  3  0  0  0  0  0  0
  -28.6830  -12.9610   20.9420 C   0  0  0  0  0  2  0  0  0  0  0  0
  -30.0100  -13.2450   20.3660 N   0  0  0  0  0  0  0  0  0  0  0  0
  -31.7800  -14.6170   19.9290 O   0  0  0  0  0  0  0  0  0  0  0  0
  -30.0820  -15.3750   21.1730 N   0  0  0  0  0  0  0  0  0  0  0  0
  -29.2390  -15.1090   21.6590 H   0  0  0  0  0  0  0  0  0  0  0  0
  -25.2160  -13.8380   20.5480 C   0  0  0  0  0  0  0  0  0  0  0  0
  -24.1460  -13.0670   20.9200 C   0  0  0  0  0  0  0  0  0  0  0  0
  -24.6060  -11.7150   20.8910 C   0  0  0  0  0  0  0  0  0  0  0  0
  -26.2620  -12.9560   20.3280 N   0  0  0  0  0  0  0  0  0  0  0  0
  -25.8940  -11.6730   20.5870 N   0  0  0  0  0  0  0  0  0  0  0  0
  -23.8770  -10.4540   21.0850 C   0  0  0  0  0  0  0  0  0  0  0  0
  -24.3300   -9.4720   21.9940 C   0  0  0  0  0  3  0  0  0  0  0  0
  -23.6040   -8.2750   22.1750 C   0  0  0  0  0  3  0  0  0  0  0  0
  -22.4120   -8.0510   21.4470 C   0  0  0  0  0  0  0  0  0  0  0  0
  -21.9800   -9.0200   20.5240 C   0  0  0  0  0  3  0  0  0  0  0  0
  -22.7070  -10.2100   20.3410 C   0  0  0  0  0  3  0  0  0  0  0  0
  -21.6580   -6.9050   21.5380 O   0  0  0  0  0  0  0  0  0  0  0  0
  -21.6570   -6.1330   22.6710 C   0  0  0  0  0  0  0  0  0  0  0  0
  -21.3080   -6.6600   23.9340 C   0  0  0  0  0  3  0  0  0  0  0  0
  -21.2490   -5.8160   25.0580 C   0  0  0  0  0  3  0  0  0  0  0  0
  -21.5330   -4.4430   24.9260 C   0  0  0  0  0  0  0  0  0  0  0  0
  -21.8770   -3.9140   23.6690 C   0  0  0  0  0  3  0  0  0  0  0  0
  -21.9350   -4.7560   22.5450 C   0  0  0  0  0  0  0  0  0  0  0  0
  -22.2450   -4.2360   21.3320 F   0  0  0  0  0  0  0  0  0  0  0  0
  -21.4700   -3.6290   26.0050 F   0  0  0  0  0  0  0  0  0  0  0  0
  -22.7490  -13.5460   21.1910 C   0  0  0  0  0  0  0  0  0  0  0  0
  -22.0240  -12.8520   22.0630 N   0  0  0  0  0  0  0  0  0  0  0  0
  -22.3060  -14.5660   20.6650 O   0  0  0  0  0  0  0  0  0  0  0  0
  -22.3890  -12.0200   22.5000 H   0  0  0  0  0  0  0  0  0  0  0  0
  -21.0890  -13.1570   22.2900 H   0  0  0  0  0  0  0  0  0  0  0  0
  -25.3820  -15.2080   20.3610 N   0  0  0  0  0  0  0  0  0  0  0  0
  -24.6220  -15.8700   20.4550 H   0  0  0  0  0  0  0  0  0  0  0  0
  -26.2420  -15.6400   20.0420 H   0  0  0  0  0  0  0  0  0  0  0  0
  1 49  1  0
  2  1  2  0
  4  1  1  0
  4  5  1  0
  4  3  1  0
  5  6  1  0
  5  3  1  0
  6  7  1  0
  8 19  2  0
  9  7  1  0
  9 14  1  0
 10 18  1  0
 10 20  1  0
 11 17  1  0
 11 13  1  0
 12 18  1  0
 13 12  1  0
 14 13  2  0
 15 16  1  0
 15  9  2  0
 16 11  2  0
 17 10  1  0
 18  8  1  0
 20 22  2  0
 21 20  1  0
 23 21  1  0
 24 33  2  0
 24 29  1  0
 25 21  1  0
 25 29  1  0
 26 25  1  0
 27 28  1  0
 27 26  1  0
 28 24  1  0
 29 30  2  0
 30 31  1  0
 32 31  2  0
 33 32  1  0
 34  8  1  0
 34 35  1  0
 34 44  1  0
 35 38  1  0
 36 40  1  0
 36 35  1  0
 37 36  2  0
 40 39  1  0
 42 40  1  0
 42 43  1  0
 42 41  1  0
 44 47  1  1
 44 45  1  0
 46 44  1  0
 49 48  1  0
 49 50  1  0
 51 52  1  0
 51 50  2  0
 52 53  1  0
 53 62  1  0
 54 62  1  0
 55 60  1  0
 56 57  1  0
 56 55  1  0
 58 57  1  0
 58 67  1  0
 58 59  1  0
 60 54  1  0
 60 59  1  0
 61 54  2  0
 62 63  1  0
 64 65  2  0
 65 84  1  0
 66 65  1  0
 66 69  1  0
 67 64  1  0
 67 68  1  0
 68 66  2  0
 69 70  1  0
 70 71  2  0
 72 75  1  0
 72 71  1  0
 73 72  2  0
 74 73  1  0
 74 69  2  0
 75 76  1  0
 76 77  1  0
 77 78  2  0
 79 78  1  0
 79 83  1  0
 80 79  2  0
 81 76  2  0
 81 80  1  0
 82 81  1  0
 84 85  1  0
 85 88  1  0
 85 87  1  0
 86 84  2  0
 89 90  1  0
 89 64  1  0
 91 89  1  0
M  ISO  4   6 101   7 101  54 100  62 100
M  END
>  <TORSDO>  (49) 
F 23

>  <SCORE>  (49) 
-12.707

>  <name>  (49) 
48

>  <ligand_id>  (49) 
48

>  <original_smiles>  (49) 
[H]c1c([H])c([H])c2c(c1[H])C([H])([H])C([H])([H])C([H])([H])C2([H])N([H])C(=O)C1([H])N(C(=O)C([H])(N([H])C(=O)C([H])(N([H])C([H])([H])[H])C([H])([H])[H])C(C([H])([H])[H])(C([H])([H])[H])C([H])([H])[H])C([H])([H])c2c([H])c(OC([H])([H])C3([H])C([H])([H])C3([H])C(=O)C([H])(C([H])([H])[H])C([H])([H])C([H])([H])C([H])([H])C([H])([H])N([H])C(=O)N3C([H])([H])C([H])([H])C([H])([H])C([H])(n4nc(-c5c([H])c([H])c(Oc6c([H])c([H])c(F)c([H])c6F)c([H])c5[H])c(C(=O)N([H])[H])c4N([H])[H])C3([H])[H])c([H])c([H])c2C1([H])[H]

>  <smiles>  (49) 
[H]c1c([H])c([H])c2c(c1[H])C([H])([H])C([H])([H])C([H])([H])C2([H])N([H])C(=O)C1([H])N(C(=O)C([H])(N([H])C(=O)C([H])(N([H])C([H])([H])[H])C([H])([H])[H])C(C([H])([H])[H])(C([H])([H])[H])C([H])([H])[H])C([H])([H])c2c([H])c(OC([H])([H])C3([H])C([H])([H])C3([H])C(=O)C([H])(C([H])([H])[H])C([H])([H])C([H])([H])C([H])([H])C([H])([H])N([H])C(=O)N3C([H])([H])C([H])([H])C([H])([H])C([H])(n4nc(-c5c([H])c([H])c(Oc6c([H])c([H])c(F)c([H])c6F)c([H])c5[H])c(C(=O)N([H])[H])c4N([H])[H])C3([H])[H])c([H])c([H])c2C1([H])[H]

$$$$
49:0:0
     RDKit          3D

 94102  0  0  1  0  0  0  0  0999 V2000
  -30.5900  -19.8860   20.5270 C   0  0  0  0  0  2  0  0  0  0  0  0
  -28.4990  -20.5650   19.7220 C   0  0  0  0  0  2  0  0  0  0  0  0
  -29.1900  -19.3250   20.3110 C   0  0  0  0  0  3  0  0  0  0  0  0
  -30.3870  -21.3860   20.8570 C   0  0  0  0  0  3  0  0  0  0  0  0
  -29.0020  -21.7160   20.4760 N   0  0  0  0  0  0  0  0  0  0  0  0
  -27.6200  -17.6050   19.2670 C   0  0  0  0  0  1  0  0  0  0  0  0
  -29.0790  -18.0790   19.3850 C   0  0  0  0  0  3  0  0  0  0  0  0
  -29.7250  -15.7030   20.1980 C   0  0  0  0  0  3  0  0  0  0  0  0
  -30.0410  -16.9040   19.6490 C   0  0  0  0  0  3  0  0  0  0  0  0
  -30.6390  -14.5510   20.1200 C   0  0  0  0  0  0  0  0  0  0  0  0
  -30.3620  -12.3310   19.1120 C   0  0  0  0  0  2  0  0  0  0  0  0
  -29.3760  -12.5170   17.9350 C   0  0  0  0  0  2  0  0  0  0  0  0
  -27.9170  -12.3600   18.4130 C   0  0  0  0  0  2  0  0  0  0  0  0
  -27.6130  -13.2090   19.6750 C   0  0  0  0  0  3  0  0  0  0  0  0
  -28.7160  -13.0320   20.7450 C   0  0  0  0  0  2  0  0  0  0  0  0
  -30.0170  -13.3370   20.1290 N   0  0  0  0  0  0  0  0  0  0  0  0
  -31.8190  -14.6730   19.7770 O   0  0  0  0  0  0  0  0  0  0  0  0
  -25.2620  -13.8190   20.5190 C   0  0  0  0  0  0  0  0  0  0  0  0
  -24.2120  -13.0470   20.9270 C   0  0  0  0  0  0  0  0  0  0  0  0
  -24.6650  -11.6940   20.8540 C   0  0  0  0  0  0  0  0  0  0  0  0
  -26.2890  -12.9350   20.2200 N   0  0  0  0  0  0  0  0  0  0  0  0
  -25.9380  -11.6530   20.4830 N   0  0  0  0  0  0  0  0  0  0  0  0
  -23.9450  -10.4330   21.0590 C   0  0  0  0  0  0  0  0  0  0  0  0
  -24.3970   -9.4700   21.9870 C   0  0  0  0  0  3  0  0  0  0  0  0
  -23.6780   -8.2710   22.1820 C   0  0  0  0  0  3  0  0  0  0  0  0
  -22.4930   -8.0280   21.4470 C   0  0  0  0  0  0  0  0  0  0  0  0
  -22.0600   -8.9800   20.5070 C   0  0  0  0  0  3  0  0  0  0  0  0
  -22.7790  -10.1710   20.3120 C   0  0  0  0  0  3  0  0  0  0  0  0
  -21.7440   -6.8810   21.5520 O   0  0  0  0  0  0  0  0  0  0  0  0
  -21.6930   -6.1550   22.7130 C   0  0  0  0  0  0  0  0  0  0  0  0
  -21.2160   -6.7110   23.9200 C   0  0  0  0  0  3  0  0  0  0  0  0
  -21.1150   -5.9080   25.0740 C   0  0  0  0  0  3  0  0  0  0  0  0
  -21.4840   -4.5510   25.0220 C   0  0  0  0  0  0  0  0  0  0  0  0
  -21.9550   -3.9950   23.8200 C   0  0  0  0  0  3  0  0  0  0  0  0
  -22.0570   -4.7940   22.6680 C   0  0  0  0  0  0  0  0  0  0  0  0
  -22.4910   -4.2460   21.5080 F   0  0  0  0  0  0  0  0  0  0  0  0
  -21.3790   -3.7780   26.1280 F   0  0  0  0  0  0  0  0  0  0  0  0
  -22.8320  -13.5260   21.2740 C   0  0  0  0  0  0  0  0  0  0  0  0
  -22.1390  -12.8080   22.1500 N   0  0  0  0  0  0  0  0  0  0  0  0
  -22.3790  -14.5710   20.8040 O   0  0  0  0  0  0  0  0  0  0  0  0
  -22.5210  -11.9650   22.5490 H   0  0  0  0  0  0  0  0  0  0  0  0
  -21.2150  -13.1080   22.4260 H   0  0  0  0  0  0  0  0  0  0  0  0
  -25.4220  -15.1910   20.3580 N   0  0  0  0  0  0  0  0  0  0  0  0
  -24.6630  -15.8470   20.5080 H   0  0  0  0  0  0  0  0  0  0  0  0
  -26.2590  -15.6330   20.0020 H   0  0  0  0  0  0  0  0  0  0  0  0
  -30.6010  -21.6840   22.3600 C   0  0  0  0  0  2  0  0  0  0  0  0
  -32.0230  -21.6430   22.7320 N   0  0  0  0  0  4  0  0  0  0  0  0
  -32.4250  -20.7490   22.5130 H   0  0  0  0  0  0  0  0  0  0  0  0
  -32.1200  -21.8010   23.7180 H   0  0  0  0  0  0  0  0  0  0  0  0
  -32.5400  -22.3550   22.2480 H   0  0  0  0  0  0  0  0  0  0  0  0
  -28.8570  -22.9430   19.6660 C   0  0  0  0  0  2  0  0  0  0  0  0
  -28.7810  -24.2610   20.4810 C   0  0  0  0  0  2  0  0  0  0  0  0
  -28.7640  -25.5230   19.5780 C   0  0  0  0  0  2  0  0  0  0  0  0
  -28.5390  -26.7420   20.3070 O   0  0  0  0  0  0  0  0  0  0  0  0
  -24.6280  -31.9110   23.2410 C   0  0  0  0  0  0  0  0  0  0  0  0
  -27.3250  -27.4110   20.2680 C   0  0  0  0  0  0  0  0  0  0  0  0
  -23.4420  -30.4710   21.6170 C   0  0  0  0  0  3  0  0  0  0  0  0
  -24.9120  -28.9100   20.2390 C   0  0  0  0  0  0  0  0  0  0  0  0
  -25.9670  -30.8380   21.4280 C   0  0  0  0  0  2  0  0  0  0  0  0
  -26.0630  -29.4520   20.8200 C   0  0  0  0  0  0  0  0  0  0  0  0
  -27.2670  -28.7100   20.8300 C   0  0  0  0  0  3  0  0  0  0  0  0
  -26.1410  -26.8750   19.7040 C   0  0  0  0  0  3  0  0  0  0  0  0
  -24.9440  -27.6200   19.6830 C   0  0  0  0  0  3  0  0  0  0  0  0
  -23.6670  -29.7680   20.2520 C   0  0  0  0  0  2  0  0  0  0  0  0
  -24.6970  -31.0900   22.1540 N   0  0  0  0  0  0  0  0  0  0  0  0
  -23.5400  -32.1880   23.7660 O   0  0  0  0  0  0  0  0  0  0  0  0
  -22.7890  -29.4650   22.5910 C   0  0  0  0  0  0  0  0  0  0  0  0
  -21.4660  -29.2760   22.4550 N   0  0  0  0  0  0  0  0  0  0  0  0
  -23.4670  -28.8570   23.4240 O   0  0  0  0  0  0  0  0  0  0  0  0
  -20.9820  -29.8250   21.7580 H   0  0  0  0  0  0  0  0  0  0  0  0
  -18.0890  -28.0920   22.9560 C   0  0  0  0  0  0  0  0  0  0  0  0
  -20.6460  -28.3500   23.2340 C   0  0  0  0  0  3  0  0  0  0  0  0
  -20.7480  -26.9110   22.6780 C   0  0  0  0  0  2  0  0  0  0  0  0
  -19.6490  -26.5760   21.6650 C   0  0  0  0  0  2  0  0  0  0  0  0
  -18.2650  -26.7330   22.3030 C   0  0  0  0  0  2  0  0  0  0  0  0
  -19.2070  -28.8580   23.3800 C   0  0  0  0  0  0  0  0  0  0  0  0
  -18.9900  -30.1290   23.9540 C   0  0  0  0  0  3  0  0  0  0  0  0
  -17.6860  -30.6330   24.1140 C   0  0  0  0  0  3  0  0  0  0  0  0
  -16.5810  -29.8660   23.7040 C   0  0  0  0  0  3  0  0  0  0  0  0
  -16.7840  -28.5990   23.1300 C   0  0  0  0  0  3  0  0  0  0  0  0
  -25.9060  -32.5590   23.8590 C   0  0  0  0  0  3  0  0  0  0  0  0
  -26.4300  -31.8020   25.1410 C   0  0  1  0  0  0  0  0  0  0  0  0
  -25.3370  -31.5540   26.2070 C   0  0  0  0  0  1  0  0  0  0  0  0
  -27.0380  -30.4340   24.7530 C   0  0  0  0  0  1  0  0  0  0  0  0
  -27.5660  -32.6180   25.8040 C   0  0  0  0  0  1  0  0  0  0  0  0
  -25.5830  -33.9560   24.1770 N   0  0  0  0  0  0  0  0  0  0  0  0
  -25.9000  -35.0040   23.4070 C   0  0  0  0  0  0  0  0  0  0  0  0
  -26.5660  -34.9000   22.3730 O   0  0  0  0  0  0  0  0  0  0  0  0
  -24.9940  -34.1140   24.9820 H   0  0  0  0  0  0  0  0  0  0  0  0
  -24.1560  -36.7800   23.0340 C   0  0  0  0  0  1  0  0  0  0  0  0
  -25.3970  -36.3910   23.8540 C   0  0  0  0  0  3  0  0  0  0  0  0
  -27.5120  -37.3070   24.6980 C   0  0  0  0  0  1  0  0  0  0  0  0
  -26.4200  -37.4530   23.7390 N   0  0  0  0  0  0  0  0  0  0  0  0
  -26.0020  -38.3690   23.8750 H   0  0  0  0  0  0  0  0  0  0  0  0
  1  4  1  0
  2  3  1  0
  2  5  1  0
  3  7  1  0
  3  1  1  0
  4 46  1  0
  5  4  1  0
  7  6  1  0
  7  9  1  0
  9  8  2  0
 10 16  1  0
 10  8  1  0
 11 16  1  0
 12 13  1  0
 12 11  1  0
 14 13  1  0
 14 21  1  0
 14 15  1  0
 16 15  1  0
 17 10  2  0
 18 19  2  0
 19 38  1  0
 20 19  1  0
 20 23  1  0
 21 22  1  0
 21 18  1  0
 22 20  2  0
 23 24  1  0
 24 25  2  0
 26 29  1  0
 26 25  1  0
 27 26  2  0
 28 27  1  0
 28 23  2  0
 29 30  1  0
 30 31  1  0
 31 32  2  0
 33 32  1  0
 33 37  1  0
 34 33  2  0
 35 30  2  0
 35 34  1  0
 36 35  1  0
 38 39  1  0
 39 42  1  0
 39 41  1  0
 40 38  2  0
 43 44  1  0
 43 18  1  0
 45 43  1  0
 46 47  1  0
 47 49  1  0
 48 47  1  0
 50 47  1  0
 51  5  1  0
 51 52  1  0
 53 54  1  0
 53 52  1  0
 55 66  2  0
 56 54  1  0
 56 61  1  0
 57 65  1  0
 57 67  1  0
 58 64  1  0
 58 60  1  0
 59 65  1  0
 60 61  2  0
 60 59  1  0
 62 56  2  0
 63 62  1  0
 63 58  2  0
 64 57  1  0
 65 55  1  0
 67 69  2  0
 68 67  1  0
 70 68  1  0
 71 80  2  0
 71 76  1  0
 72 68  1  0
 72 76  1  0
 73 72  1  0
 74 75  1  0
 74 73  1  0
 75 71  1  0
 76 77  2  0
 77 78  1  0
 79 78  2  0
 80 79  1  0
 81 55  1  0
 81 86  1  0
 81 82  1  0
 82 85  1  1
 82 83  1  0
 84 82  1  0
 86 89  1  0
 87 91  1  0
 87 86  1  0
 88 87  2  0
 91 90  1  0
 93 91  1  0
 93 94  1  0
 93 92  1  0
M  ISO  4   8 100  10 100  53 101  54 101
M  END
>  <TORSDO>  (50) 
F 23

>  <SCORE>  (50) 
-13.355

>  <name>  (50) 
49

>  <ligand_id>  (50) 
49

>  <original_smiles>  (50) 
[H]C(C(=O)N1C([H])([H])C([H])([H])C([H])([H])C([H])(n2nc(-c3c([H])c([H])c(Oc4c([H])c([H])c(F)c([H])c4F)c([H])c3[H])c(C(=O)N([H])[H])c2N([H])[H])C1([H])[H])=C([H])C([H])(C([H])([H])[H])C1([H])C([H])([H])N(C([H])([H])C([H])([H])C([H])([H])Oc2c([H])c([H])c3c(c2[H])C([H])([H])N(C(=O)C([H])(N([H])C(=O)C([H])(N([H])C([H])([H])[H])C([H])([H])[H])C(C([H])([H])[H])(C([H])([H])[H])C([H])([H])[H])C([H])(C(=O)N([H])C2([H])c4c([H])c([H])c([H])c([H])c4C([H])([H])C([H])([H])C2([H])[H])C3([H])[H])C([H])(C([H])([H])[N+]([H])([H])[H])C1([H])[H]

>  <smiles>  (50) 
[H]C(C(=O)N1C([H])([H])C([H])([H])C([H])([H])C([H])(n2nc(-c3c([H])c([H])c(Oc4c([H])c([H])c(F)c([H])c4F)c([H])c3[H])c(C(=O)N([H])[H])c2N([H])[H])C1([H])[H])=C([H])C([H])(C([H])([H])[H])C1([H])C([H])([H])N(C([H])([H])C([H])([H])C([H])([H])Oc2c([H])c([H])c3c(c2[H])C([H])([H])N(C(=O)C([H])(N([H])C(=O)C([H])(N([H])C([H])([H])[H])C([H])([H])[H])C(C([H])([H])[H])(C([H])([H])[H])C([H])([H])[H])C([H])(C(=O)N([H])C2([H])c4c([H])c([H])c([H])c([H])c4C([H])([H])C([H])([H])C2([H])[H])C3([H])[H])C([H])(C([H])([H])[N+]([H])([H])[H])C1([H])[H]

$$$$
50:0:0
     RDKit          3D

 93101  0  0  1  0  0  0  0  0999 V2000
  -30.0780  -18.2850   18.9180 C   0  0  0  0  0  2  0  0  0  0  0  0
  -30.0480  -19.8020   18.8420 C   0  0  0  0  0  3  0  0  0  0  0  0
  -29.8610  -18.1780   20.4680 C   0  0  0  0  0  3  0  0  0  0  0  0
  -29.0510  -19.7450   19.9890 C   0  0  0  0  0  3  0  0  0  0  0  0
  -30.4080  -15.2570   20.3070 C   0  0  0  0  0  0  0  0  0  0  0  0
  -30.3770  -12.8230   19.4150 C   0  0  0  0  0  2  0  0  0  0  0  0
  -29.4520  -12.6340   18.1880 C   0  0  0  0  0  2  0  0  0  0  0  0
  -28.0050  -12.3590   18.6370 C   0  0  0  0  0  2  0  0  0  0  0  0
  -27.5590  -13.3190   19.7680 C   0  0  0  0  0  3  0  0  0  0  0  0
  -28.6110  -13.4570   20.8880 C   0  0  0  0  0  2  0  0  0  0  0  0
  -29.8390  -13.9570   20.2490 N   0  0  0  0  0  0  0  0  0  0  0  0
  -31.6290  -15.2630   20.0930 O   0  0  0  0  0  0  0  0  0  0  0  0
  -29.6320  -16.5170   20.4030 N   0  0  0  0  0  0  0  0  0  0  0  0
  -28.6550  -16.2910   20.5080 H   0  0  0  0  0  0  0  0  0  0  0  0
  -25.1910  -13.8730   20.5300 C   0  0  0  0  0  0  0  0  0  0  0  0
  -24.1310  -13.0940   20.9000 C   0  0  0  0  0  0  0  0  0  0  0  0
  -24.6000  -11.7440   20.8670 C   0  0  0  0  0  0  0  0  0  0  0  0
  -26.2340  -13.0000   20.2820 N   0  0  0  0  0  0  0  0  0  0  0  0
  -25.8920  -11.7130   20.5530 N   0  0  0  0  0  0  0  0  0  0  0  0
  -23.8770  -10.4800   21.0550 C   0  0  0  0  0  0  0  0  0  0  0  0
  -24.3110   -9.5090   21.9840 C   0  0  0  0  0  3  0  0  0  0  0  0
  -23.5850   -8.3130   22.1620 C   0  0  0  0  0  3  0  0  0  0  0  0
  -22.4080   -8.0780   21.4100 C   0  0  0  0  0  0  0  0  0  0  0  0
  -21.9930   -9.0370   20.4700 C   0  0  0  0  0  3  0  0  0  0  0  0
  -22.7200  -10.2250   20.2910 C   0  0  0  0  0  3  0  0  0  0  0  0
  -21.6540   -6.9330   21.4970 O   0  0  0  0  0  0  0  0  0  0  0  0
  -21.6110   -6.1840   22.6460 C   0  0  0  0  0  0  0  0  0  0  0  0
  -21.1890   -6.7340   23.8770 C   0  0  0  0  0  3  0  0  0  0  0  0
  -21.0940   -5.9130   25.0180 C   0  0  0  0  0  3  0  0  0  0  0  0
  -21.4090   -4.5440   24.9290 C   0  0  0  0  0  0  0  0  0  0  0  0
  -21.8230   -3.9940   23.7030 C   0  0  0  0  0  3  0  0  0  0  0  0
  -21.9200   -4.8120   22.5640 C   0  0  0  0  0  0  0  0  0  0  0  0
  -22.2980   -4.2730   21.3800 F   0  0  0  0  0  0  0  0  0  0  0  0
  -21.3100   -3.7520   26.0220 F   0  0  0  0  0  0  0  0  0  0  0  0
  -22.7330  -13.5690   21.1670 C   0  0  0  0  0  0  0  0  0  0  0  0
  -22.0040  -12.8690   22.0280 N   0  0  0  0  0  0  0  0  0  0  0  0
  -22.2980  -14.5960   20.6490 O   0  0  0  0  0  0  0  0  0  0  0  0
  -22.3710  -12.0390   22.4690 H   0  0  0  0  0  0  0  0  0  0  0  0
  -21.0650  -13.1690   22.2520 H   0  0  0  0  0  0  0  0  0  0  0  0
  -25.3480  -15.2440   20.3510 N   0  0  0  0  0  0  0  0  0  0  0  0
  -24.5700  -15.8870   20.4500 H   0  0  0  0  0  0  0  0  0  0  0  0
  -26.1720  -15.6800   19.9610 H   0  0  0  0  0  0  0  0  0  0  0  0
  -29.4980  -20.3550   17.5170 C   0  0  0  0  0  0  0  0  0  0  0  0
  -30.3070  -21.1140   16.7900 N   0  0  0  0  0  0  0  0  0  0  0  0
  -28.3450  -20.1300   17.1540 O   0  0  0  0  0  0  0  0  0  0  0  0
  -31.2580  -21.2910   17.0860 H   0  0  0  0  0  0  0  0  0  0  0  0
  -29.9840  -21.5160   15.9210 H   0  0  0  0  0  0  0  0  0  0  0  0
  -28.9780  -21.2650   20.6800 N   0  0  0  0  0  4  0  0  0  0  0  0
  -29.8250  -21.3630   21.2160 H   0  0  0  0  0  0  0  0  0  0  0  0
  -28.2530  -21.1840   21.3760 H   0  0  0  0  0  0  0  0  0  0  0  0
  -28.7350  -22.7590   19.9750 C   0  0  0  0  0  2  0  0  0  0  0  0
  -28.1170  -24.3020   20.6560 C   0  0  0  0  0  2  0  0  0  0  0  0
  -28.2640  -25.9070   20.3120 O   0  0  0  0  0  0  0  0  0  0  0  0
  -24.6190  -31.8460   23.2410 C   0  0  0  0  0  0  0  0  0  0  0  0
  -27.2210  -26.9650   20.3060 C   0  0  0  0  0  0  0  0  0  0  0  0
  -23.4440  -30.4300   21.6050 C   0  0  0  0  0  3  0  0  0  0  0  0
  -24.9100  -28.8160   20.2170 C   0  0  0  0  0  0  0  0  0  0  0  0
  -26.0090  -30.6570   21.4760 C   0  0  0  0  0  2  0  0  0  0  0  0
  -26.0910  -29.2420   20.8380 C   0  0  0  0  0  0  0  0  0  0  0  0
  -27.2440  -28.3390   20.8510 C   0  0  0  0  0  3  0  0  0  0  0  0
  -26.0070  -26.6800   19.6440 C   0  0  0  0  0  3  0  0  0  0  0  0
  -24.8900  -27.5540   19.6000 C   0  0  0  0  0  3  0  0  0  0  0  0
  -23.6870  -29.7320   20.2390 C   0  0  0  0  0  2  0  0  0  0  0  0
  -24.7120  -31.0060   22.1610 N   0  0  0  0  0  0  0  0  0  0  0  0
  -23.5240  -32.1360   23.7500 O   0  0  0  0  0  0  0  0  0  0  0  0
  -22.7460  -29.4420   22.5750 C   0  0  0  0  0  0  0  0  0  0  0  0
  -21.4170  -29.2730   22.4400 N   0  0  0  0  0  0  0  0  0  0  0  0
  -23.4070  -28.8260   23.4140 O   0  0  0  0  0  0  0  0  0  0  0  0
  -20.9380  -29.8200   21.7380 H   0  0  0  0  0  0  0  0  0  0  0  0
  -18.0330  -28.0640   22.9350 C   0  0  0  0  0  0  0  0  0  0  0  0
  -20.5900  -28.3400   23.2120 C   0  0  0  0  0  3  0  0  0  0  0  0
  -20.6990  -26.9040   22.6490 C   0  0  0  0  0  2  0  0  0  0  0  0
  -19.6030  -26.5710   21.6300 C   0  0  0  0  0  2  0  0  0  0  0  0
  -18.2170  -26.7140   22.2650 C   0  0  0  0  0  2  0  0  0  0  0  0
  -19.1460  -28.8360   23.3650 C   0  0  0  0  0  0  0  0  0  0  0  0
  -18.9180  -30.0980   23.9540 C   0  0  0  0  0  3  0  0  0  0  0  0
  -17.6090  -30.5900   24.1160 C   0  0  0  0  0  3  0  0  0  0  0  0
  -16.5110  -29.8190   23.6990 C   0  0  0  0  0  3  0  0  0  0  0  0
  -16.7240  -28.5560   23.1160 C   0  0  0  0  0  3  0  0  0  0  0  0
  -25.8820  -32.4990   23.8800 C   0  0  0  0  0  3  0  0  0  0  0  0
  -26.3690  -31.7550   25.1850 C   0  0  1  0  0  0  0  0  0  0  0  0
  -25.2530  -31.5460   26.2370 C   0  0  0  0  0  1  0  0  0  0  0  0
  -26.9570  -30.3670   24.8450 C   0  0  0  0  0  1  0  0  0  0  0  0
  -27.5080  -32.5620   25.8520 C   0  0  0  0  0  1  0  0  0  0  0  0
  -25.5590  -33.9030   24.1870 N   0  0  0  0  0  0  0  0  0  0  0  0
  -25.9040  -34.9530   23.4300 C   0  0  0  0  0  0  0  0  0  0  0  0
  -26.5880  -34.8420   22.4100 O   0  0  0  0  0  0  0  0  0  0  0  0
  -24.9520  -34.0630   24.9770 H   0  0  0  0  0  0  0  0  0  0  0  0
  -24.1840  -36.7520   23.0430 C   0  0  0  0  0  1  0  0  0  0  0  0
  -25.4140  -36.3480   23.8720 C   0  0  0  0  0  3  0  0  0  0  0  0
  -27.5370  -37.2390   24.7270 C   0  0  0  0  0  1  0  0  0  0  0  0
  -26.4500  -37.3990   23.7650 N   0  0  0  0  0  0  0  0  0  0  0  0
  -26.0430  -38.3220   23.8970 H   0  0  0  0  0  0  0  0  0  0  0  0
  1  3  1  0
  2 43  1  0
  2  1  1  0
  2  4  1  0
  3 13  1  0
  4  3  1  0
  4 48  1  0
  5 13  1  0
  6 11  1  0
  7  8  1  0
  7  6  1  0
  9  8  1  0
  9 18  1  0
  9 10  1  0
 11  5  1  0
 11 10  1  0
 12  5  2  0
 13 14  1  0
 15 16  2  0
 16 35  1  0
 17 16  1  0
 17 20  1  0
 18 15  1  0
 18 19  1  0
 19 17  2  0
 20 21  1  0
 21 22  2  0
 23 26  1  0
 23 22  1  0
 24 23  2  0
 25 24  1  0
 25 20  2  0
 26 27  1  0
 27 28  1  0
 28 29  2  0
 30 29  1  0
 30 34  1  0
 31 30  2  0
 32 27  2  0
 32 31  1  0
 33 32  1  0
 35 36  1  0
 36 39  1  0
 36 38  1  0
 37 35  2  0
 40 41  1  0
 40 15  1  0
 42 40  1  0
 44 46  1  0
 44 43  1  0
 45 43  2  0
 47 44  1  0
 48 49  1  0
 48 50  1  0
 51 52  1  0
 51 48  1  0
 53 52  1  0
 54 65  2  0
 55 53  1  0
 55 60  1  0
 56 64  1  0
 56 66  1  0
 57 63  1  0
 57 59  1  0
 58 64  1  0
 59 60  2  0
 59 58  1  0
 61 55  2  0
 62 61  1  0
 62 57  2  0
 63 56  1  0
 64 54  1  0
 66 68  2  0
 67 66  1  0
 69 67  1  0
 70 79  2  0
 70 75  1  0
 71 67  1  0
 71 75  1  0
 72 71  1  0
 73 74  1  0
 73 72  1  0
 74 70  1  0
 75 76  2  0
 76 77  1  0
 78 77  2  0
 79 78  1  0
 80 54  1  0
 80 85  1  0
 80 81  1  0
 81 84  1  1
 81 82  1  0
 83 81  1  0
 85 88  1  0
 86 90  1  0
 86 85  1  0
 87 86  2  0
 90 89  1  0
 92 90  1  0
 92 93  1  0
 92 91  1  0
M  ISO  4   5 100  13 100  52 101  53 101
M  END
>  <TORSDO>  (51) 
F 20

>  <SCORE>  (51) 
-14.977

>  <name>  (51) 
50

>  <ligand_id>  (51) 
50

>  <original_smiles>  (51) 
[H]c1c([H])c([H])c2c(c1[H])C([H])([H])C([H])([H])C([H])([H])C2([H])N([H])C(=O)C1([H])N(C(=O)C([H])(N([H])C(=O)C([H])(N([H])C([H])([H])[H])C([H])([H])[H])C(C([H])([H])[H])(C([H])([H])[H])C([H])([H])[H])C([H])([H])c2c([H])c(OC([H])([H])C([H])([H])[N+]([H])([H])C3([H])C([H])(C(=O)N([H])[H])C([H])([H])C3([H])N([H])C(=O)N3C([H])([H])C([H])([H])C([H])([H])C([H])(n4nc(-c5c([H])c([H])c(Oc6c([H])c([H])c(F)c([H])c6F)c([H])c5[H])c(C(=O)N([H])[H])c4N([H])[H])C3([H])[H])c([H])c([H])c2C1([H])[H]

>  <smiles>  (51) 
[H]c1c([H])c([H])c2c(c1[H])C([H])([H])C([H])([H])C([H])([H])C2([H])N([H])C(=O)C1([H])N(C(=O)C([H])(N([H])C(=O)C([H])(N([H])C([H])([H])[H])C([H])([H])[H])C(C([H])([H])[H])(C([H])([H])[H])C([H])([H])[H])C([H])([H])c2c([H])c(OC([H])([H])C([H])([H])[N+]([H])([H])C3([H])C([H])(C(=O)N([H])[H])C([H])([H])C3([H])N([H])C(=O)N3C([H])([H])C([H])([H])C([H])([H])C([H])(n4nc(-c5c([H])c([H])c(Oc6c([H])c([H])c(F)c([H])c6F)c([H])c5[H])c(C(=O)N([H])[H])c4N([H])[H])C3([H])[H])c([H])c([H])c2C1([H])[H]

$$$$
51:0:0
     RDKit          3D

 92100  0  0  1  0  0  0  0  0999 V2000
  -30.0810  -22.9120   20.1940 C   0  0  0  0  0  2  0  0  0  0  0  0
  -28.2170  -22.3350   20.7990 C   0  0  0  0  0  2  0  0  0  0  0  0
  -28.8710  -23.7680   20.6920 C   0  0  0  0  0  3  0  0  0  0  0  0
  -29.5980  -21.6120   20.9440 C   0  0  0  0  0  3  0  0  0  0  0  0
  -31.3930  -20.1620   19.8410 C   0  0  0  0  0  1  0  0  0  0  0  0
  -29.9570  -20.1300   20.4010 C   0  0  0  0  0  3  0  0  0  0  0  0
  -29.8340  -18.8090   21.3510 C   0  0  0  0  0  2  0  0  0  0  0  0
  -30.2020  -17.3440   20.7310 C   0  0  0  0  0  3  0  0  0  0  0  0
  -30.9100  -14.9640   21.6520 C   0  0  0  0  0  0  0  0  0  0  0  0
  -30.9840  -12.5910   20.8960 C   0  0  0  0  0  2  0  0  0  0  0  0
  -30.3170  -12.4820   19.5050 C   0  0  0  0  0  2  0  0  0  0  0  0
  -28.7830  -12.3610   19.6200 C   0  0  0  0  0  2  0  0  0  0  0  0
  -28.1650  -13.3480   20.6480 C   0  0  0  0  0  3  0  0  0  0  0  0
  -28.9620  -13.3650   21.9710 C   0  0  0  0  0  2  0  0  0  0  0  0
  -30.3480  -13.7100   21.6290 N   0  0  0  0  0  0  0  0  0  0  0  0
  -32.1320  -15.0910   21.5170 O   0  0  0  0  0  0  0  0  0  0  0  0
  -30.0570  -16.0590   21.5610 N   0  0  0  0  0  0  0  0  0  0  0  0
  -29.1040  -15.8310   21.8070 H   0  0  0  0  0  0  0  0  0  0  0  0
  -25.6850  -13.9720   20.8860 C   0  0  0  0  0  0  0  0  0  0  0  0
  -24.5600  -13.2100   21.0570 C   0  0  0  0  0  0  0  0  0  0  0  0
  -25.0070  -11.8560   21.1270 C   0  0  0  0  0  0  0  0  0  0  0  0
  -26.7470  -13.0800   20.8660 N   0  0  0  0  0  0  0  0  0  0  0  0
  -26.3320  -11.8040   21.0740 N   0  0  0  0  0  0  0  0  0  0  0  0
  -24.2470  -10.6000   21.1870 C   0  0  0  0  0  0  0  0  0  0  0  0
  -24.5410   -9.6040   22.1440 C   0  0  0  0  0  3  0  0  0  0  0  0
  -23.7830   -8.4160   22.1950 C   0  0  0  0  0  3  0  0  0  0  0  0
  -22.7170   -8.2130   21.2850 C   0  0  0  0  0  0  0  0  0  0  0  0
  -22.4450   -9.1980   20.3200 C   0  0  0  0  0  3  0  0  0  0  0  0
  -23.2030  -10.3800   20.2670 C   0  0  0  0  0  3  0  0  0  0  0  0
  -21.9430   -7.0810   21.2420 O   0  0  0  0  0  0  0  0  0  0  0  0
  -21.7770   -6.2810   22.3440 C   0  0  0  0  0  0  0  0  0  0  0  0
  -21.2500   -6.7820   23.5550 C   0  0  0  0  0  3  0  0  0  0  0  0
  -21.0320   -5.9120   24.6400 C   0  0  0  0  0  3  0  0  0  0  0  0
  -21.3310   -4.5410   24.5180 C   0  0  0  0  0  0  0  0  0  0  0  0
  -21.8500   -4.0410   23.3100 C   0  0  0  0  0  3  0  0  0  0  0  0
  -22.0700   -4.9080   22.2260 C   0  0  0  0  0  0  0  0  0  0  0  0
  -22.5510   -4.4170   21.0590 F   0  0  0  0  0  0  0  0  0  0  0  0
  -21.1150   -3.7040   25.5580 F   0  0  0  0  0  0  0  0  0  0  0  0
  -23.1420  -13.7030   21.0530 C   0  0  0  0  0  0  0  0  0  0  0  0
  -22.2610  -13.0330   21.7880 N   0  0  0  0  0  0  0  0  0  0  0  0
  -22.8160  -14.7140   20.4330 O   0  0  0  0  0  0  0  0  0  0  0  0
  -22.5330  -12.2160   22.3120 H   0  0  0  0  0  0  0  0  0  0  0  0
  -21.3010  -13.3420   21.8280 H   0  0  0  0  0  0  0  0  0  0  0  0
  -25.8900  -15.3370   20.7210 N   0  0  0  0  0  0  0  0  0  0  0  0
  -25.1120  -15.9870   20.6600 H   0  0  0  0  0  0  0  0  0  0  0  0
  -26.7770  -15.7580   20.4830 H   0  0  0  0  0  0  0  0  0  0  0  0
  -29.3710  -17.1520   19.4300 C   0  0  0  0  0  2  0  0  0  0  0  0
  -30.9670  -16.9400   17.4440 C   0  0  0  0  0  1  0  0  0  0  0  0
  -28.9360  -15.4620   17.5710 C   0  0  0  0  0  1  0  0  0  0  0  0
  -30.0030  -16.2060   18.3890 C   0  0  0  0  0  3  0  0  0  0  0  0
  -28.1410  -24.9350   19.8570 C   0  0  0  0  0  2  0  0  0  0  0  0
  -28.3330  -26.4150   20.0710 O   0  0  0  0  0  0  0  0  0  0  0  0
  -24.6940  -31.9220   23.1020 C   0  0  0  0  0  0  0  0  0  0  0  0
  -27.2300  -27.3040   20.0080 C   0  0  0  0  0  0  0  0  0  0  0  0
  -23.4550  -30.5030   21.5110 C   0  0  0  0  0  3  0  0  0  0  0  0
  -24.8690  -28.9470   20.0570 C   0  0  0  0  0  0  0  0  0  0  0  0
  -25.9930  -30.8080   21.2700 C   0  0  0  0  0  2  0  0  0  0  0  0
  -26.0540  -29.4230   20.6310 C   0  0  0  0  0  0  0  0  0  0  0  0
  -27.2310  -28.6080   20.6060 C   0  0  0  0  0  3  0  0  0  0  0  0
  -26.0270  -26.9200   19.3660 C   0  0  0  0  0  3  0  0  0  0  0  0
  -24.8620  -27.7030   19.4140 C   0  0  0  0  0  3  0  0  0  0  0  0
  -23.6330  -29.8160   20.1340 C   0  0  0  0  0  2  0  0  0  0  0  0
  -24.7340  -31.1000   22.0140 N   0  0  0  0  0  0  0  0  0  0  0  0
  -23.6230  -32.2020   23.6610 O   0  0  0  0  0  0  0  0  0  0  0  0
  -22.8280  -29.4910   22.5010 C   0  0  0  0  0  0  0  0  0  0  0  0
  -21.5030  -29.2980   22.4010 N   0  0  0  0  0  0  0  0  0  0  0  0
  -23.5300  -28.8880   23.3170 O   0  0  0  0  0  0  0  0  0  0  0  0
  -21.0020  -29.8310   21.7040 H   0  0  0  0  0  0  0  0  0  0  0  0
  -18.1560  -28.0450   22.9720 C   0  0  0  0  0  0  0  0  0  0  0  0
  -20.7110  -28.3630   23.2030 C   0  0  0  0  0  3  0  0  0  0  0  0
  -20.8380  -26.9230   22.6580 C   0  0  0  0  0  2  0  0  0  0  0  0
  -19.7280  -26.5510   21.6670 C   0  0  0  0  0  2  0  0  0  0  0  0
  -18.3520  -26.6830   22.3250 C   0  0  0  0  0  2  0  0  0  0  0  0
  -19.2640  -28.8380   23.3700 C   0  0  0  0  0  0  0  0  0  0  0  0
  -19.0310  -30.1060   23.9440 C   0  0  0  0  0  3  0  0  0  0  0  0
  -17.7200  -30.5830   24.1240 C   0  0  0  0  0  3  0  0  0  0  0  0
  -16.6250  -29.7880   23.7430 C   0  0  0  0  0  3  0  0  0  0  0  0
  -16.8440  -28.5230   23.1690 C   0  0  0  0  0  3  0  0  0  0  0  0
  -25.9900  -32.5680   23.6820 C   0  0  0  0  0  3  0  0  0  0  0  0
  -25.6670  -33.9590   24.0420 N   0  0  0  0  0  0  0  0  0  0  0  0
  -25.9920  -35.0320   23.3100 C   0  0  0  0  0  0  0  0  0  0  0  0
  -26.6620  -34.9570   22.2760 O   0  0  0  0  0  0  0  0  0  0  0  0
  -25.0750  -34.0900   24.8460 H   0  0  0  0  0  0  0  0  0  0  0  0
  -24.2520  -36.8180   22.9860 C   0  0  0  0  0  1  0  0  0  0  0  0
  -25.4870  -36.4040   23.7990 C   0  0  0  0  0  3  0  0  0  0  0  0
  -27.6130  -37.2790   24.6590 C   0  0  0  0  0  1  0  0  0  0  0  0
  -26.5120  -37.4670   23.7190 N   0  0  0  0  0  0  0  0  0  0  0  0
  -26.0990  -38.3800   23.8890 H   0  0  0  0  0  0  0  0  0  0  0  0
  -26.5620  -31.7910   24.9310 C   0  0  1  0  0  0  0  0  0  0  0  0
  -25.5080  -31.5380   26.0310 C   0  0  0  0  0  1  0  0  0  0  0  0
  -27.1520  -30.4260   24.5070 C   0  0  0  0  0  1  0  0  0  0  0  0
  -27.7290  -32.5920   25.5520 C   0  0  0  0  0  1  0  0  0  0  0  0
  1  3  1  0
  1  4  1  0
  2  4  1  0
  3 51  1  0
  3  2  1  0
  4  6  1  0
  6  5  1  0
  6  7  1  0
  8 47  1  0
  8  7  1  0
  8 17  1  0
 10 15  1  0
 11 12  1  0
 11 10  1  0
 13 12  1  0
 13 22  1  0
 13 14  1  0
 15  9  1  0
 15 14  1  0
 16  9  2  0
 17  9  1  0
 17 18  1  0
 19 20  2  0
 20 21  1  0
 21 24  1  0
 22 19  1  0
 22 23  1  0
 23 21  2  0
 24 25  1  0
 25 26  2  0
 27 26  1  0
 28 27  2  0
 29 28  1  0
 29 24  2  0
 30 27  1  0
 30 31  1  0
 31 32  1  0
 32 33  2  0
 34 33  1  0
 34 38  1  0
 35 34  2  0
 36 31  2  0
 36 35  1  0
 37 36  1  0
 39 20  1  0
 39 40  1  0
 40 43  1  0
 40 42  1  0
 41 39  2  0
 44 19  1  0
 45 44  1  0
 46 44  1  0
 48 50  1  0
 49 50  1  0
 50 47  1  0
 51 52  1  0
 53 64  2  0
 54 52  1  0
 54 59  1  0
 55 63  1  0
 55 65  1  0
 56 62  1  0
 56 58  1  0
 57 63  1  0
 58 57  1  0
 59 58  2  0
 60 61  1  0
 60 54  2  0
 61 56  2  0
 62 55  1  0
 63 53  1  0
 65 67  2  0
 66 65  1  0
 68 66  1  0
 69 78  2  0
 69 74  1  0
 70 66  1  0
 70 74  1  0
 71 70  1  0
 72 73  1  0
 72 71  1  0
 73 69  1  0
 74 75  2  0
 75 76  1  0
 77 76  2  0
 78 77  1  0
 79 53  1  0
 79 80  1  0
 79 89  1  0
 80 83  1  0
 81 85  1  0
 81 80  1  0
 82 81  2  0
 85 84  1  0
 87 85  1  0
 87 88  1  0
 87 86  1  0
 89 92  1  1
 89 90  1  0
 91 89  1  0
M  ISO  4   9 100  17 100  51 101  52 101
M  END
>  <TORSDO>  (52) 
F 22

>  <SCORE>  (52) 
-7.955

>  <name>  (52) 
51

>  <ligand_id>  (52) 
51

>  <original_smiles>  (52) 
[H]c1c([H])c([H])c2c(c1[H])C([H])([H])C([H])([H])C([H])([H])C2([H])N([H])C(=O)C1([H])N(C(=O)C([H])(N([H])C(=O)C([H])(N([H])C([H])([H])[H])C([H])([H])[H])C(C([H])([H])[H])(C([H])([H])[H])C([H])([H])[H])C([H])([H])c2c([H])c(OC([H])([H])C3([H])C([H])([H])C([H])(C([H])(C([H])([H])[H])C([H])([H])C([H])(N([H])C(=O)N4C([H])([H])C([H])([H])C([H])([H])C([H])(n5nc(-c6c([H])c([H])c(Oc7c([H])c([H])c(F)c([H])c7F)c([H])c6[H])c(C(=O)N([H])[H])c5N([H])[H])C4([H])[H])C([H])([H])C([H])(C([H])([H])[H])C([H])([H])[H])C3([H])[H])c([H])c([H])c2C1([H])[H]

>  <smiles>  (52) 
[H]c1c([H])c([H])c2c(c1[H])C([H])([H])C([H])([H])C([H])([H])C2([H])N([H])C(=O)C1([H])N(C(=O)C([H])(N([H])C(=O)C([H])(N([H])C([H])([H])[H])C([H])([H])[H])C(C([H])([H])[H])(C([H])([H])[H])C([H])([H])[H])C([H])([H])c2c([H])c(OC([H])([H])C3([H])C([H])([H])C([H])(C([H])(C([H])([H])[H])C([H])([H])C([H])(N([H])C(=O)N4C([H])([H])C([H])([H])C([H])([H])C([H])(n5nc(-c6c([H])c([H])c(Oc7c([H])c([H])c(F)c([H])c7F)c([H])c6[H])c(C(=O)N([H])[H])c5N([H])[H])C4([H])[H])C([H])([H])C([H])(C([H])([H])[H])C([H])([H])[H])C3([H])[H])c([H])c([H])c2C1([H])[H]

$$$$
52:0:0
     RDKit          3D

 93101  0  0  1  0  0  0  0  0999 V2000
  -29.0490  -16.7650   19.5430 C   0  0  0  0  0  3  0  0  0  0  0  0
  -28.7710  -18.1810   19.4740 C   0  0  0  0  0  3  0  0  0  0  0  0
  -30.9660  -17.2320   20.8580 C   0  0  0  0  0  3  0  0  0  0  0  0
  -30.1830  -16.2180   20.2170 C   0  0  0  0  0  0  0  0  0  0  0  0
  -29.6030  -19.1970   20.0440 C   0  0  0  0  0  0  0  0  0  0  0  0
  -30.7110  -18.6550   20.7740 C   0  0  0  0  0  0  0  0  0  0  0  0
  -30.7520  -14.7620   19.9780 C   0  0  0  0  0  0  0  0  0  0  0  0
  -30.3910  -12.5070   18.9530 C   0  0  0  0  0  2  0  0  0  0  0  0
  -29.4010  -12.6010   17.7730 C   0  0  0  0  0  2  0  0  0  0  0  0
  -27.9570  -12.4310   18.2810 C   0  0  0  0  0  2  0  0  0  0  0  0
  -27.6550  -13.3130   19.5210 C   0  0  0  0  0  3  0  0  0  0  0  0
  -28.7730  -13.2520   20.5810 C   0  0  0  0  0  2  0  0  0  0  0  0
  -30.0360  -13.5800   19.9170 N   0  0  0  0  0  0  0  0  0  0  0  0
  -31.9390  -14.7260   19.6390 O   0  0  0  0  0  0  0  0  0  0  0  0
  -25.3270  -13.9100   20.3970 C   0  0  0  0  0  0  0  0  0  0  0  0
  -24.2740  -13.1410   20.8110 C   0  0  0  0  0  0  0  0  0  0  0  0
  -24.7220  -11.7870   20.7400 C   0  0  0  0  0  0  0  0  0  0  0  0
  -26.3450  -13.0250   20.0900 N   0  0  0  0  0  0  0  0  0  0  0  0
  -25.9950  -11.7410   20.3640 N   0  0  0  0  0  0  0  0  0  0  0  0
  -23.9920  -10.5300   20.9530 C   0  0  0  0  0  0  0  0  0  0  0  0
  -24.4490   -9.5540   21.8660 C   0  0  0  0  0  3  0  0  0  0  0  0
  -23.7190   -8.3630   22.0670 C   0  0  0  0  0  3  0  0  0  0  0  0
  -22.5160   -8.1390   21.3550 C   0  0  0  0  0  0  0  0  0  0  0  0
  -22.0780   -9.1020   20.4300 C   0  0  0  0  0  3  0  0  0  0  0  0
  -22.8100  -10.2850   20.2270 C   0  0  0  0  0  3  0  0  0  0  0  0
  -21.7540   -7.0010   21.4660 O   0  0  0  0  0  0  0  0  0  0  0  0
  -21.7260   -6.2630   22.6230 C   0  0  0  0  0  0  0  0  0  0  0  0
  -21.3330   -6.8280   23.8560 C   0  0  0  0  0  3  0  0  0  0  0  0
  -21.2520   -6.0180   25.0070 C   0  0  0  0  0  3  0  0  0  0  0  0
  -21.5520   -4.6460   24.9250 C   0  0  0  0  0  0  0  0  0  0  0  0
  -21.9390   -4.0810   23.6970 C   0  0  0  0  0  3  0  0  0  0  0  0
  -22.0220   -4.8880   22.5480 C   0  0  0  0  0  0  0  0  0  0  0  0
  -22.3740   -4.3350   21.3630 F   0  0  0  0  0  0  0  0  0  0  0  0
  -21.4670   -3.8650   26.0280 F   0  0  0  0  0  0  0  0  0  0  0  0
  -22.8970  -13.6290   21.1570 C   0  0  0  0  0  0  0  0  0  0  0  0
  -22.2090  -12.9330   22.0530 N   0  0  0  0  0  0  0  0  0  0  0  0
  -22.4450  -14.6640   20.6690 O   0  0  0  0  0  0  0  0  0  0  0  0
  -22.5900  -12.0950   22.4690 H   0  0  0  0  0  0  0  0  0  0  0  0
  -21.2880  -13.2420   22.3290 H   0  0  0  0  0  0  0  0  0  0  0  0
  -25.4980  -15.2820   20.2310 N   0  0  0  0  0  0  0  0  0  0  0  0
  -24.7520  -15.9470   20.4090 H   0  0  0  0  0  0  0  0  0  0  0  0
  -26.3530  -15.7220   19.9160 H   0  0  0  0  0  0  0  0  0  0  0  0
  -29.4630  -20.7530   19.5980 C   0  0  0  0  0  3  0  0  0  0  0  0
  -28.8260  -22.0110   20.4270 C   0  0  0  0  0  3  0  0  0  0  0  0
  -28.8910  -23.5310   19.7880 C   0  0  0  0  0  3  0  0  0  0  0  0
  -28.1750  -24.8340   20.4740 C   0  0  0  0  0  3  0  0  0  0  0  0
  -28.3800  -26.2700   20.0160 O   0  0  0  0  0  0  0  0  0  0  0  0
  -24.6130  -31.6920   23.1260 C   0  0  0  0  0  0  0  0  0  0  0  0
  -27.2800  -27.1680   20.0050 C   0  0  0  0  0  0  0  0  0  0  0  0
  -23.4370  -30.3130   21.4530 C   0  0  0  0  0  3  0  0  0  0  0  0
  -24.9120  -28.8040   19.9990 C   0  0  0  0  0  0  0  0  0  0  0  0
  -25.9780  -30.6520   21.2910 C   0  0  0  0  0  2  0  0  0  0  0  0
  -26.0770  -29.2810   20.6150 C   0  0  0  0  0  0  0  0  0  0  0  0
  -27.2670  -28.4780   20.6000 C   0  0  0  0  0  3  0  0  0  0  0  0
  -26.0970  -26.7670   19.3530 C   0  0  0  0  0  3  0  0  0  0  0  0
  -24.9290  -27.5570   19.3550 C   0  0  0  0  0  3  0  0  0  0  0  0
  -23.6670  -29.6690   20.0600 C   0  0  0  0  0  2  0  0  0  0  0  0
  -24.6950  -30.9030   22.0130 N   0  0  0  0  0  0  0  0  0  0  0  0
  -23.5220  -31.9460   23.6590 O   0  0  0  0  0  0  0  0  0  0  0  0
  -22.7770  -29.2720   22.3880 C   0  0  0  0  0  0  0  0  0  0  0  0
  -21.4520  -29.0830   22.2540 N   0  0  0  0  0  0  0  0  0  0  0  0
  -23.4590  -28.6350   23.1970 O   0  0  0  0  0  0  0  0  0  0  0  0
  -20.9610  -29.6500   21.5770 H   0  0  0  0  0  0  0  0  0  0  0  0
  -18.0890  -27.8250   22.7100 C   0  0  0  0  0  0  0  0  0  0  0  0
  -20.6420  -28.1190   23.0010 C   0  0  0  0  0  3  0  0  0  0  0  0
  -20.7680  -26.7000   22.3990 C   0  0  0  0  0  2  0  0  0  0  0  0
  -19.6780  -26.3810   21.3720 C   0  0  0  0  0  2  0  0  0  0  0  0
  -18.2900  -26.4920   22.0090 C   0  0  0  0  0  2  0  0  0  0  0  0
  -19.1920  -28.5970   23.1610 C   0  0  0  0  0  0  0  0  0  0  0  0
  -18.9510  -29.8440   23.7750 C   0  0  0  0  0  3  0  0  0  0  0  0
  -17.6360  -30.3210   23.9430 C   0  0  0  0  0  3  0  0  0  0  0  0
  -16.5470  -29.5460   23.5090 C   0  0  0  0  0  3  0  0  0  0  0  0
  -16.7730  -28.3010   22.8980 C   0  0  0  0  0  3  0  0  0  0  0  0
  -25.8820  -32.3290   23.7670 C   0  0  0  0  0  3  0  0  0  0  0  0
  -25.5520  -33.7160   24.1270 N   0  0  0  0  0  0  0  0  0  0  0  0
  -25.8670  -34.7900   23.3910 C   0  0  0  0  0  0  0  0  0  0  0  0
  -26.5350  -34.7180   22.3560 O   0  0  0  0  0  0  0  0  0  0  0  0
  -24.9580  -33.8440   24.9340 H   0  0  0  0  0  0  0  0  0  0  0  0
  -24.1080  -36.5650   23.0870 C   0  0  0  0  0  1  0  0  0  0  0  0
  -25.3620  -36.1640   23.8800 C   0  0  0  0  0  3  0  0  0  0  0  0
  -27.4900  -37.0650   24.7110 C   0  0  0  0  0  1  0  0  0  0  0  0
  -26.3780  -37.2340   23.7800 N   0  0  0  0  0  0  0  0  0  0  0  0
  -25.9580  -38.1450   23.9520 H   0  0  0  0  0  0  0  0  0  0  0  0
  -26.4010  -31.5390   25.0320 C   0  0  1  0  0  0  0  0  0  0  0  0
  -25.3060  -31.2710   26.0930 C   0  0  0  0  0  1  0  0  0  0  0  0
  -26.9990  -30.1750   24.6170 C   0  0  0  0  0  1  0  0  0  0  0  0
  -27.5420  -32.3330   25.7110 C   0  0  0  0  0  1  0  0  0  0  0  0
  -31.7240  -19.5950   21.4140 C   0  0  0  0  0  2  0  0  0  0  0  0
  -33.8810  -18.8190   20.2350 C   0  0  0  0  0  1  0  0  0  0  0  0
  -32.8860  -19.9740   20.4670 C   0  0  0  0  0  3  0  0  0  0  0  0
  -33.6160  -21.2240   20.9740 C   0  0  0  0  0  0  0  0  0  0  0  0
  -33.3960  -22.5270   20.2170 C   0  0  0  0  0  1  0  0  0  0  0  0
  -34.3560  -21.1850   21.9600 O   0  0  0  0  0  0  0  0  0  0  0  0
  1  4  1  0
  2  1  2  0
  2  5  1  0
  4  3  2  0
  5  6  2  0
  6  3  1  0
  6 88  1  0
  7  4  1  0
  8 13  1  0
  9 10  1  0
  9  8  1  0
 11 10  1  0
 11 18  1  0
 11 12  1  0
 13  7  1  0
 13 12  1  0
 14  7  2  0
 15 16  2  0
 16 35  1  0
 17 16  1  0
 17 20  1  0
 18 19  1  0
 18 15  1  0
 19 17  2  0
 20 21  1  0
 21 22  2  0
 23 26  1  0
 23 22  1  0
 24 23  2  0
 25 24  1  0
 25 20  2  0
 26 27  1  0
 27 28  1  0
 28 29  2  0
 30 29  1  0
 30 34  1  0
 31 30  2  0
 32 27  2  0
 32 31  1  0
 33 32  1  0
 35 36  1  0
 36 39  1  0
 36 38  1  0
 37 35  2  0
 40 15  1  0
 40 41  1  0
 42 40  1  0
 43  5  1  0
 43 44  2  0
 45 44  1  0
 45 46  2  0
 47 46  1  0
 48 59  2  0
 49 47  1  0
 49 54  1  0
 50 58  1  0
 50 60  1  0
 51 57  1  0
 51 53  1  0
 52 58  1  0
 53 52  1  0
 54 53  2  0
 55 56  1  0
 55 49  2  0
 56 51  2  0
 57 50  1  0
 58 48  1  0
 60 62  2  0
 61 60  1  0
 63 61  1  0
 64 73  2  0
 64 69  1  0
 65 61  1  0
 65 69  1  0
 66 65  1  0
 67 68  1  0
 67 66  1  0
 68 64  1  0
 69 70  2  0
 70 71  1  0
 72 71  2  0
 73 72  1  0
 74 48  1  0
 74 75  1  0
 74 84  1  0
 75 78  1  0
 76 80  1  0
 76 75  1  0
 77 76  2  0
 80 79  1  0
 82 80  1  0
 82 83  1  0
 82 81  1  0
 84 87  1  1
 84 85  1  0
 86 84  1  0
 90 89  1  0
 90 91  1  0
 90 88  1  0
 91 93  2  0
 92 91  1  0
M  ISO  4   4 100   7 100  46 101  47 101
M  END
>  <TORSDO>  (53) 
F 23

>  <SCORE>  (53) 
-12.707

>  <name>  (53) 
52

>  <ligand_id>  (53) 
52

>  <original_smiles>  (53) 
[H]c1c([H])c([H])c2c(c1[H])C([H])([H])C([H])([H])C([H])([H])C2([H])N([H])C(=O)C1([H])N(C(=O)C([H])(N([H])C(=O)C([H])(N([H])C([H])([H])[H])C([H])([H])[H])C(C([H])([H])[H])(C([H])([H])[H])C([H])([H])[H])C([H])([H])c2c([H])c(OC([H])([H])C([H])([H])C([H])([H])C([H])([H])c3c([H])c([H])c(C(=O)N4C([H])([H])C([H])([H])C([H])([H])C([H])(n5nc(-c6c([H])c([H])c(Oc7c([H])c([H])c(F)c([H])c7F)c([H])c6[H])c(C(=O)N([H])[H])c5N([H])[H])C4([H])[H])c([H])c3C([H])([H])C([H])(C(=O)C([H])([H])[H])C([H])([H])[H])c([H])c([H])c2C1([H])[H]

>  <smiles>  (53) 
[H]c1c([H])c([H])c2c(c1[H])C([H])([H])C([H])([H])C([H])([H])C2([H])N([H])C(=O)C1([H])N(C(=O)C([H])(N([H])C(=O)C([H])(N([H])C([H])([H])[H])C([H])([H])[H])C(C([H])([H])[H])(C([H])([H])[H])C([H])([H])[H])C([H])([H])c2c([H])c(OC([H])([H])C([H])([H])C([H])([H])C([H])([H])c3c([H])c([H])c(C(=O)N4C([H])([H])C([H])([H])C([H])([H])C([H])(n5nc(-c6c([H])c([H])c(Oc7c([H])c([H])c(F)c([H])c7F)c([H])c6[H])c(C(=O)N([H])[H])c5N([H])[H])C4([H])[H])c([H])c3C([H])([H])C([H])(C(=O)C([H])([H])[H])C([H])([H])[H])c([H])c([H])c2C1([H])[H]

$$$$
53:0:0
     RDKit          3D

 94102  0  0  1  0  0  0  0  0999 V2000
  -30.7190  -15.2900   20.5680 C   0  0  0  0  0  0  0  0  0  0  0  0
  -30.3590  -13.4230   18.8780 C   0  0  0  0  0  2  0  0  0  0  0  0
  -29.3310  -13.7580   17.7750 C   0  0  0  0  0  2  0  0  0  0  0  0
  -27.8920  -13.4860   18.2510 C   0  0  0  0  0  2  0  0  0  0  0  0
  -27.6250  -13.9640   19.7020 C   0  0  0  0  0  3  0  0  0  0  0  0
  -28.7680  -13.6040   20.6690 C   0  0  0  0  0  2  0  0  0  0  0  0
  -29.9900  -14.1910   20.1030 N   0  0  0  0  0  0  0  0  0  0  0  0
  -31.9390  -15.2480   20.3830 O   0  0  0  0  0  0  0  0  0  0  0  0
  -29.0820  -18.8260   20.8840 C   0  0  0  0  0  2  0  0  0  0  0  0
  -30.6710  -17.5570   22.0710 C   0  0  0  0  0  2  0  0  0  0  0  0
  -29.0430  -17.3210   20.3940 C   0  0  0  0  0  3  0  0  0  0  0  0
  -29.6980  -18.8700   22.2730 C   0  0  0  0  0  3  0  0  0  0  0  0
  -30.1200  -16.5090   21.0610 N   0  0  0  0  0  0  0  0  0  0  0  0
  -25.2210  -14.3410   20.4950 C   0  0  0  0  0  0  0  0  0  0  0  0
  -24.2040  -13.4770   20.7880 C   0  0  0  0  0  0  0  0  0  0  0  0
  -24.7560  -12.1650   20.6620 C   0  0  0  0  0  0  0  0  0  0  0  0
  -26.3170  -13.5510   20.1910 N   0  0  0  0  0  0  0  0  0  0  0  0
  -26.0480  -12.2320   20.3630 N   0  0  0  0  0  0  0  0  0  0  0  0
  -24.1130  -10.8500   20.7540 C   0  0  0  0  0  0  0  0  0  0  0  0
  -24.6260   -9.8350   21.5930 C   0  0  0  0  0  3  0  0  0  0  0  0
  -23.9780   -8.5840   21.6790 C   0  0  0  0  0  3  0  0  0  0  0  0
  -22.8050   -8.3410   20.9270 C   0  0  0  0  0  0  0  0  0  0  0  0
  -22.3130   -9.3450   20.0760 C   0  0  0  0  0  3  0  0  0  0  0  0
  -22.9620  -10.5870   19.9860 C   0  0  0  0  0  3  0  0  0  0  0  0
  -22.1220   -7.1480   20.9290 O   0  0  0  0  0  0  0  0  0  0  0  0
  -22.1670   -6.2960   22.0040 C   0  0  0  0  0  0  0  0  0  0  0  0
  -21.8080   -6.7160   23.3040 C   0  0  0  0  0  3  0  0  0  0  0  0
  -21.7980   -5.7900   24.3650 C   0  0  0  0  0  3  0  0  0  0  0  0
  -22.1400   -4.4440   24.1300 C   0  0  0  0  0  0  0  0  0  0  0  0
  -22.4940   -4.0230   22.8360 C   0  0  0  0  0  3  0  0  0  0  0  0
  -22.5030   -4.9470   21.7760 C   0  0  0  0  0  0  0  0  0  0  0  0
  -22.8240   -4.5320   20.5260 F   0  0  0  0  0  0  0  0  0  0  0  0
  -22.1220   -3.5520   25.1470 F   0  0  0  0  0  0  0  0  0  0  0  0
  -22.7800  -13.8440   21.0770 C   0  0  0  0  0  0  0  0  0  0  0  0
  -22.1030  -13.0660   21.9130 N   0  0  0  0  0  0  0  0  0  0  0  0
  -22.2710  -14.8570   20.5970 O   0  0  0  0  0  0  0  0  0  0  0  0
  -22.5270  -12.2460   22.3210 H   0  0  0  0  0  0  0  0  0  0  0  0
  -21.1470  -13.2930   22.1480 H   0  0  0  0  0  0  0  0  0  0  0  0
  -25.2960  -15.7280   20.4460 N   0  0  0  0  0  0  0  0  0  0  0  0
  -24.4910  -16.3100   20.6520 H   0  0  0  0  0  0  0  0  0  0  0  0
  -26.1450  -16.2560   20.3200 H   0  0  0  0  0  0  0  0  0  0  0  0
  -30.1900  -20.2820   22.8350 N   0  0  0  0  0  4  0  0  0  0  0  0
  -30.9050  -20.6180   22.2100 H   0  0  0  0  0  0  0  0  0  0  0  0
  -30.6640  -20.0650   23.6970 H   0  0  0  0  0  0  0  0  0  0  0  0
  -29.2560  -21.5270   23.1740 C   0  0  0  0  0  3  0  0  0  0  0  0
  -29.8110  -23.1230   23.3860 C   0  0  0  0  0  3  0  0  0  0  0  0
  -28.8600  -24.4810   23.7490 C   0  0  0  0  0  2  0  0  0  0  0  0
  -29.1520  -25.9980   23.4970 O   0  0  0  0  0  0  0  0  0  0  0  0
  -28.7300  -32.8960   26.0770 C   0  0  0  0  0  0  0  0  0  0  0  0
  -28.3910  -27.0500   24.1340 C   0  0  0  0  0  0  0  0  0  0  0  0
  -27.1820  -31.2270   27.0210 C   0  0  0  0  0  3  0  0  0  0  0  0
  -26.9440  -29.0300   25.7090 C   0  0  0  0  0  0  0  0  0  0  0  0
  -28.0040  -30.9870   24.5960 C   0  0  0  0  0  2  0  0  0  0  0  0
  -27.8350  -29.4620   24.7190 C   0  0  0  0  0  0  0  0  0  0  0  0
  -28.5380  -28.4820   23.9210 C   0  0  0  0  0  3  0  0  0  0  0  0
  -27.4230  -26.7030   25.1030 C   0  0  0  0  0  3  0  0  0  0  0  0
  -26.7230  -27.6550   25.8770 C   0  0  0  0  0  3  0  0  0  0  0  0
  -26.2470  -30.0750   26.5670 C   0  0  0  0  0  2  0  0  0  0  0  0
  -28.0220  -31.7400   25.8910 N   0  0  0  0  0  0  0  0  0  0  0  0
  -28.6740  -33.5270   27.1440 O   0  0  0  0  0  0  0  0  0  0  0  0
  -28.0150  -30.7600   28.2410 C   0  0  0  0  0  0  0  0  0  0  0  0
  -27.4880  -30.9700   29.4610 N   0  0  0  0  0  0  0  0  0  0  0  0
  -29.1030  -30.2010   28.0770 O   0  0  0  0  0  0  0  0  0  0  0  0
  -26.5980  -31.4440   29.5170 H   0  0  0  0  0  0  0  0  0  0  0  0
  -27.1280  -31.1700   33.0590 C   0  0  0  0  0  0  0  0  0  0  0  0
  -28.0840  -30.5610   30.7350 C   0  0  0  0  0  3  0  0  0  0  0  0
  -27.7120  -29.1010   31.0800 C   0  0  0  0  0  2  0  0  0  0  0  0
  -26.4640  -28.9880   31.9630 C   0  0  0  0  0  2  0  0  0  0  0  0
  -26.6700  -29.7390   33.2820 C   0  0  0  0  0  2  0  0  0  0  0  0
  -27.7770  -31.5600   31.8580 C   0  0  0  0  0  0  0  0  0  0  0  0
  -28.1530  -32.9100   31.6910 C   0  0  0  0  0  3  0  0  0  0  0  0
  -27.8940  -33.8600   32.6960 C   0  0  0  0  0  3  0  0  0  0  0  0
  -27.2630  -33.4660   33.8890 C   0  0  0  0  0  3  0  0  0  0  0  0
  -26.8850  -32.1230   34.0700 C   0  0  0  0  0  3  0  0  0  0  0  0
  -29.6280  -33.4910   24.9490 C   0  0  0  0  0  3  0  0  0  0  0  0
  -31.1590  -33.1530   25.1340 C   0  0  1  0  0  0  0  0  0  0  0  0
  -31.7090  -33.4960   26.5380 C   0  0  0  0  0  1  0  0  0  0  0  0
  -31.4260  -31.6510   24.8810 C   0  0  0  0  0  1  0  0  0  0  0  0
  -31.9960  -33.9300   24.0910 C   0  0  0  0  0  1  0  0  0  0  0  0
  -29.4240  -34.9480   24.9360 N   0  0  0  0  0  0  0  0  0  0  0  0
  -28.6250  -35.6010   24.0830 C   0  0  0  0  0  0  0  0  0  0  0  0
  -28.0180  -35.0350   23.1690 O   0  0  0  0  0  0  0  0  0  0  0  0
  -29.8460  -35.4690   25.6910 H   0  0  0  0  0  0  0  0  0  0  0  0
  -27.1550  -37.4230   25.0110 C   0  0  0  0  0  1  0  0  0  0  0  0
  -28.4700  -37.1240   24.2720 C   0  0  0  0  0  3  0  0  0  0  0  0
  -29.8190  -37.8670   22.3600 C   0  0  0  0  0  1  0  0  0  0  0  0
  -28.5070  -37.8830   23.0030 N   0  0  0  0  0  0  0  0  0  0  0  0
  -28.2400  -38.8520   23.1540 H   0  0  0  0  0  0  0  0  0  0  0  0
  -29.1020  -17.3310   18.8410 C   0  0  0  0  0  0  0  0  0  0  0  0
  -29.9730  -16.7090   18.2300 O   0  0  0  0  0  0  0  0  0  0  0  0
  -26.7040  -18.2930   18.5320 C   0  0  0  0  0  1  0  0  0  0  0  0
  -28.1720  -18.2950   18.0550 C   0  0  0  0  0  3  0  0  0  0  0  0
  -27.6550  -19.2040   15.6830 C   0  0  0  0  0  1  0  0  0  0  0  0
  -28.2650  -18.0720   16.5240 C   0  0  0  0  0  2  0  0  0  0  0  0
  1 13  1  0
  2  7  1  0
  3  4  1  0
  3  2  1  0
  5  4  1  0
  5 17  1  0
  5  6  1  0
  7  1  1  0
  7  6  1  0
  8  1  2  0
  9 12  1  0
 10 12  1  0
 11 89  1  0
 11  9  1  0
 11 13  1  0
 12 42  1  0
 13 10  1  0
 14 15  2  0
 15 34  1  0
 16 19  1  0
 16 15  1  0
 17 18  1  0
 17 14  1  0
 18 16  2  0
 19 20  1  0
 20 21  2  0
 22 25  1  0
 22 21  1  0
 23 22  2  0
 24 23  1  0
 24 19  2  0
 25 26  1  0
 26 27  1  0
 27 28  2  0
 29 28  1  0
 29 33  1  0
 30 29  2  0
 31 26  2  0
 31 30  1  0
 32 31  1  0
 34 35  1  0
 35 38  1  0
 35 37  1  0
 36 34  2  0
 39 14  1  0
 39 40  1  0
 41 39  1  0
 42 45  1  0
 42 44  1  0
 43 42  1  0
 45 46  2  0
 46 47  1  0
 48 47  1  0
 48 50  1  0
 49 60  2  0
 50 56  1  0
 51 61  1  0
 52 57  1  0
 52 58  1  0
 53 54  1  0
 53 59  1  0
 54 52  2  0
 55 50  2  0
 55 54  1  0
 56 57  2  0
 58 51  1  0
 59 49  1  0
 59 51  1  0
 61 62  1  0
 62 64  1  0
 63 61  2  0
 65 69  1  0
 65 74  1  0
 66 62  1  0
 66 67  1  0
 66 70  1  0
 67 68  1  0
 68 69  1  0
 70 65  2  0
 71 70  1  0
 71 72  2  0
 72 73  1  0
 73 74  2  0
 75 76  1  0
 75 49  1  0
 76 77  1  1
 78 76  1  0
 79 76  1  0
 80 75  1  0
 80 83  1  0
 81 85  1  0
 81 80  1  0
 82 81  2  0
 85 84  1  0
 86 87  1  0
 87 88  1  0
 87 85  1  0
 90 89  2  0
 92 91  1  0
 92 89  1  0
 93 94  1  0
 94 92  1  0
M  ISO  4   1 100  13 100  47 101  48 101
M  END
>  <TORSDO>  (54) 
F 22

>  <SCORE>  (54) 
-4.389

>  <name>  (54) 
53

>  <ligand_id>  (54) 
53

>  <original_smiles>  (54) 
[H]c1c([H])c([H])c2c(c1[H])C([H])([H])C([H])([H])C([H])([H])C2([H])N([H])C(=O)C1([H])N(C(=O)C([H])(N([H])C(=O)C([H])(N([H])C([H])([H])[H])C([H])([H])[H])C(C([H])([H])[H])(C([H])([H])[H])C([H])([H])[H])C([H])([H])c2c([H])c(OC([H])([H])C([H])([H])C([H])([H])[N+]([H])([H])C3([H])C([H])([H])N(C(=O)N4C([H])([H])C([H])([H])C([H])([H])C([H])(n5nc(-c6c([H])c([H])c(Oc7c([H])c([H])c(F)c([H])c7F)c([H])c6[H])c(C(=O)N([H])[H])c5N([H])[H])C4([H])[H])C([H])(C(=O)C([H])(C([H])([H])[H])C([H])([H])C([H])([H])[H])C3([H])[H])c([H])c([H])c2C1([H])[H]

>  <smiles>  (54) 
[H]c1c([H])c([H])c2c(c1[H])C([H])([H])C([H])([H])C([H])([H])C2([H])N([H])C(=O)C1([H])N(C(=O)C([H])(N([H])C(=O)C([H])(N([H])C([H])([H])[H])C([H])([H])[H])C(C([H])([H])[H])(C([H])([H])[H])C([H])([H])[H])C([H])([H])c2c([H])c(OC([H])([H])C([H])([H])C([H])([H])[N+]([H])([H])C3([H])C([H])([H])N(C(=O)N4C([H])([H])C([H])([H])C([H])([H])C([H])(n5nc(-c6c([H])c([H])c(Oc7c([H])c([H])c(F)c([H])c7F)c([H])c6[H])c(C(=O)N([H])[H])c5N([H])[H])C4([H])[H])C([H])(C(=O)C([H])(C([H])([H])[H])C([H])([H])C([H])([H])[H])C3([H])[H])c([H])c([H])c2C1([H])[H]

$$$$
54:0:0
     RDKit          3D

 92100  0  0  1  0  0  0  0  0999 V2000
  -27.8900  -21.4420   20.1370 C   0  0  0  0  0  3  0  0  0  0  0  0
  -29.4420  -20.8290   21.8970 C   0  0  0  0  0  3  0  0  0  0  0  0
  -28.0170  -20.1540   19.5720 C   0  0  0  0  0  3  0  0  0  0  0  0
  -29.5600  -19.5370   21.3430 C   0  0  0  0  0  3  0  0  0  0  0  0
  -28.6360  -21.8080   21.2770 C   0  0  0  0  0  0  0  0  0  0  0  0
  -28.8850  -19.2030   20.1470 C   0  0  0  0  0  0  0  0  0  0  0  0
  -28.5900  -23.2350   21.8330 C   0  0  0  0  0  2  0  0  0  0  0  0
  -28.6570  -24.3500   20.7510 C   0  0  0  0  0  2  0  0  0  0  0  0
  -28.2190  -26.3420   22.3670 C   0  0  0  0  0  1  0  0  0  0  0  0
  -29.1060  -25.7540   21.2510 C   0  0  0  0  0  3  0  0  0  0  0  0
  -29.3500  -26.7930   20.1140 C   0  0  0  0  0  2  0  0  0  0  0  0
  -28.3280  -26.8740   19.1080 O   0  0  0  0  0  0  0  0  0  0  0  0
  -24.6840  -31.6550   22.9910 C   0  0  0  0  0  0  0  0  0  0  0  0
  -27.1820  -27.6040   19.3360 C   0  0  0  0  0  0  0  0  0  0  0  0
  -23.3850  -30.3630   21.3310 C   0  0  0  0  0  3  0  0  0  0  0  0
  -24.7510  -29.0200   19.6550 C   0  0  0  0  0  0  0  0  0  0  0  0
  -25.8640  -30.8480   20.9460 C   0  0  0  0  0  2  0  0  0  0  0  0
  -25.9380  -29.5330   20.1970 C   0  0  0  0  0  0  0  0  0  0  0  0
  -27.1580  -28.8290   20.0400 C   0  0  0  0  0  3  0  0  0  0  0  0
  -25.9840  -27.1220   18.7640 C   0  0  0  0  0  3  0  0  0  0  0  0
  -24.7710  -27.8140   18.9390 C   0  0  0  0  0  3  0  0  0  0  0  0
  -23.4890  -29.8230   19.8820 C   0  0  0  0  0  2  0  0  0  0  0  0
  -24.6680  -30.9620   21.8150 N   0  0  0  0  0  0  0  0  0  0  0  0
  -23.6430  -31.8260   23.6420 O   0  0  0  0  0  0  0  0  0  0  0  0
  -22.8510  -29.2350   22.2450 C   0  0  0  0  0  0  0  0  0  0  0  0
  -21.5380  -28.9640   22.1580 N   0  0  0  0  0  0  0  0  0  0  0  0
  -23.6140  -28.6020   22.9830 O   0  0  0  0  0  0  0  0  0  0  0  0
  -20.9780  -29.5250   21.5320 H   0  0  0  0  0  0  0  0  0  0  0  0
  -18.3030  -27.4290   22.6530 C   0  0  0  0  0  0  0  0  0  0  0  0
  -20.8320  -27.9220   22.8980 C   0  0  0  0  0  3  0  0  0  0  0  0
  -21.0590  -26.5350   22.2540 C   0  0  0  0  0  2  0  0  0  0  0  0
  -19.9720  -26.1520   21.2450 C   0  0  0  0  0  2  0  0  0  0  0  0
  -18.5950  -26.1350   21.9130 C   0  0  0  0  0  2  0  0  0  0  0  0
  -19.3540  -28.2750   23.1030 C   0  0  0  0  0  0  0  0  0  0  0  0
  -19.0260  -29.4830   23.7570 C   0  0  0  0  0  3  0  0  0  0  0  0
  -17.6840  -29.8470   23.9680 C   0  0  0  0  0  3  0  0  0  0  0  0
  -16.6490  -29.0010   23.5300 C   0  0  0  0  0  3  0  0  0  0  0  0
  -16.9600  -27.7920   22.8830 C   0  0  0  0  0  3  0  0  0  0  0  0
  -25.9980  -32.2830   23.5530 C   0  0  0  0  0  3  0  0  0  0  0  0
  -25.6670  -33.6170   24.0690 N   0  0  0  0  0  0  0  0  0  0  0  0
  -25.9010  -34.7610   23.4160 C   0  0  0  0  0  0  0  0  0  0  0  0
  -26.4960  -34.8060   22.3370 O   0  0  0  0  0  0  0  0  0  0  0  0
  -25.1430  -33.6510   24.9320 H   0  0  0  0  0  0  0  0  0  0  0  0
  -24.0950  -36.5110   23.3800 C   0  0  0  0  0  1  0  0  0  0  0  0
  -25.3990  -36.0690   24.0620 C   0  0  0  0  0  3  0  0  0  0  0  0
  -27.5480  -36.9360   24.8670 C   0  0  0  0  0  1  0  0  0  0  0  0
  -26.3860  -37.1710   24.0140 N   0  0  0  0  0  0  0  0  0  0  0  0
  -25.9560  -38.0480   24.2990 H   0  0  0  0  0  0  0  0  0  0  0  0
  -26.6630  -31.4010   24.6780 C   0  0  1  0  0  0  0  0  0  0  0  0
  -25.6910  -30.9970   25.8130 C   0  0  0  0  0  1  0  0  0  0  0  0
  -27.2500  -30.1040   24.0740 C   0  0  0  0  0  1  0  0  0  0  0  0
  -27.8490  -32.1690   25.3050 C   0  0  0  0  0  1  0  0  0  0  0  0
  -29.0800  -17.8180   19.5330 C   0  0  0  0  0  2  0  0  0  0  0  0
  -30.5320  -17.2700   19.6510 C   0  0  0  0  0  2  0  0  0  0  0  0
  -31.3180  -14.8600   19.8120 C   0  0  0  0  0  0  0  0  0  0  0  0
  -31.0620  -12.5610   18.9810 C   0  0  0  0  0  2  0  0  0  0  0  0
  -30.1120  -12.6570   17.7690 C   0  0  0  0  0  2  0  0  0  0  0  0
  -28.6390  -12.5490   18.2140 C   0  0  0  0  0  2  0  0  0  0  0  0
  -28.3050  -13.5050   19.3920 C   0  0  0  0  0  3  0  0  0  0  0  0
  -29.3780  -13.4170   20.5040 C   0  0  0  0  0  2  0  0  0  0  0  0
  -30.7010  -13.6490   19.8990 N   0  0  0  0  0  0  0  0  0  0  0  0
  -32.4270  -15.0280   19.3010 O   0  0  0  0  0  0  0  0  0  0  0  0
  -30.5140  -15.8840   20.1390 N   0  0  0  0  0  0  0  0  0  0  0  0
  -29.6720  -15.6080   20.6180 H   0  0  0  0  0  0  0  0  0  0  0  0
  -25.9660  -14.1960   20.2220 C   0  0  0  0  0  0  0  0  0  0  0  0
  -24.8900  -13.4610   20.6430 C   0  0  0  0  0  0  0  0  0  0  0  0
  -25.2910  -12.0960   20.5750 C   0  0  0  0  0  0  0  0  0  0  0  0
  -26.9600  -13.2770   19.9250 N   0  0  0  0  0  0  0  0  0  0  0  0
  -26.5600  -12.0090   20.1970 N   0  0  0  0  0  0  0  0  0  0  0  0
  -24.5210  -10.8620   20.7840 C   0  0  0  0  0  0  0  0  0  0  0  0
  -24.9010   -9.9160   21.7580 C   0  0  0  0  0  3  0  0  0  0  0  0
  -24.1350   -8.7440   21.9520 C   0  0  0  0  0  3  0  0  0  0  0  0
  -22.9730   -8.5180   21.1780 C   0  0  0  0  0  0  0  0  0  0  0  0
  -22.6160   -9.4550   20.1930 C   0  0  0  0  0  3  0  0  0  0  0  0
  -23.3790  -10.6150   19.9930 C   0  0  0  0  0  3  0  0  0  0  0  0
  -22.1740   -7.4040   21.2840 O   0  0  0  0  0  0  0  0  0  0  0  0
  -21.9970   -6.7590   22.4810 C   0  0  0  0  0  0  0  0  0  0  0  0
  -21.4620   -7.4200   23.6100 C   0  0  0  0  0  3  0  0  0  0  0  0
  -21.2300   -6.7020   24.8010 C   0  0  0  0  0  3  0  0  0  0  0  0
  -21.5190   -5.3250   24.8630 C   0  0  0  0  0  0  0  0  0  0  0  0
  -22.0460   -4.6660   23.7370 C   0  0  0  0  0  3  0  0  0  0  0  0
  -22.2840   -5.3800   22.5520 C   0  0  0  0  0  0  0  0  0  0  0  0
  -22.7670   -4.7350   21.4660 F   0  0  0  0  0  0  0  0  0  0  0  0
  -21.2890   -4.6350   26.0030 F   0  0  0  0  0  0  0  0  0  0  0  0
  -23.5290  -13.9940   20.9930 C   0  0  0  0  0  0  0  0  0  0  0  0
  -22.8210  -13.3280   21.8990 N   0  0  0  0  0  0  0  0  0  0  0  0
  -23.1080  -15.0360   20.4950 O   0  0  0  0  0  0  0  0  0  0  0  0
  -23.1660  -12.4760   22.3160 H   0  0  0  0  0  0  0  0  0  0  0  0
  -21.9070  -13.6700   22.1630 H   0  0  0  0  0  0  0  0  0  0  0  0
  -26.1680  -15.5620   20.0600 N   0  0  0  0  0  0  0  0  0  0  0  0
  -25.4020  -16.2150   20.1880 H   0  0  0  0  0  0  0  0  0  0  0  0
  -27.0030  -16.0010   19.6970 H   0  0  0  0  0  0  0  0  0  0  0  0
  1  5  1  0
  3  1  2  0
  3  6  1  0
  4  2  1  0
  5  7  1  0
  5  2  2  0
  6  4  2  0
  8 10  1  0
  8  7  1  0
 10  9  1  0
 11 10  1  0
 12 14  1  0
 12 11  1  0
 13 24  2  0
 14 19  1  0
 15 23  1  0
 15 25  1  0
 16 22  1  0
 16 18  1  0
 17 23  1  0
 18 17  1  0
 19 18  2  0
 20 21  1  0
 20 14  2  0
 21 16  2  0
 22 15  1  0
 23 13  1  0
 25 27  2  0
 26 25  1  0
 28 26  1  0
 29 38  2  0
 29 34  1  0
 30 26  1  0
 30 34  1  0
 31 30  1  0
 32 33  1  0
 32 31  1  0
 33 29  1  0
 34 35  2  0
 35 36  1  0
 37 36  2  0
 38 37  1  0
 39 13  1  0
 39 40  1  0
 39 49  1  0
 40 43  1  0
 41 45  1  0
 41 40  1  0
 42 41  2  0
 45 44  1  0
 47 45  1  0
 47 48  1  0
 47 46  1  0
 49 52  1  1
 49 50  1  0
 51 49  1  0
 53 54  1  0
 53  6  1  0
 54 63  1  0
 55 61  1  0
 55 63  1  0
 56 61  1  0
 57 58  1  0
 57 56  1  0
 59 58  1  0
 59 68  1  0
 59 60  1  0
 61 60  1  0
 62 55  2  0
 63 64  1  0
 65 66  2  0
 66 85  1  0
 67 66  1  0
 67 70  1  0
 68 69  1  0
 68 65  1  0
 69 67  2  0
 70 71  1  0
 71 72  2  0
 73 76  1  0
 73 72  1  0
 74 73  2  0
 75 74  1  0
 75 70  2  0
 76 77  1  0
 77 82  2  0
 77 78  1  0
 78 79  2  0
 79 80  1  0
 80 84  1  0
 81 80  2  0
 82 81  1  0
 83 82  1  0
 85 86  1  0
 86 89  1  0
 86 88  1  0
 87 85  2  0
 90 91  1  0
 90 65  1  0
 92 90  1  0
M  ISO  4  11 101  12 101  55 100  63 100
M  END
>  <TORSDO>  (55) 
F 22

>  <SCORE>  (55) 
-11.261

>  <name>  (55) 
54

>  <ligand_id>  (55) 
54

>  <original_smiles>  (55) 
[H]c1c([H])c([H])c2c(c1[H])C([H])([H])C([H])([H])C([H])([H])C2([H])N([H])C(=O)C1([H])N(C(=O)C([H])(N([H])C(=O)C([H])(N([H])C([H])([H])[H])C([H])([H])[H])C(C([H])([H])[H])(C([H])([H])[H])C([H])([H])[H])C([H])([H])c2c([H])c(OC([H])([H])C([H])(C([H])([H])[H])C([H])([H])C([H])([H])c3c([H])c([H])c(C([H])([H])C([H])([H])N([H])C(=O)N4C([H])([H])C([H])([H])C([H])([H])C([H])(n5nc(-c6c([H])c([H])c(Oc7c([H])c([H])c(F)c([H])c7F)c([H])c6[H])c(C(=O)N([H])[H])c5N([H])[H])C4([H])[H])c([H])c3[H])c([H])c([H])c2C1([H])[H]

>  <smiles>  (55) 
[H]c1c([H])c([H])c2c(c1[H])C([H])([H])C([H])([H])C([H])([H])C2([H])N([H])C(=O)C1([H])N(C(=O)C([H])(N([H])C(=O)C([H])(N([H])C([H])([H])[H])C([H])([H])[H])C(C([H])([H])[H])(C([H])([H])[H])C([H])([H])[H])C([H])([H])c2c([H])c(OC([H])([H])C([H])(C([H])([H])[H])C([H])([H])C([H])([H])c3c([H])c([H])c(C([H])([H])C([H])([H])N([H])C(=O)N4C([H])([H])C([H])([H])C([H])([H])C([H])(n5nc(-c6c([H])c([H])c(Oc7c([H])c([H])c(F)c([H])c7F)c([H])c6[H])c(C(=O)N([H])[H])c5N([H])[H])C4([H])[H])c([H])c3[H])c([H])c([H])c2C1([H])[H]

$$$$
55:0:0
     RDKit          3D

 88 96  0  0  1  0  0  0  0  0999 V2000
  -29.6410  -20.4880   20.0630 C   0  0  0  0  0  0  0  0  0  0  0  0
  -30.6640  -20.7290   20.7090 O   0  0  0  0  0  0  0  0  0  0  0  0
  -29.4570  -18.9270   19.5300 C   0  0  0  0  0  2  0  0  0  0  0  0
  -30.7440  -14.9800   19.5390 C   0  0  0  0  0  0  0  0  0  0  0  0
  -30.4240  -12.7110   18.4560 C   0  0  0  0  0  2  0  0  0  0  0  0
  -29.3140  -12.7780   17.3810 C   0  0  0  0  0  2  0  0  0  0  0  0
  -27.9140  -12.5830   17.9990 C   0  0  0  0  0  2  0  0  0  0  0  0
  -27.7220  -13.4030   19.3020 C   0  0  0  0  0  3  0  0  0  0  0  0
  -28.9330  -13.2710   20.2390 C   0  0  0  0  0  2  0  0  0  0  0  0
  -30.1150  -13.7340   19.4950 N   0  0  0  0  0  0  0  0  0  0  0  0
  -31.8110  -15.1000   18.9320 O   0  0  0  0  0  0  0  0  0  0  0  0
  -30.3570  -17.5970   21.6360 C   0  0  0  0  0  2  0  0  0  0  0  0
  -29.9240  -16.1370   21.6040 C   0  0  0  0  0  3  0  0  0  0  0  0
  -30.4080  -17.6830   20.1220 C   0  0  0  0  0  3  0  0  0  0  0  0
  -30.8020  -15.1510   22.4190 C   0  0  0  0  0  1  0  0  0  0  0  0
  -30.1100  -16.1190   20.1240 N   0  0  0  0  0  0  0  0  0  0  0  0
  -25.5230  -13.9600   20.4860 C   0  0  0  0  0  0  0  0  0  0  0  0
  -24.4950  -13.1800   20.9390 C   0  0  0  0  0  0  0  0  0  0  0  0
  -24.8810  -11.8270   20.6790 C   0  0  0  0  0  0  0  0  0  0  0  0
  -26.4680  -13.0860   19.9760 N   0  0  0  0  0  0  0  0  0  0  0  0
  -26.1010  -11.7890   20.1560 N   0  0  0  0  0  0  0  0  0  0  0  0
  -24.1310  -10.5740   20.8460 C   0  0  0  0  0  0  0  0  0  0  0  0
  -24.6070   -9.5310   21.6720 C   0  0  0  0  0  3  0  0  0  0  0  0
  -23.8590   -8.3440   21.8300 C   0  0  0  0  0  3  0  0  0  0  0  0
  -22.6190   -8.1930   21.1660 C   0  0  0  0  0  0  0  0  0  0  0  0
  -22.1590   -9.2240   20.3290 C   0  0  0  0  0  3  0  0  0  0  0  0
  -22.9070  -10.4030   20.1660 C   0  0  0  0  0  3  0  0  0  0  0  0
  -21.8360   -7.0660   21.2410 O   0  0  0  0  0  0  0  0  0  0  0  0
  -21.7880   -6.2970   22.3760 C   0  0  0  0  0  0  0  0  0  0  0  0
  -21.4130   -6.8360   23.6260 C   0  0  0  0  0  3  0  0  0  0  0  0
  -21.3100   -5.9960   24.7520 C   0  0  0  0  0  3  0  0  0  0  0  0
  -21.5660   -4.6170   24.6310 C   0  0  0  0  0  0  0  0  0  0  0  0
  -21.9320   -4.0770   23.3840 C   0  0  0  0  0  3  0  0  0  0  0  0
  -22.0400   -4.9150   22.2600 C   0  0  0  0  0  0  0  0  0  0  0  0
  -22.3720   -4.3850   21.0590 F   0  0  0  0  0  0  0  0  0  0  0  0
  -21.4620   -3.8080   25.7120 F   0  0  0  0  0  0  0  0  0  0  0  0
  -23.1840  -13.6640   21.4870 C   0  0  0  0  0  0  0  0  0  0  0  0
  -22.5860  -12.9130   22.4040 N   0  0  0  0  0  0  0  0  0  0  0  0
  -22.7060  -14.7430   21.1400 O   0  0  0  0  0  0  0  0  0  0  0  0
  -22.9930  -12.0400   22.7070 H   0  0  0  0  0  0  0  0  0  0  0  0
  -21.7090  -13.2170   22.8060 H   0  0  0  0  0  0  0  0  0  0  0  0
  -25.7320  -15.3370   20.4450 N   0  0  0  0  0  0  0  0  0  0  0  0
  -25.0390  -16.0070   20.7560 H   0  0  0  0  0  0  0  0  0  0  0  0
  -26.5630  -15.7710   20.0640 H   0  0  0  0  0  0  0  0  0  0  0  0
  -28.6380  -21.7720   19.7870 C   0  0  0  0  0  2  0  0  0  0  0  0
  -28.9200  -23.3540   20.3050 C   0  0  0  0  0  3  0  0  0  0  0  0
  -27.9640  -24.6910   19.9400 C   0  0  0  0  0  3  0  0  0  0  0  0
  -28.1800  -26.1760   20.3560 O   0  0  0  0  0  0  0  0  0  0  0  0
  -24.5830  -31.9260   23.2670 C   0  0  0  0  0  0  0  0  0  0  0  0
  -27.1240  -27.1590   20.2860 C   0  0  0  0  0  0  0  0  0  0  0  0
  -23.3710  -30.5110   21.6510 C   0  0  0  0  0  3  0  0  0  0  0  0
  -24.8050  -28.9100   20.2460 C   0  0  0  0  0  0  0  0  0  0  0  0
  -25.9250  -30.7640   21.4750 C   0  0  0  0  0  2  0  0  0  0  0  0
  -25.9910  -29.3640   20.8360 C   0  0  0  0  0  0  0  0  0  0  0  0
  -27.1540  -28.5050   20.8360 C   0  0  0  0  0  3  0  0  0  0  0  0
  -25.9020  -26.8010   19.6740 C   0  0  0  0  0  3  0  0  0  0  0  0
  -24.7690  -27.6380   19.6580 C   0  0  0  0  0  3  0  0  0  0  0  0
  -23.5840  -29.8140   20.2810 C   0  0  0  0  0  2  0  0  0  0  0  0
  -24.6460  -31.0890   22.1850 N   0  0  0  0  0  0  0  0  0  0  0  0
  -23.4990  -32.2220   23.7920 O   0  0  0  0  0  0  0  0  0  0  0  0
  -22.6960  -29.5200   22.6290 C   0  0  0  0  0  0  0  0  0  0  0  0
  -21.3770  -29.3090   22.4750 N   0  0  0  0  0  0  0  0  0  0  0  0
  -23.3620  -28.9430   23.4930 O   0  0  0  0  0  0  0  0  0  0  0  0
  -20.8940  -29.8360   21.7610 H   0  0  0  0  0  0  0  0  0  0  0  0
  -18.0270  -27.9880   22.8880 C   0  0  0  0  0  0  0  0  0  0  0  0
  -20.5560  -28.3780   23.2580 C   0  0  0  0  0  3  0  0  0  0  0  0
  -20.7440  -26.9210   22.7740 C   0  0  0  0  0  2  0  0  0  0  0  0
  -19.7080  -26.4920   21.7310 C   0  0  0  0  0  2  0  0  0  0  0  0
  -18.2910  -26.6130   22.3000 C   0  0  0  0  0  2  0  0  0  0  0  0
  -19.0890  -28.8220   23.3230 C   0  0  0  0  0  0  0  0  0  0  0  0
  -18.7860  -30.1020   23.8350 C   0  0  0  0  0  3  0  0  0  0  0  0
  -17.4540  -30.5480   23.9190 C   0  0  0  0  0  3  0  0  0  0  0  0
  -16.4050  -29.7120   23.4980 C   0  0  0  0  0  3  0  0  0  0  0  0
  -16.6920  -28.4340   22.9850 C   0  0  0  0  0  3  0  0  0  0  0  0
  -25.8650  -32.5680   23.8790 C   0  0  0  0  0  3  0  0  0  0  0  0
  -26.3590  -31.8440   25.1920 C   0  0  1  0  0  0  0  0  0  0  0  0
  -25.2490  -31.6490   26.2510 C   0  0  0  0  0  1  0  0  0  0  0  0
  -26.9460  -30.4510   24.8710 C   0  0  0  0  0  1  0  0  0  0  0  0
  -27.4930  -32.6650   25.8510 C   0  0  0  0  0  1  0  0  0  0  0  0
  -25.5660  -33.9810   24.1590 N   0  0  0  0  0  0  0  0  0  0  0  0
  -25.8780  -35.0060   23.3540 C   0  0  0  0  0  0  0  0  0  0  0  0
  -26.5160  -34.8640   22.3070 O   0  0  0  0  0  0  0  0  0  0  0  0
  -25.0000  -34.1680   24.9740 H   0  0  0  0  0  0  0  0  0  0  0  0
  -24.1490  -36.8040   22.9930 C   0  0  0  0  0  1  0  0  0  0  0  0
  -25.4110  -36.4120   23.7760 C   0  0  0  0  0  3  0  0  0  0  0  0
  -27.5720  -37.3240   24.5110 C   0  0  0  0  0  1  0  0  0  0  0  0
  -26.4430  -37.4570   23.5960 N   0  0  0  0  0  0  0  0  0  0  0  0
  -26.0400  -38.3820   23.7250 H   0  0  0  0  0  0  0  0  0  0  0  0
  1  2  2  0
  3  1  1  0
  4 16  1  0
  5 10  1  0
  6  7  1  0
  6  5  1  0
  8  7  1  0
  8 20  1  0
  8  9  1  0
 10  4  1  0
 10  9  1  0
 11  4  2  0
 13 12  1  0
 13 15  1  0
 14  3  1  0
 14 16  1  0
 14 12  1  0
 16 13  1  0
 17 18  2  0
 18 37  1  0
 19 22  1  0
 19 18  1  0
 20 21  1  0
 20 17  1  0
 21 19  2  0
 22 23  1  0
 23 24  2  0
 25 28  1  0
 25 24  1  0
 26 25  2  0
 27 26  1  0
 27 22  2  0
 28 29  1  0
 29 30  1  0
 30 31  2  0
 32 31  1  0
 32 36  1  0
 33 32  2  0
 34 29  2  0
 34 33  1  0
 35 34  1  0
 37 38  1  0
 38 40  1  0
 38 41  1  0
 39 37  2  0
 42 17  1  0
 42 43  1  0
 44 42  1  0
 45  1  1  0
 45 46  1  0
 47 46  2  0
 47 48  1  0
 49 60  2  0
 50 48  1  0
 50 55  1  0
 51 59  1  0
 51 61  1  0
 52 58  1  0
 52 54  1  0
 53 59  1  0
 54 55  2  0
 54 53  1  0
 56 50  2  0
 57 56  1  0
 57 52  2  0
 58 51  1  0
 59 49  1  0
 61 63  2  0
 62 61  1  0
 64 62  1  0
 65 74  2  0
 65 70  1  0
 66 62  1  0
 66 70  1  0
 67 66  1  0
 68 69  1  0
 68 67  1  0
 69 65  1  0
 70 71  2  0
 71 72  1  0
 73 72  2  0
 74 73  1  0
 75 49  1  0
 75 80  1  0
 75 76  1  0
 76 79  1  1
 76 77  1  0
 78 76  1  0
 80 83  1  0
 81 85  1  0
 81 80  1  0
 82 81  2  0
 85 84  1  0
 87 88  1  0
 87 85  1  0
 87 86  1  0
M  ISO  4   4 100  16 100  47 101  48 101
M  END
>  <TORSDO>  (56) 
F 20

>  <SCORE>  (56) 
-11.628

>  <name>  (56) 
55

>  <ligand_id>  (56) 
55

>  <original_smiles>  (56) 
[H]c1c([H])c([H])c2c(c1[H])C([H])([H])C([H])([H])C([H])([H])C2([H])N([H])C(=O)C1([H])N(C(=O)C([H])(N([H])C(=O)C([H])(N([H])C([H])([H])[H])C([H])([H])[H])C(C([H])([H])[H])(C([H])([H])[H])C([H])([H])[H])C([H])([H])c2c([H])c(OC([H])([H])C([H])([H])C([H])([H])C(=O)C([H])([H])C3([H])N(C(=O)N4C([H])([H])C([H])([H])C([H])([H])C([H])(n5nc(-c6c([H])c([H])c(Oc7c([H])c([H])c(F)c([H])c7F)c([H])c6[H])c(C(=O)N([H])[H])c5N([H])[H])C4([H])[H])C([H])(C([H])([H])[H])C3([H])[H])c([H])c([H])c2C1([H])[H]

>  <smiles>  (56) 
[H]c1c([H])c([H])c2c(c1[H])C([H])([H])C([H])([H])C([H])([H])C2([H])N([H])C(=O)C1([H])N(C(=O)C([H])(N([H])C(=O)C([H])(N([H])C([H])([H])[H])C([H])([H])[H])C(C([H])([H])[H])(C([H])([H])[H])C([H])([H])[H])C([H])([H])c2c([H])c(OC([H])([H])C([H])([H])C([H])([H])C(=O)C([H])([H])C3([H])N(C(=O)N4C([H])([H])C([H])([H])C([H])([H])C([H])(n5nc(-c6c([H])c([H])c(Oc7c([H])c([H])c(F)c([H])c7F)c([H])c6[H])c(C(=O)N([H])[H])c5N([H])[H])C4([H])[H])C([H])(C([H])([H])[H])C3([H])[H])c([H])c([H])c2C1([H])[H]

$$$$
56:0:0
     RDKit          3D

 95103  0  0  1  0  0  0  0  0999 V2000
  -30.4800  -21.6810   19.8520 C   0  0  0  0  0  3  0  0  0  0  0  0
  -28.1220  -21.1460   19.8840 C   0  0  0  0  0  3  0  0  0  0  0  0
  -30.7940  -20.3130   19.6870 C   0  0  0  0  0  3  0  0  0  0  0  0
  -28.4360  -19.7760   19.7000 C   0  0  0  0  0  3  0  0  0  0  0  0
  -29.1420  -22.1280   19.9380 C   0  0  0  0  0  0  0  0  0  0  0  0
  -29.7790  -19.3270   19.5720 C   0  0  0  0  0  0  0  0  0  0  0  0
  -31.6150  -17.5530   19.1280 C   0  0  0  0  0  1  0  0  0  0  0  0
  -30.0980  -17.8580   19.1370 C   0  0  2  0  0  0  0  0  0  0  0  0
  -30.2270  -18.7420   16.6420 C   0  0  0  0  0  1  0  0  0  0  0  0
  -29.6030  -17.7530   17.6570 C   0  0  0  0  0  2  0  0  0  0  0  0
  -29.2830  -16.7830   19.9920 C   0  0  0  0  0  2  0  0  0  0  0  0
  -30.6120  -14.5790   20.3970 C   0  0  0  0  0  0  0  0  0  0  0  0
  -30.3350  -12.3770   19.3430 C   0  0  0  0  0  2  0  0  0  0  0  0
  -29.4100  -12.6000   18.1280 C   0  0  0  0  0  2  0  0  0  0  0  0
  -27.9270  -12.4860   18.5290 C   0  0  0  0  0  2  0  0  0  0  0  0
  -27.5880  -13.2950   19.8070 C   0  0  0  0  0  3  0  0  0  0  0  0
  -28.6370  -13.0840   20.9220 C   0  0  0  0  0  2  0  0  0  0  0  0
  -29.9630  -13.3780   20.3600 N   0  0  0  0  0  0  0  0  0  0  0  0
  -31.7650  -14.6970   19.9880 O   0  0  0  0  0  0  0  0  0  0  0  0
  -29.8690  -15.6440   20.7790 N   0  0  0  0  0  0  0  0  0  0  0  0
  -29.2140  -15.3580   21.4920 H   0  0  0  0  0  0  0  0  0  0  0  0
  -25.2030  -13.9160   20.5090 C   0  0  0  0  0  0  0  0  0  0  0  0
  -24.1300  -13.1530   20.8760 C   0  0  0  0  0  0  0  0  0  0  0  0
  -24.5780  -11.8000   20.8460 C   0  0  0  0  0  0  0  0  0  0  0  0
  -26.2370  -13.0260   20.2800 N   0  0  0  0  0  0  0  0  0  0  0  0
  -25.8700  -11.7460   20.5460 N   0  0  0  0  0  0  0  0  0  0  0  0
  -23.8350  -10.5470   21.0330 C   0  0  0  0  0  0  0  0  0  0  0  0
  -24.2570   -9.5830   21.9730 C   0  0  0  0  0  3  0  0  0  0  0  0
  -23.5260   -8.3880   22.1480 C   0  0  0  0  0  3  0  0  0  0  0  0
  -22.3560   -8.1560   21.3870 C   0  0  0  0  0  0  0  0  0  0  0  0
  -21.9530   -9.1140   20.4380 C   0  0  0  0  0  3  0  0  0  0  0  0
  -22.6840  -10.2990   20.2620 C   0  0  0  0  0  3  0  0  0  0  0  0
  -21.5910   -7.0180   21.4730 O   0  0  0  0  0  0  0  0  0  0  0  0
  -21.5350   -6.2770   22.6260 C   0  0  0  0  0  0  0  0  0  0  0  0
  -21.1100   -6.8310   23.8520 C   0  0  0  0  0  3  0  0  0  0  0  0
  -20.9990   -6.0140   24.9950 C   0  0  0  0  0  3  0  0  0  0  0  0
  -21.3000   -4.6410   24.9100 C   0  0  0  0  0  0  0  0  0  0  0  0
  -21.7150   -4.0850   23.6870 C   0  0  0  0  0  3  0  0  0  0  0  0
  -21.8310   -4.9010   22.5480 C   0  0  0  0  0  0  0  0  0  0  0  0
  -22.2100   -4.3540   21.3680 F   0  0  0  0  0  0  0  0  0  0  0  0
  -21.1900   -3.8520   26.0060 F   0  0  0  0  0  0  0  0  0  0  0  0
  -22.7360  -13.6460   21.1450 C   0  0  0  0  0  0  0  0  0  0  0  0
  -21.9890  -12.9610   22.0020 N   0  0  0  0  0  0  0  0  0  0  0  0
  -22.3130  -14.6760   20.6210 O   0  0  0  0  0  0  0  0  0  0  0  0
  -22.3450  -12.1370   22.4590 H   0  0  0  0  0  0  0  0  0  0  0  0
  -21.0480  -13.2720   22.1990 H   0  0  0  0  0  0  0  0  0  0  0  0
  -25.3800  -15.2810   20.3320 N   0  0  0  0  0  0  0  0  0  0  0  0
  -24.6040  -15.9320   20.4070 H   0  0  0  0  0  0  0  0  0  0  0  0
  -26.2270  -15.7130   19.9900 H   0  0  0  0  0  0  0  0  0  0  0  0
  -28.7840  -23.6370   19.9560 C   0  0  0  0  0  2  0  0  0  0  0  0
  -29.4430  -23.8300   22.4260 C   0  0  0  0  0  1  0  0  0  0  0  0
  -30.7690  -25.1070   20.6940 C   0  0  0  0  0  1  0  0  0  0  0  0
  -29.3670  -24.5750   21.0740 C   0  0  1  0  0  0  0  0  0  0  0  0
  -28.4510  -25.8180   21.2970 C   0  0  0  0  0  2  0  0  0  0  0  0
  -28.4200  -26.7290   20.1920 O   0  0  0  0  0  0  0  0  0  0  0  0
  -24.6050  -31.9270   23.2400 C   0  0  0  0  0  0  0  0  0  0  0  0
  -27.2800  -27.4910   20.1830 C   0  0  0  0  0  0  0  0  0  0  0  0
  -23.4120  -30.5050   21.6060 C   0  0  0  0  0  3  0  0  0  0  0  0
  -24.8800  -28.9710   20.1910 C   0  0  0  0  0  0  0  0  0  0  0  0
  -25.9360  -30.8800   21.4110 C   0  0  0  0  0  2  0  0  0  0  0  0
  -26.0310  -29.5070   20.7780 C   0  0  0  0  0  0  0  0  0  0  0  0
  -27.2390  -28.7730   20.7750 C   0  0  0  0  0  3  0  0  0  0  0  0
  -26.1150  -26.9650   19.5880 C   0  0  0  0  0  3  0  0  0  0  0  0
  -24.9120  -27.6990   19.5960 C   0  0  0  0  0  3  0  0  0  0  0  0
  -23.6270  -29.8210   20.2300 C   0  0  0  0  0  2  0  0  0  0  0  0
  -24.6700  -31.1190   22.1430 N   0  0  0  0  0  0  0  0  0  0  0  0
  -23.5200  -32.1960   23.7750 O   0  0  0  0  0  0  0  0  0  0  0  0
  -22.7700  -29.4830   22.5720 C   0  0  0  0  0  0  0  0  0  0  0  0
  -21.4480  -29.2850   22.4380 N   0  0  0  0  0  0  0  0  0  0  0  0
  -23.4570  -28.8720   23.3940 O   0  0  0  0  0  0  0  0  0  0  0  0
  -20.9550  -29.8310   21.7440 H   0  0  0  0  0  0  0  0  0  0  0  0
  -18.0840  -28.0570   22.9190 C   0  0  0  0  0  0  0  0  0  0  0  0
  -20.6370  -28.3460   23.2100 C   0  0  0  0  0  3  0  0  0  0  0  0
  -20.7610  -26.9100   22.6500 C   0  0  0  0  0  2  0  0  0  0  0  0
  -19.6730  -26.5660   21.6290 C   0  0  0  0  0  2  0  0  0  0  0  0
  -18.2830  -26.7020   22.2590 C   0  0  0  0  0  2  0  0  0  0  0  0
  -19.1910  -28.8360   23.3510 C   0  0  0  0  0  0  0  0  0  0  0  0
  -18.9540  -30.1030   23.9260 C   0  0  0  0  0  3  0  0  0  0  0  0
  -17.6440  -30.5940   24.0700 C   0  0  0  0  0  3  0  0  0  0  0  0
  -16.5510  -29.8120   23.6560 C   0  0  0  0  0  3  0  0  0  0  0  0
  -16.7730  -28.5460   23.0880 C   0  0  0  0  0  3  0  0  0  0  0  0
  -25.8870  -32.5720   23.8550 C   0  0  0  0  0  3  0  0  0  0  0  0
  -25.5690  -33.9720   24.1720 N   0  0  0  0  0  0  0  0  0  0  0  0
  -25.9040  -35.0180   23.4050 C   0  0  0  0  0  0  0  0  0  0  0  0
  -26.5850  -34.9090   22.3820 O   0  0  0  0  0  0  0  0  0  0  0  0
  -24.9640  -34.1320   24.9650 H   0  0  0  0  0  0  0  0  0  0  0  0
  -24.1760  -36.8010   23.0100 C   0  0  0  0  0  1  0  0  0  0  0  0
  -25.4050  -36.4090   23.8450 C   0  0  0  0  0  3  0  0  0  0  0  0
  -27.5230  -37.3020   24.7070 C   0  0  0  0  0  1  0  0  0  0  0  0
  -26.4370  -37.4640   23.7430 N   0  0  0  0  0  0  0  0  0  0  0  0
  -26.0260  -38.3840   23.8800 H   0  0  0  0  0  0  0  0  0  0  0  0
  -26.4100  -31.8150   25.1370 C   0  0  1  0  0  0  0  0  0  0  0  0
  -25.3180  -31.5750   26.2060 C   0  0  0  0  0  1  0  0  0  0  0  0
  -27.0050  -30.4390   24.7520 C   0  0  0  0  0  1  0  0  0  0  0  0
  -27.5540  -32.6230   25.7940 C   0  0  0  0  0  1  0  0  0  0  0  0
  1  5  1  0
  2  5  2  0
  3  1  2  0
  4  2  1  0
  5 50  1  0
  6  3  1  0
  6  4  2  0
  8  7  1  6
  8  6  1  0
  8 11  1  0
  9 10  1  0
 10  8  1  0
 11 20  1  0
 12 20  1  0
 13 18  1  0
 14 15  1  0
 14 13  1  0
 16 15  1  0
 16 25  1  0
 16 17  1  0
 18 12  1  0
 18 17  1  0
 19 12  2  0
 20 21  1  0
 22 23  2  0
 23 42  1  0
 24 23  1  0
 24 27  1  0
 25 22  1  0
 25 26  1  0
 26 24  2  0
 27 28  1  0
 28 29  2  0
 30 33  1  0
 30 29  1  0
 31 30  2  0
 32 31  1  0
 32 27  2  0
 33 34  1  0
 34 35  1  0
 35 36  2  0
 37 36  1  0
 37 41  1  0
 38 37  2  0
 39 34  2  0
 39 38  1  0
 40 39  1  0
 42 43  1  0
 43 46  1  0
 43 45  1  0
 44 42  2  0
 47 48  1  0
 47 22  1  0
 49 47  1  0
 50 53  1  0
 53 52  1  6
 53 54  1  0
 53 51  1  0
 55 54  1  0
 56 67  2  0
 57 55  1  0
 57 62  1  0
 58 66  1  0
 58 68  1  0
 59 65  1  0
 59 61  1  0
 60 66  1  0
 61 60  1  0
 62 61  2  0
 63 64  1  0
 63 57  2  0
 64 59  2  0
 65 58  1  0
 66 56  1  0
 68 70  2  0
 69 68  1  0
 71 69  1  0
 72 81  2  0
 72 77  1  0
 73 69  1  0
 73 77  1  0
 74 73  1  0
 75 76  1  0
 75 74  1  0
 76 72  1  0
 77 78  2  0
 78 79  1  0
 80 79  2  0
 81 80  1  0
 82 56  1  0
 82 83  1  0
 82 92  1  0
 83 86  1  0
 84 88  1  0
 84 83  1  0
 85 84  2  0
 88 87  1  0
 90 88  1  0
 90 91  1  0
 90 89  1  0
 92 95  1  1
 92 93  1  0
 94 92  1  0
M  ISO  4  12 100  20 100  54 101  55 101
M  END
>  <TORSDO>  (57) 
F 22

>  <SCORE>  (57) 
-13.266

>  <name>  (57) 
56

>  <ligand_id>  (57) 
56

>  <original_smiles>  (57) 
[H]c1c([H])c([H])c2c(c1[H])C([H])([H])C([H])([H])C([H])([H])C2([H])N([H])C(=O)C1([H])N(C(=O)C([H])(N([H])C(=O)C([H])(N([H])C([H])([H])[H])C([H])([H])[H])C(C([H])([H])[H])(C([H])([H])[H])C([H])([H])[H])C([H])([H])c2c([H])c(OC([H])([H])C(C([H])([H])[H])(C([H])([H])[H])C([H])([H])c3c([H])c([H])c(C(C([H])([H])[H])(C([H])([H])N([H])C(=O)N4C([H])([H])C([H])([H])C([H])([H])C([H])(n5nc(-c6c([H])c([H])c(Oc7c([H])c([H])c(F)c([H])c7F)c([H])c6[H])c(C(=O)N([H])[H])c5N([H])[H])C4([H])[H])C([H])([H])C([H])([H])[H])c([H])c3[H])c([H])c([H])c2C1([H])[H]

>  <smiles>  (57) 
[H]c1c([H])c([H])c2c(c1[H])C([H])([H])C([H])([H])C([H])([H])C2([H])N([H])C(=O)C1([H])N(C(=O)C([H])(N([H])C(=O)C([H])(N([H])C([H])([H])[H])C([H])([H])[H])C(C([H])([H])[H])(C([H])([H])[H])C([H])([H])[H])C([H])([H])c2c([H])c(OC([H])([H])C(C([H])([H])[H])(C([H])([H])[H])C([H])([H])c3c([H])c([H])c(C(C([H])([H])[H])(C([H])([H])N([H])C(=O)N4C([H])([H])C([H])([H])C([H])([H])C([H])(n5nc(-c6c([H])c([H])c(Oc7c([H])c([H])c(F)c([H])c7F)c([H])c6[H])c(C(=O)N([H])[H])c5N([H])[H])C4([H])[H])C([H])([H])C([H])([H])[H])c([H])c3[H])c([H])c([H])c2C1([H])[H]

$$$$
57:0:0
     RDKit          3D

 90 99  0  0  1  0  0  0  0  0999 V2000
  -28.0280  -18.7640   19.8400 C   0  0  0  0  0  2  0  0  0  0  0  0
  -29.8530  -18.4110   21.2700 C   0  0  0  0  0  2  0  0  0  0  0  0
  -29.7970  -19.9430   18.8550 C   0  0  0  0  0  2  0  0  0  0  0  0
  -29.2770  -18.4390   19.0250 C   0  0  0  0  0  3  0  0  0  0  0  0
  -30.1560  -17.5380   19.9880 C   0  0  0  0  0  3  0  0  0  0  0  0
  -28.8170  -19.5620   20.8770 C   0  0  0  0  0  3  0  0  0  0  0  0
  -29.4180  -20.7180   20.0980 N   0  0  2  0  0  4  0  0  0  0  0  0
  -30.2550  -21.0000   20.5880 H   0  0  0  0  0  0  0  0  0  0  0  0
  -30.6530  -14.8700   19.8600 C   0  0  0  0  0  0  0  0  0  0  0  0
  -30.4580  -12.5380   18.9440 C   0  0  0  0  0  2  0  0  0  0  0  0
  -29.4500  -12.5400   17.7720 C   0  0  0  0  0  2  0  0  0  0  0  0
  -28.0100  -12.3530   18.2890 C   0  0  0  0  0  2  0  0  0  0  0  0
  -27.6880  -13.2760   19.4960 C   0  0  0  0  0  3  0  0  0  0  0  0
  -28.8110  -13.2490   20.5550 C   0  0  0  0  0  2  0  0  0  0  0  0
  -30.0570  -13.6220   19.8740 N   0  0  0  0  0  0  0  0  0  0  0  0
  -31.8220  -14.9660   19.4720 O   0  0  0  0  0  0  0  0  0  0  0  0
  -29.8660  -16.0080   20.0840 N   0  0  0  0  0  0  0  0  0  0  0  0
  -28.9200  -15.7810   20.3500 H   0  0  0  0  0  0  0  0  0  0  0  0
  -25.3710  -13.8730   20.4100 C   0  0  0  0  0  0  0  0  0  0  0  0
  -24.3230  -13.1050   20.8380 C   0  0  0  0  0  0  0  0  0  0  0  0
  -24.7610  -11.7490   20.7400 C   0  0  0  0  0  0  0  0  0  0  0  0
  -26.3810  -12.9880   20.0760 N   0  0  0  0  0  0  0  0  0  0  0  0
  -26.0260  -11.7010   20.3370 N   0  0  0  0  0  0  0  0  0  0  0  0
  -24.0310  -10.4920   20.9510 C   0  0  0  0  0  0  0  0  0  0  0  0
  -24.4900   -9.5140   21.8610 C   0  0  0  0  0  3  0  0  0  0  0  0
  -23.7590   -8.3230   22.0590 C   0  0  0  0  0  3  0  0  0  0  0  0
  -22.5560   -8.1010   21.3490 C   0  0  0  0  0  0  0  0  0  0  0  0
  -22.1160   -9.0670   20.4270 C   0  0  0  0  0  3  0  0  0  0  0  0
  -22.8470  -10.2490   20.2260 C   0  0  0  0  0  3  0  0  0  0  0  0
  -21.7940   -6.9630   21.4570 O   0  0  0  0  0  0  0  0  0  0  0  0
  -21.7440   -6.2380   22.6210 C   0  0  0  0  0  0  0  0  0  0  0  0
  -21.2900   -6.8040   23.8320 C   0  0  0  0  0  3  0  0  0  0  0  0
  -21.1890   -6.0050   24.9890 C   0  0  0  0  0  3  0  0  0  0  0  0
  -21.5320   -4.6410   24.9350 C   0  0  0  0  0  0  0  0  0  0  0  0
  -21.9790   -4.0740   23.7280 C   0  0  0  0  0  3  0  0  0  0  0  0
  -22.0810   -4.8710   22.5750 C   0  0  0  0  0  0  0  0  0  0  0  0
  -22.4930   -4.3140   21.4090 F   0  0  0  0  0  0  0  0  0  0  0  0
  -21.4270   -3.8700   26.0430 F   0  0  0  0  0  0  0  0  0  0  0  0
  -22.9560  -13.5950   21.2160 C   0  0  0  0  0  0  0  0  0  0  0  0
  -22.2780  -12.8940   22.1190 N   0  0  0  0  0  0  0  0  0  0  0  0
  -22.4970  -14.6350   20.7460 O   0  0  0  0  0  0  0  0  0  0  0  0
  -22.6620  -12.0530   22.5250 H   0  0  0  0  0  0  0  0  0  0  0  0
  -21.3630  -13.2070   22.4110 H   0  0  0  0  0  0  0  0  0  0  0  0
  -25.5390  -15.2470   20.2530 N   0  0  0  0  0  0  0  0  0  0  0  0
  -24.7770  -15.8970   20.4150 H   0  0  0  0  0  0  0  0  0  0  0  0
  -26.3370  -15.6750   19.8030 H   0  0  0  0  0  0  0  0  0  0  0  0
  -28.5290  -22.0040   19.9300 C   0  0  0  0  0  2  0  0  0  0  0  0
  -29.0790  -23.5530   20.1020 C   0  0  0  0  0  3  0  0  0  0  0  0
  -28.0600  -24.8300   19.8600 C   0  0  0  0  0  3  0  0  0  0  0  0
  -28.3360  -26.3090   20.1310 O   0  0  0  0  0  0  0  0  0  0  0  0
  -24.6630  -31.8130   23.2490 C   0  0  0  0  0  0  0  0  0  0  0  0
  -27.2620  -27.2520   20.0830 C   0  0  0  0  0  0  0  0  0  0  0  0
  -23.4670  -30.4680   21.5650 C   0  0  0  0  0  3  0  0  0  0  0  0
  -24.9200  -28.9480   20.0970 C   0  0  0  0  0  0  0  0  0  0  0  0
  -26.0170  -30.7550   21.4140 C   0  0  0  0  0  2  0  0  0  0  0  0
  -26.0940  -29.3890   20.7230 C   0  0  0  0  0  0  0  0  0  0  0  0
  -27.2660  -28.5550   20.7030 C   0  0  0  0  0  3  0  0  0  0  0  0
  -26.0630  -26.8980   19.4220 C   0  0  0  0  0  3  0  0  0  0  0  0
  -24.9140  -27.7130   19.4340 C   0  0  0  0  0  3  0  0  0  0  0  0
  -23.6900  -29.8350   20.1670 C   0  0  0  0  0  2  0  0  0  0  0  0
  -24.7350  -31.0310   22.1320 N   0  0  0  0  0  0  0  0  0  0  0  0
  -23.5750  -32.0830   23.7820 O   0  0  0  0  0  0  0  0  0  0  0  0
  -22.7890  -29.4300   22.4920 C   0  0  0  0  0  0  0  0  0  0  0  0
  -21.4620  -29.2550   22.3450 N   0  0  0  0  0  0  0  0  0  0  0  0
  -23.4560  -28.7860   23.3060 O   0  0  0  0  0  0  0  0  0  0  0  0
  -20.9830  -29.8280   21.6650 H   0  0  0  0  0  0  0  0  0  0  0  0
  -18.0820  -28.0330   22.7710 C   0  0  0  0  0  0  0  0  0  0  0  0
  -20.6360  -28.2960   23.0820 C   0  0  0  0  0  3  0  0  0  0  0  0
  -20.7520  -26.8800   22.4740 C   0  0  0  0  0  2  0  0  0  0  0  0
  -19.6650  -26.5770   21.4380 C   0  0  0  0  0  2  0  0  0  0  0  0
  -18.2740  -26.7010   22.0660 C   0  0  0  0  0  2  0  0  0  0  0  0
  -19.1920  -28.7890   23.2340 C   0  0  0  0  0  0  0  0  0  0  0  0
  -18.9590  -30.0370   23.8520 C   0  0  0  0  0  3  0  0  0  0  0  0
  -17.6500  -30.5270   24.0140 C   0  0  0  0  0  3  0  0  0  0  0  0
  -16.5550  -29.7670   23.5680 C   0  0  0  0  0  3  0  0  0  0  0  0
  -16.7710  -28.5220   22.9510 C   0  0  0  0  0  3  0  0  0  0  0  0
  -25.9410  -32.4240   23.9010 C   0  0  0  0  0  3  0  0  0  0  0  0
  -26.4180  -31.6420   25.1860 C   0  0  1  0  0  0  0  0  0  0  0  0
  -25.2990  -31.4180   26.2300 C   0  0  0  0  0  1  0  0  0  0  0  0
  -26.9880  -30.2560   24.8040 C   0  0  0  0  0  1  0  0  0  0  0  0
  -27.5660  -32.4160   25.8740 C   0  0  0  0  0  1  0  0  0  0  0  0
  -25.6450  -33.8270   24.2320 N   0  0  0  0  0  0  0  0  0  0  0  0
  -25.9710  -34.8770   23.4670 C   0  0  0  0  0  0  0  0  0  0  0  0
  -26.6220  -34.7670   22.4250 O   0  0  0  0  0  0  0  0  0  0  0  0
  -25.0670  -33.9870   25.0430 H   0  0  0  0  0  0  0  0  0  0  0  0
  -24.2340  -36.6730   23.1660 C   0  0  0  0  0  1  0  0  0  0  0  0
  -25.5050  -36.2710   23.9320 C   0  0  0  0  0  3  0  0  0  0  0  0
  -27.6670  -37.1670   24.6780 C   0  0  0  0  0  1  0  0  0  0  0  0
  -26.5340  -37.3210   23.7700 N   0  0  0  0  0  0  0  0  0  0  0  0
  -26.1320  -38.2440   23.9160 H   0  0  0  0  0  0  0  0  0  0  0  0
  3  7  1  0
  4  3  1  0
  4  1  1  0
  4  5  1  0
  5 17  1  0
  5  2  1  0
  6  1  1  0
  6  2  1  0
  7  8  1  1
  7  6  1  0
  9 15  1  0
  9 17  1  0
 10 15  1  0
 11 12  1  0
 11 10  1  0
 13 12  1  0
 13 22  1  0
 13 14  1  0
 15 14  1  0
 16  9  2  0
 17 18  1  0
 19 20  2  0
 20 39  1  0
 21 20  1  0
 21 24  1  0
 22 23  1  0
 22 19  1  0
 23 21  2  0
 24 25  1  0
 25 26  2  0
 27 30  1  0
 27 26  1  0
 28 27  2  0
 29 28  1  0
 29 24  2  0
 30 31  1  0
 31 32  1  0
 32 33  2  0
 34 33  1  0
 34 38  1  0
 35 34  2  0
 36 31  2  0
 36 35  1  0
 37 36  1  0
 39 40  1  0
 40 43  1  0
 40 42  1  0
 41 39  2  0
 44 19  1  0
 44 45  1  0
 46 44  1  0
 47  7  1  0
 47 48  1  0
 49 48  2  0
 49 50  1  0
 51 62  2  0
 52 50  1  0
 52 57  1  0
 53 61  1  0
 53 63  1  0
 54 60  1  0
 54 56  1  0
 55 61  1  0
 56 55  1  0
 57 56  2  0
 58 59  1  0
 58 52  2  0
 59 54  2  0
 60 53  1  0
 61 51  1  0
 63 65  2  0
 64 63  1  0
 66 64  1  0
 67 76  2  0
 67 72  1  0
 68 64  1  0
 68 72  1  0
 69 68  1  0
 70 71  1  0
 70 69  1  0
 71 67  1  0
 72 73  2  0
 73 74  1  0
 75 74  2  0
 76 75  1  0
 77 51  1  0
 77 82  1  0
 77 78  1  0
 78 81  1  1
 78 79  1  0
 80 78  1  0
 82 85  1  0
 83 87  1  0
 83 82  1  0
 84 83  2  0
 87 86  1  0
 89 90  1  0
 89 87  1  0
 89 88  1  0
M  ISO  4   9 100  17 100  49 101  50 101
M  END
>  <TORSDO>  (58) 
F 19

>  <SCORE>  (58) 
-13.796

>  <name>  (58) 
57

>  <ligand_id>  (58) 
57

>  <original_smiles>  (58) 
[H]c1c([H])c([H])c2c(c1[H])C([H])([H])C([H])([H])C([H])([H])C2([H])N([H])C(=O)C1([H])N(C(=O)C([H])(N([H])C(=O)C([H])(N([H])C([H])([H])[H])C([H])([H])[H])C(C([H])([H])[H])(C([H])([H])[H])C([H])([H])[H])C([H])([H])c2c([H])c(OC([H])([H])C([H])([H])C([H])([H])[N+]3([H])C([H])([H])C4([H])C([H])([H])C3([H])C([H])([H])C4([H])N([H])C(=O)N3C([H])([H])C([H])([H])C([H])([H])C([H])(n4nc(-c5c([H])c([H])c(Oc6c([H])c([H])c(F)c([H])c6F)c([H])c5[H])c(C(=O)N([H])[H])c4N([H])[H])C3([H])[H])c([H])c([H])c2C1([H])[H]

>  <smiles>  (58) 
[H]c1c([H])c([H])c2c(c1[H])C([H])([H])C([H])([H])C([H])([H])C2([H])N([H])C(=O)C1([H])N(C(=O)C([H])(N([H])C(=O)C([H])(N([H])C([H])([H])[H])C([H])([H])[H])C(C([H])([H])[H])(C([H])([H])[H])C([H])([H])[H])C([H])([H])c2c([H])c(OC([H])([H])C([H])([H])C([H])([H])[N+]3([H])C([H])([H])C4([H])C([H])([H])C3([H])C([H])([H])C4([H])N([H])C(=O)N3C([H])([H])C([H])([H])C([H])([H])C([H])(n4nc(-c5c([H])c([H])c(Oc6c([H])c([H])c(F)c([H])c6F)c([H])c5[H])c(C(=O)N([H])[H])c4N([H])[H])C3([H])[H])c([H])c([H])c2C1([H])[H]

$$$$
58:0:0
     RDKit          3D

 88 96  0  0  1  0  0  0  0  0999 V2000
  -29.1750  -20.3920   20.5810 C   0  0  0  0  0  0  0  0  0  0  0  0
  -28.9540  -20.3090   21.7930 O   0  0  0  0  0  0  0  0  0  0  0  0
  -31.3000  -19.4450   20.0360 C   0  0  0  0  0  2  0  0  0  0  0  0
  -31.5530  -18.2420   20.5890 C   0  0  0  0  0  2  0  0  0  0  0  0
  -29.8210  -19.1720   19.6910 C   0  0  0  0  0  3  0  0  0  0  0  0
  -30.4100  -17.5890   19.8610 C   0  0  0  0  0  3  0  0  0  0  0  0
  -30.5750  -14.9710   20.2620 C   0  0  0  0  0  0  0  0  0  0  0  0
  -30.3550  -12.6400   19.3160 C   0  0  0  0  0  2  0  0  0  0  0  0
  -29.4120  -12.6390   18.0920 C   0  0  0  0  0  2  0  0  0  0  0  0
  -27.9540  -12.4450   18.5440 C   0  0  0  0  0  2  0  0  0  0  0  0
  -27.5790  -13.3630   19.7380 C   0  0  0  0  0  3  0  0  0  0  0  0
  -28.6500  -13.3620   20.8500 C   0  0  0  0  0  2  0  0  0  0  0  0
  -29.9210  -13.7420   20.2240 N   0  0  0  0  0  0  0  0  0  0  0  0
  -31.7680  -14.9740   19.9430 O   0  0  0  0  0  0  0  0  0  0  0  0
  -29.8910  -16.2100   20.4050 N   0  0  0  0  0  0  0  0  0  0  0  0
  -28.9140  -16.1580   20.6560 H   0  0  0  0  0  0  0  0  0  0  0  0
  -25.2110  -13.9490   20.5100 C   0  0  0  0  0  0  0  0  0  0  0  0
  -24.1490  -13.1770   20.8910 C   0  0  0  0  0  0  0  0  0  0  0  0
  -24.6070  -11.8240   20.8530 C   0  0  0  0  0  0  0  0  0  0  0  0
  -26.2480  -13.0670   20.2540 N   0  0  0  0  0  0  0  0  0  0  0  0
  -25.8950  -11.7830   20.5270 N   0  0  0  0  0  0  0  0  0  0  0  0
  -23.8770  -10.5650   21.0460 C   0  0  0  0  0  0  0  0  0  0  0  0
  -24.3200   -9.5870   21.9650 C   0  0  0  0  0  3  0  0  0  0  0  0
  -23.5890   -8.3940   22.1490 C   0  0  0  0  0  3  0  0  0  0  0  0
  -22.4000   -8.1700   21.4140 C   0  0  0  0  0  0  0  0  0  0  0  0
  -21.9760   -9.1360   20.4850 C   0  0  0  0  0  3  0  0  0  0  0  0
  -22.7080  -10.3200   20.2990 C   0  0  0  0  0  3  0  0  0  0  0  0
  -21.6380   -7.0310   21.5100 O   0  0  0  0  0  0  0  0  0  0  0  0
  -21.6100   -6.2760   22.6550 C   0  0  0  0  0  0  0  0  0  0  0  0
  -21.2220   -6.8210   23.8990 C   0  0  0  0  0  3  0  0  0  0  0  0
  -21.1410   -5.9930   25.0360 C   0  0  0  0  0  3  0  0  0  0  0  0
  -21.4390   -4.6220   24.9330 C   0  0  0  0  0  0  0  0  0  0  0  0
  -21.8210   -4.0760   23.6950 C   0  0  0  0  0  3  0  0  0  0  0  0
  -21.9030   -4.9010   22.5580 C   0  0  0  0  0  0  0  0  0  0  0  0
  -22.2520   -4.3640   21.3640 F   0  0  0  0  0  0  0  0  0  0  0  0
  -21.3550   -3.8250   26.0230 F   0  0  0  0  0  0  0  0  0  0  0  0
  -22.7570  -13.6600   21.1780 C   0  0  0  0  0  0  0  0  0  0  0  0
  -22.0350  -12.9630   22.0490 N   0  0  0  0  0  0  0  0  0  0  0  0
  -22.3200  -14.6890   20.6660 O   0  0  0  0  0  0  0  0  0  0  0  0
  -22.4010  -12.1300   22.4840 H   0  0  0  0  0  0  0  0  0  0  0  0
  -21.1010  -13.2680   22.2850 H   0  0  0  0  0  0  0  0  0  0  0  0
  -25.3780  -15.3190   20.3320 N   0  0  0  0  0  0  0  0  0  0  0  0
  -24.6120  -15.9740   20.4480 H   0  0  0  0  0  0  0  0  0  0  0  0
  -26.2160  -15.7530   19.9700 H   0  0  0  0  0  0  0  0  0  0  0  0
  -28.7900  -21.8360   19.8680 C   0  0  0  0  0  2  0  0  0  0  0  0
  -28.8630  -23.3820   20.5330 C   0  0  0  0  0  3  0  0  0  0  0  0
  -28.0330  -24.7190   19.9400 C   0  0  0  0  0  3  0  0  0  0  0  0
  -28.2410  -26.2250   20.2670 O   0  0  0  0  0  0  0  0  0  0  0  0
  -24.6050  -31.8870   23.2250 C   0  0  0  0  0  0  0  0  0  0  0  0
  -27.1820  -27.1990   20.1720 C   0  0  0  0  0  0  0  0  0  0  0  0
  -23.4010  -30.4930   21.5880 C   0  0  0  0  0  3  0  0  0  0  0  0
  -24.8480  -28.9290   20.1490 C   0  0  0  0  0  0  0  0  0  0  0  0
  -25.9520  -30.7680   21.4130 C   0  0  0  0  0  2  0  0  0  0  0  0
  -26.0260  -29.3790   20.7570 C   0  0  0  0  0  0  0  0  0  0  0  0
  -27.1920  -28.5270   20.7560 C   0  0  0  0  0  3  0  0  0  0  0  0
  -25.9830  -26.8580   19.5070 C   0  0  0  0  0  3  0  0  0  0  0  0
  -24.8380  -27.6820   19.5080 C   0  0  0  0  0  3  0  0  0  0  0  0
  -23.6160  -29.8210   20.2050 C   0  0  0  0  0  2  0  0  0  0  0  0
  -24.6730  -31.0710   22.1300 N   0  0  0  0  0  0  0  0  0  0  0  0
  -23.5200  -32.1670   23.7590 O   0  0  0  0  0  0  0  0  0  0  0  0
  -22.7310  -29.4800   22.5490 C   0  0  0  0  0  0  0  0  0  0  0  0
  -21.4050  -29.2980   22.4210 N   0  0  0  0  0  0  0  0  0  0  0  0
  -23.4060  -28.8600   23.3740 O   0  0  0  0  0  0  0  0  0  0  0  0
  -20.9170  -29.8500   21.7290 H   0  0  0  0  0  0  0  0  0  0  0  0
  -18.0340  -28.0640   22.9080 C   0  0  0  0  0  0  0  0  0  0  0  0
  -20.5880  -28.3570   23.1920 C   0  0  0  0  0  3  0  0  0  0  0  0
  -20.7110  -26.9220   22.6280 C   0  0  0  0  0  2  0  0  0  0  0  0
  -19.6200  -26.5800   21.6090 C   0  0  0  0  0  2  0  0  0  0  0  0
  -18.2320  -26.7120   22.2420 C   0  0  0  0  0  2  0  0  0  0  0  0
  -19.1410  -28.8420   23.3400 C   0  0  0  0  0  0  0  0  0  0  0  0
  -18.9030  -30.1040   23.9260 C   0  0  0  0  0  3  0  0  0  0  0  0
  -17.5910  -30.5900   24.0820 C   0  0  0  0  0  3  0  0  0  0  0  0
  -16.4990  -29.8100   23.6650 C   0  0  0  0  0  3  0  0  0  0  0  0
  -16.7210  -28.5470   23.0850 C   0  0  0  0  0  3  0  0  0  0  0  0
  -25.8840  -32.5230   23.8480 C   0  0  0  0  0  3  0  0  0  0  0  0
  -26.3960  -31.7600   25.1320 C   0  0  1  0  0  0  0  0  0  0  0  0
  -25.2990  -31.5330   26.1990 C   0  0  0  0  0  1  0  0  0  0  0  0
  -26.9750  -30.3770   24.7540 C   0  0  0  0  0  1  0  0  0  0  0  0
  -27.5490  -32.5550   25.7890 C   0  0  0  0  0  1  0  0  0  0  0  0
  -25.5730  -33.9240   24.1740 N   0  0  0  0  0  0  0  0  0  0  0  0
  -25.9080  -34.9780   23.4190 C   0  0  0  0  0  0  0  0  0  0  0  0
  -26.5780  -34.8740   22.3880 O   0  0  0  0  0  0  0  0  0  0  0  0
  -24.9770  -34.0780   24.9740 H   0  0  0  0  0  0  0  0  0  0  0  0
  -24.1860  -36.7800   23.0660 C   0  0  0  0  0  1  0  0  0  0  0  0
  -25.4260  -36.3690   23.8780 C   0  0  0  0  0  3  0  0  0  0  0  0
  -27.5610  -37.2460   24.7140 C   0  0  0  0  0  1  0  0  0  0  0  0
  -26.4630  -37.4180   23.7680 N   0  0  0  0  0  0  0  0  0  0  0  0
  -26.0590  -38.3400   23.9140 H   0  0  0  0  0  0  0  0  0  0  0  0
  1  2  2  0
  3  4  1  0
  5  6  1  0
  5  3  1  0
  5  1  1  0
  6 15  1  0
  6  4  1  0
  7 15  1  0
  8 13  1  0
  9 10  1  0
  9  8  1  0
 11 10  1  0
 11 20  1  0
 11 12  1  0
 13  7  1  0
 13 12  1  0
 14  7  2  0
 15 16  1  0
 17 18  2  0
 18 37  1  0
 19 18  1  0
 19 22  1  0
 20 17  1  0
 20 21  1  0
 21 19  2  0
 22 23  1  0
 23 24  2  0
 25 28  1  0
 25 24  1  0
 26 25  2  0
 27 26  1  0
 27 22  2  0
 28 29  1  0
 29 30  1  0
 30 31  2  0
 32 31  1  0
 32 36  1  0
 33 32  2  0
 34 29  2  0
 34 33  1  0
 35 34  1  0
 37 38  1  0
 38 41  1  0
 38 40  1  0
 39 37  2  0
 42 43  1  0
 42 17  1  0
 44 42  1  0
 45 46  1  0
 45  1  1  0
 47 48  1  0
 47 46  2  0
 49 60  2  0
 50 48  1  0
 50 55  1  0
 51 59  1  0
 51 61  1  0
 52 58  1  0
 52 54  1  0
 53 59  1  0
 54 53  1  0
 55 54  2  0
 56 57  1  0
 56 50  2  0
 57 52  2  0
 58 51  1  0
 59 49  1  0
 61 63  2  0
 62 61  1  0
 64 62  1  0
 65 74  2  0
 65 70  1  0
 66 62  1  0
 66 70  1  0
 67 66  1  0
 68 69  1  0
 68 67  1  0
 69 65  1  0
 70 71  2  0
 71 72  1  0
 73 72  2  0
 74 73  1  0
 75 49  1  0
 75 80  1  0
 75 76  1  0
 76 79  1  1
 76 77  1  0
 78 76  1  0
 80 83  1  0
 81 85  1  0
 81 80  1  0
 82 81  2  0
 85 84  1  0
 87 85  1  0
 87 88  1  0
 87 86  1  0
M  ISO  4   7 100  15 100  47 101  48 101
M  END
>  <TORSDO>  (59) 
F 20

>  <SCORE>  (59) 
-13.392

>  <name>  (59) 
58

>  <ligand_id>  (59) 
58

>  <original_smiles>  (59) 
[H]C1=C([H])C([H])(N([H])C(=O)N2C([H])([H])C([H])([H])C([H])([H])C([H])(n3nc(-c4c([H])c([H])c(Oc5c([H])c([H])c(F)c([H])c5F)c([H])c4[H])c(C(=O)N([H])[H])c3N([H])[H])C2([H])[H])C1([H])C(=O)C([H])([H])C([H])([H])C([H])([H])Oc1c([H])c([H])c2c(c1[H])C([H])([H])N(C(=O)C([H])(N([H])C(=O)C([H])(N([H])C([H])([H])[H])C([H])([H])[H])C(C([H])([H])[H])(C([H])([H])[H])C([H])([H])[H])C([H])(C(=O)N([H])C1([H])c3c([H])c([H])c([H])c([H])c3C([H])([H])C([H])([H])C1([H])[H])C2([H])[H]

>  <smiles>  (59) 
[H]C1=C([H])C([H])(N([H])C(=O)N2C([H])([H])C([H])([H])C([H])([H])C([H])(n3nc(-c4c([H])c([H])c(Oc5c([H])c([H])c(F)c([H])c5F)c([H])c4[H])c(C(=O)N([H])[H])c3N([H])[H])C2([H])[H])C1([H])C(=O)C([H])([H])C([H])([H])C([H])([H])Oc1c([H])c([H])c2c(c1[H])C([H])([H])N(C(=O)C([H])(N([H])C(=O)C([H])(N([H])C([H])([H])[H])C([H])([H])[H])C(C([H])([H])[H])(C([H])([H])[H])C([H])([H])[H])C([H])(C(=O)N([H])C1([H])c3c([H])c([H])c([H])c([H])c3C([H])([H])C([H])([H])C1([H])[H])C2([H])[H]

$$$$
59:0:0
     RDKit          3D

 91 99  0  0  1  0  0  0  0  0999 V2000
  -29.3920  -20.0820   20.3420 C   0  0  0  0  0  3  0  0  0  0  0  0
  -30.7960  -20.6540   20.2740 C   0  0  0  0  0  2  0  0  0  0  0  0
  -30.5850  -22.1760   20.4270 C   0  0  0  0  0  2  0  0  0  0  0  0
  -29.1360  -22.3910   19.9590 C   0  0  0  0  0  3  0  0  0  0  0  0
  -28.5230  -21.0620   20.2930 N   0  0  0  0  0  2  0  0  0  0  0  0
  -29.1460  -18.4930   20.4700 C   0  0  0  0  0  0  0  0  0  0  0  0
  -27.9980  -18.1040   20.7090 O   0  0  0  0  0  0  0  0  0  0  0  0
  -30.8210  -17.4530   18.8030 C   0  0  0  0  0  1  0  0  0  0  0  0
  -30.2900  -17.3610   20.2580 C   0  0  0  0  0  3  0  0  0  0  0  0
  -30.6240  -14.7440   20.3710 C   0  0  0  0  0  0  0  0  0  0  0  0
  -30.4020  -12.4720   19.3770 C   0  0  0  0  0  2  0  0  0  0  0  0
  -29.4750  -12.5400   18.1410 C   0  0  0  0  0  2  0  0  0  0  0  0
  -28.0040  -12.3560   18.5670 C   0  0  0  0  0  2  0  0  0  0  0  0
  -27.6170  -13.2550   19.7720 C   0  0  0  0  0  3  0  0  0  0  0  0
  -28.6710  -13.1930   20.9020 C   0  0  0  0  0  2  0  0  0  0  0  0
  -29.9730  -13.5350   20.3140 N   0  0  0  0  0  0  0  0  0  0  0  0
  -31.8170  -14.8130   20.0600 O   0  0  0  0  0  0  0  0  0  0  0  0
  -29.8830  -15.9030   20.5280 N   0  0  0  0  0  0  0  0  0  0  0  0
  -28.9090  -15.7790   20.7700 H   0  0  0  0  0  0  0  0  0  0  0  0
  -25.2240  -13.8450   20.4880 C   0  0  0  0  0  0  0  0  0  0  0  0
  -24.1580  -13.0700   20.8600 C   0  0  0  0  0  0  0  0  0  0  0  0
  -24.6240  -11.7210   20.8410 C   0  0  0  0  0  0  0  0  0  0  0  0
  -26.2710  -12.9660   20.2640 N   0  0  0  0  0  0  0  0  0  0  0  0
  -25.9170  -11.6840   20.5360 N   0  0  0  0  0  0  0  0  0  0  0  0
  -23.9000  -10.4600   21.0400 C   0  0  0  0  0  0  0  0  0  0  0  0
  -24.3400   -9.4960   21.9740 C   0  0  0  0  0  3  0  0  0  0  0  0
  -23.6190   -8.2950   22.1570 C   0  0  0  0  0  3  0  0  0  0  0  0
  -22.4420   -8.0540   21.4090 C   0  0  0  0  0  0  0  0  0  0  0  0
  -22.0190   -9.0090   20.4650 C   0  0  0  0  0  3  0  0  0  0  0  0
  -22.7410  -10.1990   20.2810 C   0  0  0  0  0  3  0  0  0  0  0  0
  -21.6880   -6.9090   21.5020 O   0  0  0  0  0  0  0  0  0  0  0  0
  -21.6580   -6.1610   22.6510 C   0  0  0  0  0  0  0  0  0  0  0  0
  -21.2600   -6.7130   23.8890 C   0  0  0  0  0  3  0  0  0  0  0  0
  -21.1740   -5.8890   25.0300 C   0  0  0  0  0  3  0  0  0  0  0  0
  -21.4750   -4.5170   24.9340 C   0  0  0  0  0  0  0  0  0  0  0  0
  -21.8670   -3.9670   23.7020 C   0  0  0  0  0  3  0  0  0  0  0  0
  -21.9550   -4.7850   22.5620 C   0  0  0  0  0  0  0  0  0  0  0  0
  -22.3120   -4.2460   21.3720 F   0  0  0  0  0  0  0  0  0  0  0  0
  -21.3860   -3.7250   26.0290 F   0  0  0  0  0  0  0  0  0  0  0  0
  -22.7580  -13.5470   21.1250 C   0  0  0  0  0  0  0  0  0  0  0  0
  -22.0270  -12.8620   21.9920 N   0  0  0  0  0  0  0  0  0  0  0  0
  -22.3230  -14.5700   20.5950 O   0  0  0  0  0  0  0  0  0  0  0  0
  -22.3960  -12.0450   22.4540 H   0  0  0  0  0  0  0  0  0  0  0  0
  -21.0890  -13.1690   22.2090 H   0  0  0  0  0  0  0  0  0  0  0  0
  -25.3730  -15.2130   20.2990 N   0  0  0  0  0  0  0  0  0  0  0  0
  -24.5720  -15.8380   20.3510 H   0  0  0  0  0  0  0  0  0  0  0  0
  -26.2030  -15.6760   19.9500 H   0  0  0  0  0  0  0  0  0  0  0  0
  -28.3700  -23.7450   20.4440 C   0  0  0  0  0  2  0  0  0  0  0  0
  -30.0410  -25.2810   19.1900 C   0  0  0  0  0  1  0  0  0  0  0  0
  -28.5940  -25.1630   19.6780 C   0  0  0  0  0  3  0  0  0  0  0  0
  -28.3840  -26.4830   20.3460 O   0  0  0  0  0  0  0  0  0  0  0  0
  -24.6070  -31.8930   23.2430 C   0  0  0  0  0  0  0  0  0  0  0  0
  -27.2400  -27.2980   20.2360 C   0  0  0  0  0  0  0  0  0  0  0  0
  -23.4080  -30.4800   21.6080 C   0  0  0  0  0  3  0  0  0  0  0  0
  -24.8640  -28.9120   20.2000 C   0  0  0  0  0  0  0  0  0  0  0  0
  -25.9480  -30.8010   21.4260 C   0  0  0  0  0  2  0  0  0  0  0  0
  -26.0310  -29.4150   20.7890 C   0  0  0  0  0  0  0  0  0  0  0  0
  -27.2170  -28.6210   20.7900 C   0  0  0  0  0  3  0  0  0  0  0  0
  -26.0440  -26.8370   19.6440 C   0  0  0  0  0  3  0  0  0  0  0  0
  -24.8750  -27.6300   19.6200 C   0  0  0  0  0  3  0  0  0  0  0  0
  -23.6230  -29.7870   20.2360 C   0  0  0  0  0  2  0  0  0  0  0  0
  -24.6730  -31.0780   22.1470 N   0  0  0  0  0  0  0  0  0  0  0  0
  -23.5220  -32.1690   23.7750 O   0  0  0  0  0  0  0  0  0  0  0  0
  -22.7440  -29.4720   22.5760 C   0  0  0  0  0  0  0  0  0  0  0  0
  -21.4180  -29.2990   22.4530 N   0  0  0  0  0  0  0  0  0  0  0  0
  -23.4220  -28.8480   23.3970 O   0  0  0  0  0  0  0  0  0  0  0  0
  -20.9330  -29.8510   21.7580 H   0  0  0  0  0  0  0  0  0  0  0  0
  -18.0340  -28.1210   22.9610 C   0  0  0  0  0  0  0  0  0  0  0  0
  -20.5950  -28.3670   23.2260 C   0  0  0  0  0  3  0  0  0  0  0  0
  -20.6890  -26.9340   22.6520 C   0  0  0  0  0  2  0  0  0  0  0  0
  -19.5820  -26.6180   21.6410 C   0  0  0  0  0  2  0  0  0  0  0  0
  -18.2030  -26.7720   22.2860 C   0  0  0  0  0  2  0  0  0  0  0  0
  -19.1580  -28.8790   23.3870 C   0  0  0  0  0  0  0  0  0  0  0  0
  -18.9450  -30.1450   23.9760 C   0  0  0  0  0  3  0  0  0  0  0  0
  -17.6420  -30.6510   24.1450 C   0  0  0  0  0  3  0  0  0  0  0  0
  -16.5330  -29.8900   23.7350 C   0  0  0  0  0  3  0  0  0  0  0  0
  -16.7320  -28.6270   23.1480 C   0  0  0  0  0  3  0  0  0  0  0  0
  -25.8900  -32.5290   23.8670 C   0  0  0  0  0  3  0  0  0  0  0  0
  -26.4010  -31.7670   25.1510 C   0  0  1  0  0  0  0  0  0  0  0  0
  -25.3030  -31.5450   26.2170 C   0  0  0  0  0  1  0  0  0  0  0  0
  -26.9840  -30.3840   24.7760 C   0  0  0  0  0  1  0  0  0  0  0  0
  -27.5490  -32.5670   25.8110 C   0  0  0  0  0  1  0  0  0  0  0  0
  -25.5800  -33.9280   24.1890 N   0  0  0  0  0  0  0  0  0  0  0  0
  -25.9090  -34.9780   23.4280 C   0  0  0  0  0  0  0  0  0  0  0  0
  -26.5780  -34.8710   22.3960 O   0  0  0  0  0  0  0  0  0  0  0  0
  -24.9930  -34.0860   24.9970 H   0  0  0  0  0  0  0  0  0  0  0  0
  -24.1750  -36.7640   23.0700 C   0  0  0  0  0  1  0  0  0  0  0  0
  -25.4190  -36.3670   23.8800 C   0  0  0  0  0  3  0  0  0  0  0  0
  -27.5540  -37.2570   24.7050 C   0  0  0  0  0  1  0  0  0  0  0  0
  -26.4500  -37.4220   23.7650 N   0  0  0  0  0  0  0  0  0  0  0  0
  -26.0400  -38.3420   23.9180 H   0  0  0  0  0  0  0  0  0  0  0  0
  1  6  1  0
  2  1  1  0
  2  3  1  0
  4  5  1  0
  4  3  1  0
  4 48  1  0
  5  1  1  0
  6  7  2  0
  9  8  1  0
  9  6  1  0
  9 18  1  0
 10 18  1  0
 11 16  1  0
 12 13  1  0
 12 11  1  0
 14 13  1  0
 14 23  1  0
 14 15  1  0
 16 10  1  0
 16 15  1  0
 17 10  2  0
 18 19  1  0
 20 21  2  0
 21 40  1  0
 22 21  1  0
 22 25  1  0
 23 20  1  0
 23 24  1  0
 24 22  2  0
 25 26  1  0
 26 27  2  0
 28 31  1  0
 28 27  1  0
 29 28  2  0
 30 29  1  0
 30 25  2  0
 31 32  1  0
 32 33  1  0
 33 34  2  0
 35 34  1  0
 35 39  1  0
 36 35  2  0
 37 32  2  0
 37 36  1  0
 38 37  1  0
 40 41  1  0
 41 44  1  0
 41 43  1  0
 42 40  2  0
 45 46  1  0
 45 20  1  0
 47 45  1  0
 50 49  1  0
 50 51  1  0
 50 48  1  0
 52 63  2  0
 53 51  1  0
 53 58  1  0
 54 62  1  0
 54 64  1  0
 55 61  1  0
 55 57  1  0
 56 62  1  0
 57 58  2  0
 57 56  1  0
 59 53  2  0
 60 59  1  0
 60 55  2  0
 61 54  1  0
 62 52  1  0
 64 66  2  0
 65 64  1  0
 67 65  1  0
 68 77  2  0
 68 73  1  0
 69 65  1  0
 69 73  1  0
 70 69  1  0
 71 72  1  0
 71 70  1  0
 72 68  1  0
 73 74  2  0
 74 75  1  0
 76 75  2  0
 77 76  1  0
 78 52  1  0
 78 83  1  0
 78 79  1  0
 79 82  1  1
 79 80  1  0
 81 79  1  0
 83 86  1  0
 84 88  1  0
 84 83  1  0
 85 84  2  0
 88 87  1  0
 90 88  1  0
 90 91  1  0
 90 89  1  0
M  ISO  4  10 100  18 100  50 101  51 101
M  END
>  <TORSDO>  (60) 
F 20

>  <SCORE>  (60) 
-13.953

>  <name>  (60) 
59

>  <ligand_id>  (60) 
59

>  <original_smiles>  (60) 
[H]c1c([H])c([H])c2c(c1[H])C([H])([H])C([H])([H])C([H])([H])C2([H])N([H])C(=O)C1([H])N(C(=O)C([H])(N([H])C(=O)C([H])(N([H])C([H])([H])[H])C([H])([H])[H])C(C([H])([H])[H])(C([H])([H])[H])C([H])([H])[H])C([H])([H])c2c([H])c(OC([H])(C([H])([H])[H])C([H])([H])C3([H])N=C(C(=O)C([H])(N([H])C(=O)N4C([H])([H])C([H])([H])C([H])([H])C([H])(n5nc(-c6c([H])c([H])c(Oc7c([H])c([H])c(F)c([H])c7F)c([H])c6[H])c(C(=O)N([H])[H])c5N([H])[H])C4([H])[H])C([H])([H])[H])C([H])([H])C3([H])[H])c([H])c([H])c2C1([H])[H]

>  <smiles>  (60) 
[H]c1c([H])c([H])c2c(c1[H])C([H])([H])C([H])([H])C([H])([H])C2([H])N([H])C(=O)C1([H])N(C(=O)C([H])(N([H])C(=O)C([H])(N([H])C([H])([H])[H])C([H])([H])[H])C(C([H])([H])[H])(C([H])([H])[H])C([H])([H])[H])C([H])([H])c2c([H])c(OC([H])(C([H])([H])[H])C([H])([H])C3([H])N=C(C(=O)C([H])(N([H])C(=O)N4C([H])([H])C([H])([H])C([H])([H])C([H])(n5nc(-c6c([H])c([H])c(Oc7c([H])c([H])c(F)c([H])c7F)c([H])c6[H])c(C(=O)N([H])[H])c5N([H])[H])C4([H])[H])C([H])([H])[H])C([H])([H])C3([H])[H])c([H])c([H])c2C1([H])[H]

$$$$
60:0:0
     RDKit          3D

 94102  0  0  1  0  0  0  0  0999 V2000
  -29.6290  -22.2220   21.6220 C   0  0  0  0  0  3  0  0  0  0  0  0
  -27.9340  -22.5620   19.9260 C   0  0  0  0  0  3  0  0  0  0  0  0
  -29.6990  -23.6230   21.8230 C   0  0  0  0  0  3  0  0  0  0  0  0
  -28.0050  -23.9560   20.1280 C   0  0  0  0  0  3  0  0  0  0  0  0
  -28.7220  -21.6660   20.6890 C   0  0  0  0  0  0  0  0  0  0  0  0
  -28.8800  -24.5080   21.0860 C   0  0  0  0  0  0  0  0  0  0  0  0
  -29.5490  -19.2740   20.6420 C   0  0  0  0  0  3  0  0  0  0  0  0
  -28.5590  -20.1980   20.5120 C   0  0  0  0  0  0  0  0  0  0  0  0
  -29.3890  -17.7920   20.5050 C   0  0  0  0  0  0  0  0  0  0  0  0
  -28.3110  -17.2490   20.2370 O   0  0  0  0  0  0  0  0  0  0  0  0
  -31.4050  -17.2160   22.0070 C   0  0  0  0  0  1  0  0  0  0  0  0
  -30.6420  -16.9060   20.7060 C   0  0  0  0  0  3  0  0  0  0  0  0
  -30.8750  -14.4870   20.0200 C   0  0  0  0  0  0  0  0  0  0  0  0
  -30.4780  -12.3060   18.9350 C   0  0  0  0  0  2  0  0  0  0  0  0
  -29.4750  -12.4840   17.7780 C   0  0  0  0  0  2  0  0  0  0  0  0
  -28.0230  -12.3880   18.2900 C   0  0  0  0  0  2  0  0  0  0  0  0
  -27.7670  -13.2740   19.5380 C   0  0  0  0  0  3  0  0  0  0  0  0
  -28.8740  -13.0610   20.5950 C   0  0  0  0  0  2  0  0  0  0  0  0
  -30.1740  -13.3240   19.9530 N   0  0  0  0  0  0  0  0  0  0  0  0
  -31.9440  -14.6690   19.4310 O   0  0  0  0  0  0  0  0  0  0  0  0
  -30.2650  -15.4830   20.6790 N   0  0  0  0  0  0  0  0  0  0  0  0
  -29.3560  -15.2770   21.0690 H   0  0  0  0  0  0  0  0  0  0  0  0
  -25.4450  -13.9590   20.4140 C   0  0  0  0  0  0  0  0  0  0  0  0
  -24.3680  -13.2190   20.8250 C   0  0  0  0  0  0  0  0  0  0  0  0
  -24.7680  -11.8520   20.7290 C   0  0  0  0  0  0  0  0  0  0  0  0
  -26.4360  -13.0430   20.0950 N   0  0  0  0  0  0  0  0  0  0  0  0
  -26.0340  -11.7690   20.3380 N   0  0  0  0  0  0  0  0  0  0  0  0
  -24.0030  -10.6140   20.9330 C   0  0  0  0  0  0  0  0  0  0  0  0
  -24.4420   -9.6130   21.8280 C   0  0  0  0  0  3  0  0  0  0  0  0
  -23.6800   -8.4410   22.0190 C   0  0  0  0  0  3  0  0  0  0  0  0
  -22.4640   -8.2620   21.3170 C   0  0  0  0  0  0  0  0  0  0  0  0
  -22.0430   -9.2520   20.4110 C   0  0  0  0  0  3  0  0  0  0  0  0
  -22.8060  -10.4150   20.2170 C   0  0  0  0  0  3  0  0  0  0  0  0
  -21.6710   -7.1450   21.4200 O   0  0  0  0  0  0  0  0  0  0  0  0
  -21.6300   -6.3950   22.5680 C   0  0  0  0  0  0  0  0  0  0  0  0
  -21.2710   -6.9550   23.8120 C   0  0  0  0  0  3  0  0  0  0  0  0
  -21.1730   -6.1340   24.9540 C   0  0  0  0  0  3  0  0  0  0  0  0
  -21.4260   -4.7520   24.8510 C   0  0  0  0  0  0  0  0  0  0  0  0
  -21.7800   -4.1920   23.6120 C   0  0  0  0  0  3  0  0  0  0  0  0
  -21.8780   -5.0100   22.4720 C   0  0  0  0  0  0  0  0  0  0  0  0
  -22.1980   -4.4610   21.2760 F   0  0  0  0  0  0  0  0  0  0  0  0
  -21.3250   -3.9620   25.9450 F   0  0  0  0  0  0  0  0  0  0  0  0
  -23.0120  -13.7440   21.2030 C   0  0  0  0  0  0  0  0  0  0  0  0
  -22.3180  -13.0590   22.1050 N   0  0  0  0  0  0  0  0  0  0  0  0
  -22.5820  -14.7980   20.7350 O   0  0  0  0  0  0  0  0  0  0  0  0
  -22.6800  -12.2060   22.5050 H   0  0  0  0  0  0  0  0  0  0  0  0
  -21.4110  -13.3930   22.3990 H   0  0  0  0  0  0  0  0  0  0  0  0
  -25.6580  -15.3260   20.2740 N   0  0  0  0  0  0  0  0  0  0  0  0
  -24.9440  -16.0100   20.4990 H   0  0  0  0  0  0  0  0  0  0  0  0
  -26.5550  -15.7530   20.0680 H   0  0  0  0  0  0  0  0  0  0  0  0
  -27.2850  -19.8530   20.2650 O   0  0  0  0  0  0  0  0  0  0  0  0
  -26.7650  -20.6450   20.3160 H   0  0  0  0  0  0  0  0  0  0  0  0
  -28.8930  -26.0160   21.3800 C   0  0  0  0  0  2  0  0  0  0  0  0
  -28.6430  -26.8490   20.2390 O   0  0  0  0  0  0  0  0  0  0  0  0
  -24.6650  -31.9570   23.2980 C   0  0  0  0  0  0  0  0  0  0  0  0
  -27.4770  -27.5800   20.2710 C   0  0  0  0  0  0  0  0  0  0  0  0
  -23.5300  -30.5360   21.6220 C   0  0  0  0  0  3  0  0  0  0  0  0
  -25.0530  -29.0350   20.2300 C   0  0  0  0  0  0  0  0  0  0  0  0
  -26.0520  -30.9440   21.4930 C   0  0  0  0  0  2  0  0  0  0  0  0
  -26.1820  -29.5740   20.8600 C   0  0  0  0  0  0  0  0  0  0  0  0
  -27.3970  -28.8490   20.8910 C   0  0  0  0  0  3  0  0  0  0  0  0
  -26.3400  -27.0700   19.6120 C   0  0  0  0  0  3  0  0  0  0  0  0
  -25.1250  -27.7780   19.6080 C   0  0  0  0  0  3  0  0  0  0  0  0
  -23.7900  -29.8670   20.2460 C   0  0  0  0  0  2  0  0  0  0  0  0
  -24.7660  -31.1610   22.1960 N   0  0  0  0  0  0  0  0  0  0  0  0
  -23.5650  -32.2040   23.8110 O   0  0  0  0  0  0  0  0  0  0  0  0
  -22.8780  -29.4950   22.5620 C   0  0  0  0  0  0  0  0  0  0  0  0
  -21.5570  -29.3000   22.4140 N   0  0  0  0  0  0  0  0  0  0  0  0
  -23.5570  -28.8680   23.3790 O   0  0  0  0  0  0  0  0  0  0  0  0
  -21.0710  -29.8610   21.7280 H   0  0  0  0  0  0  0  0  0  0  0  0
  -18.1820  -28.0970   22.8830 C   0  0  0  0  0  0  0  0  0  0  0  0
  -20.7400  -28.3470   23.1630 C   0  0  0  0  0  3  0  0  0  0  0  0
  -20.8420  -26.9280   22.5560 C   0  0  0  0  0  2  0  0  0  0  0  0
  -19.7410  -26.6290   21.5340 C   0  0  0  0  0  2  0  0  0  0  0  0
  -18.3590  -26.7620   22.1790 C   0  0  0  0  0  2  0  0  0  0  0  0
  -19.3010  -28.8480   23.3310 C   0  0  0  0  0  0  0  0  0  0  0  0
  -19.0830  -30.1000   23.9480 C   0  0  0  0  0  3  0  0  0  0  0  0
  -17.7780  -30.5990   24.1210 C   0  0  0  0  0  3  0  0  0  0  0  0
  -16.6740  -29.8440   23.6890 C   0  0  0  0  0  3  0  0  0  0  0  0
  -16.8770  -28.5950   23.0770 C   0  0  0  0  0  3  0  0  0  0  0  0
  -25.9230  -32.6110   23.9500 C   0  0  0  0  0  3  0  0  0  0  0  0
  -25.5900  -34.0110   24.2430 N   0  0  0  0  0  0  0  0  0  0  0  0
  -25.9270  -35.0500   23.4680 C   0  0  0  0  0  0  0  0  0  0  0  0
  -26.6230  -34.9330   22.4550 O   0  0  0  0  0  0  0  0  0  0  0  0
  -24.9740  -34.1760   25.0260 H   0  0  0  0  0  0  0  0  0  0  0  0
  -24.1800  -36.8070   23.0370 C   0  0  0  0  0  1  0  0  0  0  0  0
  -25.4100  -36.4420   23.8820 C   0  0  0  0  0  3  0  0  0  0  0  0
  -27.5150  -37.3770   24.7340 C   0  0  0  0  0  1  0  0  0  0  0  0
  -26.4310  -37.5070   23.7630 N   0  0  0  0  0  0  0  0  0  0  0  0
  -26.0090  -38.4230   23.8780 H   0  0  0  0  0  0  0  0  0  0  0  0
  -26.4060  -31.8650   25.2540 C   0  0  1  0  0  0  0  0  0  0  0  0
  -25.2790  -31.6240   26.2850 C   0  0  0  0  0  1  0  0  0  0  0  0
  -27.0240  -30.4930   24.9000 C   0  0  0  0  0  1  0  0  0  0  0  0
  -27.5200  -32.6870   25.9440 C   0  0  0  0  0  1  0  0  0  0  0  0
  1  3  1  0
  2  4  2  0
  2  5  1  0
  4  6  1  0
  5  1  2  0
  6 53  1  0
  6  3  2  0
  8  7  2  0
  8  5  1  0
  9  7  1  0
  9 12  1  0
 10  9  2  0
 12 11  1  0
 13 21  1  0
 14 19  1  0
 15 16  1  0
 15 14  1  0
 17 16  1  0
 17 26  1  0
 17 18  1  0
 19 13  1  0
 19 18  1  0
 20 13  2  0
 21 12  1  0
 21 22  1  0
 23 24  2  0
 24 43  1  0
 25 24  1  0
 25 28  1  0
 26 27  1  0
 26 23  1  0
 27 25  2  0
 28 29  1  0
 29 30  2  0
 31 34  1  0
 31 30  1  0
 32 31  2  0
 33 32  1  0
 33 28  2  0
 34 35  1  0
 35 36  1  0
 36 37  2  0
 38 37  1  0
 38 42  1  0
 39 38  2  0
 40 35  2  0
 40 39  1  0
 41 40  1  0
 43 44  1  0
 44 47  1  0
 44 46  1  0
 45 43  2  0
 48 23  1  0
 48 49  1  0
 50 48  1  0
 51 52  1  0
 51  8  1  0
 54 56  1  0
 54 53  1  0
 55 66  2  0
 56 61  1  0
 57 65  1  0
 57 67  1  0
 58 64  1  0
 58 60  1  0
 59 65  1  0
 60 61  2  0
 60 59  1  0
 62 56  2  0
 63 62  1  0
 63 58  2  0
 64 57  1  0
 65 55  1  0
 67 69  2  0
 68 67  1  0
 70 68  1  0
 71 80  2  0
 71 76  1  0
 72 68  1  0
 72 76  1  0
 73 72  1  0
 74 75  1  0
 74 73  1  0
 75 71  1  0
 76 77  2  0
 77 78  1  0
 79 78  2  0
 80 79  1  0
 81 55  1  0
 81 82  1  0
 81 91  1  0
 82 85  1  0
 83 87  1  0
 83 82  1  0
 84 83  2  0
 87 86  1  0
 89 90  1  0
 89 87  1  0
 89 88  1  0
 91 94  1  1
 91 92  1  0
 93 91  1  0
M  ISO  4  13 100  21 100  53 101  54 101
M  END
>  <TORSDO>  (61) 
F 21

>  <SCORE>  (61) 
-13.707

>  <name>  (61) 
60

>  <ligand_id>  (61) 
60

>  <original_smiles>  (61) 
[H]OC(=C([H])C(=O)C([H])(N([H])C(=O)N1C([H])([H])C([H])([H])C([H])([H])C([H])(n2nc(-c3c([H])c([H])c(Oc4c([H])c([H])c(F)c([H])c4F)c([H])c3[H])c(C(=O)N([H])[H])c2N([H])[H])C1([H])[H])C([H])([H])[H])c1c([H])c([H])c(C([H])([H])Oc2c([H])c([H])c3c(c2[H])C([H])([H])N(C(=O)C([H])(N([H])C(=O)C([H])(N([H])C([H])([H])[H])C([H])([H])[H])C(C([H])([H])[H])(C([H])([H])[H])C([H])([H])[H])C([H])(C(=O)N([H])C2([H])c4c([H])c([H])c([H])c([H])c4C([H])([H])C([H])([H])C2([H])[H])C3([H])[H])c([H])c1[H]

>  <smiles>  (61) 
[H]OC(=C([H])C(=O)C([H])(N([H])C(=O)N1C([H])([H])C([H])([H])C([H])([H])C([H])(n2nc(-c3c([H])c([H])c(Oc4c([H])c([H])c(F)c([H])c4F)c([H])c3[H])c(C(=O)N([H])[H])c2N([H])[H])C1([H])[H])C([H])([H])[H])c1c([H])c([H])c(C([H])([H])Oc2c([H])c([H])c3c(c2[H])C([H])([H])N(C(=O)C([H])(N([H])C(=O)C([H])(N([H])C([H])([H])[H])C([H])([H])[H])C(C([H])([H])[H])(C([H])([H])[H])C([H])([H])[H])C([H])(C(=O)N([H])C2([H])c4c([H])c([H])c([H])c([H])c4C([H])([H])C([H])([H])C2([H])[H])C3([H])[H])c([H])c1[H]

$$$$
61:0:0
     RDKit          3D

 92100  0  0  1  0  0  0  0  0999 V2000
  -30.9210  -21.5500   20.0790 C   0  0  0  0  0  3  0  0  0  0  0  0
  -28.6010  -21.3430   20.7630 C   0  0  0  0  0  3  0  0  0  0  0  0
  -31.0300  -20.1390   20.0280 C   0  0  0  0  0  3  0  0  0  0  0  0
  -28.7050  -19.9360   20.6920 C   0  0  0  0  0  3  0  0  0  0  0  0
  -29.6970  -22.1680   20.4250 C   0  0  0  0  0  0  0  0  0  0  0  0
  -29.9140  -19.3160   20.3090 C   0  0  0  0  0  0  0  0  0  0  0  0
  -29.5510  -23.7010   20.4340 C   0  0  0  0  0  2  0  0  0  0  0  0
  -28.6330  -23.5410   18.0550 C   0  0  0  0  0  1  0  0  0  0  0  0
  -28.5610  -24.3140   19.3900 C   0  0  0  0  0  3  0  0  0  0  0  0
  -28.8000  -25.8330   19.0930 C   0  0  0  0  0  2  0  0  0  0  0  0
  -28.5030  -26.7900   20.1270 O   0  0  0  0  0  0  0  0  0  0  0  0
  -24.6310  -31.9270   23.2310 C   0  0  0  0  0  0  0  0  0  0  0  0
  -27.3160  -27.5060   20.0990 C   0  0  0  0  0  0  0  0  0  0  0  0
  -23.4380  -30.5290   21.5790 C   0  0  0  0  0  3  0  0  0  0  0  0
  -24.9030  -29.0140   20.1350 C   0  0  0  0  0  0  0  0  0  0  0  0
  -25.9650  -30.8910   21.3920 C   0  0  0  0  0  2  0  0  0  0  0  0
  -26.0590  -29.5270   20.7340 C   0  0  0  0  0  0  0  0  0  0  0  0
  -27.2610  -28.7790   20.7220 C   0  0  0  0  0  3  0  0  0  0  0  0
  -26.1350  -27.0000   19.5080 C   0  0  0  0  0  3  0  0  0  0  0  0
  -24.9370  -27.7460   19.5250 C   0  0  0  0  0  3  0  0  0  0  0  0
  -23.6580  -29.8770   20.1890 C   0  0  0  0  0  2  0  0  0  0  0  0
  -24.6960  -31.1290   22.1270 N   0  0  0  0  0  0  0  0  0  0  0  0
  -23.5470  -32.1910   23.7690 O   0  0  0  0  0  0  0  0  0  0  0  0
  -22.7940  -29.4910   22.5250 C   0  0  0  0  0  0  0  0  0  0  0  0
  -21.4690  -29.3070   22.4050 N   0  0  0  0  0  0  0  0  0  0  0  0
  -23.4820  -28.8570   23.3300 O   0  0  0  0  0  0  0  0  0  0  0  0
  -20.9680  -29.8830   21.7430 H   0  0  0  0  0  0  0  0  0  0  0  0
  -18.0970  -28.1040   22.8990 C   0  0  0  0  0  0  0  0  0  0  0  0
  -20.6560  -28.3550   23.1630 C   0  0  0  0  0  3  0  0  0  0  0  0
  -20.7540  -26.9330   22.5630 C   0  0  0  0  0  2  0  0  0  0  0  0
  -19.6480  -26.6270   21.5490 C   0  0  0  0  0  2  0  0  0  0  0  0
  -18.2700  -26.7630   22.2040 C   0  0  0  0  0  2  0  0  0  0  0  0
  -19.2200  -28.8590   23.3340 C   0  0  0  0  0  0  0  0  0  0  0  0
  -19.0070  -30.1150   23.9420 C   0  0  0  0  0  3  0  0  0  0  0  0
  -17.7030  -30.6170   24.1180 C   0  0  0  0  0  3  0  0  0  0  0  0
  -16.5960  -29.8590   23.7020 C   0  0  0  0  0  3  0  0  0  0  0  0
  -16.7940  -28.6040   23.0990 C   0  0  0  0  0  3  0  0  0  0  0  0
  -25.9120  -32.5640   23.8520 C   0  0  0  0  0  3  0  0  0  0  0  0
  -25.5970  -33.9610   24.1820 N   0  0  0  0  0  0  0  0  0  0  0  0
  -25.9330  -35.0150   23.4270 C   0  0  0  0  0  0  0  0  0  0  0  0
  -26.6130  -34.9150   22.4020 O   0  0  0  0  0  0  0  0  0  0  0  0
  -24.9920  -34.1180   24.9750 H   0  0  0  0  0  0  0  0  0  0  0  0
  -24.2030  -36.8030   23.0600 C   0  0  0  0  0  1  0  0  0  0  0  0
  -25.4370  -36.4020   23.8830 C   0  0  0  0  0  3  0  0  0  0  0  0
  -27.5580  -37.2880   24.7410 C   0  0  0  0  0  1  0  0  0  0  0  0
  -26.4660  -37.4590   23.7860 N   0  0  0  0  0  0  0  0  0  0  0  0
  -26.0550  -38.3770   23.9370 H   0  0  0  0  0  0  0  0  0  0  0  0
  -26.4290  -31.7930   25.1260 C   0  0  1  0  0  0  0  0  0  0  0  0
  -25.3370  -31.5430   26.1930 C   0  0  0  0  0  1  0  0  0  0  0  0
  -27.0190  -30.4220   24.7250 C   0  0  0  0  0  1  0  0  0  0  0  0
  -27.5720  -32.5930   25.7940 C   0  0  0  0  0  1  0  0  0  0  0  0
  -29.9800  -17.7900   20.1150 C   0  0  0  0  0  2  0  0  0  0  0  0
  -31.2040  -17.1600   22.3060 C   0  0  0  0  0  1  0  0  0  0  0  0
  -29.9770  -16.9250   21.4090 C   0  0  0  0  0  3  0  0  0  0  0  0
  -30.4850  -14.5790   20.4610 C   0  0  0  0  0  0  0  0  0  0  0  0
  -30.2720  -12.4430   19.2320 C   0  0  0  0  0  2  0  0  0  0  0  0
  -29.3100  -12.6480   18.0440 C   0  0  0  0  0  2  0  0  0  0  0  0
  -27.8410  -12.4510   18.4770 C   0  0  0  0  0  2  0  0  0  0  0  0
  -27.4900  -13.2390   19.7690 C   0  0  0  0  0  3  0  0  0  0  0  0
  -28.5590  -13.0050   20.8580 C   0  0  0  0  0  2  0  0  0  0  0  0
  -29.8700  -13.3770   20.2940 N   0  0  0  0  0  0  0  0  0  0  0  0
  -31.5740  -14.8550   19.9480 O   0  0  0  0  0  0  0  0  0  0  0  0
  -29.7510  -15.4920   21.1310 N   0  0  0  0  0  0  0  0  0  0  0  0
  -28.8540  -15.1410   21.4350 H   0  0  0  0  0  0  0  0  0  0  0  0
  -25.0790  -13.7770   20.5010 C   0  0  0  0  0  0  0  0  0  0  0  0
  -24.0380  -12.9750   20.8770 C   0  0  0  0  0  0  0  0  0  0  0  0
  -24.5370  -11.6360   20.8400 C   0  0  0  0  0  0  0  0  0  0  0  0
  -26.1470  -12.9270   20.2550 N   0  0  0  0  0  0  0  0  0  0  0  0
  -25.8240  -11.6340   20.5180 N   0  0  0  0  0  0  0  0  0  0  0  0
  -23.8490  -10.3540   21.0360 C   0  0  0  0  0  0  0  0  0  0  0  0
  -24.3060   -9.4080   21.9810 C   0  0  0  0  0  3  0  0  0  0  0  0
  -23.6150   -8.1920   22.1670 C   0  0  0  0  0  3  0  0  0  0  0  0
  -22.4550   -7.9090   21.4080 C   0  0  0  0  0  0  0  0  0  0  0  0
  -22.0160   -8.8450   20.4540 C   0  0  0  0  0  3  0  0  0  0  0  0
  -22.7070  -10.0540   20.2670 C   0  0  0  0  0  3  0  0  0  0  0  0
  -21.7380   -6.7400   21.4970 O   0  0  0  0  0  0  0  0  0  0  0  0
  -21.7000   -6.0060   22.6540 C   0  0  0  0  0  0  0  0  0  0  0  0
  -21.2360   -6.5540   23.8690 C   0  0  0  0  0  3  0  0  0  0  0  0
  -21.1460   -5.7450   25.0200 C   0  0  0  0  0  3  0  0  0  0  0  0
  -21.5110   -4.3870   24.9560 C   0  0  0  0  0  0  0  0  0  0  0  0
  -21.9680   -3.8370   23.7460 C   0  0  0  0  0  3  0  0  0  0  0  0
  -22.0580   -4.6440   22.5980 C   0  0  0  0  0  0  0  0  0  0  0  0
  -22.4770   -4.1040   21.4270 F   0  0  0  0  0  0  0  0  0  0  0  0
  -21.4180   -3.6070   26.0570 F   0  0  0  0  0  0  0  0  0  0  0  0
  -22.6290  -13.4100   21.1630 C   0  0  0  0  0  0  0  0  0  0  0  0
  -21.9330  -12.6930   22.0360 N   0  0  0  0  0  0  0  0  0  0  0  0
  -22.1520  -14.4190   20.6420 O   0  0  0  0  0  0  0  0  0  0  0  0
  -22.3340  -11.8810   22.4820 H   0  0  0  0  0  0  0  0  0  0  0  0
  -20.9840  -12.9570   22.2630 H   0  0  0  0  0  0  0  0  0  0  0  0
  -25.1980  -15.1550   20.3280 N   0  0  0  0  0  0  0  0  0  0  0  0
  -24.4030  -15.7720   20.4430 H   0  0  0  0  0  0  0  0  0  0  0  0
  -26.0300  -15.6360   20.0060 H   0  0  0  0  0  0  0  0  0  0  0  0
  1  5  1  0
  3  1  2  0
  3  6  1  0
  4  2  1  0
  5  7  1  0
  5  2  2  0
  6  4  2  0
  9  8  1  0
  9  7  1  0
 10  9  1  0
 10 11  1  0
 12 23  2  0
 13 11  1  0
 13 18  1  0
 14 22  1  0
 14 24  1  0
 15 21  1  0
 15 17  1  0
 16 22  1  0
 17 16  1  0
 18 17  2  0
 19 20  1  0
 19 13  2  0
 20 15  2  0
 21 14  1  0
 22 12  1  0
 24 26  2  0
 25 24  1  0
 27 25  1  0
 28 37  2  0
 28 33  1  0
 29 25  1  0
 29 33  1  0
 30 29  1  0
 31 32  1  0
 31 30  1  0
 32 28  1  0
 33 34  2  0
 34 35  1  0
 36 35  2  0
 37 36  1  0
 38 12  1  0
 38 39  1  0
 38 48  1  0
 39 42  1  0
 40 44  1  0
 40 39  1  0
 41 40  2  0
 44 43  1  0
 46 44  1  0
 46 47  1  0
 46 45  1  0
 48 51  1  1
 48 49  1  0
 50 48  1  0
 52  6  1  0
 52 54  1  0
 54 53  1  0
 55 63  1  0
 56 61  1  0
 57 58  1  0
 57 56  1  0
 59 58  1  0
 59 68  1  0
 59 60  1  0
 61 55  1  0
 61 60  1  0
 62 55  2  0
 63 54  1  0
 63 64  1  0
 65 66  2  0
 66 85  1  0
 67 66  1  0
 67 70  1  0
 68 65  1  0
 68 69  1  0
 69 67  2  0
 70 71  1  0
 71 72  2  0
 73 76  1  0
 73 72  1  0
 74 73  2  0
 75 74  1  0
 75 70  2  0
 76 77  1  0
 77 78  1  0
 78 79  2  0
 80 79  1  0
 80 84  1  0
 81 80  2  0
 82 77  2  0
 82 81  1  0
 83 82  1  0
 85 86  1  0
 86 89  1  0
 86 88  1  0
 87 85  2  0
 90 91  1  0
 90 65  1  0
 92 90  1  0
M  ISO  4  10 101  11 101  55 100  63 100
M  END
>  <TORSDO>  (62) 
F 21

>  <SCORE>  (62) 
-13.485

>  <name>  (62) 
61

>  <ligand_id>  (62) 
61

>  <original_smiles>  (62) 
[H]c1c([H])c([H])c2c(c1[H])C([H])([H])C([H])([H])C([H])([H])C2([H])N([H])C(=O)C1([H])N(C(=O)C([H])(N([H])C(=O)C([H])(N([H])C([H])([H])[H])C([H])([H])[H])C(C([H])([H])[H])(C([H])([H])[H])C([H])([H])[H])C([H])([H])c2c([H])c(OC([H])([H])C([H])(C([H])([H])[H])C([H])([H])c3c([H])c([H])c(C([H])([H])C([H])(N([H])C(=O)N4C([H])([H])C([H])([H])C([H])([H])C([H])(n5nc(-c6c([H])c([H])c(Oc7c([H])c([H])c(F)c([H])c7F)c([H])c6[H])c(C(=O)N([H])[H])c5N([H])[H])C4([H])[H])C([H])([H])[H])c([H])c3[H])c([H])c([H])c2C1([H])[H]

>  <smiles>  (62) 
[H]c1c([H])c([H])c2c(c1[H])C([H])([H])C([H])([H])C([H])([H])C2([H])N([H])C(=O)C1([H])N(C(=O)C([H])(N([H])C(=O)C([H])(N([H])C([H])([H])[H])C([H])([H])[H])C(C([H])([H])[H])(C([H])([H])[H])C([H])([H])[H])C([H])([H])c2c([H])c(OC([H])([H])C([H])(C([H])([H])[H])C([H])([H])c3c([H])c([H])c(C([H])([H])C([H])(N([H])C(=O)N4C([H])([H])C([H])([H])C([H])([H])C([H])(n5nc(-c6c([H])c([H])c(Oc7c([H])c([H])c(F)c([H])c7F)c([H])c6[H])c(C(=O)N([H])[H])c5N([H])[H])C4([H])[H])C([H])([H])[H])c([H])c3[H])c([H])c([H])c2C1([H])[H]

$$$$
62:0:0
     RDKit          3D

 90 98  0  0  1  0  0  0  0  0999 V2000
  -28.1090  -22.1750   21.5700 C   0  0  0  0  0  0  0  0  0  0  0  0
  -26.9240  -22.2150   21.9130 O   0  0  0  0  0  0  0  0  0  0  0  0
  -28.7300  -24.6050   22.1960 C   0  0  0  0  0  2  0  0  0  0  0  0
  -28.8910  -23.4290   21.2520 C   0  0  0  0  0  3  0  0  0  0  0  0
  -28.1400  -24.6810   20.8110 C   0  0  0  0  0  3  0  0  0  0  0  0
  -28.7290  -25.6390   19.7860 C   0  0  0  0  0  2  0  0  0  0  0  0
  -28.6320  -27.0000   20.2120 O   0  0  0  0  0  0  0  0  0  0  0  0
  -24.6410  -31.9780   23.3210 C   0  0  0  0  0  0  0  0  0  0  0  0
  -27.4120  -27.6470   20.2010 C   0  0  0  0  0  0  0  0  0  0  0  0
  -23.4810  -30.5830   21.6400 C   0  0  0  0  0  3  0  0  0  0  0  0
  -24.9800  -29.0950   20.2120 C   0  0  0  0  0  0  0  0  0  0  0  0
  -26.0000  -30.9940   21.4800 C   0  0  0  0  0  2  0  0  0  0  0  0
  -26.1180  -29.6360   20.8200 C   0  0  0  0  0  0  0  0  0  0  0  0
  -27.3350  -28.9200   20.8090 C   0  0  0  0  0  3  0  0  0  0  0  0
  -26.2480  -27.1100   19.6000 C   0  0  0  0  0  3  0  0  0  0  0  0
  -25.0380  -27.8300   19.6040 C   0  0  0  0  0  3  0  0  0  0  0  0
  -23.7200  -29.9290   20.2520 C   0  0  0  0  0  2  0  0  0  0  0  0
  -24.7240  -31.1990   22.2060 N   0  0  0  0  0  0  0  0  0  0  0  0
  -23.5480  -32.2220   23.8510 O   0  0  0  0  0  0  0  0  0  0  0  0
  -22.8370  -29.5340   22.5730 C   0  0  0  0  0  0  0  0  0  0  0  0
  -21.5200  -29.3240   22.4190 N   0  0  0  0  0  0  0  0  0  0  0  0
  -23.5200  -28.9130   23.3920 O   0  0  0  0  0  0  0  0  0  0  0  0
  -21.0310  -29.8790   21.7300 H   0  0  0  0  0  0  0  0  0  0  0  0
  -18.1650  -28.0490   22.8290 C   0  0  0  0  0  0  0  0  0  0  0  0
  -20.7100  -28.3580   23.1590 C   0  0  0  0  0  3  0  0  0  0  0  0
  -20.8560  -26.9380   22.5650 C   0  0  0  0  0  2  0  0  0  0  0  0
  -19.7820  -26.6050   21.5240 C   0  0  0  0  0  2  0  0  0  0  0  0
  -18.3850  -26.7130   22.1410 C   0  0  0  0  0  2  0  0  0  0  0  0
  -19.2580  -28.8290   23.2930 C   0  0  0  0  0  0  0  0  0  0  0  0
  -19.0000  -30.0800   23.8940 C   0  0  0  0  0  3  0  0  0  0  0  0
  -17.6820  -30.5520   24.0380 C   0  0  0  0  0  3  0  0  0  0  0  0
  -16.6030  -29.7690   23.5920 C   0  0  0  0  0  3  0  0  0  0  0  0
  -16.8450  -28.5200   22.9940 C   0  0  0  0  0  3  0  0  0  0  0  0
  -25.9070  -32.6220   23.9690 C   0  0  0  0  0  3  0  0  0  0  0  0
  -25.5840  -34.0190   24.2790 N   0  0  0  0  0  0  0  0  0  0  0  0
  -25.9320  -35.0670   23.5200 C   0  0  0  0  0  0  0  0  0  0  0  0
  -26.6330  -34.9590   22.5090 O   0  0  0  0  0  0  0  0  0  0  0  0
  -24.9670  -34.1780   25.0610 H   0  0  0  0  0  0  0  0  0  0  0  0
  -24.2050  -36.8450   23.0980 C   0  0  0  0  0  1  0  0  0  0  0  0
  -25.4240  -36.4570   23.9500 C   0  0  0  0  0  3  0  0  0  0  0  0
  -27.5300  -37.3590   24.8330 C   0  0  0  0  0  1  0  0  0  0  0  0
  -26.4540  -37.5140   23.8570 N   0  0  0  0  0  0  0  0  0  0  0  0
  -26.0390  -38.4330   23.9860 H   0  0  0  0  0  0  0  0  0  0  0  0
  -26.3980  -31.8610   25.2620 C   0  0  1  0  0  0  0  0  0  0  0  0
  -25.2800  -31.6160   26.3020 C   0  0  0  0  0  1  0  0  0  0  0  0
  -27.0080  -30.4900   24.8890 C   0  0  0  0  0  1  0  0  0  0  0  0
  -27.5210  -32.6720   25.9500 C   0  0  0  0  0  1  0  0  0  0  0  0
  -28.8340  -20.8250   21.4960 C   0  0  0  0  0  2  0  0  0  0  0  0
  -28.4760  -20.0200   20.2290 C   0  0  0  0  0  2  0  0  0  0  0  0
  -28.3840  -18.4960   20.4460 C   0  0  0  0  0  2  0  0  0  0  0  0
  -29.7300  -17.7570   20.5890 C   0  0  0  0  0  2  0  0  0  0  0  0
  -29.5090  -16.2650   20.9110 C   0  0  0  0  0  2  0  0  0  0  0  0
  -31.1070  -14.5440   20.0290 C   0  0  0  0  0  0  0  0  0  0  0  0
  -30.7360  -12.3210   19.0170 C   0  0  0  0  0  2  0  0  0  0  0  0
  -29.7880  -12.4080   17.8070 C   0  0  0  0  0  2  0  0  0  0  0  0
  -28.3180  -12.3040   18.2580 C   0  0  0  0  0  2  0  0  0  0  0  0
  -27.9950  -13.2680   19.4270 C   0  0  0  0  0  3  0  0  0  0  0  0
  -29.0520  -13.1420   20.5500 C   0  0  0  0  0  2  0  0  0  0  0  0
  -30.3790  -13.3930   19.9620 N   0  0  0  0  0  0  0  0  0  0  0  0
  -32.1610  -14.6990   19.4110 O   0  0  0  0  0  0  0  0  0  0  0  0
  -30.7480  -15.4800   20.9250 N   0  0  0  0  0  0  0  0  0  0  0  0
  -31.5410  -16.0440   21.1900 H   0  0  0  0  0  0  0  0  0  0  0  0
  -25.6390  -13.9990   20.1690 C   0  0  0  0  0  0  0  0  0  0  0  0
  -24.5480  -13.2800   20.5750 C   0  0  0  0  0  0  0  0  0  0  0  0
  -24.9530  -11.9100   20.5650 C   0  0  0  0  0  0  0  0  0  0  0  0
  -26.6410  -13.0680   19.9370 N   0  0  0  0  0  0  0  0  0  0  0  0
  -26.2320  -11.8090   20.2310 N   0  0  0  0  0  0  0  0  0  0  0  0
  -24.1820  -10.6830   20.7940 C   0  0  0  0  0  0  0  0  0  0  0  0
  -24.5710   -9.7390   21.7700 C   0  0  0  0  0  3  0  0  0  0  0  0
  -23.8040   -8.5730   21.9840 C   0  0  0  0  0  3  0  0  0  0  0  0
  -22.6320   -8.3450   21.2230 C   0  0  0  0  0  0  0  0  0  0  0  0
  -22.2620   -9.2780   20.2380 C   0  0  0  0  0  3  0  0  0  0  0  0
  -23.0300  -10.4340   20.0220 C   0  0  0  0  0  3  0  0  0  0  0  0
  -21.8390   -7.2300   21.3450 O   0  0  0  0  0  0  0  0  0  0  0  0
  -21.7240   -6.5550   22.5330 C   0  0  0  0  0  0  0  0  0  0  0  0
  -21.2810   -7.1930   23.7130 C   0  0  0  0  0  3  0  0  0  0  0  0
  -21.1110   -6.4460   24.8950 C   0  0  0  0  0  3  0  0  0  0  0  0
  -21.3740   -5.0620   24.8990 C   0  0  0  0  0  0  0  0  0  0  0  0
  -21.8100   -4.4250   23.7250 C   0  0  0  0  0  3  0  0  0  0  0  0
  -21.9820   -5.1690   22.5440 C   0  0  0  0  0  0  0  0  0  0  0  0
  -22.3820   -4.5470   21.4090 F   0  0  0  0  0  0  0  0  0  0  0  0
  -21.2020   -4.3430   26.0330 F   0  0  0  0  0  0  0  0  0  0  0  0
  -23.1760  -13.8190   20.8630 C   0  0  0  0  0  0  0  0  0  0  0  0
  -22.4400  -13.1760   21.7620 N   0  0  0  0  0  0  0  0  0  0  0  0
  -22.7680  -14.8480   20.3240 O   0  0  0  0  0  0  0  0  0  0  0  0
  -22.7820  -12.3460   22.2210 H   0  0  0  0  0  0  0  0  0  0  0  0
  -21.5180  -13.5210   21.9950 H   0  0  0  0  0  0  0  0  0  0  0  0
  -25.8560  -15.3570   19.9560 N   0  0  0  0  0  0  0  0  0  0  0  0
  -25.1150  -16.0410   20.0620 H   0  0  0  0  0  0  0  0  0  0  0  0
  -26.7080  -15.7490   19.5770 H   0  0  0  0  0  0  0  0  0  0  0  0
  1  2  2  0
  4  1  1  0
  4  3  1  0
  5  6  1  0
  5  4  1  0
  5  3  1  0
  6  7  1  0
  8 19  2  0
  9  7  1  0
  9 14  1  0
 10 18  1  0
 10 20  1  0
 11 17  1  0
 11 13  1  0
 12 18  1  0
 13 12  1  0
 14 13  2  0
 15 16  1  0
 15  9  2  0
 16 11  2  0
 17 10  1  0
 18  8  1  0
 20 22  2  0
 21 20  1  0
 23 21  1  0
 24 33  2  0
 24 29  1  0
 25 21  1  0
 25 29  1  0
 26 25  1  0
 27 28  1  0
 27 26  1  0
 28 24  1  0
 29 30  2  0
 30 31  1  0
 32 31  2  0
 33 32  1  0
 34  8  1  0
 34 35  1  0
 34 44  1  0
 35 38  1  0
 36 40  1  0
 36 35  1  0
 37 36  2  0
 40 39  1  0
 42 40  1  0
 42 43  1  0
 42 41  1  0
 44 47  1  1
 44 45  1  0
 46 44  1  0
 48  1  1  0
 49 50  1  0
 49 48  1  0
 50 51  1  0
 51 52  1  0
 52 61  1  0
 53 61  1  0
 54 59  1  0
 55 56  1  0
 55 54  1  0
 57 56  1  0
 57 66  1  0
 57 58  1  0
 59 53  1  0
 59 58  1  0
 60 53  2  0
 61 62  1  0
 63 64  2  0
 64 83  1  0
 65 64  1  0
 65 68  1  0
 66 63  1  0
 66 67  1  0
 67 65  2  0
 68 69  1  0
 69 70  2  0
 71 74  1  0
 71 70  1  0
 72 71  2  0
 73 72  1  0
 73 68  2  0
 74 75  1  0
 75 80  2  0
 75 76  1  0
 76 77  2  0
 77 78  1  0
 78 82  1  0
 79 78  2  0
 80 79  1  0
 81 80  1  0
 83 84  1  0
 84 87  1  0
 84 86  1  0
 85 83  2  0
 88 89  1  0
 88 63  1  0
 90 88  1  0
M  ISO  4   6 101   7 101  53 100  61 100
M  END
>  <TORSDO>  (63) 
F 23

>  <SCORE>  (63) 
-12.201

>  <name>  (63) 
62

>  <ligand_id>  (63) 
62

>  <original_smiles>  (63) 
[H]c1c([H])c([H])c2c(c1[H])C([H])([H])C([H])([H])C([H])([H])C2([H])N([H])C(=O)C1([H])N(C(=O)C([H])(N([H])C(=O)C([H])(N([H])C([H])([H])[H])C([H])([H])[H])C(C([H])([H])[H])(C([H])([H])[H])C([H])([H])[H])C([H])([H])c2c([H])c(OC([H])([H])C3([H])C([H])([H])C3([H])C(=O)C([H])([H])C([H])([H])C([H])([H])C([H])([H])C([H])([H])N([H])C(=O)N3C([H])([H])C([H])([H])C([H])([H])C([H])(n4nc(-c5c([H])c([H])c(Oc6c([H])c([H])c(F)c([H])c6F)c([H])c5[H])c(C(=O)N([H])[H])c4N([H])[H])C3([H])[H])c([H])c([H])c2C1([H])[H]

>  <smiles>  (63) 
[H]c1c([H])c([H])c2c(c1[H])C([H])([H])C([H])([H])C([H])([H])C2([H])N([H])C(=O)C1([H])N(C(=O)C([H])(N([H])C(=O)C([H])(N([H])C([H])([H])[H])C([H])([H])[H])C(C([H])([H])[H])(C([H])([H])[H])C([H])([H])[H])C([H])([H])c2c([H])c(OC([H])([H])C3([H])C([H])([H])C3([H])C(=O)C([H])([H])C([H])([H])C([H])([H])C([H])([H])C([H])([H])N([H])C(=O)N3C([H])([H])C([H])([H])C([H])([H])C([H])(n4nc(-c5c([H])c([H])c(Oc6c([H])c([H])c(F)c([H])c6F)c([H])c5[H])c(C(=O)N([H])[H])c4N([H])[H])C3([H])[H])c([H])c([H])c2C1([H])[H]

$$$$
63:0:0
     RDKit          3D

 92100  0  0  1  0  0  0  0  0999 V2000
  -31.6640  -22.2950   19.4680 C   0  0  0  0  0  2  0  0  0  0  0  0
  -30.6460  -23.2590   18.8590 C   0  0  0  0  0  2  0  0  0  0  0  0
  -29.8260  -22.6820   21.0190 C   0  0  0  0  0  2  0  0  0  0  0  0
  -30.9330  -21.6610   20.6630 C   0  0  0  0  0  3  0  0  0  0  0  0
  -29.8660  -23.7680   20.0080 N   0  0  2  0  0  4  0  0  0  0  0  0
  -30.4190  -24.5010   20.4290 H   0  0  0  0  0  0  0  0  0  0  0  0
  -30.3610  -20.2720   20.3340 C   0  0  0  0  0  0  0  0  0  0  0  0
  -29.6110  -20.1050   19.3680 O   0  0  0  0  0  0  0  0  0  0  0  0
  -30.7470  -19.1120   21.2580 C   0  0  0  0  0  2  0  0  0  0  0  0
  -30.2320  -17.7350   20.7840 C   0  0  0  0  0  2  0  0  0  0  0  0
  -30.6470  -16.6050   21.7430 C   0  0  0  0  0  2  0  0  0  0  0  0
  -30.6840  -14.4070   20.5490 C   0  0  0  0  0  0  0  0  0  0  0  0
  -30.3310  -12.3050   19.3020 C   0  0  0  0  0  2  0  0  0  0  0  0
  -29.3940  -12.5630   18.1070 C   0  0  0  0  0  2  0  0  0  0  0  0
  -27.9200  -12.4290   18.5370 C   0  0  0  0  0  2  0  0  0  0  0  0
  -27.5960  -13.2410   19.8190 C   0  0  0  0  0  3  0  0  0  0  0  0
  -28.6440  -12.9700   20.9190 C   0  0  0  0  0  2  0  0  0  0  0  0
  -29.9790  -13.2630   20.3600 N   0  0  0  0  0  0  0  0  0  0  0  0
  -31.7630  -14.6430   19.9960 O   0  0  0  0  0  0  0  0  0  0  0  0
  -30.1030  -15.3060   21.3540 N   0  0  0  0  0  0  0  0  0  0  0  0
  -29.2100  -15.0370   21.7440 H   0  0  0  0  0  0  0  0  0  0  0  0
  -25.1910  -13.8650   20.5030 C   0  0  0  0  0  0  0  0  0  0  0  0
  -24.1180  -13.1000   20.8690 C   0  0  0  0  0  0  0  0  0  0  0  0
  -24.5740  -11.7460   20.8520 C   0  0  0  0  0  0  0  0  0  0  0  0
  -26.2360  -12.9790   20.2870 N   0  0  0  0  0  0  0  0  0  0  0  0
  -25.8660  -11.7010   20.5500 N   0  0  0  0  0  0  0  0  0  0  0  0
  -23.8430  -10.4880   21.0490 C   0  0  0  0  0  0  0  0  0  0  0  0
  -24.2830   -9.5180   21.9770 C   0  0  0  0  0  3  0  0  0  0  0  0
  -23.5540   -8.3220   22.1600 C   0  0  0  0  0  3  0  0  0  0  0  0
  -22.3720   -8.0910   21.4160 C   0  0  0  0  0  0  0  0  0  0  0  0
  -21.9510   -9.0510   20.4800 C   0  0  0  0  0  3  0  0  0  0  0  0
  -22.6800  -10.2380   20.2940 C   0  0  0  0  0  3  0  0  0  0  0  0
  -21.6140   -6.9490   21.5090 O   0  0  0  0  0  0  0  0  0  0  0  0
  -21.5910   -6.1910   22.6530 C   0  0  0  0  0  0  0  0  0  0  0  0
  -21.2130   -6.7370   23.8990 C   0  0  0  0  0  3  0  0  0  0  0  0
  -21.1340   -5.9070   25.0350 C   0  0  0  0  0  3  0  0  0  0  0  0
  -21.4240   -4.5340   24.9260 C   0  0  0  0  0  0  0  0  0  0  0  0
  -21.7950   -3.9880   23.6850 C   0  0  0  0  0  3  0  0  0  0  0  0
  -21.8760   -4.8140   22.5510 C   0  0  0  0  0  0  0  0  0  0  0  0
  -22.2140   -4.2810   21.3520 F   0  0  0  0  0  0  0  0  0  0  0  0
  -21.3410   -3.7340   26.0150 F   0  0  0  0  0  0  0  0  0  0  0  0
  -22.7220  -13.5830   21.1340 C   0  0  0  0  0  0  0  0  0  0  0  0
  -21.9930  -12.8950   22.0040 N   0  0  0  0  0  0  0  0  0  0  0  0
  -22.2880  -14.6070   20.6050 O   0  0  0  0  0  0  0  0  0  0  0  0
  -22.3550  -12.0630   22.4450 H   0  0  0  0  0  0  0  0  0  0  0  0
  -21.0570  -13.2020   22.2320 H   0  0  0  0  0  0  0  0  0  0  0  0
  -25.3570  -15.2350   20.3220 N   0  0  0  0  0  0  0  0  0  0  0  0
  -24.5830  -15.8810   20.4180 H   0  0  0  0  0  0  0  0  0  0  0  0
  -26.2100  -15.6810   20.0070 H   0  0  0  0  0  0  0  0  0  0  0  0
  -28.5450  -24.3640   19.6640 C   0  0  0  0  0  2  0  0  0  0  0  0
  -28.6780  -25.7960   19.0900 C   0  0  0  0  0  2  0  0  0  0  0  0
  -28.4580  -26.8080   20.0830 O   0  0  0  0  0  0  0  0  0  0  0  0
  -24.5960  -31.8900   23.2390 C   0  0  0  0  0  0  0  0  0  0  0  0
  -27.2460  -27.4770   20.1150 C   0  0  0  0  0  0  0  0  0  0  0  0
  -23.3830  -30.4880   21.6020 C   0  0  0  0  0  3  0  0  0  0  0  0
  -24.8320  -28.9580   20.1680 C   0  0  0  0  0  0  0  0  0  0  0  0
  -25.9040  -30.8590   21.3890 C   0  0  0  0  0  2  0  0  0  0  0  0
  -25.9900  -29.4880   20.7490 C   0  0  0  0  0  0  0  0  0  0  0  0
  -27.1940  -28.7490   20.7320 C   0  0  0  0  0  3  0  0  0  0  0  0
  -26.0570  -26.9440   19.5630 C   0  0  0  0  0  3  0  0  0  0  0  0
  -24.8580  -27.6800   19.5860 C   0  0  0  0  0  3  0  0  0  0  0  0
  -23.5830  -29.8110   20.2210 C   0  0  0  0  0  2  0  0  0  0  0  0
  -24.6460  -31.0940   22.1350 N   0  0  0  0  0  0  0  0  0  0  0  0
  -23.5190  -32.1580   23.7880 O   0  0  0  0  0  0  0  0  0  0  0  0
  -22.7430  -29.4620   22.5630 C   0  0  0  0  0  0  0  0  0  0  0  0
  -21.4190  -29.2750   22.4420 N   0  0  0  0  0  0  0  0  0  0  0  0
  -23.4340  -28.8370   23.3710 O   0  0  0  0  0  0  0  0  0  0  0  0
  -20.9190  -29.8330   21.7630 H   0  0  0  0  0  0  0  0  0  0  0  0
  -18.0510  -28.0780   22.9510 C   0  0  0  0  0  0  0  0  0  0  0  0
  -20.6100  -28.3330   23.2130 C   0  0  0  0  0  3  0  0  0  0  0  0
  -20.7100  -26.9050   22.6280 C   0  0  0  0  0  2  0  0  0  0  0  0
  -19.6010  -26.5890   21.6180 C   0  0  0  0  0  2  0  0  0  0  0  0
  -18.2230  -26.7320   22.2690 C   0  0  0  0  0  2  0  0  0  0  0  0
  -19.1720  -28.8380   23.3800 C   0  0  0  0  0  0  0  0  0  0  0  0
  -18.9570  -30.1040   23.9700 C   0  0  0  0  0  3  0  0  0  0  0  0
  -17.6530  -30.6060   24.1390 C   0  0  0  0  0  3  0  0  0  0  0  0
  -16.5470  -29.8410   23.7300 C   0  0  0  0  0  3  0  0  0  0  0  0
  -16.7460  -28.5810   23.1410 C   0  0  0  0  0  3  0  0  0  0  0  0
  -25.8850  -32.5220   23.8520 C   0  0  0  0  0  3  0  0  0  0  0  0
  -25.5770  -33.9180   24.1890 N   0  0  0  0  0  0  0  0  0  0  0  0
  -25.9020  -34.9710   23.4280 C   0  0  0  0  0  0  0  0  0  0  0  0
  -26.5650  -34.8730   22.3920 O   0  0  0  0  0  0  0  0  0  0  0  0
  -24.9830  -34.0720   24.9900 H   0  0  0  0  0  0  0  0  0  0  0  0
  -24.1620  -36.7570   23.0970 C   0  0  0  0  0  1  0  0  0  0  0  0
  -25.4130  -36.3560   23.8940 C   0  0  0  0  0  3  0  0  0  0  0  0
  -27.5510  -37.2480   24.7030 C   0  0  0  0  0  1  0  0  0  0  0  0
  -26.4380  -37.4140   23.7720 N   0  0  0  0  0  0  0  0  0  0  0  0
  -26.0270  -38.3310   23.9270 H   0  0  0  0  0  0  0  0  0  0  0  0
  -26.4150  -31.7450   25.1180 C   0  0  1  0  0  0  0  0  0  0  0  0
  -25.3360  -31.4980   26.1990 C   0  0  0  0  0  1  0  0  0  0  0  0
  -26.9950  -30.3710   24.7090 C   0  0  0  0  0  1  0  0  0  0  0  0
  -27.5670  -32.5390   25.7780 C   0  0  0  0  0  1  0  0  0  0  0  0
  1  4  1  0
  2  1  1  0
  2  5  1  0
  4  7  1  0
  4  3  1  0
  5  6  1  1
  5  3  1  0
  7  9  1  0
  8  7  2  0
 10  9  1  0
 10 11  1  0
 12 20  1  0
 13 18  1  0
 14 15  1  0
 14 13  1  0
 16 15  1  0
 16 25  1  0
 16 17  1  0
 18 12  1  0
 18 17  1  0
 19 12  2  0
 20 11  1  0
 20 21  1  0
 22 23  2  0
 23 42  1  0
 24 23  1  0
 24 27  1  0
 25 22  1  0
 25 26  1  0
 26 24  2  0
 27 28  1  0
 28 29  2  0
 30 33  1  0
 30 29  1  0
 31 30  2  0
 32 31  1  0
 32 27  2  0
 33 34  1  0
 34 35  1  0
 35 36  2  0
 37 36  1  0
 37 41  1  0
 38 37  2  0
 39 34  2  0
 39 38  1  0
 40 39  1  0
 42 43  1  0
 43 46  1  0
 43 45  1  0
 44 42  2  0
 47 48  1  0
 47 22  1  0
 49 47  1  0
 50  5  1  0
 51 50  1  0
 51 52  1  0
 52 54  1  0
 53 64  2  0
 54 59  1  0
 55 63  1  0
 55 65  1  0
 56 62  1  0
 56 58  1  0
 57 63  1  0
 58 57  1  0
 59 58  2  0
 60 61  1  0
 60 54  2  0
 61 56  2  0
 62 55  1  0
 63 53  1  0
 65 67  2  0
 66 65  1  0
 68 66  1  0
 69 78  2  0
 69 74  1  0
 70 66  1  0
 70 74  1  0
 71 70  1  0
 72 73  1  0
 72 71  1  0
 73 69  1  0
 74 75  2  0
 75 76  1  0
 77 76  2  0
 78 77  1  0
 79 53  1  0
 79 80  1  0
 79 89  1  0
 80 83  1  0
 81 85  1  0
 81 80  1  0
 82 81  2  0
 85 84  1  0
 87 85  1  0
 87 88  1  0
 87 86  1  0
 89 92  1  1
 89 90  1  0
 91 89  1  0
M  ISO  4  12 100  20 100  51 101  52 101
M  END
>  <TORSDO>  (64) 
F 22

>  <SCORE>  (64) 
-13.201

>  <name>  (64) 
63

>  <ligand_id>  (64) 
63

>  <original_smiles>  (64) 
[H]c1c([H])c([H])c2c(c1[H])C([H])([H])C([H])([H])C([H])([H])C2([H])N([H])C(=O)C1([H])N(C(=O)C([H])(N([H])C(=O)C([H])(N([H])C([H])([H])[H])C([H])([H])[H])C(C([H])([H])[H])(C([H])([H])[H])C([H])([H])[H])C([H])([H])c2c([H])c(OC([H])([H])C([H])([H])[N+]3([H])C([H])([H])C([H])([H])C([H])(C(=O)C([H])([H])C([H])([H])C([H])([H])N([H])C(=O)N4C([H])([H])C([H])([H])C([H])([H])C([H])(n5nc(-c6c([H])c([H])c(Oc7c([H])c([H])c(F)c([H])c7F)c([H])c6[H])c(C(=O)N([H])[H])c5N([H])[H])C4([H])[H])C3([H])[H])c([H])c([H])c2C1([H])[H]

>  <smiles>  (64) 
[H]c1c([H])c([H])c2c(c1[H])C([H])([H])C([H])([H])C([H])([H])C2([H])N([H])C(=O)C1([H])N(C(=O)C([H])(N([H])C(=O)C([H])(N([H])C([H])([H])[H])C([H])([H])[H])C(C([H])([H])[H])(C([H])([H])[H])C([H])([H])[H])C([H])([H])c2c([H])c(OC([H])([H])C([H])([H])[N+]3([H])C([H])([H])C([H])([H])C([H])(C(=O)C([H])([H])C([H])([H])C([H])([H])N([H])C(=O)N4C([H])([H])C([H])([H])C([H])([H])C([H])(n5nc(-c6c([H])c([H])c(Oc7c([H])c([H])c(F)c([H])c7F)c([H])c6[H])c(C(=O)N([H])[H])c5N([H])[H])C4([H])[H])C3([H])[H])c([H])c([H])c2C1([H])[H]

$$$$
64:0:0
     RDKit          3D

 93101  0  0  1  0  0  0  0  0999 V2000
  -28.3280  -21.7800   20.6650 C   0  0  0  0  0  3  0  0  0  0  0  0
  -30.4480  -22.0370   19.5540 C   0  0  0  0  0  3  0  0  0  0  0  0
  -28.4160  -20.3680   20.4830 C   0  0  0  0  0  3  0  0  0  0  0  0
  -30.5360  -20.6270   19.3730 C   0  0  0  0  0  3  0  0  0  0  0  0
  -29.3440  -22.6550   20.2030 C   0  0  0  0  0  0  0  0  0  0  0  0
  -29.5230  -19.7530   19.8380 C   0  0  0  0  0  0  0  0  0  0  0  0
  -29.3460  -24.2010   20.4820 C   0  0  0  0  0  3  0  0  0  0  0  0
  -28.1170  -25.1020   20.0690 C   0  0  0  0  0  3  0  0  0  0  0  0
  -28.2840  -26.5580   20.2520 O   0  0  0  0  0  0  0  0  0  0  0  0
  -24.5510  -31.9450   23.2260 C   0  0  0  0  0  0  0  0  0  0  0  0
  -27.1480  -27.3750   20.2000 C   0  0  0  0  0  0  0  0  0  0  0  0
  -23.3320  -30.5160   21.6220 C   0  0  0  0  0  3  0  0  0  0  0  0
  -24.7700  -28.9560   20.2010 C   0  0  0  0  0  0  0  0  0  0  0  0
  -25.8650  -30.8510   21.4000 C   0  0  0  0  0  2  0  0  0  0  0  0
  -25.9430  -29.4650   20.7730 C   0  0  0  0  0  0  0  0  0  0  0  0
  -27.1350  -28.6850   20.7620 C   0  0  0  0  0  3  0  0  0  0  0  0
  -25.9510  -26.9120   19.6060 C   0  0  0  0  0  3  0  0  0  0  0  0
  -24.7760  -27.6830   19.6100 C   0  0  0  0  0  3  0  0  0  0  0  0
  -23.5300  -29.8210   20.2500 C   0  0  0  0  0  2  0  0  0  0  0  0
  -24.6020  -31.1220   22.1400 N   0  0  0  0  0  0  0  0  0  0  0  0
  -23.4730  -32.2260   23.7700 O   0  0  0  0  0  0  0  0  0  0  0  0
  -22.6890  -29.5100   22.6070 C   0  0  0  0  0  0  0  0  0  0  0  0
  -21.3680  -29.2990   22.4750 N   0  0  0  0  0  0  0  0  0  0  0  0
  -23.3760  -28.9210   23.4450 O   0  0  0  0  0  0  0  0  0  0  0  0
  -20.8730  -29.8260   21.7690 H   0  0  0  0  0  0  0  0  0  0  0  0
  -18.0220  -28.0170   22.9560 C   0  0  0  0  0  0  0  0  0  0  0  0
  -20.5640  -28.3660   23.2650 C   0  0  0  0  0  3  0  0  0  0  0  0
  -20.7210  -26.9180   22.7480 C   0  0  0  0  0  2  0  0  0  0  0  0
  -19.6510  -26.5220   21.7260 C   0  0  0  0  0  2  0  0  0  0  0  0
  -18.2530  -26.6480   22.3380 C   0  0  0  0  0  2  0  0  0  0  0  0
  -19.1070  -28.8290   23.3780 C   0  0  0  0  0  0  0  0  0  0  0  0
  -18.8380  -30.1060   23.9160 C   0  0  0  0  0  3  0  0  0  0  0  0
  -17.5150  -30.5730   24.0370 C   0  0  0  0  0  3  0  0  0  0  0  0
  -16.4430  -29.7580   23.6330 C   0  0  0  0  0  3  0  0  0  0  0  0
  -16.6970  -28.4830   23.0980 C   0  0  0  0  0  3  0  0  0  0  0  0
  -25.8400  -32.5910   23.8220 C   0  0  0  0  0  3  0  0  0  0  0  0
  -25.5230  -33.9860   24.1550 N   0  0  0  0  0  0  0  0  0  0  0  0
  -25.8330  -35.0410   23.3890 C   0  0  0  0  0  0  0  0  0  0  0  0
  -26.4850  -34.9420   22.3470 O   0  0  0  0  0  0  0  0  0  0  0  0
  -24.9420  -34.1380   24.9670 H   0  0  0  0  0  0  0  0  0  0  0  0
  -24.0810  -36.8160   23.0630 C   0  0  0  0  0  1  0  0  0  0  0  0
  -25.3400  -36.4250   23.8520 C   0  0  0  0  0  3  0  0  0  0  0  0
  -27.4810  -37.3310   24.6430 C   0  0  0  0  0  1  0  0  0  0  0  0
  -26.3610  -37.4880   23.7190 N   0  0  0  0  0  0  0  0  0  0  0  0
  -25.9490  -38.4040   23.8720 H   0  0  0  0  0  0  0  0  0  0  0  0
  -26.3880  -31.8270   25.0910 C   0  0  1  0  0  0  0  0  0  0  0  0
  -25.3130  -31.5630   26.1700 C   0  0  0  0  0  1  0  0  0  0  0  0
  -26.9960  -30.4630   24.6880 C   0  0  0  0  0  1  0  0  0  0  0  0
  -27.5300  -32.6440   25.7420 C   0  0  0  0  0  1  0  0  0  0  0  0
  -29.5570  -18.2030   19.5800 C   0  0  0  0  0  2  0  0  0  0  0  0
  -30.7800  -17.2730   20.0140 C   0  0  0  0  0  3  0  0  0  0  0  0
  -31.1560  -14.7050   19.7390 C   0  0  0  0  0  0  0  0  0  0  0  0
  -30.8580  -12.3730   18.9410 C   0  0  0  0  0  2  0  0  0  0  0  0
  -29.8630  -12.3770   17.7610 C   0  0  0  0  0  2  0  0  0  0  0  0
  -28.4100  -12.2960   18.2690 C   0  0  0  0  0  2  0  0  0  0  0  0
  -28.1170  -13.3070   19.4090 C   0  0  0  0  0  3  0  0  0  0  0  0
  -29.2210  -13.2650   20.4900 C   0  0  0  0  0  2  0  0  0  0  0  0
  -30.5070  -13.5050   19.8190 N   0  0  0  0  0  0  0  0  0  0  0  0
  -32.3000  -14.7970   19.2860 O   0  0  0  0  0  0  0  0  0  0  0  0
  -30.4110  -15.8130   20.0230 N   0  0  0  0  0  0  0  0  0  0  0  0
  -29.4750  -15.6100   20.3380 H   0  0  0  0  0  0  0  0  0  0  0  0
  -25.8430  -14.0590   20.3400 C   0  0  0  0  0  0  0  0  0  0  0  0
  -24.7410  -13.3560   20.7470 C   0  0  0  0  0  0  0  0  0  0  0  0
  -25.0800  -11.9760   20.6050 C   0  0  0  0  0  0  0  0  0  0  0  0
  -26.7870  -13.1110   19.9790 N   0  0  0  0  0  0  0  0  0  0  0  0
  -26.3370  -11.8490   20.1960 N   0  0  0  0  0  0  0  0  0  0  0  0
  -24.2620  -10.7680   20.7790 C   0  0  0  0  0  0  0  0  0  0  0  0
  -24.6390   -9.7430   21.6740 C   0  0  0  0  0  3  0  0  0  0  0  0
  -23.8260   -8.6000   21.8370 C   0  0  0  0  0  3  0  0  0  0  0  0
  -22.6200   -8.4780   21.1040 C   0  0  0  0  0  0  0  0  0  0  0  0
  -22.2620   -9.4900   20.1970 C   0  0  0  0  0  3  0  0  0  0  0  0
  -23.0760  -10.6240   20.0320 C   0  0  0  0  0  3  0  0  0  0  0  0
  -21.7810   -7.3930   21.1790 O   0  0  0  0  0  0  0  0  0  0  0  0
  -21.6430   -6.6660   22.3360 C   0  0  0  0  0  0  0  0  0  0  0  0
  -21.2270   -7.2640   23.5450 C   0  0  0  0  0  3  0  0  0  0  0  0
  -21.0320   -6.4690   24.6920 C   0  0  0  0  0  3  0  0  0  0  0  0
  -21.2420   -5.0790   24.6300 C   0  0  0  0  0  0  0  0  0  0  0  0
  -21.6510   -4.4810   23.4250 C   0  0  0  0  0  3  0  0  0  0  0  0
  -21.8490   -5.2730   22.2810 C   0  0  0  0  0  0  0  0  0  0  0  0
  -22.2230   -4.6890   21.1170 F   0  0  0  0  0  0  0  0  0  0  0  0
  -21.0470   -4.3130   25.7290 F   0  0  0  0  0  0  0  0  0  0  0  0
  -23.4150  -13.9290   21.1510 C   0  0  0  0  0  0  0  0  0  0  0  0
  -22.7010  -13.2540   22.0460 N   0  0  0  0  0  0  0  0  0  0  0  0
  -23.0220  -15.0090   20.7090 O   0  0  0  0  0  0  0  0  0  0  0  0
  -23.0310  -12.3800   22.4250 H   0  0  0  0  0  0  0  0  0  0  0  0
  -21.8130  -13.6200   22.3590 H   0  0  0  0  0  0  0  0  0  0  0  0
  -26.1110  -15.4200   20.2260 N   0  0  0  0  0  0  0  0  0  0  0  0
  -25.4070  -16.1230   20.4250 H   0  0  0  0  0  0  0  0  0  0  0  0
  -26.9540  -15.8110   19.8240 H   0  0  0  0  0  0  0  0  0  0  0  0
  -30.3740  -17.5900   22.5490 C   0  0  0  0  0  1  0  0  0  0  0  0
  -31.4160  -17.6010   21.4060 C   0  0  0  0  0  3  0  0  0  0  0  0
  -32.4090  -20.0790   22.3670 C   0  0  0  0  0  1  0  0  0  0  0  0
  -32.3580  -18.8520   21.4140 C   0  0  0  0  0  2  0  0  0  0  0  0
  2  5  1  0
  3  1  1  0
  4  2  2  0
  4  6  1  0
  5  7  1  0
  5  1  2  0
  6  3  2  0
  8  9  1  0
  8  7  2  0
 10 21  2  0
 11  9  1  0
 11 16  1  0
 12 20  1  0
 12 22  1  0
 13 19  1  0
 13 15  1  0
 14 20  1  0
 15 14  1  0
 16 15  2  0
 17 18  1  0
 17 11  2  0
 18 13  2  0
 19 12  1  0
 20 10  1  0
 22 24  2  0
 23 22  1  0
 25 23  1  0
 26 35  2  0
 26 31  1  0
 27 23  1  0
 27 31  1  0
 28 27  1  0
 29 30  1  0
 29 28  1  0
 30 26  1  0
 31 32  2  0
 32 33  1  0
 34 33  2  0
 35 34  1  0
 36 10  1  0
 36 37  1  0
 36 46  1  0
 37 40  1  0
 38 42  1  0
 38 37  1  0
 39 38  2  0
 42 41  1  0
 44 42  1  0
 44 45  1  0
 44 43  1  0
 46 49  1  1
 46 47  1  0
 48 46  1  0
 50  6  1  0
 51 50  1  0
 51 60  1  0
 51 91  1  0
 52 58  1  0
 52 60  1  0
 53 58  1  0
 54 55  1  0
 54 53  1  0
 56 55  1  0
 56 65  1  0
 56 57  1  0
 58 57  1  0
 59 52  2  0
 60 61  1  0
 62 63  2  0
 63 82  1  0
 64 63  1  0
 64 67  1  0
 65 66  1  0
 65 62  1  0
 66 64  2  0
 67 68  1  0
 68 69  2  0
 70 73  1  0
 70 69  1  0
 71 70  2  0
 72 71  1  0
 72 67  2  0
 73 74  1  0
 74 75  1  0
 75 76  2  0
 77 76  1  0
 77 81  1  0
 78 77  2  0
 79 74  2  0
 79 78  1  0
 80 79  1  0
 82 83  1  0
 83 86  1  0
 83 85  1  0
 84 82  2  0
 87 62  1  0
 87 88  1  0
 89 87  1  0
 91 93  1  0
 91 90  1  0
 93 92  1  0
M  ISO  4   8 101   9 101  52 100  60 100
M  END
>  <TORSDO>  (65) 
F 22

>  <SCORE>  (65) 
-12.900

>  <name>  (65) 
64

>  <ligand_id>  (65) 
64

>  <original_smiles>  (65) 
[H]c1c([H])c([H])c2c(c1[H])C([H])([H])C([H])([H])C([H])([H])C2([H])N([H])C(=O)C1([H])N(C(=O)C([H])(N([H])C(=O)C([H])(N([H])C([H])([H])[H])C([H])([H])[H])C(C([H])([H])[H])(C([H])([H])[H])C([H])([H])[H])C([H])([H])c2c([H])c(OC([H])([H])C([H])([H])c3c([H])c([H])c(C([H])([H])C([H])(N([H])C(=O)N4C([H])([H])C([H])([H])C([H])([H])C([H])(n5nc(-c6c([H])c([H])c(Oc7c([H])c([H])c(F)c([H])c7F)c([H])c6[H])c(C(=O)N([H])[H])c5N([H])[H])C4([H])[H])C([H])(C([H])([H])[H])C([H])([H])C([H])([H])[H])c([H])c3[H])c([H])c([H])c2C1([H])[H]

>  <smiles>  (65) 
[H]c1c([H])c([H])c2c(c1[H])C([H])([H])C([H])([H])C([H])([H])C2([H])N([H])C(=O)C1([H])N(C(=O)C([H])(N([H])C(=O)C([H])(N([H])C([H])([H])[H])C([H])([H])[H])C(C([H])([H])[H])(C([H])([H])[H])C([H])([H])[H])C([H])([H])c2c([H])c(OC([H])([H])C([H])([H])c3c([H])c([H])c(C([H])([H])C([H])(N([H])C(=O)N4C([H])([H])C([H])([H])C([H])([H])C([H])(n5nc(-c6c([H])c([H])c(Oc7c([H])c([H])c(F)c([H])c7F)c([H])c6[H])c(C(=O)N([H])[H])c5N([H])[H])C4([H])[H])C([H])(C([H])([H])[H])C([H])([H])C([H])([H])[H])c([H])c3[H])c([H])c([H])c2C1([H])[H]

$$$$
65:0:0
     RDKit          3D

 87 95  0  0  1  0  0  0  0  0999 V2000
  -28.9470  -21.8180   20.0200 C   0  0  0  0  0  2  0  0  0  0  0  0
  -29.0670  -20.3310   20.8290 C   0  0  0  0  0  2  0  0  0  0  0  0
  -29.6570  -17.3470   20.3950 C   0  0  0  0  0  3  0  0  0  0  0  0
  -29.0560  -17.2370   19.0900 C   0  0  0  0  0  0  0  0  0  0  0  0
  -29.4820  -18.6800   18.7170 C   0  0  0  0  0  2  0  0  0  0  0  0
  -29.8810  -19.0030   20.1990 C   0  0  0  0  0  3  0  0  0  0  0  0
  -29.9160  -16.2920   21.1310 N   0  0  0  0  0  2  0  0  0  0  0  0
  -28.4600  -16.3070   18.5390 O   0  0  0  0  0  0  0  0  0  0  0  0
  -30.7120  -15.0960   20.7870 C   0  0  0  0  0  0  0  0  0  0  0  0
  -30.6720  -12.7390   19.8610 C   0  0  0  0  0  2  0  0  0  0  0  0
  -29.8330  -12.7250   18.5620 C   0  0  0  0  0  2  0  0  0  0  0  0
  -28.3430  -12.4970   18.8820 C   0  0  0  0  0  2  0  0  0  0  0  0
  -27.8500  -13.4050   20.0400 C   0  0  0  0  0  3  0  0  0  0  0  0
  -28.8210  -13.4130   21.2380 C   0  0  0  0  0  2  0  0  0  0  0  0
  -30.1420  -13.8220   20.7410 N   0  0  0  0  0  0  0  0  0  0  0  0
  -31.9030  -15.1610   20.4710 O   0  0  0  0  0  0  0  0  0  0  0  0
  -25.4130  -13.9610   20.5860 C   0  0  0  0  0  0  0  0  0  0  0  0
  -24.3340  -13.1780   20.8950 C   0  0  0  0  0  0  0  0  0  0  0  0
  -24.8210  -11.8340   20.9300 C   0  0  0  0  0  0  0  0  0  0  0  0
  -26.4830  -13.0950   20.4430 N   0  0  0  0  0  0  0  0  0  0  0  0
  -26.1310  -11.8120   20.7150 N   0  0  0  0  0  0  0  0  0  0  0  0
  -24.0990  -10.5650   21.0980 C   0  0  0  0  0  0  0  0  0  0  0  0
  -24.4830   -9.6190   22.0730 C   0  0  0  0  0  3  0  0  0  0  0  0
  -23.7600   -8.4160   22.2270 C   0  0  0  0  0  3  0  0  0  0  0  0
  -22.6400   -8.1510   21.4050 C   0  0  0  0  0  0  0  0  0  0  0  0
  -22.2750   -9.0860   20.4210 C   0  0  0  0  0  3  0  0  0  0  0  0
  -22.9980  -10.2800   20.2660 C   0  0  0  0  0  3  0  0  0  0  0  0
  -21.8940   -6.9980   21.4650 O   0  0  0  0  0  0  0  0  0  0  0  0
  -21.7940   -6.2640   22.6200 C   0  0  0  0  0  0  0  0  0  0  0  0
  -21.3010   -6.8250   23.8190 C   0  0  0  0  0  3  0  0  0  0  0  0
  -21.1500   -6.0160   24.9630 C   0  0  0  0  0  3  0  0  0  0  0  0
  -21.4840   -4.6490   24.9090 C   0  0  0  0  0  0  0  0  0  0  0  0
  -21.9710   -4.0900   23.7150 C   0  0  0  0  0  3  0  0  0  0  0  0
  -22.1230   -4.8950   22.5730 C   0  0  0  0  0  0  0  0  0  0  0  0
  -22.5720   -4.3450   21.4190 F   0  0  0  0  0  0  0  0  0  0  0  0
  -21.3310   -3.8710   26.0060 F   0  0  0  0  0  0  0  0  0  0  0  0
  -22.9160  -13.6400   21.0520 C   0  0  0  0  0  0  0  0  0  0  0  0
  -22.1340  -12.9550   21.8770 N   0  0  0  0  0  0  0  0  0  0  0  0
  -22.5060  -14.6470   20.4760 O   0  0  0  0  0  0  0  0  0  0  0  0
  -22.4760  -12.1420   22.3660 H   0  0  0  0  0  0  0  0  0  0  0  0
  -21.1780  -13.2500   22.0200 H   0  0  0  0  0  0  0  0  0  0  0  0
  -25.5670  -15.3300   20.3900 N   0  0  0  0  0  0  0  0  0  0  0  0
  -24.7830  -15.9720   20.4230 H   0  0  0  0  0  0  0  0  0  0  0  0
  -26.4320  -15.7720   20.1020 H   0  0  0  0  0  0  0  0  0  0  0  0
  -28.7680  -23.3760   20.6630 C   0  0  0  0  0  3  0  0  0  0  0  0
  -28.1320  -24.7220   19.8670 C   0  0  0  0  0  3  0  0  0  0  0  0
  -28.2550  -26.2390   20.2250 O   0  0  0  0  0  0  0  0  0  0  0  0
  -24.6090  -31.9060   23.1890 C   0  0  0  0  0  0  0  0  0  0  0  0
  -27.1910  -27.2110   20.1260 C   0  0  0  0  0  0  0  0  0  0  0  0
  -23.4050  -30.5050   21.5580 C   0  0  0  0  0  3  0  0  0  0  0  0
  -24.8520  -28.9470   20.1110 C   0  0  0  0  0  0  0  0  0  0  0  0
  -25.9580  -30.7840   21.3750 C   0  0  0  0  0  2  0  0  0  0  0  0
  -26.0320  -29.3950   20.7180 C   0  0  0  0  0  0  0  0  0  0  0  0
  -27.1990  -28.5430   20.7120 C   0  0  0  0  0  3  0  0  0  0  0  0
  -25.9900  -26.8780   19.4610 C   0  0  0  0  0  3  0  0  0  0  0  0
  -24.8450  -27.7030   19.4650 C   0  0  0  0  0  3  0  0  0  0  0  0
  -23.6190  -29.8350   20.1740 C   0  0  0  0  0  2  0  0  0  0  0  0
  -24.6780  -31.0870   22.0940 N   0  0  0  0  0  0  0  0  0  0  0  0
  -23.5260  -32.1840   23.7250 O   0  0  0  0  0  0  0  0  0  0  0  0
  -22.7410  -29.4920   22.5210 C   0  0  0  0  0  0  0  0  0  0  0  0
  -21.4100  -29.3220   22.4140 N   0  0  0  0  0  0  0  0  0  0  0  0
  -23.4230  -28.8630   23.3330 O   0  0  0  0  0  0  0  0  0  0  0  0
  -20.9130  -29.8840   21.7370 H   0  0  0  0  0  0  0  0  0  0  0  0
  -18.0410  -28.1070   22.9520 C   0  0  0  0  0  0  0  0  0  0  0  0
  -20.6020  -28.3780   23.1910 C   0  0  0  0  0  3  0  0  0  0  0  0
  -20.7020  -26.9460   22.6130 C   0  0  0  0  0  2  0  0  0  0  0  0
  -19.5900  -26.6220   21.6110 C   0  0  0  0  0  2  0  0  0  0  0  0
  -18.2140  -26.7620   22.2690 C   0  0  0  0  0  2  0  0  0  0  0  0
  -19.1600  -28.8730   23.3700 C   0  0  0  0  0  0  0  0  0  0  0  0
  -18.9430  -30.1340   23.9710 C   0  0  0  0  0  3  0  0  0  0  0  0
  -17.6370  -30.6280   24.1540 C   0  0  0  0  0  3  0  0  0  0  0  0
  -16.5320  -29.8590   23.7500 C   0  0  0  0  0  3  0  0  0  0  0  0
  -16.7350  -28.6000   23.1580 C   0  0  0  0  0  3  0  0  0  0  0  0
  -25.8890  -32.5490   23.8050 C   0  0  0  0  0  3  0  0  0  0  0  0
  -26.4220  -31.7740   25.0740 C   0  0  1  0  0  0  0  0  0  0  0  0
  -25.3410  -31.5250   26.1520 C   0  0  0  0  0  1  0  0  0  0  0  0
  -27.0120  -30.4020   24.6760 C   0  0  0  0  0  1  0  0  0  0  0  0
  -27.5710  -32.5760   25.7310 C   0  0  0  0  0  1  0  0  0  0  0  0
  -25.5660  -33.9410   24.1540 N   0  0  0  0  0  0  0  0  0  0  0  0
  -25.8970  -35.0120   23.4200 C   0  0  0  0  0  0  0  0  0  0  0  0
  -26.5730  -34.9300   22.3910 O   0  0  0  0  0  0  0  0  0  0  0  0
  -24.9670  -34.0790   24.9560 H   0  0  0  0  0  0  0  0  0  0  0  0
  -24.1740  -36.8150   23.0830 C   0  0  0  0  0  1  0  0  0  0  0  0
  -25.4030  -36.3900   23.9030 C   0  0  0  0  0  3  0  0  0  0  0  0
  -27.5230  -37.2590   24.7850 C   0  0  0  0  0  1  0  0  0  0  0  0
  -26.4370  -37.4460   23.8280 N   0  0  0  0  0  0  0  0  0  0  0  0
  -26.0270  -38.3610   23.9880 H   0  0  0  0  0  0  0  0  0  0  0  0
  1 45  1  0
  1  2  1  0
  3  7  1  0
  4  3  1  0
  5  4  1  0
  5  6  1  0
  6  3  1  0
  6  2  1  0
  8  4  2  0
  9  7  1  0
 10 15  1  0
 11 12  1  0
 11 10  1  0
 13 12  1  0
 13 20  1  0
 13 14  1  0
 15  9  1  0
 15 14  1  0
 16  9  2  0
 17 18  2  0
 18 19  1  0
 18 37  1  0
 19 22  1  0
 20 17  1  0
 20 21  1  0
 21 19  2  0
 22 23  1  0
 23 24  2  0
 25 28  1  0
 25 24  1  0
 26 25  2  0
 27 26  1  0
 27 22  2  0
 28 29  1  0
 29 30  1  0
 30 31  2  0
 32 31  1  0
 32 36  1  0
 33 32  2  0
 34 29  2  0
 34 33  1  0
 35 34  1  0
 37 38  1  0
 38 41  1  0
 38 40  1  0
 39 37  2  0
 42 43  1  0
 42 17  1  0
 44 42  1  0
 46 47  1  0
 46 45  2  0
 48 59  2  0
 49 47  1  0
 49 54  1  0
 50 58  1  0
 50 60  1  0
 51 57  1  0
 51 53  1  0
 52 58  1  0
 53 52  1  0
 54 53  2  0
 55 56  1  0
 55 49  2  0
 56 51  2  0
 57 50  1  0
 58 48  1  0
 60 62  2  0
 61 60  1  0
 63 61  1  0
 64 73  2  0
 64 69  1  0
 65 61  1  0
 65 69  1  0
 66 65  1  0
 67 68  1  0
 67 66  1  0
 68 64  1  0
 69 70  2  0
 70 71  1  0
 72 71  2  0
 73 72  1  0
 74 48  1  0
 74 79  1  0
 74 75  1  0
 75 78  1  1
 75 76  1  0
 77 75  1  0
 79 82  1  0
 80 84  1  0
 80 79  1  0
 81 80  2  0
 84 83  1  0
 86 84  1  0
 86 87  1  0
 86 85  1  0
M  ISO  4   7 100   9 100  46 101  47 101
M  END
>  <TORSDO>  (66) 
F 20

>  <SCORE>  (66) 
-14.743

>  <name>  (66) 
65

>  <ligand_id>  (66) 
65

>  <original_smiles>  (66) 
[H]c1c([H])c([H])c2c(c1[H])C([H])([H])C([H])([H])C([H])([H])C2([H])N([H])C(=O)C1([H])N(C(=O)C([H])(N([H])C(=O)C([H])(N([H])C([H])([H])[H])C([H])([H])[H])C(C([H])([H])[H])(C([H])([H])[H])C([H])([H])[H])C([H])([H])c2c([H])c(OC([H])([H])C([H])([H])C([H])([H])C([H])([H])C3([H])C(=NC(=O)N4C([H])([H])C([H])([H])C([H])([H])C([H])(n5nc(-c6c([H])c([H])c(Oc7c([H])c([H])c(F)c([H])c7F)c([H])c6[H])c(C(=O)N([H])[H])c5N([H])[H])C4([H])[H])C(=O)C3([H])[H])c([H])c([H])c2C1([H])[H]

>  <smiles>  (66) 
[H]c1c([H])c([H])c2c(c1[H])C([H])([H])C([H])([H])C([H])([H])C2([H])N([H])C(=O)C1([H])N(C(=O)C([H])(N([H])C(=O)C([H])(N([H])C([H])([H])[H])C([H])([H])[H])C(C([H])([H])[H])(C([H])([H])[H])C([H])([H])[H])C([H])([H])c2c([H])c(OC([H])([H])C([H])([H])C([H])([H])C([H])([H])C3([H])C(=NC(=O)N4C([H])([H])C([H])([H])C([H])([H])C([H])(n5nc(-c6c([H])c([H])c(Oc7c([H])c([H])c(F)c([H])c7F)c([H])c6[H])c(C(=O)N([H])[H])c5N([H])[H])C4([H])[H])C(=O)C3([H])[H])c([H])c([H])c2C1([H])[H]

$$$$
66:0:0
     RDKit          3D

 93101  0  0  1  0  0  0  0  0999 V2000
  -33.8870  -30.7610   10.4270 C   0  0  0  0  0  2  0  0  0  0  0  0
  -35.7900  -31.1990   10.1330 C   0  0  0  0  0  3  0  0  0  0  0  0
  -34.9910  -31.1540   11.5230 C   0  0  0  0  0  3  0  0  0  0  0  0
  -34.5690  -31.5320    9.3000 N   0  0  1  0  0  4  0  0  0  0  0  0
  -34.4460  -32.5310    9.3960 H   0  0  0  0  0  0  0  0  0  0  0  0
  -36.8180  -32.2920    9.9770 C   0  0  0  0  0  0  0  0  0  0  0  0
  -36.5580  -33.5000   10.0110 O   0  0  0  0  0  0  0  0  0  0  0  0
  -38.7180  -32.0630    8.2540 C   0  0  0  0  0  1  0  0  0  0  0  0
  -38.2740  -31.8240    9.7140 C   0  0  0  0  0  3  0  0  0  0  0  0
  -39.4870  -29.5890    9.2240 C   0  0  0  0  0  1  0  0  0  0  0  0
  -38.5260  -30.3570   10.1490 C   0  0  0  0  0  2  0  0  0  0  0  0
  -35.5590  -30.3310   12.9060 C   0  0  0  0  0  2  0  0  0  0  0  0
  -35.5550  -30.6720   14.4410 O   0  0  0  0  0  0  0  0  0  0  0  0
  -40.9200  -35.4330   16.2070 C   0  0  0  0  0  0  0  0  0  0  0  0
  -35.9490  -31.9500   15.0160 C   0  0  0  0  0  0  0  0  0  0  0  0
  -38.8140  -35.5690   17.4800 C   0  0  0  0  0  3  0  0  0  0  0  0
  -36.7900  -34.3440   16.4660 C   0  0  0  0  0  0  0  0  0  0  0  0
  -38.7870  -34.7550   15.0410 C   0  0  0  0  0  2  0  0  0  0  0  0
  -37.5400  -33.9140   15.3650 C   0  0  0  0  0  0  0  0  0  0  0  0
  -37.1170  -32.7350   14.6400 C   0  0  0  0  0  3  0  0  0  0  0  0
  -35.2020  -32.5140   16.0790 C   0  0  0  0  0  3  0  0  0  0  0  0
  -35.6150  -33.6570   16.8010 C   0  0  0  0  0  3  0  0  0  0  0  0
  -37.2780  -35.5540   17.2510 C   0  0  0  0  0  2  0  0  0  0  0  0
  -39.5650  -35.2370   16.2270 N   0  0  0  0  0  0  0  0  0  0  0  0
  -41.5230  -35.8890   17.1910 O   0  0  0  0  0  0  0  0  0  0  0  0
  -39.1650  -34.6360   18.6680 C   0  0  0  0  0  0  0  0  0  0  0  0
  -39.0400  -35.1470   19.9060 N   0  0  0  0  0  0  0  0  0  0  0  0
  -39.5220  -33.4730   18.4640 O   0  0  0  0  0  0  0  0  0  0  0  0
  -38.7590  -36.1140   19.9950 H   0  0  0  0  0  0  0  0  0  0  0  0
  -39.7140  -35.5500   23.4440 C   0  0  0  0  0  0  0  0  0  0  0  0
  -39.2710  -34.4250   21.1600 C   0  0  0  0  0  3  0  0  0  0  0  0
  -37.9410  -33.9370   21.7770 C   0  0  0  0  0  2  0  0  0  0  0  0
  -37.3500  -34.9160   22.7970 C   0  0  0  0  0  2  0  0  0  0  0  0
  -38.3350  -35.1510   23.9450 C   0  0  0  0  0  2  0  0  0  0  0  0
  -40.1480  -35.2230   22.1320 C   0  0  0  0  0  0  0  0  0  0  0  0
  -41.4270  -35.6480   21.7090 C   0  0  0  0  0  3  0  0  0  0  0  0
  -42.2630  -36.3850   22.5680 C   0  0  0  0  0  3  0  0  0  0  0  0
  -41.8330  -36.6960   23.8700 C   0  0  0  0  0  3  0  0  0  0  0  0
  -40.5650  -36.2740   24.3070 C   0  0  0  0  0  3  0  0  0  0  0  0
  -41.7710  -35.1110   14.9420 C   0  0  0  0  0  3  0  0  0  0  0  0
  -42.5730  -36.3030   14.6240 N   0  0  0  0  0  0  0  0  0  0  0  0
  -42.2360  -37.2330   13.7190 C   0  0  0  0  0  0  0  0  0  0  0  0
  -41.2320  -37.1390   13.0080 O   0  0  0  0  0  0  0  0  0  0  0  0
  -43.3790  -36.4760   15.2070 H   0  0  0  0  0  0  0  0  0  0  0  0
  -42.4320  -39.7140   14.0990 C   0  0  0  0  0  1  0  0  0  0  0  0
  -43.1570  -38.4610   13.5780 C   0  0  0  0  0  3  0  0  0  0  0  0
  -44.6060  -37.7210   11.7390 C   0  0  0  0  0  1  0  0  0  0  0  0
  -43.6180  -38.6970   12.1930 N   0  0  0  0  0  0  0  0  0  0  0  0
  -44.0250  -39.6240   12.1020 H   0  0  0  0  0  0  0  0  0  0  0  0
  -42.7110  -33.8560   15.1290 C   0  0  1  0  0  0  0  0  0  0  0  0
  -44.0960  -34.1990   15.7260 C   0  0  0  0  0  1  0  0  0  0  0  0
  -42.0500  -32.8050   16.0510 C   0  0  0  0  0  1  0  0  0  0  0  0
  -42.9370  -33.1630   13.7640 C   0  0  0  0  0  1  0  0  0  0  0  0
  -34.5370  -31.1080    7.7520 C   0  0  0  0  0  2  0  0  0  0  0  0
  -33.4200  -31.6060    6.5500 C   0  0  0  0  0  2  0  0  0  0  0  0
  -31.8740  -33.5290    5.8230 C   0  0  0  0  0  1  0  0  0  0  0  0
  -31.8720  -32.3190    6.7420 C   0  0  0  0  0  3  0  0  0  0  0  0
  -30.3210  -31.6470    6.8930 C   0  0  0  0  0  0  0  0  0  0  0  0
  -28.7640  -29.9090    7.9630 C   0  0  0  0  0  2  0  0  0  0  0  0
  -29.1120  -29.6820    9.4560 C   0  0  0  0  0  2  0  0  0  0  0  0
  -30.1950  -28.5960    9.6020 C   0  0  0  0  0  2  0  0  0  0  0  0
  -31.3760  -28.8330    8.6300 C   0  0  0  0  0  3  0  0  0  0  0  0
  -30.8880  -29.1340    7.1860 C   0  0  0  0  0  2  0  0  0  0  0  0
  -30.0110  -30.3170    7.2380 N   0  0  0  0  0  0  0  0  0  0  0  0
  -29.3480  -32.3990    6.7740 O   0  0  0  0  0  0  0  0  0  0  0  0
  -33.2860  -27.3910    7.6920 C   0  0  0  0  0  0  0  0  0  0  0  0
  -34.0410  -26.3960    8.2450 C   0  0  0  0  0  0  0  0  0  0  0  0
  -33.5420  -26.2130    9.5700 C   0  0  0  0  0  0  0  0  0  0  0  0
  -32.3720  -27.7660    8.6680 N   0  0  0  0  0  0  0  0  0  0  0  0
  -32.4930  -27.0010    9.7840 N   0  0  0  0  0  0  0  0  0  0  0  0
  -34.0440  -25.3770   10.6660 C   0  0  0  0  0  0  0  0  0  0  0  0
  -33.4360  -24.1450   10.9920 C   0  0  0  0  0  3  0  0  0  0  0  0
  -33.9520  -23.3490   12.0380 C   0  0  0  0  0  3  0  0  0  0  0  0
  -35.0860  -23.7820   12.7640 C   0  0  0  0  0  0  0  0  0  0  0  0
  -35.6760  -25.0190   12.4490 C   0  0  0  0  0  3  0  0  0  0  0  0
  -35.1580  -25.8130   11.4120 C   0  0  0  0  0  3  0  0  0  0  0  0
  -35.6370  -23.0900   13.8160 O   0  0  0  0  0  0  0  0  0  0  0  0
  -36.8900  -22.5400   13.7340 C   0  0  0  0  0  0  0  0  0  0  0  0
  -37.9880  -23.0840   14.4360 C   0  0  0  0  0  3  0  0  0  0  0  0
  -39.2450  -22.4460   14.3820 C   0  0  0  0  0  3  0  0  0  0  0  0
  -39.4040  -21.2640   13.6340 C   0  0  0  0  0  0  0  0  0  0  0  0
  -38.3100  -20.7190   12.9390 C   0  0  0  0  0  3  0  0  0  0  0  0
  -37.0570  -21.3540   12.9920 C   0  0  0  0  0  0  0  0  0  0  0  0
  -36.0010  -20.8120   12.3390 F   0  0  0  0  0  0  0  0  0  0  0  0
  -40.6080  -20.6460   13.5880 F   0  0  0  0  0  0  0  0  0  0  0  0
  -35.2330  -25.7320    7.6160 C   0  0  0  0  0  0  0  0  0  0  0  0
  -35.0280  -24.5950    6.9600 N   0  0  0  0  0  0  0  0  0  0  0  0
  -36.3500  -26.2450    7.6650 O   0  0  0  0  0  0  0  0  0  0  0  0
  -34.1080  -24.1820    6.9010 H   0  0  0  0  0  0  0  0  0  0  0  0
  -35.8010  -24.1290    6.5090 H   0  0  0  0  0  0  0  0  0  0  0  0
  -33.3400  -28.0200    6.4550 N   0  0  0  0  0  0  0  0  0  0  0  0
  -32.8130  -28.8470    6.2070 H   0  0  0  0  0  0  0  0  0  0  0  0
  -34.0440  -27.7770    5.7670 H   0  0  0  0  0  0  0  0  0  0  0  0
  1  3  1  0
  2  6  1  0
  2  3  1  0
  3 12  1  0
  4  5  1  6
  4  2  1  0
  4  1  1  0
  6  7  2  0
  9  8  1  0
  9  6  1  0
  9 11  1  0
 10 11  1  0
 12 13  1  0
 13 15  1  0
 14 24  1  0
 14 25  2  0
 15 21  1  0
 16 26  1  0
 17 22  1  0
 17 23  1  0
 18 19  1  0
 18 24  1  0
 19 17  2  0
 20 15  2  0
 20 19  1  0
 21 22  2  0
 23 16  1  0
 24 16  1  0
 26 27  1  0
 27 29  1  0
 28 26  2  0
 30 34  1  0
 30 39  1  0
 31 27  1  0
 31 32  1  0
 31 35  1  0
 32 33  1  0
 33 34  1  0
 35 30  2  0
 36 35  1  0
 36 37  2  0
 37 38  1  0
 38 39  2  0
 40 50  1  0
 40 14  1  0
 41 40  1  0
 41 44  1  0
 42 41  1  0
 43 42  2  0
 46 42  1  0
 46 45  1  0
 47 48  1  0
 48 46  1  0
 49 48  1  0
 50 51  1  1
 50 52  1  0
 53 50  1  0
 54  4  1  0
 55 57  1  0
 55 54  1  0
 57 56  1  0
 57 58  1  0
 58 64  1  0
 59 60  1  0
 60 61  1  0
 62 63  1  0
 62 69  1  0
 62 61  1  0
 63 64  1  0
 64 59  1  0
 65 58  2  0
 66 67  2  0
 66 69  1  0
 67 68  1  0
 68 70  2  0
 68 71  1  0
 69 70  1  0
 71 72  2  0
 71 76  1  0
 72 73  1  0
 73 74  2  0
 74 77  1  0
 75 74  1  0
 76 75  2  0
 78 77  1  0
 78 79  1  0
 80 79  2  0
 81 80  1  0
 82 83  1  0
 82 81  2  0
 83 78  2  0
 84 83  1  0
 85 81  1  0
 86 88  2  0
 86 67  1  0
 87 86  1  0
 89 87  1  0
 90 87  1  0
 91 66  1  0
 92 91  1  0
 93 91  1  0
M  ISO  4  12 101  13 101  57 100  58 100
M  END
>  <TORSDO>  (67) 
F 23

>  <SCORE>  (67) 
-2.316

>  <name>  (67) 
66

>  <ligand_id>  (67) 
66

>  <original_smiles>  (67) 
[H]c1c([H])c([H])c2c(c1[H])C([H])([H])C([H])([H])C([H])([H])C2([H])N([H])C(=O)C1([H])N(C(=O)C([H])(N([H])C(=O)C([H])(N([H])C([H])([H])[H])C([H])([H])[H])C(C([H])([H])[H])(C([H])([H])[H])C([H])([H])[H])C([H])([H])c2c([H])c(OC([H])([H])C3([H])C([H])([H])[N+]([H])(C([H])([H])C([H])([H])C([H])(C(=O)N4C([H])([H])C([H])([H])C([H])([H])C([H])(n5nc(-c6c([H])c([H])c(Oc7c([H])c([H])c(F)c([H])c7F)c([H])c6[H])c(C(=O)N([H])[H])c5N([H])[H])C4([H])[H])C([H])([H])[H])C3([H])C(=O)C([H])(C([H])([H])[H])C([H])([H])C([H])([H])[H])c([H])c([H])c2C1([H])[H]

>  <smiles>  (67) 
[H]c1c([H])c([H])c2c(c1[H])C([H])([H])C([H])([H])C([H])([H])C2([H])N([H])C(=O)C1([H])N(C(=O)C([H])(N([H])C(=O)C([H])(N([H])C([H])([H])[H])C([H])([H])[H])C(C([H])([H])[H])(C([H])([H])[H])C([H])([H])[H])C([H])([H])c2c([H])c(OC([H])([H])C3([H])C([H])([H])[N+]([H])(C([H])([H])C([H])([H])C([H])(C(=O)N4C([H])([H])C([H])([H])C([H])([H])C([H])(n5nc(-c6c([H])c([H])c(Oc7c([H])c([H])c(F)c([H])c7F)c([H])c6[H])c(C(=O)N([H])[H])c5N([H])[H])C4([H])[H])C([H])([H])[H])C3([H])C(=O)C([H])(C([H])([H])[H])C([H])([H])C([H])([H])[H])c([H])c([H])c2C1([H])[H]

$$$$
67:0:0
     RDKit          3D

 94104  0  0  1  0  0  0  0  0999 V2000
  -29.9500  -22.2360   20.0150 N   0  0  1  0  0  4  0  0  0  0  0  0
  -30.1550  -22.4740   20.9740 H   0  0  0  0  0  0  0  0  0  0  0  0
  -27.7120  -21.0930   19.3800 C   0  0  0  0  0  3  0  0  0  0  0  0
  -26.8000  -20.1110   19.5050 C   0  0  0  0  0  1  0  0  0  0  0  0
  -27.6610  -21.6880   20.8090 C   0  0  0  0  0  2  0  0  0  0  0  0
  -28.4680  -22.3590   19.8200 C   0  0  0  0  0  3  0  0  0  0  0  0
  -30.5290  -20.8520   19.7860 C   0  0  0  0  0  2  0  0  0  0  0  0
  -32.2240  -19.3760   21.2250 C   0  0  0  0  0  2  0  0  0  0  0  0
  -30.9910  -18.5040   21.1970 C   0  0  0  0  0  3  0  0  0  0  0  0
  -30.8770  -20.0490   21.0640 C   0  0  0  0  0  3  0  0  0  0  0  0
  -30.8650  -17.4560   20.0790 C   0  0  0  0  0  2  0  0  0  0  0  0
  -31.3980  -14.9720   20.1360 C   0  0  0  0  0  0  0  0  0  0  0  0
  -31.0830  -12.7440   19.1250 C   0  0  0  0  0  2  0  0  0  0  0  0
  -30.1350  -12.9000   17.9160 C   0  0  0  0  0  2  0  0  0  0  0  0
  -28.6620  -12.8030   18.3600 C   0  0  0  0  0  2  0  0  0  0  0  0
  -28.3460  -13.7090   19.5790 C   0  0  0  0  0  3  0  0  0  0  0  0
  -29.4040  -13.5270   20.6930 C   0  0  0  0  0  2  0  0  0  0  0  0
  -30.7290  -13.7860   20.1040 N   0  0  0  0  0  0  0  0  0  0  0  0
  -32.5350  -15.1060   19.6740 O   0  0  0  0  0  0  0  0  0  0  0  0
  -30.6560  -16.0460   20.4900 N   0  0  0  0  0  0  0  0  0  0  0  0
  -29.7430  -15.8300   20.8630 H   0  0  0  0  0  0  0  0  0  0  0  0
  -25.9960  -14.4080   20.3600 C   0  0  0  0  0  0  0  0  0  0  0  0
  -24.8960  -13.6740   20.7210 C   0  0  0  0  0  0  0  0  0  0  0  0
  -25.2870  -12.3040   20.6240 C   0  0  0  0  0  0  0  0  0  0  0  0
  -26.9900  -13.4840   20.0760 N   0  0  0  0  0  0  0  0  0  0  0  0
  -26.5680  -12.2120   20.2900 N   0  0  0  0  0  0  0  0  0  0  0  0
  -24.5000  -11.0740   20.7780 C   0  0  0  0  0  0  0  0  0  0  0  0
  -24.8460  -10.0920   21.7330 C   0  0  0  0  0  3  0  0  0  0  0  0
  -24.0630   -8.9270   21.8760 C   0  0  0  0  0  3  0  0  0  0  0  0
  -22.9200   -8.7360   21.0640 C   0  0  0  0  0  0  0  0  0  0  0  0
  -22.5940   -9.7050   20.1000 C   0  0  0  0  0  3  0  0  0  0  0  0
  -23.3770  -10.8630   19.9530 C   0  0  0  0  0  3  0  0  0  0  0  0
  -22.1170   -7.6230   21.1140 O   0  0  0  0  0  0  0  0  0  0  0  0
  -21.8900   -6.9520   22.2890 C   0  0  0  0  0  0  0  0  0  0  0  0
  -21.3140   -7.5870   23.4110 C   0  0  0  0  0  3  0  0  0  0  0  0
  -21.0350   -6.8440   24.5750 C   0  0  0  0  0  3  0  0  0  0  0  0
  -21.3200   -5.4660   24.6160 C   0  0  0  0  0  0  0  0  0  0  0  0
  -21.8880   -4.8310   23.4980 C   0  0  0  0  0  3  0  0  0  0  0  0
  -22.1690   -5.5710   22.3370 C   0  0  0  0  0  0  0  0  0  0  0  0
  -22.6970   -4.9500   21.2550 F   0  0  0  0  0  0  0  0  0  0  0  0
  -21.0440   -4.7500   25.7300 F   0  0  0  0  0  0  0  0  0  0  0  0
  -23.5320  -14.2110   21.0410 C   0  0  0  0  0  0  0  0  0  0  0  0
  -22.7950  -13.5250   21.9090 N   0  0  0  0  0  0  0  0  0  0  0  0
  -23.1300  -15.2700   20.5620 O   0  0  0  0  0  0  0  0  0  0  0  0
  -23.1430  -12.6720   22.3230 H   0  0  0  0  0  0  0  0  0  0  0  0
  -21.8750  -13.8560   22.1610 H   0  0  0  0  0  0  0  0  0  0  0  0
  -26.2220  -15.7740   20.2310 N   0  0  0  0  0  0  0  0  0  0  0  0
  -25.4860  -16.4540   20.3840 H   0  0  0  0  0  0  0  0  0  0  0  0
  -27.0780  -16.1910   19.8840 H   0  0  0  0  0  0  0  0  0  0  0  0
  -30.6460  -23.2840   19.1910 C   0  0  0  0  0  2  0  0  0  0  0  0
  -30.5040  -25.7340   18.3890 C   0  0  0  0  0  2  0  0  0  0  0  0
  -30.4600  -24.7810   19.5790 C   0  0  0  0  0  3  0  0  0  0  0  0
  -29.2660  -25.6870   19.2320 C   0  0  0  0  0  3  0  0  0  0  0  0
  -29.1260  -26.9930   19.8550 O   0  0  0  0  0  0  0  0  0  0  0  0
  -24.6630  -31.5860   23.0530 C   0  0  0  0  0  0  0  0  0  0  0  0
  -27.8950  -27.6370   19.8030 C   0  0  0  0  0  0  0  0  0  0  0  0
  -23.6890  -30.1760   21.2770 C   0  0  0  0  0  3  0  0  0  0  0  0
  -25.3520  -28.9100   19.8240 C   0  0  0  0  0  0  0  0  0  0  0  0
  -26.1710  -30.8070   21.2200 C   0  0  0  0  0  2  0  0  0  0  0  0
  -26.4300  -29.4950   20.5010 C   0  0  0  0  0  0  0  0  0  0  0  0
  -27.6990  -28.8610   20.4980 C   0  0  0  0  0  3  0  0  0  0  0  0
  -26.7960  -27.1010   19.0890 C   0  0  0  0  0  3  0  0  0  0  0  0
  -25.5320  -27.7140   19.1190 C   0  0  0  0  0  3  0  0  0  0  0  0
  -24.0250  -29.6270   19.8680 C   0  0  0  0  0  2  0  0  0  0  0  0
  -24.8560  -30.8720   21.9070 N   0  0  0  0  0  0  0  0  0  0  0  0
  -23.5340  -31.6970   23.5570 O   0  0  0  0  0  0  0  0  0  0  0  0
  -23.1250  -29.0190   22.1350 C   0  0  0  0  0  0  0  0  0  0  0  0
  -21.8210  -28.7410   21.9860 N   0  0  0  0  0  0  0  0  0  0  0  0
  -23.8600  -28.3770   22.8900 O   0  0  0  0  0  0  0  0  0  0  0  0
  -21.2810  -29.3270   21.3640 H   0  0  0  0  0  0  0  0  0  0  0  0
  -18.5400  -27.2790   22.4160 C   0  0  0  0  0  0  0  0  0  0  0  0
  -21.0830  -27.6690   22.6590 C   0  0  0  0  0  3  0  0  0  0  0  0
  -21.2530  -26.3170   21.9260 C   0  0  0  0  0  2  0  0  0  0  0  0
  -20.1470  -26.0380   20.9050 C   0  0  0  0  0  2  0  0  0  0  0  0
  -18.7780  -26.0240   21.5900 C   0  0  0  0  0  2  0  0  0  0  0  0
  -19.6220  -28.0600   22.9030 C   0  0  0  0  0  0  0  0  0  0  0  0
  -19.3430  -29.2360   23.6330 C   0  0  0  0  0  3  0  0  0  0  0  0
  -18.0140  -29.6370   23.8710 C   0  0  0  0  0  3  0  0  0  0  0  0
  -16.9480  -28.8520   23.3980 C   0  0  0  0  0  3  0  0  0  0  0  0
  -17.2120  -27.6730   22.6800 C   0  0  0  0  0  3  0  0  0  0  0  0
  -25.8420  -32.3120   23.7710 C   0  0  0  0  0  3  0  0  0  0  0  0
  -25.3930  -33.6740   24.0900 N   0  0  0  0  0  0  0  0  0  0  0  0
  -25.6920  -34.7620   23.3670 C   0  0  0  0  0  0  0  0  0  0  0  0
  -26.4410  -34.7320   22.3860 O   0  0  0  0  0  0  0  0  0  0  0  0
  -24.7340  -33.7650   24.8470 H   0  0  0  0  0  0  0  0  0  0  0  0
  -23.8410  -36.3980   22.9120 C   0  0  0  0  0  1  0  0  0  0  0  0
  -25.0580  -36.0960   23.8000 C   0  0  0  0  0  3  0  0  0  0  0  0
  -27.0490  -37.1570   24.7730 C   0  0  0  0  0  1  0  0  0  0  0  0
  -26.0010  -37.2360   23.7580 N   0  0  0  0  0  0  0  0  0  0  0  0
  -25.5100  -38.1170   23.8790 H   0  0  0  0  0  0  0  0  0  0  0  0
  -26.3340  -31.5660   25.0700 C   0  0  1  0  0  0  0  0  0  0  0  0
  -25.1920  -31.2220   26.0560 C   0  0  0  0  0  1  0  0  0  0  0  0
  -27.0530  -30.2480   24.6980 C   0  0  0  0  0  1  0  0  0  0  0  0
  -27.3690  -32.4430   25.8120 C   0  0  0  0  0  1  0  0  0  0  0  0
  1  2  1  1
  3  4  1  0
  3  6  1  0
  3  5  1  0
  6  1  1  0
  6  5  1  0
  7  1  1  0
  9 11  1  0
  9  8  1  0
 10  7  1  0
 10  9  1  0
 10  8  1  0
 11 20  1  0
 12 20  1  0
 13 18  1  0
 14 15  1  0
 14 13  1  0
 16 15  1  0
 16 25  1  0
 16 17  1  0
 18 12  1  0
 18 17  1  0
 19 12  2  0
 20 21  1  0
 22 23  2  0
 23 42  1  0
 24 23  1  0
 24 27  1  0
 25 26  1  0
 25 22  1  0
 26 24  2  0
 27 28  1  0
 28 29  2  0
 30 33  1  0
 30 29  1  0
 31 30  2  0
 32 31  1  0
 32 27  2  0
 33 34  1  0
 34 39  2  0
 34 35  1  0
 35 36  2  0
 36 37  1  0
 37 41  1  0
 38 37  2  0
 39 38  1  0
 40 39  1  0
 42 43  1  0
 43 46  1  0
 43 45  1  0
 44 42  2  0
 47 22  1  0
 47 48  1  0
 49 47  1  0
 50  1  1  0
 51 53  1  0
 51 52  1  0
 52 50  1  0
 53 52  1  0
 53 54  1  0
 55 66  2  0
 56 54  1  0
 56 61  1  0
 57 65  1  0
 57 67  1  0
 58 64  1  0
 58 60  1  0
 59 65  1  0
 60 59  1  0
 61 60  2  0
 62 63  1  0
 62 56  2  0
 63 58  2  0
 64 57  1  0
 65 55  1  0
 67 69  2  0
 68 67  1  0
 70 68  1  0
 71 80  2  0
 71 76  1  0
 72 68  1  0
 72 76  1  0
 73 72  1  0
 74 75  1  0
 74 73  1  0
 75 71  1  0
 76 77  2  0
 77 78  1  0
 79 78  2  0
 80 79  1  0
 81 55  1  0
 81 82  1  0
 81 91  1  0
 82 85  1  0
 83 87  1  0
 83 82  1  0
 84 83  2  0
 87 86  1  0
 89 87  1  0
 89 90  1  0
 89 88  1  0
 91 94  1  1
 91 92  1  0
 93 91  1  0
M  ISO  4  12 100  20 100  53 101  54 101
M  END
>  <TORSDO>  (68) 
F 22

>  <SCORE>  (68) 
-10.713

>  <name>  (68) 
67

>  <ligand_id>  (68) 
67

>  <original_smiles>  (68) 
[H]C([H])=C1C([H])([H])C1([H])[N+]([H])(C([H])([H])C1([H])C([H])([H])C1([H])Oc1c([H])c([H])c2c(c1[H])C([H])([H])N(C(=O)C([H])(N([H])C(=O)C([H])(N([H])C([H])([H])[H])C([H])([H])[H])C(C([H])([H])[H])(C([H])([H])[H])C([H])([H])[H])C([H])(C(=O)N([H])C1([H])c3c([H])c([H])c([H])c([H])c3C([H])([H])C([H])([H])C1([H])[H])C2([H])[H])C([H])([H])C1([H])C([H])([H])C1([H])C([H])([H])N([H])C(=O)N1C([H])([H])C([H])([H])C([H])([H])C([H])(n2nc(-c3c([H])c([H])c(Oc4c([H])c([H])c(F)c([H])c4F)c([H])c3[H])c(C(=O)N([H])[H])c2N([H])[H])C1([H])[H]

>  <smiles>  (68) 
[H]C([H])=C1C([H])([H])C1([H])[N+]([H])(C([H])([H])C1([H])C([H])([H])C1([H])Oc1c([H])c([H])c2c(c1[H])C([H])([H])N(C(=O)C([H])(N([H])C(=O)C([H])(N([H])C([H])([H])[H])C([H])([H])[H])C(C([H])([H])[H])(C([H])([H])[H])C([H])([H])[H])C([H])(C(=O)N([H])C1([H])c3c([H])c([H])c([H])c([H])c3C([H])([H])C([H])([H])C1([H])[H])C2([H])[H])C([H])([H])C1([H])C([H])([H])C1([H])C([H])([H])N([H])C(=O)N1C([H])([H])C([H])([H])C([H])([H])C([H])(n2nc(-c3c([H])c([H])c(Oc4c([H])c([H])c(F)c([H])c4F)c([H])c3[H])c(C(=O)N([H])[H])c2N([H])[H])C1([H])[H]

$$$$
68:0:0
     RDKit          3D

 92101  0  0  1  0  0  0  0  0999 V2000
  -30.7510  -21.3950   18.8190 C   0  0  0  0  0  2  0  0  0  0  0  0
  -31.4180  -21.3820   20.1710 C   0  0  0  0  0  2  0  0  0  0  0  0
  -29.9210  -21.1490   20.0650 C   0  0  2  0  0  0  0  0  0  0  0  0
  -27.4750  -18.1180   20.0250 C   0  0  0  0  0  3  0  0  0  0  0  0
  -28.0270  -19.4100   19.9280 C   0  0  0  0  0  3  0  0  0  0  0  0
  -28.2720  -17.0100   20.3740 C   0  0  0  0  0  3  0  0  0  0  0  0
  -30.1870  -18.4880   20.5250 C   0  0  0  0  0  3  0  0  0  0  0  0
  -29.3900  -19.6640   20.2060 C   0  0  0  0  0  0  0  0  0  0  0  0
  -29.6510  -17.1430   20.5990 C   0  0  0  0  0  0  0  0  0  0  0  0
  -30.4360  -15.8660   21.1040 C   0  0  0  0  0  3  0  0  0  0  0  0
  -29.9120  -15.4500   22.2600 F   0  0  0  0  0  0  0  0  0  0  0  0
  -30.7590  -14.6150   20.1610 C   0  0  0  0  0  0  0  0  0  0  0  0
  -30.3580  -12.4210   19.0140 C   0  0  0  0  0  2  0  0  0  0  0  0
  -29.3740  -12.5820   17.8370 C   0  0  0  0  0  2  0  0  0  0  0  0
  -27.9230  -12.4210   18.3270 C   0  0  0  0  0  2  0  0  0  0  0  0
  -27.6330  -13.2700   19.5890 C   0  0  0  0  0  3  0  0  0  0  0  0
  -28.7400  -13.1160   20.6610 C   0  0  0  0  0  2  0  0  0  0  0  0
  -30.0330  -13.4450   20.0410 N   0  0  0  0  0  0  0  0  0  0  0  0
  -31.8040  -14.7200   19.5130 O   0  0  0  0  0  0  0  0  0  0  0  0
  -25.2710  -13.8760   20.4070 C   0  0  0  0  0  0  0  0  0  0  0  0
  -24.2190  -13.1100   20.8210 C   0  0  0  0  0  0  0  0  0  0  0  0
  -24.6650  -11.7560   20.7510 C   0  0  0  0  0  0  0  0  0  0  0  0
  -26.3030  -12.9930   20.1270 N   0  0  0  0  0  0  0  0  0  0  0  0
  -25.9420  -11.7100   20.3920 N   0  0  0  0  0  0  0  0  0  0  0  0
  -23.9300  -10.5020   20.9520 C   0  0  0  0  0  0  0  0  0  0  0  0
  -24.3700   -9.5330   21.8780 C   0  0  0  0  0  3  0  0  0  0  0  0
  -23.6350   -8.3440   22.0710 C   0  0  0  0  0  3  0  0  0  0  0  0
  -22.4460   -8.1170   21.3380 C   0  0  0  0  0  0  0  0  0  0  0  0
  -22.0250   -9.0770   20.4000 C   0  0  0  0  0  3  0  0  0  0  0  0
  -22.7600  -10.2570   20.2060 C   0  0  0  0  0  3  0  0  0  0  0  0
  -21.6810   -6.9780   21.4390 O   0  0  0  0  0  0  0  0  0  0  0  0
  -21.6300   -6.2490   22.6000 C   0  0  0  0  0  0  0  0  0  0  0  0
  -21.2080   -6.8190   23.8210 C   0  0  0  0  0  3  0  0  0  0  0  0
  -21.1010   -6.0150   24.9720 C   0  0  0  0  0  3  0  0  0  0  0  0
  -21.4060   -4.6430   24.9070 C   0  0  0  0  0  0  0  0  0  0  0  0
  -21.8220   -4.0730   23.6920 C   0  0  0  0  0  3  0  0  0  0  0  0
  -21.9310   -4.8730   22.5400 C   0  0  0  0  0  0  0  0  0  0  0  0
  -22.3090   -4.3130   21.3670 F   0  0  0  0  0  0  0  0  0  0  0  0
  -21.2980   -3.8700   26.0140 F   0  0  0  0  0  0  0  0  0  0  0  0
  -22.8410  -13.6000   21.1580 C   0  0  0  0  0  0  0  0  0  0  0  0
  -22.1470  -12.9030   22.0520 N   0  0  0  0  0  0  0  0  0  0  0  0
  -22.3930  -14.6360   20.6680 O   0  0  0  0  0  0  0  0  0  0  0  0
  -22.5240  -12.0640   22.4670 H   0  0  0  0  0  0  0  0  0  0  0  0
  -21.2230  -13.2120   22.3200 H   0  0  0  0  0  0  0  0  0  0  0  0
  -25.4150  -15.2430   20.2170 N   0  0  0  0  0  0  0  0  0  0  0  0
  -24.6390  -15.8780   20.3620 H   0  0  0  0  0  0  0  0  0  0  0  0
  -26.2060  -15.6780   19.7600 H   0  0  0  0  0  0  0  0  0  0  0  0
  -28.7160  -22.1820   22.0850 C   0  0  0  0  0  1  0  0  0  0  0  0
  -28.9470  -22.3220   20.5700 C   0  0  0  0  0  3  0  0  0  0  0  0
  -29.2900  -23.8700   20.2250 C   0  0  0  0  0  3  0  0  0  0  0  0
  -28.1890  -24.9900   20.5510 C   0  0  0  0  0  3  0  0  0  0  0  0
  -28.4270  -26.4300   20.2420 O   0  0  0  0  0  0  0  0  0  0  0  0
  -24.6880  -31.8710   23.2260 C   0  0  0  0  0  0  0  0  0  0  0  0
  -27.3080  -27.2840   20.2080 C   0  0  0  0  0  0  0  0  0  0  0  0
  -23.4880  -30.4580   21.5960 C   0  0  0  0  0  3  0  0  0  0  0  0
  -24.9430  -28.9000   20.1830 C   0  0  0  0  0  0  0  0  0  0  0  0
  -26.0290  -30.7760   21.4130 C   0  0  0  0  0  2  0  0  0  0  0  0
  -26.1100  -29.3930   20.7800 C   0  0  0  0  0  0  0  0  0  0  0  0
  -27.2980  -28.5960   20.7810 C   0  0  0  0  0  3  0  0  0  0  0  0
  -26.1180  -26.8560   19.5760 C   0  0  0  0  0  3  0  0  0  0  0  0
  -24.9480  -27.6390   19.5710 C   0  0  0  0  0  3  0  0  0  0  0  0
  -23.7040  -29.7720   20.2210 C   0  0  0  0  0  2  0  0  0  0  0  0
  -24.7550  -31.0530   22.1350 N   0  0  0  0  0  0  0  0  0  0  0  0
  -23.6040  -32.1500   23.7590 O   0  0  0  0  0  0  0  0  0  0  0  0
  -22.8260  -29.4470   22.5640 C   0  0  0  0  0  0  0  0  0  0  0  0
  -21.4990  -29.2730   22.4420 N   0  0  0  0  0  0  0  0  0  0  0  0
  -23.5060  -28.8240   23.3830 O   0  0  0  0  0  0  0  0  0  0  0  0
  -21.0120  -29.8220   21.7480 H   0  0  0  0  0  0  0  0  0  0  0  0
  -18.1230  -28.0790   22.9470 C   0  0  0  0  0  0  0  0  0  0  0  0
  -20.6810  -28.3420   23.2200 C   0  0  0  0  0  3  0  0  0  0  0  0
  -20.7860  -26.9050   22.6570 C   0  0  0  0  0  2  0  0  0  0  0  0
  -19.6850  -26.5730   21.6450 C   0  0  0  0  0  2  0  0  0  0  0  0
  -18.3020  -26.7240   22.2840 C   0  0  0  0  0  2  0  0  0  0  0  0
  -19.2400  -28.8450   23.3720 C   0  0  0  0  0  0  0  0  0  0  0  0
  -19.0200  -30.1140   23.9520 C   0  0  0  0  0  3  0  0  0  0  0  0
  -17.7140  -30.6150   24.1130 C   0  0  0  0  0  3  0  0  0  0  0  0
  -16.6100  -29.8450   23.7050 C   0  0  0  0  0  3  0  0  0  0  0  0
  -16.8160  -28.5800   23.1280 C   0  0  0  0  0  3  0  0  0  0  0  0
  -25.9690  -32.5100   23.8430 C   0  0  0  0  0  3  0  0  0  0  0  0
  -25.6540  -33.9070   24.1770 N   0  0  0  0  0  0  0  0  0  0  0  0
  -25.9830  -34.9640   23.4250 C   0  0  0  0  0  0  0  0  0  0  0  0
  -26.6540  -34.8670   22.3940 O   0  0  0  0  0  0  0  0  0  0  0  0
  -25.0600  -34.0570   24.9800 H   0  0  0  0  0  0  0  0  0  0  0  0
  -24.2520  -36.7540   23.0710 C   0  0  0  0  0  1  0  0  0  0  0  0
  -25.4900  -36.3500   23.8860 C   0  0  0  0  0  3  0  0  0  0  0  0
  -27.6170  -37.2350   24.7340 C   0  0  0  0  0  1  0  0  0  0  0  0
  -26.5210  -37.4060   23.7850 N   0  0  0  0  0  0  0  0  0  0  0  0
  -26.1110  -38.3240   23.9340 H   0  0  0  0  0  0  0  0  0  0  0  0
  -26.4960  -31.7420   25.1180 C   0  0  1  0  0  0  0  0  0  0  0  0
  -25.4090  -31.4940   26.1890 C   0  0  0  0  0  1  0  0  0  0  0  0
  -27.0850  -30.3680   24.7210 C   0  0  0  0  0  1  0  0  0  0  0  0
  -27.6440  -32.5410   25.7760 C   0  0  0  0  0  1  0  0  0  0  0  0
  1  3  1  0
  1  2  1  0
  3  2  1  0
  3  8  1  0
  3 49  1  1
  4  6  1  0
  5  4  2  0
  5  8  1  0
  6  9  2  0
  7  9  1  0
  8  7  2  0
  9 10  1  0
 10 11  1  0
 12 10  1  0
 13 18  1  0
 14 15  1  0
 14 13  1  0
 16 15  1  0
 16 23  1  0
 16 17  1  0
 18 12  1  0
 18 17  1  0
 19 12  2  0
 20 21  2  0
 21 40  1  0
 22 21  1  0
 22 25  1  0
 23 24  1  0
 23 20  1  0
 24 22  2  0
 25 26  1  0
 26 27  2  0
 28 31  1  0
 28 27  1  0
 29 28  2  0
 30 29  1  0
 30 25  2  0
 31 32  1  0
 32 33  1  0
 33 34  2  0
 35 34  1  0
 35 39  1  0
 36 35  2  0
 37 32  2  0
 37 36  1  0
 38 37  1  0
 40 41  1  0
 41 44  1  0
 41 43  1  0
 42 40  2  0
 45 46  1  0
 45 20  1  0
 47 45  1  0
 49 48  1  0
 50 51  2  0
 50 49  1  0
 52 51  1  0
 53 64  2  0
 54 52  1  0
 54 59  1  0
 55 63  1  0
 55 65  1  0
 56 62  1  0
 56 58  1  0
 57 63  1  0
 58 59  2  0
 58 57  1  0
 60 54  2  0
 61 60  1  0
 61 56  2  0
 62 55  1  0
 63 53  1  0
 65 67  2  0
 66 65  1  0
 68 66  1  0
 69 78  2  0
 69 74  1  0
 70 66  1  0
 70 74  1  0
 71 70  1  0
 72 73  1  0
 72 71  1  0
 73 69  1  0
 74 75  2  0
 75 76  1  0
 77 76  2  0
 78 77  1  0
 79 53  1  0
 79 80  1  0
 79 89  1  0
 80 83  1  0
 81 85  1  0
 81 80  1  0
 82 81  2  0
 85 84  1  0
 87 85  1  0
 87 88  1  0
 87 86  1  0
 89 92  1  1
 89 90  1  0
 91 89  1  0
M  ISO  4  10 100  12 100  51 101  52 101
M  END
>  <TORSDO>  (69) 
F 21

>  <SCORE>  (69) 
-13.698

>  <name>  (69) 
68

>  <ligand_id>  (69) 
68

>  <original_smiles>  (69) 
[H]c1c([H])c([H])c2c(c1[H])C([H])([H])C([H])([H])C([H])([H])C2([H])N([H])C(=O)C1([H])N(C(=O)C([H])(N([H])C(=O)C([H])(N([H])C([H])([H])[H])C([H])([H])[H])C(C([H])([H])[H])(C([H])([H])[H])C([H])([H])[H])C([H])([H])c2c([H])c(OC([H])([H])C([H])([H])C([H])(C([H])([H])[H])C3(c4c([H])c([H])c([H])c(C([H])(F)C(=O)N5C([H])([H])C([H])([H])C([H])([H])C([H])(n6nc(-c7c([H])c([H])c(Oc8c([H])c([H])c(F)c([H])c8F)c([H])c7[H])c(C(=O)N([H])[H])c6N([H])[H])C5([H])[H])c4[H])C([H])([H])C3([H])[H])c([H])c([H])c2C1([H])[H]

>  <smiles>  (69) 
[H]c1c([H])c([H])c2c(c1[H])C([H])([H])C([H])([H])C([H])([H])C2([H])N([H])C(=O)C1([H])N(C(=O)C([H])(N([H])C(=O)C([H])(N([H])C([H])([H])[H])C([H])([H])[H])C(C([H])([H])[H])(C([H])([H])[H])C([H])([H])[H])C([H])([H])c2c([H])c(OC([H])([H])C([H])([H])C([H])(C([H])([H])[H])C3(c4c([H])c([H])c([H])c(C([H])(F)C(=O)N5C([H])([H])C([H])([H])C([H])([H])C([H])(n6nc(-c7c([H])c([H])c(Oc8c([H])c([H])c(F)c([H])c8F)c([H])c7[H])c(C(=O)N([H])[H])c6N([H])[H])C5([H])[H])c4[H])C([H])([H])C3([H])[H])c([H])c([H])c2C1([H])[H]

$$$$
69:0:0
     RDKit          3D

 90 98  0  0  1  0  0  0  0  0999 V2000
  -28.2630  -21.8130   19.7330 C   0  0  0  0  0  2  0  0  0  0  0  0
  -30.0150  -22.8670   20.9910 C   0  0  0  0  0  2  0  0  0  0  0  0
  -29.4170  -20.6750   19.9190 C   0  0  0  0  0  3  0  0  0  0  0  0
  -28.5970  -23.2420   20.4530 C   0  0  0  0  0  3  0  0  0  0  0  0
  -30.3320  -21.3820   20.8530 N   0  0  0  0  0  4  0  0  0  0  0  0
  -30.1960  -20.9620   21.7580 H   0  0  0  0  0  0  0  0  0  0  0  0
  -31.2930  -21.2270   20.5980 H   0  0  0  0  0  0  0  0  0  0  0  0
  -29.1230  -19.0290   20.2860 C   0  0  0  0  0  0  0  0  0  0  0  0
  -28.0220  -18.7160   20.7520 O   0  0  0  0  0  0  0  0  0  0  0  0
  -30.1700  -17.7570   20.0810 C   0  0  0  0  0  2  0  0  0  0  0  0
  -30.5420  -15.0340   20.0730 C   0  0  0  0  0  0  0  0  0  0  0  0
  -30.3700  -12.7010   19.0970 C   0  0  0  0  0  2  0  0  0  0  0  0
  -29.3820  -12.6830   17.9080 C   0  0  0  0  0  2  0  0  0  0  0  0
  -27.9390  -12.4670   18.4020 C   0  0  0  0  0  2  0  0  0  0  0  0
  -27.5900  -13.3600   19.6220 C   0  0  0  0  0  3  0  0  0  0  0  0
  -28.6980  -13.3520   20.6970 C   0  0  0  0  0  2  0  0  0  0  0  0
  -29.9360  -13.7780   20.0350 N   0  0  0  0  0  0  0  0  0  0  0  0
  -31.7220  -15.0980   19.7190 O   0  0  0  0  0  0  0  0  0  0  0  0
  -29.7930  -16.2260   20.2940 N   0  0  0  0  0  0  0  0  0  0  0  0
  -28.8340  -16.0750   20.5680 H   0  0  0  0  0  0  0  0  0  0  0  0
  -25.2490  -13.9140   20.4920 C   0  0  0  0  0  0  0  0  0  0  0  0
  -24.2040  -13.1280   20.8940 C   0  0  0  0  0  0  0  0  0  0  0  0
  -24.6670  -11.7790   20.8050 C   0  0  0  0  0  0  0  0  0  0  0  0
  -26.2790  -13.0430   20.1770 N   0  0  0  0  0  0  0  0  0  0  0  0
  -25.9410  -11.7530   20.4330 N   0  0  0  0  0  0  0  0  0  0  0  0
  -23.9490  -10.5110   20.9980 C   0  0  0  0  0  0  0  0  0  0  0  0
  -24.3840   -9.5530   21.9400 C   0  0  0  0  0  3  0  0  0  0  0  0
  -23.6650   -8.3510   22.1230 C   0  0  0  0  0  3  0  0  0  0  0  0
  -22.4970   -8.1000   21.3640 C   0  0  0  0  0  0  0  0  0  0  0  0
  -22.0810   -9.0470   20.4120 C   0  0  0  0  0  3  0  0  0  0  0  0
  -22.8010  -10.2400   20.2280 C   0  0  0  0  0  3  0  0  0  0  0  0
  -21.7530   -6.9490   21.4550 O   0  0  0  0  0  0  0  0  0  0  0  0
  -21.6570   -6.2430   22.6270 C   0  0  0  0  0  0  0  0  0  0  0  0
  -21.1030   -6.8100   23.7950 C   0  0  0  0  0  3  0  0  0  0  0  0
  -20.9610   -6.0260   24.9580 C   0  0  0  0  0  3  0  0  0  0  0  0
  -21.3640   -4.6770   24.9530 C   0  0  0  0  0  0  0  0  0  0  0  0
  -21.9120   -4.1100   23.7890 C   0  0  0  0  0  3  0  0  0  0  0  0
  -22.0550   -4.8900   22.6290 C   0  0  0  0  0  0  0  0  0  0  0  0
  -22.5650   -4.3350   21.5030 F   0  0  0  0  0  0  0  0  0  0  0  0
  -21.2210   -3.9230   26.0670 F   0  0  0  0  0  0  0  0  0  0  0  0
  -22.8210  -13.5960   21.2420 C   0  0  0  0  0  0  0  0  0  0  0  0
  -22.1320  -12.8740   22.1170 N   0  0  0  0  0  0  0  0  0  0  0  0
  -22.3620  -14.6370   20.7720 O   0  0  0  0  0  0  0  0  0  0  0  0
  -22.5200  -12.0330   22.5190 H   0  0  0  0  0  0  0  0  0  0  0  0
  -21.2050  -13.1660   22.3910 H   0  0  0  0  0  0  0  0  0  0  0  0
  -25.4040  -15.2890   20.3410 N   0  0  0  0  0  0  0  0  0  0  0  0
  -24.6410  -15.9380   20.5070 H   0  0  0  0  0  0  0  0  0  0  0  0
  -26.2260  -15.7380   19.9600 H   0  0  0  0  0  0  0  0  0  0  0  0
  -28.2900  -24.7610   19.7530 C   0  0  0  0  0  2  0  0  0  0  0  0
  -28.2730  -26.2130   20.3490 O   0  0  0  0  0  0  0  0  0  0  0  0
  -24.6130  -31.9300   23.2300 C   0  0  0  0  0  0  0  0  0  0  0  0
  -27.2130  -27.1950   20.2280 C   0  0  0  0  0  0  0  0  0  0  0  0
  -23.4290  -30.5350   21.5800 C   0  0  0  0  0  3  0  0  0  0  0  0
  -24.8890  -28.9570   20.1720 C   0  0  0  0  0  0  0  0  0  0  0  0
  -25.9860  -30.7900   21.4460 C   0  0  0  0  0  2  0  0  0  0  0  0
  -26.0630  -29.3960   20.7950 C   0  0  0  0  0  0  0  0  0  0  0  0
  -27.2200  -28.5290   20.8100 C   0  0  0  0  0  3  0  0  0  0  0  0
  -26.0110  -26.8680   19.5580 C   0  0  0  0  0  3  0  0  0  0  0  0
  -24.8770  -27.7060   19.5410 C   0  0  0  0  0  3  0  0  0  0  0  0
  -23.6630  -29.8550   20.2050 C   0  0  0  0  0  2  0  0  0  0  0  0
  -24.6950  -31.1070   22.1390 N   0  0  0  0  0  0  0  0  0  0  0  0
  -23.5220  -32.2170   23.7450 O   0  0  0  0  0  0  0  0  0  0  0  0
  -22.7380  -29.5300   22.5350 C   0  0  0  0  0  0  0  0  0  0  0  0
  -21.4100  -29.3620   22.3940 N   0  0  0  0  0  0  0  0  0  0  0  0
  -23.3990  -28.9030   23.3670 O   0  0  0  0  0  0  0  0  0  0  0  0
  -20.9320  -29.9220   21.7010 H   0  0  0  0  0  0  0  0  0  0  0  0
  -18.0150  -28.2000   22.8940 C   0  0  0  0  0  0  0  0  0  0  0  0
  -20.5780  -28.4270   23.1560 C   0  0  0  0  0  3  0  0  0  0  0  0
  -20.6590  -26.9990   22.5690 C   0  0  0  0  0  2  0  0  0  0  0  0
  -19.5520  -26.6990   21.5540 C   0  0  0  0  0  2  0  0  0  0  0  0
  -18.1730  -26.8560   22.2030 C   0  0  0  0  0  2  0  0  0  0  0  0
  -19.1450  -28.9450   23.3280 C   0  0  0  0  0  0  0  0  0  0  0  0
  -18.9420  -30.2030   23.9360 C   0  0  0  0  0  3  0  0  0  0  0  0
  -17.6440  -30.7170   24.1120 C   0  0  0  0  0  3  0  0  0  0  0  0
  -16.5300  -29.9700   23.6940 C   0  0  0  0  0  3  0  0  0  0  0  0
  -16.7160  -28.7130   23.0900 C   0  0  0  0  0  3  0  0  0  0  0  0
  -25.8850  -32.5660   23.8710 C   0  0  0  0  0  3  0  0  0  0  0  0
  -26.3710  -31.8050   25.1670 C   0  0  1  0  0  0  0  0  0  0  0  0
  -25.2520  -31.5830   26.2130 C   0  0  0  0  0  1  0  0  0  0  0  0
  -26.9610  -30.4220   24.8090 C   0  0  0  0  0  1  0  0  0  0  0  0
  -27.5060  -32.6050   25.8470 C   0  0  0  0  0  1  0  0  0  0  0  0
  -25.5740  -33.9680   24.1890 N   0  0  0  0  0  0  0  0  0  0  0  0
  -25.9120  -35.0170   23.4260 C   0  0  0  0  0  0  0  0  0  0  0  0
  -26.5830  -34.9060   22.3980 O   0  0  0  0  0  0  0  0  0  0  0  0
  -24.9780  -34.1290   24.9870 H   0  0  0  0  0  0  0  0  0  0  0  0
  -24.1990  -36.8230   23.0530 C   0  0  0  0  0  1  0  0  0  0  0  0
  -25.4300  -36.4110   23.8760 C   0  0  0  0  0  3  0  0  0  0  0  0
  -27.5550  -37.2970   24.7340 C   0  0  0  0  0  1  0  0  0  0  0  0
  -26.4710  -37.4570   23.7690 N   0  0  0  0  0  0  0  0  0  0  0  0
  -26.0670  -38.3820   23.8930 H   0  0  0  0  0  0  0  0  0  0  0  0
  1  3  1  0
  1  4  1  0
  3  8  1  0
  3  5  1  0
  4 49  1  0
  4  2  1  0
  5  2  1  0
  5  6  1  0
  7  5  1  0
  8  9  2  0
 10  8  1  0
 10 19  1  0
 11 19  1  0
 12 17  1  0
 13 14  1  0
 13 12  1  0
 15 14  1  0
 15 24  1  0
 15 16  1  0
 17 11  1  0
 17 16  1  0
 18 11  2  0
 19 20  1  0
 21 22  2  0
 22 41  1  0
 23 22  1  0
 23 26  1  0
 24 25  1  0
 24 21  1  0
 25 23  2  0
 26 27  1  0
 27 28  2  0
 29 32  1  0
 29 28  1  0
 30 29  2  0
 31 30  1  0
 31 26  2  0
 32 33  1  0
 33 38  2  0
 33 34  1  0
 34 35  2  0
 36 35  1  0
 36 40  1  0
 37 36  2  0
 38 37  1  0
 39 38  1  0
 41 42  1  0
 42 45  1  0
 42 44  1  0
 43 41  2  0
 46 21  1  0
 46 47  1  0
 48 46  1  0
 49 50  1  0
 51 62  2  0
 52 50  1  0
 52 57  1  0
 53 61  1  0
 53 63  1  0
 54 60  1  0
 54 56  1  0
 55 61  1  0
 56 57  2  0
 56 55  1  0
 58 52  2  0
 59 58  1  0
 59 54  2  0
 60 53  1  0
 61 51  1  0
 63 65  2  0
 64 63  1  0
 66 64  1  0
 67 76  2  0
 67 72  1  0
 68 64  1  0
 68 72  1  0
 69 68  1  0
 70 71  1  0
 70 69  1  0
 71 67  1  0
 72 73  2  0
 73 74  1  0
 75 74  2  0
 76 75  1  0
 77 51  1  0
 77 82  1  0
 77 78  1  0
 78 81  1  1
 78 79  1  0
 80 78  1  0
 82 85  1  0
 83 87  1  0
 83 82  1  0
 84 83  2  0
 87 86  1  0
 89 87  1  0
 89 90  1  0
 89 88  1  0
M  ISO  4  11 100  19 100  49 101  50 101
M  END
>  <TORSDO>  (70) 
F 19

>  <SCORE>  (70) 
-15.164

>  <name>  (70) 
69

>  <ligand_id>  (70) 
69

>  <original_smiles>  (70) 
[H]c1c([H])c([H])c2c(c1[H])C([H])([H])C([H])([H])C([H])([H])C2([H])N([H])C(=O)C1([H])N(C(=O)C([H])(N([H])C(=O)C([H])(N([H])C([H])([H])[H])C([H])([H])[H])C(C([H])([H])[H])(C([H])([H])[H])C([H])([H])[H])C([H])([H])c2c([H])c(OC([H])([H])C3([H])C([H])([H])C([H])(C(=O)C([H])([H])N([H])C(=O)N4C([H])([H])C([H])([H])C([H])([H])C([H])(n5nc(-c6c([H])c([H])c(Oc7c([H])c([H])c(F)c([H])c7F)c([H])c6[H])c(C(=O)N([H])[H])c5N([H])[H])C4([H])[H])[N+]([H])([H])C3([H])[H])c([H])c([H])c2C1([H])[H]

>  <smiles>  (70) 
[H]c1c([H])c([H])c2c(c1[H])C([H])([H])C([H])([H])C([H])([H])C2([H])N([H])C(=O)C1([H])N(C(=O)C([H])(N([H])C(=O)C([H])(N([H])C([H])([H])[H])C([H])([H])[H])C(C([H])([H])[H])(C([H])([H])[H])C([H])([H])[H])C([H])([H])c2c([H])c(OC([H])([H])C3([H])C([H])([H])C([H])(C(=O)C([H])([H])N([H])C(=O)N4C([H])([H])C([H])([H])C([H])([H])C([H])(n5nc(-c6c([H])c([H])c(Oc7c([H])c([H])c(F)c([H])c7F)c([H])c6[H])c(C(=O)N([H])[H])c5N([H])[H])C4([H])[H])[N+]([H])([H])C3([H])[H])c([H])c([H])c2C1([H])[H]

$$$$
70:0:0
     RDKit          3D

 88 96  0  0  1  0  0  0  0  0999 V2000
  -29.1000  -21.4260   20.6200 C   0  0  0  0  0  0  0  0  0  0  0  0
  -29.4040  -20.1000   20.9520 C   0  0  0  0  0  3  0  0  0  0  0  0
  -29.0040  -22.7020   21.4930 C   0  0  0  0  0  2  0  0  0  0  0  0
  -28.6110  -22.2180   19.3970 C   0  0  0  0  0  2  0  0  0  0  0  0
  -28.9840  -23.5760   20.1700 C   0  0  2  0  0  0  0  0  0  0  0  0
  -30.3490  -24.1450   19.7790 C   0  0  0  0  0  1  0  0  0  0  0  0
  -29.3330  -18.6860   20.2040 C   0  0  0  0  0  2  0  0  0  0  0  0
  -30.2470  -17.4290   20.7250 C   0  0  0  0  0  2  0  0  0  0  0  0
  -30.5680  -14.8040   20.3700 C   0  0  0  0  0  0  0  0  0  0  0  0
  -30.3660  -12.5140   19.3680 C   0  0  0  0  0  2  0  0  0  0  0  0
  -29.4260  -12.5600   18.1440 C   0  0  0  0  0  2  0  0  0  0  0  0
  -27.9580  -12.3880   18.5790 C   0  0  0  0  0  2  0  0  0  0  0  0
  -27.5810  -13.2890   19.7850 C   0  0  0  0  0  3  0  0  0  0  0  0
  -28.6420  -13.2240   20.9050 C   0  0  0  0  0  2  0  0  0  0  0  0
  -29.9310  -13.5810   20.3000 N   0  0  0  0  0  0  0  0  0  0  0  0
  -31.7650  -14.8820   20.0820 O   0  0  0  0  0  0  0  0  0  0  0  0
  -29.8100  -15.9580   20.5680 N   0  0  0  0  0  0  0  0  0  0  0  0
  -28.8260  -15.7850   20.7120 H   0  0  0  0  0  0  0  0  0  0  0  0
  -25.1970  -13.8860   20.5130 C   0  0  0  0  0  0  0  0  0  0  0  0
  -24.1290  -13.1150   20.8830 C   0  0  0  0  0  0  0  0  0  0  0  0
  -24.5900  -11.7630   20.8600 C   0  0  0  0  0  0  0  0  0  0  0  0
  -26.2390  -13.0030   20.2790 N   0  0  0  0  0  0  0  0  0  0  0  0
  -25.8810  -11.7220   20.5530 N   0  0  0  0  0  0  0  0  0  0  0  0
  -23.8610  -10.5020   21.0540 C   0  0  0  0  0  0  0  0  0  0  0  0
  -24.2990   -9.5300   21.9770 C   0  0  0  0  0  3  0  0  0  0  0  0
  -23.5690   -8.3340   22.1600 C   0  0  0  0  0  3  0  0  0  0  0  0
  -22.3870   -8.1050   21.4160 C   0  0  0  0  0  0  0  0  0  0  0  0
  -21.9670   -9.0680   20.4820 C   0  0  0  0  0  3  0  0  0  0  0  0
  -22.6970  -10.2540   20.2980 C   0  0  0  0  0  3  0  0  0  0  0  0
  -21.6280   -6.9640   21.5090 O   0  0  0  0  0  0  0  0  0  0  0  0
  -21.6000   -6.2090   22.6540 C   0  0  0  0  0  0  0  0  0  0  0  0
  -21.2070   -6.7530   23.8970 C   0  0  0  0  0  3  0  0  0  0  0  0
  -21.1260   -5.9250   25.0340 C   0  0  0  0  0  3  0  0  0  0  0  0
  -21.4270   -4.5540   24.9310 C   0  0  0  0  0  0  0  0  0  0  0  0
  -21.8110   -4.0090   23.6930 C   0  0  0  0  0  3  0  0  0  0  0  0
  -21.8950   -4.8340   22.5570 C   0  0  0  0  0  0  0  0  0  0  0  0
  -22.2470   -4.2990   21.3630 F   0  0  0  0  0  0  0  0  0  0  0  0
  -21.3420   -3.7560   26.0200 F   0  0  0  0  0  0  0  0  0  0  0  0
  -22.7320  -13.5960   21.1480 C   0  0  0  0  0  0  0  0  0  0  0  0
  -22.0000  -12.9080   22.0160 N   0  0  0  0  0  0  0  0  0  0  0  0
  -22.2980  -14.6190   20.6190 O   0  0  0  0  0  0  0  0  0  0  0  0
  -22.3630  -12.0810   22.4670 H   0  0  0  0  0  0  0  0  0  0  0  0
  -21.0620  -13.2140   22.2350 H   0  0  0  0  0  0  0  0  0  0  0  0
  -25.3610  -15.2560   20.3270 N   0  0  0  0  0  0  0  0  0  0  0  0
  -24.5880  -15.9060   20.4300 H   0  0  0  0  0  0  0  0  0  0  0  0
  -26.1970  -15.6930   19.9640 H   0  0  0  0  0  0  0  0  0  0  0  0
  -27.9630  -24.8470   20.0090 C   0  0  0  0  0  2  0  0  0  0  0  0
  -28.2470  -26.3190   20.2600 O   0  0  0  0  0  0  0  0  0  0  0  0
  -24.6130  -31.9030   23.2520 C   0  0  0  0  0  0  0  0  0  0  0  0
  -27.1690  -27.2520   20.1970 C   0  0  0  0  0  0  0  0  0  0  0  0
  -23.3980  -30.5090   21.6210 C   0  0  0  0  0  3  0  0  0  0  0  0
  -24.8320  -28.9460   20.1890 C   0  0  0  0  0  0  0  0  0  0  0  0
  -25.9460  -30.7900   21.4340 C   0  0  0  0  0  2  0  0  0  0  0  0
  -26.0130  -29.4050   20.7840 C   0  0  0  0  0  0  0  0  0  0  0  0
  -27.1840  -28.5730   20.7750 C   0  0  0  0  0  3  0  0  0  0  0  0
  -25.9590  -26.8760   19.5700 C   0  0  0  0  0  3  0  0  0  0  0  0
  -24.8110  -27.6900   19.5700 C   0  0  0  0  0  3  0  0  0  0  0  0
  -23.6040  -29.8360   20.2410 C   0  0  0  0  0  2  0  0  0  0  0  0
  -24.6720  -31.0860   22.1570 N   0  0  0  0  0  0  0  0  0  0  0  0
  -23.5320  -32.1890   23.7870 O   0  0  0  0  0  0  0  0  0  0  0  0
  -22.7280  -29.4980   22.5850 C   0  0  0  0  0  0  0  0  0  0  0  0
  -21.4010  -29.3250   22.4600 N   0  0  0  0  0  0  0  0  0  0  0  0
  -23.4030  -28.8750   23.4080 O   0  0  0  0  0  0  0  0  0  0  0  0
  -20.9130  -29.8800   21.7700 H   0  0  0  0  0  0  0  0  0  0  0  0
  -18.0220  -28.1250   22.9610 C   0  0  0  0  0  0  0  0  0  0  0  0
  -20.5790  -28.3930   23.2360 C   0  0  0  0  0  3  0  0  0  0  0  0
  -20.6840  -26.9560   22.6740 C   0  0  0  0  0  2  0  0  0  0  0  0
  -19.5870  -26.6230   21.6590 C   0  0  0  0  0  2  0  0  0  0  0  0
  -18.2030  -26.7710   22.2970 C   0  0  0  0  0  2  0  0  0  0  0  0
  -19.1370  -28.8940   23.3880 C   0  0  0  0  0  0  0  0  0  0  0  0
  -18.9140  -30.1610   23.9700 C   0  0  0  0  0  3  0  0  0  0  0  0
  -17.6070  -30.6600   24.1290 C   0  0  0  0  0  3  0  0  0  0  0  0
  -16.5060  -29.8890   23.7170 C   0  0  0  0  0  3  0  0  0  0  0  0
  -16.7140  -28.6240   23.1400 C   0  0  0  0  0  3  0  0  0  0  0  0
  -25.8990  -32.5320   23.8680 C   0  0  0  0  0  3  0  0  0  0  0  0
  -26.4150  -31.7620   25.1450 C   0  0  1  0  0  0  0  0  0  0  0  0
  -25.3240  -31.5340   26.2180 C   0  0  0  0  0  1  0  0  0  0  0  0
  -26.9890  -30.3800   24.7580 C   0  0  0  0  0  1  0  0  0  0  0  0
  -27.5720  -32.5510   25.8010 C   0  0  0  0  0  1  0  0  0  0  0  0
  -25.5940  -33.9330   24.2000 N   0  0  0  0  0  0  0  0  0  0  0  0
  -25.9180  -34.9850   23.4380 C   0  0  0  0  0  0  0  0  0  0  0  0
  -26.5760  -34.8800   22.3990 O   0  0  0  0  0  0  0  0  0  0  0  0
  -25.0090  -34.0880   25.0080 H   0  0  0  0  0  0  0  0  0  0  0  0
  -24.1870  -36.7810   23.1120 C   0  0  0  0  0  1  0  0  0  0  0  0
  -25.4410  -36.3750   23.9030 C   0  0  0  0  0  3  0  0  0  0  0  0
  -27.5910  -37.2580   24.6970 C   0  0  0  0  0  1  0  0  0  0  0  0
  -26.4730  -37.4270   23.7720 N   0  0  0  0  0  0  0  0  0  0  0  0
  -26.0700  -38.3470   23.9250 H   0  0  0  0  0  0  0  0  0  0  0  0
  1  2  2  0
  1  3  1  0
  4  5  1  0
  4  1  1  0
  5  6  1  6
  5  3  1  0
  7  8  1  0
  7  2  1  0
  9 17  1  0
 10 15  1  0
 11 12  1  0
 11 10  1  0
 13 12  1  0
 13 22  1  0
 13 14  1  0
 15  9  1  0
 15 14  1  0
 16  9  2  0
 17 18  1  0
 17  8  1  0
 19 20  2  0
 20 39  1  0
 21 20  1  0
 21 24  1  0
 22 19  1  0
 22 23  1  0
 23 21  2  0
 24 25  1  0
 25 26  2  0
 27 30  1  0
 27 26  1  0
 28 27  2  0
 29 28  1  0
 29 24  2  0
 30 31  1  0
 31 32  1  0
 32 33  2  0
 34 33  1  0
 34 38  1  0
 35 34  2  0
 36 31  2  0
 36 35  1  0
 37 36  1  0
 39 40  1  0
 40 43  1  0
 40 42  1  0
 41 39  2  0
 44 45  1  0
 44 19  1  0
 46 44  1  0
 47  5  1  0
 47 48  1  0
 49 60  2  0
 50 48  1  0
 50 55  1  0
 51 59  1  0
 51 61  1  0
 52 58  1  0
 52 54  1  0
 53 59  1  0
 54 53  1  0
 55 54  2  0
 56 50  2  0
 57 56  1  0
 57 52  2  0
 58 51  1  0
 59 49  1  0
 61 63  2  0
 62 61  1  0
 64 62  1  0
 65 74  2  0
 65 70  1  0
 66 62  1  0
 66 70  1  0
 67 66  1  0
 68 69  1  0
 68 67  1  0
 69 65  1  0
 70 71  2  0
 71 72  1  0
 73 72  2  0
 74 73  1  0
 75 49  1  0
 75 80  1  0
 75 76  1  0
 76 79  1  1
 76 77  1  0
 78 76  1  0
 80 83  1  0
 81 85  1  0
 81 80  1  0
 82 81  2  0
 85 84  1  0
 87 85  1  0
 87 88  1  0
 87 86  1  0
M  ISO  4   9 100  17 100  47 101  48 101
M  END
>  <TORSDO>  (71) 
F 19

>  <SCORE>  (71) 
-14.093

>  <name>  (71) 
70

>  <ligand_id>  (71) 
70

>  <original_smiles>  (71) 
[H]C(=C1C([H])([H])C(C([H])([H])[H])(C([H])([H])Oc2c([H])c([H])c3c(c2[H])C([H])([H])N(C(=O)C([H])(N([H])C(=O)C([H])(N([H])C([H])([H])[H])C([H])([H])[H])C(C([H])([H])[H])(C([H])([H])[H])C([H])([H])[H])C([H])(C(=O)N([H])C2([H])c4c([H])c([H])c([H])c([H])c4C([H])([H])C([H])([H])C2([H])[H])C3([H])[H])C1([H])[H])C([H])([H])C([H])([H])N([H])C(=O)N1C([H])([H])C([H])([H])C([H])([H])C([H])(n2nc(-c3c([H])c([H])c(Oc4c([H])c([H])c(F)c([H])c4F)c([H])c3[H])c(C(=O)N([H])[H])c2N([H])[H])C1([H])[H]

>  <smiles>  (71) 
[H]C(=C1C([H])([H])C(C([H])([H])[H])(C([H])([H])Oc2c([H])c([H])c3c(c2[H])C([H])([H])N(C(=O)C([H])(N([H])C(=O)C([H])(N([H])C([H])([H])[H])C([H])([H])[H])C(C([H])([H])[H])(C([H])([H])[H])C([H])([H])[H])C([H])(C(=O)N([H])C2([H])c4c([H])c([H])c([H])c([H])c4C([H])([H])C([H])([H])C2([H])[H])C3([H])[H])C1([H])[H])C([H])([H])C([H])([H])N([H])C(=O)N1C([H])([H])C([H])([H])C([H])([H])C([H])(n2nc(-c3c([H])c([H])c(Oc4c([H])c([H])c(F)c([H])c4F)c([H])c3[H])c(C(=O)N([H])[H])c2N([H])[H])C1([H])[H]

$$$$
71:0:0
     RDKit          3D

 91 99  0  0  1  0  0  0  0  0999 V2000
  -29.6200  -23.2340   19.8330 C   0  0  0  0  0  0  0  0  0  0  0  0
  -28.2690  -23.6610   21.4130 C   0  0  0  0  0  2  0  0  0  0  0  0
  -28.9310  -22.3450   20.8930 C   0  0  0  0  0  3  0  0  0  0  0  0
  -29.2450  -24.5470   20.5980 C   0  0  0  0  0  3  0  0  0  0  0  0
  -30.1950  -23.0070   18.7640 O   0  0  0  0  0  0  0  0  0  0  0  0
  -28.0260  -21.2180   20.3190 C   0  0  0  0  0  0  0  0  0  0  0  0
  -26.5400  -21.5330   20.1780 C   0  0  0  0  0  1  0  0  0  0  0  0
  -28.3870  -20.0240   20.0030 N   0  0  0  0  0  0  0  0  0  0  0  0
  -29.7330  -19.4910   20.1580 C   0  0  0  0  0  2  0  0  0  0  0  0
  -29.5940  -17.9810   20.4920 C   0  0  0  0  0  2  0  0  0  0  0  0
  -30.8530  -17.1090   20.3150 C   0  0  0  0  0  2  0  0  0  0  0  0
  -31.1740  -14.6490   19.9860 C   0  0  0  0  0  0  0  0  0  0  0  0
  -30.8050  -12.4170   19.0010 C   0  0  0  0  0  2  0  0  0  0  0  0
  -29.8290  -12.5530   17.8140 C   0  0  0  0  0  2  0  0  0  0  0  0
  -28.3690  -12.4690   18.2970 C   0  0  0  0  0  2  0  0  0  0  0  0
  -28.0790  -13.4120   19.4920 C   0  0  0  0  0  3  0  0  0  0  0  0
  -29.1630  -13.2530   20.5860 C   0  0  0  0  0  2  0  0  0  0  0  0
  -30.4800  -13.4780   19.9650 N   0  0  0  0  0  0  0  0  0  0  0  0
  -32.2690  -14.8030   19.4340 O   0  0  0  0  0  0  0  0  0  0  0  0
  -30.5110  -15.6920   20.5030 N   0  0  0  0  0  0  0  0  0  0  0  0
  -29.6060  -15.4850   20.8970 H   0  0  0  0  0  0  0  0  0  0  0  0
  -25.7560  -14.1320   20.3430 C   0  0  0  0  0  0  0  0  0  0  0  0
  -24.6580  -13.4160   20.7270 C   0  0  0  0  0  0  0  0  0  0  0  0
  -25.0350  -12.0390   20.6310 C   0  0  0  0  0  0  0  0  0  0  0  0
  -26.7370  -13.2040   20.0280 N   0  0  0  0  0  0  0  0  0  0  0  0
  -26.3080  -11.9370   20.2600 N   0  0  0  0  0  0  0  0  0  0  0  0
  -24.2460  -10.8160   20.8130 C   0  0  0  0  0  0  0  0  0  0  0  0
  -24.6220   -9.8320   21.7540 C   0  0  0  0  0  3  0  0  0  0  0  0
  -23.8390   -8.6720   21.9270 C   0  0  0  0  0  3  0  0  0  0  0  0
  -22.6650   -8.4860   21.1590 C   0  0  0  0  0  0  0  0  0  0  0  0
  -22.3090   -9.4580   20.2080 C   0  0  0  0  0  3  0  0  0  0  0  0
  -23.0920  -10.6100   20.0330 C   0  0  0  0  0  3  0  0  0  0  0  0
  -21.8600   -7.3790   21.2370 O   0  0  0  0  0  0  0  0  0  0  0  0
  -21.7030   -6.6800   22.4090 C   0  0  0  0  0  0  0  0  0  0  0  0
  -21.1950   -7.2920   23.5760 C   0  0  0  0  0  3  0  0  0  0  0  0
  -20.9840   -6.5240   24.7400 C   0  0  0  0  0  3  0  0  0  0  0  0
  -21.2770   -5.1470   24.7350 C   0  0  0  0  0  0  0  0  0  0  0  0
  -21.7800   -4.5360   23.5760 C   0  0  0  0  0  3  0  0  0  0  0  0
  -21.9900   -5.3000   22.4130 C   0  0  0  0  0  0  0  0  0  0  0  0
  -22.4530   -4.7040   21.2900 F   0  0  0  0  0  0  0  0  0  0  0  0
  -21.0680   -4.4070   25.8490 F   0  0  0  0  0  0  0  0  0  0  0  0
  -23.3060  -13.9620   21.0820 C   0  0  0  0  0  0  0  0  0  0  0  0
  -22.5810  -13.2820   21.9610 N   0  0  0  0  0  0  0  0  0  0  0  0
  -22.9060  -15.0260   20.6140 O   0  0  0  0  0  0  0  0  0  0  0  0
  -22.9190  -12.4150   22.3570 H   0  0  0  0  0  0  0  0  0  0  0  0
  -21.6720  -13.6270   22.2370 H   0  0  0  0  0  0  0  0  0  0  0  0
  -25.9960  -15.5000   20.2160 N   0  0  0  0  0  0  0  0  0  0  0  0
  -25.2970  -16.1930   20.4580 H   0  0  0  0  0  0  0  0  0  0  0  0
  -26.8800  -15.9060   19.9370 H   0  0  0  0  0  0  0  0  0  0  0  0
  -28.7160  -25.6350   19.6450 C   0  0  0  0  0  2  0  0  0  0  0  0
  -28.7300  -26.9930   20.1700 O   0  0  0  0  0  0  0  0  0  0  0  0
  -24.5570  -31.8590   23.2970 C   0  0  0  0  0  0  0  0  0  0  0  0
  -27.5510  -27.7230   20.0870 C   0  0  0  0  0  0  0  0  0  0  0  0
  -23.4910  -30.4750   21.5450 C   0  0  0  0  0  3  0  0  0  0  0  0
  -25.0850  -29.1280   20.0930 C   0  0  0  0  0  0  0  0  0  0  0  0
  -26.0060  -30.9940   21.4630 C   0  0  0  0  0  2  0  0  0  0  0  0
  -26.1960  -29.6630   20.7590 C   0  0  0  0  0  0  0  0  0  0  0  0
  -27.4320  -28.9640   20.7600 C   0  0  0  0  0  3  0  0  0  0  0  0
  -26.4260  -27.2440   19.3750 C   0  0  0  0  0  3  0  0  0  0  0  0
  -25.2030  -27.9230   19.3900 C   0  0  0  0  0  3  0  0  0  0  0  0
  -23.7890  -29.9070   20.1360 C   0  0  0  0  0  2  0  0  0  0  0  0
  -24.6970  -31.1240   22.1580 N   0  0  0  0  0  0  0  0  0  0  0  0
  -23.4460  -32.0350   23.8180 O   0  0  0  0  0  0  0  0  0  0  0  0
  -22.8850  -29.3600   22.4220 C   0  0  0  0  0  0  0  0  0  0  0  0
  -21.5810  -29.0980   22.2310 N   0  0  0  0  0  0  0  0  0  0  0  0
  -23.5820  -28.7460   23.2360 O   0  0  0  0  0  0  0  0  0  0  0  0
  -21.0830  -29.6340   21.5330 H   0  0  0  0  0  0  0  0  0  0  0  0
  -18.2660  -27.7080   22.5860 C   0  0  0  0  0  0  0  0  0  0  0  0
  -20.7990  -28.0770   22.9310 C   0  0  0  0  0  3  0  0  0  0  0  0
  -20.9860  -26.6950   22.2680 C   0  0  0  0  0  2  0  0  0  0  0  0
  -19.9290  -26.3840   21.2060 C   0  0  0  0  0  2  0  0  0  0  0  0
  -18.5290  -26.4170   21.8330 C   0  0  0  0  0  2  0  0  0  0  0  0
  -19.3330  -28.4950   23.0900 C   0  0  0  0  0  0  0  0  0  0  0  0
  -19.0350  -29.7030   23.7620 C   0  0  0  0  0  3  0  0  0  0  0  0
  -17.7030  -30.1240   23.9320 C   0  0  0  0  0  3  0  0  0  0  0  0
  -16.6520  -29.3280   23.4460 C   0  0  0  0  0  3  0  0  0  0  0  0
  -16.9330  -28.1260   22.7750 C   0  0  0  0  0  3  0  0  0  0  0  0
  -25.7820  -32.5310   23.9950 C   0  0  0  0  0  3  0  0  0  0  0  0
  -25.4270  -33.9280   24.2680 N   0  0  0  0  0  0  0  0  0  0  0  0
  -25.7630  -34.9680   23.4890 C   0  0  0  0  0  0  0  0  0  0  0  0
  -26.4840  -34.8550   22.4930 O   0  0  0  0  0  0  0  0  0  0  0  0
  -24.7850  -34.0910   25.0290 H   0  0  0  0  0  0  0  0  0  0  0  0
  -23.9890  -36.6900   23.0110 C   0  0  0  0  0  1  0  0  0  0  0  0
  -25.2110  -36.3540   23.8810 C   0  0  0  0  0  3  0  0  0  0  0  0
  -27.2770  -37.3410   24.7710 C   0  0  0  0  0  1  0  0  0  0  0  0
  -26.2140  -37.4370   23.7720 N   0  0  0  0  0  0  0  0  0  0  0  0
  -25.7710  -38.3460   23.8690 H   0  0  0  0  0  0  0  0  0  0  0  0
  -26.2320  -31.8010   25.3170 C   0  0  1  0  0  0  0  0  0  0  0  0
  -25.0700  -31.5420   26.3020 C   0  0  0  0  0  1  0  0  0  0  0  0
  -26.8870  -30.4370   24.9950 C   0  0  0  0  0  1  0  0  0  0  0  0
  -27.3060  -32.6470   26.0440 C   0  0  0  0  0  1  0  0  0  0  0  0
  1  4  1  0
  1  3  1  0
  3  6  1  0
  3  2  1  0
  4 50  1  0
  4  2  1  0
  5  1  2  0
  7  6  1  0
  8  9  1  0
  8  6  2  0
  9 10  1  0
 11 10  1  0
 11 20  1  0
 12 20  1  0
 13 18  1  0
 14 15  1  0
 14 13  1  0
 16 15  1  0
 16 25  1  0
 16 17  1  0
 18 12  1  0
 18 17  1  0
 19 12  2  0
 20 21  1  0
 22 23  2  0
 23 42  1  0
 24 23  1  0
 24 27  1  0
 25 26  1  0
 25 22  1  0
 26 24  2  0
 27 28  1  0
 28 29  2  0
 30 33  1  0
 30 29  1  0
 31 30  2  0
 32 31  1  0
 32 27  2  0
 33 34  1  0
 34 39  2  0
 34 35  1  0
 35 36  2  0
 37 36  1  0
 37 41  1  0
 38 37  2  0
 39 38  1  0
 40 39  1  0
 42 43  1  0
 43 46  1  0
 43 45  1  0
 44 42  2  0
 47 22  1  0
 47 48  1  0
 49 47  1  0
 50 51  1  0
 52 63  2  0
 53 51  1  0
 53 58  1  0
 54 62  1  0
 54 64  1  0
 55 61  1  0
 55 57  1  0
 56 62  1  0
 57 58  2  0
 57 56  1  0
 59 60  1  0
 59 53  2  0
 60 55  2  0
 61 54  1  0
 62 52  1  0
 64 66  2  0
 65 64  1  0
 67 65  1  0
 68 77  2  0
 68 73  1  0
 69 65  1  0
 69 73  1  0
 70 69  1  0
 71 72  1  0
 71 70  1  0
 72 68  1  0
 73 74  2  0
 74 75  1  0
 76 75  2  0
 77 76  1  0
 78 52  1  0
 78 79  1  0
 78 88  1  0
 79 82  1  0
 80 84  1  0
 80 79  1  0
 81 80  2  0
 84 83  1  0
 86 87  1  0
 86 84  1  0
 86 85  1  0
 88 91  1  1
 88 89  1  0
 90 88  1  0
M  ISO  4  12 100  20 100  50 101  51 101
M  END
>  <TORSDO>  (72) 
F 21

>  <SCORE>  (72) 
-12.164

>  <name>  (72) 
71

>  <ligand_id>  (72) 
71

>  <original_smiles>  (72) 
[H]c1c([H])c([H])c2c(c1[H])C([H])([H])C([H])([H])C([H])([H])C2([H])N([H])C(=O)C1([H])N(C(=O)C([H])(N([H])C(=O)C([H])(N([H])C([H])([H])[H])C([H])([H])[H])C(C([H])([H])[H])(C([H])([H])[H])C([H])([H])[H])C([H])([H])c2c([H])c(OC([H])([H])C3([H])C(=O)C([H])(C(=NC([H])([H])C([H])([H])C([H])([H])N([H])C(=O)N4C([H])([H])C([H])([H])C([H])([H])C([H])(n5nc(-c6c([H])c([H])c(Oc7c([H])c([H])c(F)c([H])c7F)c([H])c6[H])c(C(=O)N([H])[H])c5N([H])[H])C4([H])[H])C([H])([H])[H])C3([H])[H])c([H])c([H])c2C1([H])[H]

>  <smiles>  (72) 
[H]c1c([H])c([H])c2c(c1[H])C([H])([H])C([H])([H])C([H])([H])C2([H])N([H])C(=O)C1([H])N(C(=O)C([H])(N([H])C(=O)C([H])(N([H])C([H])([H])[H])C([H])([H])[H])C(C([H])([H])[H])(C([H])([H])[H])C([H])([H])[H])C([H])([H])c2c([H])c(OC([H])([H])C3([H])C(=O)C([H])(C(=NC([H])([H])C([H])([H])C([H])([H])N([H])C(=O)N4C([H])([H])C([H])([H])C([H])([H])C([H])(n5nc(-c6c([H])c([H])c(Oc7c([H])c([H])c(F)c([H])c7F)c([H])c6[H])c(C(=O)N([H])[H])c5N([H])[H])C4([H])[H])C([H])([H])[H])C3([H])[H])c([H])c([H])c2C1([H])[H]

$$$$
72:0:0
     RDKit          3D

 90 98  0  0  1  0  0  0  0  0999 V2000
  -28.8280  -21.0280   20.7780 C   0  0  0  0  0  3  0  0  0  0  0  0
  -29.7340  -17.8030   18.9570 C   0  0  0  0  0  0  0  0  0  0  0  0
  -29.3630  -19.3050   18.9370 C   0  0  0  0  0  2  0  0  0  0  0  0
  -29.5170  -18.5040   21.1550 C   0  0  0  0  0  2  0  0  0  0  0  0
  -30.2110  -17.3360   20.3340 C   0  0  0  0  0  3  0  0  0  0  0  0
  -29.6010  -19.7750   20.3240 N   0  0  2  0  0  4  0  0  0  0  0  0
  -29.6220  -17.0740   17.9670 O   0  0  0  0  0  0  0  0  0  0  0  0
  -30.5770  -20.0320   20.3570 H   0  0  0  0  0  0  0  0  0  0  0  0
  -30.6230  -14.7620   20.3630 C   0  0  0  0  0  0  0  0  0  0  0  0
  -30.4060  -12.5120   19.3140 C   0  0  0  0  0  2  0  0  0  0  0  0
  -29.4680  -12.6250   18.0920 C   0  0  0  0  0  2  0  0  0  0  0  0
  -27.9980  -12.4550   18.5190 C   0  0  0  0  0  2  0  0  0  0  0  0
  -27.6320  -13.3200   19.7550 C   0  0  0  0  0  3  0  0  0  0  0  0
  -28.6900  -13.1960   20.8740 C   0  0  0  0  0  2  0  0  0  0  0  0
  -29.9910  -13.5440   20.2910 N   0  0  0  0  0  0  0  0  0  0  0  0
  -31.7930  -14.8790   19.9880 O   0  0  0  0  0  0  0  0  0  0  0  0
  -29.8670  -15.8800   20.6510 N   0  0  0  0  0  0  0  0  0  0  0  0
  -28.9150  -15.6990   20.9330 H   0  0  0  0  0  0  0  0  0  0  0  0
  -25.2370  -13.9060   20.4680 C   0  0  0  0  0  0  0  0  0  0  0  0
  -24.1740  -13.1290   20.8400 C   0  0  0  0  0  0  0  0  0  0  0  0
  -24.6430  -11.7790   20.8180 C   0  0  0  0  0  0  0  0  0  0  0  0
  -26.2850  -13.0300   20.2390 N   0  0  0  0  0  0  0  0  0  0  0  0
  -25.9350  -11.7460   20.5130 N   0  0  0  0  0  0  0  0  0  0  0  0
  -23.9230  -10.5150   21.0120 C   0  0  0  0  0  0  0  0  0  0  0  0
  -24.3540   -9.5550   21.9540 C   0  0  0  0  0  3  0  0  0  0  0  0
  -23.6320   -8.3550   22.1340 C   0  0  0  0  0  3  0  0  0  0  0  0
  -22.4660   -8.1070   21.3740 C   0  0  0  0  0  0  0  0  0  0  0  0
  -22.0530   -9.0560   20.4230 C   0  0  0  0  0  3  0  0  0  0  0  0
  -22.7750  -10.2470   20.2390 C   0  0  0  0  0  3  0  0  0  0  0  0
  -21.7150   -6.9600   21.4650 O   0  0  0  0  0  0  0  0  0  0  0  0
  -21.6610   -6.2250   22.6220 C   0  0  0  0  0  0  0  0  0  0  0  0
  -21.2180   -6.7850   23.8400 C   0  0  0  0  0  3  0  0  0  0  0  0
  -21.1120   -5.9760   24.9890 C   0  0  0  0  0  3  0  0  0  0  0  0
  -21.4380   -4.6090   24.9220 C   0  0  0  0  0  0  0  0  0  0  0  0
  -21.8740   -4.0480   23.7080 C   0  0  0  0  0  3  0  0  0  0  0  0
  -21.9820   -4.8530   22.5610 C   0  0  0  0  0  0  0  0  0  0  0  0
  -22.3820   -4.3040   21.3890 F   0  0  0  0  0  0  0  0  0  0  0  0
  -21.3290   -3.8290   26.0230 F   0  0  0  0  0  0  0  0  0  0  0  0
  -22.7730  -13.6010   21.1030 C   0  0  0  0  0  0  0  0  0  0  0  0
  -22.0450  -12.9070   21.9700 N   0  0  0  0  0  0  0  0  0  0  0  0
  -22.3340  -14.6210   20.5750 O   0  0  0  0  0  0  0  0  0  0  0  0
  -22.4130  -12.0810   22.4190 H   0  0  0  0  0  0  0  0  0  0  0  0
  -21.1040  -13.2050   22.1880 H   0  0  0  0  0  0  0  0  0  0  0  0
  -25.3940  -15.2760   20.2790 N   0  0  0  0  0  0  0  0  0  0  0  0
  -24.6120  -15.9160   20.3630 H   0  0  0  0  0  0  0  0  0  0  0  0
  -26.2160  -15.7070   19.8810 H   0  0  0  0  0  0  0  0  0  0  0  0
  -29.0140  -22.4210   19.9750 C   0  0  0  0  0  3  0  0  0  0  0  0
  -28.4380  -23.8120   20.5770 C   0  0  0  0  0  3  0  0  0  0  0  0
  -28.4920  -25.1510   19.6820 C   0  0  0  0  0  3  0  0  0  0  0  0
  -28.3700  -26.5200   20.2700 O   0  0  0  0  0  0  0  0  0  0  0  0
  -24.6030  -31.9170   23.2410 C   0  0  0  0  0  0  0  0  0  0  0  0
  -27.2240  -27.3370   20.1930 C   0  0  0  0  0  0  0  0  0  0  0  0
  -23.4030  -30.5140   21.6020 C   0  0  0  0  0  3  0  0  0  0  0  0
  -24.8550  -28.9570   20.1780 C   0  0  0  0  0  0  0  0  0  0  0  0
  -25.9420  -30.8300   21.4210 C   0  0  0  0  0  2  0  0  0  0  0  0
  -26.0220  -29.4480   20.7750 C   0  0  0  0  0  0  0  0  0  0  0  0
  -27.2050  -28.6480   20.7720 C   0  0  0  0  0  3  0  0  0  0  0  0
  -26.0280  -26.8960   19.5830 C   0  0  0  0  0  3  0  0  0  0  0  0
  -24.8610  -27.6880   19.5750 C   0  0  0  0  0  3  0  0  0  0  0  0
  -23.6170  -29.8330   20.2230 C   0  0  0  0  0  2  0  0  0  0  0  0
  -24.6690  -31.1060   22.1440 N   0  0  0  0  0  0  0  0  0  0  0  0
  -23.5190  -32.1950   23.7740 O   0  0  0  0  0  0  0  0  0  0  0  0
  -22.7380  -29.5010   22.5650 C   0  0  0  0  0  0  0  0  0  0  0  0
  -21.4120  -29.3250   22.4400 N   0  0  0  0  0  0  0  0  0  0  0  0
  -23.4170  -28.8750   23.3840 O   0  0  0  0  0  0  0  0  0  0  0  0
  -20.9250  -29.8810   21.7510 H   0  0  0  0  0  0  0  0  0  0  0  0
  -18.0340  -28.1350   22.9440 C   0  0  0  0  0  0  0  0  0  0  0  0
  -20.5930  -28.3900   23.2110 C   0  0  0  0  0  3  0  0  0  0  0  0
  -20.6910  -26.9580   22.6360 C   0  0  0  0  0  2  0  0  0  0  0  0
  -19.5880  -26.6370   21.6220 C   0  0  0  0  0  2  0  0  0  0  0  0
  -18.2070  -26.7850   22.2670 C   0  0  0  0  0  2  0  0  0  0  0  0
  -19.1540  -28.8950   23.3720 C   0  0  0  0  0  0  0  0  0  0  0  0
  -18.9370  -30.1580   23.9650 C   0  0  0  0  0  3  0  0  0  0  0  0
  -17.6330  -30.6610   24.1310 C   0  0  0  0  0  3  0  0  0  0  0  0
  -16.5270  -29.8980   23.7190 C   0  0  0  0  0  3  0  0  0  0  0  0
  -16.7280  -28.6360   23.1300 C   0  0  0  0  0  3  0  0  0  0  0  0
  -25.8850  -32.5520   23.8640 C   0  0  0  0  0  3  0  0  0  0  0  0
  -26.4010  -31.7840   25.1430 C   0  0  1  0  0  0  0  0  0  0  0  0
  -25.3060  -31.5470   26.2100 C   0  0  0  0  0  1  0  0  0  0  0  0
  -26.9840  -30.4060   24.7550 C   0  0  0  0  0  1  0  0  0  0  0  0
  -27.5500  -32.5790   25.8050 C   0  0  0  0  0  1  0  0  0  0  0  0
  -25.5720  -33.9510   24.1940 N   0  0  0  0  0  0  0  0  0  0  0  0
  -25.9030  -35.0050   23.4370 C   0  0  0  0  0  0  0  0  0  0  0  0
  -26.5730  -34.9030   22.4050 O   0  0  0  0  0  0  0  0  0  0  0  0
  -24.9780  -34.1030   24.9960 H   0  0  0  0  0  0  0  0  0  0  0  0
  -24.1760  -36.7990   23.0840 C   0  0  0  0  0  1  0  0  0  0  0  0
  -25.4160  -36.3930   23.8970 C   0  0  0  0  0  3  0  0  0  0  0  0
  -27.5480  -37.2780   24.7340 C   0  0  0  0  0  1  0  0  0  0  0  0
  -26.4480  -37.4460   23.7860 N   0  0  0  0  0  0  0  0  0  0  0  0
  -26.0420  -38.3660   23.9330 H   0  0  0  0  0  0  0  0  0  0  0  0
  2  5  1  0
  3  2  1  0
  3  6  1  0
  5 17  1  0
  5  4  1  0
  6  8  1  6
  6  1  1  0
  6  4  1  0
  7  2  2  0
  9 17  1  0
 10 15  1  0
 11 12  1  0
 11 10  1  0
 13 12  1  0
 13 22  1  0
 13 14  1  0
 15  9  1  0
 15 14  1  0
 16  9  2  0
 17 18  1  0
 19 20  2  0
 20 39  1  0
 21 20  1  0
 21 24  1  0
 22 19  1  0
 22 23  1  0
 23 21  2  0
 24 25  1  0
 25 26  2  0
 27 30  1  0
 27 26  1  0
 28 27  2  0
 29 28  1  0
 29 24  2  0
 30 31  1  0
 31 32  1  0
 32 33  2  0
 34 33  1  0
 34 38  1  0
 35 34  2  0
 36 31  2  0
 36 35  1  0
 37 36  1  0
 39 40  1  0
 40 43  1  0
 40 42  1  0
 41 39  2  0
 44 45  1  0
 44 19  1  0
 46 44  1  0
 47 48  1  0
 47  1  2  0
 49 50  1  0
 49 48  2  0
 51 62  2  0
 52 50  1  0
 52 57  1  0
 53 61  1  0
 53 63  1  0
 54 60  1  0
 54 56  1  0
 55 61  1  0
 56 55  1  0
 57 56  2  0
 58 52  2  0
 59 58  1  0
 59 54  2  0
 60 53  1  0
 61 51  1  0
 63 65  2  0
 64 63  1  0
 66 64  1  0
 67 76  2  0
 67 72  1  0
 68 64  1  0
 68 72  1  0
 69 68  1  0
 70 71  1  0
 70 69  1  0
 71 67  1  0
 72 73  2  0
 73 74  1  0
 75 74  2  0
 76 75  1  0
 77 51  1  0
 77 82  1  0
 77 78  1  0
 78 81  1  1
 78 79  1  0
 80 78  1  0
 82 85  1  0
 83 87  1  0
 83 82  1  0
 84 83  2  0
 87 86  1  0
 89 87  1  0
 89 90  1  0
 89 88  1  0
M  ISO  4   9 100  17 100  49 101  50 101
M  END
>  <TORSDO>  (73) 
F 20

>  <SCORE>  (73) 
-13.400

>  <name>  (73) 
72

>  <ligand_id>  (73) 
72

>  <original_smiles>  (73) 
[H]c1c([H])c([H])c2c(c1[H])C([H])([H])C([H])([H])C([H])([H])C2([H])N([H])C(=O)C1([H])N(C(=O)C([H])(N([H])C(=O)C([H])(N([H])C([H])([H])[H])C([H])([H])[H])C(C([H])([H])[H])(C([H])([H])[H])C([H])([H])[H])C([H])([H])c2c([H])c(OC([H])([H])C([H])([H])C([H])([H])C([H])([H])[N+]3([H])C([H])([H])C(=O)C([H])(N([H])C(=O)N4C([H])([H])C([H])([H])C([H])([H])C([H])(n5nc(-c6c([H])c([H])c(Oc7c([H])c([H])c(F)c([H])c7F)c([H])c6[H])c(C(=O)N([H])[H])c5N([H])[H])C4([H])[H])C3([H])[H])c([H])c([H])c2C1([H])[H]

>  <smiles>  (73) 
[H]c1c([H])c([H])c2c(c1[H])C([H])([H])C([H])([H])C([H])([H])C2([H])N([H])C(=O)C1([H])N(C(=O)C([H])(N([H])C(=O)C([H])(N([H])C([H])([H])[H])C([H])([H])[H])C(C([H])([H])[H])(C([H])([H])[H])C([H])([H])[H])C([H])([H])c2c([H])c(OC([H])([H])C([H])([H])C([H])([H])C([H])([H])[N+]3([H])C([H])([H])C(=O)C([H])(N([H])C(=O)N4C([H])([H])C([H])([H])C([H])([H])C([H])(n5nc(-c6c([H])c([H])c(Oc7c([H])c([H])c(F)c([H])c7F)c([H])c6[H])c(C(=O)N([H])[H])c5N([H])[H])C4([H])[H])C3([H])[H])c([H])c([H])c2C1([H])[H]

$$$$
73:0:0
     RDKit          3D

 94102  0  0  1  0  0  0  0  0999 V2000
  -27.6350  -20.0420   18.6520 C   0  0  0  0  0  2  0  0  0  0  0  0
  -29.1330  -20.1410   18.3840 C   0  0  0  0  0  2  0  0  0  0  0  0
  -27.3260  -21.3270   19.4440 C   0  0  0  0  0  3  0  0  0  0  0  0
  -29.7020  -20.6630   19.7210 C   0  0  0  0  0  3  0  0  0  0  0  0
  -28.6820  -21.8210   20.0330 C   0  0  0  0  0  3  0  0  0  0  0  0
  -26.2460  -21.1460   20.5240 C   0  0  0  0  0  1  0  0  0  0  0  0
  -29.0760  -23.1220   19.4030 N   0  0  0  0  0  4  0  0  0  0  0  0
  -28.9290  -23.0480   18.4100 H   0  0  0  0  0  0  0  0  0  0  0  0
  -30.0670  -23.2410   19.5470 H   0  0  0  0  0  0  0  0  0  0  0  0
  -28.4000  -24.3680   19.8940 C   0  0  0  0  0  2  0  0  0  0  0  0
  -28.7730  -25.6190   19.0350 C   0  0  0  0  0  2  0  0  0  0  0  0
  -28.6240  -26.9090   19.6640 O   0  0  0  0  0  0  0  0  0  0  0  0
  -24.6630  -31.6850   23.1280 C   0  0  0  0  0  0  0  0  0  0  0  0
  -27.4130  -27.5820   19.6740 C   0  0  0  0  0  0  0  0  0  0  0  0
  -23.4850  -30.4000   21.3760 C   0  0  0  0  0  3  0  0  0  0  0  0
  -24.9740  -29.0290   19.8220 C   0  0  0  0  0  0  0  0  0  0  0  0
  -26.0020  -30.8420   21.1990 C   0  0  0  0  0  2  0  0  0  0  0  0
  -26.1210  -29.5330   20.4400 C   0  0  0  0  0  0  0  0  0  0  0  0
  -27.3420  -28.8190   20.3610 C   0  0  0  0  0  3  0  0  0  0  0  0
  -26.2400  -27.0880   19.0560 C   0  0  0  0  0  3  0  0  0  0  0  0
  -25.0290  -27.8050   19.1300 C   0  0  0  0  0  3  0  0  0  0  0  0
  -23.7130  -29.8590   19.9420 C   0  0  0  0  0  2  0  0  0  0  0  0
  -24.7370  -30.9840   21.9610 N   0  0  0  0  0  0  0  0  0  0  0  0
  -23.5780  -31.8780   23.6950 O   0  0  0  0  0  0  0  0  0  0  0  0
  -22.8740  -29.2760   22.2460 C   0  0  0  0  0  0  0  0  0  0  0  0
  -21.5490  -29.0790   22.1330 N   0  0  0  0  0  0  0  0  0  0  0  0
  -23.5870  -28.5910   22.9830 O   0  0  0  0  0  0  0  0  0  0  0  0
  -21.0330  -29.6910   21.5190 H   0  0  0  0  0  0  0  0  0  0  0  0
  -18.2160  -27.7700   22.5890 C   0  0  0  0  0  0  0  0  0  0  0  0
  -20.7720  -28.0590   22.8360 C   0  0  0  0  0  3  0  0  0  0  0  0
  -20.8900  -26.6870   22.1340 C   0  0  0  0  0  2  0  0  0  0  0  0
  -19.7750  -26.4270   21.1160 C   0  0  0  0  0  2  0  0  0  0  0  0
  -18.4030  -26.4880   21.7950 C   0  0  0  0  0  2  0  0  0  0  0  0
  -19.3260  -28.5140   23.0670 C   0  0  0  0  0  0  0  0  0  0  0  0
  -19.0930  -29.7130   23.7730 C   0  0  0  0  0  3  0  0  0  0  0  0
  -17.7830  -30.1710   24.0050 C   0  0  0  0  0  3  0  0  0  0  0  0
  -16.6850  -29.4230   23.5410 C   0  0  0  0  0  3  0  0  0  0  0  0
  -16.9030  -28.2250   22.8390 C   0  0  0  0  0  3  0  0  0  0  0  0
  -25.9300  -32.3040   23.7920 C   0  0  0  0  0  3  0  0  0  0  0  0
  -25.5950  -33.6800   24.1790 N   0  0  0  0  0  0  0  0  0  0  0  0
  -25.9100  -34.7700   23.4650 C   0  0  0  0  0  0  0  0  0  0  0  0
  -26.5790  -34.7210   22.4300 O   0  0  0  0  0  0  0  0  0  0  0  0
  -24.9630  -33.7830   24.9610 H   0  0  0  0  0  0  0  0  0  0  0  0
  -24.1410  -36.5430   23.1960 C   0  0  0  0  0  1  0  0  0  0  0  0
  -25.3990  -36.1300   23.9750 C   0  0  0  0  0  3  0  0  0  0  0  0
  -27.5240  -37.0340   24.8140 C   0  0  0  0  0  1  0  0  0  0  0  0
  -26.4100  -37.2060   23.8860 N   0  0  0  0  0  0  0  0  0  0  0  0
  -25.9870  -38.1130   24.0640 H   0  0  0  0  0  0  0  0  0  0  0  0
  -26.4470  -31.4750   25.0330 C   0  0  1  0  0  0  0  0  0  0  0  0
  -25.3460  -31.1610   26.0750 C   0  0  0  0  0  1  0  0  0  0  0  0
  -27.0510  -30.1250   24.5800 C   0  0  0  0  0  1  0  0  0  0  0  0
  -27.5920  -32.2430   25.7340 C   0  0  0  0  0  1  0  0  0  0  0  0
  -30.5220  -19.9970   22.1160 C   0  0  0  0  0  1  0  0  0  0  0  0
  -29.8150  -19.5160   20.8140 C   0  0  0  0  0  3  0  0  0  0  0  0
  -30.4450  -18.2030   20.2100 C   0  0  0  0  0  2  0  0  0  0  0  0
  -30.9430  -17.0660   21.1510 C   0  0  0  0  0  2  0  0  0  0  0  0
  -31.2250  -14.7130   20.1720 C   0  0  0  0  0  0  0  0  0  0  0  0
  -30.9050  -12.4940   19.1110 C   0  0  0  0  0  2  0  0  0  0  0  0
  -29.9330  -12.6290   17.9200 C   0  0  0  0  0  2  0  0  0  0  0  0
  -28.4690  -12.5210   18.3910 C   0  0  0  0  0  2  0  0  0  0  0  0
  -28.1640  -13.4340   19.6060 C   0  0  0  0  0  3  0  0  0  0  0  0
  -29.2390  -13.2570   20.7010 C   0  0  0  0  0  2  0  0  0  0  0  0
  -30.5510  -13.5330   20.0890 N   0  0  0  0  0  0  0  0  0  0  0  0
  -32.3400  -14.8910   19.6770 O   0  0  0  0  0  0  0  0  0  0  0  0
  -30.5240  -15.7110   20.7460 N   0  0  0  0  0  0  0  0  0  0  0  0
  -29.5840  -15.4540   20.9990 H   0  0  0  0  0  0  0  0  0  0  0  0
  -25.8270  -14.1220   20.4360 C   0  0  0  0  0  0  0  0  0  0  0  0
  -24.7420  -13.3840   20.8180 C   0  0  0  0  0  0  0  0  0  0  0  0
  -25.1370  -12.0150   20.7150 C   0  0  0  0  0  0  0  0  0  0  0  0
  -26.8200  -13.2060   20.1260 N   0  0  0  0  0  0  0  0  0  0  0  0
  -26.4110  -11.9310   20.3510 N   0  0  0  0  0  0  0  0  0  0  0  0
  -24.3630  -10.7810   20.8820 C   0  0  0  0  0  0  0  0  0  0  0  0
  -24.7480   -9.7850   21.8070 C   0  0  0  0  0  3  0  0  0  0  0  0
  -23.9750   -8.6140   21.9600 C   0  0  0  0  0  3  0  0  0  0  0  0
  -22.8040   -8.4320   21.1880 C   0  0  0  0  0  0  0  0  0  0  0  0
  -22.4390   -9.4160   20.2510 C   0  0  0  0  0  3  0  0  0  0  0  0
  -23.2120  -10.5770   20.0960 C   0  0  0  0  0  3  0  0  0  0  0  0
  -22.0060   -7.3150   21.2520 O   0  0  0  0  0  0  0  0  0  0  0  0
  -21.8510   -6.6060   22.4170 C   0  0  0  0  0  0  0  0  0  0  0  0
  -21.3400   -7.2040   23.5890 C   0  0  0  0  0  3  0  0  0  0  0  0
  -21.1320   -6.4230   24.7440 C   0  0  0  0  0  3  0  0  0  0  0  0
  -21.4240   -5.0470   24.7240 C   0  0  0  0  0  0  0  0  0  0  0  0
  -21.9260   -4.4480   23.5560 C   0  0  0  0  0  3  0  0  0  0  0  0
  -22.1360   -5.2260   22.4030 C   0  0  0  0  0  0  0  0  0  0  0  0
  -22.6000   -4.6410   21.2730 F   0  0  0  0  0  0  0  0  0  0  0  0
  -21.2160   -4.2930   25.8310 F   0  0  0  0  0  0  0  0  0  0  0  0
  -23.3800  -13.9090   21.1710 C   0  0  0  0  0  0  0  0  0  0  0  0
  -22.6680  -13.2200   22.0530 N   0  0  0  0  0  0  0  0  0  0  0  0
  -22.9600  -14.9670   20.6980 O   0  0  0  0  0  0  0  0  0  0  0  0
  -23.0240  -12.3610   22.4490 H   0  0  0  0  0  0  0  0  0  0  0  0
  -21.7570  -13.5500   22.3360 H   0  0  0  0  0  0  0  0  0  0  0  0
  -26.0440  -15.4910   20.3060 N   0  0  0  0  0  0  0  0  0  0  0  0
  -25.3010  -16.1620   20.4650 H   0  0  0  0  0  0  0  0  0  0  0  0
  -26.8790  -15.9130   19.9220 H   0  0  0  0  0  0  0  0  0  0  0  0
  1  3  1  0
  2  1  1  0
  2  4  1  0
  3  5  1  0
  3  6  1  0
  4  5  1  0
  4 54  1  0
  5  7  1  0
  7  9  1  0
  7 10  1  0
  8  7  1  0
 11 12  1  0
 11 10  1  0
 12 14  1  0
 13 24  2  0
 14 19  1  0
 15 23  1  0
 15 25  1  0
 16 22  1  0
 16 18  1  0
 17 23  1  0
 18 17  1  0
 19 18  2  0
 20 21  1  0
 20 14  2  0
 21 16  2  0
 22 15  1  0
 23 13  1  0
 25 27  2  0
 26 25  1  0
 28 26  1  0
 29 38  2  0
 29 34  1  0
 30 26  1  0
 30 34  1  0
 31 30  1  0
 32 33  1  0
 32 31  1  0
 33 29  1  0
 34 35  2  0
 35 36  1  0
 37 36  2  0
 38 37  1  0
 39 13  1  0
 39 40  1  0
 39 49  1  0
 40 43  1  0
 41 45  1  0
 41 40  1  0
 42 41  2  0
 45 44  1  0
 47 45  1  0
 47 48  1  0
 47 46  1  0
 49 52  1  1
 49 50  1  0
 51 49  1  0
 54 53  1  0
 55 54  1  0
 55 56  1  0
 57 65  1  0
 58 63  1  0
 59 60  1  0
 59 58  1  0
 61 60  1  0
 61 70  1  0
 61 62  1  0
 63 57  1  0
 63 62  1  0
 64 57  2  0
 65 66  1  0
 65 56  1  0
 67 68  2  0
 68 87  1  0
 69 68  1  0
 69 72  1  0
 70 71  1  0
 70 67  1  0
 71 69  2  0
 72 73  1  0
 73 74  2  0
 75 78  1  0
 75 74  1  0
 76 75  2  0
 77 76  1  0
 77 72  2  0
 78 79  1  0
 79 80  1  0
 80 81  2  0
 82 81  1  0
 82 86  1  0
 83 82  2  0
 84 79  2  0
 84 83  1  0
 85 84  1  0
 87 88  1  0
 88 91  1  0
 88 90  1  0
 89 87  2  0
 92 67  1  0
 92 93  1  0
 94 92  1  0
M  ISO  4  11 101  12 101  57 100  65 100
M  END
>  <TORSDO>  (74) 
F 22

>  <SCORE>  (74) 
-10.471

>  <name>  (74) 
73

>  <ligand_id>  (74) 
73

>  <original_smiles>  (74) 
[H]c1c([H])c([H])c2c(c1[H])C([H])([H])C([H])([H])C([H])([H])C2([H])N([H])C(=O)C1([H])N(C(=O)C([H])(N([H])C(=O)C([H])(N([H])C([H])([H])[H])C([H])([H])[H])C(C([H])([H])[H])(C([H])([H])[H])C([H])([H])[H])C([H])([H])c2c([H])c(OC([H])([H])C([H])([H])[N+]([H])([H])C3([H])C([H])(C([H])([H])[H])C([H])([H])C([H])([H])C3([H])C([H])(C([H])([H])[H])C([H])([H])C([H])([H])N([H])C(=O)N3C([H])([H])C([H])([H])C([H])([H])C([H])(n4nc(-c5c([H])c([H])c(Oc6c([H])c([H])c(F)c([H])c6F)c([H])c5[H])c(C(=O)N([H])[H])c4N([H])[H])C3([H])[H])c([H])c([H])c2C1([H])[H]

>  <smiles>  (74) 
[H]c1c([H])c([H])c2c(c1[H])C([H])([H])C([H])([H])C([H])([H])C2([H])N([H])C(=O)C1([H])N(C(=O)C([H])(N([H])C(=O)C([H])(N([H])C([H])([H])[H])C([H])([H])[H])C(C([H])([H])[H])(C([H])([H])[H])C([H])([H])[H])C([H])([H])c2c([H])c(OC([H])([H])C([H])([H])[N+]([H])([H])C3([H])C([H])(C([H])([H])[H])C([H])([H])C([H])([H])C3([H])C([H])(C([H])([H])[H])C([H])([H])C([H])([H])N([H])C(=O)N3C([H])([H])C([H])([H])C([H])([H])C([H])(n4nc(-c5c([H])c([H])c(Oc6c([H])c([H])c(F)c([H])c6F)c([H])c5[H])c(C(=O)N([H])[H])c4N([H])[H])C3([H])[H])c([H])c([H])c2C1([H])[H]

$$$$
74:0:0
     RDKit          3D

 90 99  0  0  1  0  0  0  0  0999 V2000
  -29.1380  -22.6440   20.9380 C   0  0  0  0  0  2  0  0  0  0  0  0
  -30.5740  -20.7060   20.0740 C   0  0  0  0  0  2  0  0  0  0  0  0
  -29.4700  -19.7830   20.4750 C   0  0  0  0  0  3  0  0  0  0  0  0
  -29.1830  -21.3180   20.0630 C   0  0  0  0  0  3  0  0  0  0  0  0
  -28.2690  -17.5040   19.6650 C   0  0  0  0  0  2  0  0  0  0  0  0
  -29.3170  -18.5310   19.5270 C   0  0  0  0  0  3  0  0  0  0  0  0
  -29.7040  -16.9650   19.5590 C   0  0  0  0  0  3  0  0  0  0  0  0
  -30.5740  -14.7040   20.3060 C   0  0  0  0  0  0  0  0  0  0  0  0
  -30.3450  -12.4390   19.3180 C   0  0  0  0  0  2  0  0  0  0  0  0
  -29.3980  -12.5600   18.1020 C   0  0  0  0  0  2  0  0  0  0  0  0
  -27.9300  -12.4040   18.5430 C   0  0  0  0  0  2  0  0  0  0  0  0
  -27.5830  -13.2740   19.7810 C   0  0  0  0  0  3  0  0  0  0  0  0
  -28.6530  -13.1540   20.8920 C   0  0  0  0  0  2  0  0  0  0  0  0
  -29.9540  -13.4790   20.2960 N   0  0  0  0  0  0  0  0  0  0  0  0
  -31.7300  -14.8250   19.8920 O   0  0  0  0  0  0  0  0  0  0  0  0
  -29.7790  -15.8160   20.4940 N   0  0  0  0  0  0  0  0  0  0  0  0
  -28.9090  -15.6080   20.9590 H   0  0  0  0  0  0  0  0  0  0  0  0
  -25.2030  -13.8710   20.5320 C   0  0  0  0  0  0  0  0  0  0  0  0
  -24.1380  -13.1000   20.9120 C   0  0  0  0  0  0  0  0  0  0  0  0
  -24.5970  -11.7480   20.8720 C   0  0  0  0  0  0  0  0  0  0  0  0
  -26.2430  -12.9890   20.2830 N   0  0  0  0  0  0  0  0  0  0  0  0
  -25.8830  -11.7070   20.5470 N   0  0  0  0  0  0  0  0  0  0  0  0
  -23.8680  -10.4880   21.0680 C   0  0  0  0  0  0  0  0  0  0  0  0
  -24.3280   -9.5010   21.9680 C   0  0  0  0  0  3  0  0  0  0  0  0
  -23.5990   -8.3060   22.1530 C   0  0  0  0  0  3  0  0  0  0  0  0
  -22.3980   -8.0900   21.4360 C   0  0  0  0  0  0  0  0  0  0  0  0
  -21.9580   -9.0630   20.5230 C   0  0  0  0  0  3  0  0  0  0  0  0
  -22.6870  -10.2510   20.3370 C   0  0  0  0  0  3  0  0  0  0  0  0
  -21.6380   -6.9480   21.5320 O   0  0  0  0  0  0  0  0  0  0  0  0
  -21.6460   -6.1710   22.6620 C   0  0  0  0  0  0  0  0  0  0  0  0
  -21.3150   -6.6970   23.9300 C   0  0  0  0  0  3  0  0  0  0  0  0
  -21.2670   -5.8480   25.0540 C   0  0  0  0  0  3  0  0  0  0  0  0
  -21.5410   -4.4750   24.9110 C   0  0  0  0  0  0  0  0  0  0  0  0
  -21.8650   -3.9480   23.6480 C   0  0  0  0  0  3  0  0  0  0  0  0
  -21.9140   -4.7950   22.5270 C   0  0  0  0  0  0  0  0  0  0  0  0
  -22.2060   -4.2790   21.3080 F   0  0  0  0  0  0  0  0  0  0  0  0
  -21.4880   -3.6570   25.9890 F   0  0  0  0  0  0  0  0  0  0  0  0
  -22.7470  -13.5820   21.2030 C   0  0  0  0  0  0  0  0  0  0  0  0
  -22.0290  -12.8870   22.0790 N   0  0  0  0  0  0  0  0  0  0  0  0
  -22.3050  -14.6080   20.6900 O   0  0  0  0  0  0  0  0  0  0  0  0
  -22.3990  -12.0560   22.5160 H   0  0  0  0  0  0  0  0  0  0  0  0
  -21.0950  -13.1920   22.3190 H   0  0  0  0  0  0  0  0  0  0  0  0
  -25.3670  -15.2430   20.3560 N   0  0  0  0  0  0  0  0  0  0  0  0
  -24.5970  -15.8930   20.4680 H   0  0  0  0  0  0  0  0  0  0  0  0
  -26.2040  -15.6780   19.9930 H   0  0  0  0  0  0  0  0  0  0  0  0
  -26.7110  -23.2430   20.3500 C   0  0  0  0  0  1  0  0  0  0  0  0
  -27.8860  -24.4720   22.1610 C   0  0  0  0  0  1  0  0  0  0  0  0
  -28.0670  -23.8500   20.7600 C   0  0  1  0  0  0  0  0  0  0  0  0
  -28.4350  -25.0830   19.7860 C   0  0  0  0  0  2  0  0  0  0  0  0
  -28.3620  -26.5080   20.2280 O   0  0  0  0  0  0  0  0  0  0  0  0
  -24.6250  -31.8870   23.2350 C   0  0  0  0  0  0  0  0  0  0  0  0
  -27.2150  -27.3180   20.1620 C   0  0  0  0  0  0  0  0  0  0  0  0
  -23.4080  -30.4840   21.6070 C   0  0  0  0  0  3  0  0  0  0  0  0
  -24.8450  -28.9270   20.1680 C   0  0  0  0  0  0  0  0  0  0  0  0
  -25.9430  -30.8040   21.3990 C   0  0  0  0  0  2  0  0  0  0  0  0
  -26.0160  -29.4220   20.7550 C   0  0  0  0  0  0  0  0  0  0  0  0
  -27.2000  -28.6260   20.7430 C   0  0  0  0  0  3  0  0  0  0  0  0
  -26.0210  -26.8740   19.5530 C   0  0  0  0  0  3  0  0  0  0  0  0
  -24.8500  -27.6610   19.5600 C   0  0  0  0  0  3  0  0  0  0  0  0
  -23.6090  -29.8030   20.2260 C   0  0  0  0  0  2  0  0  0  0  0  0
  -24.6780  -31.0770   22.1370 N   0  0  0  0  0  0  0  0  0  0  0  0
  -23.5470  -32.1630   23.7800 O   0  0  0  0  0  0  0  0  0  0  0  0
  -22.7530  -29.4690   22.5750 C   0  0  0  0  0  0  0  0  0  0  0  0
  -21.4270  -29.2880   22.4580 N   0  0  0  0  0  0  0  0  0  0  0  0
  -23.4390  -28.8480   23.3920 O   0  0  0  0  0  0  0  0  0  0  0  0
  -20.9330  -29.8410   21.7710 H   0  0  0  0  0  0  0  0  0  0  0  0
  -18.0600  -28.0740   22.9690 C   0  0  0  0  0  0  0  0  0  0  0  0
  -20.6160  -28.3520   23.2370 C   0  0  0  0  0  3  0  0  0  0  0  0
  -20.7280  -26.9180   22.6720 C   0  0  0  0  0  2  0  0  0  0  0  0
  -19.6280  -26.5810   21.6620 C   0  0  0  0  0  2  0  0  0  0  0  0
  -18.2450  -26.7220   22.3040 C   0  0  0  0  0  2  0  0  0  0  0  0
  -19.1730  -28.8470   23.3940 C   0  0  0  0  0  0  0  0  0  0  0  0
  -18.9450  -30.1130   23.9760 C   0  0  0  0  0  3  0  0  0  0  0  0
  -17.6370  -30.6060   24.1390 C   0  0  0  0  0  3  0  0  0  0  0  0
  -16.5380  -29.8300   23.7300 C   0  0  0  0  0  3  0  0  0  0  0  0
  -16.7500  -28.5660   23.1510 C   0  0  0  0  0  3  0  0  0  0  0  0
  -25.9120  -32.5200   23.8480 C   0  0  0  0  0  3  0  0  0  0  0  0
  -26.4440  -31.7430   25.1150 C   0  0  1  0  0  0  0  0  0  0  0  0
  -25.3620  -31.5020   26.1930 C   0  0  0  0  0  1  0  0  0  0  0  0
  -27.0220  -30.3660   24.7110 C   0  0  0  0  0  1  0  0  0  0  0  0
  -27.6050  -32.5320   25.7650 C   0  0  0  0  0  1  0  0  0  0  0  0
  -25.6040  -33.9160   24.1890 N   0  0  0  0  0  0  0  0  0  0  0  0
  -25.9210  -34.9740   23.4310 C   0  0  0  0  0  0  0  0  0  0  0  0
  -26.5740  -34.8790   22.3890 O   0  0  0  0  0  0  0  0  0  0  0  0
  -25.0220  -34.0660   25.0010 H   0  0  0  0  0  0  0  0  0  0  0  0
  -24.1750  -36.7580   23.1210 C   0  0  0  0  0  1  0  0  0  0  0  0
  -25.4360  -36.3590   23.9030 C   0  0  0  0  0  3  0  0  0  0  0  0
  -27.5860  -37.2490   24.6870 C   0  0  0  0  0  1  0  0  0  0  0  0
  -26.4610  -37.4170   23.7700 N   0  0  0  0  0  0  0  0  0  0  0  0
  -26.0560  -38.3350   23.9310 H   0  0  0  0  0  0  0  0  0  0  0  0
  3  2  1  0
  4  2  1  0
  4  3  1  0
  4  1  1  0
  6  7  1  0
  6  5  1  0
  6  3  1  0
  7  5  1  0
  7 16  1  0
  8 16  1  0
  9 14  1  0
 10 11  1  0
 10  9  1  0
 12 11  1  0
 12 21  1  0
 12 13  1  0
 14  8  1  0
 14 13  1  0
 15  8  2  0
 16 17  1  0
 18 19  2  0
 19 38  1  0
 20 19  1  0
 20 23  1  0
 21 18  1  0
 21 22  1  0
 22 20  2  0
 23 24  1  0
 24 25  2  0
 26 29  1  0
 26 25  1  0
 27 26  2  0
 28 27  1  0
 28 23  2  0
 29 30  1  0
 30 31  1  0
 31 32  2  0
 33 32  1  0
 33 37  1  0
 34 33  2  0
 35 30  2  0
 35 34  1  0
 36 35  1  0
 38 39  1  0
 39 42  1  0
 39 41  1  0
 40 38  2  0
 43 44  1  0
 43 18  1  0
 45 43  1  0
 48 46  1  6
 48  1  1  0
 48 47  1  0
 49 50  1  0
 49 48  1  0
 51 62  2  0
 52 50  1  0
 52 57  1  0
 53 61  1  0
 53 63  1  0
 54 60  1  0
 54 56  1  0
 55 61  1  0
 56 55  1  0
 57 56  2  0
 58 59  1  0
 58 52  2  0
 59 54  2  0
 60 53  1  0
 61 51  1  0
 63 65  2  0
 64 63  1  0
 66 64  1  0
 67 76  2  0
 67 72  1  0
 68 64  1  0
 68 72  1  0
 69 68  1  0
 70 71  1  0
 70 69  1  0
 71 67  1  0
 72 73  2  0
 73 74  1  0
 75 74  2  0
 76 75  1  0
 77 51  1  0
 77 82  1  0
 77 78  1  0
 78 81  1  1
 78 79  1  0
 80 78  1  0
 82 85  1  0
 83 87  1  0
 83 82  1  0
 84 83  2  0
 87 86  1  0
 89 87  1  0
 89 90  1  0
 89 88  1  0
M  ISO  4   8 100  16 100  49 101  50 101
M  END
>  <TORSDO>  (75) 
F 20

>  <SCORE>  (75) 
-13.810

>  <name>  (75) 
74

>  <ligand_id>  (75) 
74

>  <original_smiles>  (75) 
[H]c1c([H])c([H])c2c(c1[H])C([H])([H])C([H])([H])C([H])([H])C2([H])N([H])C(=O)C1([H])N(C(=O)C([H])(N([H])C(=O)C([H])(N([H])C([H])([H])[H])C([H])([H])[H])C(C([H])([H])[H])(C([H])([H])[H])C([H])([H])[H])C([H])([H])c2c([H])c(OC([H])([H])C(C([H])([H])[H])(C([H])([H])[H])C([H])([H])C3([H])C([H])([H])C3([H])C3([H])C([H])([H])C3([H])N([H])C(=O)N3C([H])([H])C([H])([H])C([H])([H])C([H])(n4nc(-c5c([H])c([H])c(Oc6c([H])c([H])c(F)c([H])c6F)c([H])c5[H])c(C(=O)N([H])[H])c4N([H])[H])C3([H])[H])c([H])c([H])c2C1([H])[H]

>  <smiles>  (75) 
[H]c1c([H])c([H])c2c(c1[H])C([H])([H])C([H])([H])C([H])([H])C2([H])N([H])C(=O)C1([H])N(C(=O)C([H])(N([H])C(=O)C([H])(N([H])C([H])([H])[H])C([H])([H])[H])C(C([H])([H])[H])(C([H])([H])[H])C([H])([H])[H])C([H])([H])c2c([H])c(OC([H])([H])C(C([H])([H])[H])(C([H])([H])[H])C([H])([H])C3([H])C([H])([H])C3([H])C3([H])C([H])([H])C3([H])N([H])C(=O)N3C([H])([H])C([H])([H])C([H])([H])C([H])(n4nc(-c5c([H])c([H])c(Oc6c([H])c([H])c(F)c([H])c6F)c([H])c5[H])c(C(=O)N([H])[H])c4N([H])[H])C3([H])[H])c([H])c([H])c2C1([H])[H]

$$$$
75:0:0
     RDKit          3D

 93102  0  0  1  0  0  0  0  0999 V2000
  -27.9090  -18.8510   19.4310 C   0  0  0  0  0  2  0  0  0  0  0  0
  -28.8670  -19.9590   19.8490 C   0  0  0  0  0  3  0  0  0  0  0  0
  -29.3710  -18.5490   19.3400 C   0  0  0  0  0  3  0  0  0  0  0  0
  -27.2730  -21.8260   18.9690 C   0  0  0  0  0  2  0  0  0  0  0  0
  -28.7000  -21.3210   19.0790 C   0  0  0  0  0  3  0  0  0  0  0  0
  -28.2490  -22.7070   19.6960 C   0  0  0  0  0  3  0  0  0  0  0  0
  -28.4830  -24.1590   19.1310 C   0  0  0  0  0  3  0  0  0  0  0  0
  -27.6150  -25.3280   19.7670 C   0  0  0  0  0  3  0  0  0  0  0  0
  -27.7560  -26.7150   19.2610 O   0  0  0  0  0  0  0  0  0  0  0  0
  -24.4610  -31.8430   23.1310 C   0  0  0  0  0  0  0  0  0  0  0  0
  -26.6520  -27.5610   19.4280 C   0  0  0  0  0  0  0  0  0  0  0  0
  -23.0560  -30.5640   21.5530 C   0  0  0  0  0  3  0  0  0  0  0  0
  -24.3100  -29.1430   19.8380 C   0  0  0  0  0  0  0  0  0  0  0  0
  -25.5490  -30.9150   21.0780 C   0  0  0  0  0  2  0  0  0  0  0  0
  -25.5450  -29.5920   20.3260 C   0  0  0  0  0  0  0  0  0  0  0  0
  -26.7200  -28.8090   20.1160 C   0  0  0  0  0  3  0  0  0  0  0  0
  -25.3990  -27.1780   18.8990 C   0  0  0  0  0  3  0  0  0  0  0  0
  -24.2390  -27.9420   19.1140 C   0  0  0  0  0  3  0  0  0  0  0  0
  -23.0910  -29.9990   20.1060 C   0  0  0  0  0  2  0  0  0  0  0  0
  -24.3810  -31.1210   21.9750 N   0  0  0  0  0  0  0  0  0  0  0  0
  -23.4560  -32.0690   23.8200 O   0  0  0  0  0  0  0  0  0  0  0  0
  -22.5210  -29.4690   22.5080 C   0  0  0  0  0  0  0  0  0  0  0  0
  -21.2210  -29.1470   22.3890 N   0  0  0  0  0  0  0  0  0  0  0  0
  -23.2730  -28.9160   23.3160 O   0  0  0  0  0  0  0  0  0  0  0  0
  -20.6700  -29.6580   21.7140 H   0  0  0  0  0  0  0  0  0  0  0  0
  -18.0690  -27.4060   22.7290 C   0  0  0  0  0  0  0  0  0  0  0  0
  -20.5190  -28.1120   23.1510 C   0  0  0  0  0  3  0  0  0  0  0  0
  -20.9030  -26.6950   22.6630 C   0  0  0  0  0  2  0  0  0  0  0  0
  -19.9500  -26.1440   21.5990 C   0  0  0  0  0  2  0  0  0  0  0  0
  -18.5190  -26.0780   22.1410 C   0  0  0  0  0  2  0  0  0  0  0  0
  -19.0090  -28.3670   23.1890 C   0  0  0  0  0  0  0  0  0  0  0  0
  -18.5370  -29.5990   23.6930 C   0  0  0  0  0  3  0  0  0  0  0  0
  -17.1590  -29.8740   23.7450 C   0  0  0  0  0  3  0  0  0  0  0  0
  -16.2320  -28.9150   23.3010 C   0  0  0  0  0  3  0  0  0  0  0  0
  -16.6870  -27.6830   22.7990 C   0  0  0  0  0  3  0  0  0  0  0  0
  -25.8160  -32.4330   23.6320 C   0  0  0  0  0  3  0  0  0  0  0  0
  -26.4630  -31.5980   24.8060 C   0  0  1  0  0  0  0  0  0  0  0  0
  -25.4910  -31.3170   25.9770 C   0  0  0  0  0  1  0  0  0  0  0  0
  -26.9800  -30.2360   24.2860 C   0  0  0  0  0  1  0  0  0  0  0  0
  -27.6890  -32.3520   25.3690 C   0  0  0  0  0  1  0  0  0  0  0  0
  -25.5630  -33.8160   24.0620 N   0  0  0  0  0  0  0  0  0  0  0  0
  -25.8220  -34.9030   23.3210 C   0  0  0  0  0  0  0  0  0  0  0  0
  -26.3750  -34.8440   22.2190 O   0  0  0  0  0  0  0  0  0  0  0  0
  -25.0700  -33.9350   24.9340 H   0  0  0  0  0  0  0  0  0  0  0  0
  -24.0960  -36.7280   23.2420 C   0  0  0  0  0  1  0  0  0  0  0  0
  -25.4090  -36.2720   23.8960 C   0  0  0  0  0  3  0  0  0  0  0  0
  -27.6270  -37.1000   24.5490 C   0  0  0  0  0  1  0  0  0  0  0  0
  -26.4400  -37.3190   23.7260 N   0  0  0  0  0  0  0  0  0  0  0  0
  -26.0640  -38.2360   23.9510 H   0  0  0  0  0  0  0  0  0  0  0  0
  -30.0000  -17.4830   20.3020 C   0  0  0  0  0  0  0  0  0  0  0  0
  -30.4440  -14.9490   19.5080 C   0  0  0  0  0  0  0  0  0  0  0  0
  -30.1420  -12.6740   18.5290 C   0  0  0  0  0  2  0  0  0  0  0  0
  -29.0450  -12.7140   17.4420 C   0  0  0  0  0  2  0  0  0  0  0  0
  -27.6540  -12.5030   18.0670 C   0  0  0  0  0  2  0  0  0  0  0  0
  -27.4170  -13.4120   19.3050 C   0  0  0  0  0  3  0  0  0  0  0  0
  -28.6170  -13.3550   20.2790 C   0  0  0  0  0  2  0  0  0  0  0  0
  -29.8300  -13.7190   19.5280 N   0  0  0  0  0  0  0  0  0  0  0  0
  -31.4810  -15.1140   18.8650 O   0  0  0  0  0  0  0  0  0  0  0  0
  -29.7820  -15.9880   20.1060 N   0  0  0  0  0  4  0  0  0  0  0  0
  -28.9280  -15.6680   20.5390 H   0  0  0  0  0  0  0  0  0  0  0  0
  -25.1670  -13.9590   20.4250 C   0  0  0  0  0  0  0  0  0  0  0  0
  -24.1590  -13.1640   20.8950 C   0  0  0  0  0  0  0  0  0  0  0  0
  -24.5920  -11.8180   20.6930 C   0  0  0  0  0  0  0  0  0  0  0  0
  -26.1530  -13.0980   19.9680 N   0  0  0  0  0  0  0  0  0  0  0  0
  -25.8190  -11.7990   20.1870 N   0  0  0  0  0  0  0  0  0  0  0  0
  -23.8860  -10.5460   20.9010 C   0  0  0  0  0  0  0  0  0  0  0  0
  -24.3650   -9.5740   21.8080 C   0  0  0  0  0  3  0  0  0  0  0  0
  -23.6560   -8.3680   22.0070 C   0  0  0  0  0  3  0  0  0  0  0  0
  -22.4570   -8.1260   21.2950 C   0  0  0  0  0  0  0  0  0  0  0  0
  -21.9950   -9.0860   20.3790 C   0  0  0  0  0  3  0  0  0  0  0  0
  -22.7040  -10.2830   20.1800 C   0  0  0  0  0  3  0  0  0  0  0  0
  -21.7190   -6.9720   21.4010 O   0  0  0  0  0  0  0  0  0  0  0  0
  -21.6190   -6.2870   22.5860 C   0  0  0  0  0  0  0  0  0  0  0  0
  -21.0580   -6.8740   23.7410 C   0  0  0  0  0  3  0  0  0  0  0  0
  -20.9110   -6.1120   24.9170 C   0  0  0  0  0  3  0  0  0  0  0  0
  -21.3150   -4.7640   24.9380 C   0  0  0  0  0  0  0  0  0  0  0  0
  -21.8730   -4.1780   23.7880 C   0  0  0  0  0  3  0  0  0  0  0  0
  -22.0210   -4.9370   22.6140 C   0  0  0  0  0  0  0  0  0  0  0  0
  -22.5370   -4.3610   21.5010 F   0  0  0  0  0  0  0  0  0  0  0  0
  -21.1700   -4.0300   26.0650 F   0  0  0  0  0  0  0  0  0  0  0  0
  -22.8260  -13.6250   21.4100 C   0  0  0  0  0  0  0  0  0  0  0  0
  -22.2450  -12.8910   22.3540 N   0  0  0  0  0  0  0  0  0  0  0  0
  -22.3130  -14.6690   21.0140 O   0  0  0  0  0  0  0  0  0  0  0  0
  -22.6730  -12.0430   22.6970 H   0  0  0  0  0  0  0  0  0  0  0  0
  -21.3600  -13.1850   22.7410 H   0  0  0  0  0  0  0  0  0  0  0  0
  -25.3190  -15.3400   20.3270 N   0  0  0  0  0  0  0  0  0  0  0  0
  -24.5820  -15.9790   20.6040 H   0  0  0  0  0  0  0  0  0  0  0  0
  -26.1100  -15.8060   19.9020 H   0  0  0  0  0  0  0  0  0  0  0  0
  -32.6120  -17.1700   20.2680 C   0  0  0  0  0  1  0  0  0  0  0  0
  -31.4060  -17.9680   20.7780 C   0  0  0  0  0  3  0  0  0  0  0  0
  -31.5110  -18.2300   22.2980 C   0  0  0  0  0  2  0  0  0  0  0  0
  -30.7840  -19.7510   24.2220 C   0  0  0  0  0  1  0  0  0  0  0  0
  -30.9730  -19.6160   22.7060 C   0  0  0  0  0  2  0  0  0  0  0  0
  2  1  1  0
  3  1  1  0
  3  2  1  0
  3 50  1  0
  4  6  1  0
  5  4  1  0
  5  6  1  0
  5  2  1  0
  6  7  1  0
  7  8  2  0
  9 11  1  0
  9  8  1  0
 10 21  2  0
 11 16  1  0
 12 20  1  0
 12 22  1  0
 13 19  1  0
 13 15  1  0
 14 20  1  0
 15 14  1  0
 16 15  2  0
 17 18  1  0
 17 11  2  0
 18 13  2  0
 19 12  1  0
 20 10  1  0
 22 24  2  0
 23 22  1  0
 25 23  1  0
 26 35  2  0
 26 31  1  0
 27 23  1  0
 27 31  1  0
 28 27  1  0
 29 30  1  0
 29 28  1  0
 30 26  1  0
 31 32  2  0
 32 33  1  0
 34 33  2  0
 35 34  1  0
 36 10  1  0
 36 41  1  0
 36 37  1  0
 37 40  1  1
 37 38  1  0
 39 37  1  0
 41 44  1  0
 42 46  1  0
 42 41  1  0
 43 42  2  0
 46 45  1  0
 48 46  1  0
 48 49  1  0
 48 47  1  0
 50 90  1  0
 51 57  1  0
 51 59  1  0
 52 57  1  0
 53 54  1  0
 53 52  1  0
 55 54  1  0
 55 64  1  0
 55 56  1  0
 57 56  1  0
 58 51  2  0
 59 50  2  0
 59 60  1  0
 61 62  2  0
 62 81  1  0
 63 62  1  0
 63 66  1  0
 64 65  1  0
 64 61  1  0
 65 63  2  0
 66 67  1  0
 67 68  2  0
 69 72  1  0
 69 68  1  0
 70 69  2  0
 71 70  1  0
 71 66  2  0
 72 73  1  0
 73 78  2  0
 73 74  1  0
 74 75  2  0
 75 76  1  0
 76 80  1  0
 77 76  2  0
 78 77  1  0
 79 78  1  0
 81 82  1  0
 82 84  1  0
 82 85  1  0
 83 81  2  0
 86 61  1  0
 86 87  1  0
 88 86  1  0
 90 89  1  0
 90 91  1  0
 91 93  1  0
 93 92  1  0
M  ISO  4   8 101   9 101  51 100  59 100
M  END
>  <TORSDO>  (76) 
F 23

>  <SCORE>  (76) 
-11.284

>  <name>  (76) 
75

>  <ligand_id>  (76) 
75

>  <original_smiles>  (76) 
[H]c1c([H])c([H])c2c(c1[H])C([H])([H])C([H])([H])C([H])([H])C2([H])N([H])C(=O)C1([H])N(C(=O)C([H])(N([H])C(=O)C([H])(N([H])C([H])([H])[H])C([H])([H])[H])C(C([H])([H])[H])(C([H])([H])[H])C([H])([H])[H])C([H])([H])c2c([H])c(OC([H])([H])C([H])([H])C3([H])C([H])([H])C3([H])C3([H])C([H])([H])C3([H])C([H])(N([H])C(=O)N3C([H])([H])C([H])([H])C([H])([H])C([H])(n4nc(-c5c([H])c([H])c(Oc6c([H])c([H])c(F)c([H])c6F)c([H])c5[H])c(C(=O)N([H])[H])c4N([H])[H])C3([H])[H])C([H])(C([H])([H])[H])C([H])([H])C([H])([H])C([H])([H])[H])c([H])c([H])c2C1([H])[H]

>  <smiles>  (76) 
[H]c1c([H])c([H])c2c(c1[H])C([H])([H])C([H])([H])C([H])([H])C2([H])N([H])C(=O)C1([H])N(C(=O)C([H])(N([H])C(=O)C([H])(N([H])C([H])([H])[H])C([H])([H])[H])C(C([H])([H])[H])(C([H])([H])[H])C([H])([H])[H])C([H])([H])c2c([H])c(OC([H])([H])C([H])([H])C3([H])C([H])([H])C3([H])C3([H])C([H])([H])C3([H])C([H])(N([H])C(=O)N3C([H])([H])C([H])([H])C([H])([H])C([H])(n4nc(-c5c([H])c([H])c(Oc6c([H])c([H])c(F)c([H])c6F)c([H])c5[H])c(C(=O)N([H])[H])c4N([H])[H])C3([H])[H])C([H])(C([H])([H])[H])C([H])([H])C([H])([H])C([H])([H])[H])c([H])c([H])c2C1([H])[H]

$$$$
76:0:0
     RDKit          3D

 92100  0  0  1  0  0  0  0  0999 V2000
  -30.9110  -22.8730   20.1720 C   0  0  0  0  0  2  0  0  0  0  0  0
  -30.8490  -24.3920   20.4180 C   0  0  0  0  0  2  0  0  0  0  0  0
  -30.0650  -22.2820   21.3110 C   0  0  0  0  0  3  0  0  0  0  0  0
  -29.4490  -24.6320   21.0260 C   0  0  0  0  0  3  0  0  0  0  0  0
  -29.0040  -23.2980   21.5350 N   0  0  0  0  0  4  0  0  0  0  0  0
  -28.7090  -23.3300   22.4970 H   0  0  0  0  0  0  0  0  0  0  0  0
  -28.2200  -22.9740   20.9910 H   0  0  0  0  0  0  0  0  0  0  0  0
  -29.4070  -20.8930   20.9820 C   0  0  0  0  0  0  0  0  0  0  0  0
  -28.1870  -20.7850   20.8250 O   0  0  0  0  0  0  0  0  0  0  0  0
  -30.3120  -19.6320   20.8190 C   0  0  0  0  0  2  0  0  0  0  0  0
  -29.6670  -18.2090   21.0220 C   0  0  0  0  0  2  0  0  0  0  0  0
  -30.6480  -17.0120   20.7310 C   0  0  0  0  0  2  0  0  0  0  0  0
  -30.7270  -14.5180   20.4620 C   0  0  0  0  0  0  0  0  0  0  0  0
  -30.3410  -12.3360   19.3630 C   0  0  0  0  0  2  0  0  0  0  0  0
  -29.4160  -12.5350   18.1410 C   0  0  0  0  0  2  0  0  0  0  0  0
  -27.9480  -12.3910   18.5750 C   0  0  0  0  0  2  0  0  0  0  0  0
  -27.6100  -13.2590   19.8160 C   0  0  0  0  0  3  0  0  0  0  0  0
  -28.6700  -13.0990   20.9360 C   0  0  0  0  0  2  0  0  0  0  0  0
  -29.9930  -13.3700   20.3590 N   0  0  0  0  0  0  0  0  0  0  0  0
  -31.8570  -14.6130   19.9860 O   0  0  0  0  0  0  0  0  0  0  0  0
  -30.1120  -15.6320   20.9310 N   0  0  0  0  0  0  0  0  0  0  0  0
  -29.2120  -15.5230   21.3700 H   0  0  0  0  0  0  0  0  0  0  0  0
  -25.2170  -13.8620   20.5150 C   0  0  0  0  0  0  0  0  0  0  0  0
  -24.1450  -13.0920   20.8830 C   0  0  0  0  0  0  0  0  0  0  0  0
  -24.6050  -11.7390   20.8680 C   0  0  0  0  0  0  0  0  0  0  0  0
  -26.2600  -12.9800   20.2970 N   0  0  0  0  0  0  0  0  0  0  0  0
  -25.8980  -11.6980   20.5710 N   0  0  0  0  0  0  0  0  0  0  0  0
  -23.8750  -10.4760   21.0600 C   0  0  0  0  0  0  0  0  0  0  0  0
  -24.3180   -9.5050   21.9860 C   0  0  0  0  0  3  0  0  0  0  0  0
  -23.5940   -8.3060   22.1660 C   0  0  0  0  0  3  0  0  0  0  0  0
  -22.4130   -8.0740   21.4190 C   0  0  0  0  0  0  0  0  0  0  0  0
  -21.9940   -9.0320   20.4790 C   0  0  0  0  0  3  0  0  0  0  0  0
  -22.7180  -10.2220   20.2970 C   0  0  0  0  0  3  0  0  0  0  0  0
  -21.6570   -6.9310   21.5100 O   0  0  0  0  0  0  0  0  0  0  0  0
  -21.6290   -6.1760   22.6550 C   0  0  0  0  0  0  0  0  0  0  0  0
  -21.2410   -6.7220   23.8990 C   0  0  0  0  0  3  0  0  0  0  0  0
  -21.1620   -5.8960   25.0380 C   0  0  0  0  0  3  0  0  0  0  0  0
  -21.4530   -4.5220   24.9330 C   0  0  0  0  0  0  0  0  0  0  0  0
  -21.8350   -3.9750   23.6960 C   0  0  0  0  0  3  0  0  0  0  0  0
  -21.9160   -4.7990   22.5590 C   0  0  0  0  0  0  0  0  0  0  0  0
  -22.2630   -4.2640   21.3630 F   0  0  0  0  0  0  0  0  0  0  0  0
  -21.3680   -3.7230   26.0240 F   0  0  0  0  0  0  0  0  0  0  0  0
  -22.7470  -13.5730   21.1420 C   0  0  0  0  0  0  0  0  0  0  0  0
  -22.0030  -12.8900   22.0080 N   0  0  0  0  0  0  0  0  0  0  0  0
  -22.3120  -14.5900   20.6070 O   0  0  0  0  0  0  0  0  0  0  0  0
  -22.3650  -12.0710   22.4770 H   0  0  0  0  0  0  0  0  0  0  0  0
  -21.0620  -13.1970   22.2050 H   0  0  0  0  0  0  0  0  0  0  0  0
  -25.3850  -15.2280   20.3260 N   0  0  0  0  0  0  0  0  0  0  0  0
  -24.6290  -15.9000   20.4000 H   0  0  0  0  0  0  0  0  0  0  0  0
  -26.2510  -15.6460   20.0080 H   0  0  0  0  0  0  0  0  0  0  0  0
  -28.4180  -25.2980   20.0610 C   0  0  0  0  0  2  0  0  0  0  0  0
  -28.4460  -26.7360   20.1630 O   0  0  0  0  0  0  0  0  0  0  0  0
  -24.5980  -31.8800   23.2300 C   0  0  0  0  0  0  0  0  0  0  0  0
  -27.2510  -27.4410   20.1410 C   0  0  0  0  0  0  0  0  0  0  0  0
  -23.3840  -30.4740   21.5930 C   0  0  0  0  0  3  0  0  0  0  0  0
  -24.8390  -28.9380   20.1600 C   0  0  0  0  0  0  0  0  0  0  0  0
  -25.9030  -30.8430   21.3770 C   0  0  0  0  0  2  0  0  0  0  0  0
  -25.9950  -29.4690   20.7450 C   0  0  0  0  0  0  0  0  0  0  0  0
  -27.1990  -28.7280   20.7330 C   0  0  0  0  0  3  0  0  0  0  0  0
  -26.0770  -26.9350   19.5320 C   0  0  0  0  0  3  0  0  0  0  0  0
  -24.8750  -27.6720   19.5500 C   0  0  0  0  0  3  0  0  0  0  0  0
  -23.5870  -29.7890   20.2130 C   0  0  0  0  0  2  0  0  0  0  0  0
  -24.6460  -31.0800   22.1270 N   0  0  0  0  0  0  0  0  0  0  0  0
  -23.5230  -32.1490   23.7790 O   0  0  0  0  0  0  0  0  0  0  0  0
  -22.7410  -29.4560   22.5600 C   0  0  0  0  0  0  0  0  0  0  0  0
  -21.4150  -29.2730   22.4400 N   0  0  0  0  0  0  0  0  0  0  0  0
  -23.4280  -28.8280   23.3700 O   0  0  0  0  0  0  0  0  0  0  0  0
  -20.9220  -29.8280   21.7560 H   0  0  0  0  0  0  0  0  0  0  0  0
  -18.0450  -28.0760   22.9530 C   0  0  0  0  0  0  0  0  0  0  0  0
  -20.6040  -28.3350   23.2160 C   0  0  0  0  0  3  0  0  0  0  0  0
  -20.7050  -26.9040   22.6390 C   0  0  0  0  0  2  0  0  0  0  0  0
  -19.5990  -26.5810   21.6300 C   0  0  0  0  0  2  0  0  0  0  0  0
  -18.2200  -26.7260   22.2770 C   0  0  0  0  0  2  0  0  0  0  0  0
  -19.1640  -28.8400   23.3770 C   0  0  0  0  0  0  0  0  0  0  0  0
  -18.9480  -30.1070   23.9630 C   0  0  0  0  0  3  0  0  0  0  0  0
  -17.6430  -30.6060   24.1340 C   0  0  0  0  0  3  0  0  0  0  0  0
  -16.5380  -29.8390   23.7260 C   0  0  0  0  0  3  0  0  0  0  0  0
  -16.7410  -28.5760   23.1410 C   0  0  0  0  0  3  0  0  0  0  0  0
  -25.8900  -32.5110   23.8410 C   0  0  0  0  0  3  0  0  0  0  0  0
  -25.5850  -33.9070   24.1850 N   0  0  0  0  0  0  0  0  0  0  0  0
  -25.8930  -34.9630   23.4230 C   0  0  0  0  0  0  0  0  0  0  0  0
  -26.5380  -34.8690   22.3750 O   0  0  0  0  0  0  0  0  0  0  0  0
  -25.0240  -34.0560   25.0110 H   0  0  0  0  0  0  0  0  0  0  0  0
  -24.1400  -36.7360   23.1080 C   0  0  0  0  0  1  0  0  0  0  0  0
  -25.4010  -36.3450   23.8930 C   0  0  0  0  0  3  0  0  0  0  0  0
  -27.5460  -37.2430   24.6760 C   0  0  0  0  0  1  0  0  0  0  0  0
  -26.4190  -37.4070   23.7610 N   0  0  0  0  0  0  0  0  0  0  0  0
  -26.0070  -38.3220   23.9310 H   0  0  0  0  0  0  0  0  0  0  0  0
  -26.4330  -31.7310   25.1010 C   0  0  1  0  0  0  0  0  0  0  0  0
  -25.3610  -31.4740   26.1840 C   0  0  0  0  0  1  0  0  0  0  0  0
  -27.0180  -30.3620   24.6810 C   0  0  0  0  0  1  0  0  0  0  0  0
  -27.5900  -32.5230   25.7520 C   0  0  0  0  0  1  0  0  0  0  0  0
  1  2  1  0
  1  3  1  0
  2  4  1  0
  3  8  1  0
  3  5  1  0
  4 51  1  0
  4  5  1  0
  5  6  1  0
  7  5  1  0
  9  8  2  0
 10  8  1  0
 10 11  1  0
 12 21  1  0
 12 11  1  0
 13 21  1  0
 14 19  1  0
 15 16  1  0
 15 14  1  0
 17 16  1  0
 17 26  1  0
 17 18  1  0
 19 13  1  0
 19 18  1  0
 20 13  2  0
 21 22  1  0
 23 24  2  0
 24 43  1  0
 25 24  1  0
 25 28  1  0
 26 23  1  0
 26 27  1  0
 27 25  2  0
 28 29  1  0
 29 30  2  0
 31 34  1  0
 31 30  1  0
 32 31  2  0
 33 32  1  0
 33 28  2  0
 34 35  1  0
 35 36  1  0
 36 37  2  0
 38 37  1  0
 38 42  1  0
 39 38  2  0
 40 35  2  0
 40 39  1  0
 41 40  1  0
 43 44  1  0
 44 47  1  0
 44 46  1  0
 45 43  2  0
 48 49  1  0
 48 23  1  0
 50 48  1  0
 51 52  1  0
 53 64  2  0
 54 52  1  0
 54 59  1  0
 55 63  1  0
 55 65  1  0
 56 62  1  0
 56 58  1  0
 57 63  1  0
 58 57  1  0
 59 58  2  0
 60 61  1  0
 60 54  2  0
 61 56  2  0
 62 55  1  0
 63 53  1  0
 65 67  2  0
 66 65  1  0
 68 66  1  0
 69 78  2  0
 69 74  1  0
 70 66  1  0
 70 74  1  0
 71 70  1  0
 72 73  1  0
 72 71  1  0
 73 69  1  0
 74 75  2  0
 75 76  1  0
 77 76  2  0
 78 77  1  0
 79 53  1  0
 79 80  1  0
 79 89  1  0
 80 83  1  0
 81 85  1  0
 81 80  1  0
 82 81  2  0
 85 84  1  0
 87 85  1  0
 87 88  1  0
 87 86  1  0
 89 92  1  1
 89 90  1  0
 91 89  1  0
M  ISO  4  13 100  21 100  51 101  52 101
M  END
>  <TORSDO>  (77) 
F 21

>  <SCORE>  (77) 
-13.494

>  <name>  (77) 
76

>  <ligand_id>  (77) 
76

>  <original_smiles>  (77) 
[H]c1c([H])c([H])c2c(c1[H])C([H])([H])C([H])([H])C([H])([H])C2([H])N([H])C(=O)C1([H])N(C(=O)C([H])(N([H])C(=O)C([H])(N([H])C([H])([H])[H])C([H])([H])[H])C(C([H])([H])[H])(C([H])([H])[H])C([H])([H])[H])C([H])([H])c2c([H])c(OC([H])([H])C3([H])C([H])([H])C([H])([H])C([H])(C(=O)C([H])([H])C([H])([H])C([H])([H])N([H])C(=O)N4C([H])([H])C([H])([H])C([H])([H])C([H])(n5nc(-c6c([H])c([H])c(Oc7c([H])c([H])c(F)c([H])c7F)c([H])c6[H])c(C(=O)N([H])[H])c5N([H])[H])C4([H])[H])[N+]3([H])[H])c([H])c([H])c2C1([H])[H]

>  <smiles>  (77) 
[H]c1c([H])c([H])c2c(c1[H])C([H])([H])C([H])([H])C([H])([H])C2([H])N([H])C(=O)C1([H])N(C(=O)C([H])(N([H])C(=O)C([H])(N([H])C([H])([H])[H])C([H])([H])[H])C(C([H])([H])[H])(C([H])([H])[H])C([H])([H])[H])C([H])([H])c2c([H])c(OC([H])([H])C3([H])C([H])([H])C([H])([H])C([H])(C(=O)C([H])([H])C([H])([H])C([H])([H])N([H])C(=O)N4C([H])([H])C([H])([H])C([H])([H])C([H])(n5nc(-c6c([H])c([H])c(Oc7c([H])c([H])c(F)c([H])c7F)c([H])c6[H])c(C(=O)N([H])[H])c5N([H])[H])C4([H])[H])[N+]3([H])[H])c([H])c([H])c2C1([H])[H]

$$$$
77:0:0
     RDKit          3D

 87 95  0  0  1  0  0  0  0  0999 V2000
  -28.8530  -21.2420   19.5790 C   0  0  0  0  0  0  0  0  0  0  0  0
  -27.9130  -21.1010   18.7930 O   0  0  0  0  0  0  0  0  0  0  0  0
  -29.7900  -19.7910   19.8530 C   0  0  0  0  0  2  0  0  0  0  0  0
  -30.6280  -15.3210   19.6700 C   0  0  0  0  0  0  0  0  0  0  0  0
  -30.4870  -12.8710   18.8160 C   0  0  0  0  0  2  0  0  0  0  0  0
  -29.4910  -12.6980   17.6410 C   0  0  0  0  0  2  0  0  0  0  0  0
  -28.0720  -12.4350   18.1740 C   0  0  0  0  0  2  0  0  0  0  0  0
  -27.7060  -13.3920   19.3340 C   0  0  0  0  0  3  0  0  0  0  0  0
  -28.8310  -13.5150   20.3850 C   0  0  0  0  0  2  0  0  0  0  0  0
  -30.0340  -14.0200   19.6910 N   0  0  0  0  0  0  0  0  0  0  0  0
  -31.7670  -15.3100   19.1790 O   0  0  0  0  0  0  0  0  0  0  0  0
  -28.0140  -17.3290   21.1270 C   0  0  0  0  0  2  0  0  0  0  0  0
  -28.0080  -17.8920   19.6960 C   0  0  0  0  0  2  0  0  0  0  0  0
  -29.4220  -16.7760   21.3540 C   0  0  0  0  0  2  0  0  0  0  0  0
  -29.4960  -18.0800   19.3860 C   0  0  0  0  0  3  0  0  0  0  0  0
  -29.9730  -16.6150   20.0200 N   0  0  0  0  0  0  0  0  0  0  0  0
  -25.3950  -13.9520   20.2730 C   0  0  0  0  0  0  0  0  0  0  0  0
  -24.3620  -13.1830   20.7260 C   0  0  0  0  0  0  0  0  0  0  0  0
  -24.8110  -11.8310   20.6270 C   0  0  0  0  0  0  0  0  0  0  0  0
  -26.4140  -13.0780   19.9370 N   0  0  0  0  0  0  0  0  0  0  0  0
  -26.0760  -11.7920   20.2150 N   0  0  0  0  0  0  0  0  0  0  0  0
  -24.0800  -10.5750   20.8450 C   0  0  0  0  0  0  0  0  0  0  0  0
  -24.5120   -9.6200   21.7900 C   0  0  0  0  0  3  0  0  0  0  0  0
  -23.7790   -8.4310   21.9910 C   0  0  0  0  0  3  0  0  0  0  0  0
  -22.5990   -8.1900   21.2490 C   0  0  0  0  0  0  0  0  0  0  0  0
  -22.1850   -9.1350   20.2950 C   0  0  0  0  0  3  0  0  0  0  0  0
  -22.9190  -10.3150   20.0910 C   0  0  0  0  0  3  0  0  0  0  0  0
  -21.8400   -7.0520   21.3600 O   0  0  0  0  0  0  0  0  0  0  0  0
  -21.7160   -6.3810   22.5490 C   0  0  0  0  0  0  0  0  0  0  0  0
  -21.1920   -7.0030   23.7040 C   0  0  0  0  0  3  0  0  0  0  0  0
  -21.0190   -6.2580   24.8870 C   0  0  0  0  0  3  0  0  0  0  0  0
  -21.3600   -4.8930   24.9180 C   0  0  0  0  0  0  0  0  0  0  0  0
  -21.8760   -4.2700   23.7680 C   0  0  0  0  0  3  0  0  0  0  0  0
  -22.0500   -5.0120   22.5860 C   0  0  0  0  0  0  0  0  0  0  0  0
  -22.5300   -4.4020   21.4750 F   0  0  0  0  0  0  0  0  0  0  0  0
  -21.1850   -4.1750   26.0510 F   0  0  0  0  0  0  0  0  0  0  0  0
  -23.0000  -13.6760   21.1190 C   0  0  0  0  0  0  0  0  0  0  0  0
  -22.3380  -12.9860   22.0410 N   0  0  0  0  0  0  0  0  0  0  0  0
  -22.5350  -14.7120   20.6460 O   0  0  0  0  0  0  0  0  0  0  0  0
  -22.7270  -12.1530   22.4560 H   0  0  0  0  0  0  0  0  0  0  0  0
  -21.4270  -13.3040   22.3400 H   0  0  0  0  0  0  0  0  0  0  0  0
  -25.5300  -15.3190   20.0890 N   0  0  0  0  0  0  0  0  0  0  0  0
  -24.7860  -15.9670   20.3180 H   0  0  0  0  0  0  0  0  0  0  0  0
  -26.3770  -15.7800   19.7790 H   0  0  0  0  0  0  0  0  0  0  0  0
  -29.0150  -22.8650   20.1830 C   0  0  0  0  0  3  0  0  0  0  0  0
  -28.0450  -24.3420   19.9180 C   0  0  0  0  0  3  0  0  0  0  0  0
  -28.2020  -25.9130   20.3420 O   0  0  0  0  0  0  0  0  0  0  0  0
  -24.5620  -31.8050   23.2640 C   0  0  0  0  0  0  0  0  0  0  0  0
  -27.1820  -26.9850   20.2510 C   0  0  0  0  0  0  0  0  0  0  0  0
  -23.3960  -30.4290   21.5870 C   0  0  0  0  0  3  0  0  0  0  0  0
  -24.8730  -28.8370   20.1780 C   0  0  0  0  0  0  0  0  0  0  0  0
  -25.9630  -30.6440   21.4940 C   0  0  0  0  0  2  0  0  0  0  0  0
  -26.0460  -29.2440   20.8280 C   0  0  0  0  0  0  0  0  0  0  0  0
  -27.1940  -28.3370   20.8430 C   0  0  0  0  0  3  0  0  0  0  0  0
  -25.9820  -26.7210   19.5540 C   0  0  0  0  0  3  0  0  0  0  0  0
  -24.8640  -27.5960   19.5220 C   0  0  0  0  0  3  0  0  0  0  0  0
  -23.6520  -29.7570   20.2110 C   0  0  0  0  0  2  0  0  0  0  0  0
  -24.6600  -30.9850   22.1700 N   0  0  0  0  0  0  0  0  0  0  0  0
  -23.4630  -32.0980   23.7650 O   0  0  0  0  0  0  0  0  0  0  0  0
  -22.6800  -29.4260   22.5290 C   0  0  0  0  0  0  0  0  0  0  0  0
  -21.3600  -29.2450   22.3550 N   0  0  0  0  0  0  0  0  0  0  0  0
  -23.3230  -28.8110   23.3840 O   0  0  0  0  0  0  0  0  0  0  0  0
  -20.8930  -29.7980   21.6510 H   0  0  0  0  0  0  0  0  0  0  0  0
  -17.9760  -27.9920   22.7270 C   0  0  0  0  0  0  0  0  0  0  0  0
  -20.5170  -28.3010   23.0980 C   0  0  0  0  0  3  0  0  0  0  0  0
  -20.6650  -26.8640   22.5460 C   0  0  0  0  0  2  0  0  0  0  0  0
  -19.6140  -26.5120   21.4890 C   0  0  0  0  0  2  0  0  0  0  0  0
  -18.2030  -26.6400   22.0720 C   0  0  0  0  0  2  0  0  0  0  0  0
  -19.0630  -28.7780   23.1950 C   0  0  0  0  0  0  0  0  0  0  0  0
  -18.7980  -30.0390   23.7690 C   0  0  0  0  0  3  0  0  0  0  0  0
  -17.4780  -30.5160   23.8830 C   0  0  0  0  0  3  0  0  0  0  0  0
  -16.4050  -29.7270   23.4330 C   0  0  0  0  0  3  0  0  0  0  0  0
  -16.6540  -28.4680   22.8590 C   0  0  0  0  0  3  0  0  0  0  0  0
  -25.8230  -32.4350   23.9290 C   0  0  0  0  0  3  0  0  0  0  0  0
  -26.2430  -31.7070   25.2660 C   0  0  1  0  0  0  0  0  0  0  0  0
  -25.0860  -31.5460   26.2800 C   0  0  0  0  0  1  0  0  0  0  0  0
  -26.8070  -30.2960   24.9740 C   0  0  0  0  0  1  0  0  0  0  0  0
  -27.3750  -32.5000   25.9570 C   0  0  0  0  0  1  0  0  0  0  0  0
  -25.5330  -33.8540   24.1950 N   0  0  0  0  0  0  0  0  0  0  0  0
  -25.8940  -34.8740   23.4010 C   0  0  0  0  0  0  0  0  0  0  0  0
  -26.5700  -34.7150   22.3830 O   0  0  0  0  0  0  0  0  0  0  0  0
  -24.9290  -34.0500   24.9800 H   0  0  0  0  0  0  0  0  0  0  0  0
  -24.1930  -36.6830   22.9850 C   0  0  0  0  0  1  0  0  0  0  0  0
  -25.4350  -36.2910   23.8020 C   0  0  0  0  0  3  0  0  0  0  0  0
  -27.5870  -37.1890   24.5770 C   0  0  0  0  0  1  0  0  0  0  0  0
  -26.4840  -37.3190   23.6290 N   0  0  0  0  0  0  0  0  0  0  0  0
  -26.0930  -38.2530   23.7220 H   0  0  0  0  0  0  0  0  0  0  0  0
  1  3  1  0
  1 45  1  0
  2  1  2  0
  4 10  1  0
  4 16  1  0
  5 10  1  0
  6  7  1  0
  6  5  1  0
  8  7  1  0
  8 20  1  0
  8  9  1  0
 10  9  1  0
 11  4  2  0
 12 14  1  0
 13 12  1  0
 15 13  1  0
 15  3  1  0
 15 16  1  0
 16 14  1  0
 17 18  2  0
 18 37  1  0
 19 18  1  0
 19 22  1  0
 20 21  1  0
 20 17  1  0
 21 19  2  0
 22 23  1  0
 23 24  2  0
 25 28  1  0
 25 24  1  0
 26 25  2  0
 27 26  1  0
 27 22  2  0
 28 29  1  0
 29 34  2  0
 29 30  1  0
 30 31  2  0
 31 32  1  0
 32 36  1  0
 33 32  2  0
 34 33  1  0
 35 34  1  0
 37 38  1  0
 38 41  1  0
 38 40  1  0
 39 37  2  0
 42 17  1  0
 42 43  1  0
 44 42  1  0
 46 45  2  0
 46 47  1  0
 48 59  2  0
 49 47  1  0
 49 54  1  0
 50 58  1  0
 50 60  1  0
 51 57  1  0
 51 53  1  0
 52 58  1  0
 53 54  2  0
 53 52  1  0
 55 49  2  0
 56 55  1  0
 56 51  2  0
 57 50  1  0
 58 48  1  0
 60 62  2  0
 61 60  1  0
 63 61  1  0
 64 73  2  0
 64 69  1  0
 65 61  1  0
 65 69  1  0
 66 65  1  0
 67 68  1  0
 67 66  1  0
 68 64  1  0
 69 70  2  0
 70 71  1  0
 72 71  2  0
 73 72  1  0
 74 48  1  0
 74 79  1  0
 74 75  1  0
 75 78  1  1
 75 76  1  0
 77 75  1  0
 79 82  1  0
 80 84  1  0
 80 79  1  0
 81 80  2  0
 84 83  1  0
 86 87  1  0
 86 84  1  0
 86 85  1  0
M  ISO  4   4 100  16 100  46 101  47 101
M  END
>  <TORSDO>  (78) 
F 19

>  <SCORE>  (78) 
-14.700

>  <name>  (78) 
77

>  <ligand_id>  (78) 
77

>  <original_smiles>  (78) 
[H]c1c([H])c([H])c2c(c1[H])C([H])([H])C([H])([H])C([H])([H])C2([H])N([H])C(=O)C1([H])N(C(=O)C([H])(N([H])C(=O)C([H])(N([H])C([H])([H])[H])C([H])([H])[H])C(C([H])([H])[H])(C([H])([H])[H])C([H])([H])[H])C([H])([H])c2c([H])c(OC([H])([H])C([H])([H])C(=O)C([H])([H])C3([H])N(C(=O)N4C([H])([H])C([H])([H])C([H])([H])C([H])(n5nc(-c6c([H])c([H])c(Oc7c([H])c([H])c(F)c([H])c7F)c([H])c6[H])c(C(=O)N([H])[H])c5N([H])[H])C4([H])[H])C([H])([H])C([H])([H])C3([H])[H])c([H])c([H])c2C1([H])[H]

>  <smiles>  (78) 
[H]c1c([H])c([H])c2c(c1[H])C([H])([H])C([H])([H])C([H])([H])C2([H])N([H])C(=O)C1([H])N(C(=O)C([H])(N([H])C(=O)C([H])(N([H])C([H])([H])[H])C([H])([H])[H])C(C([H])([H])[H])(C([H])([H])[H])C([H])([H])[H])C([H])([H])c2c([H])c(OC([H])([H])C([H])([H])C(=O)C([H])([H])C3([H])N(C(=O)N4C([H])([H])C([H])([H])C([H])([H])C([H])(n5nc(-c6c([H])c([H])c(Oc7c([H])c([H])c(F)c([H])c7F)c([H])c6[H])c(C(=O)N([H])[H])c5N([H])[H])C4([H])[H])C([H])([H])C([H])([H])C3([H])[H])c([H])c([H])c2C1([H])[H]

$$$$
78:0:0
     RDKit          3D

 93101  0  0  1  0  0  0  0  0999 V2000
  -29.9420  -22.8110   19.6440 C   0  0  0  0  0  3  0  0  0  0  0  0
  -27.6280  -22.4460   19.9550 C   0  0  0  0  0  3  0  0  0  0  0  0
  -29.7250  -24.2270   19.8380 C   0  0  0  0  0  3  0  0  0  0  0  0
  -27.4150  -23.8650   20.1660 C   0  0  0  0  0  3  0  0  0  0  0  0
  -28.9040  -21.8310   19.6940 C   0  0  0  0  0  0  0  0  0  0  0  0
  -28.4620  -24.8470   20.0970 C   0  0  0  0  0  0  0  0  0  0  0  0
  -28.4080  -26.2930   20.2870 O   0  0  0  0  0  0  0  0  0  0  0  0
  -24.6730  -31.8660   23.2220 C   0  0  0  0  0  0  0  0  0  0  0  0
  -27.2960  -27.1780   20.2640 C   0  0  0  0  0  0  0  0  0  0  0  0
  -23.5030  -30.4580   21.5700 C   0  0  0  0  0  3  0  0  0  0  0  0
  -24.9710  -28.8890   20.1760 C   0  0  0  0  0  0  0  0  0  0  0  0
  -26.0550  -30.7280   21.4550 C   0  0  0  0  0  2  0  0  0  0  0  0
  -26.1280  -29.3370   20.8220 C   0  0  0  0  0  0  0  0  0  0  0  0
  -27.2850  -28.4880   20.8730 C   0  0  0  0  0  3  0  0  0  0  0  0
  -26.1200  -26.8170   19.5730 C   0  0  0  0  0  3  0  0  0  0  0  0
  -24.9730  -27.6360   19.5420 C   0  0  0  0  0  3  0  0  0  0  0  0
  -23.7480  -29.7850   20.1930 C   0  0  0  0  0  2  0  0  0  0  0  0
  -24.7630  -31.0430   22.1350 N   0  0  0  0  0  0  0  0  0  0  0  0
  -23.5800  -32.1500   23.7300 O   0  0  0  0  0  0  0  0  0  0  0  0
  -22.8250  -29.4440   22.5210 C   0  0  0  0  0  0  0  0  0  0  0  0
  -21.5030  -29.2620   22.3680 N   0  0  0  0  0  0  0  0  0  0  0  0
  -23.4890  -28.8240   23.3570 O   0  0  0  0  0  0  0  0  0  0  0  0
  -21.0250  -29.8140   21.6690 H   0  0  0  0  0  0  0  0  0  0  0  0
  -18.1260  -28.0370   22.7780 C   0  0  0  0  0  0  0  0  0  0  0  0
  -20.6720  -28.3290   23.1300 C   0  0  0  0  0  3  0  0  0  0  0  0
  -20.8090  -26.8880   22.5800 C   0  0  0  0  0  2  0  0  0  0  0  0
  -19.7430  -26.5380   21.5370 C   0  0  0  0  0  2  0  0  0  0  0  0
  -18.3390  -26.6800   22.1310 C   0  0  0  0  0  2  0  0  0  0  0  0
  -19.2210  -28.8200   23.2330 C   0  0  0  0  0  0  0  0  0  0  0  0
  -18.9680  -30.0930   23.7900 C   0  0  0  0  0  3  0  0  0  0  0  0
  -17.6520  -30.5800   23.9060 C   0  0  0  0  0  3  0  0  0  0  0  0
  -16.5720  -29.7930   23.4710 C   0  0  0  0  0  3  0  0  0  0  0  0
  -16.8090  -28.5250   22.9110 C   0  0  0  0  0  3  0  0  0  0  0  0
  -25.9420  -32.5060   23.8620 C   0  0  0  0  0  3  0  0  0  0  0  0
  -25.6250  -33.9050   24.1810 N   0  0  0  0  0  0  0  0  0  0  0  0
  -25.9700  -34.9620   23.4290 C   0  0  0  0  0  0  0  0  0  0  0  0
  -26.6600  -34.8600   22.4100 O   0  0  0  0  0  0  0  0  0  0  0  0
  -25.0220  -34.0640   24.9740 H   0  0  0  0  0  0  0  0  0  0  0  0
  -24.2370  -36.7450   23.0540 C   0  0  0  0  0  1  0  0  0  0  0  0
  -25.4720  -36.3500   23.8800 C   0  0  0  0  0  3  0  0  0  0  0  0
  -27.5970  -37.2390   24.7270 C   0  0  0  0  0  1  0  0  0  0  0  0
  -26.5010  -37.4080   23.7760 N   0  0  0  0  0  0  0  0  0  0  0  0
  -26.0920  -38.3250   23.9240 H   0  0  0  0  0  0  0  0  0  0  0  0
  -26.4360  -31.7460   25.1550 C   0  0  1  0  0  0  0  0  0  0  0  0
  -25.3240  -31.5150   26.2030 C   0  0  0  0  0  1  0  0  0  0  0  0
  -27.0260  -30.3670   24.7830 C   0  0  0  0  0  1  0  0  0  0  0  0
  -27.5720  -32.5480   25.8350 C   0  0  0  0  0  1  0  0  0  0  0  0
  -29.0810  -20.2470   19.2950 C   0  0  0  0  0  2  0  0  0  0  0  0
  -31.5540  -19.7390   19.3260 C   0  0  0  0  0  1  0  0  0  0  0  0
  -30.2160  -19.1360   19.8170 C   0  0  1  0  0  0  0  0  0  0  0  0
  -29.9450  -20.4070   22.0970 C   0  0  0  0  0  1  0  0  0  0  0  0
  -30.2120  -19.0560   21.3880 C   0  0  0  0  0  3  0  0  0  0  0  0
  -31.3040  -17.8440   23.3930 C   0  0  0  0  0  1  0  0  0  0  0  0
  -31.4990  -18.4250   21.9870 C   0  0  0  0  0  2  0  0  0  0  0  0
  -30.1360  -17.5870   19.1400 C   0  0  0  0  0  2  0  0  0  0  0  0
  -30.8150  -15.0130   19.7740 C   0  0  0  0  0  0  0  0  0  0  0  0
  -30.6440  -12.6110   19.0390 C   0  0  0  0  0  2  0  0  0  0  0  0
  -29.6850  -12.5350   17.8270 C   0  0  0  0  0  2  0  0  0  0  0  0
  -28.2230  -12.3970   18.2970 C   0  0  0  0  0  2  0  0  0  0  0  0
  -27.8650  -13.3870   19.4380 C   0  0  0  0  0  3  0  0  0  0  0  0
  -28.9490  -13.4260   20.5360 C   0  0  0  0  0  2  0  0  0  0  0  0
  -30.2180  -13.7630   19.8800 N   0  0  0  0  0  0  0  0  0  0  0  0
  -31.9870  -15.0590   19.3900 O   0  0  0  0  0  0  0  0  0  0  0  0
  -30.0350  -16.1890   19.8610 N   0  0  0  0  0  0  0  0  0  0  0  0
  -29.1240  -16.0110   20.2540 H   0  0  0  0  0  0  0  0  0  0  0  0
  -25.5340  -14.0490   20.2580 C   0  0  0  0  0  0  0  0  0  0  0  0
  -24.4600  -13.3140   20.6720 C   0  0  0  0  0  0  0  0  0  0  0  0
  -24.8750  -11.9470   20.6260 C   0  0  0  0  0  0  0  0  0  0  0  0
  -26.5380  -13.1360   19.9850 N   0  0  0  0  0  0  0  0  0  0  0  0
  -26.1530  -11.8640   20.2690 N   0  0  0  0  0  0  0  0  0  0  0  0
  -24.1110  -10.7100   20.8450 C   0  0  0  0  0  0  0  0  0  0  0  0
  -24.5300   -9.7370   21.7780 C   0  0  0  0  0  3  0  0  0  0  0  0
  -23.7680   -8.5660   21.9850 C   0  0  0  0  0  3  0  0  0  0  0  0
  -22.5710   -8.3620   21.2570 C   0  0  0  0  0  0  0  0  0  0  0  0
  -22.1700   -9.3220   20.3120 C   0  0  0  0  0  3  0  0  0  0  0  0
  -22.9340  -10.4840   20.1050 C   0  0  0  0  0  3  0  0  0  0  0  0
  -21.7790   -7.2430   21.3740 O   0  0  0  0  0  0  0  0  0  0  0  0
  -21.7100   -6.5280   22.5410 C   0  0  0  0  0  0  0  0  0  0  0  0
  -21.3280   -7.1270   23.7620 C   0  0  0  0  0  3  0  0  0  0  0  0
  -21.2060   -6.3410   24.9240 C   0  0  0  0  0  3  0  0  0  0  0  0
  -21.4540   -4.9560   24.8680 C   0  0  0  0  0  0  0  0  0  0  0  0
  -21.8300   -4.3570   23.6530 C   0  0  0  0  0  3  0  0  0  0  0  0
  -21.9550   -5.1400   22.4930 C   0  0  0  0  0  0  0  0  0  0  0  0
  -22.2970   -4.5540   21.3200 F   0  0  0  0  0  0  0  0  0  0  0  0
  -21.3290   -4.1990   25.9820 F   0  0  0  0  0  0  0  0  0  0  0  0
  -23.0890  -13.8390   20.9910 C   0  0  0  0  0  0  0  0  0  0  0  0
  -22.3740  -13.1780   21.8930 N   0  0  0  0  0  0  0  0  0  0  0  0
  -22.6650  -14.8710   20.4700 O   0  0  0  0  0  0  0  0  0  0  0  0
  -22.7290  -12.3450   22.3390 H   0  0  0  0  0  0  0  0  0  0  0  0
  -21.4560  -13.5120   22.1470 H   0  0  0  0  0  0  0  0  0  0  0  0
  -25.7370  -15.4130   20.0660 N   0  0  0  0  0  0  0  0  0  0  0  0
  -25.0010  -16.0950   20.2130 H   0  0  0  0  0  0  0  0  0  0  0  0
  -26.5740  -15.8170   19.6660 H   0  0  0  0  0  0  0  0  0  0  0  0
  1  5  2  0
  1  3  1  0
  2  4  2  0
  3  6  2  0
  5  2  1  0
  6  4  1  0
  6  7  1  0
  8 19  2  0
  9  7  1  0
  9 14  1  0
 10 18  1  0
 10 20  1  0
 11 17  1  0
 11 13  1  0
 12 18  1  0
 13 14  2  0
 13 12  1  0
 15  9  2  0
 16 15  1  0
 16 11  2  0
 17 10  1  0
 18  8  1  0
 20 22  2  0
 21 20  1  0
 23 21  1  0
 24 33  2  0
 24 29  1  0
 25 21  1  0
 25 29  1  0
 26 25  1  0
 27 28  1  0
 27 26  1  0
 28 24  1  0
 29 30  2  0
 30 31  1  0
 32 31  2  0
 33 32  1  0
 34  8  1  0
 34 35  1  0
 34 44  1  0
 35 38  1  0
 36 40  1  0
 36 35  1  0
 37 36  2  0
 40 39  1  0
 42 40  1  0
 42 43  1  0
 42 41  1  0
 44 47  1  1
 44 45  1  0
 46 44  1  0
 48  5  1  0
 48 50  1  0
 50 49  1  6
 50 52  1  0
 52 54  1  0
 52 51  1  0
 54 53  1  0
 55 50  1  0
 55 64  1  0
 56 64  1  0
 56 62  1  0
 57 62  1  0
 58 59  1  0
 58 57  1  0
 60 59  1  0
 60 69  1  0
 60 61  1  0
 62 61  1  0
 63 56  2  0
 64 65  1  0
 66 67  2  0
 67 86  1  0
 68 67  1  0
 68 71  1  0
 69 66  1  0
 69 70  1  0
 70 68  2  0
 71 72  1  0
 72 73  2  0
 74 77  1  0
 74 73  1  0
 75 74  2  0
 76 75  1  0
 76 71  2  0
 77 78  1  0
 78 79  1  0
 79 80  2  0
 81 80  1  0
 81 85  1  0
 82 81  2  0
 83 78  2  0
 83 82  1  0
 84 83  1  0
 86 87  1  0
 87 90  1  0
 87 89  1  0
 88 86  2  0
 91 92  1  0
 91 66  1  0
 93 91  1  0
M  ISO  4   6 101   7 101  56 100  64 100
M  END
>  <TORSDO>  (79) 
F 21

>  <SCORE>  (79) 
-12.476

>  <name>  (79) 
78

>  <ligand_id>  (79) 
78

>  <original_smiles>  (79) 
[H]c1c([H])c([H])c2c(c1[H])C([H])([H])C([H])([H])C([H])([H])C2([H])N([H])C(=O)C1([H])N(C(=O)C([H])(N([H])C(=O)C([H])(N([H])C([H])([H])[H])C([H])([H])[H])C(C([H])([H])[H])(C([H])([H])[H])C([H])([H])[H])C([H])([H])c2c([H])c(Oc3c([H])c([H])c(C([H])([H])C(C([H])([H])[H])(C([H])([H])N([H])C(=O)N4C([H])([H])C([H])([H])C([H])([H])C([H])(n5nc(-c6c([H])c([H])c(Oc7c([H])c([H])c(F)c([H])c7F)c([H])c6[H])c(C(=O)N([H])[H])c5N([H])[H])C4([H])[H])C([H])(C([H])([H])[H])C([H])([H])C([H])([H])[H])c([H])c3[H])c([H])c([H])c2C1([H])[H]

>  <smiles>  (79) 
[H]c1c([H])c([H])c2c(c1[H])C([H])([H])C([H])([H])C([H])([H])C2([H])N([H])C(=O)C1([H])N(C(=O)C([H])(N([H])C(=O)C([H])(N([H])C([H])([H])[H])C([H])([H])[H])C(C([H])([H])[H])(C([H])([H])[H])C([H])([H])[H])C([H])([H])c2c([H])c(Oc3c([H])c([H])c(C([H])([H])C(C([H])([H])[H])(C([H])([H])N([H])C(=O)N4C([H])([H])C([H])([H])C([H])([H])C([H])(n5nc(-c6c([H])c([H])c(Oc7c([H])c([H])c(F)c([H])c7F)c([H])c6[H])c(C(=O)N([H])[H])c5N([H])[H])C4([H])[H])C([H])(C([H])([H])[H])C([H])([H])C([H])([H])[H])c([H])c3[H])c([H])c([H])c2C1([H])[H]

$$$$
79:0:0
     RDKit          3D

 92100  0  0  1  0  0  0  0  0999 V2000
  -29.6830  -20.2770   18.0310 C   0  0  0  0  0  2  0  0  0  0  0  0
  -30.5970  -21.3260   18.6560 C   0  0  0  0  0  2  0  0  0  0  0  0
  -29.4610  -19.7280   19.4480 C   0  0  0  0  0  3  0  0  0  0  0  0
  -29.8480  -21.1590   19.9040 N   0  0  2  0  0  4  0  0  0  0  0  0
  -30.4550  -21.1430   20.7110 H   0  0  0  0  0  0  0  0  0  0  0  0
  -28.7790  -22.2610   20.0740 C   0  0  0  0  0  2  0  0  0  0  0  0
  -29.2210  -23.8190   20.1880 C   0  0  0  0  0  3  0  0  0  0  0  0
  -28.0740  -24.9400   20.0710 C   0  0  0  0  0  3  0  0  0  0  0  0
  -28.3150  -26.4120   20.2310 O   0  0  0  0  0  0  0  0  0  0  0  0
  -24.6160  -31.8800   23.2680 C   0  0  0  0  0  0  0  0  0  0  0  0
  -27.2020  -27.2860   20.1950 C   0  0  0  0  0  0  0  0  0  0  0  0
  -23.4030  -30.4850   21.6320 C   0  0  0  0  0  3  0  0  0  0  0  0
  -24.8430  -28.9270   20.2030 C   0  0  0  0  0  0  0  0  0  0  0  0
  -25.9480  -30.7830   21.4510 C   0  0  0  0  0  2  0  0  0  0  0  0
  -26.0190  -29.4060   20.7930 C   0  0  0  0  0  0  0  0  0  0  0  0
  -27.2020  -28.6010   20.7720 C   0  0  0  0  0  3  0  0  0  0  0  0
  -25.9950  -26.8720   19.5850 C   0  0  0  0  0  3  0  0  0  0  0  0
  -24.8360  -27.6670   19.5890 C   0  0  0  0  0  3  0  0  0  0  0  0
  -23.6100  -29.8050   20.2550 C   0  0  0  0  0  2  0  0  0  0  0  0
  -24.6740  -31.0680   22.1720 N   0  0  0  0  0  0  0  0  0  0  0  0
  -23.5340  -32.1660   23.8020 O   0  0  0  0  0  0  0  0  0  0  0  0
  -22.7330  -29.4780   22.5970 C   0  0  0  0  0  0  0  0  0  0  0  0
  -21.4080  -29.2950   22.4620 N   0  0  0  0  0  0  0  0  0  0  0  0
  -23.4060  -28.8600   23.4280 O   0  0  0  0  0  0  0  0  0  0  0  0
  -20.9250  -29.8430   21.7630 H   0  0  0  0  0  0  0  0  0  0  0  0
  -18.0320  -28.0760   22.9330 C   0  0  0  0  0  0  0  0  0  0  0  0
  -20.5850  -28.3600   23.2320 C   0  0  0  0  0  3  0  0  0  0  0  0
  -20.7060  -26.9220   22.6760 C   0  0  0  0  0  2  0  0  0  0  0  0
  -19.6180  -26.5780   21.6520 C   0  0  0  0  0  2  0  0  0  0  0  0
  -18.2280  -26.7190   22.2760 C   0  0  0  0  0  2  0  0  0  0  0  0
  -19.1380  -28.8530   23.3680 C   0  0  0  0  0  0  0  0  0  0  0  0
  -18.9000  -30.1210   23.9410 C   0  0  0  0  0  3  0  0  0  0  0  0
  -17.5890  -30.6110   24.0840 C   0  0  0  0  0  3  0  0  0  0  0  0
  -16.4960  -29.8310   23.6650 C   0  0  0  0  0  3  0  0  0  0  0  0
  -16.7200  -28.5650   23.0960 C   0  0  0  0  0  3  0  0  0  0  0  0
  -25.9020  -32.5050   23.8900 C   0  0  0  0  0  3  0  0  0  0  0  0
  -25.6030  -33.9080   24.2110 N   0  0  0  0  0  0  0  0  0  0  0  0
  -25.9410  -34.9530   23.4450 C   0  0  0  0  0  0  0  0  0  0  0  0
  -26.6080  -34.8380   22.4120 O   0  0  0  0  0  0  0  0  0  0  0  0
  -25.0080  -34.0720   25.0090 H   0  0  0  0  0  0  0  0  0  0  0  0
  -24.2280  -36.7590   23.0850 C   0  0  0  0  0  1  0  0  0  0  0  0
  -25.4690  -36.3500   23.8940 C   0  0  0  0  0  3  0  0  0  0  0  0
  -27.6140  -37.2230   24.7100 C   0  0  0  0  0  1  0  0  0  0  0  0
  -26.5100  -37.3940   23.7680 N   0  0  0  0  0  0  0  0  0  0  0  0
  -26.1130  -38.3190   23.9070 H   0  0  0  0  0  0  0  0  0  0  0  0
  -26.4060  -31.7390   25.1750 C   0  0  1  0  0  0  0  0  0  0  0  0
  -25.3050  -31.5190   26.2410 C   0  0  0  0  0  1  0  0  0  0  0  0
  -26.9780  -30.3510   24.8040 C   0  0  0  0  0  1  0  0  0  0  0  0
  -27.5610  -32.5280   25.8330 C   0  0  0  0  0  1  0  0  0  0  0  0
  -30.2850  -18.3990   19.9660 C   0  0  0  0  0  3  0  0  0  0  0  0
  -31.6210  -18.1110   19.2040 C   0  0  0  0  0  2  0  0  0  0  0  0
  -32.8210  -17.4630   16.9970 C   0  0  0  0  0  1  0  0  0  0  0  0
  -31.5420  -17.3520   17.8460 C   0  0  0  0  0  2  0  0  0  0  0  0
  -29.4340  -17.0320   20.0150 C   0  0  0  0  0  2  0  0  0  0  0  0
  -30.6020  -14.6660   20.3950 C   0  0  0  0  0  0  0  0  0  0  0  0
  -30.3720  -12.4060   19.3930 C   0  0  0  0  0  2  0  0  0  0  0  0
  -29.4520  -12.5590   18.1630 C   0  0  0  0  0  2  0  0  0  0  0  0
  -27.9710  -12.4200   18.5650 C   0  0  0  0  0  2  0  0  0  0  0  0
  -27.6120  -13.2600   19.8200 C   0  0  0  0  0  3  0  0  0  0  0  0
  -28.6660  -13.1180   20.9430 C   0  0  0  0  0  2  0  0  0  0  0  0
  -29.9800  -13.4410   20.3720 N   0  0  0  0  0  0  0  0  0  0  0  0
  -31.7530  -14.7900   19.9710 O   0  0  0  0  0  0  0  0  0  0  0  0
  -29.8350  -15.7510   20.7440 N   0  0  0  0  0  0  0  0  0  0  0  0
  -29.0950  -15.4530   21.3650 H   0  0  0  0  0  0  0  0  0  0  0  0
  -25.2220  -13.8550   20.5290 C   0  0  0  0  0  0  0  0  0  0  0  0
  -24.1510  -13.0830   20.8860 C   0  0  0  0  0  0  0  0  0  0  0  0
  -24.6080  -11.7310   20.8510 C   0  0  0  0  0  0  0  0  0  0  0  0
  -26.2640  -12.9720   20.2980 N   0  0  0  0  0  0  0  0  0  0  0  0
  -25.9000  -11.6880   20.5510 N   0  0  0  0  0  0  0  0  0  0  0  0
  -23.8730  -10.4720   21.0300 C   0  0  0  0  0  0  0  0  0  0  0  0
  -24.2990   -9.4920   21.9540 C   0  0  0  0  0  3  0  0  0  0  0  0
  -23.5650   -8.2980   22.1220 C   0  0  0  0  0  3  0  0  0  0  0  0
  -22.3880   -8.0740   21.3670 C   0  0  0  0  0  0  0  0  0  0  0  0
  -21.9790   -9.0430   20.4340 C   0  0  0  0  0  3  0  0  0  0  0  0
  -22.7140  -10.2290   20.2640 C   0  0  0  0  0  3  0  0  0  0  0  0
  -21.6240   -6.9340   21.4490 O   0  0  0  0  0  0  0  0  0  0  0  0
  -21.5800   -6.1790   22.5920 C   0  0  0  0  0  0  0  0  0  0  0  0
  -21.1640   -6.7180   23.8300 C   0  0  0  0  0  3  0  0  0  0  0  0
  -21.0670   -5.8850   24.9640 C   0  0  0  0  0  3  0  0  0  0  0  0
  -21.3730   -4.5150   24.8610 C   0  0  0  0  0  0  0  0  0  0  0  0
  -21.7800   -3.9760   23.6290 C   0  0  0  0  0  3  0  0  0  0  0  0
  -21.8820   -4.8050   22.4980 C   0  0  0  0  0  0  0  0  0  0  0  0
  -22.2540   -4.2750   21.3070 F   0  0  0  0  0  0  0  0  0  0  0  0
  -21.2730   -3.7130   25.9480 F   0  0  0  0  0  0  0  0  0  0  0  0
  -22.7540  -13.5640   21.1470 C   0  0  0  0  0  0  0  0  0  0  0  0
  -22.0190  -12.8670   22.0060 N   0  0  0  0  0  0  0  0  0  0  0  0
  -22.3240  -14.5950   20.6290 O   0  0  0  0  0  0  0  0  0  0  0  0
  -22.3760  -12.0330   22.4490 H   0  0  0  0  0  0  0  0  0  0  0  0
  -21.0790  -13.1690   22.2180 H   0  0  0  0  0  0  0  0  0  0  0  0
  -25.3910  -15.2270   20.3560 N   0  0  0  0  0  0  0  0  0  0  0  0
  -24.6250  -15.8840   20.4450 H   0  0  0  0  0  0  0  0  0  0  0  0
  -26.2540  -15.6620   20.0520 H   0  0  0  0  0  0  0  0  0  0  0  0
  1  2  1  0
  1  3  1  0
  2  4  1  0
  3  4  1  0
  3 50  1  0
  4  6  1  0
  4  5  1  1
  6  7  1  0
  8  7  2  0
  8  9  1  0
 10 21  2  0
 11  9  1  0
 11 16  1  0
 12 20  1  0
 12 22  1  0
 13 19  1  0
 13 15  1  0
 14 20  1  0
 15 14  1  0
 16 15  2  0
 17 18  1  0
 17 11  2  0
 18 13  2  0
 19 12  1  0
 20 10  1  0
 22 24  2  0
 23 22  1  0
 25 23  1  0
 26 35  2  0
 26 31  1  0
 27 23  1  0
 27 31  1  0
 28 27  1  0
 29 30  1  0
 29 28  1  0
 30 26  1  0
 31 32  2  0
 32 33  1  0
 34 33  2  0
 35 34  1  0
 36 10  1  0
 36 37  1  0
 36 46  1  0
 37 40  1  0
 38 42  1  0
 38 37  1  0
 39 38  2  0
 42 41  1  0
 44 42  1  0
 44 45  1  0
 44 43  1  0
 46 49  1  1
 46 47  1  0
 48 46  1  0
 50 51  1  0
 50 54  1  0
 52 53  1  0
 53 51  1  0
 54 63  1  0
 55 63  1  0
 56 61  1  0
 57 58  1  0
 57 56  1  0
 59 58  1  0
 59 68  1  0
 59 60  1  0
 61 55  1  0
 61 60  1  0
 62 55  2  0
 63 64  1  0
 65 66  2  0
 66 85  1  0
 67 66  1  0
 67 70  1  0
 68 65  1  0
 68 69  1  0
 69 67  2  0
 70 71  1  0
 71 72  2  0
 73 76  1  0
 73 72  1  0
 74 73  2  0
 75 74  1  0
 75 70  2  0
 76 77  1  0
 77 78  1  0
 78 79  2  0
 80 79  1  0
 80 84  1  0
 81 80  2  0
 82 77  2  0
 82 81  1  0
 83 82  1  0
 85 86  1  0
 86 89  1  0
 86 88  1  0
 87 85  2  0
 90 91  1  0
 90 65  1  0
 92 90  1  0
M  ISO  4   8 101   9 101  55 100  63 100
M  END
>  <TORSDO>  (80) 
F 23

>  <SCORE>  (80) 
-12.730

>  <name>  (80) 
79

>  <ligand_id>  (80) 
79

>  <original_smiles>  (80) 
[H]c1c([H])c([H])c2c(c1[H])C([H])([H])C([H])([H])C([H])([H])C2([H])N([H])C(=O)C1([H])N(C(=O)C([H])(N([H])C(=O)C([H])(N([H])C([H])([H])[H])C([H])([H])[H])C(C([H])([H])[H])(C([H])([H])[H])C([H])([H])[H])C([H])([H])c2c([H])c(OC([H])([H])C([H])([H])C([H])([H])[N+]3([H])C([H])([H])C([H])([H])C3([H])C([H])(C([H])([H])N([H])C(=O)N3C([H])([H])C([H])([H])C([H])([H])C([H])(n4nc(-c5c([H])c([H])c(Oc6c([H])c([H])c(F)c([H])c6F)c([H])c5[H])c(C(=O)N([H])[H])c4N([H])[H])C3([H])[H])C([H])([H])C([H])([H])C([H])([H])[H])c([H])c([H])c2C1([H])[H]

>  <smiles>  (80) 
[H]c1c([H])c([H])c2c(c1[H])C([H])([H])C([H])([H])C([H])([H])C2([H])N([H])C(=O)C1([H])N(C(=O)C([H])(N([H])C(=O)C([H])(N([H])C([H])([H])[H])C([H])([H])[H])C(C([H])([H])[H])(C([H])([H])[H])C([H])([H])[H])C([H])([H])c2c([H])c(OC([H])([H])C([H])([H])C([H])([H])[N+]3([H])C([H])([H])C([H])([H])C3([H])C([H])(C([H])([H])N([H])C(=O)N3C([H])([H])C([H])([H])C([H])([H])C([H])(n4nc(-c5c([H])c([H])c(Oc6c([H])c([H])c(F)c([H])c6F)c([H])c5[H])c(C(=O)N([H])[H])c4N([H])[H])C3([H])[H])C([H])([H])C([H])([H])C([H])([H])[H])c([H])c([H])c2C1([H])[H]

$$$$
80:0:0
     RDKit          3D

 91 99  0  0  1  0  0  0  0  0999 V2000
  -27.1710  -22.2230   20.7040 C   0  0  0  0  0  2  0  0  0  0  0  0
  -28.8680  -21.1330   20.1290 C   0  0  0  0  0  3  0  0  0  0  0  0
  -28.6580  -22.5800   20.7880 C   0  0  0  0  0  3  0  0  0  0  0  0
  -27.5270  -20.8160   20.6010 N   0  0  0  0  0  4  0  0  0  0  0  0
  -26.9730  -20.2920   19.9430 H   0  0  0  0  0  0  0  0  0  0  0  0
  -27.5620  -20.3760   21.5050 H   0  0  0  0  0  0  0  0  0  0  0  0
  -29.8110  -20.0180   20.7060 C   0  0  0  0  0  0  0  0  0  0  0  0
  -30.7610  -20.2460   21.4600 O   0  0  0  0  0  0  0  0  0  0  0  0
  -29.5180  -18.4980   20.3340 C   0  0  0  0  0  3  0  0  0  0  0  0
  -30.5440  -17.3620   20.8030 C   0  0  0  0  0  3  0  0  0  0  0  0
  -30.8660  -14.8150   20.4140 C   0  0  0  0  0  0  0  0  0  0  0  0
  -30.6390  -12.5920   19.3310 C   0  0  0  0  0  2  0  0  0  0  0  0
  -29.7050  -12.7230   18.1080 C   0  0  0  0  0  2  0  0  0  0  0  0
  -28.2310  -12.5580   18.5260 C   0  0  0  0  0  2  0  0  0  0  0  0
  -27.8610  -13.4180   19.7640 C   0  0  0  0  0  3  0  0  0  0  0  0
  -28.9100  -13.2740   20.8880 C   0  0  0  0  0  2  0  0  0  0  0  0
  -30.2210  -13.6110   20.3150 N   0  0  0  0  0  0  0  0  0  0  0  0
  -32.0400  -14.9430   20.0620 O   0  0  0  0  0  0  0  0  0  0  0  0
  -30.1060  -15.9140   20.7250 N   0  0  0  0  0  0  0  0  0  0  0  0
  -29.1460  -15.7190   20.9620 H   0  0  0  0  0  0  0  0  0  0  0  0
  -25.4640  -14.0090   20.4720 C   0  0  0  0  0  0  0  0  0  0  0  0
  -24.3950  -13.2320   20.8280 C   0  0  0  0  0  0  0  0  0  0  0  0
  -24.8580  -11.8810   20.7910 C   0  0  0  0  0  0  0  0  0  0  0  0
  -26.5100  -13.1310   20.2380 N   0  0  0  0  0  0  0  0  0  0  0  0
  -26.1520  -11.8460   20.4910 N   0  0  0  0  0  0  0  0  0  0  0  0
  -24.1330  -10.6160   20.9640 C   0  0  0  0  0  0  0  0  0  0  0  0
  -24.5400   -9.6540   21.9150 C   0  0  0  0  0  3  0  0  0  0  0  0
  -23.8130   -8.4540   22.0760 C   0  0  0  0  0  3  0  0  0  0  0  0
  -22.6650   -8.2080   21.2870 C   0  0  0  0  0  0  0  0  0  0  0  0
  -22.2770   -9.1590   20.3260 C   0  0  0  0  0  3  0  0  0  0  0  0
  -23.0050  -10.3490   20.1620 C   0  0  0  0  0  3  0  0  0  0  0  0
  -21.9140   -7.0600   21.3560 O   0  0  0  0  0  0  0  0  0  0  0  0
  -21.8110   -6.3360   22.5160 C   0  0  0  0  0  0  0  0  0  0  0  0
  -21.2730   -6.8940   23.6970 C   0  0  0  0  0  3  0  0  0  0  0  0
  -21.1200   -6.0950   24.8470 C   0  0  0  0  0  3  0  0  0  0  0  0
  -21.4960   -4.7390   24.8190 C   0  0  0  0  0  0  0  0  0  0  0  0
  -22.0280   -4.1810   23.6430 C   0  0  0  0  0  3  0  0  0  0  0  0
  -22.1820   -4.9770   22.4950 C   0  0  0  0  0  0  0  0  0  0  0  0
  -22.6750   -4.4280   21.3580 F   0  0  0  0  0  0  0  0  0  0  0  0
  -21.3440   -3.9680   25.9210 F   0  0  0  0  0  0  0  0  0  0  0  0
  -22.9940  -13.7060   21.0910 C   0  0  0  0  0  0  0  0  0  0  0  0
  -22.2570  -12.9990   21.9410 N   0  0  0  0  0  0  0  0  0  0  0  0
  -22.5620  -14.7380   20.5780 O   0  0  0  0  0  0  0  0  0  0  0  0
  -22.6190  -12.1650   22.3770 H   0  0  0  0  0  0  0  0  0  0  0  0
  -21.3170  -13.2990   22.1590 H   0  0  0  0  0  0  0  0  0  0  0  0
  -25.6290  -15.3800   20.3050 N   0  0  0  0  0  0  0  0  0  0  0  0
  -24.8570  -16.0310   20.4000 H   0  0  0  0  0  0  0  0  0  0  0  0
  -26.4680  -15.8130   19.9390 H   0  0  0  0  0  0  0  0  0  0  0  0
  -29.0490  -24.0090   20.2000 C   0  0  0  0  0  3  0  0  0  0  0  0
  -28.2770  -25.2580   20.8310 C   0  0  0  0  0  3  0  0  0  0  0  0
  -28.4780  -26.6360   20.3220 O   0  0  0  0  0  0  0  0  0  0  0  0
  -24.5740  -31.9490   23.2680 C   0  0  0  0  0  0  0  0  0  0  0  0
  -27.3470  -27.4610   20.2760 C   0  0  0  0  0  0  0  0  0  0  0  0
  -23.4310  -30.5200   21.6090 C   0  0  0  0  0  3  0  0  0  0  0  0
  -24.9440  -29.0020   20.2130 C   0  0  0  0  0  0  0  0  0  0  0  0
  -25.9630  -30.9040   21.4680 C   0  0  0  0  0  2  0  0  0  0  0  0
  -26.0890  -29.5260   20.8270 C   0  0  0  0  0  0  0  0  0  0  0  0
  -27.2970  -28.7680   20.8490 C   0  0  0  0  0  3  0  0  0  0  0  0
  -26.1850  -26.9880   19.6290 C   0  0  0  0  0  3  0  0  0  0  0  0
  -24.9940  -27.7380   19.6020 C   0  0  0  0  0  3  0  0  0  0  0  0
  -23.6860  -29.8450   20.2340 C   0  0  0  0  0  2  0  0  0  0  0  0
  -24.6730  -31.1410   22.1720 N   0  0  0  0  0  0  0  0  0  0  0  0
  -23.4760  -32.2010   23.7850 O   0  0  0  0  0  0  0  0  0  0  0  0
  -22.7760  -29.4900   22.5600 C   0  0  0  0  0  0  0  0  0  0  0  0
  -21.4560  -29.2840   22.4120 N   0  0  0  0  0  0  0  0  0  0  0  0
  -23.4540  -28.8790   23.3900 O   0  0  0  0  0  0  0  0  0  0  0  0
  -20.9670  -29.8300   21.7160 H   0  0  0  0  0  0  0  0  0  0  0  0
  -18.0920  -28.0430   22.8840 C   0  0  0  0  0  0  0  0  0  0  0  0
  -20.6450  -28.3300   23.1700 C   0  0  0  0  0  3  0  0  0  0  0  0
  -20.7670  -26.9040   22.5830 C   0  0  0  0  0  2  0  0  0  0  0  0
  -19.6730  -26.5780   21.5590 C   0  0  0  0  0  2  0  0  0  0  0  0
  -18.2860  -26.7020   22.1970 C   0  0  0  0  0  2  0  0  0  0  0  0
  -19.1990  -28.8150   23.3260 C   0  0  0  0  0  0  0  0  0  0  0  0
  -18.9630  -30.0700   23.9270 C   0  0  0  0  0  3  0  0  0  0  0  0
  -17.6520  -30.5550   24.0890 C   0  0  0  0  0  3  0  0  0  0  0  0
  -16.5580  -29.7820   23.6630 C   0  0  0  0  0  3  0  0  0  0  0  0
  -16.7790  -28.5270   23.0650 C   0  0  0  0  0  3  0  0  0  0  0  0
  -25.8310  -32.6100   23.9120 C   0  0  0  0  0  3  0  0  0  0  0  0
  -25.4940  -34.0100   24.2080 N   0  0  0  0  0  0  0  0  0  0  0  0
  -25.8320  -35.0540   23.4390 C   0  0  0  0  0  0  0  0  0  0  0  0
  -26.5310  -34.9420   22.4280 O   0  0  0  0  0  0  0  0  0  0  0  0
  -24.8760  -34.1690   24.9900 H   0  0  0  0  0  0  0  0  0  0  0  0
  -24.1010  -36.8240   22.9950 C   0  0  0  0  0  1  0  0  0  0  0  0
  -25.3140  -36.4440   23.8580 C   0  0  0  0  0  3  0  0  0  0  0  0
  -27.3990  -37.3700   24.7650 C   0  0  0  0  0  1  0  0  0  0  0  0
  -26.3400  -37.5050   23.7690 N   0  0  0  0  0  0  0  0  0  0  0  0
  -25.9170  -38.4240   23.8780 H   0  0  0  0  0  0  0  0  0  0  0  0
  -26.3240  -31.8700   25.2160 C   0  0  1  0  0  0  0  0  0  0  0  0
  -25.2040  -31.6260   26.2530 C   0  0  0  0  0  1  0  0  0  0  0  0
  -26.9490  -30.5000   24.8640 C   0  0  0  0  0  1  0  0  0  0  0  0
  -27.4360  -32.7000   25.8990 C   0  0  0  0  0  1  0  0  0  0  0  0
  1  3  1  0
  2  4  1  0
  2  7  1  0
  2  3  1  0
  3 49  1  0
  4  1  1  0
  4  6  1  0
  5  4  1  0
  7  8  2  0
  9  7  1  0
  9 10  2  0
 11 19  1  0
 12 17  1  0
 13 14  1  0
 13 12  1  0
 15 14  1  0
 15 24  1  0
 15 16  1  0
 17 11  1  0
 17 16  1  0
 18 11  2  0
 19 10  1  0
 19 20  1  0
 21 22  2  0
 22 41  1  0
 23 22  1  0
 23 26  1  0
 24 21  1  0
 24 25  1  0
 25 23  2  0
 26 27  1  0
 27 28  2  0
 29 32  1  0
 29 28  1  0
 30 29  2  0
 31 30  1  0
 31 26  2  0
 32 33  1  0
 33 34  1  0
 34 35  2  0
 36 35  1  0
 36 40  1  0
 37 36  2  0
 38 33  2  0
 38 37  1  0
 39 38  1  0
 41 42  1  0
 42 45  1  0
 42 44  1  0
 43 41  2  0
 46 47  1  0
 46 21  1  0
 48 46  1  0
 49 50  2  0
 51 50  1  0
 52 63  2  0
 53 51  1  0
 53 58  1  0
 54 62  1  0
 54 64  1  0
 55 61  1  0
 55 57  1  0
 56 62  1  0
 57 58  2  0
 57 56  1  0
 59 53  2  0
 60 59  1  0
 60 55  2  0
 61 54  1  0
 62 52  1  0
 64 66  2  0
 65 64  1  0
 67 65  1  0
 68 77  2  0
 68 73  1  0
 69 65  1  0
 69 73  1  0
 70 69  1  0
 71 72  1  0
 71 70  1  0
 72 68  1  0
 73 74  2  0
 74 75  1  0
 76 75  2  0
 77 76  1  0
 78 52  1  0
 78 79  1  0
 78 88  1  0
 79 82  1  0
 80 84  1  0
 80 79  1  0
 81 80  2  0
 84 83  1  0
 86 84  1  0
 86 87  1  0
 86 85  1  0
 88 91  1  1
 88 89  1  0
 90 88  1  0
M  ISO  4  11 100  19 100  50 101  51 101
M  END
>  <TORSDO>  (81) 
F 21

>  <SCORE>  (81) 
-13.326

>  <name>  (81) 
80

>  <ligand_id>  (81) 
80

>  <original_smiles>  (81) 
[H]c1c([H])c([H])c2c(c1[H])C([H])([H])C([H])([H])C([H])([H])C2([H])N([H])C(=O)C1([H])N(C(=O)C([H])(N([H])C(=O)C([H])(N([H])C([H])([H])[H])C([H])([H])[H])C(C([H])([H])[H])(C([H])([H])[H])C([H])([H])[H])C([H])([H])c2c([H])c(OC([H])([H])C([H])([H])C3([H])C([H])([H])[N+]([H])([H])C3([H])C(=O)C([H])([H])C([H])([H])N([H])C(=O)N3C([H])([H])C([H])([H])C([H])([H])C([H])(n4nc(-c5c([H])c([H])c(Oc6c([H])c([H])c(F)c([H])c6F)c([H])c5[H])c(C(=O)N([H])[H])c4N([H])[H])C3([H])[H])c([H])c([H])c2C1([H])[H]

>  <smiles>  (81) 
[H]c1c([H])c([H])c2c(c1[H])C([H])([H])C([H])([H])C([H])([H])C2([H])N([H])C(=O)C1([H])N(C(=O)C([H])(N([H])C(=O)C([H])(N([H])C([H])([H])[H])C([H])([H])[H])C(C([H])([H])[H])(C([H])([H])[H])C([H])([H])[H])C([H])([H])c2c([H])c(OC([H])([H])C([H])([H])C3([H])C([H])([H])[N+]([H])([H])C3([H])C(=O)C([H])([H])C([H])([H])N([H])C(=O)N3C([H])([H])C([H])([H])C([H])([H])C([H])(n4nc(-c5c([H])c([H])c(Oc6c([H])c([H])c(F)c([H])c6F)c([H])c5[H])c(C(=O)N([H])[H])c4N([H])[H])C3([H])[H])c([H])c([H])c2C1([H])[H]

$$$$
81:0:0
     RDKit          3D

 94102  0  0  1  0  0  0  0  0999 V2000
  -28.8240  -21.6380   21.7010 C   0  0  0  0  0  2  0  0  0  0  0  0
  -28.4180  -23.1230   21.3900 C   0  0  0  0  0  3  0  0  0  0  0  0
  -28.8220  -20.8100   20.3890 C   0  0  0  0  0  3  0  0  0  0  0  0
  -28.9870  -23.4360   19.9770 C   0  0  0  0  0  3  0  0  0  0  0  0
  -29.1260  -21.9740   19.3920 N   0  0  0  0  0  4  0  0  0  0  0  0
  -28.5230  -21.8780   18.5890 H   0  0  0  0  0  0  0  0  0  0  0  0
  -30.0710  -21.8710   19.0500 H   0  0  0  0  0  0  0  0  0  0  0  0
  -28.9640  -24.0770   22.4670 C   0  0  0  0  0  0  0  0  0  0  0  0
  -28.1270  -24.9460   23.0240 N   0  0  0  0  0  0  0  0  0  0  0  0
  -30.1400  -24.0230   22.8200 O   0  0  0  0  0  0  0  0  0  0  0  0
  -27.1580  -24.9920   22.7430 H   0  0  0  0  0  0  0  0  0  0  0  0
  -28.4540  -25.5600   23.7570 H   0  0  0  0  0  0  0  0  0  0  0  0
  -29.6890  -19.3380   20.5890 C   0  0  0  0  0  2  0  0  0  0  0  0
  -29.6230  -17.8440   19.7790 C   0  0  0  0  0  2  0  0  0  0  0  0
  -30.4230  -15.1820   20.1530 C   0  0  0  0  0  0  0  0  0  0  0  0
  -30.3440  -12.7790   19.3160 C   0  0  0  0  0  2  0  0  0  0  0  0
  -29.4120  -12.6730   18.0840 C   0  0  0  0  0  2  0  0  0  0  0  0
  -27.9530  -12.4480   18.5250 C   0  0  0  0  0  2  0  0  0  0  0  0
  -27.5340  -13.3990   19.6770 C   0  0  0  0  0  3  0  0  0  0  0  0
  -28.5930  -13.4800   20.8000 C   0  0  0  0  0  2  0  0  0  0  0  0
  -29.8570  -13.8990   20.1790 N   0  0  0  0  0  0  0  0  0  0  0  0
  -31.5890  -15.2660   19.7590 O   0  0  0  0  0  0  0  0  0  0  0  0
  -29.6330  -16.3550   20.3730 N   0  0  0  0  0  0  0  0  0  0  0  0
  -28.7450  -16.1160   20.7930 H   0  0  0  0  0  0  0  0  0  0  0  0
  -25.1690  -13.9500   20.4820 C   0  0  0  0  0  0  0  0  0  0  0  0
  -24.1160  -13.1660   20.8670 C   0  0  0  0  0  0  0  0  0  0  0  0
  -24.5820  -11.8170   20.7960 C   0  0  0  0  0  0  0  0  0  0  0  0
  -26.2090  -13.0830   20.1980 N   0  0  0  0  0  0  0  0  0  0  0  0
  -25.8670  -11.7920   20.4540 N   0  0  0  0  0  0  0  0  0  0  0  0
  -23.8610  -10.5500   20.9780 C   0  0  0  0  0  0  0  0  0  0  0  0
  -24.3050   -9.5760   21.9000 C   0  0  0  0  0  3  0  0  0  0  0  0
  -23.5870   -8.3720   22.0670 C   0  0  0  0  0  3  0  0  0  0  0  0
  -22.4080   -8.1370   21.3210 C   0  0  0  0  0  0  0  0  0  0  0  0
  -21.9820   -9.1020   20.3920 C   0  0  0  0  0  3  0  0  0  0  0  0
  -22.7000  -10.2990   20.2200 C   0  0  0  0  0  3  0  0  0  0  0  0
  -21.6530   -6.9910   21.4060 O   0  0  0  0  0  0  0  0  0  0  0  0
  -21.6120   -6.2390   22.5530 C   0  0  0  0  0  0  0  0  0  0  0  0
  -21.1450   -6.7700   23.7760 C   0  0  0  0  0  3  0  0  0  0  0  0
  -21.0540   -5.9400   24.9120 C   0  0  0  0  0  3  0  0  0  0  0  0
  -21.4190   -4.5830   24.8280 C   0  0  0  0  0  0  0  0  0  0  0  0
  -21.8750   -4.0530   23.6080 C   0  0  0  0  0  3  0  0  0  0  0  0
  -21.9720   -4.8780   22.4750 C   0  0  0  0  0  0  0  0  0  0  0  0
  -22.3930   -4.3550   21.2980 F   0  0  0  0  0  0  0  0  0  0  0  0
  -21.3260   -3.7860   25.9160 F   0  0  0  0  0  0  0  0  0  0  0  0
  -22.7260  -13.6350   21.1830 C   0  0  0  0  0  0  0  0  0  0  0  0
  -22.0150  -12.9190   22.0480 N   0  0  0  0  0  0  0  0  0  0  0  0
  -22.2770  -14.6710   20.6960 O   0  0  0  0  0  0  0  0  0  0  0  0
  -22.3940  -12.0850   22.4730 H   0  0  0  0  0  0  0  0  0  0  0  0
  -21.0820  -13.2150   22.2940 H   0  0  0  0  0  0  0  0  0  0  0  0
  -25.3310  -15.3270   20.3220 N   0  0  0  0  0  0  0  0  0  0  0  0
  -24.5690  -15.9830   20.4480 H   0  0  0  0  0  0  0  0  0  0  0  0
  -26.1660  -15.7570   19.9440 H   0  0  0  0  0  0  0  0  0  0  0  0
  -28.2720  -24.7430   19.1540 C   0  0  0  0  0  2  0  0  0  0  0  0
  -28.4090  -26.2900   19.4010 O   0  0  0  0  0  0  0  0  0  0  0  0
  -24.7310  -31.6120   22.9100 C   0  0  0  0  0  0  0  0  0  0  0  0
  -27.3170  -27.2420   19.3980 C   0  0  0  0  0  0  0  0  0  0  0  0
  -23.5000  -30.3130   21.2120 C   0  0  0  0  0  3  0  0  0  0  0  0
  -24.9340  -28.9120   19.5950 C   0  0  0  0  0  0  0  0  0  0  0  0
  -26.0340  -30.6780   20.9610 C   0  0  0  0  0  2  0  0  0  0  0  0
  -26.1230  -29.3440   20.1960 C   0  0  0  0  0  0  0  0  0  0  0  0
  -27.3080  -28.5230   20.0860 C   0  0  0  0  0  3  0  0  0  0  0  0
  -26.1060  -26.9350   18.7360 C   0  0  0  0  0  3  0  0  0  0  0  0
  -24.9400  -27.7250   18.8450 C   0  0  0  0  0  3  0  0  0  0  0  0
  -23.6810  -29.7550   19.7730 C   0  0  0  0  0  2  0  0  0  0  0  0
  -24.7770  -30.8880   21.7500 N   0  0  0  0  0  0  0  0  0  0  0  0
  -23.6620  -31.8110   23.5080 O   0  0  0  0  0  0  0  0  0  0  0  0
  -22.9020  -29.2040   22.1160 C   0  0  0  0  0  0  0  0  0  0  0  0
  -21.5750  -29.0000   22.0370 N   0  0  0  0  0  0  0  0  0  0  0  0
  -23.6350  -28.5330   22.8460 O   0  0  0  0  0  0  0  0  0  0  0  0
  -21.0390  -29.6050   21.4280 H   0  0  0  0  0  0  0  0  0  0  0  0
  -18.2590  -27.6570   22.6040 C   0  0  0  0  0  0  0  0  0  0  0  0
  -20.8210  -27.9730   22.7610 C   0  0  0  0  0  3  0  0  0  0  0  0
  -20.9280  -26.6000   22.0570 C   0  0  0  0  0  2  0  0  0  0  0  0
  -19.7830  -26.3340   21.0750 C   0  0  0  0  0  2  0  0  0  0  0  0
  -18.4350  -26.3780   21.8010 C   0  0  0  0  0  2  0  0  0  0  0  0
  -19.3780  -28.4140   23.0410 C   0  0  0  0  0  0  0  0  0  0  0  0
  -19.1580  -29.6120   23.7560 C   0  0  0  0  0  3  0  0  0  0  0  0
  -17.8520  -30.0500   24.0390 C   0  0  0  0  0  3  0  0  0  0  0  0
  -16.7470  -29.2900   23.6170 C   0  0  0  0  0  3  0  0  0  0  0  0
  -16.9530  -28.0950   22.9020 C   0  0  0  0  0  3  0  0  0  0  0  0
  -26.0140  -32.2400   23.5350 C   0  0  0  0  0  3  0  0  0  0  0  0
  -26.6110  -31.3860   24.7210 C   0  0  1  0  0  0  0  0  0  0  0  0
  -25.5770  -31.0330   25.8170 C   0  0  0  0  0  1  0  0  0  0  0  0
  -27.2100  -30.0620   24.1960 C   0  0  0  0  0  1  0  0  0  0  0  0
  -27.7710  -32.1600   25.3920 C   0  0  0  0  0  1  0  0  0  0  0  0
  -25.6700  -33.5930   24.0000 N   0  0  0  0  0  0  0  0  0  0  0  0
  -25.9700  -34.7260   23.3530 C   0  0  0  0  0  0  0  0  0  0  0  0
  -26.6330  -34.7450   22.3120 O   0  0  0  0  0  0  0  0  0  0  0  0
  -25.0770  -33.6500   24.8160 H   0  0  0  0  0  0  0  0  0  0  0  0
  -24.2080  -36.5200   23.1840 C   0  0  0  0  0  1  0  0  0  0  0  0
  -25.4550  -36.0510   23.9520 C   0  0  0  0  0  3  0  0  0  0  0  0
  -27.5660  -36.8890   24.8890 C   0  0  0  0  0  1  0  0  0  0  0  0
  -26.4670  -37.1300   23.9560 N   0  0  0  0  0  0  0  0  0  0  0  0
  -26.0410  -38.0220   24.1920 H   0  0  0  0  0  0  0  0  0  0  0  0
  2  1  1  0
  2  8  1  0
  3 13  1  0
  3  1  1  0
  4 53  1  0
  4  2  1  0
  5  4  1  0
  5  3  1  0
  6  5  1  0
  7  5  1  0
  8 10  2  0
  8  9  1  0
  9 12  1  0
 11  9  1  0
 14 23  1  0
 14 13  1  0
 15 21  1  0
 15 23  1  0
 16 21  1  0
 17 18  1  0
 17 16  1  0
 19 18  1  0
 19 28  1  0
 19 20  1  0
 21 20  1  0
 22 15  2  0
 23 24  1  0
 25 26  2  0
 26 45  1  0
 27 26  1  0
 27 30  1  0
 28 29  1  0
 28 25  1  0
 29 27  2  0
 30 31  1  0
 31 32  2  0
 33 36  1  0
 33 32  1  0
 34 33  2  0
 35 34  1  0
 35 30  2  0
 36 37  1  0
 37 38  1  0
 38 39  2  0
 40 39  1  0
 40 44  1  0
 41 40  2  0
 42 37  2  0
 42 41  1  0
 43 42  1  0
 45 46  1  0
 46 49  1  0
 46 48  1  0
 47 45  2  0
 50 51  1  0
 50 25  1  0
 52 50  1  0
 53 54  1  0
 55 66  2  0
 56 54  1  0
 56 61  1  0
 57 65  1  0
 57 67  1  0
 58 64  1  0
 58 60  1  0
 59 65  1  0
 60 59  1  0
 61 60  2  0
 62 63  1  0
 62 56  2  0
 63 58  2  0
 64 57  1  0
 65 55  1  0
 67 69  2  0
 68 67  1  0
 70 68  1  0
 71 80  2  0
 71 76  1  0
 72 68  1  0
 72 76  1  0
 73 72  1  0
 74 75  1  0
 74 73  1  0
 75 71  1  0
 76 77  2  0
 77 78  1  0
 79 78  2  0
 80 79  1  0
 81 55  1  0
 81 86  1  0
 81 82  1  0
 82 85  1  1
 82 83  1  0
 84 82  1  0
 86 89  1  0
 87 91  1  0
 87 86  1  0
 88 87  2  0
 91 90  1  0
 91 93  1  0
 93 94  1  0
 93 92  1  0
M  ISO  4  15 100  23 100  53 101  54 101
M  END
>  <TORSDO>  (82) 
F 20

>  <SCORE>  (82) 
-14.645

>  <name>  (82) 
81

>  <ligand_id>  (82) 
81

>  <original_smiles>  (82) 
[H]c1c([H])c([H])c2c(c1[H])C([H])([H])C([H])([H])C([H])([H])C2([H])N([H])C(=O)C1([H])N(C(=O)C([H])(N([H])C(=O)C([H])(N([H])C([H])([H])[H])C([H])([H])[H])C(C([H])([H])[H])(C([H])([H])[H])C([H])([H])[H])C([H])([H])c2c([H])c(OC([H])([H])C3([H])C([H])(C(=O)N([H])[H])C([H])([H])C([H])(C([H])([H])C([H])([H])N([H])C(=O)N4C([H])([H])C([H])([H])C([H])([H])C([H])(n5nc(-c6c([H])c([H])c(Oc7c([H])c([H])c(F)c([H])c7F)c([H])c6[H])c(C(=O)N([H])[H])c5N([H])[H])C4([H])[H])[N+]3([H])[H])c([H])c([H])c2C1([H])[H]

>  <smiles>  (82) 
[H]c1c([H])c([H])c2c(c1[H])C([H])([H])C([H])([H])C([H])([H])C2([H])N([H])C(=O)C1([H])N(C(=O)C([H])(N([H])C(=O)C([H])(N([H])C([H])([H])[H])C([H])([H])[H])C(C([H])([H])[H])(C([H])([H])[H])C([H])([H])[H])C([H])([H])c2c([H])c(OC([H])([H])C3([H])C([H])(C(=O)N([H])[H])C([H])([H])C([H])(C([H])([H])C([H])([H])N([H])C(=O)N4C([H])([H])C([H])([H])C([H])([H])C([H])(n5nc(-c6c([H])c([H])c(Oc7c([H])c([H])c(F)c([H])c7F)c([H])c6[H])c(C(=O)N([H])[H])c5N([H])[H])C4([H])[H])[N+]3([H])[H])c([H])c([H])c2C1([H])[H]

$$$$
82:0:0
     RDKit          3D

 89 97  0  0  1  0  0  0  0  0999 V2000
  -29.2430  -22.8760   19.8220 C   0  0  0  0  0  0  0  0  0  0  0  0
  -29.4620  -22.4370   18.6880 O   0  0  0  0  0  0  0  0  0  0  0  0
  -29.2550  -24.8520   21.5620 C   0  0  0  0  0  2  0  0  0  0  0  0
  -29.5360  -24.3390   20.1590 C   0  0  0  0  0  3  0  0  0  0  0  0
  -28.3340  -25.2540   20.4360 C   0  0  0  0  0  3  0  0  0  0  0  0
  -28.4350  -26.6740   20.1640 O   0  0  0  0  0  0  0  0  0  0  0  0
  -24.6100  -31.8760   23.2360 C   0  0  0  0  0  0  0  0  0  0  0  0
  -27.2530  -27.4030   20.1720 C   0  0  0  0  0  0  0  0  0  0  0  0
  -23.4010  -30.4690   21.5970 C   0  0  0  0  0  3  0  0  0  0  0  0
  -24.8530  -28.9200   20.1800 C   0  0  0  0  0  0  0  0  0  0  0  0
  -25.9290  -30.8170   21.4010 C   0  0  0  0  0  2  0  0  0  0  0  0
  -26.0140  -29.4420   20.7650 C   0  0  0  0  0  0  0  0  0  0  0  0
  -27.2150  -28.6920   20.7550 C   0  0  0  0  0  3  0  0  0  0  0  0
  -26.0720  -26.9030   19.5770 C   0  0  0  0  0  3  0  0  0  0  0  0
  -24.8770  -27.6470   19.5850 C   0  0  0  0  0  3  0  0  0  0  0  0
  -23.6120  -29.7850   20.2200 C   0  0  0  0  0  2  0  0  0  0  0  0
  -24.6640  -31.0740   22.1360 N   0  0  0  0  0  0  0  0  0  0  0  0
  -23.5300  -32.1490   23.7760 O   0  0  0  0  0  0  0  0  0  0  0  0
  -22.7480  -29.4540   22.5630 C   0  0  0  0  0  0  0  0  0  0  0  0
  -21.4230  -29.2730   22.4420 N   0  0  0  0  0  0  0  0  0  0  0  0
  -23.4330  -28.8340   23.3800 O   0  0  0  0  0  0  0  0  0  0  0  0
  -20.9300  -29.8250   21.7540 H   0  0  0  0  0  0  0  0  0  0  0  0
  -18.0530  -28.0680   22.9500 C   0  0  0  0  0  0  0  0  0  0  0  0
  -20.6100  -28.3360   23.2200 C   0  0  0  0  0  3  0  0  0  0  0  0
  -20.7150  -26.9000   22.6560 C   0  0  0  0  0  2  0  0  0  0  0  0
  -19.6170  -26.5700   21.6390 C   0  0  0  0  0  2  0  0  0  0  0  0
  -18.2330  -26.7160   22.2780 C   0  0  0  0  0  2  0  0  0  0  0  0
  -19.1700  -28.8350   23.3770 C   0  0  0  0  0  0  0  0  0  0  0  0
  -18.9470  -30.1000   23.9640 C   0  0  0  0  0  3  0  0  0  0  0  0
  -17.6410  -30.6000   24.1220 C   0  0  0  0  0  3  0  0  0  0  0  0
  -16.5390  -29.8300   23.7090 C   0  0  0  0  0  3  0  0  0  0  0  0
  -16.7470  -28.5660   23.1300 C   0  0  0  0  0  3  0  0  0  0  0  0
  -25.8980  -32.5090   23.8520 C   0  0  0  0  0  3  0  0  0  0  0  0
  -25.5900  -33.9080   24.1830 N   0  0  0  0  0  0  0  0  0  0  0  0
  -25.9190  -34.9580   23.4220 C   0  0  0  0  0  0  0  0  0  0  0  0
  -26.5830  -34.8540   22.3870 O   0  0  0  0  0  0  0  0  0  0  0  0
  -24.9940  -34.0620   24.9840 H   0  0  0  0  0  0  0  0  0  0  0  0
  -24.1870  -36.7480   23.0770 C   0  0  0  0  0  1  0  0  0  0  0  0
  -25.4350  -36.3480   23.8820 C   0  0  0  0  0  3  0  0  0  0  0  0
  -27.5800  -37.2300   24.6870 C   0  0  0  0  0  1  0  0  0  0  0  0
  -26.4650  -37.4030   23.7590 N   0  0  0  0  0  0  0  0  0  0  0  0
  -26.0610  -38.3240   23.9100 H   0  0  0  0  0  0  0  0  0  0  0  0
  -26.4230  -31.7410   25.1250 C   0  0  1  0  0  0  0  0  0  0  0  0
  -25.3370  -31.5140   26.2030 C   0  0  0  0  0  1  0  0  0  0  0  0
  -27.0000  -30.3610   24.7320 C   0  0  0  0  0  1  0  0  0  0  0  0
  -27.5810  -32.5360   25.7730 C   0  0  0  0  0  1  0  0  0  0  0  0
  -28.6100  -21.9730   20.9070 C   0  0  0  0  0  2  0  0  0  0  0  0
  -28.2970  -20.4810   20.6000 C   0  0  0  0  0  2  0  0  0  0  0  0
  -29.4810  -19.4790   20.6990 C   0  0  0  0  0  2  0  0  0  0  0  0
  -29.0600  -17.9770   20.7140 C   0  0  0  0  0  2  0  0  0  0  0  0
  -30.2470  -16.9760   20.8600 C   0  0  0  0  0  2  0  0  0  0  0  0
  -30.6170  -14.5100   20.4160 C   0  0  0  0  0  0  0  0  0  0  0  0
  -30.3720  -12.3130   19.3090 C   0  0  0  0  0  2  0  0  0  0  0  0
  -29.4400  -12.4930   18.0930 C   0  0  0  0  0  2  0  0  0  0  0  0
  -27.9630  -12.3460   18.5140 C   0  0  0  0  0  2  0  0  0  0  0  0
  -27.6110  -13.2080   19.7570 C   0  0  0  0  0  3  0  0  0  0  0  0
  -28.6550  -13.0050   20.8790 C   0  0  0  0  0  2  0  0  0  0  0  0
  -29.9760  -13.3150   20.3150 N   0  0  0  0  0  0  0  0  0  0  0  0
  -31.7610  -14.6850   19.9930 O   0  0  0  0  0  0  0  0  0  0  0  0
  -29.8590  -15.5480   20.8470 N   0  0  0  0  0  0  0  0  0  0  0  0
  -28.9230  -15.3220   21.1470 H   0  0  0  0  0  0  0  0  0  0  0  0
  -25.2140  -13.8380   20.4490 C   0  0  0  0  0  0  0  0  0  0  0  0
  -24.1380  -13.0800   20.8250 C   0  0  0  0  0  0  0  0  0  0  0  0
  -24.5900  -11.7240   20.8130 C   0  0  0  0  0  0  0  0  0  0  0  0
  -26.2530  -12.9460   20.2320 N   0  0  0  0  0  0  0  0  0  0  0  0
  -25.8810  -11.6700   20.5080 N   0  0  0  0  0  0  0  0  0  0  0  0
  -23.8540  -10.4680   21.0130 C   0  0  0  0  0  0  0  0  0  0  0  0
  -24.2860   -9.5020   21.9470 C   0  0  0  0  0  3  0  0  0  0  0  0
  -23.5580   -8.3090   22.1350 C   0  0  0  0  0  3  0  0  0  0  0  0
  -22.3800   -8.0750   21.3870 C   0  0  0  0  0  0  0  0  0  0  0  0
  -21.9670   -9.0270   20.4410 C   0  0  0  0  0  3  0  0  0  0  0  0
  -22.6970  -10.2130   20.2490 C   0  0  0  0  0  3  0  0  0  0  0  0
  -21.6190   -6.9340   21.4840 O   0  0  0  0  0  0  0  0  0  0  0  0
  -21.5790   -6.1920   22.6360 C   0  0  0  0  0  0  0  0  0  0  0  0
  -21.1810   -6.7490   23.8700 C   0  0  0  0  0  3  0  0  0  0  0  0
  -21.0880   -5.9320   25.0160 C   0  0  0  0  0  3  0  0  0  0  0  0
  -21.3820   -4.5580   24.9240 C   0  0  0  0  0  0  0  0  0  0  0  0
  -21.7730   -3.9990   23.6930 C   0  0  0  0  0  3  0  0  0  0  0  0
  -21.8660   -4.8140   22.5520 C   0  0  0  0  0  0  0  0  0  0  0  0
  -22.2240   -4.2660   21.3650 F   0  0  0  0  0  0  0  0  0  0  0  0
  -21.2850   -3.7710   26.0220 F   0  0  0  0  0  0  0  0  0  0  0  0
  -22.7400  -13.5700   21.0840 C   0  0  0  0  0  0  0  0  0  0  0  0
  -21.9990  -12.8900   21.9540 N   0  0  0  0  0  0  0  0  0  0  0  0
  -22.3110  -14.5880   20.5450 O   0  0  0  0  0  0  0  0  0  0  0  0
  -22.3560  -12.0680   22.4180 H   0  0  0  0  0  0  0  0  0  0  0  0
  -21.0610  -13.2060   22.1620 H   0  0  0  0  0  0  0  0  0  0  0  0
  -25.3870  -15.2070   20.2560 N   0  0  0  0  0  0  0  0  0  0  0  0
  -24.6200  -15.8630   20.3420 H   0  0  0  0  0  0  0  0  0  0  0  0
  -26.2340  -15.6360   19.9050 H   0  0  0  0  0  0  0  0  0  0  0  0
  1 47  1  0
  2  1  2  0
  4  1  1  0
  4  5  1  0
  4  3  1  0
  5  6  1  0
  5  3  1  0
  6  8  1  0
  7 18  2  0
  8 13  1  0
  9 17  1  0
  9 19  1  0
 10 16  1  0
 10 12  1  0
 11 17  1  0
 12 11  1  0
 13 12  2  0
 14 15  1  0
 14  8  2  0
 15 10  2  0
 16  9  1  0
 17  7  1  0
 19 21  2  0
 20 19  1  0
 22 20  1  0
 23 32  2  0
 23 28  1  0
 24 20  1  0
 24 28  1  0
 25 24  1  0
 26 27  1  0
 26 25  1  0
 27 23  1  0
 28 29  2  0
 29 30  1  0
 31 30  2  0
 32 31  1  0
 33  7  1  0
 33 34  1  0
 33 43  1  0
 34 37  1  0
 35 39  1  0
 35 34  1  0
 36 35  2  0
 39 38  1  0
 41 39  1  0
 41 42  1  0
 41 40  1  0
 43 46  1  1
 43 44  1  0
 45 43  1  0
 48 49  1  0
 48 47  1  0
 49 50  1  0
 50 51  1  0
 52 60  1  0
 53 58  1  0
 54 55  1  0
 54 53  1  0
 56 55  1  0
 56 65  1  0
 56 57  1  0
 58 52  1  0
 58 57  1  0
 59 52  2  0
 60 51  1  0
 60 61  1  0
 62 63  2  0
 63 82  1  0
 64 63  1  0
 64 67  1  0
 65 62  1  0
 65 66  1  0
 66 64  2  0
 67 68  1  0
 68 69  2  0
 70 73  1  0
 70 69  1  0
 71 70  2  0
 72 71  1  0
 72 67  2  0
 73 74  1  0
 74 75  1  0
 75 76  2  0
 77 76  1  0
 77 81  1  0
 78 77  2  0
 79 74  2  0
 79 78  1  0
 80 79  1  0
 82 83  1  0
 83 86  1  0
 83 85  1  0
 84 82  2  0
 87 88  1  0
 87 62  1  0
 89 87  1  0
M  ISO  4   5 101   6 101  52 100  60 100
M  END
>  <TORSDO>  (83) 
F 22

>  <SCORE>  (83) 
-12.997

>  <name>  (83) 
82

>  <ligand_id>  (83) 
82

>  <original_smiles>  (83) 
[H]c1c([H])c([H])c2c(c1[H])C([H])([H])C([H])([H])C([H])([H])C2([H])N([H])C(=O)C1([H])N(C(=O)C([H])(N([H])C(=O)C([H])(N([H])C([H])([H])[H])C([H])([H])[H])C(C([H])([H])[H])(C([H])([H])[H])C([H])([H])[H])C([H])([H])c2c([H])c(OC3([H])C([H])([H])C3([H])C(=O)C([H])([H])C([H])([H])C([H])([H])C([H])([H])C([H])([H])N([H])C(=O)N3C([H])([H])C([H])([H])C([H])([H])C([H])(n4nc(-c5c([H])c([H])c(Oc6c([H])c([H])c(F)c([H])c6F)c([H])c5[H])c(C(=O)N([H])[H])c4N([H])[H])C3([H])[H])c([H])c([H])c2C1([H])[H]

>  <smiles>  (83) 
[H]c1c([H])c([H])c2c(c1[H])C([H])([H])C([H])([H])C([H])([H])C2([H])N([H])C(=O)C1([H])N(C(=O)C([H])(N([H])C(=O)C([H])(N([H])C([H])([H])[H])C([H])([H])[H])C(C([H])([H])[H])(C([H])([H])[H])C([H])([H])[H])C([H])([H])c2c([H])c(OC3([H])C([H])([H])C3([H])C(=O)C([H])([H])C([H])([H])C([H])([H])C([H])([H])C([H])([H])N([H])C(=O)N3C([H])([H])C([H])([H])C([H])([H])C([H])(n4nc(-c5c([H])c([H])c(Oc6c([H])c([H])c(F)c([H])c6F)c([H])c5[H])c(C(=O)N([H])[H])c4N([H])[H])C3([H])[H])c([H])c([H])c2C1([H])[H]

$$$$
83:0:0
     RDKit          3D

 90100  0  0  1  0  0  0  0  0999 V2000
  -29.8320  -17.8250   21.3360 C   0  0  0  0  0  0  0  0  0  0  0  0
  -29.9620  -19.3060   21.6390 C   0  0  0  0  0  2  0  0  0  0  0  0
  -28.1390  -20.8390   19.5130 C   0  0  0  0  0  2  0  0  0  0  0  0
  -30.5390  -17.5050   20.0440 C   0  0  0  0  0  3  0  0  0  0  0  0
  -30.4820  -19.9150   20.3380 C   0  0  0  0  0  3  0  0  0  0  0  0
  -30.3570  -18.9440   19.2300 C   0  0  0  0  0  3  0  0  0  0  0  0
  -29.1670  -21.9170   19.8980 C   0  0  0  0  0  3  0  0  0  0  0  0
  -29.5810  -20.4590   19.2560 C   0  0  1  0  0  0  0  0  0  0  0  0
  -29.2140  -17.0330   22.0490 O   0  0  0  0  0  0  0  0  0  0  0  0
  -30.9900  -14.8810   19.4940 C   0  0  0  0  0  0  0  0  0  0  0  0
  -30.7350  -12.5130   18.6570 C   0  0  0  0  0  2  0  0  0  0  0  0
  -29.6910  -12.4490   17.5220 C   0  0  0  0  0  2  0  0  0  0  0  0
  -28.2650  -12.3000   18.0960 C   0  0  0  0  0  2  0  0  0  0  0  0
  -27.9840  -13.2860   19.2630 C   0  0  0  0  0  3  0  0  0  0  0  0
  -29.1420  -13.3180   20.2790 C   0  0  0  0  0  2  0  0  0  0  0  0
  -30.3590  -13.6500   19.5320 N   0  0  0  0  0  0  0  0  0  0  0  0
  -32.1910  -14.9180   19.2080 O   0  0  0  0  0  0  0  0  0  0  0  0
  -30.2200  -16.0580   19.5680 N   0  0  0  0  0  0  0  0  0  0  0  0
  -29.2320  -15.8660   19.6140 H   0  0  0  0  0  0  0  0  0  0  0  0
  -25.7550  -13.9750   20.3190 C   0  0  0  0  0  0  0  0  0  0  0  0
  -24.6860  -13.2420   20.7600 C   0  0  0  0  0  0  0  0  0  0  0  0
  -25.0580  -11.8730   20.6200 C   0  0  0  0  0  0  0  0  0  0  0  0
  -26.7000  -13.0460   19.9090 N   0  0  0  0  0  0  0  0  0  0  0  0
  -26.3000  -11.7730   20.1600 N   0  0  0  0  0  0  0  0  0  0  0  0
  -24.2810  -10.6490   20.8330 C   0  0  0  0  0  0  0  0  0  0  0  0
  -24.6770   -9.6740   21.7750 C   0  0  0  0  0  3  0  0  0  0  0  0
  -23.9010   -8.5100   21.9700 C   0  0  0  0  0  3  0  0  0  0  0  0
  -22.7130   -8.3190   21.2240 C   0  0  0  0  0  0  0  0  0  0  0  0
  -22.3380   -9.2820   20.2700 C   0  0  0  0  0  3  0  0  0  0  0  0
  -23.1120  -10.4360   20.0760 C   0  0  0  0  0  3  0  0  0  0  0  0
  -21.9050   -7.2130   21.3320 O   0  0  0  0  0  0  0  0  0  0  0  0
  -21.7370   -6.5580   22.5260 C   0  0  0  0  0  0  0  0  0  0  0  0
  -21.1740   -7.1950   23.6530 C   0  0  0  0  0  3  0  0  0  0  0  0
  -20.9500   -6.4630   24.8380 C   0  0  0  0  0  3  0  0  0  0  0  0
  -21.2820   -5.0970   24.8930 C   0  0  0  0  0  0  0  0  0  0  0  0
  -21.8400   -4.4590   23.7720 C   0  0  0  0  0  3  0  0  0  0  0  0
  -22.0640   -5.1880   22.5900 C   0  0  0  0  0  0  0  0  0  0  0  0
  -22.5810   -4.5630   21.5050 F   0  0  0  0  0  0  0  0  0  0  0  0
  -21.0600   -4.3900   26.0270 F   0  0  0  0  0  0  0  0  0  0  0  0
  -23.3550  -13.7840   21.1940 C   0  0  0  0  0  0  0  0  0  0  0  0
  -22.6900  -13.1060   22.1240 N   0  0  0  0  0  0  0  0  0  0  0  0
  -22.9200  -14.8450   20.7520 O   0  0  0  0  0  0  0  0  0  0  0  0
  -21.8070  -13.4580   22.4620 H   0  0  0  0  0  0  0  0  0  0  0  0
  -23.0440  -12.2370   22.4940 H   0  0  0  0  0  0  0  0  0  0  0  0
  -25.9930  -15.3420   20.2040 N   0  0  0  0  0  0  0  0  0  0  0  0
  -25.2820  -16.0370   20.4170 H   0  0  0  0  0  0  0  0  0  0  0  0
  -26.8630  -15.7530   19.8960 H   0  0  0  0  0  0  0  0  0  0  0  0
  -29.1460  -23.4210   19.2290 C   0  0  0  0  0  3  0  0  0  0  0  0
  -28.2680  -24.6970   19.8220 C   0  0  0  0  0  3  0  0  0  0  0  0
  -28.4660  -26.1840   19.4690 O   0  0  0  0  0  0  0  0  0  0  0  0
  -24.7010  -31.4570   22.9320 C   0  0  0  0  0  0  0  0  0  0  0  0
  -27.3680  -27.1020   19.5260 C   0  0  0  0  0  0  0  0  0  0  0  0
  -23.5160  -30.1530   21.2070 C   0  0  0  0  0  3  0  0  0  0  0  0
  -24.9850  -28.7360   19.6520 C   0  0  0  0  0  0  0  0  0  0  0  0
  -26.0540  -30.5200   21.0260 C   0  0  0  0  0  2  0  0  0  0  0  0
  -26.1560  -29.1830   20.2780 C   0  0  0  0  0  0  0  0  0  0  0  0
  -27.3500  -28.3800   20.2020 C   0  0  0  0  0  3  0  0  0  0  0  0
  -26.1740  -26.7490   18.8630 C   0  0  0  0  0  3  0  0  0  0  0  0
  -25.0010  -27.5270   18.9390 C   0  0  0  0  0  3  0  0  0  0  0  0
  -23.7320  -29.5840   19.7800 C   0  0  0  0  0  2  0  0  0  0  0  0
  -24.7780  -30.7300   21.7760 N   0  0  0  0  0  0  0  0  0  0  0  0
  -23.6160  -31.6660   23.4940 O   0  0  0  0  0  0  0  0  0  0  0  0
  -22.8880  -29.0540   22.0980 C   0  0  0  0  0  0  0  0  0  0  0  0
  -21.5570  -28.8760   22.0020 N   0  0  0  0  0  0  0  0  0  0  0  0
  -23.5960  -28.3660   22.8370 O   0  0  0  0  0  0  0  0  0  0  0  0
  -21.0410  -29.4830   21.3820 H   0  0  0  0  0  0  0  0  0  0  0  0
  -18.2070  -27.6330   22.5670 C   0  0  0  0  0  0  0  0  0  0  0  0
  -20.7780  -27.8630   22.7160 C   0  0  0  0  0  3  0  0  0  0  0  0
  -20.8380  -26.5000   21.9900 C   0  0  0  0  0  2  0  0  0  0  0  0
  -19.6790  -26.2860   21.0110 C   0  0  0  0  0  2  0  0  0  0  0  0
  -18.3360  -26.3620   21.7440 C   0  0  0  0  0  2  0  0  0  0  0  0
  -19.3520  -28.3450   23.0100 C   0  0  0  0  0  0  0  0  0  0  0  0
  -19.1740  -29.5380   23.7450 C   0  0  0  0  0  3  0  0  0  0  0  0
  -17.8840  -30.0180   24.0390 C   0  0  0  0  0  3  0  0  0  0  0  0
  -16.7540  -29.3010   23.6080 C   0  0  0  0  0  3  0  0  0  0  0  0
  -16.9170  -28.1090   22.8790 C   0  0  0  0  0  3  0  0  0  0  0  0
  -25.9690  -32.0830   23.5880 C   0  0  0  0  0  3  0  0  0  0  0  0
  -25.6220  -33.4460   24.0210 N   0  0  0  0  0  0  0  0  0  0  0  0
  -25.9170  -34.5630   23.3430 C   0  0  0  0  0  0  0  0  0  0  0  0
  -26.5780  -34.5550   22.3000 O   0  0  0  0  0  0  0  0  0  0  0  0
  -25.0300  -33.5200   24.8350 H   0  0  0  0  0  0  0  0  0  0  0  0
  -24.1310  -36.3250   23.1500 C   0  0  0  0  0  1  0  0  0  0  0  0
  -25.3990  -35.9010   23.9090 C   0  0  0  0  0  3  0  0  0  0  0  0
  -27.5130  -36.7960   24.7800 C   0  0  0  0  0  1  0  0  0  0  0  0
  -26.3990  -36.9890   23.8550 N   0  0  0  0  0  0  0  0  0  0  0  0
  -25.9670  -37.8870   24.0590 H   0  0  0  0  0  0  0  0  0  0  0  0
  -26.5190  -31.2410   24.8030 C   0  0  1  0  0  0  0  0  0  0  0  0
  -25.4440  -30.9020   25.8620 C   0  0  0  0  0  1  0  0  0  0  0  0
  -27.1330  -29.9080   24.3170 C   0  0  0  0  0  1  0  0  0  0  0  0
  -27.6580  -32.0180   25.5050 C   0  0  0  0  0  1  0  0  0  0  0  0
  1  2  1  0
  1  9  2  0
  3  7  1  0
  4 18  1  0
  4  1  1  0
  5  2  1  0
  6  8  1  0
  6  4  1  0
  6  5  1  0
  8  3  1  6
  8  7  1  0
  8  5  1  0
 10 16  1  0
 10 18  1  0
 11 16  1  0
 12 13  1  0
 12 11  1  0
 13 14  1  0
 14 23  1  0
 14 15  1  0
 16 15  1  0
 17 10  2  0
 18 19  1  0
 20 21  2  0
 21 40  1  0
 22 21  1  0
 22 25  1  0
 23 24  1  0
 23 20  1  0
 24 22  2  0
 25 26  1  0
 26 27  2  0
 28 31  1  0
 28 27  1  0
 29 28  2  0
 30 29  1  0
 30 25  2  0
 31 32  1  0
 32 37  2  0
 32 33  1  0
 33 34  2  0
 34 35  1  0
 35 39  1  0
 36 35  2  0
 37 36  1  0
 38 37  1  0
 40 41  1  0
 41 43  1  0
 41 44  1  0
 42 40  2  0
 45 20  1  0
 45 46  1  0
 47 45  1  0
 48 49  2  0
 48  7  1  0
 50 52  1  0
 50 49  1  0
 51 62  2  0
 51 77  1  0
 52 57  1  0
 53 61  1  0
 53 63  1  0
 54 60  1  0
 54 56  1  0
 55 61  1  0
 56 55  1  0
 57 56  2  0
 58 59  1  0
 58 52  2  0
 59 54  2  0
 60 53  1  0
 61 51  1  0
 63 65  2  0
 64 63  1  0
 64 68  1  0
 66 64  1  0
 67 76  2  0
 67 72  1  0
 68 72  1  0
 69 68  1  0
 70 71  1  0
 70 69  1  0
 71 67  1  0
 72 73  2  0
 73 74  1  0
 75 74  2  0
 76 75  1  0
 77 78  1  0
 77 87  1  0
 78 81  1  0
 79 83  1  0
 79 78  1  0
 80 79  2  0
 82 83  1  0
 85 83  1  0
 85 86  1  0
 85 84  1  0
 87 90  1  1
 87 88  1  0
 89 87  1  0
M  ISO  4  10 100  18 100  49 101  50 101
M  END
>  <TORSDO>  (84) 
F 18

>  <SCORE>  (84) 
-12.314

>  <name>  (84) 
83

>  <ligand_id>  (84) 
83

>  <original_smiles>  (84) 
[H]c1c([H])c([H])c2c(c1[H])C([H])([H])C([H])([H])C([H])([H])C2([H])N([H])C(=O)C1([H])N(C(=O)C([H])(N([H])C(=O)C([H])(N([H])C([H])([H])[H])C([H])([H])[H])C(C([H])([H])[H])(C([H])([H])[H])C([H])([H])[H])C([H])([H])c2c([H])c(OC([H])([H])C([H])([H])C3([H])C([H])([H])C34C3([H])C([H])([H])C(=O)C([H])(N([H])C(=O)N5C([H])([H])C([H])([H])C([H])([H])C([H])(n6nc(-c7c([H])c([H])c(Oc8c([H])c([H])c(F)c([H])c8F)c([H])c7[H])c(C(=O)N([H])[H])c6N([H])[H])C5([H])[H])C34[H])c([H])c([H])c2C1([H])[H]

>  <smiles>  (84) 
[H]c1c([H])c([H])c2c(c1[H])C([H])([H])C([H])([H])C([H])([H])C2([H])N([H])C(=O)C1([H])N(C(=O)C([H])(N([H])C(=O)C([H])(N([H])C([H])([H])[H])C([H])([H])[H])C(C([H])([H])[H])(C([H])([H])[H])C([H])([H])[H])C([H])([H])c2c([H])c(OC([H])([H])C([H])([H])C3([H])C([H])([H])C34C3([H])C([H])([H])C(=O)C([H])(N([H])C(=O)N5C([H])([H])C([H])([H])C([H])([H])C([H])(n6nc(-c7c([H])c([H])c(Oc8c([H])c([H])c(F)c([H])c8F)c([H])c7[H])c(C(=O)N([H])[H])c6N([H])[H])C5([H])[H])C34[H])c([H])c([H])c2C1([H])[H]

$$$$
84:0:0
     RDKit          3D

101109  0  0  1  0  0  0  0  0999 V2000
  -29.9190  -20.9300   19.2260 C   0  0  0  0  0  3  0  0  0  0  0  0
  -29.6720  -22.3410   19.2720 C   0  0  0  0  0  3  0  0  0  0  0  0
  -27.5980  -20.5180   19.6600 C   0  0  0  0  0  3  0  0  0  0  0  0
  -27.3290  -21.9200   19.6660 C   0  0  0  0  0  0  0  0  0  0  0  0
  -28.8870  -19.9770   19.4520 C   0  0  0  0  0  0  0  0  0  0  0  0
  -28.3770  -22.8880   19.5050 C   0  0  0  0  0  0  0  0  0  0  0  0
  -25.9130  -22.3140   19.9030 C   0  0  0  0  0  0  0  0  0  0  0  0
  -25.5020  -22.7980   20.9620 O   0  0  0  0  0  0  0  0  0  0  0  0
  -24.9510  -22.1590   18.7200 C   0  0  0  0  0  2  0  0  0  0  0  0
  -25.0510  -23.3050   17.6870 C   0  0  0  0  0  2  0  0  0  0  0  0
  -24.1560  -24.4440   17.9830 N   0  0  0  0  0  4  0  0  0  0  0  0
  -23.1920  -24.1700   17.9060 H   0  0  0  0  0  0  0  0  0  0  0  0
  -24.3090  -25.1800   17.3170 H   0  0  0  0  0  0  0  0  0  0  0  0
  -24.3120  -24.8210   18.9010 H   0  0  0  0  0  0  0  0  0  0  0  0
  -29.0590  -18.4090   19.3640 C   0  0  0  0  0  2  0  0  0  0  0  0
  -30.3730  -17.6040   19.7910 C   0  0  0  0  0  3  0  0  0  0  0  0
  -30.9430  -15.0530   19.8210 C   0  0  0  0  0  0  0  0  0  0  0  0
  -30.7550  -12.7140   19.0170 C   0  0  0  0  0  2  0  0  0  0  0  0
  -29.7770  -12.6960   17.8200 C   0  0  0  0  0  2  0  0  0  0  0  0
  -28.3180  -12.5600   18.3020 C   0  0  0  0  0  2  0  0  0  0  0  0
  -27.9710  -13.5440   19.4500 C   0  0  0  0  0  3  0  0  0  0  0  0
  -29.0610  -13.5330   20.5480 C   0  0  0  0  0  2  0  0  0  0  0  0
  -30.3480  -13.8220   19.8990 N   0  0  0  0  0  0  0  0  0  0  0  0
  -32.0990  -15.1870   19.4130 O   0  0  0  0  0  0  0  0  0  0  0  0
  -30.1210  -16.1310   20.0130 N   0  0  0  0  0  0  0  0  0  0  0  0
  -29.1980  -15.8830   20.3360 H   0  0  0  0  0  0  0  0  0  0  0  0
  -25.6410  -14.1940   20.3150 C   0  0  0  0  0  0  0  0  0  0  0  0
  -24.5720  -13.4410   20.7200 C   0  0  0  0  0  0  0  0  0  0  0  0
  -24.9910  -12.0790   20.6260 C   0  0  0  0  0  0  0  0  0  0  0  0
  -26.6430  -13.2900   19.9990 N   0  0  0  0  0  0  0  0  0  0  0  0
  -26.2610  -12.0120   20.2480 N   0  0  0  0  0  0  0  0  0  0  0  0
  -24.2360  -10.8330   20.8210 C   0  0  0  0  0  0  0  0  0  0  0  0
  -24.6530   -9.8540   21.7480 C   0  0  0  0  0  3  0  0  0  0  0  0
  -23.9010   -8.6720   21.9310 C   0  0  0  0  0  3  0  0  0  0  0  0
  -22.7180   -8.4630   21.1850 C   0  0  0  0  0  0  0  0  0  0  0  0
  -22.3190   -9.4310   20.2450 C   0  0  0  0  0  3  0  0  0  0  0  0
  -23.0710  -10.6020   20.0620 C   0  0  0  0  0  3  0  0  0  0  0  0
  -21.9370   -7.3360   21.2770 O   0  0  0  0  0  0  0  0  0  0  0  0
  -21.8430   -6.6190   22.4430 C   0  0  0  0  0  0  0  0  0  0  0  0
  -21.3950   -7.2080   23.6460 C   0  0  0  0  0  3  0  0  0  0  0  0
  -21.2450   -6.4170   24.8030 C   0  0  0  0  0  3  0  0  0  0  0  0
  -21.5350   -5.0410   24.7580 C   0  0  0  0  0  0  0  0  0  0  0  0
  -21.9770   -4.4520   23.5610 C   0  0  0  0  0  3  0  0  0  0  0  0
  -22.1280   -5.2380   22.4050 C   0  0  0  0  0  0  0  0  0  0  0  0
  -22.5330   -4.6620   21.2480 F   0  0  0  0  0  0  0  0  0  0  0  0
  -21.3840   -4.2800   25.8670 F   0  0  0  0  0  0  0  0  0  0  0  0
  -23.2050  -13.9520   21.0740 C   0  0  0  0  0  0  0  0  0  0  0  0
  -22.5060  -13.2570   21.9640 N   0  0  0  0  0  0  0  0  0  0  0  0
  -22.7700  -15.0000   20.5990 O   0  0  0  0  0  0  0  0  0  0  0  0
  -22.8680  -12.4040   22.3660 H   0  0  0  0  0  0  0  0  0  0  0  0
  -21.5900  -13.5770   22.2450 H   0  0  0  0  0  0  0  0  0  0  0  0
  -25.8390  -15.5640   20.1660 N   0  0  0  0  0  0  0  0  0  0  0  0
  -25.0970  -16.2340   20.3420 H   0  0  0  0  0  0  0  0  0  0  0  0
  -26.6730  -15.9870   19.7780 H   0  0  0  0  0  0  0  0  0  0  0  0
  -30.3870  -18.0490   22.3300 C   0  0  0  0  0  1  0  0  0  0  0  0
  -31.1620  -18.1770   21.0060 C   0  0  0  0  0  3  0  0  0  0  0  0
  -32.8730  -20.0110   21.6480 C   0  0  0  0  0  1  0  0  0  0  0  0
  -31.6680  -19.6190   20.7870 C   0  0  0  0  0  2  0  0  0  0  0  0
  -28.0960  -24.4410   19.6780 C   0  0  0  0  0  3  0  0  0  0  0  0
  -28.7920  -25.5640   18.8080 C   0  0  0  0  0  3  0  0  0  0  0  0
  -28.6860  -26.9470   19.3140 O   0  0  0  0  0  0  0  0  0  0  0  0
  -24.6750  -31.6050   23.0550 C   0  0  0  0  0  0  0  0  0  0  0  0
  -27.4790  -27.6430   19.4050 C   0  0  0  0  0  0  0  0  0  0  0  0
  -23.5120  -30.3460   21.2740 C   0  0  0  0  0  3  0  0  0  0  0  0
  -25.0150  -29.0630   19.6490 C   0  0  0  0  0  0  0  0  0  0  0  0
  -26.0210  -30.8390   21.0910 C   0  0  0  0  0  2  0  0  0  0  0  0
  -26.1610  -29.5580   20.2790 C   0  0  0  0  0  0  0  0  0  0  0  0
  -27.3930  -28.8560   20.1530 C   0  0  0  0  0  3  0  0  0  0  0  0
  -26.3000  -27.1800   18.7780 C   0  0  0  0  0  3  0  0  0  0  0  0
  -25.0820  -27.8760   18.8970 C   0  0  0  0  0  3  0  0  0  0  0  0
  -23.7320  -29.8480   19.8200 C   0  0  0  0  0  2  0  0  0  0  0  0
  -24.7540  -30.9430   21.8650 N   0  0  0  0  0  0  0  0  0  0  0  0
  -23.5930  -31.7510   23.6400 O   0  0  0  0  0  0  0  0  0  0  0  0
  -22.9340  -29.1850   22.1170 C   0  0  0  0  0  0  0  0  0  0  0  0
  -21.6120  -28.9640   22.0110 N   0  0  0  0  0  0  0  0  0  0  0  0
  -23.6700  -28.4900   22.8220 O   0  0  0  0  0  0  0  0  0  0  0  0
  -21.0760  -29.5820   21.4190 H   0  0  0  0  0  0  0  0  0  0  0  0
  -18.3070  -27.5710   22.4710 C   0  0  0  0  0  0  0  0  0  0  0  0
  -20.8630  -27.8980   22.6790 C   0  0  0  0  0  3  0  0  0  0  0  0
  -20.9920  -26.5630   21.9110 C   0  0  0  0  0  2  0  0  0  0  0  0
  -19.8610  -26.3340   20.9030 C   0  0  0  0  0  2  0  0  0  0  0  0
  -18.5030  -26.3330   21.6130 C   0  0  0  0  0  2  0  0  0  0  0  0
  -19.4150  -28.3150   22.9580 C   0  0  0  0  0  0  0  0  0  0  0  0
  -19.1760  -29.4770   23.7240 C   0  0  0  0  0  3  0  0  0  0  0  0
  -17.8620  -29.8980   24.0030 C   0  0  0  0  0  3  0  0  0  0  0  0
  -16.7700  -29.1500   23.5320 C   0  0  0  0  0  3  0  0  0  0  0  0
  -16.9920  -27.9860   22.7750 C   0  0  0  0  0  3  0  0  0  0  0  0
  -25.9370  -32.2310   23.7280 C   0  0  0  0  0  3  0  0  0  0  0  0
  -26.4880  -31.3740   24.9340 C   0  0  1  0  0  0  0  0  0  0  0  0
  -25.4110  -31.0150   25.9850 C   0  0  0  0  0  1  0  0  0  0  0  0
  -27.1100  -30.0510   24.4270 C   0  0  0  0  0  1  0  0  0  0  0  0
  -27.6190  -32.1460   25.6520 C   0  0  0  0  0  1  0  0  0  0  0  0
  -25.5760  -33.5820   24.1780 N   0  0  0  0  0  0  0  0  0  0  0  0
  -25.8750  -34.7100   23.5200 C   0  0  0  0  0  0  0  0  0  0  0  0
  -26.5550  -34.7210   22.4900 O   0  0  0  0  0  0  0  0  0  0  0  0
  -24.9720  -33.6430   24.9850 H   0  0  0  0  0  0  0  0  0  0  0  0
  -24.0750  -36.4540   23.3220 C   0  0  0  0  0  1  0  0  0  0  0  0
  -25.3360  -36.0340   24.0940 C   0  0  0  0  0  3  0  0  0  0  0  0
  -27.4380  -36.9300   24.9930 C   0  0  0  0  0  1  0  0  0  0  0  0
  -26.3270  -37.1330   24.0680 N   0  0  0  0  0  0  0  0  0  0  0  0
  -25.8840  -38.0210   24.2930 H   0  0  0  0  0  0  0  0  0  0  0  0
  1  2  2  0
  1  5  1  0
  2  6  1  0
  3  4  1  0
  4  7  1  0
  5  3  2  0
  6  4  2  0
  6 59  1  0
  7  8  2  0
  9  7  1  0
 10 11  1  0
 10  9  1  0
 11 14  1  0
 12 11  1  0
 13 11  1  0
 15  5  1  0
 16 15  1  0
 16 25  1  0
 16 56  1  0
 17 23  1  0
 17 25  1  0
 18 23  1  0
 19 20  1  0
 19 18  1  0
 21 20  1  0
 21 30  1  0
 21 22  1  0
 23 22  1  0
 24 17  2  0
 25 26  1  0
 27 28  2  0
 28 47  1  0
 29 28  1  0
 29 32  1  0
 30 31  1  0
 30 27  1  0
 31 29  2  0
 32 33  1  0
 33 34  2  0
 35 38  1  0
 35 34  1  0
 36 35  2  0
 37 36  1  0
 37 32  2  0
 38 39  1  0
 39 40  1  0
 40 41  2  0
 42 41  1  0
 42 46  1  0
 43 42  2  0
 44 39  2  0
 44 43  1  0
 45 44  1  0
 47 48  1  0
 48 51  1  0
 48 50  1  0
 49 47  2  0
 52 27  1  0
 52 53  1  0
 54 52  1  0
 56 55  1  0
 58 56  1  0
 58 57  1  0
 60 61  1  0
 60 59  2  0
 61 63  1  0
 62 73  2  0
 63 68  1  0
 64 72  1  0
 64 74  1  0
 65 71  1  0
 65 67  1  0
 66 72  1  0
 67 66  1  0
 68 67  2  0
 69 70  1  0
 69 63  2  0
 70 65  2  0
 71 64  1  0
 72 62  1  0
 74 76  2  0
 75 74  1  0
 77 75  1  0
 78 87  2  0
 78 83  1  0
 79 75  1  0
 79 83  1  0
 80 79  1  0
 81 82  1  0
 81 80  1  0
 82 78  1  0
 83 84  2  0
 84 85  1  0
 86 85  2  0
 87 86  1  0
 88 62  1  0
 88 93  1  0
 88 89  1  0
 89 92  1  1
 89 90  1  0
 91 89  1  0
 93 96  1  0
 94 98  1  0
 94 93  1  0
 95 94  2  0
 98 97  1  0
100 98  1  0
100101  1  0
100 99  1  0
M  ISO  4  17 100  25 100  60 101  61 101
M  END
>  <TORSDO>  (85) 
F 26

>  <SCORE>  (85) 
-10.375

>  <name>  (85) 
84

>  <ligand_id>  (85) 
84

>  <original_smiles>  (85) 
[H]c1c([H])c([H])c2c(c1[H])C([H])([H])C([H])([H])C([H])([H])C2([H])N([H])C(=O)C1([H])N(C(=O)C([H])(N([H])C(=O)C([H])(N([H])C([H])([H])[H])C([H])([H])[H])C(C([H])([H])[H])(C([H])([H])[H])C([H])([H])[H])C([H])([H])c2c([H])c(OC([H])([H])C([H])([H])c3c([H])c([H])c(C([H])([H])C([H])(N([H])C(=O)N4C([H])([H])C([H])([H])C([H])([H])C([H])(n5nc(-c6c([H])c([H])c(Oc7c([H])c([H])c(F)c([H])c7F)c([H])c6[H])c(C(=O)N([H])[H])c5N([H])[H])C4([H])[H])C([H])(C([H])([H])[H])C([H])([H])C([H])([H])[H])c([H])c3C(=O)C([H])([H])C([H])([H])[N+]([H])([H])[H])c([H])c([H])c2C1([H])[H]

>  <smiles>  (85) 
[H]c1c([H])c([H])c2c(c1[H])C([H])([H])C([H])([H])C([H])([H])C2([H])N([H])C(=O)C1([H])N(C(=O)C([H])(N([H])C(=O)C([H])(N([H])C([H])([H])[H])C([H])([H])[H])C(C([H])([H])[H])(C([H])([H])[H])C([H])([H])[H])C([H])([H])c2c([H])c(OC([H])([H])C([H])([H])c3c([H])c([H])c(C([H])([H])C([H])(N([H])C(=O)N4C([H])([H])C([H])([H])C([H])([H])C([H])(n5nc(-c6c([H])c([H])c(Oc7c([H])c([H])c(F)c([H])c7F)c([H])c6[H])c(C(=O)N([H])[H])c5N([H])[H])C4([H])[H])C([H])(C([H])([H])[H])C([H])([H])C([H])([H])[H])c([H])c3C(=O)C([H])([H])C([H])([H])[N+]([H])([H])[H])c([H])c([H])c2C1([H])[H]

$$$$
85:0:0
     RDKit          3D

 90 98  0  0  1  0  0  0  0  0999 V2000
  -28.3260  -21.9070   19.3410 C   0  0  0  0  0  2  0  0  0  0  0  0
  -27.9730  -24.0850   18.1430 C   0  0  0  0  0  1  0  0  0  0  0  0
  -27.9820  -23.4160   19.5310 C   0  0  0  0  0  3  0  0  0  0  0  0
  -28.9080  -24.2000   20.5010 C   0  0  0  0  0  2  0  0  0  0  0  0
  -28.3410  -25.5510   21.0270 C   0  0  0  0  0  2  0  0  0  0  0  0
  -28.4310  -26.6780   20.1350 O   0  0  0  0  0  0  0  0  0  0  0  0
  -24.6150  -31.8680   23.2090 C   0  0  0  0  0  0  0  0  0  0  0  0
  -27.2900  -27.4520   20.1210 C   0  0  0  0  0  0  0  0  0  0  0  0
  -23.4280  -30.4750   21.5470 C   0  0  0  0  0  3  0  0  0  0  0  0
  -24.8960  -28.9570   20.1220 C   0  0  0  0  0  0  0  0  0  0  0  0
  -25.9550  -30.8440   21.3680 C   0  0  0  0  0  2  0  0  0  0  0  0
  -26.0520  -29.4810   20.7160 C   0  0  0  0  0  0  0  0  0  0  0  0
  -27.2580  -28.7400   20.7040 C   0  0  0  0  0  3  0  0  0  0  0  0
  -26.1160  -26.9400   19.5350 C   0  0  0  0  0  3  0  0  0  0  0  0
  -24.9230  -27.6840   19.5290 C   0  0  0  0  0  3  0  0  0  0  0  0
  -23.6500  -29.8110   20.1640 C   0  0  0  0  0  2  0  0  0  0  0  0
  -24.6840  -31.0750   22.1010 N   0  0  0  0  0  0  0  0  0  0  0  0
  -23.5280  -32.1340   23.7400 O   0  0  0  0  0  0  0  0  0  0  0  0
  -22.7740  -29.4410   22.4930 C   0  0  0  0  0  0  0  0  0  0  0  0
  -21.4510  -29.2560   22.3550 N   0  0  0  0  0  0  0  0  0  0  0  0
  -23.4550  -28.8110   23.3070 O   0  0  0  0  0  0  0  0  0  0  0  0
  -20.9690  -29.8170   21.6680 H   0  0  0  0  0  0  0  0  0  0  0  0
  -18.0770  -28.0470   22.8110 C   0  0  0  0  0  0  0  0  0  0  0  0
  -20.6310  -28.3080   23.1090 C   0  0  0  0  0  3  0  0  0  0  0  0
  -20.7420  -26.8830   22.5200 C   0  0  0  0  0  2  0  0  0  0  0  0
  -19.6490  -26.5660   21.4950 C   0  0  0  0  0  2  0  0  0  0  0  0
  -18.2620  -26.7030   22.1290 C   0  0  0  0  0  2  0  0  0  0  0  0
  -19.1890  -28.8090   23.2570 C   0  0  0  0  0  0  0  0  0  0  0  0
  -18.9610  -30.0690   23.8520 C   0  0  0  0  0  3  0  0  0  0  0  0
  -17.6540  -30.5650   24.0120 C   0  0  0  0  0  3  0  0  0  0  0  0
  -16.5560  -29.8000   23.5820 C   0  0  0  0  0  3  0  0  0  0  0  0
  -16.7680  -28.5430   22.9860 C   0  0  0  0  0  3  0  0  0  0  0  0
  -25.8920  -32.4970   23.8420 C   0  0  0  0  0  3  0  0  0  0  0  0
  -25.5770  -33.8930   24.1780 N   0  0  0  0  0  0  0  0  0  0  0  0
  -25.9130  -34.9500   23.4280 C   0  0  0  0  0  0  0  0  0  0  0  0
  -26.5930  -34.8550   22.4020 O   0  0  0  0  0  0  0  0  0  0  0  0
  -24.9690  -34.0410   24.9690 H   0  0  0  0  0  0  0  0  0  0  0  0
  -24.1790  -36.7390   23.0700 C   0  0  0  0  0  1  0  0  0  0  0  0
  -25.4150  -36.3330   23.8900 C   0  0  0  0  0  3  0  0  0  0  0  0
  -27.5380  -37.2190   24.7460 C   0  0  0  0  0  1  0  0  0  0  0  0
  -26.4430  -37.3910   23.7950 N   0  0  0  0  0  0  0  0  0  0  0  0
  -26.0330  -38.3090   23.9480 H   0  0  0  0  0  0  0  0  0  0  0  0
  -26.4050  -31.7200   25.1160 C   0  0  1  0  0  0  0  0  0  0  0  0
  -25.3070  -31.4660   26.1750 C   0  0  0  0  0  1  0  0  0  0  0  0
  -26.9960  -30.3480   24.7140 C   0  0  0  0  0  1  0  0  0  0  0  0
  -27.5460  -32.5150   25.7920 C   0  0  0  0  0  1  0  0  0  0  0  0
  -28.4420  -21.0130   20.6030 C   0  0  0  0  0  2  0  0  0  0  0  0
  -29.3320  -17.9080   19.9820 C   0  0  0  0  0  0  0  0  0  0  0  0
  -28.7550  -18.4180   21.2810 C   0  0  0  0  0  2  0  0  0  0  0  0
  -28.2200  -19.5040   20.3310 C   0  0  0  0  0  3  0  0  0  0  0  0
  -29.1710  -18.9430   19.2880 N   0  0  0  0  0  2  0  0  0  0  0  0
  -29.9100  -16.5780   19.6360 C   0  0  0  0  0  0  0  0  0  0  0  0
  -30.3770  -16.5010   18.1720 C   0  0  0  0  0  1  0  0  0  0  0  0
  -30.0010  -15.6340   20.5190 N   0  0  0  0  0  2  0  0  0  0  0  0
  -30.7500  -14.5000   20.2000 C   0  0  0  0  0  0  0  0  0  0  0  0
  -30.3990  -12.3250   19.0980 C   0  0  0  0  0  2  0  0  0  0  0  0
  -29.4380  -12.5150   17.9040 C   0  0  0  0  0  2  0  0  0  0  0  0
  -27.9710  -12.4240   18.3600 C   0  0  0  0  0  2  0  0  0  0  0  0
  -27.6640  -13.2710   19.6250 C   0  0  0  0  0  3  0  0  0  0  0  0
  -28.7410  -13.0640   20.7090 C   0  0  0  0  0  2  0  0  0  0  0  0
  -30.0550  -13.3340   20.1120 N   0  0  0  0  0  0  0  0  0  0  0  0
  -31.9170  -14.5750   19.8110 O   0  0  0  0  0  0  0  0  0  0  0  0
  -25.2850  -13.8830   20.3850 C   0  0  0  0  0  0  0  0  0  0  0  0
  -24.2210  -13.1140   20.7710 C   0  0  0  0  0  0  0  0  0  0  0  0
  -24.6780  -11.7610   20.7380 C   0  0  0  0  0  0  0  0  0  0  0  0
  -26.3220  -13.0000   20.1360 N   0  0  0  0  0  0  0  0  0  0  0  0
  -25.9620  -11.7170   20.4090 N   0  0  0  0  0  0  0  0  0  0  0  0
  -23.9500  -10.5020   20.9440 C   0  0  0  0  0  0  0  0  0  0  0  0
  -24.3930   -9.5380   21.8760 C   0  0  0  0  0  3  0  0  0  0  0  0
  -23.6680   -8.3420   22.0680 C   0  0  0  0  0  3  0  0  0  0  0  0
  -22.4870   -8.1020   21.3270 C   0  0  0  0  0  0  0  0  0  0  0  0
  -22.0650   -9.0540   20.3840 C   0  0  0  0  0  3  0  0  0  0  0  0
  -22.7890  -10.2420   20.1910 C   0  0  0  0  0  3  0  0  0  0  0  0
  -21.7320   -6.9580   21.4290 O   0  0  0  0  0  0  0  0  0  0  0  0
  -21.6880   -6.2270   22.5880 C   0  0  0  0  0  0  0  0  0  0  0  0
  -21.2740   -6.7950   23.8120 C   0  0  0  0  0  3  0  0  0  0  0  0
  -21.1760   -5.9890   24.9650 C   0  0  0  0  0  3  0  0  0  0  0  0
  -21.4820   -4.6160   24.8930 C   0  0  0  0  0  0  0  0  0  0  0  0
  -21.8900   -4.0480   23.6730 C   0  0  0  0  0  3  0  0  0  0  0  0
  -21.9900   -4.8520   22.5240 C   0  0  0  0  0  0  0  0  0  0  0  0
  -22.3620   -4.2970   21.3460 F   0  0  0  0  0  0  0  0  0  0  0  0
  -21.3810   -3.8380   25.9970 F   0  0  0  0  0  0  0  0  0  0  0  0
  -22.8300  -13.5960   21.0660 C   0  0  0  0  0  0  0  0  0  0  0  0
  -22.1180  -12.9040   21.9490 N   0  0  0  0  0  0  0  0  0  0  0  0
  -22.3840  -14.6170   20.5460 O   0  0  0  0  0  0  0  0  0  0  0  0
  -22.4950  -12.0760   22.3880 H   0  0  0  0  0  0  0  0  0  0  0  0
  -21.1840  -13.2050   22.1880 H   0  0  0  0  0  0  0  0  0  0  0  0
  -25.4530  -15.2530   20.2020 N   0  0  0  0  0  0  0  0  0  0  0  0
  -24.6980  -15.9180   20.3240 H   0  0  0  0  0  0  0  0  0  0  0  0
  -26.3170  -15.6830   19.8940 H   0  0  0  0  0  0  0  0  0  0  0  0
  1  3  1  0
  1 47  1  0
  3  2  1  0
  3  4  1  0
  4  5  1  0
  6  5  1  0
  7 18  2  0
  8  6  1  0
  8 13  1  0
  9 17  1  0
  9 19  1  0
 10 16  1  0
 10 12  1  0
 11 17  1  0
 12 11  1  0
 13 12  2  0
 14  8  2  0
 15 14  1  0
 15 10  2  0
 16  9  1  0
 17  7  1  0
 19 21  2  0
 20 19  1  0
 22 20  1  0
 23 32  2  0
 23 28  1  0
 24 20  1  0
 24 28  1  0
 25 24  1  0
 26 27  1  0
 26 25  1  0
 27 23  1  0
 28 29  2  0
 29 30  1  0
 31 30  2  0
 32 31  1  0
 33  7  1  0
 33 34  1  0
 33 43  1  0
 34 37  1  0
 35 39  1  0
 35 34  1  0
 36 35  2  0
 39 38  1  0
 41 39  1  0
 41 42  1  0
 41 40  1  0
 43 46  1  1
 43 44  1  0
 45 43  1  0
 48 49  1  0
 50 47  1  0
 50 49  1  0
 51 48  1  0
 51 50  1  0
 52 48  2  0
 52 54  1  0
 53 52  1  0
 55 54  1  0
 56 61  1  0
 57 58  1  0
 57 56  1  0
 59 58  1  0
 59 66  1  0
 59 60  1  0
 61 55  1  0
 61 60  1  0
 62 55  2  0
 63 64  2  0
 64 83  1  0
 65 64  1  0
 65 68  1  0
 66 63  1  0
 66 67  1  0
 67 65  2  0
 68 69  1  0
 69 70  2  0
 71 74  1  0
 71 70  1  0
 72 71  2  0
 73 72  1  0
 73 68  2  0
 74 75  1  0
 75 76  1  0
 76 77  2  0
 78 77  1  0
 78 82  1  0
 79 78  2  0
 80 75  2  0
 80 79  1  0
 81 80  1  0
 83 84  1  0
 84 87  1  0
 84 86  1  0
 85 83  2  0
 88 89  1  0
 88 63  1  0
 90 88  1  0
M  ISO  4   5 101   6 101  54 100  55 100
M  END
>  <TORSDO>  (86) 
F 22

>  <SCORE>  (86) 
-12.249

>  <name>  (86) 
85

>  <ligand_id>  (86) 
85

>  <original_smiles>  (86) 
[H]c1c([H])c([H])c2c(c1[H])C([H])([H])C([H])([H])C([H])([H])C2([H])N([H])C(=O)C1([H])N(C(=O)C([H])(N([H])C(=O)C([H])(N([H])C([H])([H])[H])C([H])([H])[H])C(C([H])([H])[H])(C([H])([H])[H])C([H])([H])[H])C([H])([H])c2c([H])c(OC([H])([H])C([H])([H])C([H])(C([H])([H])[H])C([H])([H])C([H])([H])C3([H])N=C(C(=NC(=O)N4C([H])([H])C([H])([H])C([H])([H])C([H])(n5nc(-c6c([H])c([H])c(Oc7c([H])c([H])c(F)c([H])c7F)c([H])c6[H])c(C(=O)N([H])[H])c5N([H])[H])C4([H])[H])C([H])([H])[H])C3([H])[H])c([H])c([H])c2C1([H])[H]

>  <smiles>  (86) 
[H]c1c([H])c([H])c2c(c1[H])C([H])([H])C([H])([H])C([H])([H])C2([H])N([H])C(=O)C1([H])N(C(=O)C([H])(N([H])C(=O)C([H])(N([H])C([H])([H])[H])C([H])([H])[H])C(C([H])([H])[H])(C([H])([H])[H])C([H])([H])[H])C([H])([H])c2c([H])c(OC([H])([H])C([H])([H])C([H])(C([H])([H])[H])C([H])([H])C([H])([H])C3([H])N=C(C(=NC(=O)N4C([H])([H])C([H])([H])C([H])([H])C([H])(n5nc(-c6c([H])c([H])c(Oc7c([H])c([H])c(F)c([H])c7F)c([H])c6[H])c(C(=O)N([H])[H])c5N([H])[H])C4([H])[H])C([H])([H])[H])C3([H])[H])c([H])c([H])c2C1([H])[H]

$$$$
86:0:0
     RDKit          3D

 92 88  0  0  1  0  0  0  0  0999 V2000
  -22.0580  -24.3760   21.4780 C   0  0  0  0  0  2  0  0  0  0  0  0
  -23.5450  -23.4090   20.9700 N   0  0  0  0  0  2  0  0  0  0  0  0
  -21.2980  -23.4820   21.8510 O   0  0  0  0  0  1  0  0  0  0  0  0
  -24.1880  -24.1380   20.6830 H   0  0  0  0  0  0  0  0  0  0  0  0
  -20.6160  -28.3620   20.9230 C   0  0  0  0  0  3  0  0  0  0  0  0
  -20.6950  -26.3460   21.8200 C   0  0  0  0  0 15  0  0  0  0  0  0
  -21.1520  -29.1800   21.7750 C   0  0  0  0  0  3  0  0  0  0  0  0
  -22.8120  -29.7550   23.0660 C   0  0  0  0  0 15  0  0  0  0  0  0
  -24.6380  -28.6490   23.4740 C   0  0  0  0  0 15  0  0  0  0  0  0
  -25.9450  -27.4090   22.8090 O   0  0  0  0  0  1  0  0  0  0  0  0
  -24.7290  -31.5750   22.3700 C   0  0  0  0  0  0  0  0  0  0  0  0
  -27.2970  -27.3530   22.1780 C   0  0  0  0  0  3  0  0  0  0  0  0
  -24.9040  -29.9530   20.2440 C   0  0  0  0  0  3  0  0  0  0  0  0
  -27.2590  -28.8970   20.0390 C   0  0  0  0  0  3  0  0  0  0  0  0
  -26.8840  -30.6730   21.7410 C   0  0  0  0  0  2  0  0  0  0  0  0
  -27.5000  -29.3800   21.3330 C   0  0  0  0  0  3  0  0  0  0  0  0
  -27.9720  -28.5360   22.3350 C   0  0  0  0  0  2  0  0  0  0  0  0
  -27.6210  -26.6770   20.9380 C   0  0  0  0  0  2  0  0  0  0  0  0
  -27.5730  -27.5180   19.7800 C   0  0  0  0  0  2  0  0  0  0  0  0
  -26.1550  -29.7160   19.3060 C   0  0  0  0  0  2  0  0  0  0  0  0
  -25.4180  -30.7000   21.5320 N   0  0  0  0  0  0  0  0  0  0  0  0
  -23.6060  -31.9980   22.0930 O   0  0  0  0  0  0  0  0  0  0  0  0
  -24.5910  -28.3660   20.1430 C   0  0  0  0  0  3  0  0  0  0  0  0
  -23.6750  -27.4040   19.7710 N   0  0  0  0  0  0  0  0  0  0  0  0
  -24.2900  -27.6920   20.9890 O   0  0  0  0  0  1  0  0  0  0  0  0
  -23.7040  -26.8200   20.5900 H   0  0  0  0  0  0  0  0  0  0  0  0
  -23.6960  -25.2310   15.6800 C   0  0  0  0  0  0  0  0  0  0  0  0
  -22.5670  -26.9420   18.7400 C   0  0  0  0  0  1  0  0  0  0  0  0
  -23.8970  -25.4770   19.8650 C   0  0  0  0  0 15  0  0  0  0  0  0
  -24.7340  -23.9080   18.7030 C   0  0  0  0  0 15  0  0  0  0  0  0
  -24.4510  -23.8570   16.6940 C   0  0  0  0  0  1  0  0  0  0  0  0
  -22.7470  -26.5200   16.2710 C   0  0  0  0  0  3  0  0  0  0  0  0
  -23.1870  -27.5790   15.2500 C   0  0  0  0  0  3  0  0  0  0  0  0
  -24.0930  -27.5360   14.0920 C   0  0  0  0  0  3  0  0  0  0  0  0
  -24.6740  -26.3550   13.6190 C   0  0  0  0  0  3  0  0  0  0  0  0
  -24.4380  -25.2290   14.4200 C   0  0  0  0  0  3  0  0  0  0  0  0
  -25.3230  -32.1790   23.7180 C   0  0  0  0  0  3  0  0  0  0  0  0
  -24.7930  -31.5450   25.0750 C   0  0  1  0  0  0  0  0  0  0  0  0
  -23.2500  -31.3950   25.1190 C   0  0  0  0  0  1  0  0  0  0  0  0
  -25.4930  -30.1920   25.3820 C   0  0  0  0  0  1  0  0  0  0  0  0
  -25.1820  -32.4360   26.2810 C   0  0  0  0  0  1  0  0  0  0  0  0
  -25.0470  -33.6250   23.7150 N   0  0  0  0  0  0  0  0  0  0  0  0
  -25.9330  -34.5700   23.3750 C   0  0  0  0  0  0  0  0  0  0  0  0
  -27.1010  -34.3120   23.0690 O   0  0  0  0  0  0  0  0  0  0  0  0
  -24.0920  -33.9020   23.8890 H   0  0  0  0  0  0  0  0  0  0  0  0
  -25.0900  -36.4380   21.9220 C   0  0  0  0  0  1  0  0  0  0  0  0
  -25.4470  -36.0310   23.3610 C   0  0  0  0  0  3  0  0  0  0  0  0
  -26.6360  -36.8330   25.3550 C   0  0  0  0  0  1  0  0  0  0  0  0
  -26.4320  -36.9850   23.9170 N   0  0  0  0  0  0  0  0  0  0  0  0
  -26.1440  -37.9440   23.7380 H   0  0  0  0  0  0  0  0  0  0  0  0
  -24.6920  -21.5620   20.5750 C   0  0  0  0  0 15  0  0  0  0  0  0
  -29.2480  -17.1020   19.7330 C   0  0  0  0  0  0  0  0  0  0  0  0
  -30.5830  -14.5650   18.9310 C   0  0  0  0  0  2  0  0  0  0  0  0
  -30.0370  -13.4930   17.8760 C   0  0  0  0  0  2  0  0  0  0  0  0
  -28.7700  -12.8000   18.3830 C   0  0  0  0  0  2  0  0  0  0  0  0
  -28.0430  -13.8360   19.2430 C   0  0  0  0  0  3  0  0  0  0  0  0
  -28.8620  -14.4650   20.3690 C   0  0  0  0  0  2  0  0  0  0  0  0
  -29.5040  -15.5500   19.6560 N   0  0  0  0  0  0  0  0  0  0  0  0
  -30.5060  -17.2840   19.4480 O   0  0  0  0  0  0  0  0  0  0  0  0
  -27.1710  -20.2010   18.8270 C   0  0  0  0  0  0  0  0  0  0  0  0
  -27.3480  -21.2570   18.0200 C   0  0  0  0  0  2  0  0  0  0  0  0
  -27.4060  -18.6860   18.5720 C   0  0  0  0  0  2  0  0  0  0  0  0
  -26.7170  -20.1380   20.2500 C   0  0  0  0  0  1  0  0  0  0  0  0
  -27.8360  -18.2950   19.9390 N   0  0  0  0  0  2  0  0  0  0  0  0
  -25.8800  -14.3720   20.2700 C   0  0  0  0  0  0  0  0  0  0  0  0
  -24.8660  -13.5970   20.7150 C   0  0  0  0  0  0  0  0  0  0  0  0
  -25.2850  -12.2440   20.5200 C   0  0  0  0  0  0  0  0  0  0  0  0
  -26.8120  -13.4760   19.8040 N   0  0  0  0  0  0  0  0  0  0  0  0
  -26.5120  -12.1870   20.0290 N   0  0  0  0  0  0  0  0  0  0  0  0
  -24.5570  -10.9980   20.6880 C   0  0  0  0  0  0  0  0  0  0  0  0
  -24.9340  -10.0480   21.6590 C   0  0  0  0  0  3  0  0  0  0  0  0
  -24.1920   -8.8590   21.8050 C   0  0  0  0  0  3  0  0  0  0  0  0
  -23.0680   -8.6230   20.9780 C   0  0  0  0  0  0  0  0  0  0  0  0
  -22.7200   -9.5630   19.9940 C   0  0  0  0  0  3  0  0  0  0  0  0
  -23.4610  -10.7420   19.8450 C   0  0  0  0  0  3  0  0  0  0  0  0
  -22.2970   -7.4900   21.0350 O   0  0  0  0  0  0  0  0  0  0  0  0
  -21.9600   -6.9150   22.2320 C   0  0  0  0  0  0  0  0  0  0  0  0
  -21.2690   -7.6300   23.2360 C   0  0  0  0  0  3  0  0  0  0  0  0
  -20.8810   -6.9770   24.4210 C   0  0  0  0  0  3  0  0  0  0  0  0
  -21.1740   -5.6110   24.6020 C   0  0  0  0  0  0  0  0  0  0  0  0
  -21.8580   -4.8980   23.6030 C   0  0  0  0  0  3  0  0  0  0  0  0
  -22.2480   -5.5490   22.4190 C   0  0  0  0  0  0  0  0  0  0  0  0
  -22.8890   -4.8560   21.4490 F   0  0  0  0  0  0  0  0  0  0  0  0
  -20.7930   -4.9810   25.7370 F   0  0  0  0  0  0  0  0  0  0  0  0
  -23.5440  -14.1020   21.1900 C   0  0  0  0  0  0  0  0  0  0  0  0
  -22.9130  -13.3800   22.1050 N   0  0  0  0  0  0  0  0  0  0  0  0
  -23.0930  -15.1730   20.7850 O   0  0  0  0  0  0  0  0  0  0  0  0
  -23.3050  -12.5150   22.4470 H   0  0  0  0  0  0  0  0  0  0  0  0
  -22.0260  -13.6960   22.4710 H   0  0  0  0  0  0  0  0  0  0  0  0
  -26.0780  -15.7500   20.2020 N   0  0  0  0  0  0  0  0  0  0  0  0
  -25.3570  -16.3980   20.4980 H   0  0  0  0  0  0  0  0  0  0  0  0
  -26.8590  -16.2060   19.7550 H   0  0  0  0  0  0  0  0  0  0  0  0
  1  3  1  0
  2  1  1  0
  4  2  1  0
  5  7  3  0
 12 17  1  0
 12 10  1  0
 13 23  1  0
 13 21  1  0
 14 20  1  0
 14 16  1  0
 16 15  1  0
 16 17  1  0
 18 12  1  0
 19 14  1  0
 19 18  1  0
 20 13  1  0
 21 15  1  0
 21 11  1  0
 22 11  2  0
 23 25  1  0
 24 23  1  0
 24 26  1  0
 27 32  1  0
 27 31  1  0
 28 24  1  0
 33 32  2  0
 34 33  1  0
 35 34  2  0
 35 36  1  0
 36 27  2  0
 37 11  1  0
 37 38  1  0
 38 39  1  6
 38 40  1  0
 38 41  1  0
 42 37  1  0
 42 45  1  0
 43 42  1  0
 44 43  2  0
 47 46  1  0
 47 43  1  0
 47 49  1  0
 49 48  1  0
 50 49  1  0
 52 64  1  0
 53 58  1  0
 54 55  1  0
 54 53  1  0
 56 55  1  0
 56 68  1  0
 56 57  1  0
 58 52  1  0
 58 57  1  0
 59 52  2  0
 60 63  1  0
 61 60  2  0
 62 60  1  0
 62 64  1  0
 65 66  2  0
 66 85  1  0
 67 70  1  0
 67 66  1  0
 68 69  1  0
 68 65  1  0
 69 67  2  0
 70 71  1  0
 71 72  2  0
 73 76  1  0
 73 72  1  0
 74 73  2  0
 75 74  1  0
 75 70  2  0
 76 77  1  0
 77 82  2  0
 77 78  1  0
 78 79  2  0
 79 80  1  0
 80 84  1  0
 81 80  2  0
 82 81  1  0
 83 82  1  0
 85 86  1  0
 86 88  1  0
 86 89  1  0
 87 85  2  0
 90 65  1  0
 90 91  1  0
 92 90  1  0
M  ISO  4   9 101  10 101  52 100  64 100
M  END
>  <TORSDO>  (87) 
F 20

>  <SCORE>  (87) 
-0.398

>  <name>  (87) 
86

>  <ligand_id>  (87) 
86

>  <original_smiles>  (87) 
[H]C([H])=C1C([H])([H])N(C(=O)N2C([H])([H])C([H])([H])C([H])([H])C([H])(n3nc(-c4c([H])c([H])c(Oc5c([H])c([H])c(F)c([H])c5F)c([H])c4[H])c(C(=O)N([H])[H])c3N([H])[H])C2([H])[H])C1([H])C([H])([H])N([H])C(=O)C1([H])C([H])([H])C1([H])C([H])([H])C([H])([H])Oc1c([H])c([H])c2c(c1[H])C([H])([H])N(C(=O)C([H])(N([H])C(=O)C([H])(N([H])C([H])([H])[H])C([H])([H])[H])C(C([H])([H])[H])(C([H])([H])[H])C([H])([H])[H])C([H])(C(=O)N([H])C1([H])c3c([H])c([H])c([H])c([H])c3C([H])([H])C([H])([H])C1([H])[H])C2([H])[H]

>  <smiles>  (87) 
[H]C([H])=C1C([H])([H])N(C(=O)N2C([H])([H])C([H])([H])C([H])([H])C([H])(n3nc(-c4c([H])c([H])c(Oc5c([H])c([H])c(F)c([H])c5F)c([H])c4[H])c(C(=O)N([H])[H])c3N([H])[H])C2([H])[H])C1([H])C([H])([H])N([H])C(=O)C1([H])C([H])([H])C1([H])C([H])([H])C([H])([H])Oc1c([H])c([H])c2c(c1[H])C([H])([H])N(C(=O)C([H])(N([H])C(=O)C([H])(N([H])C([H])([H])[H])C([H])([H])[H])C(C([H])([H])[H])(C([H])([H])[H])C([H])([H])[H])C([H])(C(=O)N([H])C1([H])c3c([H])c([H])c([H])c([H])c3C([H])([H])C([H])([H])C1([H])[H])C2([H])[H]

$$$$
87:0:0
     RDKit          3D

 91 99  0  0  1  0  0  0  0  0999 V2000
  -29.0230  -19.3860   20.1320 C   0  0  0  0  0  3  0  0  0  0  0  0
  -29.9120  -18.0070   19.9320 C   0  0  0  0  0  3  0  0  0  0  0  0
  -28.9000  -18.5180   18.9040 C   0  0  0  0  0  3  0  0  0  0  0  0
  -29.3780  -20.6560   20.2180 N   0  0  0  0  0  0  0  0  0  0  0  0
  -29.5040  -19.1740   17.7280 N   0  0  0  0  0  4  0  0  0  0  0  0
  -30.2030  -19.8330   18.0240 H   0  0  0  0  0  0  0  0  0  0  0  0
  -28.8080  -19.6730   17.2070 H   0  0  0  0  0  0  0  0  0  0  0  0
  -29.9280  -18.5020   17.1160 H   0  0  0  0  0  0  0  0  0  0  0  0
  -28.3830  -21.8740   20.1520 C   0  0  0  0  0  3  0  0  0  0  0  0
  -28.8590  -23.4860   20.2830 C   0  0  0  0  0  3  0  0  0  0  0  0
  -27.8370  -24.8040   20.0300 C   0  0  0  0  0  3  0  0  0  0  0  0
  -28.1190  -26.3240   20.2020 O   0  0  0  0  0  0  0  0  0  0  0  0
  -24.5460  -31.9890   23.2680 C   0  0  0  0  0  0  0  0  0  0  0  0
  -27.0580  -27.3020   20.1590 C   0  0  0  0  0  0  0  0  0  0  0  0
  -23.3080  -30.6000   21.6490 C   0  0  0  0  0  3  0  0  0  0  0  0
  -24.7250  -29.0370   20.1830 C   0  0  0  0  0  0  0  0  0  0  0  0
  -25.8570  -30.8720   21.4250 C   0  0  0  0  0  2  0  0  0  0  0  0
  -25.9170  -29.4840   20.7660 C   0  0  0  0  0  0  0  0  0  0  0  0
  -27.0850  -28.6340   20.7360 C   0  0  0  0  0  3  0  0  0  0  0  0
  -25.8370  -26.9550   19.5360 C   0  0  0  0  0  3  0  0  0  0  0  0
  -24.6980  -27.7850   19.5500 C   0  0  0  0  0  3  0  0  0  0  0  0
  -23.4970  -29.9310   20.2620 C   0  0  0  0  0  2  0  0  0  0  0  0
  -24.5910  -31.1760   22.1680 N   0  0  0  0  0  0  0  0  0  0  0  0
  -23.4710  -32.2690   23.8220 O   0  0  0  0  0  0  0  0  0  0  0  0
  -22.6520  -29.5870   22.6220 C   0  0  0  0  0  0  0  0  0  0  0  0
  -21.3310  -29.3740   22.4870 N   0  0  0  0  0  0  0  0  0  0  0  0
  -23.3360  -28.9950   23.4610 O   0  0  0  0  0  0  0  0  0  0  0  0
  -20.8350  -29.9070   21.7860 H   0  0  0  0  0  0  0  0  0  0  0  0
  -17.9850  -28.0780   22.9730 C   0  0  0  0  0  0  0  0  0  0  0  0
  -20.5310  -28.4240   23.2640 C   0  0  0  0  0  3  0  0  0  0  0  0
  -20.6840  -26.9850   22.7170 C   0  0  0  0  0  2  0  0  0  0  0  0
  -19.6050  -26.6090   21.6960 C   0  0  0  0  0  2  0  0  0  0  0  0
  -18.2120  -26.7220   22.3230 C   0  0  0  0  0  2  0  0  0  0  0  0
  -19.0740  -28.8820   23.4010 C   0  0  0  0  0  0  0  0  0  0  0  0
  -18.8070  -30.1470   23.9690 C   0  0  0  0  0  3  0  0  0  0  0  0
  -17.4860  -30.6070   24.1140 C   0  0  0  0  0  3  0  0  0  0  0  0
  -16.4100  -29.8010   23.7010 C   0  0  0  0  0  3  0  0  0  0  0  0
  -16.6610  -28.5380   23.1360 C   0  0  0  0  0  3  0  0  0  0  0  0
  -25.8370  -32.6200   23.8690 C   0  0  0  0  0  3  0  0  0  0  0  0
  -25.5330  -34.0190   24.2120 N   0  0  0  0  0  0  0  0  0  0  0  0
  -25.8260  -35.0760   23.4420 C   0  0  0  0  0  0  0  0  0  0  0  0
  -26.4480  -34.9770   22.3810 O   0  0  0  0  0  0  0  0  0  0  0  0
  -24.9750  -34.1700   25.0400 H   0  0  0  0  0  0  0  0  0  0  0  0
  -24.0750  -36.8640   23.1790 C   0  0  0  0  0  1  0  0  0  0  0  0
  -25.3570  -36.4630   23.9250 C   0  0  0  0  0  3  0  0  0  0  0  0
  -27.5180  -37.3700   24.6600 C   0  0  0  0  0  1  0  0  0  0  0  0
  -26.3780  -37.5210   23.7600 N   0  0  0  0  0  0  0  0  0  0  0  0
  -25.9730  -38.4400   23.9140 H   0  0  0  0  0  0  0  0  0  0  0  0
  -26.3740  -31.8470   25.1370 C   0  0  1  0  0  0  0  0  0  0  0  0
  -25.2950  -31.5970   26.2160 C   0  0  0  0  0  1  0  0  0  0  0  0
  -26.9620  -30.4740   24.7360 C   0  0  0  0  0  1  0  0  0  0  0  0
  -27.5260  -32.6480   25.7890 C   0  0  0  0  0  1  0  0  0  0  0  0
  -29.7070  -16.4850   20.5750 C   0  0  0  0  0  3  0  0  0  0  0  0
  -30.4800  -15.1050   20.0480 C   0  0  0  0  0  0  0  0  0  0  0  0
  -30.3770  -12.7640   19.0660 C   0  0  0  0  0  2  0  0  0  0  0  0
  -29.3780  -12.7300   17.8840 C   0  0  0  0  0  2  0  0  0  0  0  0
  -27.9430  -12.4790   18.3850 C   0  0  0  0  0  2  0  0  0  0  0  0
  -27.5830  -13.3670   19.6040 C   0  0  0  0  0  3  0  0  0  0  0  0
  -28.6970  -13.3760   20.6710 C   0  0  0  0  0  2  0  0  0  0  0  0
  -29.9320  -13.8230   20.0170 N   0  0  0  0  0  0  0  0  0  0  0  0
  -31.6200  -15.2210   19.5840 O   0  0  0  0  0  0  0  0  0  0  0  0
  -25.2420  -13.8760   20.5120 C   0  0  0  0  0  0  0  0  0  0  0  0
  -24.2140  -13.0670   20.9140 C   0  0  0  0  0  0  0  0  0  0  0  0
  -24.6960  -11.7280   20.7990 C   0  0  0  0  0  0  0  0  0  0  0  0
  -26.2820  -13.0270   20.1700 N   0  0  0  0  0  0  0  0  0  0  0  0
  -25.9660  -11.7270   20.4070 N   0  0  0  0  0  0  0  0  0  0  0  0
  -24.0000  -10.4460   20.9820 C   0  0  0  0  0  0  0  0  0  0  0  0
  -24.4510   -9.4860   21.9150 C   0  0  0  0  0  3  0  0  0  0  0  0
  -23.7530   -8.2710   22.0870 C   0  0  0  0  0  3  0  0  0  0  0  0
  -22.5910   -8.0060   21.3250 C   0  0  0  0  0  0  0  0  0  0  0  0
  -22.1580   -8.9560   20.3820 C   0  0  0  0  0  3  0  0  0  0  0  0
  -22.8570  -10.1610   20.2080 C   0  0  0  0  0  3  0  0  0  0  0  0
  -21.8640   -6.8430   21.4060 O   0  0  0  0  0  0  0  0  0  0  0  0
  -21.7590   -6.1400   22.5800 C   0  0  0  0  0  0  0  0  0  0  0  0
  -21.1660   -6.6990   23.7320 C   0  0  0  0  0  3  0  0  0  0  0  0
  -21.0150   -5.9180   24.8950 C   0  0  0  0  0  3  0  0  0  0  0  0
  -21.4460   -4.5780   24.9060 C   0  0  0  0  0  0  0  0  0  0  0  0
  -22.0300   -4.0180   23.7570 C   0  0  0  0  0  3  0  0  0  0  0  0
  -22.1830   -4.7960   22.5960 C   0  0  0  0  0  0  0  0  0  0  0  0
  -22.7280   -4.2440   21.4850 F   0  0  0  0  0  0  0  0  0  0  0  0
  -21.2930   -3.8260   26.0200 F   0  0  0  0  0  0  0  0  0  0  0  0
  -22.8300  -13.5090   21.2900 C   0  0  0  0  0  0  0  0  0  0  0  0
  -22.1610  -12.7600   22.1590 N   0  0  0  0  0  0  0  0  0  0  0  0
  -22.3520  -14.5540   20.8490 O   0  0  0  0  0  0  0  0  0  0  0  0
  -22.5590  -11.9140   22.5370 H   0  0  0  0  0  0  0  0  0  0  0  0
  -21.2330  -13.0380   22.4500 H   0  0  0  0  0  0  0  0  0  0  0  0
  -25.3750  -15.2550   20.3840 N   0  0  0  0  0  0  0  0  0  0  0  0
  -24.6110  -15.8920   20.5840 H   0  0  0  0  0  0  0  0  0  0  0  0
  -26.1980  -15.7240   20.0330 H   0  0  0  0  0  0  0  0  0  0  0  0
  -31.2650  -17.2700   22.5070 C   0  0  0  0  0  1  0  0  0  0  0  0
  -29.9390  -16.5990   22.1000 C   0  0  0  0  0  2  0  0  0  0  0  0
  1  4  1  0
  2  1  1  0
  2 53  1  0
  3  5  1  0
  3  2  1  0
  3  1  1  0
  5  6  1  0
  7  5  1  0
  8  5  1  0
  9  4  2  0
  9 10  1  0
 11 12  1  0
 11 10  2  0
 13 24  2  0
 14 12  1  0
 14 19  1  0
 15 23  1  0
 15 25  1  0
 16 22  1  0
 16 18  1  0
 17 23  1  0
 18 17  1  0
 19 18  2  0
 20 21  1  0
 20 14  2  0
 21 16  2  0
 22 15  1  0
 23 13  1  0
 25 27  2  0
 26 25  1  0
 28 26  1  0
 29 38  2  0
 29 34  1  0
 30 26  1  0
 30 34  1  0
 31 30  1  0
 32 33  1  0
 32 31  1  0
 33 29  1  0
 34 35  2  0
 35 36  1  0
 37 36  2  0
 38 37  1  0
 39 13  1  0
 39 40  1  0
 39 49  1  0
 40 43  1  0
 41 45  1  0
 41 40  1  0
 42 41  2  0
 45 44  1  0
 47 48  1  0
 47 45  1  0
 47 46  1  0
 49 52  1  1
 49 50  1  0
 51 49  1  0
 53 91  1  0
 54 53  1  0
 55 60  1  0
 56 57  1  0
 56 55  1  0
 58 57  1  0
 58 65  1  0
 58 59  1  0
 60 54  1  0
 60 59  1  0
 61 54  2  0
 62 63  2  0
 63 82  1  0
 64 63  1  0
 64 67  1  0
 65 66  1  0
 65 62  1  0
 66 64  2  0
 67 68  1  0
 68 69  2  0
 70 73  1  0
 70 69  1  0
 71 70  2  0
 72 71  1  0
 72 67  2  0
 73 74  1  0
 74 79  2  0
 74 75  1  0
 75 76  2  0
 76 77  1  0
 77 81  1  0
 78 77  2  0
 79 78  1  0
 80 79  1  0
 82 83  1  0
 83 86  1  0
 83 85  1  0
 84 82  2  0
 87 62  1  0
 87 88  1  0
 89 87  1  0
 91 90  1  0
M  ISO  4  11 101  12 101  53 100  54 100
M  END
>  <TORSDO>  (88) 
F 22

>  <SCORE>  (88) 
-12.690

>  <name>  (88) 
87

>  <ligand_id>  (88) 
87

>  <original_smiles>  (88) 
[H]c1c([H])c([H])c2c(c1[H])C([H])([H])C([H])([H])C([H])([H])C2([H])N([H])C(=O)C1([H])N(C(=O)C([H])(N([H])C(=O)C([H])(N([H])C([H])([H])[H])C([H])([H])[H])C(C([H])([H])[H])(C([H])([H])[H])C([H])([H])[H])C([H])([H])c2c([H])c(OC([H])([H])C([H])([H])C([H])([H])N=C3C([H])(C([H])(C(=O)N4C([H])([H])C([H])([H])C([H])([H])C([H])(n5nc(-c6c([H])c([H])c(Oc7c([H])c([H])c(F)c([H])c7F)c([H])c6[H])c(C(=O)N([H])[H])c5N([H])[H])C4([H])[H])C([H])([H])C([H])([H])[H])C3([H])[N+]([H])([H])[H])c([H])c([H])c2C1([H])[H]

>  <smiles>  (88) 
[H]c1c([H])c([H])c2c(c1[H])C([H])([H])C([H])([H])C([H])([H])C2([H])N([H])C(=O)C1([H])N(C(=O)C([H])(N([H])C(=O)C([H])(N([H])C([H])([H])[H])C([H])([H])[H])C(C([H])([H])[H])(C([H])([H])[H])C([H])([H])[H])C([H])([H])c2c([H])c(OC([H])([H])C([H])([H])C([H])([H])N=C3C([H])(C([H])(C(=O)N4C([H])([H])C([H])([H])C([H])([H])C([H])(n5nc(-c6c([H])c([H])c(Oc7c([H])c([H])c(F)c([H])c7F)c([H])c6[H])c(C(=O)N([H])[H])c5N([H])[H])C4([H])[H])C([H])([H])C([H])([H])[H])C3([H])[N+]([H])([H])[H])c([H])c([H])c2C1([H])[H]

$$$$
88:0:0
     RDKit          3D

 91 99  0  0  1  0  0  0  0  0999 V2000
  -30.4930  -20.0420   19.4890 C   0  0  0  0  0  3  0  0  0  0  0  0
  -28.4570  -19.3590   20.4880 C   0  0  0  0  0  3  0  0  0  0  0  0
  -30.9890  -18.6850   19.5640 C   0  0  0  0  0  3  0  0  0  0  0  0
  -28.9490  -18.0060   20.5480 C   0  0  0  0  0  3  0  0  0  0  0  0
  -29.2090  -20.4540   19.9720 C   0  0  0  0  0  0  0  0  0  0  0  0
  -30.2560  -17.5830   20.1180 C   0  0  0  0  0  0  0  0  0  0  0  0
  -32.4120  -16.5090   20.8000 C   0  0  0  0  0  1  0  0  0  0  0  0
  -30.9250  -16.1330   20.5220 C   0  0  2  0  0  0  0  0  0  0  0  0
  -31.0780  -14.8320   19.4890 C   0  0  0  0  0  0  0  0  0  0  0  0
  -30.5670  -12.6330   18.3250 C   0  0  0  0  0  2  0  0  0  0  0  0
  -29.4850  -12.8090   17.2310 C   0  0  0  0  0  2  0  0  0  0  0  0
  -28.0690  -12.6900   17.8220 C   0  0  0  0  0  2  0  0  0  0  0  0
  -27.9170  -13.5000   19.1350 C   0  0  0  0  0  3  0  0  0  0  0  0
  -29.0930  -13.2370   20.0900 C   0  0  0  0  0  2  0  0  0  0  0  0
  -30.3360  -13.6460   19.4070 N   0  0  0  0  0  0  0  0  0  0  0  0
  -32.0540  -14.8830   18.7300 O   0  0  0  0  0  0  0  0  0  0  0  0
  -25.6950  -14.2010   20.2050 C   0  0  0  0  0  0  0  0  0  0  0  0
  -24.6350  -13.4800   20.6870 C   0  0  0  0  0  0  0  0  0  0  0  0
  -24.9930  -12.1060   20.5330 C   0  0  0  0  0  0  0  0  0  0  0  0
  -26.6310  -13.2690   19.7850 N   0  0  0  0  0  0  0  0  0  0  0  0
  -26.2240  -12.0010   20.0440 N   0  0  0  0  0  0  0  0  0  0  0  0
  -24.2110  -10.8860   20.7730 C   0  0  0  0  0  0  0  0  0  0  0  0
  -24.6660   -9.8770   21.6500 C   0  0  0  0  0  3  0  0  0  0  0  0
  -23.8860   -8.7210   21.8780 C   0  0  0  0  0  3  0  0  0  0  0  0
  -22.6360   -8.5680   21.2320 C   0  0  0  0  0  0  0  0  0  0  0  0
  -22.1990   -9.5650   20.3420 C   0  0  0  0  0  3  0  0  0  0  0  0
  -22.9790  -10.7120   20.1110 C   0  0  0  0  0  3  0  0  0  0  0  0
  -21.8240   -7.4690   21.3710 O   0  0  0  0  0  0  0  0  0  0  0  0
  -21.7850   -6.7470   22.5370 C   0  0  0  0  0  0  0  0  0  0  0  0
  -21.4560   -7.3440   23.7740 C   0  0  0  0  0  3  0  0  0  0  0  0
  -21.3600   -6.5500   24.9350 C   0  0  0  0  0  3  0  0  0  0  0  0
  -21.5830   -5.1620   24.8590 C   0  0  0  0  0  0  0  0  0  0  0  0
  -21.9050   -4.5650   23.6270 C   0  0  0  0  0  3  0  0  0  0  0  0
  -22.0040   -5.3560   22.4700 C   0  0  0  0  0  0  0  0  0  0  0  0
  -22.2940   -4.7740   21.2810 F   0  0  0  0  0  0  0  0  0  0  0  0
  -21.4830   -4.3970   25.9710 F   0  0  0  0  0  0  0  0  0  0  0  0
  -23.3260  -14.0360   21.1700 C   0  0  0  0  0  0  0  0  0  0  0  0
  -22.6790  -13.3520   22.1080 N   0  0  0  0  0  0  0  0  0  0  0  0
  -22.8940  -15.1090   20.7540 O   0  0  0  0  0  0  0  0  0  0  0  0
  -23.0430  -12.4840   22.4720 H   0  0  0  0  0  0  0  0  0  0  0  0
  -21.8050  -13.7070   22.4680 H   0  0  0  0  0  0  0  0  0  0  0  0
  -25.9320  -15.5640   20.0740 N   0  0  0  0  0  0  0  0  0  0  0  0
  -25.2430  -16.2610   20.3330 H   0  0  0  0  0  0  0  0  0  0  0  0
  -26.7730  -15.9660   19.6810 H   0  0  0  0  0  0  0  0  0  0  0  0
  -30.7140  -16.4970   23.1680 C   0  0  0  0  0  1  0  0  0  0  0  0
  -30.3840  -15.6550   21.9120 C   0  0  0  0  0  2  0  0  0  0  0  0
  -28.5550  -21.9160   19.7140 C   0  0  0  0  0  2  0  0  0  0  0  0
  -28.4590  -22.9470   22.0980 C   0  0  0  0  0  1  0  0  0  0  0  0
  -28.6780  -23.2850   20.6150 C   0  0  0  0  0  3  0  0  0  0  0  0
  -27.7480  -24.5770   20.1790 C   0  0  0  0  0  2  0  0  0  0  0  0
  -28.0210  -26.0590   20.4120 O   0  0  0  0  0  0  0  0  0  0  0  0
  -24.3430  -31.7220   23.1400 C   0  0  0  0  0  0  0  0  0  0  0  0
  -26.9570  -26.9990   20.2680 C   0  0  0  0  0  0  0  0  0  0  0  0
  -23.1600  -30.2840   21.5210 C   0  0  0  0  0  3  0  0  0  0  0  0
  -24.6210  -28.6920   20.1470 C   0  0  0  0  0  0  0  0  0  0  0  0
  -25.7070  -30.5710   21.3690 C   0  0  0  0  0  2  0  0  0  0  0  0
  -25.7870  -29.1680   20.7630 C   0  0  0  0  0  0  0  0  0  0  0  0
  -26.9560  -28.3320   20.8140 C   0  0  0  0  0  3  0  0  0  0  0  0
  -25.7750  -26.6140   19.5950 C   0  0  0  0  0  3  0  0  0  0  0  0
  -24.6230  -27.4240   19.5490 C   0  0  0  0  0  3  0  0  0  0  0  0
  -23.3910  -29.5780   20.1590 C   0  0  0  0  0  2  0  0  0  0  0  0
  -24.4220  -30.8810   22.0640 N   0  0  0  0  0  0  0  0  0  0  0  0
  -23.2540  -32.0140   23.6550 O   0  0  0  0  0  0  0  0  0  0  0  0
  -22.4790  -29.2950   22.5000 C   0  0  0  0  0  0  0  0  0  0  0  0
  -21.1540  -29.1080   22.3590 N   0  0  0  0  0  0  0  0  0  0  0  0
  -23.1450  -28.6990   23.3500 O   0  0  0  0  0  0  0  0  0  0  0  0
  -20.6760  -29.6390   21.6450 H   0  0  0  0  0  0  0  0  0  0  0  0
  -17.7800  -27.8820   22.8270 C   0  0  0  0  0  0  0  0  0  0  0  0
  -20.3250  -28.1900   23.1430 C   0  0  0  0  0  3  0  0  0  0  0  0
  -20.4560  -26.7380   22.6270 C   0  0  0  0  0  2  0  0  0  0  0  0
  -19.3870  -26.3550   21.6010 C   0  0  0  0  0  2  0  0  0  0  0  0
  -17.9880  -26.5100   22.2070 C   0  0  0  0  0  2  0  0  0  0  0  0
  -18.8770  -28.6760   23.2520 C   0  0  0  0  0  0  0  0  0  0  0  0
  -18.6310  -29.9520   23.7990 C   0  0  0  0  0  3  0  0  0  0  0  0
  -17.3180  -30.4460   23.9180 C   0  0  0  0  0  3  0  0  0  0  0  0
  -16.2320  -29.6520   23.5080 C   0  0  0  0  0  3  0  0  0  0  0  0
  -16.4640  -28.3720   22.9730 C   0  0  0  0  0  3  0  0  0  0  0  0
  -25.6190  -32.3690   23.7630 C   0  0  0  0  0  3  0  0  0  0  0  0
  -25.3040  -33.7740   24.0630 N   0  0  0  0  0  0  0  0  0  0  0  0
  -25.6320  -34.8120   23.2810 C   0  0  0  0  0  0  0  0  0  0  0  0
  -26.3040  -34.6880   22.2540 O   0  0  0  0  0  0  0  0  0  0  0  0
  -24.7140  -33.9380   24.8640 H   0  0  0  0  0  0  0  0  0  0  0  0
  -23.8960  -36.5920   22.8920 C   0  0  0  0  0  1  0  0  0  0  0  0
  -25.1420  -36.2090   23.7070 C   0  0  0  0  0  3  0  0  0  0  0  0
  -27.2760  -37.1210   24.5140 C   0  0  0  0  0  1  0  0  0  0  0  0
  -26.1700  -37.2630   23.5690 N   0  0  0  0  0  0  0  0  0  0  0  0
  -25.7610  -38.1860   23.6980 H   0  0  0  0  0  0  0  0  0  0  0  0
  -26.1190  -31.6260   25.0630 C   0  0  1  0  0  0  0  0  0  0  0  0
  -25.0110  -31.4100   26.1220 C   0  0  0  0  0  1  0  0  0  0  0  0
  -26.7140  -30.2420   24.7120 C   0  0  0  0  0  1  0  0  0  0  0  0
  -27.2590  -32.4380   25.7230 C   0  0  0  0  0  1  0  0  0  0  0  0
  1  3  2  0
  1  5  1  0
  2  4  1  0
  3  6  1  0
  5  2  2  0
  6  8  1  0
  6  4  2  0
  8  7  1  1
  8 46  1  0
  9  8  1  0
 10 15  1  0
 11 12  1  0
 11 10  1  0
 13 12  1  0
 13 20  1  0
 13 14  1  0
 15  9  1  0
 15 14  1  0
 16  9  2  0
 17 18  2  0
 18 37  1  0
 19 18  1  0
 19 22  1  0
 20 21  1  0
 20 17  1  0
 21 19  2  0
 22 23  1  0
 23 24  2  0
 25 28  1  0
 25 24  1  0
 26 25  2  0
 27 26  1  0
 27 22  2  0
 28 29  1  0
 29 30  1  0
 30 31  2  0
 32 31  1  0
 32 36  1  0
 33 32  2  0
 34 29  2  0
 34 33  1  0
 35 34  1  0
 37 38  1  0
 38 41  1  0
 38 40  1  0
 39 37  2  0
 42 17  1  0
 42 43  1  0
 44 42  1  0
 46 45  1  0
 47  5  1  0
 47 49  1  0
 49 48  1  0
 50 51  1  0
 50 49  1  0
 52 63  2  0
 53 51  1  0
 53 58  1  0
 54 62  1  0
 54 64  1  0
 55 61  1  0
 55 57  1  0
 56 62  1  0
 57 58  2  0
 57 56  1  0
 59 53  2  0
 60 59  1  0
 60 55  2  0
 61 54  1  0
 62 52  1  0
 64 66  2  0
 65 64  1  0
 67 65  1  0
 68 77  2  0
 68 73  1  0
 69 65  1  0
 69 73  1  0
 70 69  1  0
 71 72  1  0
 71 70  1  0
 72 68  1  0
 73 74  2  0
 74 75  1  0
 76 75  2  0
 77 76  1  0
 78 52  1  0
 78 79  1  0
 78 88  1  0
 79 82  1  0
 80 84  1  0
 80 79  1  0
 81 80  2  0
 84 83  1  0
 86 87  1  0
 86 84  1  0
 86 85  1  0
 88 91  1  1
 88 89  1  0
 90 88  1  0
M  ISO  4   8 100   9 100  50 101  51 101
M  END
>  <TORSDO>  (89) 
F 21

>  <SCORE>  (89) 
-10.422

>  <name>  (89) 
88

>  <ligand_id>  (89) 
88

>  <original_smiles>  (89) 
[H]c1c([H])c([H])c2c(c1[H])C([H])([H])C([H])([H])C([H])([H])C2([H])N([H])C(=O)C1([H])N(C(=O)C([H])(N([H])C(=O)C([H])(N([H])C([H])([H])[H])C([H])([H])[H])C(C([H])([H])[H])(C([H])([H])[H])C([H])([H])[H])C([H])([H])c2c([H])c(OC([H])([H])C([H])(C([H])([H])[H])C([H])([H])c3c([H])c([H])c(C(C(=O)N4C([H])([H])C([H])([H])C([H])([H])C([H])(n5nc(-c6c([H])c([H])c(Oc7c([H])c([H])c(F)c([H])c7F)c([H])c6[H])c(C(=O)N([H])[H])c5N([H])[H])C4([H])[H])(C([H])([H])[H])C([H])([H])C([H])([H])[H])c([H])c3[H])c([H])c([H])c2C1([H])[H]

>  <smiles>  (89) 
[H]c1c([H])c([H])c2c(c1[H])C([H])([H])C([H])([H])C([H])([H])C2([H])N([H])C(=O)C1([H])N(C(=O)C([H])(N([H])C(=O)C([H])(N([H])C([H])([H])[H])C([H])([H])[H])C(C([H])([H])[H])(C([H])([H])[H])C([H])([H])[H])C([H])([H])c2c([H])c(OC([H])([H])C([H])(C([H])([H])[H])C([H])([H])c3c([H])c([H])c(C(C(=O)N4C([H])([H])C([H])([H])C([H])([H])C([H])(n5nc(-c6c([H])c([H])c(Oc7c([H])c([H])c(F)c([H])c7F)c([H])c6[H])c(C(=O)N([H])[H])c5N([H])[H])C4([H])[H])(C([H])([H])[H])C([H])([H])C([H])([H])[H])c([H])c3[H])c([H])c([H])c2C1([H])[H]

$$$$
89:0:0
     RDKit          3D

 90 98  0  0  1  0  0  0  0  0999 V2000
  -29.5210  -20.6930   20.1590 N   0  0  0  0  0  4  0  0  0  0  0  0
  -29.4220  -20.6180   19.1600 H   0  0  0  0  0  0  0  0  0  0  0  0
  -30.4770  -20.9550   20.3310 H   0  0  0  0  0  0  0  0  0  0  0  0
  -30.5850  -18.7640   21.4150 C   0  0  0  0  0  2  0  0  0  0  0  0
  -29.3130  -19.2510   20.7620 C   0  0  0  0  0  3  0  0  0  0  0  0
  -30.0770  -17.8460   20.3120 C   0  0  1  0  0  0  0  0  0  0  0  0
  -30.7620  -17.9040   18.9690 C   0  0  0  0  0  0  0  0  0  0  0  0
  -32.2810  -17.9850   18.9110 C   0  0  0  0  0  1  0  0  0  0  0  0
  -30.1030  -17.9100   17.9280 O   0  0  0  0  0  0  0  0  0  0  0  0
  -29.7630  -16.2740   20.7320 C   0  0  0  0  0  2  0  0  0  0  0  0
  -30.5910  -14.9140   20.3200 C   0  0  0  0  0  0  0  0  0  0  0  0
  -30.4680  -12.6020   19.3040 C   0  0  0  0  0  2  0  0  0  0  0  0
  -29.5300  -12.6350   18.0740 C   0  0  0  0  0  2  0  0  0  0  0  0
  -28.0630  -12.4300   18.4970 C   0  0  0  0  0  2  0  0  0  0  0  0
  -27.6680  -13.3180   19.7050 C   0  0  0  0  0  3  0  0  0  0  0  0
  -28.7230  -13.2630   20.8310 C   0  0  0  0  0  2  0  0  0  0  0  0
  -30.0140  -13.6530   20.2520 N   0  0  0  0  0  0  0  0  0  0  0  0
  -31.7700  -15.0130   19.9640 O   0  0  0  0  0  0  0  0  0  0  0  0
  -25.2760  -13.8880   20.4260 C   0  0  0  0  0  0  0  0  0  0  0  0
  -24.2160  -13.1070   20.7970 C   0  0  0  0  0  0  0  0  0  0  0  0
  -24.6940  -11.7610   20.7820 C   0  0  0  0  0  0  0  0  0  0  0  0
  -26.3270  -13.0170   20.1960 N   0  0  0  0  0  0  0  0  0  0  0  0
  -25.9850  -11.7330   20.4780 N   0  0  0  0  0  0  0  0  0  0  0  0
  -23.9770  -10.4940   20.9800 C   0  0  0  0  0  0  0  0  0  0  0  0
  -24.4030   -9.5460   21.9370 C   0  0  0  0  0  3  0  0  0  0  0  0
  -23.6870   -8.3430   22.1220 C   0  0  0  0  0  3  0  0  0  0  0  0
  -22.5300   -8.0800   21.3500 C   0  0  0  0  0  0  0  0  0  0  0  0
  -22.1240   -9.0170   20.3830 C   0  0  0  0  0  3  0  0  0  0  0  0
  -22.8420  -10.2110   20.1960 C   0  0  0  0  0  3  0  0  0  0  0  0
  -21.7850   -6.9290   21.4430 O   0  0  0  0  0  0  0  0  0  0  0  0
  -21.7150   -6.2100   22.6090 C   0  0  0  0  0  0  0  0  0  0  0  0
  -21.2380   -6.7810   23.8100 C   0  0  0  0  0  3  0  0  0  0  0  0
  -21.1170   -5.9860   24.9680 C   0  0  0  0  0  3  0  0  0  0  0  0
  -21.4640   -4.6220   24.9260 C   0  0  0  0  0  0  0  0  0  0  0  0
  -21.9330   -4.0510   23.7310 C   0  0  0  0  0  3  0  0  0  0  0  0
  -22.0560   -4.8420   22.5750 C   0  0  0  0  0  0  0  0  0  0  0  0
  -22.4890   -4.2820   21.4200 F   0  0  0  0  0  0  0  0  0  0  0  0
  -21.3400   -3.8560   26.0360 F   0  0  0  0  0  0  0  0  0  0  0  0
  -22.8130  -13.5750   21.0570 C   0  0  0  0  0  0  0  0  0  0  0  0
  -22.0850  -12.8770   21.9220 N   0  0  0  0  0  0  0  0  0  0  0  0
  -22.3710  -14.5930   20.5270 O   0  0  0  0  0  0  0  0  0  0  0  0
  -22.4540  -12.0530   22.3740 H   0  0  0  0  0  0  0  0  0  0  0  0
  -21.1440  -13.1740   22.1390 H   0  0  0  0  0  0  0  0  0  0  0  0
  -25.4300  -15.2600   20.2400 N   0  0  0  0  0  0  0  0  0  0  0  0
  -24.6590  -15.9090   20.3470 H   0  0  0  0  0  0  0  0  0  0  0  0
  -26.2770  -15.7030   19.9130 H   0  0  0  0  0  0  0  0  0  0  0  0
  -28.6460  -21.9210   20.5920 C   0  0  0  0  0  2  0  0  0  0  0  0
  -29.0200  -23.4940   20.1790 C   0  0  0  0  0  3  0  0  0  0  0  0
  -27.9970  -24.7710   20.4600 C   0  0  0  0  0  3  0  0  0  0  0  0
  -28.2840  -26.2720   20.2470 O   0  0  0  0  0  0  0  0  0  0  0  0
  -24.6130  -31.8880   23.2360 C   0  0  0  0  0  0  0  0  0  0  0  0
  -27.2090  -27.2190   20.2090 C   0  0  0  0  0  0  0  0  0  0  0  0
  -23.4140  -30.4830   21.6040 C   0  0  0  0  0  3  0  0  0  0  0  0
  -24.8670  -28.9190   20.1810 C   0  0  0  0  0  0  0  0  0  0  0  0
  -25.9630  -30.7720   21.4290 C   0  0  0  0  0  2  0  0  0  0  0  0
  -26.0430  -29.3820   20.7860 C   0  0  0  0  0  0  0  0  0  0  0  0
  -27.2170  -28.5470   20.7840 C   0  0  0  0  0  3  0  0  0  0  0  0
  -26.0110  -26.8560   19.5550 C   0  0  0  0  0  3  0  0  0  0  0  0
  -24.8600  -27.6680   19.5510 C   0  0  0  0  0  3  0  0  0  0  0  0
  -23.6330  -29.8060   20.2260 C   0  0  0  0  0  2  0  0  0  0  0  0
  -24.6830  -31.0680   22.1450 N   0  0  0  0  0  0  0  0  0  0  0  0
  -23.5270  -32.1690   23.7660 O   0  0  0  0  0  0  0  0  0  0  0  0
  -22.7470  -29.4720   22.5680 C   0  0  0  0  0  0  0  0  0  0  0  0
  -21.4200  -29.2900   22.4410 N   0  0  0  0  0  0  0  0  0  0  0  0
  -23.4240  -28.8520   23.3920 O   0  0  0  0  0  0  0  0  0  0  0  0
  -20.9300  -29.8440   21.7510 H   0  0  0  0  0  0  0  0  0  0  0  0
  -18.0460  -28.0760   22.9460 C   0  0  0  0  0  0  0  0  0  0  0  0
  -20.6040  -28.3520   23.2150 C   0  0  0  0  0  3  0  0  0  0  0  0
  -20.7150  -26.9180   22.6450 C   0  0  0  0  0  2  0  0  0  0  0  0
  -19.6150  -26.5850   21.6320 C   0  0  0  0  0  2  0  0  0  0  0  0
  -18.2310  -26.7260   22.2740 C   0  0  0  0  0  2  0  0  0  0  0  0
  -19.1600  -28.8460   23.3730 C   0  0  0  0  0  0  0  0  0  0  0  0
  -18.9340  -30.1100   23.9610 C   0  0  0  0  0  3  0  0  0  0  0  0
  -17.6270  -30.6030   24.1270 C   0  0  0  0  0  3  0  0  0  0  0  0
  -16.5270  -29.8310   23.7150 C   0  0  0  0  0  3  0  0  0  0  0  0
  -16.7380  -28.5690   23.1300 C   0  0  0  0  0  3  0  0  0  0  0  0
  -25.8910  -32.5300   23.8560 C   0  0  0  0  0  3  0  0  0  0  0  0
  -25.5770  -33.9310   24.1790 N   0  0  0  0  0  0  0  0  0  0  0  0
  -25.9070  -34.9820   23.4180 C   0  0  0  0  0  0  0  0  0  0  0  0
  -26.5770  -34.8740   22.3870 O   0  0  0  0  0  0  0  0  0  0  0  0
  -24.9830  -34.0860   24.9800 H   0  0  0  0  0  0  0  0  0  0  0  0
  -24.1820  -36.7770   23.0520 C   0  0  0  0  0  1  0  0  0  0  0  0
  -25.4190  -36.3710   23.8710 C   0  0  0  0  0  3  0  0  0  0  0  0
  -27.5480  -37.2600   24.7110 C   0  0  0  0  0  1  0  0  0  0  0  0
  -26.4530  -37.4240   23.7610 N   0  0  0  0  0  0  0  0  0  0  0  0
  -26.0470  -38.3460   23.9010 H   0  0  0  0  0  0  0  0  0  0  0  0
  -26.4020  -31.7690   25.1410 C   0  0  1  0  0  0  0  0  0  0  0  0
  -25.3070  -31.5410   26.2080 C   0  0  0  0  0  1  0  0  0  0  0  0
  -26.9890  -30.3880   24.7660 C   0  0  0  0  0  1  0  0  0  0  0  0
  -27.5510  -32.5700   25.8010 C   0  0  0  0  0  1  0  0  0  0  0  0
  1  3  1  0
  1 47  1  0
  2  1  1  0
  5  1  1  0
  5  4  1  0
  6 10  1  1
  6  5  1  0
  6  4  1  0
  7  6  1  0
  8  7  1  0
  9  7  2  0
 11 10  1  0
 12 17  1  0
 13 14  1  0
 13 12  1  0
 15 14  1  0
 15 22  1  0
 15 16  1  0
 17 11  1  0
 17 16  1  0
 18 11  2  0
 19 20  2  0
 20 39  1  0
 21 20  1  0
 21 24  1  0
 22 19  1  0
 22 23  1  0
 23 21  2  0
 24 25  1  0
 25 26  2  0
 27 30  1  0
 27 26  1  0
 28 27  2  0
 29 28  1  0
 29 24  2  0
 30 31  1  0
 31 32  1  0
 32 33  2  0
 34 33  1  0
 34 38  1  0
 35 34  2  0
 36 31  2  0
 36 35  1  0
 37 36  1  0
 39 40  1  0
 40 43  1  0
 40 42  1  0
 41 39  2  0
 44 45  1  0
 44 19  1  0
 46 44  1  0
 48 49  2  0
 48 47  1  0
 50 49  1  0
 51 62  2  0
 52 50  1  0
 52 57  1  0
 53 61  1  0
 53 63  1  0
 54 60  1  0
 54 56  1  0
 55 61  1  0
 56 55  1  0
 57 56  2  0
 58 52  2  0
 59 58  1  0
 59 54  2  0
 60 53  1  0
 61 51  1  0
 63 65  2  0
 64 63  1  0
 66 64  1  0
 67 76  2  0
 67 72  1  0
 68 64  1  0
 68 72  1  0
 69 68  1  0
 70 71  1  0
 70 69  1  0
 71 67  1  0
 72 73  2  0
 73 74  1  0
 75 74  2  0
 76 75  1  0
 77 51  1  0
 77 78  1  0
 77 87  1  0
 78 81  1  0
 79 83  1  0
 79 78  1  0
 80 79  2  0
 83 82  1  0
 85 83  1  0
 85 86  1  0
 85 84  1  0
 87 90  1  1
 87 88  1  0
 89 87  1  0
M  ISO  4  10 100  11 100  49 101  50 101
M  END
>  <TORSDO>  (90) 
F 22

>  <SCORE>  (90) 
-13.034

>  <name>  (90) 
89

>  <ligand_id>  (90) 
89

>  <original_smiles>  (90) 
[H]c1c([H])c([H])c2c(c1[H])C([H])([H])C([H])([H])C([H])([H])C2([H])N([H])C(=O)C1([H])N(C(=O)C([H])(N([H])C(=O)C([H])(N([H])C([H])([H])[H])C([H])([H])[H])C(C([H])([H])[H])(C([H])([H])[H])C([H])([H])[H])C([H])([H])c2c([H])c(OC([H])([H])C([H])([H])C([H])([H])[N+]([H])([H])C3([H])C([H])([H])C3(C(=O)C([H])([H])[H])C([H])([H])C(=O)N3C([H])([H])C([H])([H])C([H])([H])C([H])(n4nc(-c5c([H])c([H])c(Oc6c([H])c([H])c(F)c([H])c6F)c([H])c5[H])c(C(=O)N([H])[H])c4N([H])[H])C3([H])[H])c([H])c([H])c2C1([H])[H]

>  <smiles>  (90) 
[H]c1c([H])c([H])c2c(c1[H])C([H])([H])C([H])([H])C([H])([H])C2([H])N([H])C(=O)C1([H])N(C(=O)C([H])(N([H])C(=O)C([H])(N([H])C([H])([H])[H])C([H])([H])[H])C(C([H])([H])[H])(C([H])([H])[H])C([H])([H])[H])C([H])([H])c2c([H])c(OC([H])([H])C([H])([H])C([H])([H])[N+]([H])([H])C3([H])C([H])([H])C3(C(=O)C([H])([H])[H])C([H])([H])C(=O)N3C([H])([H])C([H])([H])C([H])([H])C([H])(n4nc(-c5c([H])c([H])c(Oc6c([H])c([H])c(F)c([H])c6F)c([H])c5[H])c(C(=O)N([H])[H])c4N([H])[H])C3([H])[H])c([H])c([H])c2C1([H])[H]

$$$$
90:0:0
     RDKit          3D

 97106  0  0  1  0  0  0  0  0999 V2000
  -27.7940  -19.8640   20.4080 C   0  0  0  0  0  2  0  0  0  0  0  0
  -29.0790  -19.7550   21.2310 C   0  0  0  0  0  3  0  0  0  0  0  0
  -28.4980  -20.9360   19.5460 C   0  0  0  0  0  3  0  0  0  0  0  0
  -29.3600  -21.1730   20.7060 N   0  0  0  0  0  0  0  0  0  0  0  0
  -30.0150  -18.4980   20.8390 C   0  0  0  0  0  2  0  0  0  0  0  0
  -30.1840  -17.2540   21.8490 C   0  0  0  0  0  2  0  0  0  0  0  0
  -30.6580  -14.7470   21.1290 C   0  0  0  0  0  0  0  0  0  0  0  0
  -30.5460  -12.5170   20.0020 C   0  0  0  0  0  2  0  0  0  0  0  0
  -29.7110  -12.6300   18.7080 C   0  0  0  0  0  2  0  0  0  0  0  0
  -28.2070  -12.4620   19.0050 C   0  0  0  0  0  2  0  0  0  0  0  0
  -27.7350  -13.3110   20.2150 C   0  0  0  0  0  3  0  0  0  0  0  0
  -28.6950  -13.1680   21.4160 C   0  0  0  0  0  2  0  0  0  0  0  0
  -30.0390  -13.5320   20.9480 N   0  0  0  0  0  0  0  0  0  0  0  0
  -31.8580  -14.8870   20.8840 O   0  0  0  0  0  0  0  0  0  0  0  0
  -29.8560  -15.8290   21.4240 N   0  0  0  0  0  0  0  0  0  0  0  0
  -28.8870  -15.5780   21.5370 H   0  0  0  0  0  0  0  0  0  0  0  0
  -25.2770  -13.8860   20.6820 C   0  0  0  0  0  0  0  0  0  0  0  0
  -24.1880  -13.1060   20.9690 C   0  0  0  0  0  0  0  0  0  0  0  0
  -24.6700  -11.7620   21.0160 C   0  0  0  0  0  0  0  0  0  0  0  0
  -26.3510  -13.0170   20.5750 N   0  0  0  0  0  0  0  0  0  0  0  0
  -25.9850  -11.7350   20.8360 N   0  0  0  0  0  0  0  0  0  0  0  0
  -23.9410  -10.4950   21.1660 C   0  0  0  0  0  0  0  0  0  0  0  0
  -24.3110   -9.5410   22.1400 C   0  0  0  0  0  3  0  0  0  0  0  0
  -23.5870   -8.3380   22.2770 C   0  0  0  0  0  3  0  0  0  0  0  0
  -22.4750   -8.0810   21.4400 C   0  0  0  0  0  0  0  0  0  0  0  0
  -22.1250   -9.0210   20.4560 C   0  0  0  0  0  3  0  0  0  0  0  0
  -22.8520  -10.2160   20.3170 C   0  0  0  0  0  3  0  0  0  0  0  0
  -21.7260   -6.9300   21.4870 O   0  0  0  0  0  0  0  0  0  0  0  0
  -21.6150   -6.1880   22.6350 C   0  0  0  0  0  0  0  0  0  0  0  0
  -21.1370   -6.7470   23.8400 C   0  0  0  0  0  3  0  0  0  0  0  0
  -20.9760   -5.9310   24.9790 C   0  0  0  0  0  3  0  0  0  0  0  0
  -21.2810   -4.5590   24.9120 C   0  0  0  0  0  0  0  0  0  0  0  0
  -21.7520   -4.0000   23.7100 C   0  0  0  0  0  3  0  0  0  0  0  0
  -21.9160   -4.8120   22.5740 C   0  0  0  0  0  0  0  0  0  0  0  0
  -22.3500   -4.2640   21.4150 F   0  0  0  0  0  0  0  0  0  0  0  0
  -21.1190   -3.7740   26.0020 F   0  0  0  0  0  0  0  0  0  0  0  0
  -22.7660  -13.5680   21.0890 C   0  0  0  0  0  0  0  0  0  0  0  0
  -21.9690  -12.8930   21.9100 N   0  0  0  0  0  0  0  0  0  0  0  0
  -22.3650  -14.5650   20.4910 O   0  0  0  0  0  0  0  0  0  0  0  0
  -22.3030  -12.0840   22.4150 H   0  0  0  0  0  0  0  0  0  0  0  0
  -21.0090  -13.1810   22.0300 H   0  0  0  0  0  0  0  0  0  0  0  0
  -25.4400  -15.2530   20.4850 N   0  0  0  0  0  0  0  0  0  0  0  0
  -24.6540  -15.8940   20.5010 H   0  0  0  0  0  0  0  0  0  0  0  0
  -26.3100  -15.6970   20.2260 H   0  0  0  0  0  0  0  0  0  0  0  0
  -29.3900  -20.6290   18.3350 C   0  0  0  0  0  2  0  0  0  0  0  0
  -28.6700  -19.9420   17.2500 N   0  0  0  0  0  4  0  0  0  0  0  0
  -28.4140  -19.0090   17.5270 H   0  0  0  0  0  0  0  0  0  0  0  0
  -27.8180  -20.4390   17.0420 H   0  0  0  0  0  0  0  0  0  0  0  0
  -28.8280  -18.8160   15.0740 C   0  0  0  0  0  0  0  0  0  0  0  0
  -30.2060  -18.1680   14.8310 C   0  0  0  0  0  2  0  0  0  0  0  0
  -30.7080  -18.9520   16.0640 C   0  0  0  0  0  2  0  0  0  0  0  0
  -29.4600  -19.8630   16.0060 C   0  0  0  0  0  3  0  0  0  0  0  0
  -27.6670  -18.5280   14.7730 O   0  0  0  0  0  0  0  0  0  0  0  0
  -28.8410  -22.3980   21.4410 C   0  0  0  0  0  2  0  0  0  0  0  0
  -28.9730  -23.8500   20.7410 C   0  0  0  0  0  3  0  0  0  0  0  0
  -28.3330  -25.1290   21.4730 C   0  0  0  0  0  3  0  0  0  0  0  0
  -28.5230  -26.5040   20.9340 O   0  0  0  0  0  0  0  0  0  0  0  0
  -24.6460  -32.0590   23.4620 C   0  0  0  0  0  0  0  0  0  0  0  0
  -27.4040  -27.3420   20.8210 C   0  0  0  0  0  0  0  0  0  0  0  0
  -23.5240  -30.5690   21.8390 C   0  0  0  0  0  3  0  0  0  0  0  0
  -25.0440  -28.9420   20.5770 C   0  0  0  0  0  0  0  0  0  0  0  0
  -26.0660  -30.8860   21.7630 C   0  0  0  0  0  2  0  0  0  0  0  0
  -26.1780  -29.4710   21.2080 C   0  0  0  0  0  0  0  0  0  0  0  0
  -27.3630  -28.6830   21.3150 C   0  0  0  0  0  3  0  0  0  0  0  0
  -26.2530  -26.8620   20.1620 C   0  0  0  0  0  3  0  0  0  0  0  0
  -25.0870  -27.6440   20.0340 C   0  0  0  0  0  3  0  0  0  0  0  0
  -23.8050  -29.8140   20.5120 C   0  0  0  0  0  2  0  0  0  0  0  0
  -24.7600  -31.1960   22.4100 N   0  0  0  0  0  0  0  0  0  0  0  0
  -23.5390  -32.3590   23.9310 O   0  0  0  0  0  0  0  0  0  0  0  0
  -22.8150  -29.6090   22.8240 C   0  0  0  0  0  0  0  0  0  0  0  0
  -21.5040  -29.3990   22.6270 N   0  0  0  0  0  0  0  0  0  0  0  0
  -23.4500  -29.0510   23.7240 O   0  0  0  0  0  0  0  0  0  0  0  0
  -21.0500  -29.9000   21.8740 H   0  0  0  0  0  0  0  0  0  0  0  0
  -18.1200  -28.1700   22.9890 C   0  0  0  0  0  0  0  0  0  0  0  0
  -20.6510  -28.4990   23.4060 C   0  0  0  0  0  3  0  0  0  0  0  0
  -20.8130  -27.0340   22.9380 C   0  0  0  0  0  2  0  0  0  0  0  0
  -19.7880  -26.6220   21.8780 C   0  0  0  0  0  2  0  0  0  0  0  0
  -18.3640  -26.7820   22.4180 C   0  0  0  0  0  2  0  0  0  0  0  0
  -19.1960  -28.9810   23.4390 C   0  0  0  0  0  0  0  0  0  0  0  0
  -18.9190  -30.2770   23.9280 C   0  0  0  0  0  3  0  0  0  0  0  0
  -17.5980  -30.7620   23.9750 C   0  0  0  0  0  3  0  0  0  0  0  0
  -16.5360  -29.9490   23.5430 C   0  0  0  0  0  3  0  0  0  0  0  0
  -16.7970  -28.6550   23.0580 C   0  0  0  0  0  3  0  0  0  0  0  0
  -25.8980  -32.7290   24.1100 C   0  0  0  0  0  3  0  0  0  0  0  0
  -25.5760  -34.1440   24.3490 N   0  0  0  0  0  0  0  0  0  0  0  0
  -25.9360  -35.1550   23.5470 C   0  0  0  0  0  0  0  0  0  0  0  0
  -26.6490  -34.9960   22.5520 O   0  0  0  0  0  0  0  0  0  0  0  0
  -24.9610  -34.3410   25.1240 H   0  0  0  0  0  0  0  0  0  0  0  0
  -24.2180  -36.9160   23.0270 C   0  0  0  0  0  1  0  0  0  0  0  0
  -25.4270  -36.5630   23.9070 C   0  0  0  0  0  3  0  0  0  0  0  0
  -27.5320  -37.5030   24.7570 C   0  0  0  0  0  1  0  0  0  0  0  0
  -26.4590  -37.6150   23.7720 N   0  0  0  0  0  0  0  0  0  0  0  0
  -26.0420  -38.5380   23.8590 H   0  0  0  0  0  0  0  0  0  0  0  0
  -26.3550  -32.0290   25.4500 C   0  0  1  0  0  0  0  0  0  0  0  0
  -25.2080  -31.8030   26.4610 C   0  0  0  0  0  1  0  0  0  0  0  0
  -26.9970  -30.6530   25.1580 C   0  0  0  0  0  1  0  0  0  0  0  0
  -27.4420  -32.8840   26.1450 C   0  0  0  0  0  1  0  0  0  0  0  0
  1  2  1  0
  2  5  1  0
  3 45  1  0
  3  1  1  0
  3  4  1  0
  4  2  1  0
  4 54  1  0
  5  6  1  0
  7 15  1  0
  8 13  1  0
  9 10  1  0
  9  8  1  0
 11 10  1  0
 11 20  1  0
 11 12  1  0
 13  7  1  0
 13 12  1  0
 14  7  2  0
 15 16  1  0
 15  6  1  0
 17 18  2  0
 18 19  1  0
 18 37  1  0
 19 22  1  0
 20 17  1  0
 20 21  1  0
 21 19  2  0
 22 23  1  0
 23 24  2  0
 25 28  1  0
 25 24  1  0
 26 25  2  0
 27 26  1  0
 27 22  2  0
 28 29  1  0
 29 30  1  0
 30 31  2  0
 32 31  1  0
 32 36  1  0
 33 32  2  0
 34 29  2  0
 34 33  1  0
 35 34  1  0
 37 38  1  0
 38 41  1  0
 38 40  1  0
 39 37  2  0
 42 43  1  0
 42 17  1  0
 44 42  1  0
 46 47  1  0
 46 45  1  0
 48 46  1  0
 49 52  1  0
 50 49  1  0
 50 51  1  0
 52 51  1  0
 52 46  1  0
 53 49  2  0
 55 54  1  0
 55 56  2  0
 57 56  1  0
 58 69  2  0
 59 57  1  0
 59 64  1  0
 60 68  1  0
 60 70  1  0
 61 63  1  0
 62 68  1  0
 63 64  2  0
 63 62  1  0
 65 59  2  0
 66 65  1  0
 66 61  2  0
 67 61  1  0
 67 60  1  0
 68 58  1  0
 70 72  2  0
 71 70  1  0
 73 71  1  0
 74 83  2  0
 74 79  1  0
 75 71  1  0
 75 79  1  0
 76 75  1  0
 77 78  1  0
 77 76  1  0
 78 74  1  0
 79 80  2  0
 80 81  1  0
 82 81  2  0
 83 82  1  0
 84 58  1  0
 84 85  1  0
 84 94  1  0
 85 88  1  0
 86 90  1  0
 86 85  1  0
 87 86  2  0
 90 89  1  0
 92 93  1  0
 92 90  1  0
 92 91  1  0
 94 97  1  1
 94 95  1  0
 96 94  1  0
M  ISO  4   7 100  15 100  56 101  57 101
M  END
>  <TORSDO>  (91) 
F 24

>  <SCORE>  (91) 
-11.539

>  <name>  (91) 
90

>  <ligand_id>  (91) 
90

>  <original_smiles>  (91) 
[H]c1c([H])c([H])c2c(c1[H])C([H])([H])C([H])([H])C([H])([H])C2([H])N([H])C(=O)C1([H])N(C(=O)C([H])(N([H])C(=O)C([H])(N([H])C([H])([H])[H])C([H])([H])[H])C(C([H])([H])[H])(C([H])([H])[H])C([H])([H])[H])C([H])([H])c2c([H])c(OC([H])([H])C([H])([H])C([H])([H])N3C([H])(C([H])([H])C([H])([H])N([H])C(=O)N4C([H])([H])C([H])([H])C([H])([H])C([H])(n5nc(-c6c([H])c([H])c(Oc7c([H])c([H])c(F)c([H])c7F)c([H])c6[H])c(C(=O)N([H])[H])c5N([H])[H])C4([H])[H])C([H])([H])C3([H])C([H])([H])[N+]([H])([H])C3([H])C(=O)C([H])([H])C3([H])[H])c([H])c([H])c2C1([H])[H]

>  <smiles>  (91) 
[H]c1c([H])c([H])c2c(c1[H])C([H])([H])C([H])([H])C([H])([H])C2([H])N([H])C(=O)C1([H])N(C(=O)C([H])(N([H])C(=O)C([H])(N([H])C([H])([H])[H])C([H])([H])[H])C(C([H])([H])[H])(C([H])([H])[H])C([H])([H])[H])C([H])([H])c2c([H])c(OC([H])([H])C([H])([H])C([H])([H])N3C([H])(C([H])([H])C([H])([H])N([H])C(=O)N4C([H])([H])C([H])([H])C([H])([H])C([H])(n5nc(-c6c([H])c([H])c(Oc7c([H])c([H])c(F)c([H])c7F)c([H])c6[H])c(C(=O)N([H])[H])c5N([H])[H])C4([H])[H])C([H])([H])C3([H])C([H])([H])[N+]([H])([H])C3([H])C(=O)C([H])([H])C3([H])[H])c([H])c([H])c2C1([H])[H]

$$$$
91:0:0
     RDKit          3D

 87 95  0  0  1  0  0  0  0  0999 V2000
  -28.1700  -24.2210   19.2030 C   0  0  0  0  0  2  0  0  0  0  0  0
  -28.1880  -23.1370   20.1990 C   0  0  0  0  0  3  0  0  0  0  0  0
  -28.0920  -24.7730   20.6250 C   0  0  0  0  0  3  0  0  0  0  0  0
  -30.7110  -22.4590   20.3310 C   0  0  0  0  0  1  0  0  0  0  0  0
  -29.3000  -21.9230   20.0490 C   0  0  0  0  0  3  0  0  0  0  0  0
  -29.1280  -20.4100   20.7500 C   0  0  0  0  0  2  0  0  0  0  0  0
  -29.5080  -18.9310   20.0540 C   0  0  0  0  0  2  0  0  0  0  0  0
  -30.0590  -17.5810   20.8730 C   0  0  0  0  0  2  0  0  0  0  0  0
  -30.5370  -14.9140   20.3790 C   0  0  0  0  0  0  0  0  0  0  0  0
  -30.3870  -12.5860   19.4030 C   0  0  0  0  0  2  0  0  0  0  0  0
  -29.4460  -12.5670   18.1770 C   0  0  0  0  0  2  0  0  0  0  0  0
  -27.9800  -12.3760   18.6150 C   0  0  0  0  0  2  0  0  0  0  0  0
  -27.5870  -13.2980   19.7980 C   0  0  0  0  0  3  0  0  0  0  0  0
  -28.6480  -13.2820   20.9180 C   0  0  0  0  0  2  0  0  0  0  0  0
  -29.9220  -13.6720   20.3050 N   0  0  0  0  0  0  0  0  0  0  0  0
  -31.7480  -14.9820   20.1420 O   0  0  0  0  0  0  0  0  0  0  0  0
  -29.7530  -16.0820   20.5210 N   0  0  0  0  0  0  0  0  0  0  0  0
  -28.7680  -15.8640   20.5630 H   0  0  0  0  0  0  0  0  0  0  0  0
  -25.2090  -13.8950   20.5360 C   0  0  0  0  0  0  0  0  0  0  0  0
  -24.1400  -13.1260   20.9070 C   0  0  0  0  0  0  0  0  0  0  0  0
  -24.5990  -11.7720   20.8800 C   0  0  0  0  0  0  0  0  0  0  0  0
  -26.2480  -13.0100   20.2980 N   0  0  0  0  0  0  0  0  0  0  0  0
  -25.8900  -11.7290   20.5720 N   0  0  0  0  0  0  0  0  0  0  0  0
  -23.8660  -10.5150   21.0710 C   0  0  0  0  0  0  0  0  0  0  0  0
  -24.3020   -9.5370   21.9930 C   0  0  0  0  0  3  0  0  0  0  0  0
  -23.5680   -8.3440   22.1740 C   0  0  0  0  0  3  0  0  0  0  0  0
  -22.3840   -8.1210   21.4320 C   0  0  0  0  0  0  0  0  0  0  0  0
  -21.9670   -9.0860   20.4980 C   0  0  0  0  0  3  0  0  0  0  0  0
  -22.7010  -10.2700   20.3160 C   0  0  0  0  0  3  0  0  0  0  0  0
  -21.6210   -6.9810   21.5220 O   0  0  0  0  0  0  0  0  0  0  0  0
  -21.5930   -6.2220   22.6640 C   0  0  0  0  0  0  0  0  0  0  0  0
  -21.2180   -6.7660   23.9120 C   0  0  0  0  0  3  0  0  0  0  0  0
  -21.1370   -5.9340   25.0470 C   0  0  0  0  0  3  0  0  0  0  0  0
  -21.4200   -4.5610   24.9350 C   0  0  0  0  0  0  0  0  0  0  0  0
  -21.7890   -4.0160   23.6920 C   0  0  0  0  0  3  0  0  0  0  0  0
  -21.8720   -4.8450   22.5590 C   0  0  0  0  0  0  0  0  0  0  0  0
  -22.2070   -4.3100   21.3600 F   0  0  0  0  0  0  0  0  0  0  0  0
  -21.3350   -3.7590   26.0230 F   0  0  0  0  0  0  0  0  0  0  0  0
  -22.7450  -13.6100   21.1730 C   0  0  0  0  0  0  0  0  0  0  0  0
  -22.0110  -12.9210   22.0390 N   0  0  0  0  0  0  0  0  0  0  0  0
  -22.3130  -14.6350   20.6460 O   0  0  0  0  0  0  0  0  0  0  0  0
  -22.3720  -12.0920   22.4860 H   0  0  0  0  0  0  0  0  0  0  0  0
  -21.0740  -13.2290   22.2600 H   0  0  0  0  0  0  0  0  0  0  0  0
  -25.3760  -15.2650   20.3530 N   0  0  0  0  0  0  0  0  0  0  0  0
  -24.6060  -15.9160   20.4590 H   0  0  0  0  0  0  0  0  0  0  0  0
  -26.2130  -15.7010   19.9890 H   0  0  0  0  0  0  0  0  0  0  0  0
  -28.2740  -26.2430   20.1680 O   0  0  0  0  0  0  0  0  0  0  0  0
  -24.5880  -31.8620   23.1820 C   0  0  0  0  0  0  0  0  0  0  0  0
  -27.1880  -27.1820   20.1590 C   0  0  0  0  0  0  0  0  0  0  0  0
  -23.3900  -30.4570   21.5470 C   0  0  0  0  0  3  0  0  0  0  0  0
  -24.8430  -28.8880   20.1290 C   0  0  0  0  0  0  0  0  0  0  0  0
  -25.9390  -30.7460   21.3700 C   0  0  0  0  0  2  0  0  0  0  0  0
  -26.0210  -29.3540   20.7260 C   0  0  0  0  0  0  0  0  0  0  0  0
  -27.1980  -28.5200   20.7180 C   0  0  0  0  0  3  0  0  0  0  0  0
  -25.9780  -26.8020   19.5430 C   0  0  0  0  0  3  0  0  0  0  0  0
  -24.8310  -27.6230   19.5230 C   0  0  0  0  0  3  0  0  0  0  0  0
  -23.6110  -29.7770   20.1710 C   0  0  0  0  0  2  0  0  0  0  0  0
  -24.6590  -31.0420   22.0890 N   0  0  0  0  0  0  0  0  0  0  0  0
  -23.5020  -32.1420   23.7110 O   0  0  0  0  0  0  0  0  0  0  0  0
  -22.7190  -29.4480   22.5130 C   0  0  0  0  0  0  0  0  0  0  0  0
  -21.3910  -29.2730   22.3890 N   0  0  0  0  0  0  0  0  0  0  0  0
  -23.3950  -28.8240   23.3350 O   0  0  0  0  0  0  0  0  0  0  0  0
  -20.9030  -29.8290   21.6990 H   0  0  0  0  0  0  0  0  0  0  0  0
  -18.0170  -28.0590   22.8930 C   0  0  0  0  0  0  0  0  0  0  0  0
  -20.5740  -28.3360   23.1630 C   0  0  0  0  0  3  0  0  0  0  0  0
  -20.6830  -26.9020   22.5970 C   0  0  0  0  0  2  0  0  0  0  0  0
  -19.5840  -26.5680   21.5820 C   0  0  0  0  0  2  0  0  0  0  0  0
  -18.2010  -26.7080   22.2230 C   0  0  0  0  0  2  0  0  0  0  0  0
  -19.1300  -28.8300   23.3190 C   0  0  0  0  0  0  0  0  0  0  0  0
  -18.9030  -30.0930   23.9070 C   0  0  0  0  0  3  0  0  0  0  0  0
  -17.5950  -30.5880   24.0720 C   0  0  0  0  0  3  0  0  0  0  0  0
  -16.4960  -29.8150   23.6600 C   0  0  0  0  0  3  0  0  0  0  0  0
  -16.7070  -28.5530   23.0760 C   0  0  0  0  0  3  0  0  0  0  0  0
  -25.8650  -32.5030   23.8040 C   0  0  0  0  0  3  0  0  0  0  0  0
  -26.3930  -31.7260   25.0730 C   0  0  1  0  0  0  0  0  0  0  0  0
  -25.3070  -31.4760   26.1460 C   0  0  0  0  0  1  0  0  0  0  0  0
  -26.9820  -30.3530   24.6720 C   0  0  0  0  0  1  0  0  0  0  0  0
  -27.5430  -32.5220   25.7340 C   0  0  0  0  0  1  0  0  0  0  0  0
  -25.5430  -33.8950   24.1510 N   0  0  0  0  0  0  0  0  0  0  0  0
  -25.8570  -34.9620   23.4050 C   0  0  0  0  0  0  0  0  0  0  0  0
  -26.5180  -34.8780   22.3660 O   0  0  0  0  0  0  0  0  0  0  0  0
  -24.9540  -34.0340   24.9600 H   0  0  0  0  0  0  0  0  0  0  0  0
  -24.1070  -36.7450   23.0980 C   0  0  0  0  0  1  0  0  0  0  0  0
  -25.3640  -36.3410   23.8850 C   0  0  0  0  0  3  0  0  0  0  0  0
  -27.5040  -37.2370   24.6910 C   0  0  0  0  0  1  0  0  0  0  0  0
  -26.3850  -37.4060   23.7690 N   0  0  0  0  0  0  0  0  0  0  0  0
  -25.9710  -38.3200   23.9350 H   0  0  0  0  0  0  0  0  0  0  0  0
  1  2  1  0
  1  3  1  0
  2  5  1  0
  2  3  1  0
  3 47  1  0
  5  4  1  0
  5  6  1  0
  7  6  1  0
  7  8  1  0
  9 17  1  0
 10 15  1  0
 11 12  1  0
 11 10  1  0
 13 12  1  0
 13 22  1  0
 13 14  1  0
 15  9  1  0
 15 14  1  0
 16  9  2  0
 17 18  1  0
 17  8  1  0
 19 20  2  0
 20 39  1  0
 21 20  1  0
 21 24  1  0
 22 19  1  0
 22 23  1  0
 23 21  2  0
 24 25  1  0
 25 26  2  0
 27 30  1  0
 27 26  1  0
 28 27  2  0
 29 28  1  0
 29 24  2  0
 30 31  1  0
 31 32  1  0
 32 33  2  0
 34 33  1  0
 34 38  1  0
 35 34  2  0
 36 31  2  0
 36 35  1  0
 37 36  1  0
 39 40  1  0
 40 43  1  0
 40 42  1  0
 41 39  2  0
 44 45  1  0
 44 19  1  0
 46 44  1  0
 48 59  2  0
 49 47  1  0
 49 54  1  0
 50 58  1  0
 50 60  1  0
 51 57  1  0
 51 53  1  0
 52 58  1  0
 53 52  1  0
 54 53  2  0
 55 49  2  0
 56 55  1  0
 56 51  2  0
 57 50  1  0
 58 48  1  0
 60 62  2  0
 61 60  1  0
 63 61  1  0
 64 73  2  0
 64 69  1  0
 65 61  1  0
 65 69  1  0
 66 65  1  0
 67 68  1  0
 67 66  1  0
 68 64  1  0
 69 70  2  0
 70 71  1  0
 72 71  2  0
 73 72  1  0
 74 48  1  0
 74 79  1  0
 74 75  1  0
 75 78  1  1
 75 76  1  0
 77 75  1  0
 79 82  1  0
 80 84  1  0
 80 79  1  0
 81 80  2  0
 84 83  1  0
 86 84  1  0
 86 87  1  0
 86 85  1  0
M  ISO  4   3 101   9 100  17 100  47 101
M  END
>  <TORSDO>  (92) 
F 20

>  <SCORE>  (92) 
-13.666

>  <name>  (92) 
91

>  <ligand_id>  (92) 
91

>  <original_smiles>  (92) 
[H]c1c([H])c([H])c2c(c1[H])C([H])([H])C([H])([H])C([H])([H])C2([H])N([H])C(=O)C1([H])N(C(=O)C([H])(N([H])C(=O)C([H])(N([H])C([H])([H])[H])C([H])([H])[H])C(C([H])([H])[H])(C([H])([H])[H])C([H])([H])[H])C([H])([H])c2c([H])c(OC3([H])C([H])([H])C3([H])C([H])(C([H])([H])[H])C([H])([H])C([H])([H])C([H])([H])N([H])C(=O)N3C([H])([H])C([H])([H])C([H])([H])C([H])(n4nc(-c5c([H])c([H])c(Oc6c([H])c([H])c(F)c([H])c6F)c([H])c5[H])c(C(=O)N([H])[H])c4N([H])[H])C3([H])[H])c([H])c([H])c2C1([H])[H]

>  <smiles>  (92) 
[H]c1c([H])c([H])c2c(c1[H])C([H])([H])C([H])([H])C([H])([H])C2([H])N([H])C(=O)C1([H])N(C(=O)C([H])(N([H])C(=O)C([H])(N([H])C([H])([H])[H])C([H])([H])[H])C(C([H])([H])[H])(C([H])([H])[H])C([H])([H])[H])C([H])([H])c2c([H])c(OC3([H])C([H])([H])C3([H])C([H])(C([H])([H])[H])C([H])([H])C([H])([H])C([H])([H])N([H])C(=O)N3C([H])([H])C([H])([H])C([H])([H])C([H])(n4nc(-c5c([H])c([H])c(Oc6c([H])c([H])c(F)c([H])c6F)c([H])c5[H])c(C(=O)N([H])[H])c4N([H])[H])C3([H])[H])c([H])c([H])c2C1([H])[H]

$$$$
92:0:0
     RDKit          3D

 95103  0  0  1  0  0  0  0  0999 V2000
  -26.3000  -24.3450   21.8390 C   0  0  0  0  0  2  0  0  0  0  0  0
  -26.1520  -25.3190   23.0070 C   0  0  0  0  0  2  0  0  0  0  0  0
  -27.7610  -24.4640   21.3410 C   0  0  0  0  0  3  0  0  0  0  0  0
  -28.2880  -25.7600   22.0510 C   0  0  0  0  0  3  0  0  0  0  0  0
  -27.1560  -26.3630   22.7900 N   0  0  0  0  0  4  0  0  0  0  0  0
  -27.4480  -26.7820   23.6630 H   0  0  0  0  0  0  0  0  0  0  0  0
  -26.7440  -27.0850   22.2160 H   0  0  0  0  0  0  0  0  0  0  0  0
  -28.5910  -23.1690   21.5820 C   0  0  0  0  0  0  0  0  0  0  0  0
  -29.3420  -23.0900   22.5600 O   0  0  0  0  0  0  0  0  0  0  0  0
  -27.3670  -22.0800   19.5400 C   0  0  0  0  0  1  0  0  0  0  0  0
  -28.5510  -22.0040   20.5390 C   0  0  0  0  0  3  0  0  0  0  0  0
  -28.6380  -20.5690   21.1680 C   0  0  0  0  0  2  0  0  0  0  0  0
  -29.5840  -19.5840   20.4260 C   0  0  0  0  0  2  0  0  0  0  0  0
  -29.4860  -18.1130   20.9090 C   0  0  0  0  0  2  0  0  0  0  0  0
  -30.4100  -17.1320   20.1440 C   0  0  0  0  0  2  0  0  0  0  0  0
  -30.8520  -14.6860   19.9800 C   0  0  0  0  0  0  0  0  0  0  0  0
  -30.5670  -12.4460   18.9950 C   0  0  0  0  0  2  0  0  0  0  0  0
  -29.5770  -12.5430   17.8150 C   0  0  0  0  0  2  0  0  0  0  0  0
  -28.1220  -12.4050   18.3050 C   0  0  0  0  0  2  0  0  0  0  0  0
  -27.8030  -13.3390   19.5040 C   0  0  0  0  0  3  0  0  0  0  0  0
  -28.8950  -13.2110   20.5930 C   0  0  0  0  0  2  0  0  0  0  0  0
  -30.2010  -13.4900   19.9680 N   0  0  0  0  0  0  0  0  0  0  0  0
  -31.9390  -14.8650   19.4220 O   0  0  0  0  0  0  0  0  0  0  0  0
  -30.1560  -15.7220   20.4810 N   0  0  0  0  0  0  0  0  0  0  0  0
  -29.2850  -15.5060   20.9340 H   0  0  0  0  0  0  0  0  0  0  0  0
  -25.4460  -13.9850   20.3180 C   0  0  0  0  0  0  0  0  0  0  0  0
  -24.3800  -13.2330   20.7290 C   0  0  0  0  0  0  0  0  0  0  0  0
  -24.8140  -11.8730   20.6670 C   0  0  0  0  0  0  0  0  0  0  0  0
  -26.4660  -13.0880   20.0390 N   0  0  0  0  0  0  0  0  0  0  0  0
  -26.0880  -11.8110   20.3010 N   0  0  0  0  0  0  0  0  0  0  0  0
  -24.0710  -10.6220   20.8760 C   0  0  0  0  0  0  0  0  0  0  0  0
  -24.4840   -9.6700   21.8330 C   0  0  0  0  0  3  0  0  0  0  0  0
  -23.7410   -8.4850   22.0300 C   0  0  0  0  0  3  0  0  0  0  0  0
  -22.5740   -8.2420   21.2680 C   0  0  0  0  0  0  0  0  0  0  0  0
  -22.1820   -9.1840   20.2990 C   0  0  0  0  0  3  0  0  0  0  0  0
  -22.9260  -10.3600   20.0990 C   0  0  0  0  0  3  0  0  0  0  0  0
  -21.8060   -7.1080   21.3740 O   0  0  0  0  0  0  0  0  0  0  0  0
  -21.6830   -6.4300   22.5600 C   0  0  0  0  0  0  0  0  0  0  0  0
  -21.1930   -7.0560   23.7280 C   0  0  0  0  0  3  0  0  0  0  0  0
  -21.0130   -6.3040   24.9070 C   0  0  0  0  0  3  0  0  0  0  0  0
  -21.3160   -4.9300   24.9200 C   0  0  0  0  0  0  0  0  0  0  0  0
  -21.8000   -4.3040   23.7580 C   0  0  0  0  0  3  0  0  0  0  0  0
  -21.9790   -5.0510   22.5800 C   0  0  0  0  0  0  0  0  0  0  0  0
  -22.4240   -4.4390   21.4570 F   0  0  0  0  0  0  0  0  0  0  0  0
  -21.1360   -4.2070   26.0510 F   0  0  0  0  0  0  0  0  0  0  0  0
  -23.0060  -13.7330   21.0740 C   0  0  0  0  0  0  0  0  0  0  0  0
  -22.3150  -13.0490   21.9800 N   0  0  0  0  0  0  0  0  0  0  0  0
  -22.5550  -14.7650   20.5770 O   0  0  0  0  0  0  0  0  0  0  0  0
  -22.6930  -12.2180   22.4090 H   0  0  0  0  0  0  0  0  0  0  0  0
  -21.3920  -13.3590   22.2530 H   0  0  0  0  0  0  0  0  0  0  0  0
  -25.6290  -15.3530   20.1410 N   0  0  0  0  0  0  0  0  0  0  0  0
  -24.8820  -16.0260   20.2770 H   0  0  0  0  0  0  0  0  0  0  0  0
  -26.4750  -15.7750   19.7830 H   0  0  0  0  0  0  0  0  0  0  0  0
  -29.0020  -26.7990   21.1420 C   0  0  0  0  0  2  0  0  0  0  0  0
  -28.2760  -27.0700   19.9370 O   0  0  0  0  0  0  0  0  0  0  0  0
  -24.5780  -32.0810   23.4400 C   0  0  0  0  0  0  0  0  0  0  0  0
  -27.1440  -27.8450   20.0400 C   0  0  0  0  0  0  0  0  0  0  0  0
  -23.3200  -30.7660   21.7560 C   0  0  0  0  0  3  0  0  0  0  0  0
  -24.7400  -29.3090   20.2110 C   0  0  0  0  0  0  0  0  0  0  0  0
  -25.8350  -31.1490   21.5090 C   0  0  0  0  0  2  0  0  0  0  0  0
  -25.9080  -29.8170   20.7960 C   0  0  0  0  0  0  0  0  0  0  0  0
  -27.1150  -29.0900   20.7190 C   0  0  0  0  0  3  0  0  0  0  0  0
  -25.9700  -27.3590   19.4380 C   0  0  0  0  0  3  0  0  0  0  0  0
  -24.7610  -28.0760   19.5360 C   0  0  0  0  0  3  0  0  0  0  0  0
  -23.4890  -30.1510   20.3380 C   0  0  0  0  0  2  0  0  0  0  0  0
  -24.5960  -31.3400   22.2970 N   0  0  0  0  0  0  0  0  0  0  0  0
  -23.5150  -32.3240   24.0300 O   0  0  0  0  0  0  0  0  0  0  0  0
  -22.7060  -29.6900   22.6730 C   0  0  0  0  0  0  0  0  0  0  0  0
  -21.3890  -29.4760   22.5400 N   0  0  0  0  0  0  0  0  0  0  0  0
  -23.4060  -29.0510   23.4630 O   0  0  0  0  0  0  0  0  0  0  0  0
  -20.8870  -30.0520   21.8760 H   0  0  0  0  0  0  0  0  0  0  0  0
  -18.0660  -28.1010   22.9200 C   0  0  0  0  0  0  0  0  0  0  0  0
  -20.5990  -28.4880   23.2760 C   0  0  0  0  0  3  0  0  0  0  0  0
  -20.7890  -27.0780   22.6730 C   0  0  0  0  0  2  0  0  0  0  0  0
  -19.7460  -26.7380   21.6040 C   0  0  0  0  0  2  0  0  0  0  0  0
  -18.3360  -26.7840   22.2140 C   0  0  0  0  0  2  0  0  0  0  0  0
  -19.1320  -28.9160   23.3950 C   0  0  0  0  0  0  0  0  0  0  0  0
  -18.8280  -30.1550   23.9950 C   0  0  0  0  0  3  0  0  0  0  0  0
  -17.4880  -30.5880   24.1130 C   0  0  0  0  0  3  0  0  0  0  0  0
  -16.4410  -29.7740   23.6540 C   0  0  0  0  0  3  0  0  0  0  0  0
  -16.7290  -28.5310   23.0640 C   0  0  0  0  0  3  0  0  0  0  0  0
  -25.8860  -32.6800   24.0530 C   0  0  0  0  0  3  0  0  0  0  0  0
  -25.6030  -34.0650   24.4430 N   0  0  0  0  0  0  0  0  0  0  0  0
  -25.9550  -35.1420   23.7250 C   0  0  0  0  0  0  0  0  0  0  0  0
  -26.6250  -35.0700   22.6910 O   0  0  0  0  0  0  0  0  0  0  0  0
  -25.0120  -34.1940   25.2500 H   0  0  0  0  0  0  0  0  0  0  0  0
  -24.2700  -36.9780   23.4170 C   0  0  0  0  0  1  0  0  0  0  0  0
  -25.4870  -36.5160   24.2360 C   0  0  0  0  0  3  0  0  0  0  0  0
  -27.6200  -37.3110   25.1510 C   0  0  0  0  0  1  0  0  0  0  0  0
  -26.5420  -37.5490   24.1920 N   0  0  0  0  0  0  0  0  0  0  0  0
  -26.1560  -38.4710   24.3770 H   0  0  0  0  0  0  0  0  0  0  0  0
  -26.4310  -31.8560   25.2840 C   0  0  1  0  0  0  0  0  0  0  0  0
  -25.3650  -31.5790   26.3670 C   0  0  0  0  0  1  0  0  0  0  0  0
  -27.0030  -30.4950   24.8270 C   0  0  0  0  0  1  0  0  0  0  0  0
  -27.6040  -32.6220   25.9410 C   0  0  0  0  0  1  0  0  0  0  0  0
  1  2  1  0
  3  8  1  0
  3  1  1  0
  3  4  1  0
  4 54  1  0
  4  5  1  0
  5  2  1  0
  5  6  1  0
  7  5  1  0
  8  9  2  0
 11 10  1  0
 11 12  1  0
 11  8  1  0
 13 14  1  0
 13 12  1  0
 15 24  1  0
 15 14  1  0
 16 24  1  0
 17 22  1  0
 18 19  1  0
 18 17  1  0
 20 19  1  0
 20 29  1  0
 20 21  1  0
 22 16  1  0
 22 21  1  0
 23 16  2  0
 24 25  1  0
 26 27  2  0
 27 46  1  0
 28 27  1  0
 28 31  1  0
 29 30  1  0
 29 26  1  0
 30 28  2  0
 31 32  1  0
 32 33  2  0
 34 37  1  0
 34 33  1  0
 35 34  2  0
 36 35  1  0
 36 31  2  0
 37 38  1  0
 38 43  2  0
 38 39  1  0
 39 40  2  0
 40 41  1  0
 41 45  1  0
 42 41  2  0
 43 42  1  0
 44 43  1  0
 46 47  1  0
 47 50  1  0
 47 49  1  0
 48 46  2  0
 51 52  1  0
 51 26  1  0
 53 51  1  0
 55 57  1  0
 55 54  1  0
 56 67  2  0
 57 62  1  0
 58 66  1  0
 58 68  1  0
 59 65  1  0
 59 61  1  0
 60 66  1  0
 61 60  1  0
 62 61  2  0
 63 64  1  0
 63 57  2  0
 64 59  2  0
 65 58  1  0
 66 56  1  0
 68 70  2  0
 69 68  1  0
 71 69  1  0
 72 81  2  0
 72 77  1  0
 73 69  1  0
 73 77  1  0
 74 73  1  0
 75 76  1  0
 75 74  1  0
 76 72  1  0
 77 78  2  0
 78 79  1  0
 80 79  2  0
 81 80  1  0
 82 56  1  0
 82 83  1  0
 82 92  1  0
 83 86  1  0
 84 88  1  0
 84 83  1  0
 85 84  2  0
 88 87  1  0
 90 88  1  0
 90 91  1  0
 90 89  1  0
 92 95  1  1
 92 93  1  0
 94 92  1  0
M  ISO  4  16 100  24 100  54 101  55 101
M  END
>  <TORSDO>  (93) 
F 23

>  <SCORE>  (93) 
-12.299

>  <name>  (93) 
92

>  <ligand_id>  (93) 
92

>  <original_smiles>  (93) 
[H]c1c([H])c([H])c2c(c1[H])C([H])([H])C([H])([H])C([H])([H])C2([H])N([H])C(=O)C1([H])N(C(=O)C([H])(N([H])C(=O)C([H])(N([H])C([H])([H])[H])C([H])([H])[H])C(C([H])([H])[H])(C([H])([H])[H])C([H])([H])[H])C([H])([H])c2c([H])c(OC([H])([H])C3([H])C([H])(C(=O)C([H])(C([H])([H])[H])C([H])([H])C([H])([H])C([H])([H])C([H])([H])N([H])C(=O)N4C([H])([H])C([H])([H])C([H])([H])C([H])(n5nc(-c6c([H])c([H])c(Oc7c([H])c([H])c(F)c([H])c7F)c([H])c6[H])c(C(=O)N([H])[H])c5N([H])[H])C4([H])[H])C([H])([H])C([H])([H])[N+]3([H])[H])c([H])c([H])c2C1([H])[H]

>  <smiles>  (93) 
[H]c1c([H])c([H])c2c(c1[H])C([H])([H])C([H])([H])C([H])([H])C2([H])N([H])C(=O)C1([H])N(C(=O)C([H])(N([H])C(=O)C([H])(N([H])C([H])([H])[H])C([H])([H])[H])C(C([H])([H])[H])(C([H])([H])[H])C([H])([H])[H])C([H])([H])c2c([H])c(OC([H])([H])C3([H])C([H])(C(=O)C([H])(C([H])([H])[H])C([H])([H])C([H])([H])C([H])([H])C([H])([H])N([H])C(=O)N4C([H])([H])C([H])([H])C([H])([H])C([H])(n5nc(-c6c([H])c([H])c(Oc7c([H])c([H])c(F)c([H])c7F)c([H])c6[H])c(C(=O)N([H])[H])c5N([H])[H])C4([H])[H])C([H])([H])C([H])([H])[N+]3([H])[H])c([H])c([H])c2C1([H])[H]

$$$$
93:0:0
     RDKit          3D

 94102  0  0  1  0  0  0  0  0999 V2000
  -30.4390  -18.9900   20.1010 C   0  0  0  0  0  3  0  0  0  0  0  0
  -28.0730  -18.6720   19.6460 C   0  0  0  0  0  3  0  0  0  0  0  0
  -30.2600  -20.3850   20.1250 C   0  0  0  0  0  3  0  0  0  0  0  0
  -27.8860  -20.0720   19.6920 C   0  0  0  0  0  3  0  0  0  0  0  0
  -29.3560  -18.1240   19.8440 C   0  0  0  0  0  0  0  0  0  0  0  0
  -28.9810  -20.9400   19.9100 C   0  0  0  0  0  0  0  0  0  0  0  0
  -29.6570  -16.7030   19.6130 C   0  0  0  0  0  0  0  0  0  0  0  0
  -30.0910  -15.8230   20.5560 C   0  0  0  0  0  0  0  0  0  0  0  0
  -30.7380  -14.5920   20.0940 C   0  0  0  0  0  0  0  0  0  0  0  0
  -30.3450  -12.4310   19.0030 C   0  0  0  0  0  2  0  0  0  0  0  0
  -29.3750  -12.6220   17.8210 C   0  0  0  0  0  2  0  0  0  0  0  0
  -27.9190  -12.4710   18.2980 C   0  0  0  0  0  2  0  0  0  0  0  0
  -27.6070  -13.3190   19.5610 C   0  0  0  0  0  3  0  0  0  0  0  0
  -28.7050  -13.1710   20.6360 C   0  0  0  0  0  2  0  0  0  0  0  0
  -30.0060  -13.4460   20.0130 N   0  0  0  0  0  0  0  0  0  0  0  0
  -31.8710  -14.6700   19.6170 O   0  0  0  0  0  0  0  0  0  0  0  0
  -25.2350  -13.8750   20.3830 C   0  0  0  0  0  0  0  0  0  0  0  0
  -24.1960  -13.0830   20.7890 C   0  0  0  0  0  0  0  0  0  0  0  0
  -24.6750  -11.7390   20.7280 C   0  0  0  0  0  0  0  0  0  0  0  0
  -26.2830  -13.0130   20.0990 N   0  0  0  0  0  0  0  0  0  0  0  0
  -25.9530  -11.7220   20.3670 N   0  0  0  0  0  0  0  0  0  0  0  0
  -23.9770  -10.4640   20.9380 C   0  0  0  0  0  0  0  0  0  0  0  0
  -24.4280   -9.5260   21.8920 C   0  0  0  0  0  3  0  0  0  0  0  0
  -23.7310   -8.3150   22.0910 C   0  0  0  0  0  3  0  0  0  0  0  0
  -22.5680   -8.0320   21.3350 C   0  0  0  0  0  0  0  0  0  0  0  0
  -22.1370   -8.9580   20.3700 C   0  0  0  0  0  3  0  0  0  0  0  0
  -22.8350  -10.1610   20.1690 C   0  0  0  0  0  3  0  0  0  0  0  0
  -21.8420   -6.8710   21.4410 O   0  0  0  0  0  0  0  0  0  0  0  0
  -21.7720   -6.1680   22.6160 C   0  0  0  0  0  0  0  0  0  0  0  0
  -21.2530   -6.7410   23.7990 C   0  0  0  0  0  3  0  0  0  0  0  0
  -21.1350   -5.9620   24.9660 C   0  0  0  0  0  3  0  0  0  0  0  0
  -21.5270   -4.6100   24.9530 C   0  0  0  0  0  0  0  0  0  0  0  0
  -22.0400   -4.0350   23.7760 C   0  0  0  0  0  3  0  0  0  0  0  0
  -22.1580   -4.8130   22.6110 C   0  0  0  0  0  0  0  0  0  0  0  0
  -22.6330   -4.2480   21.4740 F   0  0  0  0  0  0  0  0  0  0  0  0
  -21.4070   -3.8590   26.0720 F   0  0  0  0  0  0  0  0  0  0  0  0
  -22.8040  -13.5350   21.1240 C   0  0  0  0  0  0  0  0  0  0  0  0
  -22.1180  -12.8150   22.0040 N   0  0  0  0  0  0  0  0  0  0  0  0
  -22.3350  -14.5640   20.6370 O   0  0  0  0  0  0  0  0  0  0  0  0
  -22.5150  -11.9870   22.4230 H   0  0  0  0  0  0  0  0  0  0  0  0
  -21.1820  -13.0950   22.2610 H   0  0  0  0  0  0  0  0  0  0  0  0
  -25.3730  -15.2480   20.2100 N   0  0  0  0  0  0  0  0  0  0  0  0
  -24.6070  -15.8940   20.3540 H   0  0  0  0  0  0  0  0  0  0  0  0
  -26.2130  -15.6930   19.8630 H   0  0  0  0  0  0  0  0  0  0  0  0
  -31.4190  -16.7640   22.5310 C   0  0  0  0  0  1  0  0  0  0  0  0
  -30.1000  -16.1410   22.0500 C   0  0  0  0  0  2  0  0  0  0  0  0
  -29.5770  -16.4010   18.3060 O   0  0  0  0  0  0  0  0  0  0  0  0
  -29.3600  -17.2040   17.8470 H   0  0  0  0  0  0  0  0  0  0  0  0
  -28.7990  -22.4510   19.7980 C   0  0  0  0  0  2  0  0  0  0  0  0
  -29.4910  -23.2930   20.8940 C   0  0  0  0  0  2  0  0  0  0  0  0
  -30.5110  -25.5210   21.5510 C   0  0  0  0  0  1  0  0  0  0  0  0
  -29.6070  -24.7970   20.5400 C   0  0  0  0  0  3  0  0  0  0  0  0
  -28.2300  -25.4780   20.4350 C   0  0  0  0  0  2  0  0  0  0  0  0
  -28.3600  -26.8630   20.1040 O   0  0  0  0  0  0  0  0  0  0  0  0
  -24.5070  -31.9600   23.2220 C   0  0  0  0  0  0  0  0  0  0  0  0
  -27.1810  -27.5720   20.1090 C   0  0  0  0  0  0  0  0  0  0  0  0
  -23.3080  -30.5540   21.5780 C   0  0  0  0  0  3  0  0  0  0  0  0
  -24.7710  -29.0420   20.1410 C   0  0  0  0  0  0  0  0  0  0  0  0
  -25.8290  -30.9450   21.3690 C   0  0  0  0  0  2  0  0  0  0  0  0
  -25.9270  -29.5800   20.7220 C   0  0  0  0  0  0  0  0  0  0  0  0
  -27.1380  -28.8560   20.6950 C   0  0  0  0  0  3  0  0  0  0  0  0
  -26.0070  -27.0470   19.5230 C   0  0  0  0  0  3  0  0  0  0  0  0
  -24.8050  -27.7740   19.5410 C   0  0  0  0  0  3  0  0  0  0  0  0
  -23.5180  -29.8850   20.1940 C   0  0  0  0  0  2  0  0  0  0  0  0
  -24.5670  -31.1690   22.1140 N   0  0  0  0  0  0  0  0  0  0  0  0
  -23.4260  -32.2160   23.7690 O   0  0  0  0  0  0  0  0  0  0  0  0
  -22.6740  -29.5190   22.5350 C   0  0  0  0  0  0  0  0  0  0  0  0
  -21.3510  -29.3220   22.4110 N   0  0  0  0  0  0  0  0  0  0  0  0
  -23.3670  -28.8970   23.3440 O   0  0  0  0  0  0  0  0  0  0  0  0
  -20.8530  -29.8840   21.7350 H   0  0  0  0  0  0  0  0  0  0  0  0
  -17.9860  -28.1090   22.9260 C   0  0  0  0  0  0  0  0  0  0  0  0
  -20.5450  -28.3710   23.1770 C   0  0  0  0  0  3  0  0  0  0  0  0
  -20.6440  -26.9460   22.5830 C   0  0  0  0  0  2  0  0  0  0  0  0
  -19.5330  -26.6320   21.5750 C   0  0  0  0  0  2  0  0  0  0  0  0
  -18.1580  -26.7680   22.2350 C   0  0  0  0  0  2  0  0  0  0  0  0
  -19.1070  -28.8680   23.3540 C   0  0  0  0  0  0  0  0  0  0  0  0
  -18.8910  -30.1250   23.9600 C   0  0  0  0  0  3  0  0  0  0  0  0
  -17.5870  -30.6230   24.1430 C   0  0  0  0  0  3  0  0  0  0  0  0
  -16.4810  -29.8600   23.7310 C   0  0  0  0  0  3  0  0  0  0  0  0
  -16.6810  -28.6050   23.1290 C   0  0  0  0  0  3  0  0  0  0  0  0
  -25.7900  -32.6010   23.8400 C   0  0  0  0  0  3  0  0  0  0  0  0
  -25.4700  -33.9960   24.1680 N   0  0  0  0  0  0  0  0  0  0  0  0
  -25.7990  -35.0510   23.4120 C   0  0  0  0  0  0  0  0  0  0  0  0
  -26.4770  -34.9540   22.3850 O   0  0  0  0  0  0  0  0  0  0  0  0
  -24.8690  -34.1450   24.9650 H   0  0  0  0  0  0  0  0  0  0  0  0
  -24.0690  -36.8390   23.0380 C   0  0  0  0  0  1  0  0  0  0  0  0
  -25.2980  -36.4340   23.8690 C   0  0  0  0  0  3  0  0  0  0  0  0
  -27.4110  -37.3250   24.7430 C   0  0  0  0  0  1  0  0  0  0  0  0
  -26.3250  -37.4940   23.7820 N   0  0  0  0  0  0  0  0  0  0  0  0
  -25.9100  -38.4100   23.9330 H   0  0  0  0  0  0  0  0  0  0  0  0
  -26.3170  -31.8330   25.1140 C   0  0  1  0  0  0  0  0  0  0  0  0
  -25.2280  -31.5700   26.1800 C   0  0  0  0  0  1  0  0  0  0  0  0
  -26.9240  -30.4670   24.7120 C   0  0  0  0  0  1  0  0  0  0  0  0
  -27.4450  -32.6490   25.7860 C   0  0  0  0  0  1  0  0  0  0  0  0
  1  3  1  0
  2  4  2  0
  2  5  1  0
  4  6  1  0
  5  1  2  0
  6  3  2  0
  7  5  1  0
  7  8  2  0
  8 46  1  0
  9  8  1  0
 10 15  1  0
 11 12  1  0
 11 10  1  0
 13 12  1  0
 13 20  1  0
 13 14  1  0
 15  9  1  0
 15 14  1  0
 16  9  2  0
 17 18  2  0
 18 37  1  0
 19 18  1  0
 19 22  1  0
 20 21  1  0
 20 17  1  0
 21 19  2  0
 22 23  1  0
 23 24  2  0
 25 28  1  0
 25 24  1  0
 26 25  2  0
 27 26  1  0
 27 22  2  0
 28 29  1  0
 29 30  1  0
 30 31  2  0
 32 31  1  0
 32 36  1  0
 33 32  2  0
 34 29  2  0
 34 33  1  0
 35 34  1  0
 37 38  1  0
 38 41  1  0
 38 40  1  0
 39 37  2  0
 42 43  1  0
 42 17  1  0
 44 42  1  0
 46 45  1  0
 47  7  1  0
 48 47  1  0
 49  6  1  0
 49 50  1  0
 52 50  1  0
 52 51  1  0
 53 52  1  0
 54 56  1  0
 54 53  1  0
 55 66  2  0
 56 61  1  0
 57 65  1  0
 57 67  1  0
 58 64  1  0
 58 60  1  0
 59 65  1  0
 60 59  1  0
 61 60  2  0
 62 63  1  0
 62 56  2  0
 63 58  2  0
 64 57  1  0
 65 55  1  0
 67 69  2  0
 68 67  1  0
 70 68  1  0
 71 80  2  0
 71 76  1  0
 72 68  1  0
 72 76  1  0
 73 72  1  0
 74 75  1  0
 74 73  1  0
 75 71  1  0
 76 77  2  0
 77 78  1  0
 79 78  2  0
 80 79  1  0
 81 55  1  0
 81 82  1  0
 81 91  1  0
 82 85  1  0
 83 87  1  0
 83 82  1  0
 84 83  2  0
 87 86  1  0
 89 87  1  0
 89 90  1  0
 89 88  1  0
 91 94  1  1
 91 92  1  0
 93 91  1  0
M  ISO  4   8 100   9 100  53 101  54 101
M  END
>  <TORSDO>  (94) 
F 23

>  <SCORE>  (94) 
-12.342

>  <name>  (94) 
93

>  <ligand_id>  (94) 
93

>  <original_smiles>  (94) 
[H]OC(=C(C(=O)N1C([H])([H])C([H])([H])C([H])([H])C([H])(n2nc(-c3c([H])c([H])c(Oc4c([H])c([H])c(F)c([H])c4F)c([H])c3[H])c(C(=O)N([H])[H])c2N([H])[H])C1([H])[H])C([H])([H])C([H])([H])[H])c1c([H])c([H])c(C([H])([H])C([H])([H])C([H])(C([H])([H])[H])C([H])([H])Oc2c([H])c([H])c3c(c2[H])C([H])([H])N(C(=O)C([H])(N([H])C(=O)C([H])(N([H])C([H])([H])[H])C([H])([H])[H])C(C([H])([H])[H])(C([H])([H])[H])C([H])([H])[H])C([H])(C(=O)N([H])C2([H])c4c([H])c([H])c([H])c([H])c4C([H])([H])C([H])([H])C2([H])[H])C3([H])[H])c([H])c1[H]

>  <smiles>  (94) 
[H]OC(=C(C(=O)N1C([H])([H])C([H])([H])C([H])([H])C([H])(n2nc(-c3c([H])c([H])c(Oc4c([H])c([H])c(F)c([H])c4F)c([H])c3[H])c(C(=O)N([H])[H])c2N([H])[H])C1([H])[H])C([H])([H])C([H])([H])[H])c1c([H])c([H])c(C([H])([H])C([H])([H])C([H])(C([H])([H])[H])C([H])([H])Oc2c([H])c([H])c3c(c2[H])C([H])([H])N(C(=O)C([H])(N([H])C(=O)C([H])(N([H])C([H])([H])[H])C([H])([H])[H])C(C([H])([H])[H])(C([H])([H])[H])C([H])([H])[H])C([H])(C(=O)N([H])C2([H])c4c([H])c([H])c([H])c([H])c4C([H])([H])C([H])([H])C2([H])[H])C3([H])[H])c([H])c1[H]

$$$$
94:0:0
     RDKit          3D

 90 98  0  0  1  0  0  0  0  0999 V2000
  -30.2140  -20.3640   20.9820 C   0  0  0  0  0  3  0  0  0  0  0  0
  -28.0790  -20.4970   19.8780 C   0  0  0  0  0  3  0  0  0  0  0  0
  -30.2540  -21.7880   21.0390 C   0  0  0  0  0  3  0  0  0  0  0  0
  -28.1190  -21.9220   19.9310 C   0  0  0  0  0  3  0  0  0  0  0  0
  -29.1210  -19.6740   20.3940 C   0  0  0  0  0  0  0  0  0  0  0  0
  -29.2130  -22.6060   20.5170 C   0  0  0  0  0  0  0  0  0  0  0  0
  -29.0040  -18.1380   20.3220 C   0  0  0  0  0  0  0  0  0  0  0  0
  -27.9600  -17.5990   19.9360 O   0  0  0  0  0  0  0  0  0  0  0  0
  -30.1840  -17.1800   20.7140 C   0  0  0  0  0  2  0  0  0  0  0  0
  -30.5840  -14.6420   20.4380 C   0  0  0  0  0  0  0  0  0  0  0  0
  -30.3470  -12.4190   19.3620 C   0  0  0  0  0  2  0  0  0  0  0  0
  -29.4040  -12.5560   18.1480 C   0  0  0  0  0  2  0  0  0  0  0  0
  -27.9280  -12.4140   18.5710 C   0  0  0  0  0  2  0  0  0  0  0  0
  -27.5760  -13.2730   19.8180 C   0  0  0  0  0  3  0  0  0  0  0  0
  -28.6350  -13.1120   20.9310 C   0  0  0  0  0  2  0  0  0  0  0  0
  -29.9430  -13.4370   20.3480 N   0  0  0  0  0  0  0  0  0  0  0  0
  -31.7610  -14.7780   20.1020 O   0  0  0  0  0  0  0  0  0  0  0  0
  -29.8050  -15.7250   20.7060 N   0  0  0  0  0  0  0  0  0  0  0  0
  -28.8180  -15.5480   20.8310 H   0  0  0  0  0  0  0  0  0  0  0  0
  -25.1830  -13.8810   20.5280 C   0  0  0  0  0  0  0  0  0  0  0  0
  -24.1130  -13.1100   20.8980 C   0  0  0  0  0  0  0  0  0  0  0  0
  -24.5740  -11.7580   20.8740 C   0  0  0  0  0  0  0  0  0  0  0  0
  -26.2270  -12.9970   20.3020 N   0  0  0  0  0  0  0  0  0  0  0  0
  -25.8660  -11.7170   20.5710 N   0  0  0  0  0  0  0  0  0  0  0  0
  -23.8440  -10.4970   21.0660 C   0  0  0  0  0  0  0  0  0  0  0  0
  -24.2780   -9.5260   21.9940 C   0  0  0  0  0  3  0  0  0  0  0  0
  -23.5520   -8.3270   22.1720 C   0  0  0  0  0  3  0  0  0  0  0  0
  -22.3770   -8.0930   21.4200 C   0  0  0  0  0  0  0  0  0  0  0  0
  -21.9610   -9.0520   20.4800 C   0  0  0  0  0  3  0  0  0  0  0  0
  -22.6890  -10.2410   20.3010 C   0  0  0  0  0  3  0  0  0  0  0  0
  -21.6170   -6.9520   21.5090 O   0  0  0  0  0  0  0  0  0  0  0  0
  -21.5730   -6.2050   22.6580 C   0  0  0  0  0  0  0  0  0  0  0  0
  -21.1500   -6.7530   23.8900 C   0  0  0  0  0  3  0  0  0  0  0  0
  -21.0570   -5.9310   25.0300 C   0  0  0  0  0  3  0  0  0  0  0  0
  -21.3740   -4.5620   24.9400 C   0  0  0  0  0  0  0  0  0  0  0  0
  -21.7870   -4.0130   23.7140 C   0  0  0  0  0  3  0  0  0  0  0  0
  -21.8830   -4.8320   22.5750 C   0  0  0  0  0  0  0  0  0  0  0  0
  -22.2640   -4.2940   21.3910 F   0  0  0  0  0  0  0  0  0  0  0  0
  -21.2750   -3.7690   26.0350 F   0  0  0  0  0  0  0  0  0  0  0  0
  -22.7150  -13.5890   21.1580 C   0  0  0  0  0  0  0  0  0  0  0  0
  -21.9790  -12.9000   22.0250 N   0  0  0  0  0  0  0  0  0  0  0  0
  -22.2810  -14.6090   20.6260 O   0  0  0  0  0  0  0  0  0  0  0  0
  -22.3390  -12.0740   22.4790 H   0  0  0  0  0  0  0  0  0  0  0  0
  -21.0380  -13.2050   22.2380 H   0  0  0  0  0  0  0  0  0  0  0  0
  -25.3460  -15.2510   20.3430 N   0  0  0  0  0  0  0  0  0  0  0  0
  -24.5730  -15.8980   20.4500 H   0  0  0  0  0  0  0  0  0  0  0  0
  -26.1840  -15.7000   19.9910 H   0  0  0  0  0  0  0  0  0  0  0  0
  -29.3220  -24.1680   20.6290 C   0  0  0  0  0  3  0  0  0  0  0  0
  -28.2000  -25.1030   20.0310 C   0  0  0  0  0  3  0  0  0  0  0  0
  -28.3620  -26.5510   20.2610 O   0  0  0  0  0  0  0  0  0  0  0  0
  -24.6300  -31.9120   23.2720 C   0  0  0  0  0  0  0  0  0  0  0  0
  -27.2300  -27.3730   20.2030 C   0  0  0  0  0  0  0  0  0  0  0  0
  -23.4200  -30.5210   21.6290 C   0  0  0  0  0  3  0  0  0  0  0  0
  -24.8640  -28.9720   20.1960 C   0  0  0  0  0  0  0  0  0  0  0  0
  -25.9580  -30.8360   21.4440 C   0  0  0  0  0  2  0  0  0  0  0  0
  -26.0320  -29.4610   20.7960 C   0  0  0  0  0  0  0  0  0  0  0  0
  -27.2160  -28.6710   20.7920 C   0  0  0  0  0  3  0  0  0  0  0  0
  -26.0410  -26.9320   19.5750 C   0  0  0  0  0  3  0  0  0  0  0  0
  -24.8700  -27.7120   19.5780 C   0  0  0  0  0  3  0  0  0  0  0  0
  -23.6290  -29.8470   20.2470 C   0  0  0  0  0  2  0  0  0  0  0  0
  -24.6890  -31.1060   22.1720 N   0  0  0  0  0  0  0  0  0  0  0  0
  -23.5490  -32.1930   23.8080 O   0  0  0  0  0  0  0  0  0  0  0  0
  -22.7550  -29.5050   22.5870 C   0  0  0  0  0  0  0  0  0  0  0  0
  -21.4290  -29.3320   22.4560 N   0  0  0  0  0  0  0  0  0  0  0  0
  -23.4300  -28.8750   23.4050 O   0  0  0  0  0  0  0  0  0  0  0  0
  -20.9440  -29.8900   21.7670 H   0  0  0  0  0  0  0  0  0  0  0  0
  -18.0450  -28.1570   22.9540 C   0  0  0  0  0  0  0  0  0  0  0  0
  -20.6040  -28.3980   23.2240 C   0  0  0  0  0  3  0  0  0  0  0  0
  -20.6990  -26.9680   22.6420 C   0  0  0  0  0  2  0  0  0  0  0  0
  -19.5940  -26.6550   21.6290 C   0  0  0  0  0  2  0  0  0  0  0  0
  -18.2130  -26.8100   22.2720 C   0  0  0  0  0  2  0  0  0  0  0  0
  -19.1680  -28.9100   23.3850 C   0  0  0  0  0  0  0  0  0  0  0  0
  -18.9580  -30.1730   23.9790 C   0  0  0  0  0  3  0  0  0  0  0  0
  -17.6560  -30.6830   24.1480 C   0  0  0  0  0  3  0  0  0  0  0  0
  -16.5470  -29.9250   23.7330 C   0  0  0  0  0  3  0  0  0  0  0  0
  -16.7420  -28.6660   23.1410 C   0  0  0  0  0  3  0  0  0  0  0  0
  -25.9160  -32.5360   23.8970 C   0  0  0  0  0  3  0  0  0  0  0  0
  -26.4250  -31.7620   25.1740 C   0  0  1  0  0  0  0  0  0  0  0  0
  -25.3300  -31.5270   26.2410 C   0  0  0  0  0  1  0  0  0  0  0  0
  -27.0020  -30.3830   24.7790 C   0  0  0  0  0  1  0  0  0  0  0  0
  -27.5790  -32.5490   25.8380 C   0  0  0  0  0  1  0  0  0  0  0  0
  -25.6150  -33.9360   24.2280 N   0  0  0  0  0  0  0  0  0  0  0  0
  -25.9330  -34.9870   23.4590 C   0  0  0  0  0  0  0  0  0  0  0  0
  -26.5810  -34.8780   22.4160 O   0  0  0  0  0  0  0  0  0  0  0  0
  -25.0430  -34.0930   25.0450 H   0  0  0  0  0  0  0  0  0  0  0  0
  -24.1930  -36.7740   23.1370 C   0  0  0  0  0  1  0  0  0  0  0  0
  -25.4550  -36.3770   23.9190 C   0  0  0  0  0  3  0  0  0  0  0  0
  -27.6080  -37.2730   24.6890 C   0  0  0  0  0  1  0  0  0  0  0  0
  -26.4830  -37.4310   23.7730 N   0  0  0  0  0  0  0  0  0  0  0  0
  -26.0790  -38.3520   23.9210 H   0  0  0  0  0  0  0  0  0  0  0  0
  1  3  1  0
  2  4  2  0
  2  5  1  0
  4  6  1  0
  5  1  2  0
  6 48  1  0
  6  3  2  0
  7  5  1  0
  7  9  1  0
  8  7  2  0
 10 18  1  0
 11 16  1  0
 12 13  1  0
 12 11  1  0
 14 13  1  0
 14 23  1  0
 14 15  1  0
 16 10  1  0
 16 15  1  0
 17 10  2  0
 18  9  1  0
 18 19  1  0
 20 21  2  0
 21 40  1  0
 22 21  1  0
 22 25  1  0
 23 20  1  0
 23 24  1  0
 24 22  2  0
 25 26  1  0
 26 27  2  0
 28 31  1  0
 28 27  1  0
 29 28  2  0
 30 29  1  0
 30 25  2  0
 31 32  1  0
 32 33  1  0
 33 34  2  0
 35 34  1  0
 35 39  1  0
 36 35  2  0
 37 32  2  0
 37 36  1  0
 38 37  1  0
 40 41  1  0
 41 44  1  0
 41 43  1  0
 42 40  2  0
 45 46  1  0
 45 20  1  0
 47 45  1  0
 49 50  1  0
 49 48  2  0
 51 62  2  0
 52 50  1  0
 52 57  1  0
 53 61  1  0
 53 63  1  0
 54 60  1  0
 54 56  1  0
 55 61  1  0
 56 55  1  0
 57 56  2  0
 58 59  1  0
 58 52  2  0
 59 54  2  0
 60 53  1  0
 61 51  1  0
 63 65  2  0
 64 63  1  0
 66 64  1  0
 67 76  2  0
 67 72  1  0
 68 64  1  0
 68 72  1  0
 69 68  1  0
 70 71  1  0
 70 69  1  0
 71 67  1  0
 72 73  2  0
 73 74  1  0
 75 74  2  0
 76 75  1  0
 77 51  1  0
 77 82  1  0
 77 78  1  0
 78 81  1  1
 78 79  1  0
 80 78  1  0
 82 85  1  0
 83 87  1  0
 83 82  1  0
 84 83  2  0
 87 86  1  0
 89 87  1  0
 89 90  1  0
 89 88  1  0
M  ISO  4  10 100  18 100  49 101  50 101
M  END
>  <TORSDO>  (95) 
F 20

>  <SCORE>  (95) 
-14.008

>  <name>  (95) 
94

>  <ligand_id>  (95) 
94

>  <original_smiles>  (95) 
[H]c1c([H])c([H])c2c(c1[H])C([H])([H])C([H])([H])C([H])([H])C2([H])N([H])C(=O)C1([H])N(C(=O)C([H])(N([H])C(=O)C([H])(N([H])C([H])([H])[H])C([H])([H])[H])C(C([H])([H])[H])(C([H])([H])[H])C([H])([H])[H])C([H])([H])c2c([H])c(OC([H])([H])C([H])([H])c3c([H])c([H])c(C(=O)C([H])([H])N([H])C(=O)N4C([H])([H])C([H])([H])C([H])([H])C([H])(n5nc(-c6c([H])c([H])c(Oc7c([H])c([H])c(F)c([H])c7F)c([H])c6[H])c(C(=O)N([H])[H])c5N([H])[H])C4([H])[H])c([H])c3[H])c([H])c([H])c2C1([H])[H]

>  <smiles>  (95) 
[H]c1c([H])c([H])c2c(c1[H])C([H])([H])C([H])([H])C([H])([H])C2([H])N([H])C(=O)C1([H])N(C(=O)C([H])(N([H])C(=O)C([H])(N([H])C([H])([H])[H])C([H])([H])[H])C(C([H])([H])[H])(C([H])([H])[H])C([H])([H])[H])C([H])([H])c2c([H])c(OC([H])([H])C([H])([H])c3c([H])c([H])c(C(=O)C([H])([H])N([H])C(=O)N4C([H])([H])C([H])([H])C([H])([H])C([H])(n5nc(-c6c([H])c([H])c(Oc7c([H])c([H])c(F)c([H])c7F)c([H])c6[H])c(C(=O)N([H])[H])c5N([H])[H])C4([H])[H])c([H])c3[H])c([H])c([H])c2C1([H])[H]

$$$$
95:0:0
     RDKit          3D

 89 97  0  0  1  0  0  0  0  0999 V2000
  -27.7910  -23.1460   21.5470 C   0  0  0  0  0  2  0  0  0  0  0  0
  -28.6350  -22.3810   20.5480 C   0  0  0  0  0  3  0  0  0  0  0  0
  -28.8380  -23.9340   20.7940 C   0  0  0  0  0  3  0  0  0  0  0  0
  -29.4640  -21.1430   21.0850 C   0  0  0  0  0  0  0  0  0  0  0  0
  -30.1270  -21.2470   22.1560 N   0  0  0  0  0  0  0  0  0  0  0  0
  -30.0330  -22.1750   22.5590 H   0  0  0  0  0  0  0  0  0  0  0  0
  -29.4770  -19.7880   20.2810 C   0  0  0  0  0  2  0  0  0  0  0  0
  -29.7170  -18.4000   21.0430 C   0  0  0  0  0  3  0  0  0  0  0  0
  -29.9810  -17.1280   20.1180 C   0  0  0  0  0  3  0  0  0  0  0  0
  -30.6020  -14.6370   20.3120 C   0  0  0  0  0  0  0  0  0  0  0  0
  -30.3280  -12.4130   19.2370 C   0  0  0  0  0  2  0  0  0  0  0  0
  -29.3700  -12.5760   18.0350 C   0  0  0  0  0  2  0  0  0  0  0  0
  -27.9080  -12.4060   18.4900 C   0  0  0  0  0  2  0  0  0  0  0  0
  -27.5780  -13.2730   19.7340 C   0  0  0  0  0  3  0  0  0  0  0  0
  -28.6480  -13.1080   20.8360 C   0  0  0  0  0  2  0  0  0  0  0  0
  -29.9550  -13.4290   20.2470 N   0  0  0  0  0  0  0  0  0  0  0  0
  -31.7380  -14.7760   19.8540 O   0  0  0  0  0  0  0  0  0  0  0  0
  -29.8600  -15.7320   20.6790 N   0  0  0  0  0  0  0  0  0  0  0  0
  -28.9770  -15.5170   21.1150 H   0  0  0  0  0  0  0  0  0  0  0  0
  -25.2000  -13.8850   20.4860 C   0  0  0  0  0  0  0  0  0  0  0  0
  -24.1350  -13.1160   20.8720 C   0  0  0  0  0  0  0  0  0  0  0  0
  -24.5910  -11.7620   20.8390 C   0  0  0  0  0  0  0  0  0  0  0  0
  -26.2370  -12.9980   20.2380 N   0  0  0  0  0  0  0  0  0  0  0  0
  -25.8760  -11.7180   20.5110 N   0  0  0  0  0  0  0  0  0  0  0  0
  -23.8630  -10.5030   21.0420 C   0  0  0  0  0  0  0  0  0  0  0  0
  -24.3120   -9.5250   21.9570 C   0  0  0  0  0  3  0  0  0  0  0  0
  -23.5810   -8.3320   22.1470 C   0  0  0  0  0  3  0  0  0  0  0  0
  -22.3860   -8.1110   21.4220 C   0  0  0  0  0  0  0  0  0  0  0  0
  -21.9580   -9.0760   20.4940 C   0  0  0  0  0  3  0  0  0  0  0  0
  -22.6910  -10.2590   20.3010 C   0  0  0  0  0  3  0  0  0  0  0  0
  -21.6250   -6.9720   21.5250 O   0  0  0  0  0  0  0  0  0  0  0  0
  -21.6150   -6.2120   22.6660 C   0  0  0  0  0  0  0  0  0  0  0  0
  -21.2490   -6.7540   23.9190 C   0  0  0  0  0  3  0  0  0  0  0  0
  -21.1830   -5.9210   25.0530 C   0  0  0  0  0  3  0  0  0  0  0  0
  -21.4750   -4.5490   24.9380 C   0  0  0  0  0  0  0  0  0  0  0  0
  -21.8360   -4.0080   23.6910 C   0  0  0  0  0  3  0  0  0  0  0  0
  -21.9030   -4.8360   22.5590 C   0  0  0  0  0  0  0  0  0  0  0  0
  -22.2300   -4.3060   21.3560 F   0  0  0  0  0  0  0  0  0  0  0  0
  -21.4050   -3.7470   26.0260 F   0  0  0  0  0  0  0  0  0  0  0  0
  -22.7430  -13.6020   21.1600 C   0  0  0  0  0  0  0  0  0  0  0  0
  -22.0250  -12.9110   22.0390 N   0  0  0  0  0  0  0  0  0  0  0  0
  -22.3020  -14.6270   20.6450 O   0  0  0  0  0  0  0  0  0  0  0  0
  -22.3950  -12.0780   22.4720 H   0  0  0  0  0  0  0  0  0  0  0  0
  -21.0930  -13.2200   22.2800 H   0  0  0  0  0  0  0  0  0  0  0  0
  -25.3730  -15.2530   20.2990 N   0  0  0  0  0  0  0  0  0  0  0  0
  -24.6120  -15.9140   20.4130 H   0  0  0  0  0  0  0  0  0  0  0  0
  -26.2160  -15.6770   19.9370 H   0  0  0  0  0  0  0  0  0  0  0  0
  -28.3540  -25.0700   19.8160 C   0  0  0  0  0  2  0  0  0  0  0  0
  -28.3420  -26.4890   20.2540 O   0  0  0  0  0  0  0  0  0  0  0  0
  -24.6170  -31.8780   23.2330 C   0  0  0  0  0  0  0  0  0  0  0  0
  -27.2000  -27.3070   20.1740 C   0  0  0  0  0  0  0  0  0  0  0  0
  -23.4010  -30.4790   21.6020 C   0  0  0  0  0  3  0  0  0  0  0  0
  -24.8370  -28.9280   20.1670 C   0  0  0  0  0  0  0  0  0  0  0  0
  -25.9380  -30.7970   21.3980 C   0  0  0  0  0  2  0  0  0  0  0  0
  -26.0090  -29.4140   20.7600 C   0  0  0  0  0  0  0  0  0  0  0  0
  -27.1870  -28.6140   20.7560 C   0  0  0  0  0  3  0  0  0  0  0  0
  -26.0030  -26.8820   19.5450 C   0  0  0  0  0  3  0  0  0  0  0  0
  -24.8370  -27.6700   19.5530 C   0  0  0  0  0  3  0  0  0  0  0  0
  -23.6030  -29.8040   20.2210 C   0  0  0  0  0  2  0  0  0  0  0  0
  -24.6720  -31.0710   22.1340 N   0  0  0  0  0  0  0  0  0  0  0  0
  -23.5370  -32.1560   23.7750 O   0  0  0  0  0  0  0  0  0  0  0  0
  -22.7460  -29.4610   22.5670 C   0  0  0  0  0  0  0  0  0  0  0  0
  -21.4210  -29.2780   22.4470 N   0  0  0  0  0  0  0  0  0  0  0  0
  -23.4310  -28.8410   23.3840 O   0  0  0  0  0  0  0  0  0  0  0  0
  -20.9260  -29.8320   21.7620 H   0  0  0  0  0  0  0  0  0  0  0  0
  -18.0540  -28.0590   22.9490 C   0  0  0  0  0  0  0  0  0  0  0  0
  -20.6090  -28.3390   23.2230 C   0  0  0  0  0  3  0  0  0  0  0  0
  -20.7220  -26.9050   22.6580 C   0  0  0  0  0  2  0  0  0  0  0  0
  -19.6260  -26.5660   21.6430 C   0  0  0  0  0  2  0  0  0  0  0  0
  -18.2410  -26.7080   22.2810 C   0  0  0  0  0  2  0  0  0  0  0  0
  -19.1660  -28.8340   23.3750 C   0  0  0  0  0  0  0  0  0  0  0  0
  -18.9360  -30.1010   23.9560 C   0  0  0  0  0  3  0  0  0  0  0  0
  -17.6260  -30.5950   24.1080 C   0  0  0  0  0  3  0  0  0  0  0  0
  -16.5300  -29.8190   23.6960 C   0  0  0  0  0  3  0  0  0  0  0  0
  -16.7430  -28.5510   23.1260 C   0  0  0  0  0  3  0  0  0  0  0  0
  -25.9040  -32.5120   23.8470 C   0  0  0  0  0  3  0  0  0  0  0  0
  -25.6010  -33.9130   24.1720 N   0  0  0  0  0  0  0  0  0  0  0  0
  -25.9290  -34.9590   23.4040 C   0  0  0  0  0  0  0  0  0  0  0  0
  -26.5880  -34.8470   22.3660 O   0  0  0  0  0  0  0  0  0  0  0  0
  -25.0200  -34.0770   24.9820 H   0  0  0  0  0  0  0  0  0  0  0  0
  -24.1970  -36.7460   23.0550 C   0  0  0  0  0  1  0  0  0  0  0  0
  -25.4500  -36.3540   23.8540 C   0  0  0  0  0  3  0  0  0  0  0  0
  -27.5990  -37.2380   24.6450 C   0  0  0  0  0  1  0  0  0  0  0  0
  -26.4830  -37.4040   23.7170 N   0  0  0  0  0  0  0  0  0  0  0  0
  -26.0820  -38.3270   23.8610 H   0  0  0  0  0  0  0  0  0  0  0  0
  -26.4260  -31.7450   25.1230 C   0  0  1  0  0  0  0  0  0  0  0  0
  -25.3380  -31.5120   26.1980 C   0  0  0  0  0  1  0  0  0  0  0  0
  -26.9980  -30.3660   24.7280 C   0  0  0  0  0  1  0  0  0  0  0  0
  -27.5880  -32.5330   25.7710 C   0  0  0  0  0  1  0  0  0  0  0  0
  2  3  1  0
  2  4  1  0
  2  1  1  0
  3 48  1  0
  3  1  1  0
  4  5  2  0
  5  6  1  0
  7  8  1  0
  7  4  1  0
  9 18  1  0
  9  8  2  0
 10 18  1  0
 11 16  1  0
 12 13  1  0
 12 11  1  0
 14 13  1  0
 14 23  1  0
 14 15  1  0
 16 10  1  0
 16 15  1  0
 17 10  2  0
 18 19  1  0
 20 21  2  0
 21 40  1  0
 22 21  1  0
 22 25  1  0
 23 20  1  0
 23 24  1  0
 24 22  2  0
 25 26  1  0
 26 27  2  0
 28 31  1  0
 28 27  1  0
 29 28  2  0
 30 29  1  0
 30 25  2  0
 31 32  1  0
 32 33  1  0
 33 34  2  0
 35 34  1  0
 35 39  1  0
 36 35  2  0
 37 32  2  0
 37 36  1  0
 38 37  1  0
 40 41  1  0
 41 44  1  0
 41 43  1  0
 42 40  2  0
 45 46  1  0
 45 20  1  0
 47 45  1  0
 48 49  1  0
 50 61  2  0
 51 49  1  0
 51 56  1  0
 52 60  1  0
 52 62  1  0
 53 59  1  0
 53 55  1  0
 54 60  1  0
 55 54  1  0
 56 55  2  0
 57 58  1  0
 57 51  2  0
 58 53  2  0
 59 52  1  0
 60 50  1  0
 62 64  2  0
 63 62  1  0
 65 63  1  0
 66 75  2  0
 66 71  1  0
 67 63  1  0
 67 71  1  0
 68 67  1  0
 69 70  1  0
 69 68  1  0
 70 66  1  0
 71 72  2  0
 72 73  1  0
 74 73  2  0
 75 74  1  0
 76 50  1  0
 76 77  1  0
 76 86  1  0
 77 80  1  0
 78 82  1  0
 78 77  1  0
 79 78  2  0
 82 81  1  0
 84 82  1  0
 84 85  1  0
 84 83  1  0
 86 89  1  1
 86 87  1  0
 88 86  1  0
M  ISO  4  10 100  18 100  48 101  49 101
M  END
>  <TORSDO>  (96) 
F 21

>  <SCORE>  (96) 
-13.387

>  <name>  (96) 
95

>  <ligand_id>  (96) 
95

>  <original_smiles>  (96) 
[H]N=C(C([H])([H])C([H])([H])C([H])([H])N([H])C(=O)N1C([H])([H])C([H])([H])C([H])([H])C([H])(n2nc(-c3c([H])c([H])c(Oc4c([H])c([H])c(F)c([H])c4F)c([H])c3[H])c(C(=O)N([H])[H])c2N([H])[H])C1([H])[H])C1([H])C([H])([H])C1([H])C([H])([H])Oc1c([H])c([H])c2c(c1[H])C([H])([H])N(C(=O)C([H])(N([H])C(=O)C([H])(N([H])C([H])([H])[H])C([H])([H])[H])C(C([H])([H])[H])(C([H])([H])[H])C([H])([H])[H])C([H])(C(=O)N([H])C1([H])c3c([H])c([H])c([H])c([H])c3C([H])([H])C([H])([H])C1([H])[H])C2([H])[H]

>  <smiles>  (96) 
[H]N=C(C([H])([H])C([H])([H])C([H])([H])N([H])C(=O)N1C([H])([H])C([H])([H])C([H])([H])C([H])(n2nc(-c3c([H])c([H])c(Oc4c([H])c([H])c(F)c([H])c4F)c([H])c3[H])c(C(=O)N([H])[H])c2N([H])[H])C1([H])[H])C1([H])C([H])([H])C1([H])C([H])([H])Oc1c([H])c([H])c2c(c1[H])C([H])([H])N(C(=O)C([H])(N([H])C(=O)C([H])(N([H])C([H])([H])[H])C([H])([H])[H])C(C([H])([H])[H])(C([H])([H])[H])C([H])([H])[H])C([H])(C(=O)N([H])C1([H])c3c([H])c([H])c([H])c([H])c3C([H])([H])C([H])([H])C1([H])[H])C2([H])[H]

$$$$
96:0:0
     RDKit          3D

 90 99  0  0  1  0  0  0  0  0999 V2000
  -28.5400  -19.5820   19.7620 C   0  0  0  0  0  2  0  0  0  0  0  0
  -29.5070  -18.8120   20.3590 C   0  0  0  0  0  3  0  0  0  0  0  0
  -30.1880  -20.0460   20.8290 C   0  0  0  0  0  0  0  0  0  0  0  0
  -29.1970  -21.0020   20.0560 C   0  0  0  0  0  3  0  0  0  0  0  0
  -31.1790  -20.1940   21.5500 O   0  0  0  0  0  0  0  0  0  0  0  0
  -27.1530  -22.7110   20.2690 C   0  0  0  0  0  2  0  0  0  0  0  0
  -28.3950  -22.1210   20.8840 C   0  0  0  0  0  3  0  0  0  0  0  0
  -28.1140  -23.7420   20.8150 C   0  0  0  0  0  3  0  0  0  0  0  0
  -28.3980  -25.0030   19.8620 C   0  0  0  0  0  2  0  0  0  0  0  0
  -28.3360  -26.4380   20.3500 O   0  0  0  0  0  0  0  0  0  0  0  0
  -24.5960  -31.9490   23.2530 C   0  0  0  0  0  0  0  0  0  0  0  0
  -27.2120  -27.2990   20.2620 C   0  0  0  0  0  0  0  0  0  0  0  0
  -23.4040  -30.5380   21.6180 C   0  0  0  0  0  3  0  0  0  0  0  0
  -24.8590  -28.9620   20.2130 C   0  0  0  0  0  0  0  0  0  0  0  0
  -25.9490  -30.8320   21.4530 C   0  0  0  0  0  2  0  0  0  0  0  0
  -26.0280  -29.4440   20.8160 C   0  0  0  0  0  0  0  0  0  0  0  0
  -27.2030  -28.6240   20.8270 C   0  0  0  0  0  3  0  0  0  0  0  0
  -26.0150  -26.8830   19.6400 C   0  0  0  0  0  3  0  0  0  0  0  0
  -24.8590  -27.6920   19.6160 C   0  0  0  0  0  3  0  0  0  0  0  0
  -23.6270  -29.8480   20.2440 C   0  0  0  0  0  2  0  0  0  0  0  0
  -24.6690  -31.1270   22.1630 N   0  0  0  0  0  0  0  0  0  0  0  0
  -23.5090  -32.2330   23.7780 O   0  0  0  0  0  0  0  0  0  0  0  0
  -22.7290  -29.5340   22.5840 C   0  0  0  0  0  0  0  0  0  0  0  0
  -21.4030  -29.3610   22.4530 N   0  0  0  0  0  0  0  0  0  0  0  0
  -23.4020  -28.9120   23.4110 O   0  0  0  0  0  0  0  0  0  0  0  0
  -20.9200  -29.9130   21.7590 H   0  0  0  0  0  0  0  0  0  0  0  0
  -18.0180  -28.1880   22.9620 C   0  0  0  0  0  0  0  0  0  0  0  0
  -20.5780  -28.4320   23.2290 C   0  0  0  0  0  3  0  0  0  0  0  0
  -20.6690  -26.9970   22.6580 C   0  0  0  0  0  2  0  0  0  0  0  0
  -19.5640  -26.6800   21.6460 C   0  0  0  0  0  2  0  0  0  0  0  0
  -18.1830  -26.8370   22.2900 C   0  0  0  0  0  2  0  0  0  0  0  0
  -19.1420  -28.9440   23.3880 C   0  0  0  0  0  0  0  0  0  0  0  0
  -18.9320  -30.2090   23.9780 C   0  0  0  0  0  3  0  0  0  0  0  0
  -17.6300  -30.7200   24.1440 C   0  0  0  0  0  3  0  0  0  0  0  0
  -16.5200  -29.9610   23.7330 C   0  0  0  0  0  3  0  0  0  0  0  0
  -16.7150  -28.6980   23.1480 C   0  0  0  0  0  3  0  0  0  0  0  0
  -25.8740  -32.5870   23.8800 C   0  0  0  0  0  3  0  0  0  0  0  0
  -26.3800  -31.8280   25.1690 C   0  0  1  0  0  0  0  0  0  0  0  0
  -25.2780  -31.6020   26.2310 C   0  0  0  0  0  1  0  0  0  0  0  0
  -26.9660  -30.4460   24.7990 C   0  0  0  0  0  1  0  0  0  0  0  0
  -27.5260  -32.6290   25.8330 C   0  0  0  0  0  1  0  0  0  0  0  0
  -25.5630  -33.9890   24.1970 N   0  0  0  0  0  0  0  0  0  0  0  0
  -25.9020  -35.0370   23.4340 C   0  0  0  0  0  0  0  0  0  0  0  0
  -26.5790  -34.9260   22.4070 O   0  0  0  0  0  0  0  0  0  0  0  0
  -24.9640  -34.1490   24.9920 H   0  0  0  0  0  0  0  0  0  0  0  0
  -24.1860  -36.8360   23.0490 C   0  0  0  0  0  1  0  0  0  0  0  0
  -25.4150  -36.4290   23.8790 C   0  0  0  0  0  3  0  0  0  0  0  0
  -27.5400  -37.3130   24.7360 C   0  0  0  0  0  1  0  0  0  0  0  0
  -26.4530  -37.4780   23.7740 N   0  0  0  0  0  0  0  0  0  0  0  0
  -26.0490  -38.4020   23.9080 H   0  0  0  0  0  0  0  0  0  0  0  0
  -30.0110  -17.2420   18.4120 C   0  0  0  0  0  1  0  0  0  0  0  0
  -30.1770  -17.4030   19.9360 C   0  0  0  0  0  3  0  0  0  0  0  0
  -30.6350  -14.8630   20.4580 C   0  0  0  0  0  0  0  0  0  0  0  0
  -30.4710  -12.5680   19.4850 C   0  0  0  0  0  2  0  0  0  0  0  0
  -29.5620  -12.6230   18.2380 C   0  0  0  0  0  2  0  0  0  0  0  0
  -28.0860  -12.4420   18.6350 C   0  0  0  0  0  2  0  0  0  0  0  0
  -27.6790  -13.3320   19.8400 C   0  0  0  0  0  3  0  0  0  0  0  0
  -28.7140  -13.2690   20.9850 C   0  0  0  0  0  2  0  0  0  0  0  0
  -30.0160  -13.6300   20.4150 N   0  0  0  0  0  0  0  0  0  0  0  0
  -31.8290  -14.9410   20.1580 O   0  0  0  0  0  0  0  0  0  0  0  0
  -29.8640  -16.0250   20.5650 N   0  0  0  0  0  0  0  0  0  0  0  0
  -28.9060  -15.8840   20.8520 H   0  0  0  0  0  0  0  0  0  0  0  0
  -25.2750  -13.9040   20.5180 C   0  0  0  0  0  0  0  0  0  0  0  0
  -24.2080  -13.1230   20.8710 C   0  0  0  0  0  0  0  0  0  0  0  0
  -24.6830  -11.7750   20.8570 C   0  0  0  0  0  0  0  0  0  0  0  0
  -26.3290  -13.0320   20.3060 N   0  0  0  0  0  0  0  0  0  0  0  0
  -25.9800  -11.7470   20.5760 N   0  0  0  0  0  0  0  0  0  0  0  0
  -23.9620  -10.5080   21.0370 C   0  0  0  0  0  0  0  0  0  0  0  0
  -24.3760   -9.5520   21.9910 C   0  0  0  0  0  3  0  0  0  0  0  0
  -23.6540   -8.3500   22.1600 C   0  0  0  0  0  3  0  0  0  0  0  0
  -22.5050   -8.0960   21.3750 C   0  0  0  0  0  0  0  0  0  0  0  0
  -22.1100   -9.0410   20.4120 C   0  0  0  0  0  3  0  0  0  0  0  0
  -22.8330  -10.2340   20.2400 C   0  0  0  0  0  3  0  0  0  0  0  0
  -21.7560   -6.9470   21.4530 O   0  0  0  0  0  0  0  0  0  0  0  0
  -21.6750   -6.2160   22.6110 C   0  0  0  0  0  0  0  0  0  0  0  0
  -21.1950   -6.7800   23.8140 C   0  0  0  0  0  3  0  0  0  0  0  0
  -21.0620   -5.9760   24.9640 C   0  0  0  0  0  3  0  0  0  0  0  0
  -21.3990   -4.6100   24.9120 C   0  0  0  0  0  0  0  0  0  0  0  0
  -21.8740   -4.0470   23.7140 C   0  0  0  0  0  3  0  0  0  0  0  0
  -22.0080   -4.8480   22.5670 C   0  0  0  0  0  0  0  0  0  0  0  0
  -22.4450   -4.2960   21.4100 F   0  0  0  0  0  0  0  0  0  0  0  0
  -21.2650   -3.8360   26.0150 F   0  0  0  0  0  0  0  0  0  0  0  0
  -22.8020  -13.5900   21.1080 C   0  0  0  0  0  0  0  0  0  0  0  0
  -22.0560  -12.8900   21.9550 N   0  0  0  0  0  0  0  0  0  0  0  0
  -22.3700  -14.6120   20.5760 O   0  0  0  0  0  0  0  0  0  0  0  0
  -22.4170  -12.0630   22.4090 H   0  0  0  0  0  0  0  0  0  0  0  0
  -21.1120  -13.1850   22.1580 H   0  0  0  0  0  0  0  0  0  0  0  0
  -25.4300  -15.2750   20.3340 N   0  0  0  0  0  0  0  0  0  0  0  0
  -24.6520  -15.9210   20.4210 H   0  0  0  0  0  0  0  0  0  0  0  0
  -26.2720  -15.7160   19.9900 H   0  0  0  0  0  0  0  0  0  0  0  0
  1  2  1  0
  2 52  1  0
  2  3  1  0
  3  5  2  0
  4  1  1  0
  4  3  1  0
  4  7  1  0
  6  8  1  0
  7  6  1  0
  8  9  1  0
  8  7  1  0
  9 10  1  0
 11 22  2  0
 12 10  1  0
 12 17  1  0
 13 21  1  0
 13 23  1  0
 14 20  1  0
 14 16  1  0
 15 21  1  0
 16 17  2  0
 16 15  1  0
 18 12  2  0
 19 18  1  0
 19 14  2  0
 20 13  1  0
 21 11  1  0
 23 25  2  0
 24 23  1  0
 26 24  1  0
 27 36  2  0
 27 32  1  0
 28 24  1  0
 28 32  1  0
 29 28  1  0
 30 31  1  0
 30 29  1  0
 31 27  1  0
 32 33  2  0
 33 34  1  0
 35 34  2  0
 36 35  1  0
 37 11  1  0
 37 42  1  0
 37 38  1  0
 38 41  1  1
 38 39  1  0
 40 38  1  0
 42 45  1  0
 43 47  1  0
 43 42  1  0
 44 43  2  0
 47 46  1  0
 49 47  1  0
 49 50  1  0
 49 48  1  0
 52 51  1  0
 52 61  1  0
 53 61  1  0
 54 59  1  0
 55 56  1  0
 55 54  1  0
 57 56  1  0
 57 66  1  0
 57 58  1  0
 59 53  1  0
 59 58  1  0
 60 53  2  0
 61 62  1  0
 63 64  2  0
 64 83  1  0
 65 64  1  0
 65 68  1  0
 66 63  1  0
 66 67  1  0
 67 65  2  0
 68 69  1  0
 69 70  2  0
 71 74  1  0
 71 70  1  0
 72 71  2  0
 73 72  1  0
 73 68  2  0
 74 75  1  0
 75 76  1  0
 76 77  2  0
 78 77  1  0
 78 82  1  0
 79 78  2  0
 80 75  2  0
 80 79  1  0
 81 80  1  0
 83 84  1  0
 84 87  1  0
 84 86  1  0
 85 83  2  0
 88 89  1  0
 88 63  1  0
 90 88  1  0
M  ISO  4   9 101  10 101  53 100  61 100
M  END
>  <TORSDO>  (97) 
F 19

>  <SCORE>  (97) 
-14.240

>  <name>  (97) 
96

>  <ligand_id>  (97) 
96

>  <original_smiles>  (97) 
[H]C1=C(C([H])(N([H])C(=O)N2C([H])([H])C([H])([H])C([H])([H])C([H])(n3nc(-c4c([H])c([H])c(Oc5c([H])c([H])c(F)c([H])c5F)c([H])c4[H])c(C(=O)N([H])[H])c3N([H])[H])C2([H])[H])C([H])([H])[H])C(=O)C1([H])C1([H])C([H])([H])C1([H])C([H])([H])Oc1c([H])c([H])c2c(c1[H])C([H])([H])N(C(=O)C([H])(N([H])C(=O)C([H])(N([H])C([H])([H])[H])C([H])([H])[H])C(C([H])([H])[H])(C([H])([H])[H])C([H])([H])[H])C([H])(C(=O)N([H])C1([H])c3c([H])c([H])c([H])c([H])c3C([H])([H])C([H])([H])C1([H])[H])C2([H])[H]

>  <smiles>  (97) 
[H]C1=C(C([H])(N([H])C(=O)N2C([H])([H])C([H])([H])C([H])([H])C([H])(n3nc(-c4c([H])c([H])c(Oc5c([H])c([H])c(F)c([H])c5F)c([H])c4[H])c(C(=O)N([H])[H])c3N([H])[H])C2([H])[H])C([H])([H])[H])C(=O)C1([H])C1([H])C([H])([H])C1([H])C([H])([H])Oc1c([H])c([H])c2c(c1[H])C([H])([H])N(C(=O)C([H])(N([H])C(=O)C([H])(N([H])C([H])([H])[H])C([H])([H])[H])C(C([H])([H])[H])(C([H])([H])[H])C([H])([H])[H])C([H])(C(=O)N([H])C1([H])c3c([H])c([H])c([H])c([H])c3C([H])([H])C([H])([H])C1([H])[H])C2([H])[H]

$$$$
97:0:0
     RDKit          3D

 88 96  0  0  1  0  0  0  0  0999 V2000
  -29.8900  -22.7110   19.6540 C   0  0  0  0  0  0  0  0  0  0  0  0
  -28.5130  -23.2410   20.0140 C   0  0  0  0  0  3  0  0  0  0  0  0
  -29.1920  -21.9000   20.7190 C   0  0  0  0  0  3  0  0  0  0  0  0
  -30.8820  -22.8190   18.9380 O   0  0  0  0  0  0  0  0  0  0  0  0
  -27.5210  -19.9380   20.1630 C   0  0  0  0  0  1  0  0  0  0  0  0
  -28.9610  -20.2430   20.6070 C   0  0  0  0  0  3  0  0  0  0  0  0
  -29.8630  -19.0480   18.4430 C   0  0  0  0  0  1  0  0  0  0  0  0
  -30.0030  -19.1000   19.9690 C   0  0  0  0  0  3  0  0  0  0  0  0
  -29.9450  -16.2720   20.0620 C   0  0  0  0  0  2  0  0  0  0  0  0
  -30.3130  -17.5660   20.5020 C   0  0  0  0  0  2  0  0  0  0  0  0
  -30.6960  -14.9350   20.2810 C   0  0  0  0  0  0  0  0  0  0  0  0
  -30.5230  -12.6040   19.3210 C   0  0  0  0  0  2  0  0  0  0  0  0
  -29.5770  -12.5710   18.0970 C   0  0  0  0  0  2  0  0  0  0  0  0
  -28.1060  -12.4000   18.5230 C   0  0  0  0  0  2  0  0  0  0  0  0
  -27.7170  -13.3090   19.7150 C   0  0  0  0  0  3  0  0  0  0  0  0
  -28.7810  -13.3060   20.8310 C   0  0  0  0  0  2  0  0  0  0  0  0
  -30.0560  -13.6980   20.2160 N   0  0  0  0  0  0  0  0  0  0  0  0
  -31.9240  -14.9110   20.1580 O   0  0  0  0  0  0  0  0  0  0  0  0
  -25.3260  -13.8780   20.4250 C   0  0  0  0  0  0  0  0  0  0  0  0
  -24.2620  -13.1020   20.7890 C   0  0  0  0  0  0  0  0  0  0  0  0
  -24.7380  -11.7530   20.7900 C   0  0  0  0  0  0  0  0  0  0  0  0
  -26.3800  -13.0070   20.2130 N   0  0  0  0  0  0  0  0  0  0  0  0
  -26.0340  -11.7240   20.4980 N   0  0  0  0  0  0  0  0  0  0  0  0
  -24.0170  -10.4850   20.9850 C   0  0  0  0  0  0  0  0  0  0  0  0
  -24.4420   -9.5280   21.9340 C   0  0  0  0  0  3  0  0  0  0  0  0
  -23.7140   -8.3320   22.1200 C   0  0  0  0  0  3  0  0  0  0  0  0
  -22.5480   -8.0830   21.3570 C   0  0  0  0  0  0  0  0  0  0  0  0
  -22.1440   -9.0270   20.3970 C   0  0  0  0  0  3  0  0  0  0  0  0
  -22.8730  -10.2140   20.2070 C   0  0  0  0  0  3  0  0  0  0  0  0
  -21.7930   -6.9390   21.4510 O   0  0  0  0  0  0  0  0  0  0  0  0
  -21.7330   -6.2100   22.6130 C   0  0  0  0  0  0  0  0  0  0  0  0
  -21.2960   -6.7800   23.8280 C   0  0  0  0  0  3  0  0  0  0  0  0
  -21.1840   -5.9780   24.9800 C   0  0  0  0  0  3  0  0  0  0  0  0
  -21.5030   -4.6070   24.9180 C   0  0  0  0  0  0  0  0  0  0  0  0
  -21.9370   -4.0390   23.7080 C   0  0  0  0  0  3  0  0  0  0  0  0
  -22.0480   -4.8380   22.5560 C   0  0  0  0  0  0  0  0  0  0  0  0
  -22.4430   -4.2810   21.3860 F   0  0  0  0  0  0  0  0  0  0  0  0
  -21.3910   -3.8320   26.0230 F   0  0  0  0  0  0  0  0  0  0  0  0
  -22.8560  -13.5700   21.0310 C   0  0  0  0  0  0  0  0  0  0  0  0
  -22.1230  -12.8800   21.8980 N   0  0  0  0  0  0  0  0  0  0  0  0
  -22.4180  -14.5850   20.4910 O   0  0  0  0  0  0  0  0  0  0  0  0
  -22.4900  -12.0550   22.3490 H   0  0  0  0  0  0  0  0  0  0  0  0
  -21.1830  -13.1790   22.1120 H   0  0  0  0  0  0  0  0  0  0  0  0
  -25.4840  -15.2480   20.2230 N   0  0  0  0  0  0  0  0  0  0  0  0
  -24.7180  -15.9070   20.3020 H   0  0  0  0  0  0  0  0  0  0  0  0
  -26.3420  -15.6850   19.9120 H   0  0  0  0  0  0  0  0  0  0  0  0
  -28.2210  -24.7460   20.6920 C   0  0  0  0  0  2  0  0  0  0  0  0
  -28.3210  -26.2050   20.1630 O   0  0  0  0  0  0  0  0  0  0  0  0
  -24.6290  -31.8390   23.2170 C   0  0  0  0  0  0  0  0  0  0  0  0
  -27.2330  -27.1460   20.1950 C   0  0  0  0  0  0  0  0  0  0  0  0
  -23.4370  -30.4390   21.5730 C   0  0  0  0  0  3  0  0  0  0  0  0
  -24.8880  -28.8580   20.1600 C   0  0  0  0  0  0  0  0  0  0  0  0
  -25.9880  -30.7150   21.4100 C   0  0  0  0  0  2  0  0  0  0  0  0
  -26.0650  -29.3220   20.7650 C   0  0  0  0  0  0  0  0  0  0  0  0
  -27.2430  -28.4860   20.7570 C   0  0  0  0  0  3  0  0  0  0  0  0
  -26.0300  -26.7740   19.5630 C   0  0  0  0  0  3  0  0  0  0  0  0
  -24.8830  -27.5960   19.5440 C   0  0  0  0  0  3  0  0  0  0  0  0
  -23.6580  -29.7510   20.2010 C   0  0  0  0  0  2  0  0  0  0  0  0
  -24.7040  -31.0210   22.1230 N   0  0  0  0  0  0  0  0  0  0  0  0
  -23.5420  -32.1210   23.7440 O   0  0  0  0  0  0  0  0  0  0  0  0
  -22.7540  -29.4380   22.5380 C   0  0  0  0  0  0  0  0  0  0  0  0
  -21.4230  -29.2770   22.4150 N   0  0  0  0  0  0  0  0  0  0  0  0
  -23.4250  -28.8040   23.3570 O   0  0  0  0  0  0  0  0  0  0  0  0
  -20.9390  -29.8350   21.7260 H   0  0  0  0  0  0  0  0  0  0  0  0
  -18.0370  -28.1050   22.9380 C   0  0  0  0  0  0  0  0  0  0  0  0
  -20.5990  -28.3450   23.1900 C   0  0  0  0  0  3  0  0  0  0  0  0
  -20.6830  -26.9120   22.6120 C   0  0  0  0  0  2  0  0  0  0  0  0
  -19.5760  -26.6070   21.5990 C   0  0  0  0  0  2  0  0  0  0  0  0
  -18.1980  -26.7610   22.2490 C   0  0  0  0  0  2  0  0  0  0  0  0
  -19.1640  -28.8560   23.3650 C   0  0  0  0  0  0  0  0  0  0  0  0
  -18.9600  -30.1140   23.9690 C   0  0  0  0  0  3  0  0  0  0  0  0
  -17.6610  -30.6230   24.1500 C   0  0  0  0  0  3  0  0  0  0  0  0
  -16.5480  -29.8700   23.7370 C   0  0  0  0  0  3  0  0  0  0  0  0
  -16.7360  -28.6130   23.1380 C   0  0  0  0  0  3  0  0  0  0  0  0
  -25.9050  -32.4790   23.8460 C   0  0  0  0  0  3  0  0  0  0  0  0
  -26.4050  -31.7200   25.1370 C   0  0  1  0  0  0  0  0  0  0  0  0
  -25.3000  -31.4990   26.1960 C   0  0  0  0  0  1  0  0  0  0  0  0
  -26.9850  -30.3360   24.7680 C   0  0  0  0  0  1  0  0  0  0  0  0
  -27.5540  -32.5110   25.8060 C   0  0  0  0  0  1  0  0  0  0  0  0
  -25.5920  -33.8790   24.1670 N   0  0  0  0  0  0  0  0  0  0  0  0
  -25.9280  -34.9350   23.4150 C   0  0  0  0  0  0  0  0  0  0  0  0
  -26.6050  -34.8340   22.3880 O   0  0  0  0  0  0  0  0  0  0  0  0
  -24.9940  -34.0310   24.9670 H   0  0  0  0  0  0  0  0  0  0  0  0
  -24.2020  -36.7260   23.0510 C   0  0  0  0  0  1  0  0  0  0  0  0
  -25.4370  -36.3230   23.8720 C   0  0  0  0  0  3  0  0  0  0  0  0
  -27.5650  -37.2020   24.7230 C   0  0  0  0  0  1  0  0  0  0  0  0
  -26.4710  -37.3770   23.7720 N   0  0  0  0  0  0  0  0  0  0  0  0
  -26.0630  -38.2950   23.9260 H   0  0  0  0  0  0  0  0  0  0  0  0
  1  2  1  0
  1  3  1  0
  2 47  1  0
  2  3  1  0
  3  6  1  0
  4  1  2  0
  6  5  1  0
  8  7  1  0
  8 10  1  0
  8  6  1  0
  9 11  1  0
  9 10  1  0
 12 17  1  0
 13 14  1  0
 13 12  1  0
 15 14  1  0
 15 22  1  0
 15 16  1  0
 17 11  1  0
 17 16  1  0
 18 11  2  0
 19 20  2  0
 20 21  1  0
 20 39  1  0
 21 24  1  0
 22 19  1  0
 22 23  1  0
 23 21  2  0
 24 25  1  0
 25 26  2  0
 27 30  1  0
 27 26  1  0
 28 27  2  0
 29 28  1  0
 29 24  2  0
 30 31  1  0
 31 32  1  0
 32 33  2  0
 34 33  1  0
 34 38  1  0
 35 34  2  0
 36 31  2  0
 36 35  1  0
 37 36  1  0
 39 40  1  0
 40 43  1  0
 40 42  1  0
 41 39  2  0
 44 45  1  0
 44 19  1  0
 46 44  1  0
 48 50  1  0
 48 47  1  0
 49 60  2  0
 50 55  1  0
 51 59  1  0
 51 61  1  0
 52 58  1  0
 52 54  1  0
 53 59  1  0
 54 53  1  0
 55 54  2  0
 56 50  2  0
 57 56  1  0
 57 52  2  0
 58 51  1  0
 59 49  1  0
 61 63  2  0
 62 61  1  0
 64 62  1  0
 65 74  2  0
 65 70  1  0
 66 62  1  0
 66 70  1  0
 67 66  1  0
 68 69  1  0
 68 67  1  0
 69 65  1  0
 70 71  2  0
 71 72  1  0
 73 72  2  0
 74 73  1  0
 75 49  1  0
 75 80  1  0
 75 76  1  0
 76 79  1  1
 76 77  1  0
 78 76  1  0
 80 83  1  0
 81 85  1  0
 81 80  1  0
 82 81  2  0
 85 84  1  0
 87 85  1  0
 87 88  1  0
 87 86  1  0
M  ISO  4   9 100  11 100  47 101  48 101
M  END
>  <TORSDO>  (98) 
F 20

>  <SCORE>  (98) 
-13.458

>  <name>  (98) 
97

>  <ligand_id>  (98) 
97

>  <original_smiles>  (98) 
[H]C(C(=O)N1C([H])([H])C([H])([H])C([H])([H])C([H])(n2nc(-c3c([H])c([H])c(Oc4c([H])c([H])c(F)c([H])c4F)c([H])c3[H])c(C(=O)N([H])[H])c2N([H])[H])C1([H])[H])=C([H])C([H])(C([H])([H])[H])C([H])(C([H])([H])[H])C1([H])C(=O)C1([H])C([H])([H])Oc1c([H])c([H])c2c(c1[H])C([H])([H])N(C(=O)C([H])(N([H])C(=O)C([H])(N([H])C([H])([H])[H])C([H])([H])[H])C(C([H])([H])[H])(C([H])([H])[H])C([H])([H])[H])C([H])(C(=O)N([H])C1([H])c3c([H])c([H])c([H])c([H])c3C([H])([H])C([H])([H])C1([H])[H])C2([H])[H]

>  <smiles>  (98) 
[H]C(C(=O)N1C([H])([H])C([H])([H])C([H])([H])C([H])(n2nc(-c3c([H])c([H])c(Oc4c([H])c([H])c(F)c([H])c4F)c([H])c3[H])c(C(=O)N([H])[H])c2N([H])[H])C1([H])[H])=C([H])C([H])(C([H])([H])[H])C([H])(C([H])([H])[H])C1([H])C(=O)C1([H])C([H])([H])Oc1c([H])c([H])c2c(c1[H])C([H])([H])N(C(=O)C([H])(N([H])C(=O)C([H])(N([H])C([H])([H])[H])C([H])([H])[H])C(C([H])([H])[H])(C([H])([H])[H])C([H])([H])[H])C([H])(C(=O)N([H])C1([H])c3c([H])c([H])c([H])c([H])c3C([H])([H])C([H])([H])C1([H])[H])C2([H])[H]

$$$$
98:0:0
     RDKit          3D

 87 95  0  0  1  0  0  0  0  0999 V2000
  -28.9410  -22.4530   19.7420 C   0  0  0  0  0  2  0  0  0  0  0  0
  -29.1100  -21.0450   20.5050 C   0  0  0  0  0  2  0  0  0  0  0  0
  -30.5490  -19.2290   19.1730 C   0  0  0  0  0  2  0  0  0  0  0  0
  -29.2150  -19.7840   19.5590 C   0  0  0  0  0  3  0  0  0  0  0  0
  -29.5420  -18.2230   19.7090 C   0  0  0  0  0  3  0  0  0  0  0  0
  -30.1050  -17.2410   20.8080 C   0  0  0  0  0  2  0  0  0  0  0  0
  -30.5890  -14.6780   20.4190 C   0  0  0  0  0  0  0  0  0  0  0  0
  -30.3860  -12.4270   19.3640 C   0  0  0  0  0  2  0  0  0  0  0  0
  -29.4410  -12.5360   18.1470 C   0  0  0  0  0  2  0  0  0  0  0  0
  -27.9670  -12.3830   18.5720 C   0  0  0  0  0  2  0  0  0  0  0  0
  -27.6060  -13.2480   19.8100 C   0  0  0  0  0  3  0  0  0  0  0  0
  -28.6660  -13.1060   20.9240 C   0  0  0  0  0  2  0  0  0  0  0  0
  -29.9680  -13.4550   20.3380 N   0  0  0  0  0  0  0  0  0  0  0  0
  -31.7620  -14.8200   20.0680 O   0  0  0  0  0  0  0  0  0  0  0  0
  -29.7960  -15.7590   20.7180 N   0  0  0  0  0  0  0  0  0  0  0  0
  -28.8430  -15.5120   20.9480 H   0  0  0  0  0  0  0  0  0  0  0  0
  -25.2120  -13.8390   20.5250 C   0  0  0  0  0  0  0  0  0  0  0  0
  -24.1480  -13.0640   20.8990 C   0  0  0  0  0  0  0  0  0  0  0  0
  -24.6140  -11.7140   20.8730 C   0  0  0  0  0  0  0  0  0  0  0  0
  -26.2590  -12.9610   20.2960 N   0  0  0  0  0  0  0  0  0  0  0  0
  -25.9050  -11.6780   20.5680 N   0  0  0  0  0  0  0  0  0  0  0  0
  -23.8910  -10.4490   21.0660 C   0  0  0  0  0  0  0  0  0  0  0  0
  -24.3350   -9.4800   21.9930 C   0  0  0  0  0  3  0  0  0  0  0  0
  -23.6120   -8.2800   22.1740 C   0  0  0  0  0  3  0  0  0  0  0  0
  -22.4330   -8.0420   21.4290 C   0  0  0  0  0  0  0  0  0  0  0  0
  -22.0090   -9.0000   20.4930 C   0  0  0  0  0  3  0  0  0  0  0  0
  -22.7320  -10.1920   20.3090 C   0  0  0  0  0  3  0  0  0  0  0  0
  -21.6820   -6.8960   21.5230 O   0  0  0  0  0  0  0  0  0  0  0  0
  -21.6570   -6.1420   22.6680 C   0  0  0  0  0  0  0  0  0  0  0  0
  -21.2610   -6.6860   23.9100 C   0  0  0  0  0  3  0  0  0  0  0  0
  -21.1830   -5.8580   25.0490 C   0  0  0  0  0  3  0  0  0  0  0  0
  -21.4880   -4.4880   24.9460 C   0  0  0  0  0  0  0  0  0  0  0  0
  -21.8760   -3.9440   23.7090 C   0  0  0  0  0  3  0  0  0  0  0  0
  -21.9560   -4.7690   22.5720 C   0  0  0  0  0  0  0  0  0  0  0  0
  -22.3100   -4.2340   21.3790 F   0  0  0  0  0  0  0  0  0  0  0  0
  -21.4040   -3.6910   26.0360 F   0  0  0  0  0  0  0  0  0  0  0  0
  -22.7480  -13.5360   21.1650 C   0  0  0  0  0  0  0  0  0  0  0  0
  -22.0200  -12.8420   22.0330 N   0  0  0  0  0  0  0  0  0  0  0  0
  -22.3070  -14.5590   20.6390 O   0  0  0  0  0  0  0  0  0  0  0  0
  -22.3870  -12.0160   22.4820 H   0  0  0  0  0  0  0  0  0  0  0  0
  -21.0800  -13.1410   22.2530 H   0  0  0  0  0  0  0  0  0  0  0  0
  -25.3720  -15.2100   20.3400 N   0  0  0  0  0  0  0  0  0  0  0  0
  -24.6000  -15.8600   20.4390 H   0  0  0  0  0  0  0  0  0  0  0  0
  -26.2120  -15.6450   19.9820 H   0  0  0  0  0  0  0  0  0  0  0  0
  -28.6230  -23.8290   20.5090 C   0  0  0  0  0  3  0  0  0  0  0  0
  -28.4890  -25.1550   19.6150 C   0  0  0  0  0  3  0  0  0  0  0  0
  -28.3680  -26.5050   20.2290 O   0  0  0  0  0  0  0  0  0  0  0  0
  -24.6090  -31.8720   23.2350 C   0  0  0  0  0  0  0  0  0  0  0  0
  -27.2160  -27.3100   20.1650 C   0  0  0  0  0  0  0  0  0  0  0  0
  -23.3970  -30.4730   21.6000 C   0  0  0  0  0  3  0  0  0  0  0  0
  -24.8420  -28.9210   20.1670 C   0  0  0  0  0  0  0  0  0  0  0  0
  -25.9340  -30.7940   21.4040 C   0  0  0  0  0  2  0  0  0  0  0  0
  -26.0110  -29.4140   20.7560 C   0  0  0  0  0  0  0  0  0  0  0  0
  -27.1950  -28.6190   20.7480 C   0  0  0  0  0  3  0  0  0  0  0  0
  -26.0130  -26.8650   19.5670 C   0  0  0  0  0  3  0  0  0  0  0  0
  -24.8460  -27.6530   19.5640 C   0  0  0  0  0  3  0  0  0  0  0  0
  -23.6040  -29.7960   20.2190 C   0  0  0  0  0  2  0  0  0  0  0  0
  -24.6660  -31.0640   22.1360 N   0  0  0  0  0  0  0  0  0  0  0  0
  -23.5280  -32.1500   23.7750 O   0  0  0  0  0  0  0  0  0  0  0  0
  -22.7400  -29.4570   22.5640 C   0  0  0  0  0  0  0  0  0  0  0  0
  -21.4130  -29.2780   22.4420 N   0  0  0  0  0  0  0  0  0  0  0  0
  -23.4220  -28.8330   23.3810 O   0  0  0  0  0  0  0  0  0  0  0  0
  -20.9230  -29.8330   21.7550 H   0  0  0  0  0  0  0  0  0  0  0  0
  -18.0390  -28.0720   22.9440 C   0  0  0  0  0  0  0  0  0  0  0  0
  -20.5960  -28.3410   23.2160 C   0  0  0  0  0  3  0  0  0  0  0  0
  -20.7040  -26.9080   22.6460 C   0  0  0  0  0  2  0  0  0  0  0  0
  -19.6040  -26.5780   21.6330 C   0  0  0  0  0  2  0  0  0  0  0  0
  -18.2210  -26.7210   22.2750 C   0  0  0  0  0  2  0  0  0  0  0  0
  -19.1560  -28.8400   23.3710 C   0  0  0  0  0  0  0  0  0  0  0  0
  -18.9320  -30.1050   23.9570 C   0  0  0  0  0  3  0  0  0  0  0  0
  -17.6250  -30.6030   24.1200 C   0  0  0  0  0  3  0  0  0  0  0  0
  -16.5240  -29.8320   23.7090 C   0  0  0  0  0  3  0  0  0  0  0  0
  -16.7320  -28.5690   23.1260 C   0  0  0  0  0  3  0  0  0  0  0  0
  -25.8950  -32.5040   23.8510 C   0  0  0  0  0  3  0  0  0  0  0  0
  -25.5860  -33.9020   24.1850 N   0  0  0  0  0  0  0  0  0  0  0  0
  -25.9130  -34.9570   23.4270 C   0  0  0  0  0  0  0  0  0  0  0  0
  -26.5770  -34.8560   22.3910 O   0  0  0  0  0  0  0  0  0  0  0  0
  -24.9980  -34.0540   24.9920 H   0  0  0  0  0  0  0  0  0  0  0  0
  -24.1830  -36.7500   23.0890 C   0  0  0  0  0  1  0  0  0  0  0  0
  -25.4290  -36.3440   23.8910 C   0  0  0  0  0  3  0  0  0  0  0  0
  -27.5680  -37.2270   24.7090 C   0  0  0  0  0  1  0  0  0  0  0  0
  -26.4600  -37.3990   23.7740 N   0  0  0  0  0  0  0  0  0  0  0  0
  -26.0540  -38.3180   23.9260 H   0  0  0  0  0  0  0  0  0  0  0  0
  -26.4160  -31.7320   25.1250 C   0  0  1  0  0  0  0  0  0  0  0  0
  -25.3290  -31.4970   26.1990 C   0  0  0  0  0  1  0  0  0  0  0  0
  -26.9950  -30.3530   24.7310 C   0  0  0  0  0  1  0  0  0  0  0  0
  -27.5710  -32.5250   25.7830 C   0  0  0  0  0  1  0  0  0  0  0  0
  1  2  1  0
  1 45  1  0
  3  4  1  0
  3  5  1  0
  4  5  1  0
  4  2  1  0
  5  6  1  0
  7 15  1  0
  8 13  1  0
  9 10  1  0
  9  8  1  0
 11 10  1  0
 11 20  1  0
 11 12  1  0
 13  7  1  0
 13 12  1  0
 14  7  2  0
 15  6  1  0
 15 16  1  0
 17 18  2  0
 18 37  1  0
 19 18  1  0
 19 22  1  0
 20 17  1  0
 20 21  1  0
 21 19  2  0
 22 23  1  0
 23 24  2  0
 25 28  1  0
 25 24  1  0
 26 25  2  0
 27 26  1  0
 27 22  2  0
 28 29  1  0
 29 30  1  0
 30 31  2  0
 32 31  1  0
 32 36  1  0
 33 32  2  0
 34 29  2  0
 34 33  1  0
 35 34  1  0
 37 38  1  0
 38 41  1  0
 38 40  1  0
 39 37  2  0
 42 43  1  0
 42 17  1  0
 44 42  1  0
 46 47  1  0
 46 45  2  0
 48 59  2  0
 49 47  1  0
 49 54  1  0
 50 58  1  0
 50 60  1  0
 51 57  1  0
 51 53  1  0
 52 58  1  0
 53 52  1  0
 54 53  2  0
 55 49  2  0
 56 55  1  0
 56 51  2  0
 57 50  1  0
 58 48  1  0
 60 62  2  0
 61 60  1  0
 63 61  1  0
 64 73  2  0
 64 69  1  0
 65 61  1  0
 65 69  1  0
 66 65  1  0
 67 68  1  0
 67 66  1  0
 68 64  1  0
 69 70  2  0
 70 71  1  0
 72 71  2  0
 73 72  1  0
 74 48  1  0
 74 75  1  0
 74 84  1  0
 75 78  1  0
 76 80  1  0
 76 75  1  0
 77 76  2  0
 80 79  1  0
 82 80  1  0
 82 83  1  0
 82 81  1  0
 84 87  1  1
 84 85  1  0
 86 84  1  0
M  ISO  4   7 100  15 100  46 101  47 101
M  END
>  <TORSDO>  (99) 
F 21

>  <SCORE>  (99) 
-13.263

>  <name>  (99) 
98

>  <ligand_id>  (99) 
98

>  <original_smiles>  (99) 
[H]c1c([H])c([H])c2c(c1[H])C([H])([H])C([H])([H])C([H])([H])C2([H])N([H])C(=O)C1([H])N(C(=O)C([H])(N([H])C(=O)C([H])(N([H])C([H])([H])[H])C([H])([H])[H])C(C([H])([H])[H])(C([H])([H])[H])C([H])([H])[H])C([H])([H])c2c([H])c(OC([H])([H])C([H])([H])C([H])([H])C([H])([H])C3([H])C([H])([H])C3([H])C([H])([H])N([H])C(=O)N3C([H])([H])C([H])([H])C([H])([H])C([H])(n4nc(-c5c([H])c([H])c(Oc6c([H])c([H])c(F)c([H])c6F)c([H])c5[H])c(C(=O)N([H])[H])c4N([H])[H])C3([H])[H])c([H])c([H])c2C1([H])[H]

>  <smiles>  (99) 
[H]c1c([H])c([H])c2c(c1[H])C([H])([H])C([H])([H])C([H])([H])C2([H])N([H])C(=O)C1([H])N(C(=O)C([H])(N([H])C(=O)C([H])(N([H])C([H])([H])[H])C([H])([H])[H])C(C([H])([H])[H])(C([H])([H])[H])C([H])([H])[H])C([H])([H])c2c([H])c(OC([H])([H])C([H])([H])C([H])([H])C([H])([H])C3([H])C([H])([H])C3([H])C([H])([H])N([H])C(=O)N3C([H])([H])C([H])([H])C([H])([H])C([H])(n4nc(-c5c([H])c([H])c(Oc6c([H])c([H])c(F)c([H])c6F)c([H])c5[H])c(C(=O)N([H])[H])c4N([H])[H])C3([H])[H])c([H])c([H])c2C1([H])[H]

$$$$
99:0:0
     RDKit          3D

 91 99  0  0  1  0  0  0  0  0999 V2000
  -29.7780  -22.1460   22.0400 C   0  0  0  0  0  2  0  0  0  0  0  0
  -29.2700  -23.6070   21.8960 C   0  0  0  0  0  2  0  0  0  0  0  0
  -29.1090  -21.3530   20.9170 C   0  0  0  0  0  3  0  0  0  0  0  0
  -28.4260  -23.7350   20.5820 C   0  0  0  0  0  3  0  0  0  0  0  0
  -28.7300  -22.4070   19.8900 N   0  0  0  0  0  4  0  0  0  0  0  0
  -28.0340  -22.1040   19.2280 H   0  0  0  0  0  0  0  0  0  0  0  0
  -29.5810  -22.5830   19.3730 H   0  0  0  0  0  0  0  0  0  0  0  0
  -29.9410  -20.0480   20.4620 C   0  0  0  0  0  0  0  0  0  0  0  0
  -30.9400  -20.1530   19.7460 O   0  0  0  0  0  0  0  0  0  0  0  0
  -29.5690  -18.5900   21.0300 C   0  0  0  0  0  3  0  0  0  0  0  0
  -30.3860  -17.3020   20.4870 C   0  0  0  0  0  3  0  0  0  0  0  0
  -30.6020  -14.7350   20.3490 C   0  0  0  0  0  0  0  0  0  0  0  0
  -30.3550  -12.4640   19.3510 C   0  0  0  0  0  2  0  0  0  0  0  0
  -29.4700  -12.6480   18.0980 C   0  0  0  0  0  2  0  0  0  0  0  0
  -28.0060  -12.4150   18.5300 C   0  0  0  0  0  2  0  0  0  0  0  0
  -27.6000  -13.3180   19.7370 C   0  0  0  0  0  3  0  0  0  0  0  0
  -28.6390  -13.2140   20.8730 C   0  0  0  0  0  2  0  0  0  0  0  0
  -29.9550  -13.5210   20.3050 N   0  0  0  0  0  0  0  0  0  0  0  0
  -31.7480  -14.8310   19.8940 O   0  0  0  0  0  0  0  0  0  0  0  0
  -29.9100  -15.8690   20.7270 N   0  0  0  0  0  0  0  0  0  0  0  0
  -28.9750  -15.7310   21.0840 H   0  0  0  0  0  0  0  0  0  0  0  0
  -25.2110  -13.9280   20.4820 C   0  0  0  0  0  0  0  0  0  0  0  0
  -24.1410  -13.1380   20.8280 C   0  0  0  0  0  0  0  0  0  0  0  0
  -24.6020  -11.7930   20.7720 C   0  0  0  0  0  0  0  0  0  0  0  0
  -26.2520  -13.0410   20.2210 N   0  0  0  0  0  0  0  0  0  0  0  0
  -25.8930  -11.7560   20.4720 N   0  0  0  0  0  0  0  0  0  0  0  0
  -23.8710  -10.5350   20.9760 C   0  0  0  0  0  0  0  0  0  0  0  0
  -24.3120   -9.5830   21.9190 C   0  0  0  0  0  3  0  0  0  0  0  0
  -23.5870   -8.3900   22.1290 C   0  0  0  0  0  3  0  0  0  0  0  0
  -22.4060   -8.1400   21.3900 C   0  0  0  0  0  0  0  0  0  0  0  0
  -21.9780   -9.0910   20.4360 C   0  0  0  0  0  3  0  0  0  0  0  0
  -22.7040  -10.2760   20.2280 C   0  0  0  0  0  3  0  0  0  0  0  0
  -21.6620   -6.9920   21.4930 O   0  0  0  0  0  0  0  0  0  0  0  0
  -21.6340   -6.2460   22.6460 C   0  0  0  0  0  0  0  0  0  0  0  0
  -21.2350   -6.8010   23.8820 C   0  0  0  0  0  3  0  0  0  0  0  0
  -21.1050   -5.9750   25.0170 C   0  0  0  0  0  3  0  0  0  0  0  0
  -21.4000   -4.6040   24.9220 C   0  0  0  0  0  0  0  0  0  0  0  0
  -21.8140   -4.0500   23.6990 C   0  0  0  0  0  3  0  0  0  0  0  0
  -21.9190   -4.8680   22.5600 C   0  0  0  0  0  0  0  0  0  0  0  0
  -22.2800   -4.3200   21.3760 F   0  0  0  0  0  0  0  0  0  0  0  0
  -21.2920   -3.8150   26.0180 F   0  0  0  0  0  0  0  0  0  0  0  0
  -22.7550  -13.6180   21.1220 C   0  0  0  0  0  0  0  0  0  0  0  0
  -22.0440  -12.9080   21.9990 N   0  0  0  0  0  0  0  0  0  0  0  0
  -22.3040  -14.6460   20.6240 O   0  0  0  0  0  0  0  0  0  0  0  0
  -22.4360  -12.0890   22.4340 H   0  0  0  0  0  0  0  0  0  0  0  0
  -21.1120  -13.2060   22.2550 H   0  0  0  0  0  0  0  0  0  0  0  0
  -25.3450  -15.3100   20.3930 N   0  0  0  0  0  0  0  0  0  0  0  0
  -24.5800  -15.8620   20.7810 H   0  0  0  0  0  0  0  0  0  0  0  0
  -26.2050  -15.8490   20.3750 H   0  0  0  0  0  0  0  0  0  0  0  0
  -28.5490  -25.0990   19.6790 C   0  0  0  0  0  2  0  0  0  0  0  0
  -28.4000  -26.4890   20.2400 O   0  0  0  0  0  0  0  0  0  0  0  0
  -24.6360  -31.9070   23.2410 C   0  0  0  0  0  0  0  0  0  0  0  0
  -27.2460  -27.3080   20.1650 C   0  0  0  0  0  0  0  0  0  0  0  0
  -23.4320  -30.5030   21.6130 C   0  0  0  0  0  3  0  0  0  0  0  0
  -24.8790  -28.9600   20.1670 C   0  0  0  0  0  0  0  0  0  0  0  0
  -25.9730  -30.8180   21.4190 C   0  0  0  0  0  2  0  0  0  0  0  0
  -26.0520  -29.4370   20.7640 C   0  0  0  0  0  0  0  0  0  0  0  0
  -27.2300  -28.6230   20.7500 C   0  0  0  0  0  3  0  0  0  0  0  0
  -26.0430  -26.8910   19.5440 C   0  0  0  0  0  3  0  0  0  0  0  0
  -24.8830  -27.6990   19.5470 C   0  0  0  0  0  3  0  0  0  0  0  0
  -23.6410  -29.8390   20.2310 C   0  0  0  0  0  2  0  0  0  0  0  0
  -24.7010  -31.0970   22.1460 N   0  0  0  0  0  0  0  0  0  0  0  0
  -23.5540  -32.1840   23.7780 O   0  0  0  0  0  0  0  0  0  0  0  0
  -22.7760  -29.4810   22.5710 C   0  0  0  0  0  0  0  0  0  0  0  0
  -21.4520  -29.2980   22.4380 N   0  0  0  0  0  0  0  0  0  0  0  0
  -23.4560  -28.8610   23.3930 O   0  0  0  0  0  0  0  0  0  0  0  0
  -20.9680  -29.8430   21.7370 H   0  0  0  0  0  0  0  0  0  0  0  0
  -18.0720  -28.1050   22.9280 C   0  0  0  0  0  0  0  0  0  0  0  0
  -20.6300  -28.3630   23.2060 C   0  0  0  0  0  3  0  0  0  0  0  0
  -20.7320  -26.9330   22.6240 C   0  0  0  0  0  2  0  0  0  0  0  0
  -19.6310  -26.6130   21.6090 C   0  0  0  0  0  2  0  0  0  0  0  0
  -18.2500  -26.7560   22.2530 C   0  0  0  0  0  2  0  0  0  0  0  0
  -19.1890  -28.8690   23.3610 C   0  0  0  0  0  0  0  0  0  0  0  0
  -18.9660  -30.1330   23.9510 C   0  0  0  0  0  3  0  0  0  0  0  0
  -17.6610  -30.6290   24.1190 C   0  0  0  0  0  3  0  0  0  0  0  0
  -16.5590  -29.8620   23.7030 C   0  0  0  0  0  3  0  0  0  0  0  0
  -16.7640  -28.6020   23.1110 C   0  0  0  0  0  3  0  0  0  0  0  0
  -25.9160  -32.5430   23.8590 C   0  0  0  0  0  3  0  0  0  0  0  0
  -26.4300  -31.7730   25.1370 C   0  0  1  0  0  0  0  0  0  0  0  0
  -25.3330  -31.5210   26.2000 C   0  0  0  0  0  1  0  0  0  0  0  0
  -27.0080  -30.3940   24.7430 C   0  0  0  0  0  1  0  0  0  0  0  0
  -27.5910  -32.5630   25.7880 C   0  0  0  0  0  1  0  0  0  0  0  0
  -25.6070  -33.9410   24.1860 N   0  0  0  0  0  0  0  0  0  0  0  0
  -25.9440  -34.9940   23.4260 C   0  0  0  0  0  0  0  0  0  0  0  0
  -26.6160  -34.8870   22.3980 O   0  0  0  0  0  0  0  0  0  0  0  0
  -25.0050  -34.0980   24.9830 H   0  0  0  0  0  0  0  0  0  0  0  0
  -24.2170  -36.7860   23.0580 C   0  0  0  0  0  1  0  0  0  0  0  0
  -25.4540  -36.3850   23.8780 C   0  0  0  0  0  3  0  0  0  0  0  0
  -27.5880  -37.2620   24.7220 C   0  0  0  0  0  1  0  0  0  0  0  0
  -26.4920  -37.4350   23.7710 N   0  0  0  0  0  0  0  0  0  0  0  0
  -26.0900  -38.3560   23.9100 H   0  0  0  0  0  0  0  0  0  0  0  0
  2  1  1  0
  3  8  1  0
  3  1  1  0
  4 50  1  0
  4  2  1  0
  5  4  1  0
  5  3  1  0
  6  5  1  0
  7  5  1  0
  8 10  1  0
  9  8  2  0
 11 20  1  0
 11 10  2  0
 12 20  1  0
 13 18  1  0
 14 15  1  0
 14 13  1  0
 16 15  1  0
 16 25  1  0
 16 17  1  0
 18 12  1  0
 18 17  1  0
 19 12  2  0
 20 21  1  0
 22 23  2  0
 23 42  1  0
 24 23  1  0
 24 27  1  0
 25 26  1  0
 25 22  1  0
 26 24  2  0
 27 28  1  0
 28 29  2  0
 30 33  1  0
 30 29  1  0
 31 30  2  0
 32 31  1  0
 32 27  2  0
 33 34  1  0
 34 35  1  0
 35 36  2  0
 37 36  1  0
 37 41  1  0
 38 37  2  0
 39 34  2  0
 39 38  1  0
 40 39  1  0
 42 43  1  0
 43 46  1  0
 43 45  1  0
 44 42  2  0
 47 22  1  0
 47 48  1  0
 49 47  1  0
 50 51  1  0
 52 63  2  0
 53 51  1  0
 53 58  1  0
 54 62  1  0
 54 64  1  0
 55 61  1  0
 55 57  1  0
 56 62  1  0
 57 56  1  0
 58 57  2  0
 59 60  1  0
 59 53  2  0
 60 55  2  0
 61 54  1  0
 62 52  1  0
 64 66  2  0
 65 64  1  0
 67 65  1  0
 68 77  2  0
 68 73  1  0
 69 65  1  0
 69 73  1  0
 70 69  1  0
 71 72  1  0
 71 70  1  0
 72 68  1  0
 73 74  2  0
 74 75  1  0
 76 75  2  0
 77 76  1  0
 78 52  1  0
 78 83  1  0
 78 79  1  0
 79 82  1  1
 79 80  1  0
 81 79  1  0
 83 86  1  0
 84 88  1  0
 84 83  1  0
 85 84  2  0
 88 87  1  0
 90 88  1  0
 90 91  1  0
 90 89  1  0
M  ISO  4  12 100  20 100  50 101  51 101
M  END
>  <TORSDO>  (100) 
F 20

>  <SCORE>  (100) 
-13.803

>  <name>  (100) 
99

>  <ligand_id>  (100) 
99

>  <original_smiles>  (100) 
[H]c1c([H])c([H])c2c(c1[H])C([H])([H])C([H])([H])C([H])([H])C2([H])N([H])C(=O)C1([H])N(C(=O)C([H])(N([H])C(=O)C([H])(N([H])C([H])([H])[H])C([H])([H])[H])C(C([H])([H])[H])(C([H])([H])[H])C([H])([H])[H])C([H])([H])c2c([H])c(OC([H])([H])C3([H])C([H])([H])C([H])([H])C([H])(C(=O)C([H])([H])C([H])([H])N([H])C(=O)N4C([H])([H])C([H])([H])C([H])([H])C([H])(n5nc(-c6c([H])c([H])c(Oc7c([H])c([H])c(F)c([H])c7F)c([H])c6[H])c(C(=O)N([H])[H])c5N([H])[H])C4([H])[H])[N+]3([H])[H])c([H])c([H])c2C1([H])[H]

>  <smiles>  (100) 
[H]c1c([H])c([H])c2c(c1[H])C([H])([H])C([H])([H])C([H])([H])C2([H])N([H])C(=O)C1([H])N(C(=O)C([H])(N([H])C(=O)C([H])(N([H])C([H])([H])[H])C([H])([H])[H])C(C([H])([H])[H])(C([H])([H])[H])C([H])([H])[H])C([H])([H])c2c([H])c(OC([H])([H])C3([H])C([H])([H])C([H])([H])C([H])(C(=O)C([H])([H])C([H])([H])N([H])C(=O)N4C([H])([H])C([H])([H])C([H])([H])C([H])(n5nc(-c6c([H])c([H])c(Oc7c([H])c([H])c(F)c([H])c7F)c([H])c6[H])c(C(=O)N([H])[H])c5N([H])[H])C4([H])[H])[N+]3([H])[H])c([H])c([H])c2C1([H])[H]

$$$$
